4OCT_AKG_A_502


 12 11  0  0  0  0  0  0  0  0999 V2000
   12.5555    5.2028    3.4537 C   0  0  0  0  0  0  0  0  0  0  0  0
   12.4757    6.2325    2.8255 O   0  0  0  0  0  0  0  0  0  0  0  0
   11.3043    4.3841    3.5966 C   0  0  0  0  0  0  0  0  0  0  0  0
   10.2319    4.8005    2.9774 O   0  0  0  0  0  0  0  0  0  0  0  0
   11.3475    3.3177    4.3087 O   0  0  0  0  0  0  0  0  0  0  0  0
   12.1461    3.0679    4.7303 H   0  0  0  0  0  0  0  0  0  0  0  0
   13.9054    4.8412    4.0883 C   0  0  0  0  0  0  0  0  0  0  0  0
   14.5859    3.7091    3.2913 C   0  0  0  0  0  0  0  0  0  0  0  0
   14.9022    2.4764    4.1496 C   0  0  0  0  0  0  0  0  0  0  0  0
   14.0364    2.0338    4.9529 O   0  0  0  0  0  0  0  0  0  0  0  0
   16.0301    1.9198    4.0384 O   0  0  0  0  0  0  0  0  0  0  0  0
   16.6632    2.2601    3.4373 H   0  0  0  0  0  0  0  0  0  0  0  0
  3  4  2  0  0  0
  3  5  1  0  0  0
  3  1  1  0  0  0
  1  2  2  0  0  0
  1  7  1  0  0  0
  7  8  1  0  0  0
  8  9  1  0  0  0
  9 10  2  0  0  0
  9 11  1  0  0  0
  5  6  1  0  0  0
 11 12  1  0  0  0
M  END
> <minimizedAffinity>
-5.29132

$$$$
4OCT_AKG_A_502


 12 11  0  0  0  0  0  0  0  0999 V2000
   12.5722    5.2427    3.3242 C   0  0  0  0  0  0  0  0  0  0  0  0
   12.4776    6.3234    2.7907 O   0  0  0  0  0  0  0  0  0  0  0  0
   11.3065    4.4582    3.5206 C   0  0  0  0  0  0  0  0  0  0  0  0
   11.3643    3.3893    4.2696 O   0  0  0  0  0  0  0  0  0  0  0  0
   10.2331    4.8744    2.9542 O   0  0  0  0  0  0  0  0  0  0  0  0
   10.2515    5.6490    2.4272 H   0  0  0  0  0  0  0  0  0  0  0  0
   13.9587    4.7836    3.7955 C   0  0  0  0  0  0  0  0  0  0  0  0
   14.5919    3.8369    2.7547 C   0  0  0  0  0  0  0  0  0  0  0  0
   15.8793    4.3993    2.1361 C   0  0  0  0  0  0  0  0  0  0  0  0
   15.8602    5.5232    1.5639 O   0  0  0  0  0  0  0  0  0  0  0  0
   16.9448    3.7256    2.2095 O   0  0  0  0  0  0  0  0  0  0  0  0
   16.9436    2.8922    2.6378 H   0  0  0  0  0  0  0  0  0  0  0  0
  3  4  2  0  0  0
  3  5  1  0  0  0
  3  1  1  0  0  0
  1  2  2  0  0  0
  1  7  1  0  0  0
  7  8  1  0  0  0
  8  9  1  0  0  0
  9 10  2  0  0  0
  9 11  1  0  0  0
  5  6  1  0  0  0
 11 12  1  0  0  0
M  END
> <minimizedAffinity>
-5.22201

$$$$
4OCT_AKG_A_502


 12 11  0  0  0  0  0  0  0  0999 V2000
   11.0708    4.4616    3.5950 C   0  0  0  0  0  0  0  0  0  0  0  0
   10.7884    5.1206    2.6217 O   0  0  0  0  0  0  0  0  0  0  0  0
   10.0159    4.3087    4.6533 C   0  0  0  0  0  0  0  0  0  0  0  0
    9.7849    5.3312    5.4331 O   0  0  0  0  0  0  0  0  0  0  0  0
    9.3897    3.1920    4.7377 O   0  0  0  0  0  0  0  0  0  0  0  0
    9.5982    2.4923    4.1504 H   0  0  0  0  0  0  0  0  0  0  0  0
   12.4871    3.8783    3.6920 C   0  0  0  0  0  0  0  0  0  0  0  0
   13.5241    5.0111    3.8386 C   0  0  0  0  0  0  0  0  0  0  0  0
   14.2365    5.3475    2.5212 C   0  0  0  0  0  0  0  0  0  0  0  0
   15.3281    5.9790    2.5430 O   0  0  0  0  0  0  0  0  0  0  0  0
   13.7172    4.9851    1.4287 O   0  0  0  0  0  0  0  0  0  0  0  0
   12.9057    4.5166    1.4283 H   0  0  0  0  0  0  0  0  0  0  0  0
  3  4  2  0  0  0
  3  5  1  0  0  0
  3  1  1  0  0  0
  1  2  2  0  0  0
  1  7  1  0  0  0
  7  8  1  0  0  0
  8  9  1  0  0  0
  9 10  2  0  0  0
  9 11  1  0  0  0
  5  6  1  0  0  0
 11 12  1  0  0  0
M  END
> <minimizedAffinity>
-5.21647

$$$$
4OCT_AKG_A_502


 12 11  0  0  0  0  0  0  0  0999 V2000
   12.2042    4.4093    3.5150 C   0  0  0  0  0  0  0  0  0  0  0  0
   11.1070    4.7174    3.9179 O   0  0  0  0  0  0  0  0  0  0  0  0
   12.8776    5.3531    2.5599 C   0  0  0  0  0  0  0  0  0  0  0  0
   12.7251    6.6346    2.7634 O   0  0  0  0  0  0  0  0  0  0  0  0
   13.5722    4.8615    1.5997 O   0  0  0  0  0  0  0  0  0  0  0  0
   13.6462    3.9324    1.5029 H   0  0  0  0  0  0  0  0  0  0  0  0
   12.7962    3.0687    3.9710 C   0  0  0  0  0  0  0  0  0  0  0  0
   14.1959    3.2820    4.5836 C   0  0  0  0  0  0  0  0  0  0  0  0
   15.3162    2.6249    3.7653 C   0  0  0  0  0  0  0  0  0  0  0  0
   15.6880    3.1481    2.6795 O   0  0  0  0  0  0  0  0  0  0  0  0
   15.8527    1.5649    4.1931 O   0  0  0  0  0  0  0  0  0  0  0  0
   15.5658    1.1879    5.0016 H   0  0  0  0  0  0  0  0  0  0  0  0
  3  4  2  0  0  0
  3  5  1  0  0  0
  3  1  1  0  0  0
  1  2  2  0  0  0
  1  7  1  0  0  0
  7  8  1  0  0  0
  8  9  1  0  0  0
  9 10  2  0  0  0
  9 11  1  0  0  0
  5  6  1  0  0  0
 11 12  1  0  0  0
M  END
> <minimizedAffinity>
-5.21612

$$$$
4OCT_AKG_A_502


 12 11  0  0  0  0  0  0  0  0999 V2000
   14.7515    4.0740    3.0220 C   0  0  0  0  0  0  0  0  0  0  0  0
   15.3581    3.0732    2.7187 O   0  0  0  0  0  0  0  0  0  0  0  0
   14.9842    5.3005    2.1867 C   0  0  0  0  0  0  0  0  0  0  0  0
   14.0370    6.1996    2.1506 O   0  0  0  0  0  0  0  0  0  0  0  0
   16.0969    5.4116    1.5575 O   0  0  0  0  0  0  0  0  0  0  0  0
   16.7405    4.7336    1.6206 H   0  0  0  0  0  0  0  0  0  0  0  0
   13.8360    4.0242    4.2528 C   0  0  0  0  0  0  0  0  0  0  0  0
   12.4525    3.4597    3.8688 C   0  0  0  0  0  0  0  0  0  0  0  0
   11.3776    4.5468    3.7305 C   0  0  0  0  0  0  0  0  0  0  0  0
   10.5253    4.7049    4.6468 O   0  0  0  0  0  0  0  0  0  0  0  0
   11.3619    5.2713    2.6965 O   0  0  0  0  0  0  0  0  0  0  0  0
   12.0016    5.1420    2.0241 H   0  0  0  0  0  0  0  0  0  0  0  0
  3  4  2  0  0  0
  3  5  1  0  0  0
  3  1  1  0  0  0
  1  2  2  0  0  0
  1  7  1  0  0  0
  7  8  1  0  0  0
  8  9  1  0  0  0
  9 10  2  0  0  0
  9 11  1  0  0  0
  5  6  1  0  0  0
 11 12  1  0  0  0
M  END
> <minimizedAffinity>
-5.21386

$$$$
4OCT_AKG_A_502


 12 11  0  0  0  0  0  0  0  0999 V2000
   14.0419    2.9382    4.4052 C   0  0  0  0  0  0  0  0  0  0  0  0
   13.2626    2.1359    4.8638 O   0  0  0  0  0  0  0  0  0  0  0  0
   15.3378    2.4072    3.8623 C   0  0  0  0  0  0  0  0  0  0  0  0
   15.9856    3.1483    3.0031 O   0  0  0  0  0  0  0  0  0  0  0  0
   15.7499    1.2624    4.2694 O   0  0  0  0  0  0  0  0  0  0  0  0
   15.2423    0.7746    4.8878 H   0  0  0  0  0  0  0  0  0  0  0  0
   13.6679    4.4258    4.4562 C   0  0  0  0  0  0  0  0  0  0  0  0
   12.8999    4.8291    3.1804 C   0  0  0  0  0  0  0  0  0  0  0  0
   13.6547    5.8555    2.3241 C   0  0  0  0  0  0  0  0  0  0  0  0
   13.2334    7.0423    2.2526 O   0  0  0  0  0  0  0  0  0  0  0  0
   14.6921    5.4957    1.7007 O   0  0  0  0  0  0  0  0  0  0  0  0
   14.9930    4.6105    1.7635 H   0  0  0  0  0  0  0  0  0  0  0  0
  3  4  2  0  0  0
  3  5  1  0  0  0
  3  1  1  0  0  0
  1  2  2  0  0  0
  1  7  1  0  0  0
  7  8  1  0  0  0
  8  9  1  0  0  0
  9 10  2  0  0  0
  9 11  1  0  0  0
  5  6  1  0  0  0
 11 12  1  0  0  0
M  END
> <minimizedAffinity>
-5.11345

$$$$
4OCT_AKG_A_502


 12 11  0  0  0  0  0  0  0  0999 V2000
   13.9637    2.4614    4.1747 C   0  0  0  0  0  0  0  0  0  0  0  0
   12.9215    2.1460    4.6998 O   0  0  0  0  0  0  0  0  0  0  0  0
   15.1108    1.4983    4.2869 C   0  0  0  0  0  0  0  0  0  0  0  0
   14.8365    0.2212    4.2612 O   0  0  0  0  0  0  0  0  0  0  0  0
   16.2991    1.9702    4.3945 O   0  0  0  0  0  0  0  0  0  0  0  0
   16.4357    2.8971    4.4075 H   0  0  0  0  0  0  0  0  0  0  0  0
   14.0441    3.8287    3.4821 C   0  0  0  0  0  0  0  0  0  0  0  0
   14.6199    3.6751    2.0590 C   0  0  0  0  0  0  0  0  0  0  0  0
   15.9624    4.3959    1.8733 C   0  0  0  0  0  0  0  0  0  0  0  0
   17.0388    3.7914    2.1320 O   0  0  0  0  0  0  0  0  0  0  0  0
   15.9703    5.5896    1.4616 O   0  0  0  0  0  0  0  0  0  0  0  0
   15.1625    6.0256    1.2735 H   0  0  0  0  0  0  0  0  0  0  0  0
  3  4  2  0  0  0
  3  5  1  0  0  0
  3  1  1  0  0  0
  1  2  2  0  0  0
  1  7  1  0  0  0
  7  8  1  0  0  0
  8  9  1  0  0  0
  9 10  2  0  0  0
  9 11  1  0  0  0
  5  6  1  0  0  0
 11 12  1  0  0  0
M  END
> <minimizedAffinity>
-4.99889

$$$$
4OCT_AKG_A_502


 12 11  0  0  0  0  0  0  0  0999 V2000
   12.5860    3.6755    4.0461 C   0  0  0  0  0  0  0  0  0  0  0  0
   12.2905    2.5233    4.2615 O   0  0  0  0  0  0  0  0  0  0  0  0
   11.4645    4.6319    3.7568 C   0  0  0  0  0  0  0  0  0  0  0  0
   10.5078    4.7317    4.6410 O   0  0  0  0  0  0  0  0  0  0  0  0
   11.5007    5.3072    2.6665 O   0  0  0  0  0  0  0  0  0  0  0  0
   12.2132    5.1939    2.0686 H   0  0  0  0  0  0  0  0  0  0  0  0
   14.0729    4.0557    4.0398 C   0  0  0  0  0  0  0  0  0  0  0  0
   14.6881    3.7888    2.6504 C   0  0  0  0  0  0  0  0  0  0  0  0
   15.0444    5.0761    1.8940 C   0  0  0  0  0  0  0  0  0  0  0  0
   16.2534    5.4098    1.7605 O   0  0  0  0  0  0  0  0  0  0  0  0
   14.1175    5.7862    1.4133 O   0  0  0  0  0  0  0  0  0  0  0  0
   13.2239    5.5254    1.5205 H   0  0  0  0  0  0  0  0  0  0  0  0
  3  4  2  0  0  0
  3  5  1  0  0  0
  3  1  1  0  0  0
  1  2  2  0  0  0
  1  7  1  0  0  0
  7  8  1  0  0  0
  8  9  1  0  0  0
  9 10  2  0  0  0
  9 11  1  0  0  0
  5  6  1  0  0  0
 11 12  1  0  0  0
M  END
> <minimizedAffinity>
-4.97540

$$$$
4OCT_AKG_A_502


 12 11  0  0  0  0  0  0  0  0999 V2000
   14.6154    5.0470    2.8520 C   0  0  0  0  0  0  0  0  0  0  0  0
   14.9336    6.1820    2.5838 O   0  0  0  0  0  0  0  0  0  0  0  0
   15.1754    3.9523    1.9893 C   0  0  0  0  0  0  0  0  0  0  0  0
   16.0516    3.1447    2.5253 O   0  0  0  0  0  0  0  0  0  0  0  0
   14.7656    3.8566    0.7773 O   0  0  0  0  0  0  0  0  0  0  0  0
   14.1347    4.4653    0.4466 H   0  0  0  0  0  0  0  0  0  0  0  0
   13.6369    4.8213    4.0126 C   0  0  0  0  0  0  0  0  0  0  0  0
   12.4610    3.9327    3.5568 C   0  0  0  0  0  0  0  0  0  0  0  0
   11.1002    4.6348    3.6655 C   0  0  0  0  0  0  0  0  0  0  0  0
   10.4929    4.9891    2.6183 O   0  0  0  0  0  0  0  0  0  0  0  0
   10.6054    4.8484    4.8074 O   0  0  0  0  0  0  0  0  0  0  0  0
   11.0684    4.5795    5.5763 H   0  0  0  0  0  0  0  0  0  0  0  0
  3  4  2  0  0  0
  3  5  1  0  0  0
  3  1  1  0  0  0
  1  2  2  0  0  0
  1  7  1  0  0  0
  7  8  1  0  0  0
  8  9  1  0  0  0
  9 10  2  0  0  0
  9 11  1  0  0  0
  5  6  1  0  0  0
 11 12  1  0  0  0
M  END
> <minimizedAffinity>
-4.94057

$$$$
4OCT_AKG_A_502


 12 11  0  0  0  0  0  0  0  0999 V2000
   14.0983    2.5640    3.9525 C   0  0  0  0  0  0  0  0  0  0  0  0
   13.0267    2.4266    4.4948 O   0  0  0  0  0  0  0  0  0  0  0  0
   15.1522    1.5324    4.2376 C   0  0  0  0  0  0  0  0  0  0  0  0
   14.7739    0.2847    4.3217 O   0  0  0  0  0  0  0  0  0  0  0  0
   16.3674    1.9198    4.3771 O   0  0  0  0  0  0  0  0  0  0  0  0
   16.5802    2.8295    4.3062 H   0  0  0  0  0  0  0  0  0  0  0  0
   14.3093    3.7955    3.0611 C   0  0  0  0  0  0  0  0  0  0  0  0
   13.7371    5.0551    3.7437 C   0  0  0  0  0  0  0  0  0  0  0  0
   12.8220    5.8741    2.8227 C   0  0  0  0  0  0  0  0  0  0  0  0
   11.6195    5.5273    2.6652 O   0  0  0  0  0  0  0  0  0  0  0  0
   13.2881    6.8888    2.2332 O   0  0  0  0  0  0  0  0  0  0  0  0
   14.1835    7.1342    2.3599 H   0  0  0  0  0  0  0  0  0  0  0  0
  3  4  2  0  0  0
  3  5  1  0  0  0
  3  1  1  0  0  0
  1  2  2  0  0  0
  1  7  1  0  0  0
  7  8  1  0  0  0
  8  9  1  0  0  0
  9 10  2  0  0  0
  9 11  1  0  0  0
  5  6  1  0  0  0
 11 12  1  0  0  0
M  END
> <minimizedAffinity>
-4.93353

$$$$
