4X24_TDI_A_301


 24 26  0  0  0  0  0  0  0  0999 V2000
   15.0359   -6.3141   19.4673 C   0  0  0  0  0  0  0  0  0  0  0  0
   13.1980   -7.2701   20.5480 C   0  0  0  0  0  0  0  0  0  0  0  0
   13.9444   -8.4901   20.7933 C   0  0  0  0  0  0  0  0  0  0  0  0
   15.3171   -8.5086   20.3052 C   0  0  0  0  0  0  0  0  0  0  0  0
   11.8403   -7.4729   21.1041 C   0  0  0  0  0  0  0  0  0  0  0  0
   11.8955   -8.7533   21.6248 C   0  0  0  0  0  0  0  0  0  0  0  0
   13.1306   -9.3300   21.4550 N   0  0  0  0  0  0  0  0  0  0  0  0
   16.0854   -9.6027   20.5081 N   0  0  0  0  0  0  0  0  0  0  0  0
   15.7941   -7.4208   19.6679 N   0  0  0  0  0  0  0  0  0  0  0  0
   13.7576   -6.2319   19.8823 N   0  0  0  0  0  0  0  0  0  0  0  0
   13.3826  -10.2274   21.7717 H   0  0  0  0  0  0  0  0  0  0  0  0
   15.7141  -10.3851   20.9764 H   0  0  0  0  0  0  0  0  0  0  0  0
   17.0162   -9.6169   20.1876 H   0  0  0  0  0  0  0  0  0  0  0  0
   10.6395   -6.5512   21.1742 C   0  0  0  0  0  0  0  0  0  0  0  0
    9.1826   -7.5482   17.8839 C   0  0  0  0  0  0  0  0  0  0  0  0
    9.2361   -7.7798   19.3938 C   0  0  0  0  0  0  0  0  0  0  0  0
   10.0225   -6.6454   19.8520 N   0  0  0  0  0  0  0  0  0  0  0  0
   10.1086   -5.5426   18.8976 C   0  0  0  0  0  0  0  0  0  0  0  0
    9.2130   -6.0376   17.7800 C   0  0  0  0  0  0  0  0  0  0  0  0
    7.9282   -5.4919   18.0315 O   0  0  0  0  0  0  0  0  0  0  0  0
    7.6337   -5.7534   18.9179 H   0  0  0  0  0  0  0  0  0  0  0  0
   10.3612   -8.1980   17.1481 C   0  0  0  0  0  0  0  0  0  0  0  0
    8.7350   -9.5892   15.5356 C   0  0  0  0  0  0  0  0  0  0  0  0
   10.0822   -8.4871   15.4029 S   0  0  0  0  0  0  0  0  0  0  0  0
  1  9  2  0  0  0
  1 10  1  0  0  0
  2  3  1  0  0  0
  2  5  1  0  0  0
  2 10  2  0  0  0
  3  4  2  0  0  0
  3  7  1  0  0  0
  4  8  1  0  0  0
  4  9  1  0  0  0
 23 24  1  0  0  0
 24 22  1  0  0  0
 22 15  1  0  0  0
 15 16  1  0  0  0
 15 19  1  0  0  0
 16 17  1  0  0  0
 17 14  1  0  0  0
 17 18  1  0  0  0
 14  5  1  0  0  0
  5  6  2  0  0  0
  6  7  1  0  0  0
 18 19  1  0  0  0
 19 20  1  0  0  0
  7 11  1  0  0  0
  8 12  1  0  0  0
  8 13  1  0  0  0
 20 21  1  0  0  0
M  END
> <minimizedAffinity>
-9.55080

$$$$
