3UUO_0CV_A_1


 25 28  0  0  0  0  0  0  0  0999 V2000
    4.9341   12.2301   41.8407 C   0  0  0  0  0  0  0  0  0  0  0  0
    4.0179   13.6030   40.0906 C   0  0  0  0  0  0  0  0  0  0  0  0
    4.4451   13.0653   42.8568 C   0  0  0  0  0  0  0  0  0  0  0  0
    4.2100   13.6040   45.1680 C   0  0  0  0  0  0  0  0  0  0  0  0
    3.4933   14.5008   41.0435 C   0  0  0  0  0  0  0  0  0  0  0  0
    3.7089   14.2431   42.4528 C   0  0  0  0  0  0  0  0  0  0  0  0
    4.7347   12.7395   44.2335 C   0  0  0  0  0  0  0  0  0  0  0  0
    4.7627   12.4824   40.4755 C   0  0  0  0  0  0  0  0  0  0  0  0
    4.0678   13.6963   46.5223 C   0  0  0  0  0  0  0  0  0  0  0  0
    3.3984   14.7921   44.7039 C   0  0  0  0  0  0  0  0  0  0  0  0
    2.7331   15.6913   40.5320 C   0  0  0  0  0  0  0  0  0  0  0  0
    4.6461   12.8610   47.5934 C   0  0  0  0  0  0  0  0  0  0  0  0
    3.4067   14.7883   46.8846 N   0  0  0  0  0  0  0  0  0  0  0  0
    2.9735   15.4708   45.7603 N   0  0  0  0  0  0  0  0  0  0  0  0
    3.1945   15.0593   43.4303 N   0  0  0  0  0  0  0  0  0  0  0  0
    2.4486   16.3036   45.7478 H   0  0  0  0  0  0  0  0  0  0  0  0
    6.9554   11.8532   44.8125 C   0  0  0  0  0  0  0  0  0  0  0  0
    4.8445   10.3676   44.8876 C   0  0  0  0  0  0  0  0  0  0  0  0
    7.7694   10.5712   44.6917 C   0  0  0  0  0  0  0  0  0  0  0  0
    5.7547    9.1646   44.8120 C   0  0  0  0  0  0  0  0  0  0  0  0
    5.5472   11.6404   44.5698 N   0  0  0  0  0  0  0  0  0  0  0  0
    7.0500    9.5053   45.4581 N   0  0  0  0  0  0  0  0  0  0  0  0
    7.6340    8.6698   45.4953 H   0  0  0  0  0  0  0  0  0  0  0  0
    6.4228   10.9626   39.5921 C   0  0  0  0  0  0  0  0  0  0  0  0
    5.2227   11.7105   39.4418 O   0  0  0  0  0  0  0  0  0  0  0  0
 25 24  1  0  0  0
 25  8  1  0  0  0
  2  8  2  0  0  0
  2  5  1  0  0  0
  8  1  1  0  0  0
 11  5  1  0  0  0
  5  6  2  0  0  0
  1  3  2  0  0  0
  6  3  1  0  0  0
  6 15  1  0  0  0
  3  7  1  0  0  0
 15 10  2  0  0  0
  7 21  1  0  0  0
  7  4  2  0  0  0
 18 21  1  0  0  0
 18 20  1  0  0  0
 21 17  1  0  0  0
 10  4  1  0  0  0
 10 14  1  0  0  0
 17 19  1  0  0  0
 22 20  1  0  0  0
 22 19  1  0  0  0
  4  9  1  0  0  0
 14 13  1  0  0  0
  9 13  2  0  0  0
  9 12  1  0  0  0
 14 16  1  0  0  0
 22 23  1  0  0  0
M  END
> <minimizedAffinity>
-8.34855

$$$$
3UUO_0CV_A_1


 25 28  0  0  0  0  0  0  0  0999 V2000
    5.0162   12.4977   43.4150 C   0  0  0  0  0  0  0  0  0  0  0  0
    3.6684   14.4288   43.9064 C   0  0  0  0  0  0  0  0  0  0  0  0
    5.2239   12.2025   44.7710 C   0  0  0  0  0  0  0  0  0  0  0  0
    6.1982   10.8487   46.4754 C   0  0  0  0  0  0  0  0  0  0  0  0
    3.8277   14.2113   45.2908 C   0  0  0  0  0  0  0  0  0  0  0  0
    4.6215   13.0872   45.7441 C   0  0  0  0  0  0  0  0  0  0  0  0
    6.0537   11.0750   45.1249 C   0  0  0  0  0  0  0  0  0  0  0  0
    4.2801   13.5974   42.9614 C   0  0  0  0  0  0  0  0  0  0  0  0
    6.7231    9.9076   47.3130 C   0  0  0  0  0  0  0  0  0  0  0  0
    5.5045   11.7649   47.4578 C   0  0  0  0  0  0  0  0  0  0  0  0
    3.1570   15.1754   46.2276 C   0  0  0  0  0  0  0  0  0  0  0  0
    7.5640    8.7333   47.0082 C   0  0  0  0  0  0  0  0  0  0  0  0
    6.5261   10.2067   48.5908 N   0  0  0  0  0  0  0  0  0  0  0  0
    5.7570   11.3537   48.6924 N   0  0  0  0  0  0  0  0  0  0  0  0
    4.7858   12.8011   47.0773 N   0  0  0  0  0  0  0  0  0  0  0  0
    5.4545   11.7830   49.5251 H   0  0  0  0  0  0  0  0  0  0  0  0
    8.0880   10.5898   43.8293 C   0  0  0  0  0  0  0  0  0  0  0  0
    5.9872    9.0980   43.6576 C   0  0  0  0  0  0  0  0  0  0  0  0
    8.5045   10.0408   42.4707 C   0  0  0  0  0  0  0  0  0  0  0  0
    6.5230    8.5886   42.3405 C   0  0  0  0  0  0  0  0  0  0  0  0
    6.7054   10.3087   44.1404 N   0  0  0  0  0  0  0  0  0  0  0  0
    8.0089    8.6310   42.3818 N   0  0  0  0  0  0  0  0  0  0  0  0
    8.3784    8.2006   41.5340 H   0  0  0  0  0  0  0  0  0  0  0  0
    3.1012   14.9501   41.3407 C   0  0  0  0  0  0  0  0  0  0  0  0
    4.0510   13.9397   41.6551 O   0  0  0  0  0  0  0  0  0  0  0  0
 25 24  1  0  0  0
 25  8  1  0  0  0
  2  8  2  0  0  0
  2  5  1  0  0  0
  8  1  1  0  0  0
 11  5  1  0  0  0
  5  6  2  0  0  0
  1  3  2  0  0  0
  6  3  1  0  0  0
  6 15  1  0  0  0
  3  7  1  0  0  0
 15 10  2  0  0  0
  7 21  1  0  0  0
  7  4  2  0  0  0
 18 21  1  0  0  0
 18 20  1  0  0  0
 21 17  1  0  0  0
 10  4  1  0  0  0
 10 14  1  0  0  0
 17 19  1  0  0  0
 22 20  1  0  0  0
 22 19  1  0  0  0
  4  9  1  0  0  0
 14 13  1  0  0  0
  9 13  2  0  0  0
  9 12  1  0  0  0
 14 16  1  0  0  0
 22 23  1  0  0  0
M  END
> <minimizedAffinity>
-8.21221

$$$$
3UUO_0CV_A_1


 25 28  0  0  0  0  0  0  0  0999 V2000
    5.1287   12.2701   43.3139 C   0  0  0  0  0  0  0  0  0  0  0  0
    3.7735   14.2029   43.7775 C   0  0  0  0  0  0  0  0  0  0  0  0
    5.3398   11.9968   44.6741 C   0  0  0  0  0  0  0  0  0  0  0  0
    6.3223   10.6737   46.3977 C   0  0  0  0  0  0  0  0  0  0  0  0
    3.9358   14.0074   45.1649 C   0  0  0  0  0  0  0  0  0  0  0  0
    4.7351   12.8939   45.6343 C   0  0  0  0  0  0  0  0  0  0  0  0
    6.1749   10.8785   45.0441 C   0  0  0  0  0  0  0  0  0  0  0  0
    4.3873   13.3596   42.8445 C   0  0  0  0  0  0  0  0  0  0  0  0
    6.8524    9.7479   47.2489 C   0  0  0  0  0  0  0  0  0  0  0  0
    5.6262   11.6020   47.3669 C   0  0  0  0  0  0  0  0  0  0  0  0
    3.2623   14.9831   46.0877 C   0  0  0  0  0  0  0  0  0  0  0  0
    7.6979    8.5725   46.9610 C   0  0  0  0  0  0  0  0  0  0  0  0
    6.6561   10.0658   48.5222 N   0  0  0  0  0  0  0  0  0  0  0  0
    5.8822   11.2110   48.6073 N   0  0  0  0  0  0  0  0  0  0  0  0
    4.9025   12.6292   46.9715 N   0  0  0  0  0  0  0  0  0  0  0  0
    5.5791   11.6518   49.4337 H   0  0  0  0  0  0  0  0  0  0  0  0
    6.1214    8.9989   43.4576 C   0  0  0  0  0  0  0  0  0  0  0  0
    8.1287   10.6199   43.5670 C   0  0  0  0  0  0  0  0  0  0  0  0
    7.0608    7.9887   42.8113 C   0  0  0  0  0  0  0  0  0  0  0  0
    8.9536    9.5588   42.8778 C   0  0  0  0  0  0  0  0  0  0  0  0
    6.8284   10.0998   44.0705 N   0  0  0  0  0  0  0  0  0  0  0  0
    8.0604    8.7546   42.0019 N   0  0  0  0  0  0  0  0  0  0  0  0
    8.6252    8.0987   41.4623 H   0  0  0  0  0  0  0  0  0  0  0  0
    3.7916   15.0093   41.1803 C   0  0  0  0  0  0  0  0  0  0  0  0
    4.1549   13.6806   41.5335 O   0  0  0  0  0  0  0  0  0  0  0  0
 25 24  1  0  0  0
 25  8  1  0  0  0
  2  8  2  0  0  0
  2  5  1  0  0  0
  8  1  1  0  0  0
 11  5  1  0  0  0
  5  6  2  0  0  0
  1  3  2  0  0  0
  6  3  1  0  0  0
  6 15  1  0  0  0
  3  7  1  0  0  0
 15 10  2  0  0  0
  7 21  1  0  0  0
  7  4  2  0  0  0
 18 21  1  0  0  0
 18 20  1  0  0  0
 21 17  1  0  0  0
 10  4  1  0  0  0
 10 14  1  0  0  0
 17 19  1  0  0  0
 22 20  1  0  0  0
 22 19  1  0  0  0
  4  9  1  0  0  0
 14 13  1  0  0  0
  9 13  2  0  0  0
  9 12  1  0  0  0
 14 16  1  0  0  0
 22 23  1  0  0  0
M  END
> <minimizedAffinity>
-7.90868

$$$$
3UUO_0CV_A_1


 25 28  0  0  0  0  0  0  0  0999 V2000
    6.0776   10.9871   44.3043 C   0  0  0  0  0  0  0  0  0  0  0  0
    4.7914   12.4325   45.7337 C   0  0  0  0  0  0  0  0  0  0  0  0
    6.7835   10.4252   45.3791 C   0  0  0  0  0  0  0  0  0  0  0  0
    8.4393    8.9292   46.2201 C   0  0  0  0  0  0  0  0  0  0  0  0
    5.4539   11.9278   46.8720 C   0  0  0  0  0  0  0  0  0  0  0  0
    6.4735   10.9121   46.7054 C   0  0  0  0  0  0  0  0  0  0  0  0
    7.8017    9.4371   45.1104 C   0  0  0  0  0  0  0  0  0  0  0  0
    5.1142   11.9915   44.4454 C   0  0  0  0  0  0  0  0  0  0  0  0
    9.3256    7.9413   46.5382 C   0  0  0  0  0  0  0  0  0  0  0  0
    8.0445    9.4254   47.5925 C   0  0  0  0  0  0  0  0  0  0  0  0
    5.0590   12.4850   48.2101 C   0  0  0  0  0  0  0  0  0  0  0  0
   10.1256    7.0681   45.6569 C   0  0  0  0  0  0  0  0  0  0  0  0
    9.5636    7.8810   47.8423 N   0  0  0  0  0  0  0  0  0  0  0  0
    8.7613    8.7912   48.5097 N   0  0  0  0  0  0  0  0  0  0  0  0
    7.1299   10.3555   47.7758 N   0  0  0  0  0  0  0  0  0  0  0  0
    8.7293    8.9394   49.4824 H   0  0  0  0  0  0  0  0  0  0  0  0
    9.2680    9.7146   43.1546 C   0  0  0  0  0  0  0  0  0  0  0  0
    7.4535    7.8790   43.2351 C   0  0  0  0  0  0  0  0  0  0  0  0
    9.2264    9.5926   41.6367 C   0  0  0  0  0  0  0  0  0  0  0  0
    7.5322    7.8112   41.7282 C   0  0  0  0  0  0  0  0  0  0  0  0
    8.1406    9.0754   43.7930 N   0  0  0  0  0  0  0  0  0  0  0  0
    8.9133    8.1665   41.3064 N   0  0  0  0  0  0  0  0  0  0  0  0
    8.9994    8.0310   40.2991 H   0  0  0  0  0  0  0  0  0  0  0  0
    3.9416   13.9200   43.5784 C   0  0  0  0  0  0  0  0  0  0  0  0
    4.4011   12.5819   43.4361 O   0  0  0  0  0  0  0  0  0  0  0  0
 25 24  1  0  0  0
 25  8  1  0  0  0
  2  8  2  0  0  0
  2  5  1  0  0  0
  8  1  1  0  0  0
 11  5  1  0  0  0
  5  6  2  0  0  0
  1  3  2  0  0  0
  6  3  1  0  0  0
  6 15  1  0  0  0
  3  7  1  0  0  0
 15 10  2  0  0  0
  7 21  1  0  0  0
  7  4  2  0  0  0
 18 21  1  0  0  0
 18 20  1  0  0  0
 21 17  1  0  0  0
 10  4  1  0  0  0
 10 14  1  0  0  0
 17 19  1  0  0  0
 22 20  1  0  0  0
 22 19  1  0  0  0
  4  9  1  0  0  0
 14 13  1  0  0  0
  9 13  2  0  0  0
  9 12  1  0  0  0
 14 16  1  0  0  0
 22 23  1  0  0  0
M  END
> <minimizedAffinity>
-7.87560

$$$$
3UUO_0CV_A_1


 25 28  0  0  0  0  0  0  0  0999 V2000
    7.2227   11.7924   44.4439 C   0  0  0  0  0  0  0  0  0  0  0  0
    8.5977   10.0470   45.3660 C   0  0  0  0  0  0  0  0  0  0  0  0
    6.5111   11.9692   45.6403 C   0  0  0  0  0  0  0  0  0  0  0  0
    4.8045   13.0601   46.8990 C   0  0  0  0  0  0  0  0  0  0  0  0
    7.9331   10.1523   46.6056 C   0  0  0  0  0  0  0  0  0  0  0  0
    6.8659   11.1205   46.7567 C   0  0  0  0  0  0  0  0  0  0  0  0
    5.4449   12.9419   45.6858 C   0  0  0  0  0  0  0  0  0  0  0  0
    8.2329   10.8399   44.2721 C   0  0  0  0  0  0  0  0  0  0  0  0
    3.8802   13.8620   47.5034 C   0  0  0  0  0  0  0  0  0  0  0  0
    5.2453   12.1928   48.0563 C   0  0  0  0  0  0  0  0  0  0  0  0
    8.3761    9.2372   47.7116 C   0  0  0  0  0  0  0  0  0  0  0  0
    3.0264   14.9207   46.9295 C   0  0  0  0  0  0  0  0  0  0  0  0
    3.6626   13.5147   48.7655 N   0  0  0  0  0  0  0  0  0  0  0  0
    4.5167   12.4854   49.1243 N   0  0  0  0  0  0  0  0  0  0  0  0
    6.2039   11.2960   47.9472 N   0  0  0  0  0  0  0  0  0  0  0  0
    4.5724   12.0524   50.0067 H   0  0  0  0  0  0  0  0  0  0  0  0
    4.2481   13.0253   43.5381 C   0  0  0  0  0  0  0  0  0  0  0  0
    5.3418   15.1298   44.5596 C   0  0  0  0  0  0  0  0  0  0  0  0
    4.3178   13.7285   42.1884 C   0  0  0  0  0  0  0  0  0  0  0  0
    5.3158   15.7461   43.1809 C   0  0  0  0  0  0  0  0  0  0  0  0
    5.0671   13.6673   44.5403 N   0  0  0  0  0  0  0  0  0  0  0  0
    4.1533   15.1959   42.4344 N   0  0  0  0  0  0  0  0  0  0  0  0
    4.0743   15.6772   41.5386 H   0  0  0  0  0  0  0  0  0  0  0  0
   10.2942   10.1486   43.2142 C   0  0  0  0  0  0  0  0  0  0  0  0
    8.9541   10.6166   43.1294 O   0  0  0  0  0  0  0  0  0  0  0  0
 25 24  1  0  0  0
 25  8  1  0  0  0
  2  8  2  0  0  0
  2  5  1  0  0  0
  8  1  1  0  0  0
 11  5  1  0  0  0
  5  6  2  0  0  0
  1  3  2  0  0  0
  6  3  1  0  0  0
  6 15  1  0  0  0
  3  7  1  0  0  0
 15 10  2  0  0  0
  7 21  1  0  0  0
  7  4  2  0  0  0
 18 21  1  0  0  0
 18 20  1  0  0  0
 21 17  1  0  0  0
 10  4  1  0  0  0
 10 14  1  0  0  0
 17 19  1  0  0  0
 22 20  1  0  0  0
 22 19  1  0  0  0
  4  9  1  0  0  0
 14 13  1  0  0  0
  9 13  2  0  0  0
  9 12  1  0  0  0
 14 16  1  0  0  0
 22 23  1  0  0  0
M  END
> <minimizedAffinity>
-7.44000

$$$$
3UUO_0CV_A_1


 25 28  0  0  0  0  0  0  0  0999 V2000
    5.0225   12.3273   45.0886 C   0  0  0  0  0  0  0  0  0  0  0  0
    3.7858   14.2120   44.2487 C   0  0  0  0  0  0  0  0  0  0  0  0
    5.2651   11.8167   43.8042 C   0  0  0  0  0  0  0  0  0  0  0  0
    6.1985   10.1524   42.3739 C   0  0  0  0  0  0  0  0  0  0  0  0
    3.9768   13.7707   42.9228 C   0  0  0  0  0  0  0  0  0  0  0  0
    4.7211   12.5510   42.6829 C   0  0  0  0  0  0  0  0  0  0  0  0
    5.9949   10.5782   43.6674 C   0  0  0  0  0  0  0  0  0  0  0  0
    4.2782   13.4851   45.3385 C   0  0  0  0  0  0  0  0  0  0  0  0
    6.8932    9.1881   41.7029 C   0  0  0  0  0  0  0  0  0  0  0  0
    5.6612   10.9804   41.2288 C   0  0  0  0  0  0  0  0  0  0  0  0
    3.3848   14.6030   41.8211 C   0  0  0  0  0  0  0  0  0  0  0  0
    7.6368    8.0233   42.2223 C   0  0  0  0  0  0  0  0  0  0  0  0
    6.7427    9.2837   40.3880 N   0  0  0  0  0  0  0  0  0  0  0  0
    5.9888   10.4040   40.0809 N   0  0  0  0  0  0  0  0  0  0  0  0
    4.9714   12.0871   41.4147 N   0  0  0  0  0  0  0  0  0  0  0  0
    5.7424   10.7140   39.1796 H   0  0  0  0  0  0  0  0  0  0  0  0
    7.5628   10.2944   45.5418 C   0  0  0  0  0  0  0  0  0  0  0  0
    5.4814    8.7886   45.2797 C   0  0  0  0  0  0  0  0  0  0  0  0
    8.1663    9.1925   46.4034 C   0  0  0  0  0  0  0  0  0  0  0  0
    6.1588    7.7874   46.1853 C   0  0  0  0  0  0  0  0  0  0  0  0
    6.4103    9.8454   44.7951 N   0  0  0  0  0  0  0  0  0  0  0  0
    7.0430    8.5206   47.1298 N   0  0  0  0  0  0  0  0  0  0  0  0
    7.4299    7.8608   47.8046 H   0  0  0  0  0  0  0  0  0  0  0  0
    3.2252   15.2121   46.6631 C   0  0  0  0  0  0  0  0  0  0  0  0
    4.0023   14.0252   46.5665 O   0  0  0  0  0  0  0  0  0  0  0  0
 25 24  1  0  0  0
 25  8  1  0  0  0
  2  8  2  0  0  0
  2  5  1  0  0  0
  8  1  1  0  0  0
 11  5  1  0  0  0
  5  6  2  0  0  0
  1  3  2  0  0  0
  6  3  1  0  0  0
  6 15  1  0  0  0
  3  7  1  0  0  0
 15 10  2  0  0  0
  7 21  1  0  0  0
  7  4  2  0  0  0
 18 21  1  0  0  0
 18 20  1  0  0  0
 21 17  1  0  0  0
 10  4  1  0  0  0
 10 14  1  0  0  0
 17 19  1  0  0  0
 22 20  1  0  0  0
 22 19  1  0  0  0
  4  9  1  0  0  0
 14 13  1  0  0  0
  9 13  2  0  0  0
  9 12  1  0  0  0
 14 16  1  0  0  0
 22 23  1  0  0  0
M  END
> <minimizedAffinity>
-7.15946

$$$$
3UUO_0CV_A_1


 25 28  0  0  0  0  0  0  0  0999 V2000
    5.2190   12.1893   45.1356 C   0  0  0  0  0  0  0  0  0  0  0  0
    3.9249   14.0581   44.3481 C   0  0  0  0  0  0  0  0  0  0  0  0
    5.4309   11.6920   43.8407 C   0  0  0  0  0  0  0  0  0  0  0  0
    6.3484   10.0542   42.3701 C   0  0  0  0  0  0  0  0  0  0  0  0
    4.0827   13.6293   43.0137 C   0  0  0  0  0  0  0  0  0  0  0  0
    4.8401   12.4245   42.7421 C   0  0  0  0  0  0  0  0  0  0  0  0
    6.1773   10.4674   43.6723 C   0  0  0  0  0  0  0  0  0  0  0  0
    4.4629   13.3323   45.4168 C   0  0  0  0  0  0  0  0  0  0  0  0
    7.0387    9.1069   41.6710 C   0  0  0  0  0  0  0  0  0  0  0  0
    5.7620   10.8807   41.2481 C   0  0  0  0  0  0  0  0  0  0  0  0
    3.4428   14.4588   41.9369 C   0  0  0  0  0  0  0  0  0  0  0  0
    7.8178    7.9517   42.1587 C   0  0  0  0  0  0  0  0  0  0  0  0
    6.8463    9.2090   40.3620 N   0  0  0  0  0  0  0  0  0  0  0  0
    6.0641   10.3181   40.0866 N   0  0  0  0  0  0  0  0  0  0  0  0
    5.0593   11.9739   41.4634 N   0  0  0  0  0  0  0  0  0  0  0  0
    5.7849   10.6300   39.1955 H   0  0  0  0  0  0  0  0  0  0  0  0
    5.8837    8.5893   45.2340 C   0  0  0  0  0  0  0  0  0  0  0  0
    8.0118   10.0519   45.2623 C   0  0  0  0  0  0  0  0  0  0  0  0
    6.2150    8.2007   46.6693 C   0  0  0  0  0  0  0  0  0  0  0  0
    8.2653    9.5604   46.6678 C   0  0  0  0  0  0  0  0  0  0  0  0
    6.6398    9.7342   44.7813 N   0  0  0  0  0  0  0  0  0  0  0  0
    7.7061    8.1889   46.8015 N   0  0  0  0  0  0  0  0  0  0  0  0
    7.9566    7.8145   47.7166 H   0  0  0  0  0  0  0  0  0  0  0  0
    3.3689   14.9933   46.7916 C   0  0  0  0  0  0  0  0  0  0  0  0
    4.2156   13.8589   46.6567 O   0  0  0  0  0  0  0  0  0  0  0  0
 25 24  1  0  0  0
 25  8  1  0  0  0
  2  8  2  0  0  0
  2  5  1  0  0  0
  8  1  1  0  0  0
 11  5  1  0  0  0
  5  6  2  0  0  0
  1  3  2  0  0  0
  6  3  1  0  0  0
  6 15  1  0  0  0
  3  7  1  0  0  0
 15 10  2  0  0  0
  7 21  1  0  0  0
  7  4  2  0  0  0
 18 21  1  0  0  0
 18 20  1  0  0  0
 21 17  1  0  0  0
 10  4  1  0  0  0
 10 14  1  0  0  0
 17 19  1  0  0  0
 22 20  1  0  0  0
 22 19  1  0  0  0
  4  9  1  0  0  0
 14 13  1  0  0  0
  9 13  2  0  0  0
  9 12  1  0  0  0
 14 16  1  0  0  0
 22 23  1  0  0  0
M  END
> <minimizedAffinity>
-7.08642

$$$$
3UUO_0CV_A_1


 25 28  0  0  0  0  0  0  0  0999 V2000
    5.2312   12.0742   43.0986 C   0  0  0  0  0  0  0  0  0  0  0  0
    5.2373   13.3503   45.1379 C   0  0  0  0  0  0  0  0  0  0  0  0
    4.4200   13.0034   42.4295 C   0  0  0  0  0  0  0  0  0  0  0  0
    3.2360   13.7018   40.4808 C   0  0  0  0  0  0  0  0  0  0  0  0
    4.4173   14.3341   44.5470 C   0  0  0  0  0  0  0  0  0  0  0  0
    3.9890   14.1669   43.1731 C   0  0  0  0  0  0  0  0  0  0  0  0
    4.0226   12.7358   41.0673 C   0  0  0  0  0  0  0  0  0  0  0  0
    5.6260   12.2047   44.4343 C   0  0  0  0  0  0  0  0  0  0  0  0
    2.7217   14.0083   39.2543 C   0  0  0  0  0  0  0  0  0  0  0  0
    2.8554   14.9299   41.2762 C   0  0  0  0  0  0  0  0  0  0  0  0
    4.0280   15.5135   45.3921 C   0  0  0  0  0  0  0  0  0  0  0  0
    2.7055   13.2143   38.0099 C   0  0  0  0  0  0  0  0  0  0  0  0
    2.0347   15.1435   39.2672 N   0  0  0  0  0  0  0  0  0  0  0  0
    2.1227   15.7326   40.5174 N   0  0  0  0  0  0  0  0  0  0  0  0
    3.2195   15.1053   42.5300 N   0  0  0  0  0  0  0  0  0  0  0  0
    1.7173   16.5870   40.7911 H   0  0  0  0  0  0  0  0  0  0  0  0
    3.4276   10.4512   40.3752 C   0  0  0  0  0  0  0  0  0  0  0  0
    5.6354   11.5602   39.6241 C   0  0  0  0  0  0  0  0  0  0  0  0
    4.0868    9.1072   40.0923 C   0  0  0  0  0  0  0  0  0  0  0  0
    6.1683   10.1770   39.3342 C   0  0  0  0  0  0  0  0  0  0  0  0
    4.3801   11.5364   40.4231 N   0  0  0  0  0  0  0  0  0  0  0  0
    5.0317    9.2995   38.9473 N   0  0  0  0  0  0  0  0  0  0  0  0
    5.3951    8.3911   38.6589 H   0  0  0  0  0  0  0  0  0  0  0  0
    7.7465   11.0818   44.7314 C   0  0  0  0  0  0  0  0  0  0  0  0
    6.4073   11.3292   45.1405 O   0  0  0  0  0  0  0  0  0  0  0  0
 25 24  1  0  0  0
 25  8  1  0  0  0
  2  8  2  0  0  0
  2  5  1  0  0  0
  8  1  1  0  0  0
 11  5  1  0  0  0
  5  6  2  0  0  0
  1  3  2  0  0  0
  6  3  1  0  0  0
  6 15  1  0  0  0
  3  7  1  0  0  0
 15 10  2  0  0  0
  7 21  1  0  0  0
  7  4  2  0  0  0
 18 21  1  0  0  0
 18 20  1  0  0  0
 21 17  1  0  0  0
 10  4  1  0  0  0
 10 14  1  0  0  0
 17 19  1  0  0  0
 22 20  1  0  0  0
 22 19  1  0  0  0
  4  9  1  0  0  0
 14 13  1  0  0  0
  9 13  2  0  0  0
  9 12  1  0  0  0
 14 16  1  0  0  0
 22 23  1  0  0  0
M  END
> <minimizedAffinity>
-6.99985

$$$$
3UUO_0CV_A_1


 25 28  0  0  0  0  0  0  0  0999 V2000
    5.0623   13.3755   43.6681 C   0  0  0  0  0  0  0  0  0  0  0  0
    3.6513   14.7079   42.2465 C   0  0  0  0  0  0  0  0  0  0  0  0
    5.0407   12.2797   42.7917 C   0  0  0  0  0  0  0  0  0  0  0  0
    5.6809   10.0499   42.2398 C   0  0  0  0  0  0  0  0  0  0  0  0
    3.5695   13.6563   41.3100 C   0  0  0  0  0  0  0  0  0  0  0  0
    4.2653   12.4141   41.5780 C   0  0  0  0  0  0  0  0  0  0  0  0
    5.7439   11.0732   43.1589 C   0  0  0  0  0  0  0  0  0  0  0  0
    4.3694   14.5691   43.4396 C   0  0  0  0  0  0  0  0  0  0  0  0
    6.2353    8.8214   42.0247 C   0  0  0  0  0  0  0  0  0  0  0  0
    4.9059   10.2531   40.9577 C   0  0  0  0  0  0  0  0  0  0  0  0
    2.7499   13.8896   40.0728 C   0  0  0  0  0  0  0  0  0  0  0  0
    7.0871    8.0001   42.9074 C   0  0  0  0  0  0  0  0  0  0  0  0
    5.8139    8.2715   40.8929 N   0  0  0  0  0  0  0  0  0  0  0  0
    4.9966    9.1596   40.2140 N   0  0  0  0  0  0  0  0  0  0  0  0
    4.2538   11.3660   40.6906 N   0  0  0  0  0  0  0  0  0  0  0  0
    4.5642    9.0074   39.3427 H   0  0  0  0  0  0  0  0  0  0  0  0
    5.7033   10.3241   45.5019 C   0  0  0  0  0  0  0  0  0  0  0  0
    7.8476   11.2769   44.4235 C   0  0  0  0  0  0  0  0  0  0  0  0
    6.3062   10.6836   46.8539 C   0  0  0  0  0  0  0  0  0  0  0  0
    8.3642   11.5450   45.8172 C   0  0  0  0  0  0  0  0  0  0  0  0
    6.3948   10.9551   44.4014 N   0  0  0  0  0  0  0  0  0  0  0  0
    7.7911   10.5308   46.7415 N   0  0  0  0  0  0  0  0  0  0  0  0
    8.2090   10.6472   47.6647 H   0  0  0  0  0  0  0  0  0  0  0  0
    3.8570   15.5493   45.5896 C   0  0  0  0  0  0  0  0  0  0  0  0
    4.3465   15.6659   44.2597 O   0  0  0  0  0  0  0  0  0  0  0  0
 25 24  1  0  0  0
 25  8  1  0  0  0
  2  8  2  0  0  0
  2  5  1  0  0  0
  8  1  1  0  0  0
 11  5  1  0  0  0
  5  6  2  0  0  0
  1  3  2  0  0  0
  6  3  1  0  0  0
  6 15  1  0  0  0
  3  7  1  0  0  0
 15 10  2  0  0  0
  7 21  1  0  0  0
  7  4  2  0  0  0
 18 21  1  0  0  0
 18 20  1  0  0  0
 21 17  1  0  0  0
 10  4  1  0  0  0
 10 14  1  0  0  0
 17 19  1  0  0  0
 22 20  1  0  0  0
 22 19  1  0  0  0
  4  9  1  0  0  0
 14 13  1  0  0  0
  9 13  2  0  0  0
  9 12  1  0  0  0
 14 16  1  0  0  0
 22 23  1  0  0  0
M  END
> <minimizedAffinity>
-6.97969

$$$$
3UUO_0CV_A_1


 25 28  0  0  0  0  0  0  0  0999 V2000
    6.0244   11.2999   45.7301 C   0  0  0  0  0  0  0  0  0  0  0  0
    4.9468   12.6842   47.3762 C   0  0  0  0  0  0  0  0  0  0  0  0
    5.4082   11.9628   44.6577 C   0  0  0  0  0  0  0  0  0  0  0  0
    5.0340   12.2229   42.3169 C   0  0  0  0  0  0  0  0  0  0  0  0
    4.2801   13.4035   46.3625 C   0  0  0  0  0  0  0  0  0  0  0  0
    4.5002   13.0427   44.9767 C   0  0  0  0  0  0  0  0  0  0  0  0
    5.6695   11.5127   43.3107 C   0  0  0  0  0  0  0  0  0  0  0  0
    5.7970   11.6145   47.0741 C   0  0  0  0  0  0  0  0  0  0  0  0
    5.0287   12.3117   40.9550 C   0  0  0  0  0  0  0  0  0  0  0  0
    4.1376   13.3810   42.6922 C   0  0  0  0  0  0  0  0  0  0  0  0
    3.3642   14.5160   46.7872 C   0  0  0  0  0  0  0  0  0  0  0  0
    5.6781   11.4493   39.9481 C   0  0  0  0  0  0  0  0  0  0  0  0
    4.2017   13.2522   40.5162 N   0  0  0  0  0  0  0  0  0  0  0  0
    3.6519   13.9332   41.5893 N   0  0  0  0  0  0  0  0  0  0  0  0
    3.9087   13.7261   43.9426 N   0  0  0  0  0  0  0  0  0  0  0  0
    3.0191   14.6860   41.5420 H   0  0  0  0  0  0  0  0  0  0  0  0
    7.9113   10.5067   43.1888 C   0  0  0  0  0  0  0  0  0  0  0  0
    5.7737    9.0850   42.9093 C   0  0  0  0  0  0  0  0  0  0  0  0
    8.6583    9.4043   42.4491 C   0  0  0  0  0  0  0  0  0  0  0  0
    6.6245    8.0375   42.2308 C   0  0  0  0  0  0  0  0  0  0  0  0
    6.4773   10.3878   43.0590 N   0  0  0  0  0  0  0  0  0  0  0  0
    8.0002    8.1041   42.7916 N   0  0  0  0  0  0  0  0  0  0  0  0
    8.5542    7.3387   42.4073 H   0  0  0  0  0  0  0  0  0  0  0  0
    6.8338    9.6624   48.0540 C   0  0  0  0  0  0  0  0  0  0  0  0
    6.3614   10.9995   48.1599 O   0  0  0  0  0  0  0  0  0  0  0  0
 25 24  1  0  0  0
 25  8  1  0  0  0
  2  8  2  0  0  0
  2  5  1  0  0  0
  8  1  1  0  0  0
 11  5  1  0  0  0
  5  6  2  0  0  0
  1  3  2  0  0  0
  6  3  1  0  0  0
  6 15  1  0  0  0
  3  7  1  0  0  0
 15 10  2  0  0  0
  7 21  1  0  0  0
  7  4  2  0  0  0
 18 21  1  0  0  0
 18 20  1  0  0  0
 21 17  1  0  0  0
 10  4  1  0  0  0
 10 14  1  0  0  0
 17 19  1  0  0  0
 22 20  1  0  0  0
 22 19  1  0  0  0
  4  9  1  0  0  0
 14 13  1  0  0  0
  9 13  2  0  0  0
  9 12  1  0  0  0
 14 16  1  0  0  0
 22 23  1  0  0  0
M  END
> <minimizedAffinity>
-6.87040

$$$$
