2WUF_KEM_B_1289


 26 27  0  0  0  0  0  0  0  0999 V2000
   13.0359  -42.0117    5.3109 C   0  0  0  0  0  0  0  0  0  0  0  0
   11.9169  -42.0874    6.4154 C   0  0  0  0  0  0  0  0  0  0  0  0
   11.4937  -40.8503    7.3344 C   0  0  0  0  0  0  0  0  0  0  0  0
   10.1495  -40.2395    6.8953 C   0  0  0  0  0  0  0  0  0  0  0  0
    9.5188  -39.5754    8.1303 C   0  0  0  0  0  0  0  0  0  0  0  0
    9.9473  -40.4406    9.3151 C   0  0  0  0  0  0  0  0  0  0  0  0
    9.7778  -40.2047   10.4641 O   0  0  0  0  0  0  0  0  0  0  0  0
   11.1424  -41.2444    8.8268 C   0  0  0  0  0  0  0  0  0  0  0  0
   12.2838  -41.0850    9.8687 C   0  0  0  0  0  0  0  0  0  0  0  0
   10.7942  -42.7109    8.9276 C   0  0  0  0  0  0  0  0  0  0  0  0
   12.1500  -43.3433    8.7008 C   0  0  0  0  0  0  0  0  0  0  0  0
   12.3925  -43.2675    7.2218 C   0  0  0  0  0  0  0  0  0  0  0  0
   13.1213  -44.0239    6.7340 O   0  0  0  0  0  0  0  0  0  0  0  0
   10.4593  -39.5864   10.7712 H   0  0  0  0  0  0  0  0  0  0  0  0
   14.0997  -40.9603    5.8062 C   0  0  0  0  0  0  0  0  0  0  0  0
   14.5316  -39.7628    4.8848 C   0  0  0  0  0  0  0  0  0  0  0  0
   14.9899  -39.9000    3.8221 O   0  0  0  0  0  0  0  0  0  0  0  0
   12.3775  -38.4937    4.3877 C   0  0  0  0  0  0  0  0  0  0  0  0
   13.7552  -38.4742    5.0622 C   0  0  0  0  0  0  0  0  0  0  0  0
   14.5707  -37.1915    4.8422 C   0  0  0  0  0  0  0  0  0  0  0  0
   14.1003  -36.3102    3.9572 C   0  0  0  0  0  0  0  0  0  0  0  0
   14.8507  -35.0438    3.5376 C   0  0  0  0  0  0  0  0  0  0  0  0
   15.2264  -34.3375    4.3977 O   0  0  0  0  0  0  0  0  0  0  0  0
   15.1431  -34.7349    2.0519 C   0  0  0  0  0  0  0  0  0  0  0  0
   14.9942  -35.6597    1.0263 O   0  0  0  0  0  0  0  0  0  0  0  0
   15.9174  -33.9036    1.7763 O   0  0  0  0  0  0  0  0  0  0  0  0
 18 19  1  0  0  0
 19 20  1  0  0  0
 19 16  1  0  0  0
 20 21  2  0  0  0
 21 22  1  0  0  0
 22 23  2  0  0  0
 22 24  1  0  0  0
 24 25  1  0  0  0
 24 26  2  0  0  0
 16 17  2  0  0  0
 16 15  1  0  0  0
 15  1  1  0  0  0
  1  2  1  0  0  0
  2  3  1  0  0  0
  2 12  1  0  0  0
  3  4  1  0  0  0
  3  8  1  0  0  0
  4  5  1  0  0  0
  5  6  1  0  0  0
  6  7  1  0  0  0
  6  8  1  0  0  0
  8  9  1  0  0  0
  8 10  1  0  0  0
 10 11  1  0  0  0
 11 12  1  0  0  0
 12 13  2  0  0  0
  7 14  1  0  0  0
M  CHG 1  25  -1
M  END
> <minimizedAffinity>
-7.84221

$$$$
2WUF_KEM_B_1289


 26 27  0  0  0  0  0  0  0  0999 V2000
   14.7179  -42.3898    4.6484 C   0  0  0  0  0  0  0  0  0  0  0  0
   13.4935  -42.2212    5.6232 C   0  0  0  0  0  0  0  0  0  0  0  0
   13.6295  -42.1596    7.2143 C   0  0  0  0  0  0  0  0  0  0  0  0
   13.4605  -40.7261    7.7522 C   0  0  0  0  0  0  0  0  0  0  0  0
   12.9472  -40.8328    9.1975 C   0  0  0  0  0  0  0  0  0  0  0  0
   12.0620  -42.0785    9.2190 C   0  0  0  0  0  0  0  0  0  0  0  0
   11.5743  -42.5862   10.1724 O   0  0  0  0  0  0  0  0  0  0  0  0
   12.4567  -42.8851    7.9916 C   0  0  0  0  0  0  0  0  0  0  0  0
   12.7311  -44.3450    8.4468 C   0  0  0  0  0  0  0  0  0  0  0  0
   11.2369  -43.0281    7.1121 C   0  0  0  0  0  0  0  0  0  0  0  0
   11.7143  -44.0742    6.1285 C   0  0  0  0  0  0  0  0  0  0  0  0
   12.6071  -43.3493    5.1643 C   0  0  0  0  0  0  0  0  0  0  0  0
   12.7619  -43.7898    4.1045 O   0  0  0  0  0  0  0  0  0  0  0  0
   12.2335  -43.1439   10.6145 H   0  0  0  0  0  0  0  0  0  0  0  0
   15.3816  -40.9692    4.4945 C   0  0  0  0  0  0  0  0  0  0  0  0
   14.5916  -39.7835    3.8315 C   0  0  0  0  0  0  0  0  0  0  0  0
   14.1159  -39.8403    2.7691 O   0  0  0  0  0  0  0  0  0  0  0  0
   12.3428  -38.9387    4.6840 C   0  0  0  0  0  0  0  0  0  0  0  0
   13.8711  -38.8507    4.7831 C   0  0  0  0  0  0  0  0  0  0  0  0
   14.4393  -37.4252    4.8465 C   0  0  0  0  0  0  0  0  0  0  0  0
   13.8079  -36.4818    4.1447 C   0  0  0  0  0  0  0  0  0  0  0  0
   14.3128  -35.0434    4.0078 C   0  0  0  0  0  0  0  0  0  0  0  0
   13.9693  -34.2776    4.8295 O   0  0  0  0  0  0  0  0  0  0  0  0
   15.2708  -34.6303    2.8675 C   0  0  0  0  0  0  0  0  0  0  0  0
   16.4269  -33.8853    3.0611 O   0  0  0  0  0  0  0  0  0  0  0  0
   14.8581  -34.5147    1.7798 O   0  0  0  0  0  0  0  0  0  0  0  0
 18 19  1  0  0  0
 19 20  1  0  0  0
 19 16  1  0  0  0
 20 21  2  0  0  0
 21 22  1  0  0  0
 22 23  2  0  0  0
 22 24  1  0  0  0
 24 25  1  0  0  0
 24 26  2  0  0  0
 16 17  2  0  0  0
 16 15  1  0  0  0
 15  1  1  0  0  0
  1  2  1  0  0  0
  2  3  1  0  0  0
  2 12  1  0  0  0
  3  4  1  0  0  0
  3  8  1  0  0  0
  4  5  1  0  0  0
  5  6  1  0  0  0
  6  7  1  0  0  0
  6  8  1  0  0  0
  8  9  1  0  0  0
  8 10  1  0  0  0
 10 11  1  0  0  0
 11 12  1  0  0  0
 12 13  2  0  0  0
  7 14  1  0  0  0
M  CHG 1  25  -1
M  END
> <minimizedAffinity>
-7.79241

$$$$
2WUF_KEM_B_1289


 26 27  0  0  0  0  0  0  0  0999 V2000
   14.2259  -40.9842    4.3408 C   0  0  0  0  0  0  0  0  0  0  0  0
   14.0985  -41.5335    5.8104 C   0  0  0  0  0  0  0  0  0  0  0  0
   13.4040  -42.9247    6.1794 C   0  0  0  0  0  0  0  0  0  0  0  0
   14.4390  -44.0120    6.5247 C   0  0  0  0  0  0  0  0  0  0  0  0
   13.7546  -45.0196    7.4628 C   0  0  0  0  0  0  0  0  0  0  0  0
   12.7756  -44.1928    8.2959 C   0  0  0  0  0  0  0  0  0  0  0  0
   11.9612  -44.6062    9.0511 O   0  0  0  0  0  0  0  0  0  0  0  0
   12.5752  -42.8956    7.5278 C   0  0  0  0  0  0  0  0  0  0  0  0
   11.0469  -42.6512    7.3925 C   0  0  0  0  0  0  0  0  0  0  0  0
   13.0240  -41.7542    8.4098 C   0  0  0  0  0  0  0  0  0  0  0  0
   12.4900  -40.5681    7.6367 C   0  0  0  0  0  0  0  0  0  0  0  0
   13.4431  -40.3632    6.4957 C   0  0  0  0  0  0  0  0  0  0  0  0
   13.5209  -39.3136    6.0123 O   0  0  0  0  0  0  0  0  0  0  0  0
   11.1767  -44.8910    8.5568 H   0  0  0  0  0  0  0  0  0  0  0  0
   15.3271  -41.8506    3.6204 C   0  0  0  0  0  0  0  0  0  0  0  0
   14.9774  -42.6817    2.3333 C   0  0  0  0  0  0  0  0  0  0  0  0
   15.1194  -42.2800    1.2485 O   0  0  0  0  0  0  0  0  0  0  0  0
   15.7834  -44.8430    1.2485 C   0  0  0  0  0  0  0  0  0  0  0  0
   15.1063  -44.1859    2.4581 C   0  0  0  0  0  0  0  0  0  0  0  0
   13.8485  -44.9030    2.9705 C   0  0  0  0  0  0  0  0  0  0  0  0
   12.6676  -44.3563    2.6746 C   0  0  0  0  0  0  0  0  0  0  0  0
   11.3314  -44.8793    3.2075 C   0  0  0  0  0  0  0  0  0  0  0  0
   11.1520  -44.8002    4.3656 O   0  0  0  0  0  0  0  0  0  0  0  0
   10.2487  -45.4402    2.2580 C   0  0  0  0  0  0  0  0  0  0  0  0
    8.9291  -45.0069    2.2487 O   0  0  0  0  0  0  0  0  0  0  0  0
   10.3497  -46.5297    1.8463 O   0  0  0  0  0  0  0  0  0  0  0  0
 18 19  1  0  0  0
 19 20  1  0  0  0
 19 16  1  0  0  0
 20 21  2  0  0  0
 21 22  1  0  0  0
 22 23  2  0  0  0
 22 24  1  0  0  0
 24 25  1  0  0  0
 24 26  2  0  0  0
 16 17  2  0  0  0
 16 15  1  0  0  0
 15  1  1  0  0  0
  1  2  1  0  0  0
  2  3  1  0  0  0
  2 12  1  0  0  0
  3  4  1  0  0  0
  3  8  1  0  0  0
  4  5  1  0  0  0
  5  6  1  0  0  0
  6  7  1  0  0  0
  6  8  1  0  0  0
  8  9  1  0  0  0
  8 10  1  0  0  0
 10 11  1  0  0  0
 11 12  1  0  0  0
 12 13  2  0  0  0
  7 14  1  0  0  0
M  CHG 1  25  -1
M  END
> <minimizedAffinity>
-7.74774

$$$$
2WUF_KEM_B_1289


 26 27  0  0  0  0  0  0  0  0999 V2000
   12.8105  -43.2138    4.9095 C   0  0  0  0  0  0  0  0  0  0  0  0
   13.7008  -41.9480    4.6213 C   0  0  0  0  0  0  0  0  0  0  0  0
   13.1527  -40.6199    3.9216 C   0  0  0  0  0  0  0  0  0  0  0  0
   12.9487  -39.4771    4.9341 C   0  0  0  0  0  0  0  0  0  0  0  0
   13.0838  -38.1513    4.1674 C   0  0  0  0  0  0  0  0  0  0  0  0
   14.1196  -38.4213    3.0764 C   0  0  0  0  0  0  0  0  0  0  0  0
   14.4200  -37.6966    2.1881 O   0  0  0  0  0  0  0  0  0  0  0  0
   14.1861  -39.9343    2.9376 C   0  0  0  0  0  0  0  0  0  0  0  0
   14.0389  -40.2832    1.4308 C   0  0  0  0  0  0  0  0  0  0  0  0
   15.5977  -40.3724    3.2504 C   0  0  0  0  0  0  0  0  0  0  0  0
   15.5608  -41.8113    2.7838 C   0  0  0  0  0  0  0  0  0  0  0  0
   14.8424  -42.5704    3.8608 C   0  0  0  0  0  0  0  0  0  0  0  0
   15.0368  -43.7068    3.9702 O   0  0  0  0  0  0  0  0  0  0  0  0
   13.7664  -37.7707    1.4752 H   0  0  0  0  0  0  0  0  0  0  0  0
   11.7999  -42.8144    6.0503 C   0  0  0  0  0  0  0  0  0  0  0  0
   12.3055  -42.5645    7.5171 C   0  0  0  0  0  0  0  0  0  0  0  0
   13.2182  -43.1161    7.9869 O   0  0  0  0  0  0  0  0  0  0  0  0
   13.1705  -40.7048    9.0306 C   0  0  0  0  0  0  0  0  0  0  0  0
   12.0672  -41.1763    8.0747 C   0  0  0  0  0  0  0  0  0  0  0  0
   10.6324  -40.9079    8.5522 C   0  0  0  0  0  0  0  0  0  0  0  0
   10.4822  -40.2310    9.6925 C   0  0  0  0  0  0  0  0  0  0  0  0
    9.1284  -39.9850   10.3630 C   0  0  0  0  0  0  0  0  0  0  0  0
    8.1926  -39.8991    9.6583 O   0  0  0  0  0  0  0  0  0  0  0  0
    8.9932  -39.9027   11.9003 C   0  0  0  0  0  0  0  0  0  0  0  0
    8.4816  -38.8007   12.5734 O   0  0  0  0  0  0  0  0  0  0  0  0
    9.7115  -40.5288   12.5776 O   0  0  0  0  0  0  0  0  0  0  0  0
 18 19  1  0  0  0
 19 20  1  0  0  0
 19 16  1  0  0  0
 20 21  2  0  0  0
 21 22  1  0  0  0
 22 23  2  0  0  0
 22 24  1  0  0  0
 24 25  1  0  0  0
 24 26  2  0  0  0
 16 17  2  0  0  0
 16 15  1  0  0  0
 15  1  1  0  0  0
  1  2  1  0  0  0
  2  3  1  0  0  0
  2 12  1  0  0  0
  3  4  1  0  0  0
  3  8  1  0  0  0
  4  5  1  0  0  0
  5  6  1  0  0  0
  6  7  1  0  0  0
  6  8  1  0  0  0
  8  9  1  0  0  0
  8 10  1  0  0  0
 10 11  1  0  0  0
 11 12  1  0  0  0
 12 13  2  0  0  0
  7 14  1  0  0  0
M  CHG 1  25  -1
M  END
> <minimizedAffinity>
-7.74180

$$$$
2WUF_KEM_B_1289


 26 27  0  0  0  0  0  0  0  0999 V2000
   12.1700  -45.5675    4.3075 C   0  0  0  0  0  0  0  0  0  0  0  0
   12.2920  -45.0542    5.7905 C   0  0  0  0  0  0  0  0  0  0  0  0
   12.2528  -43.5099    6.1998 C   0  0  0  0  0  0  0  0  0  0  0  0
   10.9039  -43.1148    6.8301 C   0  0  0  0  0  0  0  0  0  0  0  0
   11.1607  -41.9137    7.7550 C   0  0  0  0  0  0  0  0  0  0  0  0
   12.5643  -42.1330    8.3187 C   0  0  0  0  0  0  0  0  0  0  0  0
   13.1923  -41.3719    8.9752 O   0  0  0  0  0  0  0  0  0  0  0  0
   13.2317  -43.1305    7.3846 C   0  0  0  0  0  0  0  0  0  0  0  0
   14.6152  -42.5526    6.9775 C   0  0  0  0  0  0  0  0  0  0  0  0
   13.5997  -44.3541    8.1905 C   0  0  0  0  0  0  0  0  0  0  0  0
   14.4914  -45.0848    7.2105 C   0  0  0  0  0  0  0  0  0  0  0  0
   13.5660  -45.7322    6.2222 C   0  0  0  0  0  0  0  0  0  0  0  0
   13.9310  -46.6647    5.6404 O   0  0  0  0  0  0  0  0  0  0  0  0
   13.6131  -40.7167    8.3968 H   0  0  0  0  0  0  0  0  0  0  0  0
   11.7455  -44.3317    3.4272 C   0  0  0  0  0  0  0  0  0  0  0  0
   12.7250  -43.7418    2.3491 C   0  0  0  0  0  0  0  0  0  0  0  0
   12.4541  -43.6378    1.2204 O   0  0  0  0  0  0  0  0  0  0  0  0
   15.0137  -43.3195    3.3890 C   0  0  0  0  0  0  0  0  0  0  0  0
   13.7155  -42.7088    2.8456 C   0  0  0  0  0  0  0  0  0  0  0  0
   13.1090  -41.5926    3.7087 C   0  0  0  0  0  0  0  0  0  0  0  0
   13.8122  -40.4656    3.8364 C   0  0  0  0  0  0  0  0  0  0  0  0
   13.4053  -39.3090    4.7526 C   0  0  0  0  0  0  0  0  0  0  0  0
   13.0882  -39.5844    5.8495 O   0  0  0  0  0  0  0  0  0  0  0  0
   13.4571  -37.8417    4.2701 C   0  0  0  0  0  0  0  0  0  0  0  0
   14.2913  -36.8764    4.8193 O   0  0  0  0  0  0  0  0  0  0  0  0
   12.5149  -37.3650    3.7683 O   0  0  0  0  0  0  0  0  0  0  0  0
 18 19  1  0  0  0
 19 20  1  0  0  0
 19 16  1  0  0  0
 20 21  2  0  0  0
 21 22  1  0  0  0
 22 23  2  0  0  0
 22 24  1  0  0  0
 24 25  1  0  0  0
 24 26  2  0  0  0
 16 17  2  0  0  0
 16 15  1  0  0  0
 15  1  1  0  0  0
  1  2  1  0  0  0
  2  3  1  0  0  0
  2 12  1  0  0  0
  3  4  1  0  0  0
  3  8  1  0  0  0
  4  5  1  0  0  0
  5  6  1  0  0  0
  6  7  1  0  0  0
  6  8  1  0  0  0
  8  9  1  0  0  0
  8 10  1  0  0  0
 10 11  1  0  0  0
 11 12  1  0  0  0
 12 13  2  0  0  0
  7 14  1  0  0  0
M  CHG 1  25  -1
M  END
> <minimizedAffinity>
-7.57176

$$$$
2WUF_KEM_B_1289


 26 27  0  0  0  0  0  0  0  0999 V2000
   14.1588  -43.4033    6.1220 C   0  0  0  0  0  0  0  0  0  0  0  0
   13.9316  -44.0811    4.7196 C   0  0  0  0  0  0  0  0  0  0  0  0
   12.6951  -43.7472    3.7639 C   0  0  0  0  0  0  0  0  0  0  0  0
   13.1090  -42.8603    2.5744 C   0  0  0  0  0  0  0  0  0  0  0  0
   12.1228  -43.1363    1.4276 C   0  0  0  0  0  0  0  0  0  0  0  0
   11.7510  -44.6126    1.5633 C   0  0  0  0  0  0  0  0  0  0  0  0
   10.9188  -45.1940    0.9518 O   0  0  0  0  0  0  0  0  0  0  0  0
   12.1227  -45.0014    2.9858 C   0  0  0  0  0  0  0  0  0  0  0  0
   10.8951  -45.7076    3.6247 C   0  0  0  0  0  0  0  0  0  0  0  0
   13.1508  -46.1060    2.9168 C   0  0  0  0  0  0  0  0  0  0  0  0
   13.1780  -46.5624    4.3592 C   0  0  0  0  0  0  0  0  0  0  0  0
   13.9921  -45.5387    5.0950 C   0  0  0  0  0  0  0  0  0  0  0  0
   14.5156  -45.8432    6.0821 O   0  0  0  0  0  0  0  0  0  0  0  0
   10.0489  -45.0206    1.3442 H   0  0  0  0  0  0  0  0  0  0  0  0
   14.7359  -41.9631    5.8480 C   0  0  0  0  0  0  0  0  0  0  0  0
   13.8076  -40.6981    5.9357 C   0  0  0  0  0  0  0  0  0  0  0  0
   13.8679  -39.8017    5.1934 O   0  0  0  0  0  0  0  0  0  0  0  0
   11.3461  -40.0369    5.8955 C   0  0  0  0  0  0  0  0  0  0  0  0
   12.4292  -40.9247    6.5218 C   0  0  0  0  0  0  0  0  0  0  0  0
   12.3854  -41.0239    8.0537 C   0  0  0  0  0  0  0  0  0  0  0  0
   11.1831  -41.0833    8.6301 C   0  0  0  0  0  0  0  0  0  0  0  0
   10.9650  -41.0657   10.1450 C   0  0  0  0  0  0  0  0  0  0  0  0
   11.7384  -41.6577   10.8016 O   0  0  0  0  0  0  0  0  0  0  0  0
    9.8080  -40.2644   10.7837 C   0  0  0  0  0  0  0  0  0  0  0  0
    9.6441  -40.1021   12.1534 O   0  0  0  0  0  0  0  0  0  0  0  0
    8.7950  -40.1561   10.2104 O   0  0  0  0  0  0  0  0  0  0  0  0
 18 19  1  0  0  0
 19 20  1  0  0  0
 19 16  1  0  0  0
 20 21  2  0  0  0
 21 22  1  0  0  0
 22 23  2  0  0  0
 22 24  1  0  0  0
 24 25  1  0  0  0
 24 26  2  0  0  0
 16 17  2  0  0  0
 16 15  1  0  0  0
 15  1  1  0  0  0
  1  2  1  0  0  0
  2  3  1  0  0  0
  2 12  1  0  0  0
  3  4  1  0  0  0
  3  8  1  0  0  0
  4  5  1  0  0  0
  5  6  1  0  0  0
  6  7  1  0  0  0
  6  8  1  0  0  0
  8  9  1  0  0  0
  8 10  1  0  0  0
 10 11  1  0  0  0
 11 12  1  0  0  0
 12 13  2  0  0  0
  7 14  1  0  0  0
M  CHG 1  25  -1
M  END
> <minimizedAffinity>
-7.40128

$$$$
2WUF_KEM_B_1289


 26 27  0  0  0  0  0  0  0  0999 V2000
   12.1225  -43.0408    5.4340 C   0  0  0  0  0  0  0  0  0  0  0  0
   11.2346  -42.6204    6.6639 C   0  0  0  0  0  0  0  0  0  0  0  0
   11.1651  -41.1308    7.2386 C   0  0  0  0  0  0  0  0  0  0  0  0
    9.8568  -40.4207    6.8424 C   0  0  0  0  0  0  0  0  0  0  0  0
    9.5684  -39.3541    7.9116 C   0  0  0  0  0  0  0  0  0  0  0  0
   10.0940  -39.9437    9.2200 C   0  0  0  0  0  0  0  0  0  0  0  0
   10.1799  -39.3896   10.2641 O   0  0  0  0  0  0  0  0  0  0  0  0
   11.0546  -41.0512    8.8158 C   0  0  0  0  0  0  0  0  0  0  0  0
   12.3845  -40.8370    9.5900 C   0  0  0  0  0  0  0  0  0  0  0  0
   10.5373  -42.3516    9.3845 C   0  0  0  0  0  0  0  0  0  0  0  0
   11.7272  -43.2578    9.1551 C   0  0  0  0  0  0  0  0  0  0  0  0
   11.6915  -43.6158    7.6981 C   0  0  0  0  0  0  0  0  0  0  0  0
   12.2051  -44.5931    7.3486 O   0  0  0  0  0  0  0  0  0  0  0  0
   10.9845  -38.8479   10.2774 H   0  0  0  0  0  0  0  0  0  0  0  0
   13.0888  -41.8338    5.1310 C   0  0  0  0  0  0  0  0  0  0  0  0
   14.4637  -42.0704    4.4078 C   0  0  0  0  0  0  0  0  0  0  0  0
   15.0030  -43.1028    4.3705 O   0  0  0  0  0  0  0  0  0  0  0  0
   15.7109  -41.8090    2.2001 C   0  0  0  0  0  0  0  0  0  0  0  0
   14.7501  -41.1792    3.2168 C   0  0  0  0  0  0  0  0  0  0  0  0
   15.0369  -39.7103    3.5615 C   0  0  0  0  0  0  0  0  0  0  0  0
   14.5622  -38.7812    2.7292 C   0  0  0  0  0  0  0  0  0  0  0  0
   14.8601  -37.2860    2.8654 C   0  0  0  0  0  0  0  0  0  0  0  0
   15.4615  -36.7809    1.9921 O   0  0  0  0  0  0  0  0  0  0  0  0
   14.3495  -36.4691    4.0738 C   0  0  0  0  0  0  0  0  0  0  0  0
   14.6134  -36.7990    5.3970 O   0  0  0  0  0  0  0  0  0  0  0  0
   13.3712  -35.8371    3.9719 O   0  0  0  0  0  0  0  0  0  0  0  0
 18 19  1  0  0  0
 19 20  1  0  0  0
 19 16  1  0  0  0
 20 21  2  0  0  0
 21 22  1  0  0  0
 22 23  2  0  0  0
 22 24  1  0  0  0
 24 25  1  0  0  0
 24 26  2  0  0  0
 16 17  2  0  0  0
 16 15  1  0  0  0
 15  1  1  0  0  0
  1  2  1  0  0  0
  2  3  1  0  0  0
  2 12  1  0  0  0
  3  4  1  0  0  0
  3  8  1  0  0  0
  4  5  1  0  0  0
  5  6  1  0  0  0
  6  7  1  0  0  0
  6  8  1  0  0  0
  8  9  1  0  0  0
  8 10  1  0  0  0
 10 11  1  0  0  0
 11 12  1  0  0  0
 12 13  2  0  0  0
  7 14  1  0  0  0
M  CHG 1  25  -1
M  END
> <minimizedAffinity>
-7.38072

$$$$
2WUF_KEM_B_1289


 26 27  0  0  0  0  0  0  0  0999 V2000
   12.8467  -43.8297    4.6705 C   0  0  0  0  0  0  0  0  0  0  0  0
   13.1791  -42.6397    3.6952 C   0  0  0  0  0  0  0  0  0  0  0  0
   14.5712  -42.4875    2.9252 C   0  0  0  0  0  0  0  0  0  0  0  0
   14.4489  -42.8572    1.4349 C   0  0  0  0  0  0  0  0  0  0  0  0
   15.5425  -42.0869    0.6769 C   0  0  0  0  0  0  0  0  0  0  0  0
   15.6952  -40.7636    1.4262 C   0  0  0  0  0  0  0  0  0  0  0  0
   16.5223  -39.9350    1.2417 O   0  0  0  0  0  0  0  0  0  0  0  0
   15.0788  -40.9935    2.7973 C   0  0  0  0  0  0  0  0  0  0  0  0
   16.1010  -40.5189    3.8668 C   0  0  0  0  0  0  0  0  0  0  0  0
   13.9353  -40.0211    2.9666 C   0  0  0  0  0  0  0  0  0  0  0  0
   13.6453  -40.1745    4.4437 C   0  0  0  0  0  0  0  0  0  0  0  0
   12.8763  -41.4564    4.5768 C   0  0  0  0  0  0  0  0  0  0  0  0
   12.1834  -41.6015    5.4933 O   0  0  0  0  0  0  0  0  0  0  0  0
   17.3432  -40.1922    1.6898 H   0  0  0  0  0  0  0  0  0  0  0  0
   14.2228  -44.4246    5.1551 C   0  0  0  0  0  0  0  0  0  0  0  0
   14.2691  -45.5308    6.2704 C   0  0  0  0  0  0  0  0  0  0  0  0
   14.6933  -46.6025    6.0979 O   0  0  0  0  0  0  0  0  0  0  0  0
   15.3327  -45.8982    8.5576 C   0  0  0  0  0  0  0  0  0  0  0  0
   14.4051  -45.0331    7.6947 C   0  0  0  0  0  0  0  0  0  0  0  0
   13.0861  -44.6222    8.3655 C   0  0  0  0  0  0  0  0  0  0  0  0
   12.8292  -43.3162    8.4641 C   0  0  0  0  0  0  0  0  0  0  0  0
   11.6208  -42.7414    9.2071 C   0  0  0  0  0  0  0  0  0  0  0  0
   10.6173  -43.3482    9.1420 O   0  0  0  0  0  0  0  0  0  0  0  0
   11.7304  -41.4474   10.0449 C   0  0  0  0  0  0  0  0  0  0  0  0
   10.8192  -41.0836   11.0280 O   0  0  0  0  0  0  0  0  0  0  0  0
   12.2840  -40.5177    9.6022 O   0  0  0  0  0  0  0  0  0  0  0  0
 18 19  1  0  0  0
 19 20  1  0  0  0
 19 16  1  0  0  0
 20 21  2  0  0  0
 21 22  1  0  0  0
 22 23  2  0  0  0
 22 24  1  0  0  0
 24 25  1  0  0  0
 24 26  2  0  0  0
 16 17  2  0  0  0
 16 15  1  0  0  0
 15  1  1  0  0  0
  1  2  1  0  0  0
  2  3  1  0  0  0
  2 12  1  0  0  0
  3  4  1  0  0  0
  3  8  1  0  0  0
  4  5  1  0  0  0
  5  6  1  0  0  0
  6  7  1  0  0  0
  6  8  1  0  0  0
  8  9  1  0  0  0
  8 10  1  0  0  0
 10 11  1  0  0  0
 11 12  1  0  0  0
 12 13  2  0  0  0
  7 14  1  0  0  0
M  CHG 1  25  -1
M  END
> <minimizedAffinity>
-7.36509

$$$$
2WUF_KEM_B_1289


 26 27  0  0  0  0  0  0  0  0999 V2000
   11.7882  -42.3428    7.2460 C   0  0  0  0  0  0  0  0  0  0  0  0
   12.8485  -43.2434    6.5094 C   0  0  0  0  0  0  0  0  0  0  0  0
   13.2170  -43.0926    4.9617 C   0  0  0  0  0  0  0  0  0  0  0  0
   14.5791  -42.4027    4.7581 C   0  0  0  0  0  0  0  0  0  0  0  0
   15.1413  -42.8798    3.4090 C   0  0  0  0  0  0  0  0  0  0  0  0
   14.6561  -44.3213    3.2583 C   0  0  0  0  0  0  0  0  0  0  0  0
   14.7643  -45.0100    2.2998 O   0  0  0  0  0  0  0  0  0  0  0  0
   13.4922  -44.4671    4.2262 C   0  0  0  0  0  0  0  0  0  0  0  0
   12.2973  -45.0836    3.4477 C   0  0  0  0  0  0  0  0  0  0  0  0
   13.8421  -45.5485    5.2212 C   0  0  0  0  0  0  0  0  0  0  0  0
   12.5032  -45.7642    5.8923 C   0  0  0  0  0  0  0  0  0  0  0  0
   12.3376  -44.6193    6.8483 C   0  0  0  0  0  0  0  0  0  0  0  0
   11.6391  -44.7496    7.7628 O   0  0  0  0  0  0  0  0  0  0  0  0
   14.0647  -44.7919    1.6643 H   0  0  0  0  0  0  0  0  0  0  0  0
   12.4892  -41.7687    8.5349 C   0  0  0  0  0  0  0  0  0  0  0  0
   11.8528  -40.5692    9.3260 C   0  0  0  0  0  0  0  0  0  0  0  0
   12.2106  -39.4652    9.2200 O   0  0  0  0  0  0  0  0  0  0  0  0
    9.4812  -39.7049    8.9704 C   0  0  0  0  0  0  0  0  0  0  0  0
   10.3886  -40.7134    9.6868 C   0  0  0  0  0  0  0  0  0  0  0  0
   10.1060  -40.8948   11.1854 C   0  0  0  0  0  0  0  0  0  0  0  0
    9.1329  -40.1541   11.7199 C   0  0  0  0  0  0  0  0  0  0  0  0
    8.8072  -40.1295   13.2152 C   0  0  0  0  0  0  0  0  0  0  0  0
    8.7558  -41.1655   13.7664 O   0  0  0  0  0  0  0  0  0  0  0  0
    8.6040  -38.7987   13.9743 C   0  0  0  0  0  0  0  0  0  0  0  0
    7.7893  -37.7682   13.5233 O   0  0  0  0  0  0  0  0  0  0  0  0
    9.4431  -38.4068   14.6878 O   0  0  0  0  0  0  0  0  0  0  0  0
 18 19  1  0  0  0
 19 20  1  0  0  0
 19 16  1  0  0  0
 20 21  2  0  0  0
 21 22  1  0  0  0
 22 23  2  0  0  0
 22 24  1  0  0  0
 24 25  1  0  0  0
 24 26  2  0  0  0
 16 17  2  0  0  0
 16 15  1  0  0  0
 15  1  1  0  0  0
  1  2  1  0  0  0
  2  3  1  0  0  0
  2 12  1  0  0  0
  3  4  1  0  0  0
  3  8  1  0  0  0
  4  5  1  0  0  0
  5  6  1  0  0  0
  6  7  1  0  0  0
  6  8  1  0  0  0
  8  9  1  0  0  0
  8 10  1  0  0  0
 10 11  1  0  0  0
 11 12  1  0  0  0
 12 13  2  0  0  0
  7 14  1  0  0  0
M  CHG 1  25  -1
M  END
> <minimizedAffinity>
-7.34417

$$$$
2WUF_KEM_B_1289


 26 27  0  0  0  0  0  0  0  0999 V2000
   13.8379  -44.6441    4.7061 C   0  0  0  0  0  0  0  0  0  0  0  0
   14.7459  -43.6806    3.8548 C   0  0  0  0  0  0  0  0  0  0  0  0
   14.3910  -42.1483    3.5721 C   0  0  0  0  0  0  0  0  0  0  0  0
   15.2465  -41.1918    4.4242 C   0  0  0  0  0  0  0  0  0  0  0  0
   15.3436  -39.8585    3.6647 C   0  0  0  0  0  0  0  0  0  0  0  0
   15.3435  -40.2380    2.1842 C   0  0  0  0  0  0  0  0  0  0  0  0
   15.2788  -39.4969    1.2616 O   0  0  0  0  0  0  0  0  0  0  0  0
   14.7844  -41.6509    2.1216 C   0  0  0  0  0  0  0  0  0  0  0  0
   13.6541  -41.6711    1.0558 C   0  0  0  0  0  0  0  0  0  0  0  0
   15.8387  -42.5461    1.5141 C   0  0  0  0  0  0  0  0  0  0  0  0
   15.0341  -43.8012    1.2553 C   0  0  0  0  0  0  0  0  0  0  0  0
   14.8983  -44.4797    2.5870 C   0  0  0  0  0  0  0  0  0  0  0  0
   14.7106  -45.6221    2.6172 O   0  0  0  0  0  0  0  0  0  0  0  0
   14.3542  -39.2430    1.1150 H   0  0  0  0  0  0  0  0  0  0  0  0
   12.4433  -43.9307    4.8755 C   0  0  0  0  0  0  0  0  0  0  0  0
   11.6796  -43.9803    6.2480 C   0  0  0  0  0  0  0  0  0  0  0  0
   11.8533  -44.8051    7.0528 O   0  0  0  0  0  0  0  0  0  0  0  0
   11.9515  -41.4470    6.1679 C   0  0  0  0  0  0  0  0  0  0  0  0
   11.2439  -42.6447    6.8147 C   0  0  0  0  0  0  0  0  0  0  0  0
   11.1433  -42.5931    8.3464 C   0  0  0  0  0  0  0  0  0  0  0  0
   10.7937  -41.4297    8.8990 C   0  0  0  0  0  0  0  0  0  0  0  0
   10.7636  -41.1809   10.4090 C   0  0  0  0  0  0  0  0  0  0  0  0
   11.6134  -41.6798   11.0482 O   0  0  0  0  0  0  0  0  0  0  0  0
    9.6920  -40.2742   11.0555 C   0  0  0  0  0  0  0  0  0  0  0  0
    9.5571  -40.0933   12.4260 O   0  0  0  0  0  0  0  0  0  0  0  0
    8.6878  -40.0743   10.4914 O   0  0  0  0  0  0  0  0  0  0  0  0
 18 19  1  0  0  0
 19 20  1  0  0  0
 19 16  1  0  0  0
 20 21  2  0  0  0
 21 22  1  0  0  0
 22 23  2  0  0  0
 22 24  1  0  0  0
 24 25  1  0  0  0
 24 26  2  0  0  0
 16 17  2  0  0  0
 16 15  1  0  0  0
 15  1  1  0  0  0
  1  2  1  0  0  0
  2  3  1  0  0  0
  2 12  1  0  0  0
  3  4  1  0  0  0
  3  8  1  0  0  0
  4  5  1  0  0  0
  5  6  1  0  0  0
  6  7  1  0  0  0
  6  8  1  0  0  0
  8  9  1  0  0  0
  8 10  1  0  0  0
 10 11  1  0  0  0
 11 12  1  0  0  0
 12 13  2  0  0  0
  7 14  1  0  0  0
M  CHG 1  25  -1
M  END
> <minimizedAffinity>
-7.24006

$$$$
