4CR5_0TU_A_1489


  2  1  0  0  0  0  0  0  0  0999 V2000
  -20.8079  -45.1006  -12.4609 Cl  0  0  0  0  0  0  0  0  0  0  0  0
  -20.9177  -46.2084  -12.9794 H   0  0  0  0  0  0  0  0  0  0  0  0
  1  2  1  0  0  0
M  END
> <minimizedAffinity>
-1.06960

$$$$
4CR5_0TU_A_1489


  2  1  0  0  0  0  0  0  0  0999 V2000
  -19.0616  -47.4356  -11.6855 Cl  0  0  0  0  0  0  0  0  0  0  0  0
  -19.3512  -46.6197  -12.5564 H   0  0  0  0  0  0  0  0  0  0  0  0
  1  2  1  0  0  0
M  END
> <minimizedAffinity>
-0.77015

$$$$
4CR5_0TU_A_1489


  2  1  0  0  0  0  0  0  0  0999 V2000
  -21.9154  -48.3546  -12.0803 Cl  0  0  0  0  0  0  0  0  0  0  0  0
  -22.2049  -47.5387  -12.9512 H   0  0  0  0  0  0  0  0  0  0  0  0
  1  2  1  0  0  0
M  END
> <minimizedAffinity>
-0.71779

$$$$
4CR5_0TU_A_1489


  2  1  0  0  0  0  0  0  0  0999 V2000
  -21.9975  -48.7351  -11.0134 Cl  0  0  0  0  0  0  0  0  0  0  0  0
  -21.5985  -49.7050  -10.3746 H   0  0  0  0  0  0  0  0  0  0  0  0
  1  2  1  0  0  0
M  END
> <minimizedAffinity>
-0.69275

$$$$
4CR5_0TU_A_1489


  2  1  0  0  0  0  0  0  0  0999 V2000
  -20.7358  -48.6492  -11.2278 Cl  0  0  0  0  0  0  0  0  0  0  0  0
  -19.8428  -48.6014  -10.3863 H   0  0  0  0  0  0  0  0  0  0  0  0
  1  2  1  0  0  0
M  END
> <minimizedAffinity>
-0.66317

$$$$
4CR5_0TU_A_1489


  2  1  0  0  0  0  0  0  0  0999 V2000
  -19.1762  -48.9567  -11.4528 Cl  0  0  0  0  0  0  0  0  0  0  0  0
  -20.1077  -48.3820  -12.0096 H   0  0  0  0  0  0  0  0  0  0  0  0
  1  2  1  0  0  0
M  END
> <minimizedAffinity>
-0.59996

$$$$
4CR5_0TU_A_1489


  2  1  0  0  0  0  0  0  0  0999 V2000
  -17.0593  -42.4880   -9.5914 Cl  0  0  0  0  0  0  0  0  0  0  0  0
  -17.8726  -42.1858  -10.4604 H   0  0  0  0  0  0  0  0  0  0  0  0
  1  2  1  0  0  0
M  END
> <minimizedAffinity>
0.39837

$$$$
4CR5_0TU_A_1489


  2  1  0  0  0  0  0  0  0  0999 V2000
  -18.4711  -41.0221   -9.1449 Cl  0  0  0  0  0  0  0  0  0  0  0  0
  -19.2844  -40.7198  -10.0139 H   0  0  0  0  0  0  0  0  0  0  0  0
  1  2  1  0  0  0
M  END
> <minimizedAffinity>
1.85243

$$$$
