4U70_Q04_A_403


 17 17  0  0  0  0  0  0  0  0999 V2000
   23.0488   -3.8246   10.3159 C   0  0  0  0  0  0  0  0  0  0  0  0
   24.3075   -3.2131   10.0922 N   0  0  0  0  0  0  0  0  0  0  0  0
   24.6391   -2.7904   10.9593 H   0  0  0  0  0  0  0  0  0  0  0  0
   24.2129   -2.4920    9.3770 H   0  0  0  0  0  0  0  0  0  0  0  0
   22.1738   -1.3302   10.9499 O   0  0  0  0  0  0  0  0  0  0  0  0
   21.7742   -2.7271   10.8020 P   0  0  0  0  0  0  0  0  0  0  0  0
   20.5423   -2.9884    9.8483 O   0  0  0  0  0  0  0  0  0  0  0  0
   21.3565   -3.3038   12.2329 O   0  0  0  0  0  0  0  0  0  0  0  0
   22.9332   -1.2730   11.5506 H   0  0  0  0  0  0  0  0  0  0  0  0
   20.3550   -3.9396    9.8154 H   0  0  0  0  0  0  0  0  0  0  0  0
   23.1377   -4.9160   11.3971 C   0  0  0  0  0  0  0  0  0  0  0  0
   23.6144   -6.2878   10.9972 C   0  0  0  0  0  0  0  0  0  0  0  0
   24.5261   -6.5404   12.2101 C   0  0  0  0  0  0  0  0  0  0  0  0
   25.5056   -7.5262   11.5764 C   0  0  0  0  0  0  0  0  0  0  0  0
   24.7739   -8.8514   11.3960 C   0  0  0  0  0  0  0  0  0  0  0  0
   23.5718   -8.7307   10.5174 C   0  0  0  0  0  0  0  0  0  0  0  0
   22.7363   -7.4837   10.9105 C   0  0  0  0  0  0  0  0  0  0  0  0
  2  1  1  0  0  0
 16 17  1  0  0  0
 16 15  1  0  0  0
  8  6  2  0  0  0
 17 12  1  0  0  0
  1  6  1  0  0  0
  1 11  1  0  0  0
 12 11  1  0  0  0
 12 13  1  0  0  0
 15 14  1  0  0  0
  6  5  1  0  0  0
  6  7  1  0  0  0
 14 13  1  0  0  0
  5  9  1  0  0  0
  7 10  1  0  0  0
  2  3  1  0  0  0
  2  4  1  0  0  0
M  END
> <minimizedAffinity>
-8.53486

$$$$
4U70_Q04_A_403


 17 17  0  0  0  0  0  0  0  0999 V2000
   23.3103   -3.8739   10.4179 C   0  0  0  0  0  0  0  0  0  0  0  0
   24.3880   -3.2172    9.7732 N   0  0  0  0  0  0  0  0  0  0  0  0
   24.7651   -2.4973   10.3896 H   0  0  0  0  0  0  0  0  0  0  0  0
   24.0564   -2.7864    8.9102 H   0  0  0  0  0  0  0  0  0  0  0  0
   22.2569   -1.4272   10.9591 O   0  0  0  0  0  0  0  0  0  0  0  0
   21.9465   -2.8455   10.8017 P   0  0  0  0  0  0  0  0  0  0  0  0
   20.7998   -3.1838    9.7692 O   0  0  0  0  0  0  0  0  0  0  0  0
   21.4634   -3.4323   12.2077 O   0  0  0  0  0  0  0  0  0  0  0  0
   22.9687   -1.3222   11.6097 H   0  0  0  0  0  0  0  0  0  0  0  0
   20.6681   -4.1442    9.7354 H   0  0  0  0  0  0  0  0  0  0  0  0
   23.7594   -4.5334   11.7338 C   0  0  0  0  0  0  0  0  0  0  0  0
   24.0152   -6.0177   11.7440 C   0  0  0  0  0  0  0  0  0  0  0  0
   23.0193   -6.3966   10.6347 C   0  0  0  0  0  0  0  0  0  0  0  0
   22.7340   -7.8393   11.0469 C   0  0  0  0  0  0  0  0  0  0  0  0
   23.9709   -8.6666   10.7159 C   0  0  0  0  0  0  0  0  0  0  0  0
   25.1915   -8.1903   11.4334 C   0  0  0  0  0  0  0  0  0  0  0  0
   25.3026   -6.6451   11.3467 C   0  0  0  0  0  0  0  0  0  0  0  0
  2  1  1  0  0  0
 16 17  1  0  0  0
 16 15  1  0  0  0
  8  6  2  0  0  0
 17 12  1  0  0  0
  1  6  1  0  0  0
  1 11  1  0  0  0
 12 11  1  0  0  0
 12 13  1  0  0  0
 15 14  1  0  0  0
  6  5  1  0  0  0
  6  7  1  0  0  0
 14 13  1  0  0  0
  5  9  1  0  0  0
  7 10  1  0  0  0
  2  3  1  0  0  0
  2  4  1  0  0  0
M  END
> <minimizedAffinity>
-8.05872

$$$$
4U70_Q04_A_403


 17 17  0  0  0  0  0  0  0  0999 V2000
   23.4216   -3.9570   10.4774 C   0  0  0  0  0  0  0  0  0  0  0  0
   24.3703   -3.0941    9.8744 N   0  0  0  0  0  0  0  0  0  0  0  0
   24.6504   -2.3765   10.5429 H   0  0  0  0  0  0  0  0  0  0  0  0
   23.9546   -2.6515    9.0548 H   0  0  0  0  0  0  0  0  0  0  0  0
   20.8909   -3.1241    9.9382 O   0  0  0  0  0  0  0  0  0  0  0  0
   21.9286   -3.1830   10.9641 P   0  0  0  0  0  0  0  0  0  0  0  0
   21.4942   -3.8267   12.3397 O   0  0  0  0  0  0  0  0  0  0  0  0
   22.4108   -1.6973   11.3032 O   0  0  0  0  0  0  0  0  0  0  0  0
   21.2520   -2.7154    9.1361 H   0  0  0  0  0  0  0  0  0  0  0  0
   22.2468   -3.8205   12.9516 H   0  0  0  0  0  0  0  0  0  0  0  0
   23.9998   -4.6430   11.7277 C   0  0  0  0  0  0  0  0  0  0  0  0
   24.1292   -6.1437   11.7302 C   0  0  0  0  0  0  0  0  0  0  0  0
   23.1771   -6.4250   10.5553 C   0  0  0  0  0  0  0  0  0  0  0  0
   22.7463   -7.8427   10.9259 C   0  0  0  0  0  0  0  0  0  0  0  0
   23.9280   -8.7681   10.6592 C   0  0  0  0  0  0  0  0  0  0  0  0
   25.1364   -8.4046   11.4586 C   0  0  0  0  0  0  0  0  0  0  0  0
   25.3819   -6.8735   11.4036 C   0  0  0  0  0  0  0  0  0  0  0  0
  2  1  1  0  0  0
 16 17  1  0  0  0
 16 15  1  0  0  0
  8  6  2  0  0  0
 17 12  1  0  0  0
  1  6  1  0  0  0
  1 11  1  0  0  0
 12 11  1  0  0  0
 12 13  1  0  0  0
 15 14  1  0  0  0
  6  5  1  0  0  0
  6  7  1  0  0  0
 14 13  1  0  0  0
  5  9  1  0  0  0
  7 10  1  0  0  0
  2  3  1  0  0  0
  2  4  1  0  0  0
M  END
> <minimizedAffinity>
-7.87779

$$$$
4U70_Q04_A_403


 17 17  0  0  0  0  0  0  0  0999 V2000
   22.9986   -4.5528   11.5974 C   0  0  0  0  0  0  0  0  0  0  0  0
   21.7842   -4.2299   12.2527 N   0  0  0  0  0  0  0  0  0  0  0  0
   21.1371   -3.8132   11.5833 H   0  0  0  0  0  0  0  0  0  0  0  0
   21.9697   -3.5661   13.0046 H   0  0  0  0  0  0  0  0  0  0  0  0
   24.3804   -3.3725    9.5759 O   0  0  0  0  0  0  0  0  0  0  0  0
   23.8589   -3.1834   10.9268 P   0  0  0  0  0  0  0  0  0  0  0  0
   22.9479   -1.9100   11.1359 O   0  0  0  0  0  0  0  0  0  0  0  0
   25.0842   -3.0224   11.9404 O   0  0  0  0  0  0  0  0  0  0  0  0
   24.9242   -4.1753    9.5486 H   0  0  0  0  0  0  0  0  0  0  0  0
   22.6524   -1.8719   12.0590 H   0  0  0  0  0  0  0  0  0  0  0  0
   22.7691   -5.5467   10.4451 C   0  0  0  0  0  0  0  0  0  0  0  0
   23.4694   -6.8794   10.4942 C   0  0  0  0  0  0  0  0  0  0  0  0
   24.2297   -6.6535   11.8121 C   0  0  0  0  0  0  0  0  0  0  0  0
   25.4062   -7.5992   11.5788 C   0  0  0  0  0  0  0  0  0  0  0  0
   24.8835   -9.0255   11.7066 C   0  0  0  0  0  0  0  0  0  0  0  0
   23.8088   -9.3361   10.7165 C   0  0  0  0  0  0  0  0  0  0  0  0
   22.7733   -8.1818   10.6609 C   0  0  0  0  0  0  0  0  0  0  0  0
  2  1  1  0  0  0
 16 17  1  0  0  0
 16 15  1  0  0  0
  8  6  2  0  0  0
 17 12  1  0  0  0
  1  6  1  0  0  0
  1 11  1  0  0  0
 12 11  1  0  0  0
 12 13  1  0  0  0
 15 14  1  0  0  0
  6  5  1  0  0  0
  6  7  1  0  0  0
 14 13  1  0  0  0
  5  9  1  0  0  0
  7 10  1  0  0  0
  2  3  1  0  0  0
  2  4  1  0  0  0
M  END
> <minimizedAffinity>
-7.08975

$$$$
4U70_Q04_A_403


 17 17  0  0  0  0  0  0  0  0999 V2000
   24.4353   -4.7302    9.4484 C   0  0  0  0  0  0  0  0  0  0  0  0
   25.2376   -3.9754    8.5569 N   0  0  0  0  0  0  0  0  0  0  0  0
   25.9930   -3.5273    9.0756 H   0  0  0  0  0  0  0  0  0  0  0  0
   24.6653   -3.2619    8.1054 H   0  0  0  0  0  0  0  0  0  0  0  0
   23.5262   -4.4454   11.9943 O   0  0  0  0  0  0  0  0  0  0  0  0
   23.6369   -3.7924   10.6927 P   0  0  0  0  0  0  0  0  0  0  0  0
   24.3043   -2.3607   10.7007 O   0  0  0  0  0  0  0  0  0  0  0  0
   22.1728   -3.5950   10.0827 O   0  0  0  0  0  0  0  0  0  0  0  0
   23.1064   -5.3131   11.8861 H   0  0  0  0  0  0  0  0  0  0  0  0
   24.3324   -2.0120    9.7960 H   0  0  0  0  0  0  0  0  0  0  0  0
   25.2579   -5.8165   10.1635 C   0  0  0  0  0  0  0  0  0  0  0  0
   24.6760   -7.2011   10.2780 C   0  0  0  0  0  0  0  0  0  0  0  0
   25.3057   -7.5676   11.6328 C   0  0  0  0  0  0  0  0  0  0  0  0
   25.3314   -9.0875   11.4853 C   0  0  0  0  0  0  0  0  0  0  0  0
   23.8965   -9.5872   11.6101 C   0  0  0  0  0  0  0  0  0  0  0  0
   22.9943   -9.0146   10.5663 C   0  0  0  0  0  0  0  0  0  0  0  0
   23.2253   -7.4863   10.4295 C   0  0  0  0  0  0  0  0  0  0  0  0
  2  1  1  0  0  0
 16 17  1  0  0  0
 16 15  1  0  0  0
  8  6  2  0  0  0
 17 12  1  0  0  0
  1  6  1  0  0  0
  1 11  1  0  0  0
 12 11  1  0  0  0
 12 13  1  0  0  0
 15 14  1  0  0  0
  6  5  1  0  0  0
  6  7  1  0  0  0
 14 13  1  0  0  0
  5  9  1  0  0  0
  7 10  1  0  0  0
  2  3  1  0  0  0
  2  4  1  0  0  0
M  END
> <minimizedAffinity>
-6.63463

$$$$
