2FVD_LIA_A_299


 33 35  0  0  0  0  0  0  0  0999 V2000
    1.9468   29.4445    6.6917 C   0  0  0  0  0  0  0  0  0  0  0  0
    1.2642   28.6068    7.5188 N   0  0  0  0  0  0  0  0  0  0  0  0
    0.3590   29.0784    8.3198 C   0  0  0  0  0  0  0  0  0  0  0  0
    0.0240   30.4890    8.3833 C   0  0  0  0  0  0  0  0  0  0  0  0
    0.7645   31.3438    7.4821 C   0  0  0  0  0  0  0  0  0  0  0  0
    1.7139   30.7890    6.6556 N   0  0  0  0  0  0  0  0  0  0  0  0
    0.5777   32.6745    7.4074 N   0  0  0  0  0  0  0  0  0  0  0  0
   -0.0923   33.1106    7.9820 H   0  0  0  0  0  0  0  0  0  0  0  0
    1.1111   33.2119    6.7781 H   0  0  0  0  0  0  0  0  0  0  0  0
    2.9125   28.9798    5.8481 N   0  0  0  0  0  0  0  0  0  0  0  0
    3.1955   29.4694    5.0422 H   0  0  0  0  0  0  0  0  0  0  0  0
    5.8705   25.9637    6.0944 N   0  0  0  0  0  0  0  0  0  0  0  0
    4.6622   25.6361    5.2871 C   0  0  0  0  0  0  0  0  0  0  0  0
    3.9019   26.9356    4.9468 C   0  0  0  0  0  0  0  0  0  0  0  0
    3.4965   27.6897    6.2393 C   0  0  0  0  0  0  0  0  0  0  0  0
    4.7405   27.8856    7.1741 C   0  0  0  0  0  0  0  0  0  0  0  0
    5.4743   26.5482    7.4105 C   0  0  0  0  0  0  0  0  0  0  0  0
    6.8437   24.5895    6.3050 S   0  0  0  0  0  0  0  0  0  0  0  0
    5.9780   23.0425    5.8595 C   0  0  0  0  0  0  0  0  0  0  0  0
    7.2152   24.5224    7.7008 O   0  0  0  0  0  0  0  0  0  0  0  0
    8.0264   24.7301    5.4998 O   0  0  0  0  0  0  0  0  0  0  0  0
   -0.9916   30.9539    9.3161 C   0  0  0  0  0  0  0  0  0  0  0  0
   -0.9732   32.1214    9.7428 O   0  0  0  0  0  0  0  0  0  0  0  0
   -2.0320   30.0696    9.7912 C   0  0  0  0  0  0  0  0  0  0  0  0
   -3.2078   29.8641    8.9854 C   0  0  0  0  0  0  0  0  0  0  0  0
   -4.2454   28.9863    9.4292 C   0  0  0  0  0  0  0  0  0  0  0  0
   -4.1321   28.2995   10.6734 C   0  0  0  0  0  0  0  0  0  0  0  0
   -2.9822   28.4871   11.4909 C   0  0  0  0  0  0  0  0  0  0  0  0
   -1.9115   29.3697   11.0744 C   0  0  0  0  0  0  0  0  0  0  0  0
   -3.3517   30.4866    7.8192 F   0  0  0  0  0  0  0  0  0  0  0  0
   -5.3194   28.8033    8.6841 F   0  0  0  0  0  0  0  0  0  0  0  0
   -0.7561   29.5877   11.8576 O   0  0  0  0  0  0  0  0  0  0  0  0
    0.0399   28.3909   12.0456 C   0  0  0  0  0  0  0  0  0  0  0  0
 12 13  1  0  0  0
 12 17  1  0  0  0
 12 18  1  0  0  0
 13 14  1  0  0  0
 14 15  1  0  0  0
 15 16  1  0  0  0
 15 10  1  0  0  0
 16 17  1  0  0  0
 10  1  1  0  0  0
  1  2  2  0  0  0
  1  6  1  0  0  0
  2  3  1  0  0  0
  3  4  2  0  0  0
  4  5  1  0  0  0
  4 22  1  0  0  0
  5  6  2  0  0  0
  5  7  1  0  0  0
 22 23  2  0  0  0
 22 24  1  0  0  0
 24 25  1  0  0  0
 24 29  2  0  0  0
 25 26  2  0  0  0
 25 30  1  0  0  0
 26 27  1  0  0  0
 26 31  1  0  0  0
 27 28  2  0  0  0
 28 29  1  0  0  0
 29 32  1  0  0  0
 32 33  1  0  0  0
 18 19  1  0  0  0
 18 20  2  0  0  0
 18 21  2  0  0  0
 10 11  1  0  0  0
  7  8  1  0  0  0
  7  9  1  0  0  0
M  END
> <minimizedAffinity>
-8.71323

$$$$
2FVD_LIA_A_299


 33 35  0  0  0  0  0  0  0  0999 V2000
   -1.4660   24.7067   11.2327 C   0  0  0  0  0  0  0  0  0  0  0  0
   -0.8096   24.4627   10.0659 N   0  0  0  0  0  0  0  0  0  0  0  0
    0.1974   25.2035    9.7187 C   0  0  0  0  0  0  0  0  0  0  0  0
    0.6765   26.3080   10.5289 C   0  0  0  0  0  0  0  0  0  0  0  0
   -0.0414   26.5281   11.7649 C   0  0  0  0  0  0  0  0  0  0  0  0
   -1.1025   25.7120   12.0816 N   0  0  0  0  0  0  0  0  0  0  0  0
    0.2719   27.5049   12.6360 N   0  0  0  0  0  0  0  0  0  0  0  0
    1.0246   28.1106   12.4465 H   0  0  0  0  0  0  0  0  0  0  0  0
   -0.2515   27.6138   13.4627 H   0  0  0  0  0  0  0  0  0  0  0  0
   -2.5356   23.9532   11.6179 N   0  0  0  0  0  0  0  0  0  0  0  0
   -2.6756   23.0298   11.3066 H   0  0  0  0  0  0  0  0  0  0  0  0
   -6.0869   24.5103   13.8506 N   0  0  0  0  0  0  0  0  0  0  0  0
   -5.8625   25.4584   12.7237 C   0  0  0  0  0  0  0  0  0  0  0  0
   -4.7887   24.8855   11.7743 C   0  0  0  0  0  0  0  0  0  0  0  0
   -3.4619   24.6310   12.5350 C   0  0  0  0  0  0  0  0  0  0  0  0
   -3.7223   23.7727   13.8216 C   0  0  0  0  0  0  0  0  0  0  0  0
   -4.8506   24.3847   14.6791 C   0  0  0  0  0  0  0  0  0  0  0  0
   -7.4079   25.0018   14.7958 S   0  0  0  0  0  0  0  0  0  0  0  0
   -7.6224   23.9715   16.2903 C   0  0  0  0  0  0  0  0  0  0  0  0
   -8.5983   24.8860   13.9833 O   0  0  0  0  0  0  0  0  0  0  0  0
   -7.2198   26.3747   15.1787 O   0  0  0  0  0  0  0  0  0  0  0  0
    1.8023   27.1095   10.0732 C   0  0  0  0  0  0  0  0  0  0  0  0
    2.8826   27.0922   10.6880 O   0  0  0  0  0  0  0  0  0  0  0  0
    1.6909   27.9644    8.9126 C   0  0  0  0  0  0  0  0  0  0  0  0
    2.4778   27.6734    7.7420 C   0  0  0  0  0  0  0  0  0  0  0  0
    2.3770   28.4980    6.5784 C   0  0  0  0  0  0  0  0  0  0  0  0
    1.4957   29.6186    6.5572 C   0  0  0  0  0  0  0  0  0  0  0  0
    0.7092   29.9306    7.7016 C   0  0  0  0  0  0  0  0  0  0  0  0
    0.7858   29.1183    8.8988 C   0  0  0  0  0  0  0  0  0  0  0  0
    3.3120   26.6380    7.7220 F   0  0  0  0  0  0  0  0  0  0  0  0
    3.1015   28.2239    5.5097 F   0  0  0  0  0  0  0  0  0  0  0  0
    0.0266   29.3959   10.0574 O   0  0  0  0  0  0  0  0  0  0  0  0
   -1.4038   29.3529    9.8260 C   0  0  0  0  0  0  0  0  0  0  0  0
 12 13  1  0  0  0
 12 17  1  0  0  0
 12 18  1  0  0  0
 13 14  1  0  0  0
 14 15  1  0  0  0
 15 16  1  0  0  0
 15 10  1  0  0  0
 16 17  1  0  0  0
 10  1  1  0  0  0
  1  2  2  0  0  0
  1  6  1  0  0  0
  2  3  1  0  0  0
  3  4  2  0  0  0
  4  5  1  0  0  0
  4 22  1  0  0  0
  5  6  2  0  0  0
  5  7  1  0  0  0
 22 23  2  0  0  0
 22 24  1  0  0  0
 24 25  1  0  0  0
 24 29  2  0  0  0
 25 26  2  0  0  0
 25 30  1  0  0  0
 26 27  1  0  0  0
 26 31  1  0  0  0
 27 28  2  0  0  0
 28 29  1  0  0  0
 29 32  1  0  0  0
 32 33  1  0  0  0
 18 19  1  0  0  0
 18 20  2  0  0  0
 18 21  2  0  0  0
 10 11  1  0  0  0
  7  8  1  0  0  0
  7  9  1  0  0  0
M  END
> <minimizedAffinity>
-8.69523

$$$$
2FVD_LIA_A_299


 33 35  0  0  0  0  0  0  0  0999 V2000
   -1.5985   24.8518   11.0002 C   0  0  0  0  0  0  0  0  0  0  0  0
   -0.9262   24.6323    9.8376 N   0  0  0  0  0  0  0  0  0  0  0  0
    0.1206   25.3419    9.5474 C   0  0  0  0  0  0  0  0  0  0  0  0
    0.6290   26.3849   10.4191 C   0  0  0  0  0  0  0  0  0  0  0  0
   -0.1074   26.5800   11.6483 C   0  0  0  0  0  0  0  0  0  0  0  0
   -1.2108   25.7992   11.9032 N   0  0  0  0  0  0  0  0  0  0  0  0
    0.2285   27.5003   12.5711 N   0  0  0  0  0  0  0  0  0  0  0  0
    1.0115   28.0792   12.4266 H   0  0  0  0  0  0  0  0  0  0  0  0
   -0.3089   27.5945   13.3906 H   0  0  0  0  0  0  0  0  0  0  0  0
   -2.7093   24.1308   11.3264 N   0  0  0  0  0  0  0  0  0  0  0  0
   -2.9571   23.2974   10.8646 H   0  0  0  0  0  0  0  0  0  0  0  0
   -5.8967   24.3690   14.0996 N   0  0  0  0  0  0  0  0  0  0  0  0
   -5.8743   25.4077   13.0320 C   0  0  0  0  0  0  0  0  0  0  0  0
   -4.9398   24.9533   11.8905 C   0  0  0  0  0  0  0  0  0  0  0  0
   -3.5060   24.6982   12.4225 C   0  0  0  0  0  0  0  0  0  0  0  0
   -3.5426   23.7355   13.6602 C   0  0  0  0  0  0  0  0  0  0  0  0
   -4.5459   24.2334   14.7223 C   0  0  0  0  0  0  0  0  0  0  0  0
   -7.0735   24.7322   15.2671 S   0  0  0  0  0  0  0  0  0  0  0  0
   -8.6985   25.1223   14.5268 C   0  0  0  0  0  0  0  0  0  0  0  0
   -6.6172   25.8871   16.0081 O   0  0  0  0  0  0  0  0  0  0  0  0
   -7.2051   23.6116   16.1581 O   0  0  0  0  0  0  0  0  0  0  0  0
    1.7998   27.1545   10.0260 C   0  0  0  0  0  0  0  0  0  0  0  0
    2.8377   27.1230   10.7094 O   0  0  0  0  0  0  0  0  0  0  0  0
    1.7827   27.9938    8.8489 C   0  0  0  0  0  0  0  0  0  0  0  0
    0.9173   29.1445    8.8136 C   0  0  0  0  0  0  0  0  0  0  0  0
    0.8907   29.9954    7.6650 C   0  0  0  0  0  0  0  0  0  0  0  0
    1.7205   29.7204    6.5387 C   0  0  0  0  0  0  0  0  0  0  0  0
    2.5825   28.5879    6.5459 C   0  0  0  0  0  0  0  0  0  0  0  0
    2.6354   27.7027    7.6916 C   0  0  0  0  0  0  0  0  0  0  0  0
    0.1277   29.4349    9.8433 F   0  0  0  0  0  0  0  0  0  0  0  0
    0.0950   31.0483    7.6412 F   0  0  0  0  0  0  0  0  0  0  0  0
    3.4727   26.5658    7.7377 O   0  0  0  0  0  0  0  0  0  0  0  0
    4.8810   26.8978    7.8257 C   0  0  0  0  0  0  0  0  0  0  0  0
 12 13  1  0  0  0
 12 17  1  0  0  0
 12 18  1  0  0  0
 13 14  1  0  0  0
 14 15  1  0  0  0
 15 16  1  0  0  0
 15 10  1  0  0  0
 16 17  1  0  0  0
 10  1  1  0  0  0
  1  2  2  0  0  0
  1  6  1  0  0  0
  2  3  1  0  0  0
  3  4  2  0  0  0
  4  5  1  0  0  0
  4 22  1  0  0  0
  5  6  2  0  0  0
  5  7  1  0  0  0
 22 23  2  0  0  0
 22 24  1  0  0  0
 24 25  1  0  0  0
 24 29  2  0  0  0
 25 26  2  0  0  0
 25 30  1  0  0  0
 26 27  1  0  0  0
 26 31  1  0  0  0
 27 28  2  0  0  0
 28 29  1  0  0  0
 29 32  1  0  0  0
 32 33  1  0  0  0
 18 19  1  0  0  0
 18 20  2  0  0  0
 18 21  2  0  0  0
 10 11  1  0  0  0
  7  8  1  0  0  0
  7  9  1  0  0  0
M  END
> <minimizedAffinity>
-8.42985

$$$$
2FVD_LIA_A_299


 33 35  0  0  0  0  0  0  0  0999 V2000
    3.5580   27.4782    8.5344 C   0  0  0  0  0  0  0  0  0  0  0  0
    2.4707   26.8384    9.0447 N   0  0  0  0  0  0  0  0  0  0  0  0
    1.2804   27.3109    8.8360 C   0  0  0  0  0  0  0  0  0  0  0  0
    1.0377   28.5167    8.0660 C   0  0  0  0  0  0  0  0  0  0  0  0
    2.2177   29.1609    7.5332 C   0  0  0  0  0  0  0  0  0  0  0  0
    3.4549   28.6160    7.7873 N   0  0  0  0  0  0  0  0  0  0  0  0
    2.1743   30.2846    6.7938 N   0  0  0  0  0  0  0  0  0  0  0  0
    1.3085   30.7062    6.5894 H   0  0  0  0  0  0  0  0  0  0  0  0
    3.0084   30.6850    6.4574 H   0  0  0  0  0  0  0  0  0  0  0  0
    4.8220   27.0128    8.7478 N   0  0  0  0  0  0  0  0  0  0  0  0
    5.2072   26.9127    9.6482 H   0  0  0  0  0  0  0  0  0  0  0  0
    6.4558   24.4978    5.7624 N   0  0  0  0  0  0  0  0  0  0  0  0
    7.4336   25.1818    6.6540 C   0  0  0  0  0  0  0  0  0  0  0  0
    6.7072   25.7016    7.9128 C   0  0  0  0  0  0  0  0  0  0  0  0
    5.5624   26.6726    7.5253 C   0  0  0  0  0  0  0  0  0  0  0  0
    4.6245   26.0161    6.4533 C   0  0  0  0  0  0  0  0  0  0  0  0
    5.4394   25.4706    5.2611 C   0  0  0  0  0  0  0  0  0  0  0  0
    7.2512   23.7286    4.4757 S   0  0  0  0  0  0  0  0  0  0  0  0
    6.0910   23.0859    3.2181 C   0  0  0  0  0  0  0  0  0  0  0  0
    7.9992   22.6177    5.0210 O   0  0  0  0  0  0  0  0  0  0  0  0
    8.1569   24.6630    3.8644 O   0  0  0  0  0  0  0  0  0  0  0  0
   -0.3223   29.0010    7.8827 C   0  0  0  0  0  0  0  0  0  0  0  0
   -0.8750   28.9325    6.7713 O   0  0  0  0  0  0  0  0  0  0  0  0
   -1.0583   29.5959    8.9756 C   0  0  0  0  0  0  0  0  0  0  0  0
   -1.0667   31.0284    9.1255 C   0  0  0  0  0  0  0  0  0  0  0  0
   -1.7958   31.6405   10.1921 C   0  0  0  0  0  0  0  0  0  0  0  0
   -2.5270   30.8445   11.1219 C   0  0  0  0  0  0  0  0  0  0  0  0
   -2.5327   29.4265   10.9989 C   0  0  0  0  0  0  0  0  0  0  0  0
   -1.8046   28.7712    9.9315 C   0  0  0  0  0  0  0  0  0  0  0  0
   -0.3970   31.8057    8.2797 F   0  0  0  0  0  0  0  0  0  0  0  0
   -1.7987   32.9540   10.3217 F   0  0  0  0  0  0  0  0  0  0  0  0
   -1.7801   27.3671    9.7765 O   0  0  0  0  0  0  0  0  0  0  0  0
   -1.7395   26.6546   11.0382 C   0  0  0  0  0  0  0  0  0  0  0  0
 12 13  1  0  0  0
 12 17  1  0  0  0
 12 18  1  0  0  0
 13 14  1  0  0  0
 14 15  1  0  0  0
 15 16  1  0  0  0
 15 10  1  0  0  0
 16 17  1  0  0  0
 10  1  1  0  0  0
  1  2  2  0  0  0
  1  6  1  0  0  0
  2  3  1  0  0  0
  3  4  2  0  0  0
  4  5  1  0  0  0
  4 22  1  0  0  0
  5  6  2  0  0  0
  5  7  1  0  0  0
 22 23  2  0  0  0
 22 24  1  0  0  0
 24 25  1  0  0  0
 24 29  2  0  0  0
 25 26  2  0  0  0
 25 30  1  0  0  0
 26 27  1  0  0  0
 26 31  1  0  0  0
 27 28  2  0  0  0
 28 29  1  0  0  0
 29 32  1  0  0  0
 32 33  1  0  0  0
 18 19  1  0  0  0
 18 20  2  0  0  0
 18 21  2  0  0  0
 10 11  1  0  0  0
  7  8  1  0  0  0
  7  9  1  0  0  0
M  END
> <minimizedAffinity>
-8.37267

$$$$
2FVD_LIA_A_299


 33 35  0  0  0  0  0  0  0  0999 V2000
    2.1282   28.4963    7.5875 C   0  0  0  0  0  0  0  0  0  0  0  0
    0.9930   29.2461    7.6172 N   0  0  0  0  0  0  0  0  0  0  0  0
    0.2574   29.2710    8.6856 C   0  0  0  0  0  0  0  0  0  0  0  0
    0.5882   28.5235    9.8847 C   0  0  0  0  0  0  0  0  0  0  0  0
    1.8066   27.7476    9.8160 C   0  0  0  0  0  0  0  0  0  0  0  0
    2.5466   27.7576    8.6565 N   0  0  0  0  0  0  0  0  0  0  0  0
    2.2636   27.0001   10.8375 N   0  0  0  0  0  0  0  0  0  0  0  0
    1.7633   26.9658   11.6847 H   0  0  0  0  0  0  0  0  0  0  0  0
    3.0982   26.4875   10.7376 H   0  0  0  0  0  0  0  0  0  0  0  0
    2.9146   28.4403    6.4746 N   0  0  0  0  0  0  0  0  0  0  0  0
    2.9653   29.1751    5.8214 H   0  0  0  0  0  0  0  0  0  0  0  0
    6.0432   25.9326    5.1216 N   0  0  0  0  0  0  0  0  0  0  0  0
    4.6863   25.6427    4.5795 C   0  0  0  0  0  0  0  0  0  0  0  0
    3.7654   26.8582    4.8183 C   0  0  0  0  0  0  0  0  0  0  0  0
    3.6800   27.1947    6.3293 C   0  0  0  0  0  0  0  0  0  0  0  0
    5.1166   27.3319    6.9436 C   0  0  0  0  0  0  0  0  0  0  0  0
    5.9859   26.1023    6.6044 C   0  0  0  0  0  0  0  0  0  0  0  0
    7.1373   24.7097    4.6888 S   0  0  0  0  0  0  0  0  0  0  0  0
    6.3746   23.4285    3.6317 C   0  0  0  0  0  0  0  0  0  0  0  0
    7.6023   24.0835    5.9064 O   0  0  0  0  0  0  0  0  0  0  0  0
    8.2502   25.3046    3.9999 O   0  0  0  0  0  0  0  0  0  0  0  0
   -0.2891   28.5835   11.0442 C   0  0  0  0  0  0  0  0  0  0  0  0
    0.1378   28.3018   12.1772 O   0  0  0  0  0  0  0  0  0  0  0  0
   -1.6822   28.9462   10.9103 C   0  0  0  0  0  0  0  0  0  0  0  0
   -2.6818   27.9101   10.8688 C   0  0  0  0  0  0  0  0  0  0  0  0
   -4.0665   28.2444   10.7474 C   0  0  0  0  0  0  0  0  0  0  0  0
   -4.4800   29.6066   10.6679 C   0  0  0  0  0  0  0  0  0  0  0  0
   -3.5126   30.6500   10.7032 C   0  0  0  0  0  0  0  0  0  0  0  0
   -2.1006   30.3493   10.8243 C   0  0  0  0  0  0  0  0  0  0  0  0
   -2.3370   26.6278   10.9395 F   0  0  0  0  0  0  0  0  0  0  0  0
   -4.9760   27.2886   10.7107 F   0  0  0  0  0  0  0  0  0  0  0  0
   -1.1080   31.3541   10.8579 O   0  0  0  0  0  0  0  0  0  0  0  0
   -1.2464   32.3284    9.7937 C   0  0  0  0  0  0  0  0  0  0  0  0
 12 13  1  0  0  0
 12 17  1  0  0  0
 12 18  1  0  0  0
 13 14  1  0  0  0
 14 15  1  0  0  0
 15 16  1  0  0  0
 15 10  1  0  0  0
 16 17  1  0  0  0
 10  1  1  0  0  0
  1  2  2  0  0  0
  1  6  1  0  0  0
  2  3  1  0  0  0
  3  4  2  0  0  0
  4  5  1  0  0  0
  4 22  1  0  0  0
  5  6  2  0  0  0
  5  7  1  0  0  0
 22 23  2  0  0  0
 22 24  1  0  0  0
 24 25  1  0  0  0
 24 29  2  0  0  0
 25 26  2  0  0  0
 25 30  1  0  0  0
 26 27  1  0  0  0
 26 31  1  0  0  0
 27 28  2  0  0  0
 28 29  1  0  0  0
 29 32  1  0  0  0
 32 33  1  0  0  0
 18 19  1  0  0  0
 18 20  2  0  0  0
 18 21  2  0  0  0
 10 11  1  0  0  0
  7  8  1  0  0  0
  7  9  1  0  0  0
M  END
> <minimizedAffinity>
-8.34613

$$$$
2FVD_LIA_A_299


 33 35  0  0  0  0  0  0  0  0999 V2000
    2.2229   28.5596    7.5831 C   0  0  0  0  0  0  0  0  0  0  0  0
    1.2369   29.4880    7.7164 N   0  0  0  0  0  0  0  0  0  0  0  0
    0.5587   29.5629    8.8199 C   0  0  0  0  0  0  0  0  0  0  0  0
    0.8010   28.6879    9.9520 C   0  0  0  0  0  0  0  0  0  0  0  0
    1.8629   27.7224    9.7739 C   0  0  0  0  0  0  0  0  0  0  0  0
    2.5480   27.6874    8.5816 N   0  0  0  0  0  0  0  0  0  0  0  0
    2.2226   26.8383   10.7226 N   0  0  0  0  0  0  0  0  0  0  0  0
    1.7571   26.8305   11.5901 H   0  0  0  0  0  0  0  0  0  0  0  0
    2.9512   26.1993   10.5492 H   0  0  0  0  0  0  0  0  0  0  0  0
    2.9440   28.4485    6.4308 N   0  0  0  0  0  0  0  0  0  0  0  0
    2.9523   29.1487    5.7388 H   0  0  0  0  0  0  0  0  0  0  0  0
    6.0690   25.9145    5.1193 N   0  0  0  0  0  0  0  0  0  0  0  0
    4.7119   25.6181    4.5814 C   0  0  0  0  0  0  0  0  0  0  0  0
    3.7929   26.8388    4.8004 C   0  0  0  0  0  0  0  0  0  0  0  0
    3.7075   27.1996    6.3058 C   0  0  0  0  0  0  0  0  0  0  0  0
    5.1441   27.3443    6.9183 C   0  0  0  0  0  0  0  0  0  0  0  0
    6.0116   26.1080    6.5992 C   0  0  0  0  0  0  0  0  0  0  0  0
    7.1614   24.6831    4.7066 S   0  0  0  0  0  0  0  0  0  0  0  0
    6.4333   23.4528    3.5677 C   0  0  0  0  0  0  0  0  0  0  0  0
    7.5463   24.0086    5.9263 O   0  0  0  0  0  0  0  0  0  0  0  0
    8.3219   25.2760    4.0993 O   0  0  0  0  0  0  0  0  0  0  0  0
   -0.0070   28.8151   11.1555 C   0  0  0  0  0  0  0  0  0  0  0  0
    0.5015   29.2002   12.2225 O   0  0  0  0  0  0  0  0  0  0  0  0
   -1.4123   28.4753   11.1524 C   0  0  0  0  0  0  0  0  0  0  0  0
   -2.3925   29.5220   11.0182 C   0  0  0  0  0  0  0  0  0  0  0  0
   -3.7875   29.2098   11.0019 C   0  0  0  0  0  0  0  0  0  0  0  0
   -4.2304   27.8593   11.1159 C   0  0  0  0  0  0  0  0  0  0  0  0
   -3.2830   26.8060   11.2532 C   0  0  0  0  0  0  0  0  0  0  0  0
   -1.8614   27.0845   11.2748 C   0  0  0  0  0  0  0  0  0  0  0  0
   -2.0203   30.7940   10.9100 F   0  0  0  0  0  0  0  0  0  0  0  0
   -4.6791   30.1751   10.8779 F   0  0  0  0  0  0  0  0  0  0  0  0
   -0.8885   26.0696   11.4142 O   0  0  0  0  0  0  0  0  0  0  0  0
   -0.8139   25.5317   12.7581 C   0  0  0  0  0  0  0  0  0  0  0  0
 12 13  1  0  0  0
 12 17  1  0  0  0
 12 18  1  0  0  0
 13 14  1  0  0  0
 14 15  1  0  0  0
 15 16  1  0  0  0
 15 10  1  0  0  0
 16 17  1  0  0  0
 10  1  1  0  0  0
  1  2  2  0  0  0
  1  6  1  0  0  0
  2  3  1  0  0  0
  3  4  2  0  0  0
  4  5  1  0  0  0
  4 22  1  0  0  0
  5  6  2  0  0  0
  5  7  1  0  0  0
 22 23  2  0  0  0
 22 24  1  0  0  0
 24 25  1  0  0  0
 24 29  2  0  0  0
 25 26  2  0  0  0
 25 30  1  0  0  0
 26 27  1  0  0  0
 26 31  1  0  0  0
 27 28  2  0  0  0
 28 29  1  0  0  0
 29 32  1  0  0  0
 32 33  1  0  0  0
 18 19  1  0  0  0
 18 20  2  0  0  0
 18 21  2  0  0  0
 10 11  1  0  0  0
  7  8  1  0  0  0
  7  9  1  0  0  0
M  END
> <minimizedAffinity>
-8.32092

$$$$
2FVD_LIA_A_299


 33 35  0  0  0  0  0  0  0  0999 V2000
    0.6080   28.0052    9.5632 C   0  0  0  0  0  0  0  0  0  0  0  0
    1.4213   26.9242    9.7112 N   0  0  0  0  0  0  0  0  0  0  0  0
    2.5365   26.8539    9.0517 C   0  0  0  0  0  0  0  0  0  0  0  0
    2.9773   27.8939    8.1406 C   0  0  0  0  0  0  0  0  0  0  0  0
    2.0900   29.0294    8.0190 C   0  0  0  0  0  0  0  0  0  0  0  0
    0.9197   29.0497    8.7415 N   0  0  0  0  0  0  0  0  0  0  0  0
    2.3462   30.0836    7.2225 N   0  0  0  0  0  0  0  0  0  0  0  0
    3.1730   30.1078    6.6888 H   0  0  0  0  0  0  0  0  0  0  0  0
    1.7067   30.8305    7.1737 H   0  0  0  0  0  0  0  0  0  0  0  0
   -0.5760   28.1012   10.2332 N   0  0  0  0  0  0  0  0  0  0  0  0
   -1.0910   28.9386   10.2861 H   0  0  0  0  0  0  0  0  0  0  0  0
   -2.1874   25.6503   13.2834 N   0  0  0  0  0  0  0  0  0  0  0  0
   -0.7409   25.4607   12.9823 C   0  0  0  0  0  0  0  0  0  0  0  0
   -0.2176   26.6733   12.1832 C   0  0  0  0  0  0  0  0  0  0  0  0
   -1.0210   26.8540   10.8696 C   0  0  0  0  0  0  0  0  0  0  0  0
   -2.5607   26.8818   11.1667 C   0  0  0  0  0  0  0  0  0  0  0  0
   -2.9841   25.6673   12.0202 C   0  0  0  0  0  0  0  0  0  0  0  0
   -2.7445   24.4451   14.3403 S   0  0  0  0  0  0  0  0  0  0  0  0
   -2.6571   22.7736   13.6060 C   0  0  0  0  0  0  0  0  0  0  0  0
   -4.1256   24.7376   14.6533 O   0  0  0  0  0  0  0  0  0  0  0  0
   -1.9606   24.4851   15.5448 O   0  0  0  0  0  0  0  0  0  0  0  0
    4.2327   27.7451    7.4199 C   0  0  0  0  0  0  0  0  0  0  0  0
    5.1937   28.4965    7.6591 O   0  0  0  0  0  0  0  0  0  0  0  0
    4.3907   26.7407    6.3920 C   0  0  0  0  0  0  0  0  0  0  0  0
    3.8124   26.9626    5.0918 C   0  0  0  0  0  0  0  0  0  0  0  0
    3.9643   25.9888    4.0561 C   0  0  0  0  0  0  0  0  0  0  0  0
    4.6913   24.7853    4.2924 C   0  0  0  0  0  0  0  0  0  0  0  0
    5.2701   24.5393    5.5693 C   0  0  0  0  0  0  0  0  0  0  0  0
    5.1358   25.5026    6.6430 C   0  0  0  0  0  0  0  0  0  0  0  0
    3.1266   28.0717    4.8315 F   0  0  0  0  0  0  0  0  0  0  0  0
    3.4315   26.2004    2.8671 F   0  0  0  0  0  0  0  0  0  0  0  0
    5.6902   25.2954    7.9258 O   0  0  0  0  0  0  0  0  0  0  0  0
    7.1397   25.3112    7.9302 C   0  0  0  0  0  0  0  0  0  0  0  0
 12 13  1  0  0  0
 12 17  1  0  0  0
 12 18  1  0  0  0
 13 14  1  0  0  0
 14 15  1  0  0  0
 15 16  1  0  0  0
 15 10  1  0  0  0
 16 17  1  0  0  0
 10  1  1  0  0  0
  1  2  2  0  0  0
  1  6  1  0  0  0
  2  3  1  0  0  0
  3  4  2  0  0  0
  4  5  1  0  0  0
  4 22  1  0  0  0
  5  6  2  0  0  0
  5  7  1  0  0  0
 22 23  2  0  0  0
 22 24  1  0  0  0
 24 25  1  0  0  0
 24 29  2  0  0  0
 25 26  2  0  0  0
 25 30  1  0  0  0
 26 27  1  0  0  0
 26 31  1  0  0  0
 27 28  2  0  0  0
 28 29  1  0  0  0
 29 32  1  0  0  0
 32 33  1  0  0  0
 18 19  1  0  0  0
 18 20  2  0  0  0
 18 21  2  0  0  0
 10 11  1  0  0  0
  7  8  1  0  0  0
  7  9  1  0  0  0
M  END
> <minimizedAffinity>
-8.28517

$$$$
2FVD_LIA_A_299


 33 35  0  0  0  0  0  0  0  0999 V2000
   -1.4339   25.3014   11.2580 C   0  0  0  0  0  0  0  0  0  0  0  0
   -1.1878   25.3300    9.9199 N   0  0  0  0  0  0  0  0  0  0  0  0
   -0.4409   26.2633    9.4155 C   0  0  0  0  0  0  0  0  0  0  0  0
    0.1647   27.3067   10.2221 C   0  0  0  0  0  0  0  0  0  0  0  0
   -0.1129   27.2352   11.6396 C   0  0  0  0  0  0  0  0  0  0  0  0
   -0.9130   26.2240   12.1187 N   0  0  0  0  0  0  0  0  0  0  0  0
    0.3715   28.1189   12.5315 N   0  0  0  0  0  0  0  0  0  0  0  0
    0.9481   28.8575   12.2293 H   0  0  0  0  0  0  0  0  0  0  0  0
    0.1494   28.0268   13.4862 H   0  0  0  0  0  0  0  0  0  0  0  0
   -2.2253   24.3405   11.8151 N   0  0  0  0  0  0  0  0  0  0  0  0
   -2.1554   23.3884   11.5747 H   0  0  0  0  0  0  0  0  0  0  0  0
   -5.7650   24.3543   14.1340 N   0  0  0  0  0  0  0  0  0  0  0  0
   -5.6528   25.4189   13.0982 C   0  0  0  0  0  0  0  0  0  0  0  0
   -4.5509   25.0391   12.0861 C   0  0  0  0  0  0  0  0  0  0  0  0
   -3.1906   24.8411   12.8030 C   0  0  0  0  0  0  0  0  0  0  0  0
   -3.3436   23.8474   14.0068 C   0  0  0  0  0  0  0  0  0  0  0  0
   -4.5051   24.2693   14.9317 C   0  0  0  0  0  0  0  0  0  0  0  0
   -7.1054   24.6306   15.1375 S   0  0  0  0  0  0  0  0  0  0  0  0
   -8.6398   24.9308   14.1907 C   0  0  0  0  0  0  0  0  0  0  0  0
   -6.8229   25.8014   15.9375 O   0  0  0  0  0  0  0  0  0  0  0  0
   -7.2838   23.4929   15.9981 O   0  0  0  0  0  0  0  0  0  0  0  0
    0.9800   28.3333    9.5904 C   0  0  0  0  0  0  0  0  0  0  0  0
    0.7982   29.5355    9.8494 O   0  0  0  0  0  0  0  0  0  0  0  0
    2.0034   27.9894    8.6290 C   0  0  0  0  0  0  0  0  0  0  0  0
    3.0919   27.1357    9.0299 C   0  0  0  0  0  0  0  0  0  0  0  0
    4.1102   26.7731    8.0942 C   0  0  0  0  0  0  0  0  0  0  0  0
    4.0637   27.2480    6.7506 C   0  0  0  0  0  0  0  0  0  0  0  0
    3.0010   28.0957    6.3290 C   0  0  0  0  0  0  0  0  0  0  0  0
    1.9523   28.4851    7.2496 C   0  0  0  0  0  0  0  0  0  0  0  0
    3.1718   26.6725   10.2738 F   0  0  0  0  0  0  0  0  0  0  0  0
    5.1039   25.9898    8.4698 F   0  0  0  0  0  0  0  0  0  0  0  0
    0.8830   29.3283    6.8734 O   0  0  0  0  0  0  0  0  0  0  0  0
    1.3138   30.6560    6.4826 C   0  0  0  0  0  0  0  0  0  0  0  0
 12 13  1  0  0  0
 12 17  1  0  0  0
 12 18  1  0  0  0
 13 14  1  0  0  0
 14 15  1  0  0  0
 15 16  1  0  0  0
 15 10  1  0  0  0
 16 17  1  0  0  0
 10  1  1  0  0  0
  1  2  2  0  0  0
  1  6  1  0  0  0
  2  3  1  0  0  0
  3  4  2  0  0  0
  4  5  1  0  0  0
  4 22  1  0  0  0
  5  6  2  0  0  0
  5  7  1  0  0  0
 22 23  2  0  0  0
 22 24  1  0  0  0
 24 25  1  0  0  0
 24 29  2  0  0  0
 25 26  2  0  0  0
 25 30  1  0  0  0
 26 27  1  0  0  0
 26 31  1  0  0  0
 27 28  2  0  0  0
 28 29  1  0  0  0
 29 32  1  0  0  0
 32 33  1  0  0  0
 18 19  1  0  0  0
 18 20  2  0  0  0
 18 21  2  0  0  0
 10 11  1  0  0  0
  7  8  1  0  0  0
  7  9  1  0  0  0
M  END
> <minimizedAffinity>
-8.23669

$$$$
2FVD_LIA_A_299


 33 35  0  0  0  0  0  0  0  0999 V2000
   -3.4066   28.9877   11.0589 C   0  0  0  0  0  0  0  0  0  0  0  0
   -4.6145   28.4501   10.7366 N   0  0  0  0  0  0  0  0  0  0  0  0
   -4.9165   27.2493   11.1244 C   0  0  0  0  0  0  0  0  0  0  0  0
   -4.0129   26.4255   11.9059 C   0  0  0  0  0  0  0  0  0  0  0  0
   -2.7444   27.0366   12.2357 C   0  0  0  0  0  0  0  0  0  0  0  0
   -2.4774   28.3126   11.7966 N   0  0  0  0  0  0  0  0  0  0  0  0
   -1.7922   26.4163   12.9566 N   0  0  0  0  0  0  0  0  0  0  0  0
   -1.9439   25.5024   13.2896 H   0  0  0  0  0  0  0  0  0  0  0  0
   -0.9438   26.8765   13.1509 H   0  0  0  0  0  0  0  0  0  0  0  0
   -3.0559   30.2422   10.6547 N   0  0  0  0  0  0  0  0  0  0  0  0
   -3.3006   31.0515   11.1590 H   0  0  0  0  0  0  0  0  0  0  0  0
    0.4017   30.1963    8.2155 N   0  0  0  0  0  0  0  0  0  0  0  0
   -0.3371   31.4879    8.2855 C   0  0  0  0  0  0  0  0  0  0  0  0
   -1.2877   31.4725    9.5015 C   0  0  0  0  0  0  0  0  0  0  0  0
   -2.2836   30.2881    9.4058 C   0  0  0  0  0  0  0  0  0  0  0  0
   -1.5154   28.9431    9.1592 C   0  0  0  0  0  0  0  0  0  0  0  0
   -0.5447   29.0682    7.9655 C   0  0  0  0  0  0  0  0  0  0  0  0
    1.6075   30.2572    7.0229 S   0  0  0  0  0  0  0  0  0  0  0  0
    3.1148   29.3413    7.5025 C   0  0  0  0  0  0  0  0  0  0  0  0
    1.9581   31.6455    6.8214 O   0  0  0  0  0  0  0  0  0  0  0  0
    1.0801   29.7133    5.8010 O   0  0  0  0  0  0  0  0  0  0  0  0
   -4.4083   25.0804   12.2955 C   0  0  0  0  0  0  0  0  0  0  0  0
   -3.9677   24.0893   11.6880 O   0  0  0  0  0  0  0  0  0  0  0  0
   -5.3400   24.8586   13.3786 C   0  0  0  0  0  0  0  0  0  0  0  0
   -6.7542   24.8595   13.1061 C   0  0  0  0  0  0  0  0  0  0  0  0
   -7.6945   24.6321   14.1587 C   0  0  0  0  0  0  0  0  0  0  0  0
   -7.2483   24.3988   15.4926 C   0  0  0  0  0  0  0  0  0  0  0  0
   -5.8565   24.3959   15.7901 C   0  0  0  0  0  0  0  0  0  0  0  0
   -4.8746   24.6238   14.7495 C   0  0  0  0  0  0  0  0  0  0  0  0
   -7.2107   25.0739   11.8757 F   0  0  0  0  0  0  0  0  0  0  0  0
   -8.9889   24.6341   13.9001 F   0  0  0  0  0  0  0  0  0  0  0  0
   -3.4848   24.6341   15.0027 O   0  0  0  0  0  0  0  0  0  0  0  0
   -2.9427   23.3153   15.2637 C   0  0  0  0  0  0  0  0  0  0  0  0
 12 13  1  0  0  0
 12 17  1  0  0  0
 12 18  1  0  0  0
 13 14  1  0  0  0
 14 15  1  0  0  0
 15 16  1  0  0  0
 15 10  1  0  0  0
 16 17  1  0  0  0
 10  1  1  0  0  0
  1  2  2  0  0  0
  1  6  1  0  0  0
  2  3  1  0  0  0
  3  4  2  0  0  0
  4  5  1  0  0  0
  4 22  1  0  0  0
  5  6  2  0  0  0
  5  7  1  0  0  0
 22 23  2  0  0  0
 22 24  1  0  0  0
 24 25  1  0  0  0
 24 29  2  0  0  0
 25 26  2  0  0  0
 25 30  1  0  0  0
 26 27  1  0  0  0
 26 31  1  0  0  0
 27 28  2  0  0  0
 28 29  1  0  0  0
 29 32  1  0  0  0
 32 33  1  0  0  0
 18 19  1  0  0  0
 18 20  2  0  0  0
 18 21  2  0  0  0
 10 11  1  0  0  0
  7  8  1  0  0  0
  7  9  1  0  0  0
M  END
> <minimizedAffinity>
-8.16029

$$$$
2FVD_LIA_A_299


 33 35  0  0  0  0  0  0  0  0999 V2000
    2.3858   25.9348   10.1102 C   0  0  0  0  0  0  0  0  0  0  0  0
    2.1334   27.1127    9.4771 N   0  0  0  0  0  0  0  0  0  0  0  0
    1.2482   27.9319    9.9555 C   0  0  0  0  0  0  0  0  0  0  0  0
    0.4922   27.6543   11.1628 C   0  0  0  0  0  0  0  0  0  0  0  0
    0.7968   26.3976   11.8105 C   0  0  0  0  0  0  0  0  0  0  0  0
    1.7440   25.5675   11.2576 N   0  0  0  0  0  0  0  0  0  0  0  0
    0.1932   25.9849   12.9403 N   0  0  0  0  0  0  0  0  0  0  0  0
   -0.4906   26.5498   13.3677 H   0  0  0  0  0  0  0  0  0  0  0  0
    0.4353   25.1182   13.3394 H   0  0  0  0  0  0  0  0  0  0  0  0
    3.3010   25.0482    9.6242 N   0  0  0  0  0  0  0  0  0  0  0  0
    3.6821   24.3235   10.1709 H   0  0  0  0  0  0  0  0  0  0  0  0
    5.7488   24.8676    6.1770 N   0  0  0  0  0  0  0  0  0  0  0  0
    5.5144   26.2236    6.7474 C   0  0  0  0  0  0  0  0  0  0  0  0
    4.9823   26.0909    8.1902 C   0  0  0  0  0  0  0  0  0  0  0  0
    3.6725   25.2619    8.2189 C   0  0  0  0  0  0  0  0  0  0  0  0
    3.8677   23.9000    7.4660 C   0  0  0  0  0  0  0  0  0  0  0  0
    4.4595   24.1231    6.0579 C   0  0  0  0  0  0  0  0  0  0  0  0
    6.5331   24.9741    4.6759 S   0  0  0  0  0  0  0  0  0  0  0  0
    5.9050   26.3525    3.6530 C   0  0  0  0  0  0  0  0  0  0  0  0
    6.3011   23.7344    3.9687 O   0  0  0  0  0  0  0  0  0  0  0  0
    7.9433   25.1424    4.8996 O   0  0  0  0  0  0  0  0  0  0  0  0
   -0.4976   28.6098   11.6368 C   0  0  0  0  0  0  0  0  0  0  0  0
   -0.2889   29.2832   12.6608 O   0  0  0  0  0  0  0  0  0  0  0  0
   -1.7571   28.7857   10.9491 C   0  0  0  0  0  0  0  0  0  0  0  0
   -2.8852   27.9710   11.3205 C   0  0  0  0  0  0  0  0  0  0  0  0
   -4.1438   28.1338   10.6622 C   0  0  0  0  0  0  0  0  0  0  0  0
   -4.3030   29.1049    9.6305 C   0  0  0  0  0  0  0  0  0  0  0  0
   -3.2035   29.9208    9.2416 C   0  0  0  0  0  0  0  0  0  0  0  0
   -1.9130   29.7833    9.8854 C   0  0  0  0  0  0  0  0  0  0  0  0
   -2.7775   27.0537   12.2772 F   0  0  0  0  0  0  0  0  0  0  0  0
   -5.1727   27.3834   11.0092 F   0  0  0  0  0  0  0  0  0  0  0  0
   -0.7952   30.5692    9.5264 O   0  0  0  0  0  0  0  0  0  0  0  0
   -1.1401   31.9415    9.2117 C   0  0  0  0  0  0  0  0  0  0  0  0
 12 13  1  0  0  0
 12 17  1  0  0  0
 12 18  1  0  0  0
 13 14  1  0  0  0
 14 15  1  0  0  0
 15 16  1  0  0  0
 15 10  1  0  0  0
 16 17  1  0  0  0
 10  1  1  0  0  0
  1  2  2  0  0  0
  1  6  1  0  0  0
  2  3  1  0  0  0
  3  4  2  0  0  0
  4  5  1  0  0  0
  4 22  1  0  0  0
  5  6  2  0  0  0
  5  7  1  0  0  0
 22 23  2  0  0  0
 22 24  1  0  0  0
 24 25  1  0  0  0
 24 29  2  0  0  0
 25 26  2  0  0  0
 25 30  1  0  0  0
 26 27  1  0  0  0
 26 31  1  0  0  0
 27 28  2  0  0  0
 28 29  1  0  0  0
 29 32  1  0  0  0
 32 33  1  0  0  0
 18 19  1  0  0  0
 18 20  2  0  0  0
 18 21  2  0  0  0
 10 11  1  0  0  0
  7  8  1  0  0  0
  7  9  1  0  0  0
M  END
> <minimizedAffinity>
-8.08296

$$$$
