1FKG_SB3_A_108


 33 35  0  0  0  0  0  0  0  0999 V2000
  -26.9561   28.7332    4.2317 C   0  0  0  0  0  0  0  0  0  0  0  0
  -25.9201   28.5978    4.8275 O   0  0  0  0  0  0  0  0  0  0  0  0
  -27.0314   29.4529    2.8702 C   0  0  0  0  0  0  0  0  0  0  0  0
  -25.8663   30.4021    2.6089 C   0  0  0  0  0  0  0  0  0  0  0  0
  -25.8021   31.6362    3.4997 C   0  0  0  0  0  0  0  0  0  0  0  0
  -27.0658   32.4444    3.2816 C   0  0  0  0  0  0  0  0  0  0  0  0
  -28.2318   31.4835    3.5234 C   0  0  0  0  0  0  0  0  0  0  0  0
  -28.1856   30.3031    2.6044 N   0  0  0  0  0  0  0  0  0  0  0  0
  -29.2768   29.7874    1.9960 C   0  0  0  0  0  0  0  0  0  0  0  0
  -29.1888   28.6639    1.4965 O   0  0  0  0  0  0  0  0  0  0  0  0
  -30.6051   30.5524    1.8053 C   0  0  0  0  0  0  0  0  0  0  0  0
  -30.7534   31.2223    0.7765 O   0  0  0  0  0  0  0  0  0  0  0  0
  -31.7741   30.4046    2.7907 C   0  0  0  0  0  0  0  0  0  0  0  0
  -33.1535   30.1713    2.0746 C   0  0  0  0  0  0  0  0  0  0  0  0
  -31.9309   31.6410    3.7037 C   0  0  0  0  0  0  0  0  0  0  0  0
  -31.5628   29.2022    3.6930 C   0  0  0  0  0  0  0  0  0  0  0  0
  -32.7288   28.9367    4.6694 C   0  0  0  0  0  0  0  0  0  0  0  0
  -28.1086   28.3533    4.7443 O   0  0  0  0  0  0  0  0  0  0  0  0
  -28.3755   26.9861    5.1044 C   0  0  0  0  0  0  0  0  0  0  0  0
  -29.1887   27.0206    6.4192 C   0  0  0  0  0  0  0  0  0  0  0  0
  -29.8639   28.1326    6.7203 C   0  0  0  0  0  0  0  0  0  0  0  0
  -30.5294   28.2413    7.8562 C   0  0  0  0  0  0  0  0  0  0  0  0
  -30.5339   27.2301    8.7120 C   0  0  0  0  0  0  0  0  0  0  0  0
  -29.8729   26.1136    8.4307 C   0  0  0  0  0  0  0  0  0  0  0  0
  -29.2031   26.0021    7.2901 C   0  0  0  0  0  0  0  0  0  0  0  0
  -29.1276   26.3536    3.9292 C   0  0  0  0  0  0  0  0  0  0  0  0
  -28.5080   25.1272    3.2623 C   0  0  0  0  0  0  0  0  0  0  0  0
  -27.1079   25.3530    2.7237 C   0  0  0  0  0  0  0  0  0  0  0  0
  -26.9331   25.9639    1.5642 C   0  0  0  0  0  0  0  0  0  0  0  0
  -25.7393   26.3917    1.2081 C   0  0  0  0  0  0  0  0  0  0  0  0
  -24.6947   26.2070    2.0055 C   0  0  0  0  0  0  0  0  0  0  0  0
  -24.8544   25.5826    3.1567 C   0  0  0  0  0  0  0  0  0  0  0  0
  -26.0610   25.1525    3.5071 C   0  0  0  0  0  0  0  0  0  0  0  0
  1  3  1  0  0  0
  1  2  2  0  0  0
  1 18  1  0  0  0
  3  4  1  0  0  0
  3  8  1  0  0  0
  4  5  1  0  0  0
  5  6  1  0  0  0
  6  7  1  0  0  0
  7  8  1  0  0  0
  8  9  1  0  0  0
 18 19  1  0  0  0
  9 10  2  0  0  0
  9 11  1  0  0  0
 11 12  2  0  0  0
 11 13  1  0  0  0
 13 16  1  0  0  0
 13 14  1  0  0  0
 13 15  1  0  0  0
 16 17  1  0  0  0
 19 26  1  0  0  0
 19 20  1  0  0  0
 26 27  1  0  0  0
 27 28  1  0  0  0
 28 29  2  0  0  0
 28 33  1  0  0  0
 29 30  1  0  0  0
 30 31  2  0  0  0
 31 32  1  0  0  0
 32 33  2  0  0  0
 20 21  2  0  0  0
 20 25  1  0  0  0
 21 22  1  0  0  0
 22 23  2  0  0  0
 23 24  1  0  0  0
 24 25  2  0  0  0
M  END
> <minimizedAffinity>
-8.18745

$$$$
1FKG_SB3_A_108


 33 35  0  0  0  0  0  0  0  0999 V2000
  -28.9265   28.8965    3.3942 C   0  0  0  0  0  0  0  0  0  0  0  0
  -29.5342   28.9987    2.3614 O   0  0  0  0  0  0  0  0  0  0  0  0
  -28.2872   30.1127    4.0938 C   0  0  0  0  0  0  0  0  0  0  0  0
  -28.5497   31.4389    3.3874 C   0  0  0  0  0  0  0  0  0  0  0  0
  -27.8922   31.6068    2.0236 C   0  0  0  0  0  0  0  0  0  0  0  0
  -26.3904   31.5128    2.2066 C   0  0  0  0  0  0  0  0  0  0  0  0
  -26.1329   30.1918    2.9346 C   0  0  0  0  0  0  0  0  0  0  0  0
  -26.8381   30.1314    4.2533 N   0  0  0  0  0  0  0  0  0  0  0  0
  -26.2774   29.6334    5.3778 C   0  0  0  0  0  0  0  0  0  0  0  0
  -27.0161   29.3645    6.3272 O   0  0  0  0  0  0  0  0  0  0  0  0
  -24.7562   29.4630    5.5850 C   0  0  0  0  0  0  0  0  0  0  0  0
  -24.2204   28.4279    5.1720 O   0  0  0  0  0  0  0  0  0  0  0  0
  -23.8878   30.5851    6.1737 C   0  0  0  0  0  0  0  0  0  0  0  0
  -24.1450   30.8189    7.7063 C   0  0  0  0  0  0  0  0  0  0  0  0
  -24.1100   31.9355    5.4568 C   0  0  0  0  0  0  0  0  0  0  0  0
  -22.4144   30.2434    6.0442 C   0  0  0  0  0  0  0  0  0  0  0  0
  -21.7605   29.7727    7.3612 C   0  0  0  0  0  0  0  0  0  0  0  0
  -28.6915   27.7257    3.9507 O   0  0  0  0  0  0  0  0  0  0  0  0
  -28.6168   26.5115    3.1825 C   0  0  0  0  0  0  0  0  0  0  0  0
  -27.1162   26.2267    2.9409 C   0  0  0  0  0  0  0  0  0  0  0  0
  -26.4146   25.6439    3.9161 C   0  0  0  0  0  0  0  0  0  0  0  0
  -25.1176   25.4279    3.7893 C   0  0  0  0  0  0  0  0  0  0  0  0
  -24.4993   25.7895    2.6750 C   0  0  0  0  0  0  0  0  0  0  0  0
  -25.1786   26.3666    1.6910 C   0  0  0  0  0  0  0  0  0  0  0  0
  -26.4818   26.5850    1.8162 C   0  0  0  0  0  0  0  0  0  0  0  0
  -29.3289   25.4251    3.9945 C   0  0  0  0  0  0  0  0  0  0  0  0
  -30.5841   25.8205    4.7697 C   0  0  0  0  0  0  0  0  0  0  0  0
  -30.3077   26.4329    6.1300 C   0  0  0  0  0  0  0  0  0  0  0  0
  -31.1525   27.3080    6.6481 C   0  0  0  0  0  0  0  0  0  0  0  0
  -31.0645   27.6505    7.9169 C   0  0  0  0  0  0  0  0  0  0  0  0
  -30.1206   27.1276    8.6894 C   0  0  0  0  0  0  0  0  0  0  0  0
  -29.2611   26.2670    8.1783 C   0  0  0  0  0  0  0  0  0  0  0  0
  -29.3555   25.9288    6.8975 C   0  0  0  0  0  0  0  0  0  0  0  0
  1  3  1  0  0  0
  1  2  2  0  0  0
  1 18  1  0  0  0
  3  4  1  0  0  0
  3  8  1  0  0  0
  4  5  1  0  0  0
  5  6  1  0  0  0
  6  7  1  0  0  0
  7  8  1  0  0  0
  8  9  1  0  0  0
 18 19  1  0  0  0
  9 10  2  0  0  0
  9 11  1  0  0  0
 11 12  2  0  0  0
 11 13  1  0  0  0
 13 16  1  0  0  0
 13 14  1  0  0  0
 13 15  1  0  0  0
 16 17  1  0  0  0
 19 26  1  0  0  0
 19 20  1  0  0  0
 26 27  1  0  0  0
 27 28  1  0  0  0
 28 29  2  0  0  0
 28 33  1  0  0  0
 29 30  1  0  0  0
 30 31  2  0  0  0
 31 32  1  0  0  0
 32 33  2  0  0  0
 20 21  2  0  0  0
 20 25  1  0  0  0
 21 22  1  0  0  0
 22 23  2  0  0  0
 23 24  1  0  0  0
 24 25  2  0  0  0
M  END
> <minimizedAffinity>
-8.11247

$$$$
1FKG_SB3_A_108


 33 35  0  0  0  0  0  0  0  0999 V2000
  -28.4924   29.4451    3.4842 C   0  0  0  0  0  0  0  0  0  0  0  0
  -28.3857   29.1953    2.3126 O   0  0  0  0  0  0  0  0  0  0  0  0
  -27.6950   30.5804    4.1570 C   0  0  0  0  0  0  0  0  0  0  0  0
  -27.7407   31.9014    3.3957 C   0  0  0  0  0  0  0  0  0  0  0  0
  -27.0345   31.9150    2.0459 C   0  0  0  0  0  0  0  0  0  0  0  0
  -25.5681   31.6070    2.2750 C   0  0  0  0  0  0  0  0  0  0  0  0
  -25.5271   30.2928    3.0576 C   0  0  0  0  0  0  0  0  0  0  0  0
  -26.2634   30.3906    4.3570 N   0  0  0  0  0  0  0  0  0  0  0  0
  -25.8090   29.8606    5.5144 C   0  0  0  0  0  0  0  0  0  0  0  0
  -26.6010   29.7426    6.4515 O   0  0  0  0  0  0  0  0  0  0  0  0
  -24.3353   29.4753    5.7710 C   0  0  0  0  0  0  0  0  0  0  0  0
  -23.9345   28.3815    5.3563 O   0  0  0  0  0  0  0  0  0  0  0  0
  -23.3412   30.4555    6.4118 C   0  0  0  0  0  0  0  0  0  0  0  0
  -23.5508   30.6155    7.9611 C   0  0  0  0  0  0  0  0  0  0  0  0
  -23.4230   31.8658    5.7865 C   0  0  0  0  0  0  0  0  0  0  0  0
  -21.9161   29.9646    6.2312 C   0  0  0  0  0  0  0  0  0  0  0  0
  -21.1649   29.7145    7.5566 C   0  0  0  0  0  0  0  0  0  0  0  0
  -29.2316   28.7086    4.2884 O   0  0  0  0  0  0  0  0  0  0  0  0
  -28.8096   27.4117    4.7466 C   0  0  0  0  0  0  0  0  0  0  0  0
  -29.3637   27.2417    6.1801 C   0  0  0  0  0  0  0  0  0  0  0  0
  -30.0928   28.2314    6.7016 C   0  0  0  0  0  0  0  0  0  0  0  0
  -30.5443   28.1673    7.9413 C   0  0  0  0  0  0  0  0  0  0  0  0
  -30.2758   27.1023    8.6819 C   0  0  0  0  0  0  0  0  0  0  0  0
  -29.5564   26.1048    8.1819 C   0  0  0  0  0  0  0  0  0  0  0  0
  -29.1012   26.1670    6.9365 C   0  0  0  0  0  0  0  0  0  0  0  0
  -29.3550   26.3862    3.7477 C   0  0  0  0  0  0  0  0  0  0  0  0
  -28.5385   25.1175    3.5095 C   0  0  0  0  0  0  0  0  0  0  0  0
  -27.1843   25.3604    2.8704 C   0  0  0  0  0  0  0  0  0  0  0  0
  -27.1043   25.9364    1.6830 C   0  0  0  0  0  0  0  0  0  0  0  0
  -25.9491   26.3819    1.2335 C   0  0  0  0  0  0  0  0  0  0  0  0
  -24.8488   26.2504    1.9636 C   0  0  0  0  0  0  0  0  0  0  0  0
  -24.9140   25.6610    3.1423 C   0  0  0  0  0  0  0  0  0  0  0  0
  -26.0822   25.2126    3.5870 C   0  0  0  0  0  0  0  0  0  0  0  0
  1  3  1  0  0  0
  1  2  2  0  0  0
  1 18  1  0  0  0
  3  4  1  0  0  0
  3  8  1  0  0  0
  4  5  1  0  0  0
  5  6  1  0  0  0
  6  7  1  0  0  0
  7  8  1  0  0  0
  8  9  1  0  0  0
 18 19  1  0  0  0
  9 10  2  0  0  0
  9 11  1  0  0  0
 11 12  2  0  0  0
 11 13  1  0  0  0
 13 16  1  0  0  0
 13 14  1  0  0  0
 13 15  1  0  0  0
 16 17  1  0  0  0
 19 26  1  0  0  0
 19 20  1  0  0  0
 26 27  1  0  0  0
 27 28  1  0  0  0
 28 29  2  0  0  0
 28 33  1  0  0  0
 29 30  1  0  0  0
 30 31  2  0  0  0
 31 32  1  0  0  0
 32 33  2  0  0  0
 20 21  2  0  0  0
 20 25  1  0  0  0
 21 22  1  0  0  0
 22 23  2  0  0  0
 23 24  1  0  0  0
 24 25  2  0  0  0
M  END
> <minimizedAffinity>
-8.05528

$$$$
1FKG_SB3_A_108


 33 35  0  0  0  0  0  0  0  0999 V2000
  -25.1351   27.3134    4.4290 C   0  0  0  0  0  0  0  0  0  0  0  0
  -23.9736   27.3275    4.7408 O   0  0  0  0  0  0  0  0  0  0  0  0
  -25.8734   26.0073    4.0736 C   0  0  0  0  0  0  0  0  0  0  0  0
  -25.4104   25.3733    2.7658 C   0  0  0  0  0  0  0  0  0  0  0  0
  -25.7341   26.1535    1.4981 C   0  0  0  0  0  0  0  0  0  0  0  0
  -27.2406   26.2873    1.3955 C   0  0  0  0  0  0  0  0  0  0  0  0
  -27.7034   26.9034    2.7175 C   0  0  0  0  0  0  0  0  0  0  0  0
  -27.3192   26.0614    3.8936 N   0  0  0  0  0  0  0  0  0  0  0  0
  -28.1382   25.8259    4.9428 C   0  0  0  0  0  0  0  0  0  0  0  0
  -27.6448   25.3694    5.9759 O   0  0  0  0  0  0  0  0  0  0  0  0
  -29.6717   26.0068    4.9022 C   0  0  0  0  0  0  0  0  0  0  0  0
  -30.3499   25.1383    4.3410 O   0  0  0  0  0  0  0  0  0  0  0  0
  -30.3714   27.1602    5.6369 C   0  0  0  0  0  0  0  0  0  0  0  0
  -31.5098   27.8289    4.7843 C   0  0  0  0  0  0  0  0  0  0  0  0
  -29.3859   28.2766    6.0482 C   0  0  0  0  0  0  0  0  0  0  0  0
  -31.0385   26.6585    6.9049 C   0  0  0  0  0  0  0  0  0  0  0  0
  -30.1224   26.6793    8.1474 C   0  0  0  0  0  0  0  0  0  0  0  0
  -25.8306   28.4229    4.2849 O   0  0  0  0  0  0  0  0  0  0  0  0
  -25.2467   29.6345    3.7738 C   0  0  0  0  0  0  0  0  0  0  0  0
  -26.3804   30.4144    3.0684 C   0  0  0  0  0  0  0  0  0  0  0  0
  -26.0650   31.5214    2.3916 C   0  0  0  0  0  0  0  0  0  0  0  0
  -26.9975   32.2598    1.8171 C   0  0  0  0  0  0  0  0  0  0  0  0
  -28.2682   31.8968    1.9071 C   0  0  0  0  0  0  0  0  0  0  0  0
  -28.6037   30.7974    2.5716 C   0  0  0  0  0  0  0  0  0  0  0  0
  -27.6685   30.0539    3.1500 C   0  0  0  0  0  0  0  0  0  0  0  0
  -24.6379   30.3751    4.9686 C   0  0  0  0  0  0  0  0  0  0  0  0
  -25.5027   30.5517    6.2152 C   0  0  0  0  0  0  0  0  0  0  0  0
  -26.4392   31.7439    6.1585 C   0  0  0  0  0  0  0  0  0  0  0  0
  -26.0050   32.9083    5.7072 C   0  0  0  0  0  0  0  0  0  0  0  0
  -26.8559   33.8699    5.4136 C   0  0  0  0  0  0  0  0  0  0  0  0
  -28.1600   33.6848    5.5753 C   0  0  0  0  0  0  0  0  0  0  0  0
  -28.6030   32.5330    6.0420 C   0  0  0  0  0  0  0  0  0  0  0  0
  -27.7382   31.5695    6.3378 C   0  0  0  0  0  0  0  0  0  0  0  0
  1  3  1  0  0  0
  1  2  2  0  0  0
  1 18  1  0  0  0
  3  4  1  0  0  0
  3  8  1  0  0  0
  4  5  1  0  0  0
  5  6  1  0  0  0
  6  7  1  0  0  0
  7  8  1  0  0  0
  8  9  1  0  0  0
 18 19  1  0  0  0
  9 10  2  0  0  0
  9 11  1  0  0  0
 11 12  2  0  0  0
 11 13  1  0  0  0
 13 16  1  0  0  0
 13 14  1  0  0  0
 13 15  1  0  0  0
 16 17  1  0  0  0
 19 26  1  0  0  0
 19 20  1  0  0  0
 26 27  1  0  0  0
 27 28  1  0  0  0
 28 29  2  0  0  0
 28 33  1  0  0  0
 29 30  1  0  0  0
 30 31  2  0  0  0
 31 32  1  0  0  0
 32 33  2  0  0  0
 20 21  2  0  0  0
 20 25  1  0  0  0
 21 22  1  0  0  0
 22 23  2  0  0  0
 23 24  1  0  0  0
 24 25  2  0  0  0
M  END
> <minimizedAffinity>
-7.84571

$$$$
1FKG_SB3_A_108


 33 35  0  0  0  0  0  0  0  0999 V2000
  -27.9797   29.1400    5.8431 C   0  0  0  0  0  0  0  0  0  0  0  0
  -27.6588   29.1026    7.0016 O   0  0  0  0  0  0  0  0  0  0  0  0
  -27.7428   30.3858    4.9660 C   0  0  0  0  0  0  0  0  0  0  0  0
  -28.1204   30.1896    3.5012 C   0  0  0  0  0  0  0  0  0  0  0  0
  -27.2565   29.2094    2.7180 C   0  0  0  0  0  0  0  0  0  0  0  0
  -25.8308   29.7244    2.7240 C   0  0  0  0  0  0  0  0  0  0  0  0
  -25.4633   29.9404    4.1936 C   0  0  0  0  0  0  0  0  0  0  0  0
  -26.3856   30.9087    4.8658 N   0  0  0  0  0  0  0  0  0  0  0  0
  -25.9671   31.8660    5.7234 C   0  0  0  0  0  0  0  0  0  0  0  0
  -26.8083   32.4185    6.4351 O   0  0  0  0  0  0  0  0  0  0  0  0
  -24.5124   32.3787    5.8066 C   0  0  0  0  0  0  0  0  0  0  0  0
  -24.1655   33.2852    5.0404 O   0  0  0  0  0  0  0  0  0  0  0  0
  -23.5379   31.8804    6.8844 C   0  0  0  0  0  0  0  0  0  0  0  0
  -24.0535   30.5970    7.6306 C   0  0  0  0  0  0  0  0  0  0  0  0
  -23.2513   32.9546    7.9572 C   0  0  0  0  0  0  0  0  0  0  0  0
  -22.2066   31.4969    6.2640 C   0  0  0  0  0  0  0  0  0  0  0  0
  -21.8307   30.0112    6.4516 C   0  0  0  0  0  0  0  0  0  0  0  0
  -28.6346   28.1511    5.2699 O   0  0  0  0  0  0  0  0  0  0  0  0
  -29.2390   27.0886    6.0288 C   0  0  0  0  0  0  0  0  0  0  0  0
  -30.7636   27.3468    6.0241 C   0  0  0  0  0  0  0  0  0  0  0  0
  -31.2563   28.2292    5.1514 C   0  0  0  0  0  0  0  0  0  0  0  0
  -32.5418   28.5332    5.1392 C   0  0  0  0  0  0  0  0  0  0  0  0
  -33.3606   27.9510    6.0026 C   0  0  0  0  0  0  0  0  0  0  0  0
  -32.8926   27.0676    6.8761 C   0  0  0  0  0  0  0  0  0  0  0  0
  -31.6012   26.7607    6.8905 C   0  0  0  0  0  0  0  0  0  0  0  0
  -28.8331   25.7732    5.3565 C   0  0  0  0  0  0  0  0  0  0  0  0
  -28.8295   25.7230    3.8300 C   0  0  0  0  0  0  0  0  0  0  0  0
  -27.4454   25.6461    3.2137 C   0  0  0  0  0  0  0  0  0  0  0  0
  -27.2895   25.8025    1.9101 C   0  0  0  0  0  0  0  0  0  0  0  0
  -26.0904   25.9926    1.3991 C   0  0  0  0  0  0  0  0  0  0  0  0
  -25.0222   26.0208    2.1860 C   0  0  0  0  0  0  0  0  0  0  0  0
  -25.1642   25.8478    3.4862 C   0  0  0  0  0  0  0  0  0  0  0  0
  -26.3765   25.6545    3.9930 C   0  0  0  0  0  0  0  0  0  0  0  0
  1  3  1  0  0  0
  1  2  2  0  0  0
  1 18  1  0  0  0
  3  4  1  0  0  0
  3  8  1  0  0  0
  4  5  1  0  0  0
  5  6  1  0  0  0
  6  7  1  0  0  0
  7  8  1  0  0  0
  8  9  1  0  0  0
 18 19  1  0  0  0
  9 10  2  0  0  0
  9 11  1  0  0  0
 11 12  2  0  0  0
 11 13  1  0  0  0
 13 16  1  0  0  0
 13 14  1  0  0  0
 13 15  1  0  0  0
 16 17  1  0  0  0
 19 26  1  0  0  0
 19 20  1  0  0  0
 26 27  1  0  0  0
 27 28  1  0  0  0
 28 29  2  0  0  0
 28 33  1  0  0  0
 29 30  1  0  0  0
 30 31  2  0  0  0
 31 32  1  0  0  0
 32 33  2  0  0  0
 20 21  2  0  0  0
 20 25  1  0  0  0
 21 22  1  0  0  0
 22 23  2  0  0  0
 23 24  1  0  0  0
 24 25  2  0  0  0
M  END
> <minimizedAffinity>
-7.84556

$$$$
1FKG_SB3_A_108


 33 35  0  0  0  0  0  0  0  0999 V2000
  -25.1238   27.2017    4.4437 C   0  0  0  0  0  0  0  0  0  0  0  0
  -23.9215   27.2307    4.4396 O   0  0  0  0  0  0  0  0  0  0  0  0
  -25.9152   25.9328    4.0684 C   0  0  0  0  0  0  0  0  0  0  0  0
  -25.5046   25.3225    2.7320 C   0  0  0  0  0  0  0  0  0  0  0  0
  -25.8299   26.1507    1.4956 C   0  0  0  0  0  0  0  0  0  0  0  0
  -27.3327   26.3390    1.4330 C   0  0  0  0  0  0  0  0  0  0  0  0
  -27.7434   26.9309    2.7829 C   0  0  0  0  0  0  0  0  0  0  0  0
  -27.3619   26.0416    3.9246 N   0  0  0  0  0  0  0  0  0  0  0  0
  -28.1645   25.8032    4.9858 C   0  0  0  0  0  0  0  0  0  0  0  0
  -27.6638   25.2994    5.9932 O   0  0  0  0  0  0  0  0  0  0  0  0
  -29.6913   26.0375    4.9871 C   0  0  0  0  0  0  0  0  0  0  0  0
  -30.4056   25.2518    4.3535 O   0  0  0  0  0  0  0  0  0  0  0  0
  -30.3420   27.1347    5.8429 C   0  0  0  0  0  0  0  0  0  0  0  0
  -31.5541   27.8327    5.1263 C   0  0  0  0  0  0  0  0  0  0  0  0
  -29.3394   28.2416    6.2382 C   0  0  0  0  0  0  0  0  0  0  0  0
  -30.8972   26.5495    7.1289 C   0  0  0  0  0  0  0  0  0  0  0  0
  -29.9871   26.7582    8.3585 C   0  0  0  0  0  0  0  0  0  0  0  0
  -25.8452   28.2776    4.6837 O   0  0  0  0  0  0  0  0  0  0  0  0
  -25.3231   29.6069    4.5095 C   0  0  0  0  0  0  0  0  0  0  0  0
  -26.3313   30.3704    3.6197 C   0  0  0  0  0  0  0  0  0  0  0  0
  -25.8566   31.2239    2.7092 C   0  0  0  0  0  0  0  0  0  0  0  0
  -26.6704   31.9463    1.9602 C   0  0  0  0  0  0  0  0  0  0  0  0
  -27.9809   31.8210    2.1081 C   0  0  0  0  0  0  0  0  0  0  0  0
  -28.4743   30.9750    3.0044 C   0  0  0  0  0  0  0  0  0  0  0  0
  -27.6587   30.2484    3.7585 C   0  0  0  0  0  0  0  0  0  0  0  0
  -25.1556   30.2076    5.9088 C   0  0  0  0  0  0  0  0  0  0  0  0
  -23.7367   30.3738    6.4492 C   0  0  0  0  0  0  0  0  0  0  0  0
  -23.6712   30.7928    7.9057 C   0  0  0  0  0  0  0  0  0  0  0  0
  -24.7468   31.2706    8.5081 C   0  0  0  0  0  0  0  0  0  0  0  0
  -24.7777   31.3963    9.8189 C   0  0  0  0  0  0  0  0  0  0  0  0
  -23.7256   31.0527   10.5511 C   0  0  0  0  0  0  0  0  0  0  0  0
  -22.6405   30.5917    9.9590 C   0  0  0  0  0  0  0  0  0  0  0  0
  -22.6169   30.4703    8.6367 C   0  0  0  0  0  0  0  0  0  0  0  0
  1  3  1  0  0  0
  1  2  2  0  0  0
  1 18  1  0  0  0
  3  4  1  0  0  0
  3  8  1  0  0  0
  4  5  1  0  0  0
  5  6  1  0  0  0
  6  7  1  0  0  0
  7  8  1  0  0  0
  8  9  1  0  0  0
 18 19  1  0  0  0
  9 10  2  0  0  0
  9 11  1  0  0  0
 11 12  2  0  0  0
 11 13  1  0  0  0
 13 16  1  0  0  0
 13 14  1  0  0  0
 13 15  1  0  0  0
 16 17  1  0  0  0
 19 26  1  0  0  0
 19 20  1  0  0  0
 26 27  1  0  0  0
 27 28  1  0  0  0
 28 29  2  0  0  0
 28 33  1  0  0  0
 29 30  1  0  0  0
 30 31  2  0  0  0
 31 32  1  0  0  0
 32 33  2  0  0  0
 20 21  2  0  0  0
 20 25  1  0  0  0
 21 22  1  0  0  0
 22 23  2  0  0  0
 23 24  1  0  0  0
 24 25  2  0  0  0
M  END
> <minimizedAffinity>
-7.74233

$$$$
1FKG_SB3_A_108


 33 35  0  0  0  0  0  0  0  0999 V2000
  -28.0439   29.1497    5.7340 C   0  0  0  0  0  0  0  0  0  0  0  0
  -27.6612   29.1045    6.8733 O   0  0  0  0  0  0  0  0  0  0  0  0
  -27.8421   30.3964    4.8496 C   0  0  0  0  0  0  0  0  0  0  0  0
  -27.7903   30.0912    3.3559 C   0  0  0  0  0  0  0  0  0  0  0  0
  -26.5810   29.2950    2.8822 C   0  0  0  0  0  0  0  0  0  0  0  0
  -25.3332   30.0966    3.1957 C   0  0  0  0  0  0  0  0  0  0  0  0
  -25.3998   30.4193    4.6899 C   0  0  0  0  0  0  0  0  0  0  0  0
  -26.6338   31.1890    5.0431 N   0  0  0  0  0  0  0  0  0  0  0  0
  -26.6427   32.2325    5.9021 C   0  0  0  0  0  0  0  0  0  0  0  0
  -27.7283   32.6136    6.3444 O   0  0  0  0  0  0  0  0  0  0  0  0
  -25.3864   33.0398    6.2974 C   0  0  0  0  0  0  0  0  0  0  0  0
  -24.8175   32.7569    7.3582 O   0  0  0  0  0  0  0  0  0  0  0  0
  -24.7676   34.0868    5.3591 C   0  0  0  0  0  0  0  0  0  0  0  0
  -24.4920   35.4607    6.0708 C   0  0  0  0  0  0  0  0  0  0  0  0
  -25.6601   34.3736    4.1310 C   0  0  0  0  0  0  0  0  0  0  0  0
  -23.4243   33.6090    4.8380 C   0  0  0  0  0  0  0  0  0  0  0  0
  -22.8244   34.5045    3.7327 C   0  0  0  0  0  0  0  0  0  0  0  0
  -28.7389   28.1695    5.1939 O   0  0  0  0  0  0  0  0  0  0  0  0
  -29.3012   27.1032    5.9793 C   0  0  0  0  0  0  0  0  0  0  0  0
  -30.8298   27.3333    6.0165 C   0  0  0  0  0  0  0  0  0  0  0  0
  -31.3579   28.2329    5.1830 C   0  0  0  0  0  0  0  0  0  0  0  0
  -32.6486   28.5133    5.2090 C   0  0  0  0  0  0  0  0  0  0  0  0
  -33.4370   27.8898    6.0718 C   0  0  0  0  0  0  0  0  0  0  0  0
  -32.9335   26.9886    6.9066 C   0  0  0  0  0  0  0  0  0  0  0  0
  -31.6369   26.7054    6.8827 C   0  0  0  0  0  0  0  0  0  0  0  0
  -28.8904   25.7893    5.3071 C   0  0  0  0  0  0  0  0  0  0  0  0
  -28.8775   25.7419    3.7805 C   0  0  0  0  0  0  0  0  0  0  0  0
  -27.4904   25.6495    3.1730 C   0  0  0  0  0  0  0  0  0  0  0  0
  -27.3178   25.8540    1.8783 C   0  0  0  0  0  0  0  0  0  0  0  0
  -26.1090   26.0294    1.3853 C   0  0  0  0  0  0  0  0  0  0  0  0
  -25.0478   25.9946    2.1814 C   0  0  0  0  0  0  0  0  0  0  0  0
  -25.2071   25.7734    3.4724 C   0  0  0  0  0  0  0  0  0  0  0  0
  -26.4291   25.5952    3.9608 C   0  0  0  0  0  0  0  0  0  0  0  0
  1  3  1  0  0  0
  1  2  2  0  0  0
  1 18  1  0  0  0
  3  4  1  0  0  0
  3  8  1  0  0  0
  4  5  1  0  0  0
  5  6  1  0  0  0
  6  7  1  0  0  0
  7  8  1  0  0  0
  8  9  1  0  0  0
 18 19  1  0  0  0
  9 10  2  0  0  0
  9 11  1  0  0  0
 11 12  2  0  0  0
 11 13  1  0  0  0
 13 16  1  0  0  0
 13 14  1  0  0  0
 13 15  1  0  0  0
 16 17  1  0  0  0
 19 26  1  0  0  0
 19 20  1  0  0  0
 26 27  1  0  0  0
 27 28  1  0  0  0
 28 29  2  0  0  0
 28 33  1  0  0  0
 29 30  1  0  0  0
 30 31  2  0  0  0
 31 32  1  0  0  0
 32 33  2  0  0  0
 20 21  2  0  0  0
 20 25  1  0  0  0
 21 22  1  0  0  0
 22 23  2  0  0  0
 23 24  1  0  0  0
 24 25  2  0  0  0
M  END
> <minimizedAffinity>
-7.40905

$$$$
1FKG_SB3_A_108


 33 35  0  0  0  0  0  0  0  0999 V2000
  -29.5734   31.3624    2.4544 C   0  0  0  0  0  0  0  0  0  0  0  0
  -29.2722   31.9609    1.4556 O   0  0  0  0  0  0  0  0  0  0  0  0
  -31.0271   31.2957    2.9639 C   0  0  0  0  0  0  0  0  0  0  0  0
  -31.6290   32.6584    3.2917 C   0  0  0  0  0  0  0  0  0  0  0  0
  -31.0182   33.3851    4.4831 C   0  0  0  0  0  0  0  0  0  0  0  0
  -31.2167   32.5252    5.7156 C   0  0  0  0  0  0  0  0  0  0  0  0
  -30.6313   31.1531    5.3751 C   0  0  0  0  0  0  0  0  0  0  0  0
  -31.2953   30.5405    4.1818 N   0  0  0  0  0  0  0  0  0  0  0  0
  -31.6336   29.2342    4.1041 C   0  0  0  0  0  0  0  0  0  0  0  0
  -31.9075   28.7683    2.9963 O   0  0  0  0  0  0  0  0  0  0  0  0
  -31.7881   28.3051    5.3285 C   0  0  0  0  0  0  0  0  0  0  0  0
  -32.8545   28.3318    5.9539 O   0  0  0  0  0  0  0  0  0  0  0  0
  -30.7106   27.2779    5.7074 C   0  0  0  0  0  0  0  0  0  0  0  0
  -29.2894   27.9218    5.8955 C   0  0  0  0  0  0  0  0  0  0  0  0
  -30.5738   26.1563    4.6538 C   0  0  0  0  0  0  0  0  0  0  0  0
  -31.0475   26.6145    7.0305 C   0  0  0  0  0  0  0  0  0  0  0  0
  -30.3652   27.2667    8.2523 C   0  0  0  0  0  0  0  0  0  0  0  0
  -28.6682   30.7980    3.2274 O   0  0  0  0  0  0  0  0  0  0  0  0
  -27.7224   29.8365    2.7265 C   0  0  0  0  0  0  0  0  0  0  0  0
  -26.5544   29.7888    3.7388 C   0  0  0  0  0  0  0  0  0  0  0  0
  -25.3485   29.4181    3.3013 C   0  0  0  0  0  0  0  0  0  0  0  0
  -24.3265   29.3037    4.1303 C   0  0  0  0  0  0  0  0  0  0  0  0
  -24.4952   29.5652    5.4179 C   0  0  0  0  0  0  0  0  0  0  0  0
  -25.6846   29.9395    5.8736 C   0  0  0  0  0  0  0  0  0  0  0  0
  -26.7133   30.0549    5.0426 C   0  0  0  0  0  0  0  0  0  0  0  0
  -28.4704   28.5073    2.5832 C   0  0  0  0  0  0  0  0  0  0  0  0
  -27.8850   27.4565    1.6420 C   0  0  0  0  0  0  0  0  0  0  0  0
  -26.8569   26.5470    2.2880 C   0  0  0  0  0  0  0  0  0  0  0  0
  -25.6654   26.3941    1.7356 C   0  0  0  0  0  0  0  0  0  0  0  0
  -24.6870   25.8216    2.4063 C   0  0  0  0  0  0  0  0  0  0  0  0
  -24.8874   25.3831    3.6427 C   0  0  0  0  0  0  0  0  0  0  0  0
  -26.0774   25.5142    4.1971 C   0  0  0  0  0  0  0  0  0  0  0  0
  -27.0591   26.0906    3.5131 C   0  0  0  0  0  0  0  0  0  0  0  0
  1  3  1  0  0  0
  1  2  2  0  0  0
  1 18  1  0  0  0
  3  4  1  0  0  0
  3  8  1  0  0  0
  4  5  1  0  0  0
  5  6  1  0  0  0
  6  7  1  0  0  0
  7  8  1  0  0  0
  8  9  1  0  0  0
 18 19  1  0  0  0
  9 10  2  0  0  0
  9 11  1  0  0  0
 11 12  2  0  0  0
 11 13  1  0  0  0
 13 16  1  0  0  0
 13 14  1  0  0  0
 13 15  1  0  0  0
 16 17  1  0  0  0
 19 26  1  0  0  0
 19 20  1  0  0  0
 26 27  1  0  0  0
 27 28  1  0  0  0
 28 29  2  0  0  0
 28 33  1  0  0  0
 29 30  1  0  0  0
 30 31  2  0  0  0
 31 32  1  0  0  0
 32 33  2  0  0  0
 20 21  2  0  0  0
 20 25  1  0  0  0
 21 22  1  0  0  0
 22 23  2  0  0  0
 23 24  1  0  0  0
 24 25  2  0  0  0
M  END
> <minimizedAffinity>
-7.40254

$$$$
1FKG_SB3_A_108


 33 35  0  0  0  0  0  0  0  0999 V2000
  -28.1308   29.0465    5.4261 C   0  0  0  0  0  0  0  0  0  0  0  0
  -27.7661   29.1596    6.5666 O   0  0  0  0  0  0  0  0  0  0  0  0
  -27.9654   30.1813    4.3954 C   0  0  0  0  0  0  0  0  0  0  0  0
  -27.5088   31.5041    5.0025 C   0  0  0  0  0  0  0  0  0  0  0  0
  -28.5093   32.1939    5.9212 C   0  0  0  0  0  0  0  0  0  0  0  0
  -29.7563   32.5033    5.1168 C   0  0  0  0  0  0  0  0  0  0  0  0
  -30.1986   31.1784    4.4921 C   0  0  0  0  0  0  0  0  0  0  0  0
  -29.1342   30.5851    3.6232 N   0  0  0  0  0  0  0  0  0  0  0  0
  -29.3827   30.0092    2.4259 C   0  0  0  0  0  0  0  0  0  0  0  0
  -28.5034   29.3061    1.9239 O   0  0  0  0  0  0  0  0  0  0  0  0
  -30.6658   30.2480    1.5995 C   0  0  0  0  0  0  0  0  0  0  0  0
  -31.5412   29.3747    1.6104 O   0  0  0  0  0  0  0  0  0  0  0  0
  -30.9271   31.5766    0.8743 C   0  0  0  0  0  0  0  0  0  0  0  0
  -29.6633   32.5098    0.8305 C   0  0  0  0  0  0  0  0  0  0  0  0
  -32.0742   32.3828    1.5232 C   0  0  0  0  0  0  0  0  0  0  0  0
  -31.3136   31.3280   -0.5725 C   0  0  0  0  0  0  0  0  0  0  0  0
  -30.7500   32.3709   -1.5616 C   0  0  0  0  0  0  0  0  0  0  0  0
  -28.7756   27.9779    5.0042 O   0  0  0  0  0  0  0  0  0  0  0  0
  -29.2325   26.9518    5.9033 C   0  0  0  0  0  0  0  0  0  0  0  0
  -30.7599   27.1383    6.0556 C   0  0  0  0  0  0  0  0  0  0  0  0
  -31.3790   28.0013    5.2464 C   0  0  0  0  0  0  0  0  0  0  0  0
  -32.6717   28.2446    5.3676 C   0  0  0  0  0  0  0  0  0  0  0  0
  -33.3708   27.6200    6.3035 C   0  0  0  0  0  0  0  0  0  0  0  0
  -32.7761   26.7548    7.1160 C   0  0  0  0  0  0  0  0  0  0  0  0
  -31.4772   26.5088    6.9965 C   0  0  0  0  0  0  0  0  0  0  0  0
  -28.8326   25.6077    5.2867 C   0  0  0  0  0  0  0  0  0  0  0  0
  -28.8460   25.4885    3.7640 C   0  0  0  0  0  0  0  0  0  0  0  0
  -27.4699   25.5169    3.1260 C   0  0  0  0  0  0  0  0  0  0  0  0
  -27.3343   25.8553    1.8551 C   0  0  0  0  0  0  0  0  0  0  0  0
  -26.1449   26.1308    1.3608 C   0  0  0  0  0  0  0  0  0  0  0  0
  -25.0660   26.0638    2.1307 C   0  0  0  0  0  0  0  0  0  0  0  0
  -25.1877   25.7097    3.3958 C   0  0  0  0  0  0  0  0  0  0  0  0
  -26.3903   25.4313    3.8856 C   0  0  0  0  0  0  0  0  0  0  0  0
  1  3  1  0  0  0
  1  2  2  0  0  0
  1 18  1  0  0  0
  3  4  1  0  0  0
  3  8  1  0  0  0
  4  5  1  0  0  0
  5  6  1  0  0  0
  6  7  1  0  0  0
  7  8  1  0  0  0
  8  9  1  0  0  0
 18 19  1  0  0  0
  9 10  2  0  0  0
  9 11  1  0  0  0
 11 12  2  0  0  0
 11 13  1  0  0  0
 13 16  1  0  0  0
 13 14  1  0  0  0
 13 15  1  0  0  0
 16 17  1  0  0  0
 19 26  1  0  0  0
 19 20  1  0  0  0
 26 27  1  0  0  0
 27 28  1  0  0  0
 28 29  2  0  0  0
 28 33  1  0  0  0
 29 30  1  0  0  0
 30 31  2  0  0  0
 31 32  1  0  0  0
 32 33  2  0  0  0
 20 21  2  0  0  0
 20 25  1  0  0  0
 21 22  1  0  0  0
 22 23  2  0  0  0
 23 24  1  0  0  0
 24 25  2  0  0  0
M  END
> <minimizedAffinity>
-7.38026

$$$$
1FKG_SB3_A_108


 33 35  0  0  0  0  0  0  0  0999 V2000
  -27.6803   28.6405    4.5061 C   0  0  0  0  0  0  0  0  0  0  0  0
  -26.9161   28.6950    5.4331 O   0  0  0  0  0  0  0  0  0  0  0  0
  -27.3813   29.3210    3.1552 C   0  0  0  0  0  0  0  0  0  0  0  0
  -25.8957   29.5495    2.8952 C   0  0  0  0  0  0  0  0  0  0  0  0
  -25.2110   30.5643    3.8018 C   0  0  0  0  0  0  0  0  0  0  0  0
  -25.8879   31.9066    3.6073 C   0  0  0  0  0  0  0  0  0  0  0  0
  -27.3802   31.6687    3.8476 C   0  0  0  0  0  0  0  0  0  0  0  0
  -27.9426   30.6445    2.9124 N   0  0  0  0  0  0  0  0  0  0  0  0
  -29.1455   30.7658    2.3080 C   0  0  0  0  0  0  0  0  0  0  0  0
  -29.6423   29.7624    1.7925 O   0  0  0  0  0  0  0  0  0  0  0  0
  -29.8999   32.1033    2.1408 C   0  0  0  0  0  0  0  0  0  0  0  0
  -30.6232   32.4883    3.0670 O   0  0  0  0  0  0  0  0  0  0  0  0
  -29.6806   33.0106    0.9208 C   0  0  0  0  0  0  0  0  0  0  0  0
  -30.3945   32.4789   -0.3744 C   0  0  0  0  0  0  0  0  0  0  0  0
  -28.1833   33.1872    0.5835 C   0  0  0  0  0  0  0  0  0  0  0  0
  -30.2514   34.3940    1.1750 C   0  0  0  0  0  0  0  0  0  0  0  0
  -29.1955   35.4445    1.5812 C   0  0  0  0  0  0  0  0  0  0  0  0
  -28.8632   28.0703    4.6117 O   0  0  0  0  0  0  0  0  0  0  0  0
  -29.1917   27.1774    5.6910 C   0  0  0  0  0  0  0  0  0  0  0  0
  -30.7165   27.2943    5.9198 C   0  0  0  0  0  0  0  0  0  0  0  0
  -31.4037   28.1745    5.1877 C   0  0  0  0  0  0  0  0  0  0  0  0
  -32.6977   28.3592    5.3784 C   0  0  0  0  0  0  0  0  0  0  0  0
  -33.3295   27.6574    6.3075 C   0  0  0  0  0  0  0  0  0  0  0  0
  -32.6665   26.7738    7.0438 C   0  0  0  0  0  0  0  0  0  0  0  0
  -31.3661   26.5867    6.8543 C   0  0  0  0  0  0  0  0  0  0  0  0
  -28.7361   25.7777    5.2667 C   0  0  0  0  0  0  0  0  0  0  0  0
  -28.7877   25.4301    3.7803 C   0  0  0  0  0  0  0  0  0  0  0  0
  -27.4412   25.4789    3.0832 C   0  0  0  0  0  0  0  0  0  0  0  0
  -27.3618   25.8546    1.8181 C   0  0  0  0  0  0  0  0  0  0  0  0
  -26.1954   26.1461    1.2800 C   0  0  0  0  0  0  0  0  0  0  0  0
  -25.0836   26.0580    1.9992 C   0  0  0  0  0  0  0  0  0  0  0  0
  -25.1492   25.6668    3.2575 C   0  0  0  0  0  0  0  0  0  0  0  0
  -26.3290   25.3725    3.7916 C   0  0  0  0  0  0  0  0  0  0  0  0
  1  3  1  0  0  0
  1  2  2  0  0  0
  1 18  1  0  0  0
  3  4  1  0  0  0
  3  8  1  0  0  0
  4  5  1  0  0  0
  5  6  1  0  0  0
  6  7  1  0  0  0
  7  8  1  0  0  0
  8  9  1  0  0  0
 18 19  1  0  0  0
  9 10  2  0  0  0
  9 11  1  0  0  0
 11 12  2  0  0  0
 11 13  1  0  0  0
 13 16  1  0  0  0
 13 14  1  0  0  0
 13 15  1  0  0  0
 16 17  1  0  0  0
 19 26  1  0  0  0
 19 20  1  0  0  0
 26 27  1  0  0  0
 27 28  1  0  0  0
 28 29  2  0  0  0
 28 33  1  0  0  0
 29 30  1  0  0  0
 30 31  2  0  0  0
 31 32  1  0  0  0
 32 33  2  0  0  0
 20 21  2  0  0  0
 20 25  1  0  0  0
 21 22  1  0  0  0
 22 23  2  0  0  0
 23 24  1  0  0  0
 24 25  2  0  0  0
M  END
> <minimizedAffinity>
-7.29149

$$$$
