5G5V_8Z4_A_1936


 37 41  0  0  0  0  0  0  0  0999 V2000
  135.2993   89.7120   66.8876 C   0  0  0  0  0  0  0  0  0  0  0  0
  135.1923   90.8437   66.0758 C   0  0  0  0  0  0  0  0  0  0  0  0
  134.5587   91.9822   66.5575 C   0  0  0  0  0  0  0  0  0  0  0  0
  134.0944   92.0029   67.8893 C   0  0  0  0  0  0  0  0  0  0  0  0
  134.2069   90.8752   68.6933 C   0  0  0  0  0  0  0  0  0  0  0  0
  134.8037   89.7354   68.1882 C   0  0  0  0  0  0  0  0  0  0  0  0
  137.1190   84.9737   64.8486 O   0  0  0  0  0  0  0  0  0  0  0  0
  136.6831   86.0514   65.2299 C   0  0  0  0  0  0  0  0  0  0  0  0
  136.1461   86.2076   66.5088 N   0  0  0  0  0  0  0  0  0  0  0  0
  136.6609   87.2680   64.3273 C   0  0  0  0  0  0  0  0  0  0  0  0
  137.6077   87.2113   63.1180 C   0  0  0  0  0  0  0  0  0  0  0  0
  139.0014   87.6273   63.4471 C   0  0  0  0  0  0  0  0  0  0  0  0
  139.3314   88.2306   64.5705 C   0  0  0  0  0  0  0  0  0  0  0  0
  138.3448   88.6259   65.6157 C   0  0  0  0  0  0  0  0  0  0  0  0
  136.8658   88.5463   65.1682 C   0  0  0  0  0  0  0  0  0  0  0  0
  135.9149   88.4748   66.3494 C   0  0  0  0  0  0  0  0  0  0  0  0
  135.6047   87.3843   66.9566 N   0  0  0  0  0  0  0  0  0  0  0  0
  136.0985   85.0920   67.4888 C   0  0  0  0  0  0  0  0  0  0  0  0
  134.9278   85.2616   68.4333 C   0  0  0  0  0  0  0  0  0  0  0  0
  137.4137   84.9891   68.2301 C   0  0  0  0  0  0  0  0  0  0  0  0
  134.5225   93.1668   65.8019 C   0  0  0  0  0  0  0  0  0  0  0  0
  133.3342   93.7657   65.3889 C   0  0  0  0  0  0  0  0  0  0  0  0
  133.3462   94.9909   64.7395 C   0  0  0  0  0  0  0  0  0  0  0  0
  134.5435   95.6639   64.5117 C   0  0  0  0  0  0  0  0  0  0  0  0
  135.7234   95.0929   64.9756 C   0  0  0  0  0  0  0  0  0  0  0  0
  135.7092   93.8638   65.6067 C   0  0  0  0  0  0  0  0  0  0  0  0
  134.5419   97.0291   63.8944 C   0  0  0  0  0  0  0  0  0  0  0  0
  133.7080   97.8535   64.2819 O   0  0  0  0  0  0  0  0  0  0  0  0
  135.5181   97.3968   63.0481 N   0  0  0  0  0  0  0  0  0  0  0  0
  135.5153   98.7220   62.4059 C   0  0  0  0  0  0  0  0  0  0  0  0
  136.2090   98.3992   61.0942 C   0  0  0  0  0  0  0  0  0  0  0  0
  135.3408   97.6493   60.2528 O   0  0  0  0  0  0  0  0  0  0  0  0
  137.3581   97.5393   61.5901 C   0  0  0  0  0  0  0  0  0  0  0  0
  136.7114   96.6399   62.6280 C   0  0  0  0  0  0  0  0  0  0  0  0
  135.0342   96.8599   60.7260 H   0  0  0  0  0  0  0  0  0  0  0  0
  133.5281   93.1861   68.2922 O   0  0  0  0  0  0  0  0  0  0  0  0
  133.1078   93.3442   69.6439 C   0  0  0  0  0  0  0  0  0  0  0  0
  7  8  2  0  0  0
  8  9  1  0  0  0
  8 10  1  0  0  0
  9 18  1  0  0  0
  9 17  1  0  0  0
 18 19  1  0  0  0
 18 20  1  0  0  0
 10 11  1  0  0  0
 10 15  1  0  0  0
 11 12  1  0  0  0
 12 13  2  0  0  0
 13 14  1  0  0  0
 14 15  1  0  0  0
 15 16  1  0  0  0
 16 17  2  0  0  0
 16  1  1  0  0  0
  1  2  1  0  0  0
  1  6  2  0  0  0
  2  3  2  0  0  0
  3  4  1  0  0  0
  3 21  1  0  0  0
  4 36  1  0  0  0
  4  5  2  0  0  0
 36 37  1  0  0  0
  5  6  1  0  0  0
 21 22  1  0  0  0
 21 26  2  0  0  0
 22 23  2  0  0  0
 23 24  1  0  0  0
 24 25  2  0  0  0
 24 27  1  0  0  0
 25 26  1  0  0  0
 27 28  2  0  0  0
 27 29  1  0  0  0
 29 30  1  0  0  0
 29 34  1  0  0  0
 30 31  1  0  0  0
 31 32  1  0  0  0
 31 33  1  0  0  0
 33 34  1  0  0  0
 32 35  1  0  0  0
M  END
> <minimizedAffinity>
-11.91620

$$$$
5G5V_8Z4_A_1936


 37 41  0  0  0  0  0  0  0  0999 V2000
  134.9049   90.3525   66.5695 C   0  0  0  0  0  0  0  0  0  0  0  0
  134.7291   91.4199   65.6859 C   0  0  0  0  0  0  0  0  0  0  0  0
  134.3452   92.6633   66.1720 C   0  0  0  0  0  0  0  0  0  0  0  0
  134.2077   92.8484   67.5636 C   0  0  0  0  0  0  0  0  0  0  0  0
  134.3874   91.7836   68.4381 C   0  0  0  0  0  0  0  0  0  0  0  0
  134.7301   90.5416   67.9375 C   0  0  0  0  0  0  0  0  0  0  0  0
  136.4436   85.6223   64.2939 O   0  0  0  0  0  0  0  0  0  0  0  0
  136.1764   86.6891   64.8300 C   0  0  0  0  0  0  0  0  0  0  0  0
  135.2720   87.5849   64.2572 N   0  0  0  0  0  0  0  0  0  0  0  0
  136.8390   87.1212   66.1222 C   0  0  0  0  0  0  0  0  0  0  0  0
  137.4843   85.9938   66.9434 C   0  0  0  0  0  0  0  0  0  0  0  0
  136.5118   85.2786   67.8190 C   0  0  0  0  0  0  0  0  0  0  0  0
  135.2982   85.7248   68.0698 C   0  0  0  0  0  0  0  0  0  0  0  0
  134.7756   87.0253   67.5618 C   0  0  0  0  0  0  0  0  0  0  0  0
  135.8514   87.9608   66.9605 C   0  0  0  0  0  0  0  0  0  0  0  0
  135.2481   89.0092   66.0432 C   0  0  0  0  0  0  0  0  0  0  0  0
  134.9822   88.8090   64.8008 N   0  0  0  0  0  0  0  0  0  0  0  0
  134.5607   87.2877   62.9872 C   0  0  0  0  0  0  0  0  0  0  0  0
  134.7601   88.4086   61.9896 C   0  0  0  0  0  0  0  0  0  0  0  0
  133.0954   87.0233   63.2565 C   0  0  0  0  0  0  0  0  0  0  0  0
  134.2564   93.7788   65.3215 C   0  0  0  0  0  0  0  0  0  0  0  0
  135.3552   94.3051   64.6455 C   0  0  0  0  0  0  0  0  0  0  0  0
  135.1983   95.3379   63.7336 C   0  0  0  0  0  0  0  0  0  0  0  0
  133.9358   95.8524   63.4512 C   0  0  0  0  0  0  0  0  0  0  0  0
  132.8335   95.2876   64.0831 C   0  0  0  0  0  0  0  0  0  0  0  0
  132.9956   94.2705   65.0041 C   0  0  0  0  0  0  0  0  0  0  0  0
  133.7621   96.9028   62.3971 C   0  0  0  0  0  0  0  0  0  0  0  0
  133.1557   96.6089   61.3621 O   0  0  0  0  0  0  0  0  0  0  0  0
  134.1249   98.1743   62.6340 N   0  0  0  0  0  0  0  0  0  0  0  0
  133.9927   99.2134   61.5989 C   0  0  0  0  0  0  0  0  0  0  0  0
  135.1474  100.1272   61.9701 C   0  0  0  0  0  0  0  0  0  0  0  0
  136.3856   99.5135   61.6317 O   0  0  0  0  0  0  0  0  0  0  0  0
  134.9732  100.1995   63.4768 C   0  0  0  0  0  0  0  0  0  0  0  0
  134.6638   98.7668   63.8716 C   0  0  0  0  0  0  0  0  0  0  0  0
  136.4397   98.6411   62.0524 H   0  0  0  0  0  0  0  0  0  0  0  0
  133.8752   94.1212   67.9537 O   0  0  0  0  0  0  0  0  0  0  0  0
  133.9375   94.4771   69.3314 C   0  0  0  0  0  0  0  0  0  0  0  0
  7  8  2  0  0  0
  8  9  1  0  0  0
  8 10  1  0  0  0
  9 18  1  0  0  0
  9 17  1  0  0  0
 18 19  1  0  0  0
 18 20  1  0  0  0
 10 11  1  0  0  0
 10 15  1  0  0  0
 11 12  1  0  0  0
 12 13  2  0  0  0
 13 14  1  0  0  0
 14 15  1  0  0  0
 15 16  1  0  0  0
 16 17  2  0  0  0
 16  1  1  0  0  0
  1  2  1  0  0  0
  1  6  2  0  0  0
  2  3  2  0  0  0
  3  4  1  0  0  0
  3 21  1  0  0  0
  4 36  1  0  0  0
  4  5  2  0  0  0
 36 37  1  0  0  0
  5  6  1  0  0  0
 21 22  1  0  0  0
 21 26  2  0  0  0
 22 23  2  0  0  0
 23 24  1  0  0  0
 24 25  2  0  0  0
 24 27  1  0  0  0
 25 26  1  0  0  0
 27 28  2  0  0  0
 27 29  1  0  0  0
 29 30  1  0  0  0
 29 34  1  0  0  0
 30 31  1  0  0  0
 31 32  1  0  0  0
 31 33  1  0  0  0
 33 34  1  0  0  0
 32 35  1  0  0  0
M  END
> <minimizedAffinity>
-11.71332

$$$$
5G5V_8Z4_A_1936


 37 41  0  0  0  0  0  0  0  0999 V2000
  134.8570   90.5332   66.2937 C   0  0  0  0  0  0  0  0  0  0  0  0
  134.7412   91.7280   65.5794 C   0  0  0  0  0  0  0  0  0  0  0  0
  134.2756   92.8714   66.2163 C   0  0  0  0  0  0  0  0  0  0  0  0
  133.9936   92.8262   67.5976 C   0  0  0  0  0  0  0  0  0  0  0  0
  134.1140   91.6355   68.3036 C   0  0  0  0  0  0  0  0  0  0  0  0
  134.5401   90.4954   67.6486 C   0  0  0  0  0  0  0  0  0  0  0  0
  136.4716   86.2382   63.3160 O   0  0  0  0  0  0  0  0  0  0  0  0
  136.1857   87.2304   63.9722 C   0  0  0  0  0  0  0  0  0  0  0  0
  134.9118   87.7982   63.9151 N   0  0  0  0  0  0  0  0  0  0  0  0
  137.2040   87.9264   64.8519 C   0  0  0  0  0  0  0  0  0  0  0  0
  138.4321   87.0853   65.2343 C   0  0  0  0  0  0  0  0  0  0  0  0
  138.1922   86.2030   66.4124 C   0  0  0  0  0  0  0  0  0  0  0  0
  137.1462   86.3199   67.2042 C   0  0  0  0  0  0  0  0  0  0  0  0
  136.1137   87.3849   67.0559 C   0  0  0  0  0  0  0  0  0  0  0  0
  136.5021   88.5281   66.0883 C   0  0  0  0  0  0  0  0  0  0  0  0
  135.2890   89.2973   65.5971 C   0  0  0  0  0  0  0  0  0  0  0  0
  134.5660   88.9357   64.5967 N   0  0  0  0  0  0  0  0  0  0  0  0
  133.8243   87.2199   63.0842 C   0  0  0  0  0  0  0  0  0  0  0  0
  133.9234   87.7145   61.6570 C   0  0  0  0  0  0  0  0  0  0  0  0
  132.4758   87.5278   63.6977 C   0  0  0  0  0  0  0  0  0  0  0  0
  134.2418   94.1092   65.5513 C   0  0  0  0  0  0  0  0  0  0  0  0
  133.0990   94.6009   64.9238 C   0  0  0  0  0  0  0  0  0  0  0  0
  133.0837   95.8744   64.3755 C   0  0  0  0  0  0  0  0  0  0  0  0
  134.2001   96.7015   64.4655 C   0  0  0  0  0  0  0  0  0  0  0  0
  135.3200   96.2318   65.1425 C   0  0  0  0  0  0  0  0  0  0  0  0
  135.3377   94.9557   65.6722 C   0  0  0  0  0  0  0  0  0  0  0  0
  134.1458   98.1090   63.9546 C   0  0  0  0  0  0  0  0  0  0  0  0
  133.6018   98.9715   64.6513 O   0  0  0  0  0  0  0  0  0  0  0  0
  134.8039   98.4550   62.8360 N   0  0  0  0  0  0  0  0  0  0  0  0
  134.7351   99.8250   62.3003 C   0  0  0  0  0  0  0  0  0  0  0  0
  134.8874   99.5528   60.8141 C   0  0  0  0  0  0  0  0  0  0  0  0
  133.6990   98.9630   60.3002 O   0  0  0  0  0  0  0  0  0  0  0  0
  136.0269   98.5492   60.8292 C   0  0  0  0  0  0  0  0  0  0  0  0
  135.6790   97.6285   61.9848 C   0  0  0  0  0  0  0  0  0  0  0  0
  133.4846   98.1681   60.8131 H   0  0  0  0  0  0  0  0  0  0  0  0
  133.5879   94.0149   68.1502 O   0  0  0  0  0  0  0  0  0  0  0  0
  133.8454   94.2790   69.5260 C   0  0  0  0  0  0  0  0  0  0  0  0
  7  8  2  0  0  0
  8  9  1  0  0  0
  8 10  1  0  0  0
  9 18  1  0  0  0
  9 17  1  0  0  0
 18 19  1  0  0  0
 18 20  1  0  0  0
 10 11  1  0  0  0
 10 15  1  0  0  0
 11 12  1  0  0  0
 12 13  2  0  0  0
 13 14  1  0  0  0
 14 15  1  0  0  0
 15 16  1  0  0  0
 16 17  2  0  0  0
 16  1  1  0  0  0
  1  2  1  0  0  0
  1  6  2  0  0  0
  2  3  2  0  0  0
  3  4  1  0  0  0
  3 21  1  0  0  0
  4 36  1  0  0  0
  4  5  2  0  0  0
 36 37  1  0  0  0
  5  6  1  0  0  0
 21 22  1  0  0  0
 21 26  2  0  0  0
 22 23  2  0  0  0
 23 24  1  0  0  0
 24 25  2  0  0  0
 24 27  1  0  0  0
 25 26  1  0  0  0
 27 28  2  0  0  0
 27 29  1  0  0  0
 29 30  1  0  0  0
 29 34  1  0  0  0
 30 31  1  0  0  0
 31 32  1  0  0  0
 31 33  1  0  0  0
 33 34  1  0  0  0
 32 35  1  0  0  0
M  END
> <minimizedAffinity>
-11.41465

$$$$
5G5V_8Z4_A_1936


 37 41  0  0  0  0  0  0  0  0999 V2000
  134.0257   89.7028   64.5090 C   0  0  0  0  0  0  0  0  0  0  0  0
  133.9616   91.0501   64.1458 C   0  0  0  0  0  0  0  0  0  0  0  0
  134.1736   92.0345   65.1028 C   0  0  0  0  0  0  0  0  0  0  0  0
  134.5223   91.6570   66.4164 C   0  0  0  0  0  0  0  0  0  0  0  0
  134.5880   90.3151   66.7709 C   0  0  0  0  0  0  0  0  0  0  0  0
  134.3354   89.3458   65.8184 C   0  0  0  0  0  0  0  0  0  0  0  0
  133.1997   85.5265   61.0744 O   0  0  0  0  0  0  0  0  0  0  0  0
  133.3352   86.4225   61.8963 C   0  0  0  0  0  0  0  0  0  0  0  0
  134.5489   87.0958   62.0451 N   0  0  0  0  0  0  0  0  0  0  0  0
  132.2117   86.8274   62.8286 C   0  0  0  0  0  0  0  0  0  0  0  0
  130.8022   86.3997   62.3900 C   0  0  0  0  0  0  0  0  0  0  0  0
  130.1798   87.3459   61.4199 C   0  0  0  0  0  0  0  0  0  0  0  0
  130.6599   88.5465   61.1690 C   0  0  0  0  0  0  0  0  0  0  0  0
  131.8418   89.1256   61.8690 C   0  0  0  0  0  0  0  0  0  0  0  0
  132.2963   88.3406   63.1225 C   0  0  0  0  0  0  0  0  0  0  0  0
  133.7323   88.6537   63.5028 C   0  0  0  0  0  0  0  0  0  0  0  0
  134.7555   88.0712   62.9852 N   0  0  0  0  0  0  0  0  0  0  0  0
  135.7325   86.7893   61.2009 C   0  0  0  0  0  0  0  0  0  0  0  0
  136.6084   85.7504   61.8680 C   0  0  0  0  0  0  0  0  0  0  0  0
  136.4962   88.0577   60.8886 C   0  0  0  0  0  0  0  0  0  0  0  0
  134.2132   93.3940   64.7483 C   0  0  0  0  0  0  0  0  0  0  0  0
  133.0710   94.1867   64.6577 C   0  0  0  0  0  0  0  0  0  0  0  0
  133.1703   95.5477   64.4113 C   0  0  0  0  0  0  0  0  0  0  0  0
  134.4146   96.1579   64.2781 C   0  0  0  0  0  0  0  0  0  0  0  0
  135.5552   95.3765   64.4264 C   0  0  0  0  0  0  0  0  0  0  0  0
  135.4520   94.0177   64.6544 C   0  0  0  0  0  0  0  0  0  0  0  0
  134.5179   97.6426   64.1059 C   0  0  0  0  0  0  0  0  0  0  0  0
  134.3235   98.3677   65.0866 O   0  0  0  0  0  0  0  0  0  0  0  0
  134.9582   98.1668   62.9502 N   0  0  0  0  0  0  0  0  0  0  0  0
  135.0349   99.6238   62.7507 C   0  0  0  0  0  0  0  0  0  0  0  0
  134.7896   99.7152   61.2549 C   0  0  0  0  0  0  0  0  0  0  0  0
  133.4246   99.4377   60.9649 O   0  0  0  0  0  0  0  0  0  0  0  0
  135.6871   98.5967   60.7557 C   0  0  0  0  0  0  0  0  0  0  0  0
  135.4404   97.4707   61.7435 C   0  0  0  0  0  0  0  0  0  0  0  0
  133.1834   98.5757   61.3385 H   0  0  0  0  0  0  0  0  0  0  0  0
  134.7617   92.6970   67.2790 O   0  0  0  0  0  0  0  0  0  0  0  0
  133.9014   92.9013   68.3956 C   0  0  0  0  0  0  0  0  0  0  0  0
  7  8  2  0  0  0
  8  9  1  0  0  0
  8 10  1  0  0  0
  9 18  1  0  0  0
  9 17  1  0  0  0
 18 19  1  0  0  0
 18 20  1  0  0  0
 10 11  1  0  0  0
 10 15  1  0  0  0
 11 12  1  0  0  0
 12 13  2  0  0  0
 13 14  1  0  0  0
 14 15  1  0  0  0
 15 16  1  0  0  0
 16 17  2  0  0  0
 16  1  1  0  0  0
  1  2  1  0  0  0
  1  6  2  0  0  0
  2  3  2  0  0  0
  3  4  1  0  0  0
  3 21  1  0  0  0
  4 36  1  0  0  0
  4  5  2  0  0  0
 36 37  1  0  0  0
  5  6  1  0  0  0
 21 22  1  0  0  0
 21 26  2  0  0  0
 22 23  2  0  0  0
 23 24  1  0  0  0
 24 25  2  0  0  0
 24 27  1  0  0  0
 25 26  1  0  0  0
 27 28  2  0  0  0
 27 29  1  0  0  0
 29 30  1  0  0  0
 29 34  1  0  0  0
 30 31  1  0  0  0
 31 32  1  0  0  0
 31 33  1  0  0  0
 33 34  1  0  0  0
 32 35  1  0  0  0
M  END
> <minimizedAffinity>
-11.21136

$$$$
5G5V_8Z4_A_1936


 37 41  0  0  0  0  0  0  0  0999 V2000
  135.6371   90.1870   67.7172 C   0  0  0  0  0  0  0  0  0  0  0  0
  135.8181   89.5117   66.5079 C   0  0  0  0  0  0  0  0  0  0  0  0
  136.5876   88.3558   66.4705 C   0  0  0  0  0  0  0  0  0  0  0  0
  137.1176   87.8398   67.6716 C   0  0  0  0  0  0  0  0  0  0  0  0
  136.9312   88.5142   68.8721 C   0  0  0  0  0  0  0  0  0  0  0  0
  136.1969   89.6851   68.8887 C   0  0  0  0  0  0  0  0  0  0  0  0
  132.4874   94.6554   67.5338 O   0  0  0  0  0  0  0  0  0  0  0  0
  133.1338   93.6204   67.6207 C   0  0  0  0  0  0  0  0  0  0  0  0
  133.9108   93.1564   66.5579 N   0  0  0  0  0  0  0  0  0  0  0  0
  133.0987   92.7594   68.8668 C   0  0  0  0  0  0  0  0  0  0  0  0
  132.6058   93.4618   70.1419 C   0  0  0  0  0  0  0  0  0  0  0  0
  133.6799   94.2239   70.8415 C   0  0  0  0  0  0  0  0  0  0  0  0
  134.9601   94.0967   70.5593 C   0  0  0  0  0  0  0  0  0  0  0  0
  135.4919   93.1325   69.5544 C   0  0  0  0  0  0  0  0  0  0  0  0
  134.4688   92.0777   69.0698 C   0  0  0  0  0  0  0  0  0  0  0  0
  134.8726   91.4575   67.7443 C   0  0  0  0  0  0  0  0  0  0  0  0
  134.6106   91.9789   66.5981 N   0  0  0  0  0  0  0  0  0  0  0  0
  134.0241   93.9002   65.2768 C   0  0  0  0  0  0  0  0  0  0  0  0
  133.0714   93.3341   64.2456 C   0  0  0  0  0  0  0  0  0  0  0  0
  135.4567   93.8902   64.7898 C   0  0  0  0  0  0  0  0  0  0  0  0
  136.7064   87.6014   65.2906 C   0  0  0  0  0  0  0  0  0  0  0  0
  135.6890   86.7782   64.8123 C   0  0  0  0  0  0  0  0  0  0  0  0
  135.8110   86.1389   63.5879 C   0  0  0  0  0  0  0  0  0  0  0  0
  136.9400   86.3283   62.7955 C   0  0  0  0  0  0  0  0  0  0  0  0
  137.9288   87.1953   63.2471 C   0  0  0  0  0  0  0  0  0  0  0  0
  137.8117   87.8168   64.4756 C   0  0  0  0  0  0  0  0  0  0  0  0
  137.0244   85.7101   61.4333 C   0  0  0  0  0  0  0  0  0  0  0  0
  136.7860   86.4144   60.4473 O   0  0  0  0  0  0  0  0  0  0  0  0
  137.4935   84.4610   61.2785 N   0  0  0  0  0  0  0  0  0  0  0  0
  137.5526   83.8247   59.9518 C   0  0  0  0  0  0  0  0  0  0  0  0
  137.3549   82.3675   60.3308 C   0  0  0  0  0  0  0  0  0  0  0  0
  136.0049   82.1415   60.7191 O   0  0  0  0  0  0  0  0  0  0  0  0
  138.2867   82.2605   61.5250 C   0  0  0  0  0  0  0  0  0  0  0  0
  138.0264   83.5402   62.2990 C   0  0  0  0  0  0  0  0  0  0  0  0
  135.7659   82.7560   61.4305 H   0  0  0  0  0  0  0  0  0  0  0  0
  137.8209   86.6685   67.5441 O   0  0  0  0  0  0  0  0  0  0  0  0
  137.5633   85.5888   68.4367 C   0  0  0  0  0  0  0  0  0  0  0  0
  7  8  2  0  0  0
  8  9  1  0  0  0
  8 10  1  0  0  0
  9 18  1  0  0  0
  9 17  1  0  0  0
 18 19  1  0  0  0
 18 20  1  0  0  0
 10 11  1  0  0  0
 10 15  1  0  0  0
 11 12  1  0  0  0
 12 13  2  0  0  0
 13 14  1  0  0  0
 14 15  1  0  0  0
 15 16  1  0  0  0
 16 17  2  0  0  0
 16  1  1  0  0  0
  1  2  1  0  0  0
  1  6  2  0  0  0
  2  3  2  0  0  0
  3  4  1  0  0  0
  3 21  1  0  0  0
  4 36  1  0  0  0
  4  5  2  0  0  0
 36 37  1  0  0  0
  5  6  1  0  0  0
 21 22  1  0  0  0
 21 26  2  0  0  0
 22 23  2  0  0  0
 23 24  1  0  0  0
 24 25  2  0  0  0
 24 27  1  0  0  0
 25 26  1  0  0  0
 27 28  2  0  0  0
 27 29  1  0  0  0
 29 30  1  0  0  0
 29 34  1  0  0  0
 30 31  1  0  0  0
 31 32  1  0  0  0
 31 33  1  0  0  0
 33 34  1  0  0  0
 32 35  1  0  0  0
M  END
> <minimizedAffinity>
-10.73702

$$$$
5G5V_8Z4_A_1936


 37 41  0  0  0  0  0  0  0  0999 V2000
  134.2474   89.7787   64.3417 C   0  0  0  0  0  0  0  0  0  0  0  0
  134.1483   91.1588   64.1503 C   0  0  0  0  0  0  0  0  0  0  0  0
  134.2513   92.0163   65.2383 C   0  0  0  0  0  0  0  0  0  0  0  0
  134.5268   91.4827   66.5146 C   0  0  0  0  0  0  0  0  0  0  0  0
  134.6278   90.1091   66.6982 C   0  0  0  0  0  0  0  0  0  0  0  0
  134.4834   89.2645   65.6136 C   0  0  0  0  0  0  0  0  0  0  0  0
  133.4291   86.7755   59.8437 O   0  0  0  0  0  0  0  0  0  0  0  0
  133.6742   87.4840   60.8105 C   0  0  0  0  0  0  0  0  0  0  0  0
  132.6561   87.9744   61.6300 N   0  0  0  0  0  0  0  0  0  0  0  0
  135.0885   87.9058   61.1531 C   0  0  0  0  0  0  0  0  0  0  0  0
  136.2027   87.0490   60.5315 C   0  0  0  0  0  0  0  0  0  0  0  0
  136.5039   85.8201   61.3208 C   0  0  0  0  0  0  0  0  0  0  0  0
  136.0638   85.6197   62.5459 C   0  0  0  0  0  0  0  0  0  0  0  0
  135.2681   86.6214   63.3112 C   0  0  0  0  0  0  0  0  0  0  0  0
  135.2387   88.0355   62.6840 C   0  0  0  0  0  0  0  0  0  0  0  0
  134.0695   88.8607   63.1907 C   0  0  0  0  0  0  0  0  0  0  0  0
  132.8847   88.8088   62.6928 N   0  0  0  0  0  0  0  0  0  0  0  0
  131.2261   87.6444   61.3986 C   0  0  0  0  0  0  0  0  0  0  0  0
  130.4219   88.9027   61.1509 C   0  0  0  0  0  0  0  0  0  0  0  0
  130.6790   86.8421   62.5590 C   0  0  0  0  0  0  0  0  0  0  0  0
  134.2545   93.4111   65.0648 C   0  0  0  0  0  0  0  0  0  0  0  0
  135.4247   94.1659   65.0185 C   0  0  0  0  0  0  0  0  0  0  0  0
  135.3823   95.5229   64.7366 C   0  0  0  0  0  0  0  0  0  0  0  0
  134.1724   96.1559   64.4646 C   0  0  0  0  0  0  0  0  0  0  0  0
  133.0117   95.3904   64.4540 C   0  0  0  0  0  0  0  0  0  0  0  0
  133.0558   94.0420   64.7526 C   0  0  0  0  0  0  0  0  0  0  0  0
  134.1432   97.6006   64.0688 C   0  0  0  0  0  0  0  0  0  0  0  0
  133.8126   98.4395   64.9127 O   0  0  0  0  0  0  0  0  0  0  0  0
  134.6091   97.9897   62.8705 N   0  0  0  0  0  0  0  0  0  0  0  0
  134.5580   99.4002   62.4507 C   0  0  0  0  0  0  0  0  0  0  0  0
  134.4085   99.2402   60.9480 C   0  0  0  0  0  0  0  0  0  0  0  0
  133.0999   98.7791   60.6327 O   0  0  0  0  0  0  0  0  0  0  0  0
  135.4422   98.1612   60.6777 C   0  0  0  0  0  0  0  0  0  0  0  0
  135.2383   97.1760   61.8144 C   0  0  0  0  0  0  0  0  0  0  0  0
  132.9181   97.9620   61.1228 H   0  0  0  0  0  0  0  0  0  0  0  0
  134.6610   92.4086   67.5185 O   0  0  0  0  0  0  0  0  0  0  0  0
  133.6720   92.4915   68.5402 C   0  0  0  0  0  0  0  0  0  0  0  0
  7  8  2  0  0  0
  8  9  1  0  0  0
  8 10  1  0  0  0
  9 18  1  0  0  0
  9 17  1  0  0  0
 18 19  1  0  0  0
 18 20  1  0  0  0
 10 11  1  0  0  0
 10 15  1  0  0  0
 11 12  1  0  0  0
 12 13  2  0  0  0
 13 14  1  0  0  0
 14 15  1  0  0  0
 15 16  1  0  0  0
 16 17  2  0  0  0
 16  1  1  0  0  0
  1  2  1  0  0  0
  1  6  2  0  0  0
  2  3  2  0  0  0
  3  4  1  0  0  0
  3 21  1  0  0  0
  4 36  1  0  0  0
  4  5  2  0  0  0
 36 37  1  0  0  0
  5  6  1  0  0  0
 21 22  1  0  0  0
 21 26  2  0  0  0
 22 23  2  0  0  0
 23 24  1  0  0  0
 24 25  2  0  0  0
 24 27  1  0  0  0
 25 26  1  0  0  0
 27 28  2  0  0  0
 27 29  1  0  0  0
 29 30  1  0  0  0
 29 34  1  0  0  0
 30 31  1  0  0  0
 31 32  1  0  0  0
 31 33  1  0  0  0
 33 34  1  0  0  0
 32 35  1  0  0  0
M  END
> <minimizedAffinity>
-10.61912

$$$$
5G5V_8Z4_A_1936


 37 41  0  0  0  0  0  0  0  0999 V2000
  133.8054   93.1357   66.3989 C   0  0  0  0  0  0  0  0  0  0  0  0
  134.4346   91.8944   66.2800 C   0  0  0  0  0  0  0  0  0  0  0  0
  134.6774   91.1312   67.4151 C   0  0  0  0  0  0  0  0  0  0  0  0
  134.2190   91.5909   68.6673 C   0  0  0  0  0  0  0  0  0  0  0  0
  133.5905   92.8251   68.7789 C   0  0  0  0  0  0  0  0  0  0  0  0
  133.3909   93.5926   67.6468 C   0  0  0  0  0  0  0  0  0  0  0  0
  132.6315   96.3480   62.1299 O   0  0  0  0  0  0  0  0  0  0  0  0
  132.8955   95.6970   63.1315 C   0  0  0  0  0  0  0  0  0  0  0  0
  132.3622   94.4228   63.3326 N   0  0  0  0  0  0  0  0  0  0  0  0
  133.7806   96.2474   64.2311 C   0  0  0  0  0  0  0  0  0  0  0  0
  134.6787   97.4277   63.8283 C   0  0  0  0  0  0  0  0  0  0  0  0
  135.9515   96.9988   63.1803 C   0  0  0  0  0  0  0  0  0  0  0  0
  136.3870   95.7557   63.1908 C   0  0  0  0  0  0  0  0  0  0  0  0
  135.6945   94.6446   63.9036 C   0  0  0  0  0  0  0  0  0  0  0  0
  134.5834   95.0993   64.8796 C   0  0  0  0  0  0  0  0  0  0  0  0
  133.6079   93.9799   65.1957 C   0  0  0  0  0  0  0  0  0  0  0  0
  132.5947   93.6816   64.4616 N   0  0  0  0  0  0  0  0  0  0  0  0
  131.4725   93.7712   62.3370 C   0  0  0  0  0  0  0  0  0  0  0  0
  130.2753   94.6479   62.0375 C   0  0  0  0  0  0  0  0  0  0  0  0
  131.0616   92.3977   62.8208 C   0  0  0  0  0  0  0  0  0  0  0  0
  135.2182   89.8376   67.3173 C   0  0  0  0  0  0  0  0  0  0  0  0
  136.4186   89.4708   67.9223 C   0  0  0  0  0  0  0  0  0  0  0  0
  136.8563   88.1555   67.8890 C   0  0  0  0  0  0  0  0  0  0  0  0
  136.0920   87.1664   67.2757 C   0  0  0  0  0  0  0  0  0  0  0  0
  134.8670   87.5228   66.7230 C   0  0  0  0  0  0  0  0  0  0  0  0
  134.4423   88.8375   66.7427 C   0  0  0  0  0  0  0  0  0  0  0  0
  136.5244   85.7327   67.3248 C   0  0  0  0  0  0  0  0  0  0  0  0
  135.7797   84.9074   67.8629 O   0  0  0  0  0  0  0  0  0  0  0  0
  137.6243   85.3285   66.6682 N   0  0  0  0  0  0  0  0  0  0  0  0
  138.0834   83.9308   66.7320 C   0  0  0  0  0  0  0  0  0  0  0  0
  139.5828   84.1213   66.5850 C   0  0  0  0  0  0  0  0  0  0  0  0
  140.1249   84.6766   67.7776 O   0  0  0  0  0  0  0  0  0  0  0  0
  139.6265   85.1293   65.4502 C   0  0  0  0  0  0  0  0  0  0  0  0
  138.5223   86.1108   65.7993 C   0  0  0  0  0  0  0  0  0  0  0  0
  139.6559   85.4976   67.9943 H   0  0  0  0  0  0  0  0  0  0  0  0
  134.4594   90.7477   69.7229 O   0  0  0  0  0  0  0  0  0  0  0  0
  133.4432   90.5262   70.6961 C   0  0  0  0  0  0  0  0  0  0  0  0
  7  8  2  0  0  0
  8  9  1  0  0  0
  8 10  1  0  0  0
  9 18  1  0  0  0
  9 17  1  0  0  0
 18 19  1  0  0  0
 18 20  1  0  0  0
 10 11  1  0  0  0
 10 15  1  0  0  0
 11 12  1  0  0  0
 12 13  2  0  0  0
 13 14  1  0  0  0
 14 15  1  0  0  0
 15 16  1  0  0  0
 16 17  2  0  0  0
 16  1  1  0  0  0
  1  2  1  0  0  0
  1  6  2  0  0  0
  2  3  2  0  0  0
  3  4  1  0  0  0
  3 21  1  0  0  0
  4 36  1  0  0  0
  4  5  2  0  0  0
 36 37  1  0  0  0
  5  6  1  0  0  0
 21 22  1  0  0  0
 21 26  2  0  0  0
 22 23  2  0  0  0
 23 24  1  0  0  0
 24 25  2  0  0  0
 24 27  1  0  0  0
 25 26  1  0  0  0
 27 28  2  0  0  0
 27 29  1  0  0  0
 29 30  1  0  0  0
 29 34  1  0  0  0
 30 31  1  0  0  0
 31 32  1  0  0  0
 31 33  1  0  0  0
 33 34  1  0  0  0
 32 35  1  0  0  0
M  END
> <minimizedAffinity>
-10.57848

$$$$
5G5V_8Z4_A_1936


 37 41  0  0  0  0  0  0  0  0999 V2000
  135.9185   87.7385   65.7491 C   0  0  0  0  0  0  0  0  0  0  0  0
  135.5008   89.0225   65.3914 C   0  0  0  0  0  0  0  0  0  0  0  0
  134.8866   89.8370   66.3342 C   0  0  0  0  0  0  0  0  0  0  0  0
  134.7578   89.3802   67.6625 C   0  0  0  0  0  0  0  0  0  0  0  0
  135.1784   88.1031   68.0132 C   0  0  0  0  0  0  0  0  0  0  0  0
  135.7517   87.2878   67.0555 C   0  0  0  0  0  0  0  0  0  0  0  0
  138.0318   84.0742   62.2811 O   0  0  0  0  0  0  0  0  0  0  0  0
  137.4856   84.8599   63.0433 C   0  0  0  0  0  0  0  0  0  0  0  0
  138.1185   85.3063   64.2046 N   0  0  0  0  0  0  0  0  0  0  0  0
  136.0778   85.3629   62.7972 C   0  0  0  0  0  0  0  0  0  0  0  0
  135.5657   85.2156   61.3557 C   0  0  0  0  0  0  0  0  0  0  0  0
  135.9942   86.3333   60.4662 C   0  0  0  0  0  0  0  0  0  0  0  0
  136.5207   87.4546   60.9140 C   0  0  0  0  0  0  0  0  0  0  0  0
  136.6917   87.7656   62.3618 C   0  0  0  0  0  0  0  0  0  0  0  0
  135.9411   86.8094   63.3190 C   0  0  0  0  0  0  0  0  0  0  0  0
  136.5121   86.8449   64.7252 C   0  0  0  0  0  0  0  0  0  0  0  0
  137.5231   86.1478   65.1075 N   0  0  0  0  0  0  0  0  0  0  0  0
  139.4952   84.8822   64.5684 C   0  0  0  0  0  0  0  0  0  0  0  0
  139.4575   83.7990   65.6252 C   0  0  0  0  0  0  0  0  0  0  0  0
  140.3119   86.0766   65.0108 C   0  0  0  0  0  0  0  0  0  0  0  0
  134.5453   91.1666   66.0320 C   0  0  0  0  0  0  0  0  0  0  0  0
  134.8482   92.2360   66.8723 C   0  0  0  0  0  0  0  0  0  0  0  0
  134.5887   93.5407   66.4808 C   0  0  0  0  0  0  0  0  0  0  0  0
  134.0467   93.8133   65.2277 C   0  0  0  0  0  0  0  0  0  0  0  0
  133.7987   92.7497   64.3672 C   0  0  0  0  0  0  0  0  0  0  0  0
  134.0422   91.4498   64.7675 C   0  0  0  0  0  0  0  0  0  0  0  0
  133.8562   95.2285   64.7741 C   0  0  0  0  0  0  0  0  0  0  0  0
  132.8417   95.8343   65.1334 O   0  0  0  0  0  0  0  0  0  0  0  0
  134.8352   95.8726   64.1176 N   0  0  0  0  0  0  0  0  0  0  0  0
  134.6541   97.2519   63.6348 C   0  0  0  0  0  0  0  0  0  0  0  0
  135.5426   97.2369   62.4034 C   0  0  0  0  0  0  0  0  0  0  0  0
  134.9354   96.4688   61.3710 O   0  0  0  0  0  0  0  0  0  0  0  0
  136.7696   96.5309   62.9528 C   0  0  0  0  0  0  0  0  0  0  0  0
  136.1910   95.3997   63.7834 C   0  0  0  0  0  0  0  0  0  0  0  0
  134.7324   95.5811   61.7052 H   0  0  0  0  0  0  0  0  0  0  0  0
  134.1847   90.2718   68.5340 O   0  0  0  0  0  0  0  0  0  0  0  0
  134.4488   90.1650   69.9296 C   0  0  0  0  0  0  0  0  0  0  0  0
  7  8  2  0  0  0
  8  9  1  0  0  0
  8 10  1  0  0  0
  9 18  1  0  0  0
  9 17  1  0  0  0
 18 19  1  0  0  0
 18 20  1  0  0  0
 10 11  1  0  0  0
 10 15  1  0  0  0
 11 12  1  0  0  0
 12 13  2  0  0  0
 13 14  1  0  0  0
 14 15  1  0  0  0
 15 16  1  0  0  0
 16 17  2  0  0  0
 16  1  1  0  0  0
  1  2  1  0  0  0
  1  6  2  0  0  0
  2  3  2  0  0  0
  3  4  1  0  0  0
  3 21  1  0  0  0
  4 36  1  0  0  0
  4  5  2  0  0  0
 36 37  1  0  0  0
  5  6  1  0  0  0
 21 22  1  0  0  0
 21 26  2  0  0  0
 22 23  2  0  0  0
 23 24  1  0  0  0
 24 25  2  0  0  0
 24 27  1  0  0  0
 25 26  1  0  0  0
 27 28  2  0  0  0
 27 29  1  0  0  0
 29 30  1  0  0  0
 29 34  1  0  0  0
 30 31  1  0  0  0
 31 32  1  0  0  0
 31 33  1  0  0  0
 33 34  1  0  0  0
 32 35  1  0  0  0
M  END
> <minimizedAffinity>
-10.54118

$$$$
5G5V_8Z4_A_1936


 37 41  0  0  0  0  0  0  0  0999 V2000
  135.7686   86.2181   63.4761 C   0  0  0  0  0  0  0  0  0  0  0  0
  135.7950   87.1347   64.5298 C   0  0  0  0  0  0  0  0  0  0  0  0
  134.8512   88.1526   64.5839 C   0  0  0  0  0  0  0  0  0  0  0  0
  133.8330   88.2029   63.6090 C   0  0  0  0  0  0  0  0  0  0  0  0
  133.8100   87.2861   62.5650 C   0  0  0  0  0  0  0  0  0  0  0  0
  134.7788   86.3024   62.5009 C   0  0  0  0  0  0  0  0  0  0  0  0
  139.8121   82.6073   62.7461 O   0  0  0  0  0  0  0  0  0  0  0  0
  138.9644   83.4692   62.9335 C   0  0  0  0  0  0  0  0  0  0  0  0
  137.8453   83.5811   62.1068 N   0  0  0  0  0  0  0  0  0  0  0  0
  139.0967   84.4909   64.0445 C   0  0  0  0  0  0  0  0  0  0  0  0
  140.0686   84.1165   65.1746 C   0  0  0  0  0  0  0  0  0  0  0  0
  139.4494   83.2426   66.2122 C   0  0  0  0  0  0  0  0  0  0  0  0
  138.1524   83.0317   66.3020 C   0  0  0  0  0  0  0  0  0  0  0  0
  137.1463   83.6894   65.4203 C   0  0  0  0  0  0  0  0  0  0  0  0
  137.6978   84.8653   64.5794 C   0  0  0  0  0  0  0  0  0  0  0  0
  136.8170   85.1734   63.3819 C   0  0  0  0  0  0  0  0  0  0  0  0
  136.8987   84.5611   62.2538 N   0  0  0  0  0  0  0  0  0  0  0  0
  137.6008   82.6492   60.9758 C   0  0  0  0  0  0  0  0  0  0  0  0
  138.3021   83.1336   59.7248 C   0  0  0  0  0  0  0  0  0  0  0  0
  136.1144   82.4683   60.7576 C   0  0  0  0  0  0  0  0  0  0  0  0
  134.7913   89.0286   65.6814 C   0  0  0  0  0  0  0  0  0  0  0  0
  134.3692   88.6286   66.9476 C   0  0  0  0  0  0  0  0  0  0  0  0
  134.4308   89.5009   68.0237 C   0  0  0  0  0  0  0  0  0  0  0  0
  134.9432   90.7862   67.8696 C   0  0  0  0  0  0  0  0  0  0  0  0
  135.4179   91.1649   66.6188 C   0  0  0  0  0  0  0  0  0  0  0  0
  135.3386   90.2991   65.5449 C   0  0  0  0  0  0  0  0  0  0  0  0
  135.0943   91.6908   69.0544 C   0  0  0  0  0  0  0  0  0  0  0  0
  136.0980   91.5743   69.7645 O   0  0  0  0  0  0  0  0  0  0  0  0
  134.2347   92.7035   69.2541 N   0  0  0  0  0  0  0  0  0  0  0  0
  134.3473   93.5822   70.4304 C   0  0  0  0  0  0  0  0  0  0  0  0
  132.8898   93.9505   70.6456 C   0  0  0  0  0  0  0  0  0  0  0  0
  132.1745   92.8351   71.1638 O   0  0  0  0  0  0  0  0  0  0  0  0
  132.4642   94.2513   69.2194 C   0  0  0  0  0  0  0  0  0  0  0  0
  133.1065   93.1386   68.4108 C   0  0  0  0  0  0  0  0  0  0  0  0
  132.2920   92.0736   70.5746 H   0  0  0  0  0  0  0  0  0  0  0  0
  132.9174   89.2119   63.7720 O   0  0  0  0  0  0  0  0  0  0  0  0
  132.7600   90.1947   62.7531 C   0  0  0  0  0  0  0  0  0  0  0  0
  7  8  2  0  0  0
  8  9  1  0  0  0
  8 10  1  0  0  0
  9 18  1  0  0  0
  9 17  1  0  0  0
 18 19  1  0  0  0
 18 20  1  0  0  0
 10 11  1  0  0  0
 10 15  1  0  0  0
 11 12  1  0  0  0
 12 13  2  0  0  0
 13 14  1  0  0  0
 14 15  1  0  0  0
 15 16  1  0  0  0
 16 17  2  0  0  0
 16  1  1  0  0  0
  1  2  1  0  0  0
  1  6  2  0  0  0
  2  3  2  0  0  0
  3  4  1  0  0  0
  3 21  1  0  0  0
  4 36  1  0  0  0
  4  5  2  0  0  0
 36 37  1  0  0  0
  5  6  1  0  0  0
 21 22  1  0  0  0
 21 26  2  0  0  0
 22 23  2  0  0  0
 23 24  1  0  0  0
 24 25  2  0  0  0
 24 27  1  0  0  0
 25 26  1  0  0  0
 27 28  2  0  0  0
 27 29  1  0  0  0
 29 30  1  0  0  0
 29 34  1  0  0  0
 30 31  1  0  0  0
 31 32  1  0  0  0
 31 33  1  0  0  0
 33 34  1  0  0  0
 32 35  1  0  0  0
M  END
> <minimizedAffinity>
-10.47216

$$$$
5G5V_8Z4_A_1936


 37 41  0  0  0  0  0  0  0  0999 V2000
  135.5130   86.0564   63.1756 C   0  0  0  0  0  0  0  0  0  0  0  0
  135.6014   86.9698   64.2287 C   0  0  0  0  0  0  0  0  0  0  0  0
  134.6060   87.9232   64.4018 C   0  0  0  0  0  0  0  0  0  0  0  0
  133.4807   87.9089   63.5514 C   0  0  0  0  0  0  0  0  0  0  0  0
  133.3967   86.9955   62.5077 C   0  0  0  0  0  0  0  0  0  0  0  0
  134.4136   86.0779   62.3221 C   0  0  0  0  0  0  0  0  0  0  0  0
  139.4483   82.2778   62.7800 O   0  0  0  0  0  0  0  0  0  0  0  0
  138.5131   83.0624   62.8605 C   0  0  0  0  0  0  0  0  0  0  0  0
  138.5702   84.1792   63.6960 N   0  0  0  0  0  0  0  0  0  0  0  0
  137.2240   82.8495   62.0936 C   0  0  0  0  0  0  0  0  0  0  0  0
  137.3190   81.8947   60.8931 C   0  0  0  0  0  0  0  0  0  0  0  0
  137.8086   82.5624   59.6527 C   0  0  0  0  0  0  0  0  0  0  0  0
  137.8947   83.8699   59.5194 C   0  0  0  0  0  0  0  0  0  0  0  0
  137.4547   84.8369   60.5651 C   0  0  0  0  0  0  0  0  0  0  0  0
  136.6152   84.2141   61.7058 C   0  0  0  0  0  0  0  0  0  0  0  0
  136.6092   85.0832   62.9505 C   0  0  0  0  0  0  0  0  0  0  0  0
  137.5274   85.0547   63.8507 N   0  0  0  0  0  0  0  0  0  0  0  0
  139.7719   84.4981   64.5095 C   0  0  0  0  0  0  0  0  0  0  0  0
  139.7602   83.7175   65.8064 C   0  0  0  0  0  0  0  0  0  0  0  0
  139.8632   85.9897   64.7472 C   0  0  0  0  0  0  0  0  0  0  0  0
  134.6167   88.7903   65.5079 C   0  0  0  0  0  0  0  0  0  0  0  0
  134.3247   88.3690   66.8035 C   0  0  0  0  0  0  0  0  0  0  0  0
  134.4545   89.2367   67.8773 C   0  0  0  0  0  0  0  0  0  0  0  0
  134.9076   90.5396   67.6887 C   0  0  0  0  0  0  0  0  0  0  0  0
  135.2539   90.9414   66.4034 C   0  0  0  0  0  0  0  0  0  0  0  0
  135.1065   90.0795   65.3335 C   0  0  0  0  0  0  0  0  0  0  0  0
  135.1352   91.4420   68.8629 C   0  0  0  0  0  0  0  0  0  0  0  0
  136.1332   91.2581   69.5667 O   0  0  0  0  0  0  0  0  0  0  0  0
  134.3550   92.5178   69.0583 N   0  0  0  0  0  0  0  0  0  0  0  0
  134.5422   93.3973   70.2246 C   0  0  0  0  0  0  0  0  0  0  0  0
  133.1180   93.8751   70.4467 C   0  0  0  0  0  0  0  0  0  0  0  0
  132.3259   92.8213   70.9818 O   0  0  0  0  0  0  0  0  0  0  0  0
  132.7042   94.1928   69.0206 C   0  0  0  0  0  0  0  0  0  0  0  0
  133.2553   93.0274   68.2190 C   0  0  0  0  0  0  0  0  0  0  0  0
  132.3816   92.0473   70.3997 H   0  0  0  0  0  0  0  0  0  0  0  0
  132.5264   88.8549   63.8294 O   0  0  0  0  0  0  0  0  0  0  0  0
  131.9614   89.6213   62.7700 C   0  0  0  0  0  0  0  0  0  0  0  0
  7  8  2  0  0  0
  8  9  1  0  0  0
  8 10  1  0  0  0
  9 18  1  0  0  0
  9 17  1  0  0  0
 18 19  1  0  0  0
 18 20  1  0  0  0
 10 11  1  0  0  0
 10 15  1  0  0  0
 11 12  1  0  0  0
 12 13  2  0  0  0
 13 14  1  0  0  0
 14 15  1  0  0  0
 15 16  1  0  0  0
 16 17  2  0  0  0
 16  1  1  0  0  0
  1  2  1  0  0  0
  1  6  2  0  0  0
  2  3  2  0  0  0
  3  4  1  0  0  0
  3 21  1  0  0  0
  4 36  1  0  0  0
  4  5  2  0  0  0
 36 37  1  0  0  0
  5  6  1  0  0  0
 21 22  1  0  0  0
 21 26  2  0  0  0
 22 23  2  0  0  0
 23 24  1  0  0  0
 24 25  2  0  0  0
 24 27  1  0  0  0
 25 26  1  0  0  0
 27 28  2  0  0  0
 27 29  1  0  0  0
 29 30  1  0  0  0
 29 34  1  0  0  0
 30 31  1  0  0  0
 31 32  1  0  0  0
 31 33  1  0  0  0
 33 34  1  0  0  0
 32 35  1  0  0  0
M  END
> <minimizedAffinity>
-10.26736

$$$$
