6DAK_G1Y_A_401


 25 28  0  0  0  0  0  0  0  0999 V2000
  -10.2334   25.1375    1.1531 C   0  0  0  0  0  0  0  0  0  0  0  0
  -10.7376   23.8167    1.6978 C   0  0  0  0  0  0  0  0  0  0  0  0
  -11.2511   23.7133    3.1215 C   0  0  0  0  0  0  0  0  0  0  0  0
  -11.2589   24.9445    4.0118 C   0  0  0  0  0  0  0  0  0  0  0  0
  -10.7655   26.2445    3.4259 C   0  0  0  0  0  0  0  0  0  0  0  0
  -10.2595   26.3748    2.0075 C   0  0  0  0  0  0  0  0  0  0  0  0
  -10.8243   27.5110    4.2249 C   0  0  0  0  0  0  0  0  0  0  0  0
   -9.8183   27.9823    5.0576 C   0  0  0  0  0  0  0  0  0  0  0  0
  -10.2857   29.1013    5.6023 N   0  0  0  0  0  0  0  0  0  0  0  0
   -9.9293   30.2160    6.5443 C   0  0  0  0  0  0  0  0  0  0  0  0
  -11.0444   31.2214    6.5281 C   0  0  0  0  0  0  0  0  0  0  0  0
  -12.1419   30.6054    5.7525 C   0  0  0  0  0  0  0  0  0  0  0  0
  -11.5853   29.3205    5.1349 C   0  0  0  0  0  0  0  0  0  0  0  0
  -11.9046   28.3267    4.2818 N   0  0  0  0  0  0  0  0  0  0  0  0
   -9.7281   25.2145   -0.2692 C   0  0  0  0  0  0  0  0  0  0  0  0
  -11.7550   26.7460   -1.3260 O   0  0  0  0  0  0  0  0  0  0  0  0
  -11.7699   25.5880   -1.6006 C   0  0  0  0  0  0  0  0  0  0  0  0
  -10.7763   24.6811   -1.0966 N   0  0  0  0  0  0  0  0  0  0  0  0
  -10.8121   23.7211   -1.3117 H   0  0  0  0  0  0  0  0  0  0  0  0
  -12.8287   24.9937   -2.5066 C   0  0  0  0  0  0  0  0  0  0  0  0
  -13.0907   23.4940   -2.4490 C   0  0  0  0  0  0  0  0  0  0  0  0
  -14.1528   22.8784   -3.3503 C   0  0  0  0  0  0  0  0  0  0  0  0
  -14.9414   23.7724   -4.3015 C   0  0  0  0  0  0  0  0  0  0  0  0
  -14.6751   25.2754   -4.3462 C   0  0  0  0  0  0  0  0  0  0  0  0
  -13.6152   25.8926   -3.4480 C   0  0  0  0  0  0  0  0  0  0  0  0
 11 10  1  0  0  0
 11 12  1  0  0  0
 10  9  1  0  0  0
 12 13  1  0  0  0
  9 13  1  0  0  0
  9  8  1  0  0  0
 13 14  2  0  0  0
  8  7  2  0  0  0
 14  7  1  0  0  0
  7  5  1  0  0  0
  4  5  2  0  0  0
  4  3  1  0  0  0
  5  6  1  0  0  0
  3  2  2  0  0  0
  6  1  2  0  0  0
  2  1  1  0  0  0
  1 15  1  0  0  0
 15 18  1  0  0  0
 16 17  2  0  0  0
 17 18  1  0  0  0
 17 20  1  0  0  0
 20 25  2  0  0  0
 20 21  1  0  0  0
 25 24  1  0  0  0
 21 22  2  0  0  0
 24 23  2  0  0  0
 22 23  1  0  0  0
 18 19  1  0  0  0
M  END
> <minimizedAffinity>
-8.29490

$$$$
6DAK_G1Y_A_401


 25 28  0  0  0  0  0  0  0  0999 V2000
   -9.6550   25.1091    0.8042 C   0  0  0  0  0  0  0  0  0  0  0  0
  -10.8036   24.2063    1.2056 C   0  0  0  0  0  0  0  0  0  0  0  0
  -10.9003   23.6599    2.6174 C   0  0  0  0  0  0  0  0  0  0  0  0
   -9.8352   24.0188    3.6397 C   0  0  0  0  0  0  0  0  0  0  0  0
   -8.7177   24.9351    3.2054 C   0  0  0  0  0  0  0  0  0  0  0  0
   -8.6058   25.5006    1.8080 C   0  0  0  0  0  0  0  0  0  0  0  0
   -7.6824   25.3924    4.1876 C   0  0  0  0  0  0  0  0  0  0  0  0
   -7.1948   26.6879    4.2953 C   0  0  0  0  0  0  0  0  0  0  0  0
   -6.2717   26.6551    5.2516 N   0  0  0  0  0  0  0  0  0  0  0  0
   -5.2964   27.5130    6.0062 C   0  0  0  0  0  0  0  0  0  0  0  0
   -4.6654   26.6755    7.0811 C   0  0  0  0  0  0  0  0  0  0  0  0
   -5.1016   25.2858    6.8283 C   0  0  0  0  0  0  0  0  0  0  0  0
   -6.1617   25.3443    5.7261 C   0  0  0  0  0  0  0  0  0  0  0  0
   -7.0427   24.5736    5.0572 N   0  0  0  0  0  0  0  0  0  0  0  0
   -9.5820   25.6414   -0.6084 C   0  0  0  0  0  0  0  0  0  0  0  0
  -11.9337   26.8403   -1.3851 O   0  0  0  0  0  0  0  0  0  0  0  0
  -11.7892   25.7034   -1.7066 C   0  0  0  0  0  0  0  0  0  0  0  0
  -10.6125   24.9622   -1.3465 N   0  0  0  0  0  0  0  0  0  0  0  0
  -10.5143   24.0154   -1.5980 H   0  0  0  0  0  0  0  0  0  0  0  0
  -12.8285   24.9644   -2.5243 C   0  0  0  0  0  0  0  0  0  0  0  0
  -13.7217   25.7567   -3.4706 C   0  0  0  0  0  0  0  0  0  0  0  0
  -14.7707   25.0312   -4.3027 C   0  0  0  0  0  0  0  0  0  0  0  0
  -14.9149   23.5182   -4.1773 C   0  0  0  0  0  0  0  0  0  0  0  0
  -14.0098   22.7331   -3.2305 C   0  0  0  0  0  0  0  0  0  0  0  0
  -12.9620   23.4547   -2.3982 C   0  0  0  0  0  0  0  0  0  0  0  0
 11 10  1  0  0  0
 11 12  1  0  0  0
 10  9  1  0  0  0
 12 13  1  0  0  0
  9 13  1  0  0  0
  9  8  1  0  0  0
 13 14  2  0  0  0
  8  7  2  0  0  0
 14  7  1  0  0  0
  7  5  1  0  0  0
  4  5  2  0  0  0
  4  3  1  0  0  0
  5  6  1  0  0  0
  3  2  2  0  0  0
  6  1  2  0  0  0
  2  1  1  0  0  0
  1 15  1  0  0  0
 15 18  1  0  0  0
 16 17  2  0  0  0
 17 18  1  0  0  0
 17 20  1  0  0  0
 20 25  2  0  0  0
 20 21  1  0  0  0
 25 24  1  0  0  0
 21 22  2  0  0  0
 24 23  2  0  0  0
 22 23  1  0  0  0
 18 19  1  0  0  0
M  END
> <minimizedAffinity>
-8.12532

$$$$
6DAK_G1Y_A_401


 25 28  0  0  0  0  0  0  0  0999 V2000
   -9.6969   24.9020    1.9808 C   0  0  0  0  0  0  0  0  0  0  0  0
   -8.7598   26.0829    1.8299 C   0  0  0  0  0  0  0  0  0  0  0  0
   -8.7910   26.9394    0.5782 C   0  0  0  0  0  0  0  0  0  0  0  0
   -9.7695   26.6104   -0.5366 C   0  0  0  0  0  0  0  0  0  0  0  0
  -10.6981   25.4375   -0.3398 C   0  0  0  0  0  0  0  0  0  0  0  0
  -10.6931   24.5762    0.9024 C   0  0  0  0  0  0  0  0  0  0  0  0
  -11.7411   25.1114   -1.3652 C   0  0  0  0  0  0  0  0  0  0  0  0
  -12.3925   26.0364   -2.1700 C   0  0  0  0  0  0  0  0  0  0  0  0
  -13.2600   25.3422   -2.9003 N   0  0  0  0  0  0  0  0  0  0  0  0
  -14.3073   25.4788   -3.9686 C   0  0  0  0  0  0  0  0  0  0  0  0
  -14.7726   24.1033   -4.3509 C   0  0  0  0  0  0  0  0  0  0  0  0
  -14.1659   23.1771   -3.3713 C   0  0  0  0  0  0  0  0  0  0  0  0
  -13.1726   23.9935   -2.5412 C   0  0  0  0  0  0  0  0  0  0  0  0
  -12.2267   23.8665   -1.5891 N   0  0  0  0  0  0  0  0  0  0  0  0
   -9.6468   24.0650    3.2382 C   0  0  0  0  0  0  0  0  0  0  0  0
  -12.1496   22.9501    3.4908 O   0  0  0  0  0  0  0  0  0  0  0  0
  -11.9271   23.9064    4.1637 C   0  0  0  0  0  0  0  0  0  0  0  0
  -10.6640   24.5887    4.1093 N   0  0  0  0  0  0  0  0  0  0  0  0
  -10.4995   25.3926    4.6533 H   0  0  0  0  0  0  0  0  0  0  0  0
  -12.9537   24.4626    5.1288 C   0  0  0  0  0  0  0  0  0  0  0  0
  -14.4169   24.5026    4.7062 C   0  0  0  0  0  0  0  0  0  0  0  0
  -15.4639   25.0560    5.6636 C   0  0  0  0  0  0  0  0  0  0  0  0
  -15.0337   25.5649    7.0354 C   0  0  0  0  0  0  0  0  0  0  0  0
  -13.5652   25.5140    7.4512 C   0  0  0  0  0  0  0  0  0  0  0  0
  -12.5177   24.9626    6.4974 C   0  0  0  0  0  0  0  0  0  0  0  0
 11 10  1  0  0  0
 11 12  1  0  0  0
 10  9  1  0  0  0
 12 13  1  0  0  0
  9 13  1  0  0  0
  9  8  1  0  0  0
 13 14  2  0  0  0
  8  7  2  0  0  0
 14  7  1  0  0  0
  7  5  1  0  0  0
  4  5  2  0  0  0
  4  3  1  0  0  0
  5  6  1  0  0  0
  3  2  2  0  0  0
  6  1  2  0  0  0
  2  1  1  0  0  0
  1 15  1  0  0  0
 15 18  1  0  0  0
 16 17  2  0  0  0
 17 18  1  0  0  0
 17 20  1  0  0  0
 20 25  2  0  0  0
 20 21  1  0  0  0
 25 24  1  0  0  0
 21 22  2  0  0  0
 24 23  2  0  0  0
 22 23  1  0  0  0
 18 19  1  0  0  0
M  END
> <minimizedAffinity>
-8.09473

$$$$
6DAK_G1Y_A_401


 25 28  0  0  0  0  0  0  0  0999 V2000
   -9.2228   27.5532    1.5526 C   0  0  0  0  0  0  0  0  0  0  0  0
   -7.9035   26.8098    1.6008 C   0  0  0  0  0  0  0  0  0  0  0  0
   -7.6872   25.5641    0.7627 C   0  0  0  0  0  0  0  0  0  0  0  0
   -8.8037   25.0543   -0.1329 C   0  0  0  0  0  0  0  0  0  0  0  0
  -10.0955   25.8333   -0.1663 C   0  0  0  0  0  0  0  0  0  0  0  0
  -10.3308   27.0829    0.6511 C   0  0  0  0  0  0  0  0  0  0  0  0
  -11.2045   25.4300   -1.0900 C   0  0  0  0  0  0  0  0  0  0  0  0
  -11.9815   26.3023   -1.8404 C   0  0  0  0  0  0  0  0  0  0  0  0
  -12.8666   25.5465   -2.4830 N   0  0  0  0  0  0  0  0  0  0  0  0
  -14.0123   25.6041   -3.4530 C   0  0  0  0  0  0  0  0  0  0  0  0
  -14.4244   24.1976   -3.7797 C   0  0  0  0  0  0  0  0  0  0  0  0
  -13.6760   23.3240   -2.8511 C   0  0  0  0  0  0  0  0  0  0  0  0
  -12.6643   24.2108   -2.1216 C   0  0  0  0  0  0  0  0  0  0  0  0
  -11.6305   24.1549   -1.2582 N   0  0  0  0  0  0  0  0  0  0  0  0
   -9.4128   28.7925    2.3964 C   0  0  0  0  0  0  0  0  0  0  0  0
  -11.9360   29.6407    3.0926 O   0  0  0  0  0  0  0  0  0  0  0  0
  -11.4154   28.8684    3.8336 C   0  0  0  0  0  0  0  0  0  0  0  0
  -10.0922   28.3650    3.5895 N   0  0  0  0  0  0  0  0  0  0  0  0
   -9.6625   27.7444    4.2216 H   0  0  0  0  0  0  0  0  0  0  0  0
  -12.1138   28.3563    5.0765 C   0  0  0  0  0  0  0  0  0  0  0  0
  -12.4492   29.3391    6.1913 C   0  0  0  0  0  0  0  0  0  0  0  0
  -13.1533   28.8437    7.4474 C   0  0  0  0  0  0  0  0  0  0  0  0
  -13.5136   27.3672    7.5743 C   0  0  0  0  0  0  0  0  0  0  0  0
  -13.1786   26.3921    6.4478 C   0  0  0  0  0  0  0  0  0  0  0  0
  -12.4754   26.8837    5.1929 C   0  0  0  0  0  0  0  0  0  0  0  0
 11 10  1  0  0  0
 11 12  1  0  0  0
 10  9  1  0  0  0
 12 13  1  0  0  0
  9 13  1  0  0  0
  9  8  1  0  0  0
 13 14  2  0  0  0
  8  7  2  0  0  0
 14  7  1  0  0  0
  7  5  1  0  0  0
  4  5  2  0  0  0
  4  3  1  0  0  0
  5  6  1  0  0  0
  3  2  2  0  0  0
  6  1  2  0  0  0
  2  1  1  0  0  0
  1 15  1  0  0  0
 15 18  1  0  0  0
 16 17  2  0  0  0
 17 18  1  0  0  0
 17 20  1  0  0  0
 20 25  2  0  0  0
 20 21  1  0  0  0
 25 24  1  0  0  0
 21 22  2  0  0  0
 24 23  2  0  0  0
 22 23  1  0  0  0
 18 19  1  0  0  0
M  END
> <minimizedAffinity>
-8.01597

$$$$
6DAK_G1Y_A_401


 25 28  0  0  0  0  0  0  0  0999 V2000
  -10.7665   24.8428    7.1552 C   0  0  0  0  0  0  0  0  0  0  0  0
   -9.4132   24.9649    7.8253 C   0  0  0  0  0  0  0  0  0  0  0  0
   -8.1589   25.1822    7.0002 C   0  0  0  0  0  0  0  0  0  0  0  0
   -8.2585   25.2767    5.4870 C   0  0  0  0  0  0  0  0  0  0  0  0
   -9.6266   25.1682    4.8598 C   0  0  0  0  0  0  0  0  0  0  0  0
  -10.8915   24.9625    5.6613 C   0  0  0  0  0  0  0  0  0  0  0  0
   -9.8018   25.3353    3.3808 C   0  0  0  0  0  0  0  0  0  0  0  0
   -9.5871   26.5114    2.6748 C   0  0  0  0  0  0  0  0  0  0  0  0
   -9.8935   26.2419    1.4095 N   0  0  0  0  0  0  0  0  0  0  0  0
   -9.9548   26.8470    0.0359 C   0  0  0  0  0  0  0  0  0  0  0  0
  -10.3193   25.7654   -0.9398 C   0  0  0  0  0  0  0  0  0  0  0  0
  -10.6799   24.5839   -0.1276 C   0  0  0  0  0  0  0  0  0  0  0  0
  -10.3209   24.9132    1.3232 C   0  0  0  0  0  0  0  0  0  0  0  0
  -10.2580   24.3646    2.5530 N   0  0  0  0  0  0  0  0  0  0  0  0
  -12.0012   24.6277    7.9997 C   0  0  0  0  0  0  0  0  0  0  0  0
  -14.0100   22.9677    7.1165 O   0  0  0  0  0  0  0  0  0  0  0  0
  -14.1060   24.1167    6.8208 C   0  0  0  0  0  0  0  0  0  0  0  0
  -13.1128   25.0799    7.2073 N   0  0  0  0  0  0  0  0  0  0  0  0
  -13.1909   26.0233    6.9372 H   0  0  0  0  0  0  0  0  0  0  0  0
  -15.2842   24.6433    6.0274 C   0  0  0  0  0  0  0  0  0  0  0  0
  -15.1101   24.9081    4.5372 C   0  0  0  0  0  0  0  0  0  0  0  0
  -16.2836   25.4354    3.7224 C   0  0  0  0  0  0  0  0  0  0  0  0
  -17.6204   25.6930    4.4097 C   0  0  0  0  0  0  0  0  0  0  0  0
  -17.7857   25.4177    5.9026 C   0  0  0  0  0  0  0  0  0  0  0  0
  -16.6159   24.8919    6.7187 C   0  0  0  0  0  0  0  0  0  0  0  0
 11 10  1  0  0  0
 11 12  1  0  0  0
 10  9  1  0  0  0
 12 13  1  0  0  0
  9 13  1  0  0  0
  9  8  1  0  0  0
 13 14  2  0  0  0
  8  7  2  0  0  0
 14  7  1  0  0  0
  7  5  1  0  0  0
  4  5  2  0  0  0
  4  3  1  0  0  0
  5  6  1  0  0  0
  3  2  2  0  0  0
  6  1  2  0  0  0
  2  1  1  0  0  0
  1 15  1  0  0  0
 15 18  1  0  0  0
 16 17  2  0  0  0
 17 18  1  0  0  0
 17 20  1  0  0  0
 20 25  2  0  0  0
 20 21  1  0  0  0
 25 24  1  0  0  0
 21 22  2  0  0  0
 24 23  2  0  0  0
 22 23  1  0  0  0
 18 19  1  0  0  0
M  END
> <minimizedAffinity>
-7.69341

$$$$
6DAK_G1Y_A_401


 25 28  0  0  0  0  0  0  0  0999 V2000
  -10.3000   25.5227    2.1018 C   0  0  0  0  0  0  0  0  0  0  0  0
  -10.1209   27.0254    2.1745 C   0  0  0  0  0  0  0  0  0  0  0  0
  -10.6612   27.8120    3.3537 C   0  0  0  0  0  0  0  0  0  0  0  0
  -11.3908   27.0880    4.4726 C   0  0  0  0  0  0  0  0  0  0  0  0
  -11.5323   25.5892    4.3714 C   0  0  0  0  0  0  0  0  0  0  0  0
  -10.9932   24.7825    3.2123 C   0  0  0  0  0  0  0  0  0  0  0  0
  -12.1683   24.8075    5.4806 C   0  0  0  0  0  0  0  0  0  0  0  0
  -13.5073   24.8709    5.8421 C   0  0  0  0  0  0  0  0  0  0  0  0
  -13.6448   24.0613    6.8877 N   0  0  0  0  0  0  0  0  0  0  0  0
  -14.6523   23.5256    7.8648 C   0  0  0  0  0  0  0  0  0  0  0  0
  -13.9756   22.4953    8.7223 C   0  0  0  0  0  0  0  0  0  0  0  0
  -12.5348   22.5754    8.4010 C   0  0  0  0  0  0  0  0  0  0  0  0
  -12.3973   23.5107    7.1974 C   0  0  0  0  0  0  0  0  0  0  0  0
  -11.4926   23.9824    6.3162 N   0  0  0  0  0  0  0  0  0  0  0  0
   -9.7514   24.7619    0.9168 C   0  0  0  0  0  0  0  0  0  0  0  0
  -10.2577   26.1283   -1.4172 O   0  0  0  0  0  0  0  0  0  0  0  0
  -11.0212   25.2590   -1.1379 C   0  0  0  0  0  0  0  0  0  0  0  0
  -10.8750   24.4846    0.0632 N   0  0  0  0  0  0  0  0  0  0  0  0
  -11.5259   23.7835    0.2955 H   0  0  0  0  0  0  0  0  0  0  0  0
  -12.1910   24.9030   -2.0323 C   0  0  0  0  0  0  0  0  0  0  0  0
  -12.9264   26.0193   -2.7631 C   0  0  0  0  0  0  0  0  0  0  0  0
  -14.1032   25.6810   -3.6685 C   0  0  0  0  0  0  0  0  0  0  0  0
  -14.5322   24.2266   -3.8317 C   0  0  0  0  0  0  0  0  0  0  0  0
  -13.7837   23.1150   -3.0995 C   0  0  0  0  0  0  0  0  0  0  0  0
  -12.6088   23.4497   -2.1947 C   0  0  0  0  0  0  0  0  0  0  0  0
 11 10  1  0  0  0
 11 12  1  0  0  0
 10  9  1  0  0  0
 12 13  1  0  0  0
  9 13  1  0  0  0
  9  8  1  0  0  0
 13 14  2  0  0  0
  8  7  2  0  0  0
 14  7  1  0  0  0
  7  5  1  0  0  0
  4  5  2  0  0  0
  4  3  1  0  0  0
  5  6  1  0  0  0
  3  2  2  0  0  0
  6  1  2  0  0  0
  2  1  1  0  0  0
  1 15  1  0  0  0
 15 18  1  0  0  0
 16 17  2  0  0  0
 17 18  1  0  0  0
 17 20  1  0  0  0
 20 25  2  0  0  0
 20 21  1  0  0  0
 25 24  1  0  0  0
 21 22  2  0  0  0
 24 23  2  0  0  0
 22 23  1  0  0  0
 18 19  1  0  0  0
M  END
> <minimizedAffinity>
-7.56244

$$$$
6DAK_G1Y_A_401


 25 28  0  0  0  0  0  0  0  0999 V2000
   -9.0417   27.2421    0.9131 C   0  0  0  0  0  0  0  0  0  0  0  0
   -8.5367   26.1924    1.8819 C   0  0  0  0  0  0  0  0  0  0  0  0
   -9.1027   24.7851    1.8609 C   0  0  0  0  0  0  0  0  0  0  0  0
  -10.1875   24.4233    0.8606 C   0  0  0  0  0  0  0  0  0  0  0  0
  -10.6500   25.4919   -0.0991 C   0  0  0  0  0  0  0  0  0  0  0  0
  -10.0940   26.8975   -0.1046 C   0  0  0  0  0  0  0  0  0  0  0  0
  -11.6573   25.1761   -1.1629 C   0  0  0  0  0  0  0  0  0  0  0  0
  -12.2837   26.1095   -1.9777 C   0  0  0  0  0  0  0  0  0  0  0  0
  -13.1243   25.4225   -2.7451 N   0  0  0  0  0  0  0  0  0  0  0  0
  -14.1356   25.5699   -3.8463 C   0  0  0  0  0  0  0  0  0  0  0  0
  -14.5842   24.1982   -4.2607 C   0  0  0  0  0  0  0  0  0  0  0  0
  -14.0083   23.2614   -3.2727 C   0  0  0  0  0  0  0  0  0  0  0  0
  -13.0456   24.0697   -2.3998 C   0  0  0  0  0  0  0  0  0  0  0  0
  -12.1317   23.9330   -1.4181 N   0  0  0  0  0  0  0  0  0  0  0  0
   -8.4608   28.6367    0.9536 C   0  0  0  0  0  0  0  0  0  0  0  0
   -9.2906   30.3886    2.9063 O   0  0  0  0  0  0  0  0  0  0  0  0
   -8.3527   29.7061    3.1731 C   0  0  0  0  0  0  0  0  0  0  0  0
   -7.8137   28.7645    2.2314 N   0  0  0  0  0  0  0  0  0  0  0  0
   -7.0232   28.2218    2.4547 H   0  0  0  0  0  0  0  0  0  0  0  0
   -7.6706   29.7754    4.5240 C   0  0  0  0  0  0  0  0  0  0  0  0
   -8.2621   30.6734    5.6032 C   0  0  0  0  0  0  0  0  0  0  0  0
   -7.5920   30.7544    6.9682 C   0  0  0  0  0  0  0  0  0  0  0  0
   -6.3344   29.9350    7.2380 C   0  0  0  0  0  0  0  0  0  0  0  0
   -5.7538   29.0330    6.1511 C   0  0  0  0  0  0  0  0  0  0  0  0
   -6.4203   28.9504    4.7873 C   0  0  0  0  0  0  0  0  0  0  0  0
 11 10  1  0  0  0
 11 12  1  0  0  0
 10  9  1  0  0  0
 12 13  1  0  0  0
  9 13  1  0  0  0
  9  8  1  0  0  0
 13 14  2  0  0  0
  8  7  2  0  0  0
 14  7  1  0  0  0
  7  5  1  0  0  0
  4  5  2  0  0  0
  4  3  1  0  0  0
  5  6  1  0  0  0
  3  2  2  0  0  0
  6  1  2  0  0  0
  2  1  1  0  0  0
  1 15  1  0  0  0
 15 18  1  0  0  0
 16 17  2  0  0  0
 17 18  1  0  0  0
 17 20  1  0  0  0
 20 25  2  0  0  0
 20 21  1  0  0  0
 25 24  1  0  0  0
 21 22  2  0  0  0
 24 23  2  0  0  0
 22 23  1  0  0  0
 18 19  1  0  0  0
M  END
> <minimizedAffinity>
-7.37443

$$$$
6DAK_G1Y_A_401


 25 28  0  0  0  0  0  0  0  0999 V2000
  -10.0276   24.6738    2.2029 C   0  0  0  0  0  0  0  0  0  0  0  0
   -8.6318   25.1751    1.8929 C   0  0  0  0  0  0  0  0  0  0  0  0
   -8.2365   25.5321    0.4725 C   0  0  0  0  0  0  0  0  0  0  0  0
   -9.2480   25.3846   -0.6516 C   0  0  0  0  0  0  0  0  0  0  0  0
  -10.6325   24.8996   -0.2986 C   0  0  0  0  0  0  0  0  0  0  0  0
  -11.0531   24.5481    1.1101 C   0  0  0  0  0  0  0  0  0  0  0  0
  -11.6991   24.8112   -1.3476 C   0  0  0  0  0  0  0  0  0  0  0  0
  -12.2485   25.8903   -2.0268 C   0  0  0  0  0  0  0  0  0  0  0  0
  -13.1795   25.3842   -2.8297 N   0  0  0  0  0  0  0  0  0  0  0  0
  -14.2026   25.7582   -3.8642 C   0  0  0  0  0  0  0  0  0  0  0  0
  -14.8052   24.4954   -4.4091 C   0  0  0  0  0  0  0  0  0  0  0  0
  -14.3011   23.3982   -3.5562 C   0  0  0  0  0  0  0  0  0  0  0  0
  -13.2328   23.9997   -2.6403 C   0  0  0  0  0  0  0  0  0  0  0  0
  -12.3090   23.6598   -1.7191 N   0  0  0  0  0  0  0  0  0  0  0  0
  -10.3969   24.3258    3.6264 C   0  0  0  0  0  0  0  0  0  0  0  0
   -9.9048   25.4104    6.1068 O   0  0  0  0  0  0  0  0  0  0  0  0
  -10.7416   25.9471    5.4524 C   0  0  0  0  0  0  0  0  0  0  0  0
  -11.1020   25.4656    4.1478 N   0  0  0  0  0  0  0  0  0  0  0  0
  -11.8120   25.9037    3.6251 H   0  0  0  0  0  0  0  0  0  0  0  0
  -11.4754   27.1779    5.9440 C   0  0  0  0  0  0  0  0  0  0  0  0
  -11.9493   27.2244    7.3912 C   0  0  0  0  0  0  0  0  0  0  0  0
  -12.6866   28.4541    7.9045 C   0  0  0  0  0  0  0  0  0  0  0  0
  -12.9425   29.6251    6.9616 C   0  0  0  0  0  0  0  0  0  0  0  0
  -12.4572   29.5705    5.5147 C   0  0  0  0  0  0  0  0  0  0  0  0
  -11.7213   28.3441    4.9993 C   0  0  0  0  0  0  0  0  0  0  0  0
 11 10  1  0  0  0
 11 12  1  0  0  0
 10  9  1  0  0  0
 12 13  1  0  0  0
  9 13  1  0  0  0
  9  8  1  0  0  0
 13 14  2  0  0  0
  8  7  2  0  0  0
 14  7  1  0  0  0
  7  5  1  0  0  0
  4  5  2  0  0  0
  4  3  1  0  0  0
  5  6  1  0  0  0
  3  2  2  0  0  0
  6  1  2  0  0  0
  2  1  1  0  0  0
  1 15  1  0  0  0
 15 18  1  0  0  0
 16 17  2  0  0  0
 17 18  1  0  0  0
 17 20  1  0  0  0
 20 25  2  0  0  0
 20 21  1  0  0  0
 25 24  1  0  0  0
 21 22  2  0  0  0
 24 23  2  0  0  0
 22 23  1  0  0  0
 18 19  1  0  0  0
M  END
> <minimizedAffinity>
-7.21589

$$$$
6DAK_G1Y_A_401


 25 28  0  0  0  0  0  0  0  0999 V2000
  -11.7721   24.5102    5.6622 C   0  0  0  0  0  0  0  0  0  0  0  0
  -12.0958   23.3451    4.7493 C   0  0  0  0  0  0  0  0  0  0  0  0
  -11.6954   23.3749    3.2865 C   0  0  0  0  0  0  0  0  0  0  0  0
  -10.9643   24.5845    2.7291 C   0  0  0  0  0  0  0  0  0  0  0  0
  -10.6445   25.7158    3.6750 C   0  0  0  0  0  0  0  0  0  0  0  0
  -11.0233   25.7045    5.1382 C   0  0  0  0  0  0  0  0  0  0  0  0
   -9.8537   26.8996    3.2068 C   0  0  0  0  0  0  0  0  0  0  0  0
   -8.6253   26.8405    2.5624 C   0  0  0  0  0  0  0  0  0  0  0  0
   -8.2551   28.1012    2.3601 N   0  0  0  0  0  0  0  0  0  0  0  0
   -7.1648   28.9508    1.7714 C   0  0  0  0  0  0  0  0  0  0  0  0
   -7.5919   30.3881    1.8520 C   0  0  0  0  0  0  0  0  0  0  0  0
   -8.8218   30.4059    2.6720 C   0  0  0  0  0  0  0  0  0  0  0  0
   -9.2312   28.9482    2.8943 C   0  0  0  0  0  0  0  0  0  0  0  0
  -10.2157   28.1885    3.4150 N   0  0  0  0  0  0  0  0  0  0  0  0
  -12.1808   24.4555    7.1161 C   0  0  0  0  0  0  0  0  0  0  0  0
  -14.1709   22.6085    7.5624 O   0  0  0  0  0  0  0  0  0  0  0  0
  -14.5211   23.7358    7.4099 C   0  0  0  0  0  0  0  0  0  0  0  0
  -13.5791   24.7893    7.1524 N   0  0  0  0  0  0  0  0  0  0  0  0
  -13.8824   25.7142    7.0047 H   0  0  0  0  0  0  0  0  0  0  0  0
  -15.9796   24.1383    7.4868 C   0  0  0  0  0  0  0  0  0  0  0  0
  -16.7922   23.7343    8.7106 C   0  0  0  0  0  0  0  0  0  0  0  0
  -18.2591   24.1317    8.8071 C   0  0  0  0  0  0  0  0  0  0  0  0
  -18.8976   24.9297    7.6751 C   0  0  0  0  0  0  0  0  0  0  0  0
  -18.0720   25.3351    6.4561 C   0  0  0  0  0  0  0  0  0  0  0  0
  -16.6075   24.9393    6.3567 C   0  0  0  0  0  0  0  0  0  0  0  0
 11 10  1  0  0  0
 11 12  1  0  0  0
 10  9  1  0  0  0
 12 13  1  0  0  0
  9 13  1  0  0  0
  9  8  1  0  0  0
 13 14  2  0  0  0
  8  7  2  0  0  0
 14  7  1  0  0  0
  7  5  1  0  0  0
  4  5  2  0  0  0
  4  3  1  0  0  0
  5  6  1  0  0  0
  3  2  2  0  0  0
  6  1  2  0  0  0
  2  1  1  0  0  0
  1 15  1  0  0  0
 15 18  1  0  0  0
 16 17  2  0  0  0
 17 18  1  0  0  0
 17 20  1  0  0  0
 20 25  2  0  0  0
 20 21  1  0  0  0
 25 24  1  0  0  0
 21 22  2  0  0  0
 24 23  2  0  0  0
 22 23  1  0  0  0
 18 19  1  0  0  0
M  END
> <minimizedAffinity>
-7.20803

$$$$
6DAK_G1Y_A_401


 25 28  0  0  0  0  0  0  0  0999 V2000
   -9.2749   26.7140    1.1979 C   0  0  0  0  0  0  0  0  0  0  0  0
   -8.6933   28.1129    1.2095 C   0  0  0  0  0  0  0  0  0  0  0  0
   -9.0724   29.0986    2.2985 C   0  0  0  0  0  0  0  0  0  0  0  0
  -10.0458   28.6814    3.3879 C   0  0  0  0  0  0  0  0  0  0  0  0
  -10.5884   27.2739    3.3509 C   0  0  0  0  0  0  0  0  0  0  0  0
  -10.2173   26.2708    2.2828 C   0  0  0  0  0  0  0  0  0  0  0  0
  -11.4874   26.7753    4.4414 C   0  0  0  0  0  0  0  0  0  0  0  0
  -11.9405   25.4696    4.5740 C   0  0  0  0  0  0  0  0  0  0  0  0
  -12.7378   25.4634    5.6379 N   0  0  0  0  0  0  0  0  0  0  0  0
  -13.6003   24.5709    6.4844 C   0  0  0  0  0  0  0  0  0  0  0  0
  -14.1038   25.3709    7.6511 C   0  0  0  0  0  0  0  0  0  0  0  0
  -13.7210   26.7735    7.3835 C   0  0  0  0  0  0  0  0  0  0  0  0
  -12.8055   26.7600    6.1572 C   0  0  0  0  0  0  0  0  0  0  0  0
  -12.0248   27.5614    5.4051 N   0  0  0  0  0  0  0  0  0  0  0  0
   -8.8803   25.7503    0.1026 C   0  0  0  0  0  0  0  0  0  0  0  0
  -10.9021   23.8863    0.0087 O   0  0  0  0  0  0  0  0  0  0  0  0
  -10.9513   24.7599   -0.7983 C   0  0  0  0  0  0  0  0  0  0  0  0
   -9.9453   25.7833   -0.8632 N   0  0  0  0  0  0  0  0  0  0  0  0
   -9.9838   26.4877   -1.5499 H   0  0  0  0  0  0  0  0  0  0  0  0
  -12.0804   24.8585   -1.8034 C   0  0  0  0  0  0  0  0  0  0  0  0
  -12.8425   23.5949   -2.1822 C   0  0  0  0  0  0  0  0  0  0  0  0
  -13.9823   23.6745   -3.1890 C   0  0  0  0  0  0  0  0  0  0  0  0
  -14.3465   25.0202   -3.8073 C   0  0  0  0  0  0  0  0  0  0  0  0
  -13.5801   26.2816   -3.4154 C   0  0  0  0  0  0  0  0  0  0  0  0
  -12.4416   26.2052   -2.4109 C   0  0  0  0  0  0  0  0  0  0  0  0
 11 10  1  0  0  0
 11 12  1  0  0  0
 10  9  1  0  0  0
 12 13  1  0  0  0
  9 13  1  0  0  0
  9  8  1  0  0  0
 13 14  2  0  0  0
  8  7  2  0  0  0
 14  7  1  0  0  0
  7  5  1  0  0  0
  4  5  2  0  0  0
  4  3  1  0  0  0
  5  6  1  0  0  0
  3  2  2  0  0  0
  6  1  2  0  0  0
  2  1  1  0  0  0
  1 15  1  0  0  0
 15 18  1  0  0  0
 16 17  2  0  0  0
 17 18  1  0  0  0
 17 20  1  0  0  0
 20 25  2  0  0  0
 20 21  1  0  0  0
 25 24  1  0  0  0
 21 22  2  0  0  0
 24 23  2  0  0  0
 22 23  1  0  0  0
 18 19  1  0  0  0
M  END
> <minimizedAffinity>
-6.94038

$$$$
