4NBN_2J7_B_401


 28 30  0  0  0  0  0  0  0  0999 V2000
   27.6673   28.8145    7.0120 C   0  0  0  0  0  0  0  0  0  0  0  0
   26.5823   28.7891    6.1351 C   0  0  0  0  0  0  0  0  0  0  0  0
   25.2671   28.9662    6.6233 C   0  0  0  0  0  0  0  0  0  0  0  0
   25.0966   29.1746    7.9310 N   0  0  0  0  0  0  0  0  0  0  0  0
   26.1639   29.1857    8.7347 C   0  0  0  0  0  0  0  0  0  0  0  0
   27.4068   29.0153    8.3107 N   0  0  0  0  0  0  0  0  0  0  0  0
   28.9751   28.6625    6.5075 N   0  0  0  0  0  0  0  0  0  0  0  0
   29.0712   28.5158    5.5388 H   0  0  0  0  0  0  0  0  0  0  0  0
   30.2193   28.7055    7.3165 C   0  0  0  0  0  0  0  0  0  0  0  0
   31.7783   24.8301    8.4190 C   0  0  0  0  0  0  0  0  0  0  0  0
   30.4314   26.7758    8.9231 C   0  0  0  0  0  0  0  0  0  0  0  0
   31.6190   26.6437    6.8402 C   0  0  0  0  0  0  0  0  0  0  0  0
   32.1162   25.3930    7.1939 C   0  0  0  0  0  0  0  0  0  0  0  0
   30.9277   25.5201    9.2812 C   0  0  0  0  0  0  0  0  0  0  0  0
   30.7613   27.3358    7.6972 C   0  0  0  0  0  0  0  0  0  0  0  0
   29.5911   27.4434    9.7607 O   0  0  0  0  0  0  0  0  0  0  0  0
   29.2595   28.2856    9.5183 H   0  0  0  0  0  0  0  0  0  0  0  0
   24.1664   28.9194    5.7414 N   0  0  0  0  0  0  0  0  0  0  0  0
   24.3575   28.8319    4.7796 H   0  0  0  0  0  0  0  0  0  0  0  0
   22.7408   28.9920    6.1544 C   0  0  0  0  0  0  0  0  0  0  0  0
   22.0713   30.3283    5.8976 C   0  0  0  0  0  0  0  0  0  0  0  0
   21.4415   30.6226    4.6973 C   0  0  0  0  0  0  0  0  0  0  0  0
   20.8516   31.8588    4.4997 C   0  0  0  0  0  0  0  0  0  0  0  0
   20.8881   32.8295    5.5030 C   0  0  0  0  0  0  0  0  0  0  0  0
   21.5158   32.5401    6.7094 C   0  0  0  0  0  0  0  0  0  0  0  0
   22.1034   31.2874    6.9013 C   0  0  0  0  0  0  0  0  0  0  0  0
   22.7358   30.9801    8.0670 O   0  0  0  0  0  0  0  0  0  0  0  0
   23.1250   30.1353    8.1804 H   0  0  0  0  0  0  0  0  0  0  0  0
 13 12  2  0  0  0
 13 10  1  0  0  0
 12 15  1  0  0  0
  7  9  1  0  0  0
  7  1  1  0  0  0
 10 14  2  0  0  0
 15  9  1  0  0  0
 15 11  2  0  0  0
  2  1  2  0  0  0
  2  3  1  0  0  0
 18  3  1  0  0  0
 18 20  1  0  0  0
  1  6  1  0  0  0
 14 11  1  0  0  0
  3  4  2  0  0  0
 22 23  2  0  0  0
 22 21  1  0  0  0
 11 16  1  0  0  0
 20 21  1  0  0  0
 23 24  1  0  0  0
 21 26  2  0  0  0
  6  5  2  0  0  0
  4  5  1  0  0  0
 24 25  2  0  0  0
 26 25  1  0  0  0
 26 27  1  0  0  0
  7  8  1  0  0  0
 18 19  1  0  0  0
 27 28  1  0  0  0
 16 17  1  0  0  0
M  END
> <minimizedAffinity>
-10.04712

$$$$
4NBN_2J7_B_401


 28 30  0  0  0  0  0  0  0  0999 V2000
   25.2482   28.9415    6.6257 C   0  0  0  0  0  0  0  0  0  0  0  0
   26.5286   28.7784    6.0960 C   0  0  0  0  0  0  0  0  0  0  0  0
   27.6624   28.8465    6.9382 C   0  0  0  0  0  0  0  0  0  0  0  0
   27.4734   29.0509    8.2440 N   0  0  0  0  0  0  0  0  0  0  0  0
   26.2298   29.2069    8.7069 C   0  0  0  0  0  0  0  0  0  0  0  0
   25.1484   29.1566    7.9442 N   0  0  0  0  0  0  0  0  0  0  0  0
   24.1256   28.8450    5.7780 N   0  0  0  0  0  0  0  0  0  0  0  0
   24.2943   28.6816    4.8220 H   0  0  0  0  0  0  0  0  0  0  0  0
   22.7100   28.9696    6.2081 C   0  0  0  0  0  0  0  0  0  0  0  0
   20.9217   32.8193    5.4040 C   0  0  0  0  0  0  0  0  0  0  0  0
   22.0747   31.3077    6.9006 C   0  0  0  0  0  0  0  0  0  0  0  0
   21.4990   30.5940    4.6811 C   0  0  0  0  0  0  0  0  0  0  0  0
   20.9281   31.8362    4.4213 C   0  0  0  0  0  0  0  0  0  0  0  0
   21.5035   32.5561    6.6430 C   0  0  0  0  0  0  0  0  0  0  0  0
   22.0891   30.3279    5.9181 C   0  0  0  0  0  0  0  0  0  0  0  0
   22.6533   31.0560    8.1069 O   0  0  0  0  0  0  0  0  0  0  0  0
   23.0358   30.2178    8.2773 H   0  0  0  0  0  0  0  0  0  0  0  0
   28.9596   28.7034    6.4015 N   0  0  0  0  0  0  0  0  0  0  0  0
   29.0380   28.5801    5.4279 H   0  0  0  0  0  0  0  0  0  0  0  0
   30.2162   28.7246    7.1943 C   0  0  0  0  0  0  0  0  0  0  0  0
   30.8327   27.3621    7.4462 C   0  0  0  0  0  0  0  0  0  0  0  0
   31.6669   26.7449    6.5258 C   0  0  0  0  0  0  0  0  0  0  0  0
   32.2003   25.4957    6.7903 C   0  0  0  0  0  0  0  0  0  0  0  0
   31.9010   24.8361    7.9842 C   0  0  0  0  0  0  0  0  0  0  0  0
   31.0673   25.4501    8.9122 C   0  0  0  0  0  0  0  0  0  0  0  0
   30.5383   26.7137    8.6384 C   0  0  0  0  0  0  0  0  0  0  0  0
   29.7094   27.3339    9.5224 O   0  0  0  0  0  0  0  0  0  0  0  0
   29.3627   28.1815    9.3241 H   0  0  0  0  0  0  0  0  0  0  0  0
 13 12  2  0  0  0
 13 10  1  0  0  0
 12 15  1  0  0  0
  7  9  1  0  0  0
  7  1  1  0  0  0
 10 14  2  0  0  0
 15  9  1  0  0  0
 15 11  2  0  0  0
  2  1  2  0  0  0
  2  3  1  0  0  0
 18  3  1  0  0  0
 18 20  1  0  0  0
  1  6  1  0  0  0
 14 11  1  0  0  0
  3  4  2  0  0  0
 22 23  2  0  0  0
 22 21  1  0  0  0
 11 16  1  0  0  0
 20 21  1  0  0  0
 23 24  1  0  0  0
 21 26  2  0  0  0
  6  5  2  0  0  0
  4  5  1  0  0  0
 24 25  2  0  0  0
 26 25  1  0  0  0
 26 27  1  0  0  0
  7  8  1  0  0  0
 18 19  1  0  0  0
 27 28  1  0  0  0
 16 17  1  0  0  0
M  END
> <minimizedAffinity>
-9.90822

$$$$
4NBN_2J7_B_401


 28 30  0  0  0  0  0  0  0  0999 V2000
   30.6609   26.6958    8.3017 C   0  0  0  0  0  0  0  0  0  0  0  0
   31.2896   26.9760    7.0881 C   0  0  0  0  0  0  0  0  0  0  0  0
   32.2783   26.1025    6.5792 C   0  0  0  0  0  0  0  0  0  0  0  0
   32.5766   25.0039    7.2769 N   0  0  0  0  0  0  0  0  0  0  0  0
   31.9531   24.7782    8.4369 C   0  0  0  0  0  0  0  0  0  0  0  0
   31.0292   25.5797    8.9446 N   0  0  0  0  0  0  0  0  0  0  0  0
   29.6584   27.5622    8.7839 N   0  0  0  0  0  0  0  0  0  0  0  0
   29.1709   27.2830    9.5923 H   0  0  0  0  0  0  0  0  0  0  0  0
   29.2773   28.8607    8.1732 C   0  0  0  0  0  0  0  0  0  0  0  0
   25.3815   28.8251    6.3061 C   0  0  0  0  0  0  0  0  0  0  0  0
   26.7619   28.9561    8.2889 C   0  0  0  0  0  0  0  0  0  0  0  0
   27.7827   28.7253    6.1276 C   0  0  0  0  0  0  0  0  0  0  0  0
   26.5276   28.7195    5.5267 C   0  0  0  0  0  0  0  0  0  0  0  0
   25.5003   28.9516    7.6892 C   0  0  0  0  0  0  0  0  0  0  0  0
   27.9073   28.8587    7.5117 C   0  0  0  0  0  0  0  0  0  0  0  0
   26.8771   29.0918    9.6386 O   0  0  0  0  0  0  0  0  0  0  0  0
   27.7244   29.0946   10.0386 H   0  0  0  0  0  0  0  0  0  0  0  0
   32.9310   26.3949    5.3628 N   0  0  0  0  0  0  0  0  0  0  0  0
   33.9082   26.5125    5.3876 H   0  0  0  0  0  0  0  0  0  0  0  0
   32.2554   26.5389    4.0471 C   0  0  0  0  0  0  0  0  0  0  0  0
   31.8269   27.9524    3.7032 C   0  0  0  0  0  0  0  0  0  0  0  0
   30.4927   28.3216    3.6171 C   0  0  0  0  0  0  0  0  0  0  0  0
   30.1443   29.6203    3.2898 C   0  0  0  0  0  0  0  0  0  0  0  0
   31.1307   30.5754    3.0350 C   0  0  0  0  0  0  0  0  0  0  0  0
   32.4702   30.2125    3.1219 C   0  0  0  0  0  0  0  0  0  0  0  0
   32.8116   28.9004    3.4585 C   0  0  0  0  0  0  0  0  0  0  0  0
   34.1142   28.5130    3.5388 O   0  0  0  0  0  0  0  0  0  0  0  0
   34.3270   27.6292    3.7658 H   0  0  0  0  0  0  0  0  0  0  0  0
 13 12  2  0  0  0
 13 10  1  0  0  0
 12 15  1  0  0  0
  7  9  1  0  0  0
  7  1  1  0  0  0
 10 14  2  0  0  0
 15  9  1  0  0  0
 15 11  2  0  0  0
  2  1  2  0  0  0
  2  3  1  0  0  0
 18  3  1  0  0  0
 18 20  1  0  0  0
  1  6  1  0  0  0
 14 11  1  0  0  0
  3  4  2  0  0  0
 22 23  2  0  0  0
 22 21  1  0  0  0
 11 16  1  0  0  0
 20 21  1  0  0  0
 23 24  1  0  0  0
 21 26  2  0  0  0
  6  5  2  0  0  0
  4  5  1  0  0  0
 24 25  2  0  0  0
 26 25  1  0  0  0
 26 27  1  0  0  0
  7  8  1  0  0  0
 18 19  1  0  0  0
 27 28  1  0  0  0
 16 17  1  0  0  0
M  END
> <minimizedAffinity>
-9.49486

$$$$
4NBN_2J7_B_401


 28 30  0  0  0  0  0  0  0  0999 V2000
   20.8346   31.1431    3.9611 C   0  0  0  0  0  0  0  0  0  0  0  0
   21.5428   30.5587    5.0116 C   0  0  0  0  0  0  0  0  0  0  0  0
   21.8635   31.3148    6.1626 C   0  0  0  0  0  0  0  0  0  0  0  0
   21.4576   32.5853    6.2226 N   0  0  0  0  0  0  0  0  0  0  0  0
   20.7865   33.1054    5.1910 C   0  0  0  0  0  0  0  0  0  0  0  0
   20.4773   32.4271    4.0963 N   0  0  0  0  0  0  0  0  0  0  0  0
   20.4991   30.3696    2.8309 N   0  0  0  0  0  0  0  0  0  0  0  0
   19.5484   30.1492    2.7006 H   0  0  0  0  0  0  0  0  0  0  0  0
   21.4609   29.8599    1.8212 C   0  0  0  0  0  0  0  0  0  0  0  0
   22.7173   25.7860    2.5205 C   0  0  0  0  0  0  0  0  0  0  0  0
   20.9925   27.3880    1.9611 C   0  0  0  0  0  0  0  0  0  0  0  0
   23.2300   28.1379    2.4056 C   0  0  0  0  0  0  0  0  0  0  0  0
   23.6349   26.8248    2.6252 C   0  0  0  0  0  0  0  0  0  0  0  0
   21.3955   26.0685    2.1799 C   0  0  0  0  0  0  0  0  0  0  0  0
   21.9089   28.4254    2.0575 C   0  0  0  0  0  0  0  0  0  0  0  0
   19.7041   27.6614    1.6167 O   0  0  0  0  0  0  0  0  0  0  0  0
   19.4361   28.5473    1.4705 H   0  0  0  0  0  0  0  0  0  0  0  0
   22.5985   30.7322    7.2170 N   0  0  0  0  0  0  0  0  0  0  0  0
   22.8017   31.2979    7.9967 H   0  0  0  0  0  0  0  0  0  0  0  0
   23.0890   29.3297    7.2397 C   0  0  0  0  0  0  0  0  0  0  0  0
   24.5727   29.1701    6.9700 C   0  0  0  0  0  0  0  0  0  0  0  0
   25.0634   28.7897    5.7296 C   0  0  0  0  0  0  0  0  0  0  0  0
   26.4248   28.6451    5.5284 C   0  0  0  0  0  0  0  0  0  0  0  0
   27.3234   28.8734    6.5728 C   0  0  0  0  0  0  0  0  0  0  0  0
   26.8384   29.2574    7.8181 C   0  0  0  0  0  0  0  0  0  0  0  0
   25.4626   29.4061    8.0096 C   0  0  0  0  0  0  0  0  0  0  0  0
   24.9580   29.7686    9.2209 O   0  0  0  0  0  0  0  0  0  0  0  0
   24.0327   29.8642    9.3333 H   0  0  0  0  0  0  0  0  0  0  0  0
 13 12  2  0  0  0
 13 10  1  0  0  0
 12 15  1  0  0  0
  7  9  1  0  0  0
  7  1  1  0  0  0
 10 14  2  0  0  0
 15  9  1  0  0  0
 15 11  2  0  0  0
  2  1  2  0  0  0
  2  3  1  0  0  0
 18  3  1  0  0  0
 18 20  1  0  0  0
  1  6  1  0  0  0
 14 11  1  0  0  0
  3  4  2  0  0  0
 22 23  2  0  0  0
 22 21  1  0  0  0
 11 16  1  0  0  0
 20 21  1  0  0  0
 23 24  1  0  0  0
 21 26  2  0  0  0
  6  5  2  0  0  0
  4  5  1  0  0  0
 24 25  2  0  0  0
 26 25  1  0  0  0
 26 27  1  0  0  0
  7  8  1  0  0  0
 18 19  1  0  0  0
 27 28  1  0  0  0
 16 17  1  0  0  0
M  END
> <minimizedAffinity>
-9.34910

$$$$
4NBN_2J7_B_401


 28 30  0  0  0  0  0  0  0  0999 V2000
   32.1978   26.1382    6.6132 C   0  0  0  0  0  0  0  0  0  0  0  0
   31.2671   27.0090    7.1809 C   0  0  0  0  0  0  0  0  0  0  0  0
   30.6447   26.6853    8.4087 C   0  0  0  0  0  0  0  0  0  0  0  0
   30.9832   25.5433    9.0118 N   0  0  0  0  0  0  0  0  0  0  0  0
   31.8752   24.7370    8.4292 C   0  0  0  0  0  0  0  0  0  0  0  0
   32.4698   25.0069    7.2771 N   0  0  0  0  0  0  0  0  0  0  0  0
   32.8297   26.4864    5.4017 N   0  0  0  0  0  0  0  0  0  0  0  0
   33.7559   26.8161    5.4541 H   0  0  0  0  0  0  0  0  0  0  0  0
   32.2139   26.3969    4.0538 C   0  0  0  0  0  0  0  0  0  0  0  0
   30.4703   30.0916    2.6488 C   0  0  0  0  0  0  0  0  0  0  0  0
   30.9573   27.7426    2.3334 C   0  0  0  0  0  0  0  0  0  0  0  0
   31.6789   28.8613    4.3320 C   0  0  0  0  0  0  0  0  0  0  0  0
   31.1121   30.0495    3.8810 C   0  0  0  0  0  0  0  0  0  0  0  0
   30.3863   28.9333    1.8778 C   0  0  0  0  0  0  0  0  0  0  0  0
   31.5915   27.6969    3.5667 C   0  0  0  0  0  0  0  0  0  0  0  0
   30.8642   26.6092    1.5850 O   0  0  0  0  0  0  0  0  0  0  0  0
   31.2480   25.8117    1.8927 H   0  0  0  0  0  0  0  0  0  0  0  0
   29.6872   27.5541    8.9740 N   0  0  0  0  0  0  0  0  0  0  0  0
   29.2520   27.2693    9.8100 H   0  0  0  0  0  0  0  0  0  0  0  0
   29.2859   28.8661    8.4034 C   0  0  0  0  0  0  0  0  0  0  0  0
   28.0200   28.8365    7.5688 C   0  0  0  0  0  0  0  0  0  0  0  0
   28.0469   28.7337    6.1858 C   0  0  0  0  0  0  0  0  0  0  0  0
   26.8684   28.7209    5.4605 C   0  0  0  0  0  0  0  0  0  0  0  0
   25.6360   28.8181    6.1101 C   0  0  0  0  0  0  0  0  0  0  0  0
   25.6018   28.9191    7.4964 C   0  0  0  0  0  0  0  0  0  0  0  0
   26.7968   28.9255    8.2199 C   0  0  0  0  0  0  0  0  0  0  0  0
   26.7949   29.0358    9.5768 O   0  0  0  0  0  0  0  0  0  0  0  0
   27.6049   29.0385   10.0478 H   0  0  0  0  0  0  0  0  0  0  0  0
 13 12  2  0  0  0
 13 10  1  0  0  0
 12 15  1  0  0  0
  7  9  1  0  0  0
  7  1  1  0  0  0
 10 14  2  0  0  0
 15  9  1  0  0  0
 15 11  2  0  0  0
  2  1  2  0  0  0
  2  3  1  0  0  0
 18  3  1  0  0  0
 18 20  1  0  0  0
  1  6  1  0  0  0
 14 11  1  0  0  0
  3  4  2  0  0  0
 22 23  2  0  0  0
 22 21  1  0  0  0
 11 16  1  0  0  0
 20 21  1  0  0  0
 23 24  1  0  0  0
 21 26  2  0  0  0
  6  5  2  0  0  0
  4  5  1  0  0  0
 24 25  2  0  0  0
 26 25  1  0  0  0
 26 27  1  0  0  0
  7  8  1  0  0  0
 18 19  1  0  0  0
 27 28  1  0  0  0
 16 17  1  0  0  0
M  END
> <minimizedAffinity>
-9.18607

$$$$
4NBN_2J7_B_401


 28 30  0  0  0  0  0  0  0  0999 V2000
   31.8129   25.1707    8.2278 C   0  0  0  0  0  0  0  0  0  0  0  0
   31.2247   26.2852    7.6292 C   0  0  0  0  0  0  0  0  0  0  0  0
   30.3840   27.1378    8.3814 C   0  0  0  0  0  0  0  0  0  0  0  0
   30.1861   26.8590    9.6720 N   0  0  0  0  0  0  0  0  0  0  0  0
   30.7654   25.7782   10.2025 C   0  0  0  0  0  0  0  0  0  0  0  0
   31.5510   24.9558    9.5239 N   0  0  0  0  0  0  0  0  0  0  0  0
   32.6698   24.3443    7.4722 N   0  0  0  0  0  0  0  0  0  0  0  0
   32.5946   23.3720    7.6077 H   0  0  0  0  0  0  0  0  0  0  0  0
   33.6759   24.8190    6.4891 C   0  0  0  0  0  0  0  0  0  0  0  0
   32.1104   25.5125    2.5226 C   0  0  0  0  0  0  0  0  0  0  0  0
   32.5902   24.0154    4.3619 C   0  0  0  0  0  0  0  0  0  0  0  0
   33.1531   26.3438    4.5299 C   0  0  0  0  0  0  0  0  0  0  0  0
   32.6436   26.5671    3.2543 C   0  0  0  0  0  0  0  0  0  0  0  0
   32.0769   24.2360    3.0815 C   0  0  0  0  0  0  0  0  0  0  0  0
   33.1156   25.0686    5.0968 C   0  0  0  0  0  0  0  0  0  0  0  0
   32.5459   22.7707    4.9114 O   0  0  0  0  0  0  0  0  0  0  0  0
   32.8909   22.6252    5.7704 H   0  0  0  0  0  0  0  0  0  0  0  0
   29.7706   28.2534    7.7727 N   0  0  0  0  0  0  0  0  0  0  0  0
   30.1181   28.5427    6.8981 H   0  0  0  0  0  0  0  0  0  0  0  0
   28.6400   29.0246    8.3515 C   0  0  0  0  0  0  0  0  0  0  0  0
   27.3437   28.9372    7.5693 C   0  0  0  0  0  0  0  0  0  0  0  0
   27.3192   28.7607    6.1938 C   0  0  0  0  0  0  0  0  0  0  0  0
   26.1141   28.6968    5.5164 C   0  0  0  0  0  0  0  0  0  0  0  0
   24.9062   28.8160    6.2072 C   0  0  0  0  0  0  0  0  0  0  0  0
   24.9236   28.9908    7.5864 C   0  0  0  0  0  0  0  0  0  0  0  0
   26.1452   29.0484    8.2617 C   0  0  0  0  0  0  0  0  0  0  0  0
   26.1937   29.2313    9.6099 O   0  0  0  0  0  0  0  0  0  0  0  0
   27.0210   29.2677   10.0483 H   0  0  0  0  0  0  0  0  0  0  0  0
 13 12  2  0  0  0
 13 10  1  0  0  0
 12 15  1  0  0  0
  7  9  1  0  0  0
  7  1  1  0  0  0
 10 14  2  0  0  0
 15  9  1  0  0  0
 15 11  2  0  0  0
  2  1  2  0  0  0
  2  3  1  0  0  0
 18  3  1  0  0  0
 18 20  1  0  0  0
  1  6  1  0  0  0
 14 11  1  0  0  0
  3  4  2  0  0  0
 22 23  2  0  0  0
 22 21  1  0  0  0
 11 16  1  0  0  0
 20 21  1  0  0  0
 23 24  1  0  0  0
 21 26  2  0  0  0
  6  5  2  0  0  0
  4  5  1  0  0  0
 24 25  2  0  0  0
 26 25  1  0  0  0
 26 27  1  0  0  0
  7  8  1  0  0  0
 18 19  1  0  0  0
 27 28  1  0  0  0
 16 17  1  0  0  0
M  END
> <minimizedAffinity>
-9.09527

$$$$
4NBN_2J7_B_401


 28 30  0  0  0  0  0  0  0  0999 V2000
   30.1535   27.3326    8.7500 C   0  0  0  0  0  0  0  0  0  0  0  0
   30.9009   26.6144    7.8161 C   0  0  0  0  0  0  0  0  0  0  0  0
   31.5857   25.4393    8.2029 C   0  0  0  0  0  0  0  0  0  0  0  0
   31.4827   25.0309    9.4698 N   0  0  0  0  0  0  0  0  0  0  0  0
   30.7604   25.7526   10.3315 C   0  0  0  0  0  0  0  0  0  0  0  0
   30.1141   26.8609   10.0033 N   0  0  0  0  0  0  0  0  0  0  0  0
   29.4547   28.4879    8.3440 N   0  0  0  0  0  0  0  0  0  0  0  0
   29.4249   29.2428    8.9752 H   0  0  0  0  0  0  0  0  0  0  0  0
   28.7602   28.6602    7.0431 C   0  0  0  0  0  0  0  0  0  0  0  0
   24.4861   29.1818    7.3959 C   0  0  0  0  0  0  0  0  0  0  0  0
   26.6884   29.1346    8.3967 C   0  0  0  0  0  0  0  0  0  0  0  0
   26.4280   28.7193    6.0460 C   0  0  0  0  0  0  0  0  0  0  0  0
   25.0520   28.8929    6.1597 C   0  0  0  0  0  0  0  0  0  0  0  0
   25.3077   29.3106    8.5146 C   0  0  0  0  0  0  0  0  0  0  0  0
   27.2559   28.8540    7.1620 C   0  0  0  0  0  0  0  0  0  0  0  0
   27.4911   29.2725    9.4877 O   0  0  0  0  0  0  0  0  0  0  0  0
   28.4170   29.1540    9.4062 H   0  0  0  0  0  0  0  0  0  0  0  0
   32.3599   24.7232    7.2652 N   0  0  0  0  0  0  0  0  0  0  0  0
   32.2952   23.7409    7.2773 H   0  0  0  0  0  0  0  0  0  0  0  0
   33.2653   25.3394    6.2609 C   0  0  0  0  0  0  0  0  0  0  0  0
   32.7585   25.2901    4.8324 C   0  0  0  0  0  0  0  0  0  0  0  0
   32.5038   26.4382    4.0969 C   0  0  0  0  0  0  0  0  0  0  0  0
   32.0315   26.3492    2.7991 C   0  0  0  0  0  0  0  0  0  0  0  0
   31.7983   25.1026    2.2142 C   0  0  0  0  0  0  0  0  0  0  0  0
   32.0538   23.9478    2.9452 C   0  0  0  0  0  0  0  0  0  0  0  0
   32.5357   24.0482    4.2525 C   0  0  0  0  0  0  0  0  0  0  0  0
   32.7830   22.9352    4.9965 O   0  0  0  0  0  0  0  0  0  0  0  0
   33.1061   23.0193    5.8721 H   0  0  0  0  0  0  0  0  0  0  0  0
 13 12  2  0  0  0
 13 10  1  0  0  0
 12 15  1  0  0  0
  7  9  1  0  0  0
  7  1  1  0  0  0
 10 14  2  0  0  0
 15  9  1  0  0  0
 15 11  2  0  0  0
  2  1  2  0  0  0
  2  3  1  0  0  0
 18  3  1  0  0  0
 18 20  1  0  0  0
  1  6  1  0  0  0
 14 11  1  0  0  0
  3  4  2  0  0  0
 22 23  2  0  0  0
 22 21  1  0  0  0
 11 16  1  0  0  0
 20 21  1  0  0  0
 23 24  1  0  0  0
 21 26  2  0  0  0
  6  5  2  0  0  0
  4  5  1  0  0  0
 24 25  2  0  0  0
 26 25  1  0  0  0
 26 27  1  0  0  0
  7  8  1  0  0  0
 18 19  1  0  0  0
 27 28  1  0  0  0
 16 17  1  0  0  0
M  END
> <minimizedAffinity>
-8.94504

$$$$
4NBN_2J7_B_401


 28 30  0  0  0  0  0  0  0  0999 V2000
   28.0602   29.0036    8.0689 C   0  0  0  0  0  0  0  0  0  0  0  0
   28.8353   28.9199    6.9119 C   0  0  0  0  0  0  0  0  0  0  0  0
   30.0114   28.1349    6.8970 C   0  0  0  0  0  0  0  0  0  0  0  0
   30.3455   27.4686    8.0047 N   0  0  0  0  0  0  0  0  0  0  0  0
   29.5766   27.5821    9.0915 C   0  0  0  0  0  0  0  0  0  0  0  0
   28.4743   28.3145    9.1406 N   0  0  0  0  0  0  0  0  0  0  0  0
   26.8761   29.7691    8.0610 N   0  0  0  0  0  0  0  0  0  0  0  0
   26.9566   30.7229    7.8309 H   0  0  0  0  0  0  0  0  0  0  0  0
   25.5180   29.2556    8.3711 C   0  0  0  0  0  0  0  0  0  0  0  0
   22.8436   29.0927    4.9820 C   0  0  0  0  0  0  0  0  0  0  0  0
   23.3880   29.9088    7.1938 C   0  0  0  0  0  0  0  0  0  0  0  0
   24.8966   28.4279    6.0547 C   0  0  0  0  0  0  0  0  0  0  0  0
   24.0371   28.3805    4.9614 C   0  0  0  0  0  0  0  0  0  0  0  0
   22.5231   29.8644    6.0977 C   0  0  0  0  0  0  0  0  0  0  0  0
   24.5835   29.2047    7.1716 C   0  0  0  0  0  0  0  0  0  0  0  0
   23.0796   30.6724    8.2778 O   0  0  0  0  0  0  0  0  0  0  0  0
   23.6614   30.7006    9.0118 H   0  0  0  0  0  0  0  0  0  0  0  0
   30.8086   28.0660    5.7347 N   0  0  0  0  0  0  0  0  0  0  0  0
   31.0389   27.1717    5.3934 H   0  0  0  0  0  0  0  0  0  0  0  0
   31.3269   29.2408    4.9868 C   0  0  0  0  0  0  0  0  0  0  0  0
   30.8109   29.3690    3.5665 C   0  0  0  0  0  0  0  0  0  0  0  0
   29.8212   28.5394    3.0603 C   0  0  0  0  0  0  0  0  0  0  0  0
   29.3861   28.6829    1.7545 C   0  0  0  0  0  0  0  0  0  0  0  0
   29.9419   29.6602    0.9261 C   0  0  0  0  0  0  0  0  0  0  0  0
   30.9327   30.4967    1.4279 C   0  0  0  0  0  0  0  0  0  0  0  0
   31.3612   30.3475    2.7492 C   0  0  0  0  0  0  0  0  0  0  0  0
   32.3382   31.1435    3.2641 O   0  0  0  0  0  0  0  0  0  0  0  0
   32.6146   31.0310    4.1523 H   0  0  0  0  0  0  0  0  0  0  0  0
 13 12  2  0  0  0
 13 10  1  0  0  0
 12 15  1  0  0  0
  7  9  1  0  0  0
  7  1  1  0  0  0
 10 14  2  0  0  0
 15  9  1  0  0  0
 15 11  2  0  0  0
  2  1  2  0  0  0
  2  3  1  0  0  0
 18  3  1  0  0  0
 18 20  1  0  0  0
  1  6  1  0  0  0
 14 11  1  0  0  0
  3  4  2  0  0  0
 22 23  2  0  0  0
 22 21  1  0  0  0
 11 16  1  0  0  0
 20 21  1  0  0  0
 23 24  1  0  0  0
 21 26  2  0  0  0
  6  5  2  0  0  0
  4  5  1  0  0  0
 24 25  2  0  0  0
 26 25  1  0  0  0
 26 27  1  0  0  0
  7  8  1  0  0  0
 18 19  1  0  0  0
 27 28  1  0  0  0
 16 17  1  0  0  0
M  END
> <minimizedAffinity>
-8.85867

$$$$
4NBN_2J7_B_401


 28 30  0  0  0  0  0  0  0  0999 V2000
   25.3666   28.9581    6.7309 C   0  0  0  0  0  0  0  0  0  0  0  0
   26.6735   28.7812    6.2757 C   0  0  0  0  0  0  0  0  0  0  0  0
   27.7523   28.7775    7.1899 C   0  0  0  0  0  0  0  0  0  0  0  0
   27.4854   28.9282    8.4893 N   0  0  0  0  0  0  0  0  0  0  0  0
   26.2193   29.0999    8.8799 C   0  0  0  0  0  0  0  0  0  0  0  0
   25.1881   29.1163    8.0491 N   0  0  0  0  0  0  0  0  0  0  0  0
   24.2985   28.9334    5.8107 N   0  0  0  0  0  0  0  0  0  0  0  0
   24.5148   28.7247    4.8733 H   0  0  0  0  0  0  0  0  0  0  0  0
   22.8745   29.1963    6.1387 C   0  0  0  0  0  0  0  0  0  0  0  0
   20.6329   30.9327    2.8792 C   0  0  0  0  0  0  0  0  0  0  0  0
   21.9561   29.1250    3.7933 C   0  0  0  0  0  0  0  0  0  0  0  0
   21.4845   31.0636    5.1297 C   0  0  0  0  0  0  0  0  0  0  0  0
   20.7580   31.6195    4.0811 C   0  0  0  0  0  0  0  0  0  0  0  0
   21.2268   29.6795    2.7387 C   0  0  0  0  0  0  0  0  0  0  0  0
   22.0754   29.8057    4.9965 C   0  0  0  0  0  0  0  0  0  0  0  0
   22.5255   27.8957    3.6591 O   0  0  0  0  0  0  0  0  0  0  0  0
   23.0143   27.5259    4.3679 H   0  0  0  0  0  0  0  0  0  0  0  0
   29.0770   28.6204    6.7296 N   0  0  0  0  0  0  0  0  0  0  0  0
   29.2237   28.6228    5.7561 H   0  0  0  0  0  0  0  0  0  0  0  0
   30.2674   28.4515    7.6029 C   0  0  0  0  0  0  0  0  0  0  0  0
   30.9504   27.1019    7.4935 C   0  0  0  0  0  0  0  0  0  0  0  0
   30.8531   26.1398    8.4878 C   0  0  0  0  0  0  0  0  0  0  0  0
   31.5011   24.9244    8.3534 C   0  0  0  0  0  0  0  0  0  0  0  0
   32.2676   24.6523    7.2182 C   0  0  0  0  0  0  0  0  0  0  0  0
   32.3674   25.6115    6.2166 C   0  0  0  0  0  0  0  0  0  0  0  0
   31.7049   26.8330    6.3592 C   0  0  0  0  0  0  0  0  0  0  0  0
   31.7945   27.7959    5.4010 O   0  0  0  0  0  0  0  0  0  0  0  0
   31.3442   28.6101    5.5113 H   0  0  0  0  0  0  0  0  0  0  0  0
 13 12  2  0  0  0
 13 10  1  0  0  0
 12 15  1  0  0  0
  7  9  1  0  0  0
  7  1  1  0  0  0
 10 14  2  0  0  0
 15  9  1  0  0  0
 15 11  2  0  0  0
  2  1  2  0  0  0
  2  3  1  0  0  0
 18  3  1  0  0  0
 18 20  1  0  0  0
  1  6  1  0  0  0
 14 11  1  0  0  0
  3  4  2  0  0  0
 22 23  2  0  0  0
 22 21  1  0  0  0
 11 16  1  0  0  0
 20 21  1  0  0  0
 23 24  1  0  0  0
 21 26  2  0  0  0
  6  5  2  0  0  0
  4  5  1  0  0  0
 24 25  2  0  0  0
 26 25  1  0  0  0
 26 27  1  0  0  0
  7  8  1  0  0  0
 18 19  1  0  0  0
 27 28  1  0  0  0
 16 17  1  0  0  0
M  END
> <minimizedAffinity>
-8.82331

$$$$
4NBN_2J7_B_401


 28 30  0  0  0  0  0  0  0  0999 V2000
   24.4452   29.1385    6.5223 C   0  0  0  0  0  0  0  0  0  0  0  0
   23.6425   28.7743    5.4409 C   0  0  0  0  0  0  0  0  0  0  0  0
   22.3114   29.2431    5.3515 C   0  0  0  0  0  0  0  0  0  0  0  0
   21.8556   30.0507    6.3120 N   0  0  0  0  0  0  0  0  0  0  0  0
   22.6577   30.3692    7.3320 C   0  0  0  0  0  0  0  0  0  0  0  0
   23.9053   29.9409    7.4493 N   0  0  0  0  0  0  0  0  0  0  0  0
   25.7787   28.6846    6.5848 N   0  0  0  0  0  0  0  0  0  0  0  0
   26.0359   27.9539    5.9772 H   0  0  0  0  0  0  0  0  0  0  0  0
   26.8270   29.2175    7.4911 C   0  0  0  0  0  0  0  0  0  0  0  0
   30.8590   28.0824    6.4331 C   0  0  0  0  0  0  0  0  0  0  0  0
   29.0922   28.2803    8.0743 C   0  0  0  0  0  0  0  0  0  0  0  0
   28.7149   28.9900    5.8115 C   0  0  0  0  0  0  0  0  0  0  0  0
   30.0120   28.6190    5.4705 C   0  0  0  0  0  0  0  0  0  0  0  0
   30.3946   27.9057    7.7355 C   0  0  0  0  0  0  0  0  0  0  0  0
   28.2428   28.8088    7.1128 C   0  0  0  0  0  0  0  0  0  0  0  0
   28.6359   28.0961    9.3437 O   0  0  0  0  0  0  0  0  0  0  0  0
   27.7619   28.3482    9.5686 H   0  0  0  0  0  0  0  0  0  0  0  0
   21.4907   28.8587    4.2699 N   0  0  0  0  0  0  0  0  0  0  0  0
   20.6091   28.4750    4.4817 H   0  0  0  0  0  0  0  0  0  0  0  0
   21.8560   28.9890    2.8354 C   0  0  0  0  0  0  0  0  0  0  0  0
   22.5573   27.7808    2.2452 C   0  0  0  0  0  0  0  0  0  0  0  0
   23.8325   27.8554    1.7046 C   0  0  0  0  0  0  0  0  0  0  0  0
   24.4327   26.7308    1.1661 C   0  0  0  0  0  0  0  0  0  0  0  0
   23.7604   25.5068    1.1530 C   0  0  0  0  0  0  0  0  0  0  0  0
   22.4828   25.4245    1.6954 C   0  0  0  0  0  0  0  0  0  0  0  0
   21.8878   26.5643    2.2418 C   0  0  0  0  0  0  0  0  0  0  0  0
   20.6333   26.5169    2.7684 O   0  0  0  0  0  0  0  0  0  0  0  0
   20.2480   27.2901    3.1312 H   0  0  0  0  0  0  0  0  0  0  0  0
 13 12  2  0  0  0
 13 10  1  0  0  0
 12 15  1  0  0  0
  7  9  1  0  0  0
  7  1  1  0  0  0
 10 14  2  0  0  0
 15  9  1  0  0  0
 15 11  2  0  0  0
  2  1  2  0  0  0
  2  3  1  0  0  0
 18  3  1  0  0  0
 18 20  1  0  0  0
  1  6  1  0  0  0
 14 11  1  0  0  0
  3  4  2  0  0  0
 22 23  2  0  0  0
 22 21  1  0  0  0
 11 16  1  0  0  0
 20 21  1  0  0  0
 23 24  1  0  0  0
 21 26  2  0  0  0
  6  5  2  0  0  0
  4  5  1  0  0  0
 24 25  2  0  0  0
 26 25  1  0  0  0
 26 27  1  0  0  0
  7  8  1  0  0  0
 18 19  1  0  0  0
 27 28  1  0  0  0
 16 17  1  0  0  0
M  END
> <minimizedAffinity>
-8.80442

$$$$
