6GWR_FEW_A_1001


 42 46  0  0  0  0  0  0  0  0999 V2000
   -3.3376   17.7867    2.0834 C   0  0  0  0  0  0  0  0  0  0  0  0
   -3.7032   18.3254    0.7751 N   0  0  0  0  0  0  0  0  0  0  0  0
   -2.5689   18.3102    2.7874 O   0  0  0  0  0  0  0  0  0  0  0  0
   -4.3546   17.8256    0.2318 H   0  0  0  0  0  0  0  0  0  0  0  0
   -3.3803   21.5071   -1.2018 C   0  0  0  0  0  0  0  0  0  0  0  0
   -2.0757   21.8914   -0.8656 C   0  0  0  0  0  0  0  0  0  0  0  0
   -1.8187   19.9739    0.5482 C   0  0  0  0  0  0  0  0  0  0  0  0
   -3.1481   19.5814    0.2213 C   0  0  0  0  0  0  0  0  0  0  0  0
   -3.8985   20.3340   -0.6665 C   0  0  0  0  0  0  0  0  0  0  0  0
   -1.2991   21.1058    0.0255 C   0  0  0  0  0  0  0  0  0  0  0  0
    0.0956   21.5148    0.4000 C   0  0  0  0  0  0  0  0  0  0  0  0
    0.8907   20.3679    0.4514 F   0  0  0  0  0  0  0  0  0  0  0  0
    0.1103   22.1139    1.6129 F   0  0  0  0  0  0  0  0  0  0  0  0
    0.6139   22.3995   -0.5640 F   0  0  0  0  0  0  0  0  0  0  0  0
   -4.2090   22.3782   -2.2015 C   0  0  0  0  0  0  0  0  0  0  0  0
   -3.5808   25.9013   -2.1602 C   0  0  0  0  0  0  0  0  0  0  0  0
   -5.7899   25.5707   -1.4415 C   0  0  0  0  0  0  0  0  0  0  0  0
   -5.6027   24.0141   -1.6002 C   0  0  0  0  0  0  0  0  0  0  0  0
   -3.7530   24.4822   -2.8046 C   0  0  0  0  0  0  0  0  0  0  0  0
   -4.9335   27.5425   -1.7907 C   0  0  0  0  0  0  0  0  0  0  0  0
   -4.3481   23.6404   -1.9097 N   0  0  0  0  0  0  0  0  0  0  0  0
   -4.6499   26.3445   -1.4508 N   0  0  0  0  0  0  0  0  0  0  0  0
   -5.0128   14.0080    3.2672 C   0  0  0  0  0  0  0  0  0  0  0  0
   -5.3547   14.5156    2.0541 C   0  0  0  0  0  0  0  0  0  0  0  0
   -4.8344   15.7280    1.6488 C   0  0  0  0  0  0  0  0  0  0  0  0
   -3.9660   16.4306    2.5090 C   0  0  0  0  0  0  0  0  0  0  0  0
   -3.6240   15.9281    3.6919 C   0  0  0  0  0  0  0  0  0  0  0  0
   -4.1443   14.7054    4.0925 C   0  0  0  0  0  0  0  0  0  0  0  0
   -7.0420   12.7141    4.3007 C   0  0  0  0  0  0  0  0  0  0  0  0
   -5.5837   12.6149    3.7500 C   0  0  0  0  0  0  0  0  0  0  0  0
   -5.4570   11.5527    2.6221 C   0  0  0  0  0  0  0  0  0  0  0  0
   -3.7344   14.1723    5.4429 C   0  0  0  0  0  0  0  0  0  0  0  0
   -3.3523   13.7285    6.5666 C   0  0  0  0  0  0  0  0  0  0  0  0
   -2.8777   13.1516    7.9151 C   0  0  0  0  0  0  0  0  0  0  0  0
   -1.7211   12.3343    8.1160 C   0  0  0  0  0  0  0  0  0  0  0  0
   -2.7532   12.6858   10.0180 C   0  0  0  0  0  0  0  0  0  0  0  0
   -3.1230   12.6957   11.3181 C   0  0  0  0  0  0  0  0  0  0  0  0
   -4.9913   14.0641   10.8066 C   0  0  0  0  0  0  0  0  0  0  0  0
   -4.6293   14.0558    9.5097 C   0  0  0  0  0  0  0  0  0  0  0  0
   -1.6717   12.0652    9.3971 N   0  0  0  0  0  0  0  0  0  0  0  0
   -4.2772   13.4094   11.7093 N   0  0  0  0  0  0  0  0  0  0  0  0
   -3.4660   13.3347    9.1256 N   0  0  0  0  0  0  0  0  0  0  0  0
 19 16  1  0  0  0
 19 21  1  0  0  0
 15 21  1  0  0  0
 15  5  1  0  0  0
 16 22  1  0  0  0
 21 18  1  0  0  0
  5  6  2  0  0  0
  5  9  1  0  0  0
 22 20  1  0  0  0
 22 17  1  0  0  0
  6 10  1  0  0  0
  9  8  2  0  0  0
 18 17  1  0  0  0
 14 11  1  0  0  0
 10 11  1  0  0  0
 10  7  2  0  0  0
  8  7  1  0  0  0
  8  2  1  0  0  0
 11 12  1  0  0  0
 11 13  1  0  0  0
  2  1  1  0  0  0
 25 24  2  0  0  0
 25 26  1  0  0  0
 24 23  1  0  0  0
  1 26  1  0  0  0
  1  3  2  0  0  0
 31 30  1  0  0  0
 26 27  2  0  0  0
 23 30  1  0  0  0
 23 28  2  0  0  0
 27 28  1  0  0  0
 30 29  1  0  0  0
 28 32  1  0  0  0
 32 33  3  0  0  0
 33 34  1  0  0  0
 34 35  2  0  0  0
 34 42  1  0  0  0
 35 40  1  0  0  0
 42 39  1  0  0  0
 42 36  1  0  0  0
 40 36  2  0  0  0
 39 38  2  0  0  0
 36 37  1  0  0  0
 38 41  1  0  0  0
 37 41  2  0  0  0
  2  4  1  0  0  0
M  END
> <minimizedAffinity>
-12.38203

$$$$
6GWR_FEW_A_1001


 42 46  0  0  0  0  0  0  0  0999 V2000
   -3.4525   17.7716    2.0543 C   0  0  0  0  0  0  0  0  0  0  0  0
   -3.8556   18.3256    0.7635 N   0  0  0  0  0  0  0  0  0  0  0  0
   -2.6832   18.3004    2.7538 O   0  0  0  0  0  0  0  0  0  0  0  0
   -4.5051   17.8204    0.2230 H   0  0  0  0  0  0  0  0  0  0  0  0
   -3.6796   21.5947   -1.0851 C   0  0  0  0  0  0  0  0  0  0  0  0
   -2.3491   21.9601   -0.8421 C   0  0  0  0  0  0  0  0  0  0  0  0
   -1.9865   19.9785    0.4555 C   0  0  0  0  0  0  0  0  0  0  0  0
   -3.3410   19.6046    0.2235 C   0  0  0  0  0  0  0  0  0  0  0  0
   -4.1584   20.3993   -0.5627 C   0  0  0  0  0  0  0  0  0  0  0  0
   -1.5056   21.1323   -0.0563 C   0  0  0  0  0  0  0  0  0  0  0  0
   -0.0819   21.5203    0.2183 C   0  0  0  0  0  0  0  0  0  0  0  0
    0.6767   20.3537    0.3338 F   0  0  0  0  0  0  0  0  0  0  0  0
    0.0102   22.2200    1.3725 F   0  0  0  0  0  0  0  0  0  0  0  0
    0.4184   22.2998   -0.8413 F   0  0  0  0  0  0  0  0  0  0  0  0
   -4.5838   22.5131   -1.9707 C   0  0  0  0  0  0  0  0  0  0  0  0
   -8.0626   22.2826   -1.1625 C   0  0  0  0  0  0  0  0  0  0  0  0
   -7.8329   21.7712   -3.4410 C   0  0  0  0  0  0  0  0  0  0  0  0
   -6.2744   21.9726   -3.3233 C   0  0  0  0  0  0  0  0  0  0  0  0
   -6.6778   22.9933   -1.3519 C   0  0  0  0  0  0  0  0  0  0  0  0
   -9.7640   21.9691   -2.4535 C   0  0  0  0  0  0  0  0  0  0  0  0
   -5.8413   22.1862   -2.0678 N   0  0  0  0  0  0  0  0  0  0  0  0
   -8.5412   21.6521   -2.2652 N   0  0  0  0  0  0  0  0  0  0  0  0
   -5.0148   13.9321    3.1958 C   0  0  0  0  0  0  0  0  0  0  0  0
   -5.4083   14.4636    2.0088 C   0  0  0  0  0  0  0  0  0  0  0  0
   -4.9250   15.6960    1.6178 C   0  0  0  0  0  0  0  0  0  0  0  0
   -4.0403   16.3931    2.4656 C   0  0  0  0  0  0  0  0  0  0  0  0
   -3.6479   15.8673    3.6225 C   0  0  0  0  0  0  0  0  0  0  0  0
   -4.1311   14.6250    4.0086 C   0  0  0  0  0  0  0  0  0  0  0  0
   -7.0059   12.5623    4.2053 C   0  0  0  0  0  0  0  0  0  0  0  0
   -5.5424   12.5162    3.6613 C   0  0  0  0  0  0  0  0  0  0  0  0
   -5.3758   11.4704    2.5233 C   0  0  0  0  0  0  0  0  0  0  0  0
   -3.6644   14.0656    5.3297 C   0  0  0  0  0  0  0  0  0  0  0  0
   -3.3030   13.6137    6.4570 C   0  0  0  0  0  0  0  0  0  0  0  0
   -2.8486   13.1024    7.8385 C   0  0  0  0  0  0  0  0  0  0  0  0
   -1.6642   12.3453    8.1034 C   0  0  0  0  0  0  0  0  0  0  0  0
   -2.7738   12.7102    9.9587 C   0  0  0  0  0  0  0  0  0  0  0  0
   -3.1868   12.7448   11.2452 C   0  0  0  0  0  0  0  0  0  0  0  0
   -5.0960   14.0097   10.6289 C   0  0  0  0  0  0  0  0  0  0  0  0
   -4.6909   13.9764    9.3453 C   0  0  0  0  0  0  0  0  0  0  0  0
   -1.6457   12.1198    9.3937 N   0  0  0  0  0  0  0  0  0  0  0  0
   -4.3841   13.4173   11.5753 N   0  0  0  0  0  0  0  0  0  0  0  0
   -3.4845   13.2971    9.0228 N   0  0  0  0  0  0  0  0  0  0  0  0
 19 16  1  0  0  0
 19 21  1  0  0  0
 15 21  1  0  0  0
 15  5  1  0  0  0
 16 22  1  0  0  0
 21 18  1  0  0  0
  5  6  2  0  0  0
  5  9  1  0  0  0
 22 20  1  0  0  0
 22 17  1  0  0  0
  6 10  1  0  0  0
  9  8  2  0  0  0
 18 17  1  0  0  0
 14 11  1  0  0  0
 10 11  1  0  0  0
 10  7  2  0  0  0
  8  7  1  0  0  0
  8  2  1  0  0  0
 11 12  1  0  0  0
 11 13  1  0  0  0
  2  1  1  0  0  0
 25 24  2  0  0  0
 25 26  1  0  0  0
 24 23  1  0  0  0
  1 26  1  0  0  0
  1  3  2  0  0  0
 31 30  1  0  0  0
 26 27  2  0  0  0
 23 30  1  0  0  0
 23 28  2  0  0  0
 27 28  1  0  0  0
 30 29  1  0  0  0
 28 32  1  0  0  0
 32 33  3  0  0  0
 33 34  1  0  0  0
 34 35  2  0  0  0
 34 42  1  0  0  0
 35 40  1  0  0  0
 42 39  1  0  0  0
 42 36  1  0  0  0
 40 36  2  0  0  0
 39 38  2  0  0  0
 36 37  1  0  0  0
 38 41  1  0  0  0
 37 41  2  0  0  0
  2  4  1  0  0  0
M  END
> <minimizedAffinity>
-12.16635

$$$$
6GWR_FEW_A_1001


 42 46  0  0  0  0  0  0  0  0999 V2000
   -3.6126   17.8174    2.3096 C   0  0  0  0  0  0  0  0  0  0  0  0
   -3.8594   18.2397    0.9325 N   0  0  0  0  0  0  0  0  0  0  0  0
   -2.9211   18.4127    3.0364 O   0  0  0  0  0  0  0  0  0  0  0  0
   -4.4496   17.6836    0.3743 H   0  0  0  0  0  0  0  0  0  0  0  0
   -3.4591   21.3427   -1.1523 C   0  0  0  0  0  0  0  0  0  0  0  0
   -2.1379   21.6937   -0.8461 C   0  0  0  0  0  0  0  0  0  0  0  0
   -1.9246   19.8156    0.6268 C   0  0  0  0  0  0  0  0  0  0  0  0
   -3.2708   19.4576    0.3304 C   0  0  0  0  0  0  0  0  0  0  0  0
   -4.0084   20.2057   -0.5719 C   0  0  0  0  0  0  0  0  0  0  0  0
   -1.3753   20.9118    0.0603 C   0  0  0  0  0  0  0  0  0  0  0  0
    0.0374   21.2857    0.4028 C   0  0  0  0  0  0  0  0  0  0  0  0
    0.0301   21.9521    1.6299 F   0  0  0  0  0  0  0  0  0  0  0  0
    0.5582   22.1055   -0.5389 F   0  0  0  0  0  0  0  0  0  0  0  0
    0.8313   20.1280    0.5047 F   0  0  0  0  0  0  0  0  0  0  0  0
   -4.2727   22.2081   -2.1693 C   0  0  0  0  0  0  0  0  0  0  0  0
   -3.5362   25.7094   -2.2579 C   0  0  0  0  0  0  0  0  0  0  0  0
   -5.7384   25.4716   -1.4837 C   0  0  0  0  0  0  0  0  0  0  0  0
   -5.6024   23.9056   -1.5944 C   0  0  0  0  0  0  0  0  0  0  0  0
   -3.7655   24.2761   -2.8511 C   0  0  0  0  0  0  0  0  0  0  0  0
   -4.8297   27.4032   -1.9156 C   0  0  0  0  0  0  0  0  0  0  0  0
   -4.3667   23.4829   -1.9168 N   0  0  0  0  0  0  0  0  0  0  0  0
   -4.5758   26.2086   -1.5420 N   0  0  0  0  0  0  0  0  0  0  0  0
   -5.4190   14.1677    3.6888 C   0  0  0  0  0  0  0  0  0  0  0  0
   -4.1202   14.1365    3.2910 C   0  0  0  0  0  0  0  0  0  0  0  0
   -3.5149   15.2924    2.8409 C   0  0  0  0  0  0  0  0  0  0  0  0
   -4.2606   16.4877    2.7860 C   0  0  0  0  0  0  0  0  0  0  0  0
   -5.5288   16.5193    3.1853 C   0  0  0  0  0  0  0  0  0  0  0  0
   -6.1314   15.3561    3.6434 C   0  0  0  0  0  0  0  0  0  0  0  0
   -5.7695   11.5894    3.3903 C   0  0  0  0  0  0  0  0  0  0  0  0
   -6.1323   12.8610    4.2215 C   0  0  0  0  0  0  0  0  0  0  0  0
   -5.8524   12.6661    5.7381 C   0  0  0  0  0  0  0  0  0  0  0  0
   -7.5723   15.4337    4.0832 C   0  0  0  0  0  0  0  0  0  0  0  0
   -8.7766   15.5363    4.4638 C   0  0  0  0  0  0  0  0  0  0  0  0
  -10.2286   15.6580    4.9672 C   0  0  0  0  0  0  0  0  0  0  0  0
  -11.3712   15.9632    4.1627 C   0  0  0  0  0  0  0  0  0  0  0  0
  -11.9607   15.6675    6.2534 C   0  0  0  0  0  0  0  0  0  0  0  0
  -12.6515   15.5581    7.4101 C   0  0  0  0  0  0  0  0  0  0  0  0
  -10.6560   15.0542    8.5884 C   0  0  0  0  0  0  0  0  0  0  0  0
   -9.9621   15.1643    7.4398 C   0  0  0  0  0  0  0  0  0  0  0  0
  -12.4050   15.9649    4.9672 N   0  0  0  0  0  0  0  0  0  0  0  0
  -11.9666   15.2419    8.6041 N   0  0  0  0  0  0  0  0  0  0  0  0
  -10.6601   15.4828    6.2431 N   0  0  0  0  0  0  0  0  0  0  0  0
 19 16  1  0  0  0
 19 21  1  0  0  0
 15 21  1  0  0  0
 15  5  1  0  0  0
 16 22  1  0  0  0
 21 18  1  0  0  0
  5  6  2  0  0  0
  5  9  1  0  0  0
 22 20  1  0  0  0
 22 17  1  0  0  0
  6 10  1  0  0  0
  9  8  2  0  0  0
 18 17  1  0  0  0
 14 11  1  0  0  0
 10 11  1  0  0  0
 10  7  2  0  0  0
  8  7  1  0  0  0
  8  2  1  0  0  0
 11 12  1  0  0  0
 11 13  1  0  0  0
  2  1  1  0  0  0
 25 24  2  0  0  0
 25 26  1  0  0  0
 24 23  1  0  0  0
  1 26  1  0  0  0
  1  3  2  0  0  0
 31 30  1  0  0  0
 26 27  2  0  0  0
 23 30  1  0  0  0
 23 28  2  0  0  0
 27 28  1  0  0  0
 30 29  1  0  0  0
 28 32  1  0  0  0
 32 33  3  0  0  0
 33 34  1  0  0  0
 34 35  2  0  0  0
 34 42  1  0  0  0
 35 40  1  0  0  0
 42 39  1  0  0  0
 42 36  1  0  0  0
 40 36  2  0  0  0
 39 38  2  0  0  0
 36 37  1  0  0  0
 38 41  1  0  0  0
 37 41  2  0  0  0
  2  4  1  0  0  0
M  END
> <minimizedAffinity>
-10.99146

$$$$
6GWR_FEW_A_1001


 42 46  0  0  0  0  0  0  0  0999 V2000
   -3.9698   17.2787    2.3333 C   0  0  0  0  0  0  0  0  0  0  0  0
   -5.3734   17.0005    2.0360 N   0  0  0  0  0  0  0  0  0  0  0  0
   -3.3921   16.7484    3.1969 O   0  0  0  0  0  0  0  0  0  0  0  0
   -5.7981   17.4914    1.2958 H   0  0  0  0  0  0  0  0  0  0  0  0
   -8.0504   15.5437    4.2375 C   0  0  0  0  0  0  0  0  0  0  0  0
   -7.6753   14.1939    4.2451 C   0  0  0  0  0  0  0  0  0  0  0  0
   -5.8116   14.6489    2.8095 C   0  0  0  0  0  0  0  0  0  0  0  0
   -6.1919   16.0212    2.7864 C   0  0  0  0  0  0  0  0  0  0  0  0
   -7.2845   16.4539    3.5191 C   0  0  0  0  0  0  0  0  0  0  0  0
   -6.5409   13.7561    3.5133 C   0  0  0  0  0  0  0  0  0  0  0  0
   -6.1373   12.3104    3.5068 C   0  0  0  0  0  0  0  0  0  0  0  0
   -6.0130   11.8952    2.1793 F   0  0  0  0  0  0  0  0  0  0  0  0
   -7.0726   11.5488    4.1193 F   0  0  0  0  0  0  0  0  0  0  0  0
   -4.9027   12.1515    4.1634 F   0  0  0  0  0  0  0  0  0  0  0  0
   -9.2923   16.0054    5.0679 C   0  0  0  0  0  0  0  0  0  0  0  0
   -8.8541   14.4180    8.2455 C   0  0  0  0  0  0  0  0  0  0  0  0
  -11.1606   14.6686    7.8948 C   0  0  0  0  0  0  0  0  0  0  0  0
  -10.8700   15.3344    6.4964 C   0  0  0  0  0  0  0  0  0  0  0  0
   -8.7358   15.5709    7.1892 C   0  0  0  0  0  0  0  0  0  0  0  0
  -10.3127   13.9309    9.7603 C   0  0  0  0  0  0  0  0  0  0  0  0
   -9.5729   15.3206    6.1403 N   0  0  0  0  0  0  0  0  0  0  0  0
  -10.1198   13.9985    8.4996 N   0  0  0  0  0  0  0  0  0  0  0  0
   -2.0122   20.2695   -0.0560 C   0  0  0  0  0  0  0  0  0  0  0  0
   -1.2571   19.5216    0.7905 C   0  0  0  0  0  0  0  0  0  0  0  0
   -1.8589   18.5560    1.5718 C   0  0  0  0  0  0  0  0  0  0  0  0
   -3.2542   18.3707    1.4906 C   0  0  0  0  0  0  0  0  0  0  0  0
   -3.9909   19.0964    0.6542 C   0  0  0  0  0  0  0  0  0  0  0  0
   -3.3806   20.0617   -0.1344 C   0  0  0  0  0  0  0  0  0  0  0  0
   -0.3134   22.2574   -0.2037 C   0  0  0  0  0  0  0  0  0  0  0  0
   -1.3462   21.3728   -0.9720 C   0  0  0  0  0  0  0  0  0  0  0  0
   -0.7287   20.7263   -2.2437 C   0  0  0  0  0  0  0  0  0  0  0  0
   -4.2523   20.8657   -1.0669 C   0  0  0  0  0  0  0  0  0  0  0  0
   -4.9809   21.5720   -1.8258 C   0  0  0  0  0  0  0  0  0  0  0  0
   -5.8993   22.4267   -2.7216 C   0  0  0  0  0  0  0  0  0  0  0  0
   -6.9458   21.9321   -3.5620 C   0  0  0  0  0  0  0  0  0  0  0  0
   -6.8180   24.1164   -3.6991 C   0  0  0  0  0  0  0  0  0  0  0  0
   -7.0113   25.4162   -4.0155 C   0  0  0  0  0  0  0  0  0  0  0  0
   -5.2499   26.0618   -2.5646 C   0  0  0  0  0  0  0  0  0  0  0  0
   -5.0510   24.7684   -2.2474 C   0  0  0  0  0  0  0  0  0  0  0  0
   -7.4830   22.9759   -4.1433 N   0  0  0  0  0  0  0  0  0  0  0  0
   -6.1966   26.4066   -3.4238 N   0  0  0  0  0  0  0  0  0  0  0  0
   -5.8760   23.7788   -2.8481 N   0  0  0  0  0  0  0  0  0  0  0  0
 19 16  1  0  0  0
 19 21  1  0  0  0
 15 21  1  0  0  0
 15  5  1  0  0  0
 16 22  1  0  0  0
 21 18  1  0  0  0
  5  6  2  0  0  0
  5  9  1  0  0  0
 22 20  1  0  0  0
 22 17  1  0  0  0
  6 10  1  0  0  0
  9  8  2  0  0  0
 18 17  1  0  0  0
 14 11  1  0  0  0
 10 11  1  0  0  0
 10  7  2  0  0  0
  8  7  1  0  0  0
  8  2  1  0  0  0
 11 12  1  0  0  0
 11 13  1  0  0  0
  2  1  1  0  0  0
 25 24  2  0  0  0
 25 26  1  0  0  0
 24 23  1  0  0  0
  1 26  1  0  0  0
  1  3  2  0  0  0
 31 30  1  0  0  0
 26 27  2  0  0  0
 23 30  1  0  0  0
 23 28  2  0  0  0
 27 28  1  0  0  0
 30 29  1  0  0  0
 28 32  1  0  0  0
 32 33  3  0  0  0
 33 34  1  0  0  0
 34 35  2  0  0  0
 34 42  1  0  0  0
 35 40  1  0  0  0
 42 39  1  0  0  0
 42 36  1  0  0  0
 40 36  2  0  0  0
 39 38  2  0  0  0
 36 37  1  0  0  0
 38 41  1  0  0  0
 37 41  2  0  0  0
  2  4  1  0  0  0
M  END
> <minimizedAffinity>
-9.90161

$$$$
6GWR_FEW_A_1001


 42 46  0  0  0  0  0  0  0  0999 V2000
   -3.8925   17.1060    2.3265 C   0  0  0  0  0  0  0  0  0  0  0  0
   -5.2210   16.6463    1.9272 N   0  0  0  0  0  0  0  0  0  0  0  0
   -3.3242   16.6669    3.2457 O   0  0  0  0  0  0  0  0  0  0  0  0
   -5.6429   17.0677    1.1439 H   0  0  0  0  0  0  0  0  0  0  0  0
   -7.7685   14.9183    4.0858 C   0  0  0  0  0  0  0  0  0  0  0  0
   -7.3152   13.5947    4.0149 C   0  0  0  0  0  0  0  0  0  0  0  0
   -5.5072   14.2351    2.5787 C   0  0  0  0  0  0  0  0  0  0  0  0
   -5.9674   15.5816    2.6355 C   0  0  0  0  0  0  0  0  0  0  0  0
   -7.0701   15.9093    3.4065 C   0  0  0  0  0  0  0  0  0  0  0  0
   -6.1704   13.2644    3.2438 C   0  0  0  0  0  0  0  0  0  0  0  0
   -5.6832   11.8476    3.1532 C   0  0  0  0  0  0  0  0  0  0  0  0
   -6.4723   11.0574    3.9916 F   0  0  0  0  0  0  0  0  0  0  0  0
   -4.3934   11.7578    3.5512 F   0  0  0  0  0  0  0  0  0  0  0  0
   -5.7969   11.3823    1.8298 F   0  0  0  0  0  0  0  0  0  0  0  0
   -9.0203   15.2608    4.9581 C   0  0  0  0  0  0  0  0  0  0  0  0
   -9.4747   16.6689    8.2169 C   0  0  0  0  0  0  0  0  0  0  0  0
   -8.0911   14.7879    8.4483 C   0  0  0  0  0  0  0  0  0  0  0  0
   -8.1653   14.5488    6.8925 C   0  0  0  0  0  0  0  0  0  0  0  0
   -9.9117   15.9774    6.8791 C   0  0  0  0  0  0  0  0  0  0  0  0
   -8.8526   15.9224   10.1444 C   0  0  0  0  0  0  0  0  0  0  0  0
   -8.8093   15.5181    6.2178 N   0  0  0  0  0  0  0  0  0  0  0  0
   -8.5139   16.0129    8.9163 N   0  0  0  0  0  0  0  0  0  0  0  0
   -2.1540   20.2939    0.0241 C   0  0  0  0  0  0  0  0  0  0  0  0
   -1.3288   19.4986    0.7540 C   0  0  0  0  0  0  0  0  0  0  0  0
   -1.8592   18.4691    1.5049 C   0  0  0  0  0  0  0  0  0  0  0  0
   -3.2546   18.2679    1.5153 C   0  0  0  0  0  0  0  0  0  0  0  0
   -4.0604   19.0405    0.7925 C   0  0  0  0  0  0  0  0  0  0  0  0
   -3.5221   20.0703    0.0337 C   0  0  0  0  0  0  0  0  0  0  0  0
   -0.5223   22.3394   -0.0899 C   0  0  0  0  0  0  0  0  0  0  0  0
   -1.5713   21.4715   -0.8554 C   0  0  0  0  0  0  0  0  0  0  0  0
   -1.0079   20.9237   -2.1966 C   0  0  0  0  0  0  0  0  0  0  0  0
   -4.4706   20.9260   -0.7688 C   0  0  0  0  0  0  0  0  0  0  0  0
   -5.2530   21.6285   -1.4759 C   0  0  0  0  0  0  0  0  0  0  0  0
   -6.1722   22.5079   -2.3468 C   0  0  0  0  0  0  0  0  0  0  0  0
   -5.7960   23.7246   -2.9979 C   0  0  0  0  0  0  0  0  0  0  0  0
   -7.8940   23.2461   -3.4167 C   0  0  0  0  0  0  0  0  0  0  0  0
   -9.1700   23.2586   -3.8625 C   0  0  0  0  0  0  0  0  0  0  0  0
   -9.6178   21.2256   -2.7263 C   0  0  0  0  0  0  0  0  0  0  0  0
   -8.3485   21.2091   -2.2771 C   0  0  0  0  0  0  0  0  0  0  0  0
   -6.8578   24.1508   -3.6358 N   0  0  0  0  0  0  0  0  0  0  0  0
  -10.0459   22.2120   -3.4990 N   0  0  0  0  0  0  0  0  0  0  0  0
   -7.4744   22.2668   -2.6484 N   0  0  0  0  0  0  0  0  0  0  0  0
 19 16  1  0  0  0
 19 21  1  0  0  0
 15 21  1  0  0  0
 15  5  1  0  0  0
 16 22  1  0  0  0
 21 18  1  0  0  0
  5  6  2  0  0  0
  5  9  1  0  0  0
 22 20  1  0  0  0
 22 17  1  0  0  0
  6 10  1  0  0  0
  9  8  2  0  0  0
 18 17  1  0  0  0
 14 11  1  0  0  0
 10 11  1  0  0  0
 10  7  2  0  0  0
  8  7  1  0  0  0
  8  2  1  0  0  0
 11 12  1  0  0  0
 11 13  1  0  0  0
  2  1  1  0  0  0
 25 24  2  0  0  0
 25 26  1  0  0  0
 24 23  1  0  0  0
  1 26  1  0  0  0
  1  3  2  0  0  0
 31 30  1  0  0  0
 26 27  2  0  0  0
 23 30  1  0  0  0
 23 28  2  0  0  0
 27 28  1  0  0  0
 30 29  1  0  0  0
 28 32  1  0  0  0
 32 33  3  0  0  0
 33 34  1  0  0  0
 34 35  2  0  0  0
 34 42  1  0  0  0
 35 40  1  0  0  0
 42 39  1  0  0  0
 42 36  1  0  0  0
 40 36  2  0  0  0
 39 38  2  0  0  0
 36 37  1  0  0  0
 38 41  1  0  0  0
 37 41  2  0  0  0
  2  4  1  0  0  0
M  END
> <minimizedAffinity>
-9.72802

$$$$
6GWR_FEW_A_1001


 42 46  0  0  0  0  0  0  0  0999 V2000
   -9.8753   18.2131    2.7821 C   0  0  0  0  0  0  0  0  0  0  0  0
   -8.7269   17.9571    3.6488 N   0  0  0  0  0  0  0  0  0  0  0  0
  -10.7820   17.4831    2.7063 O   0  0  0  0  0  0  0  0  0  0  0  0
   -7.9944   18.6149    3.6565 H   0  0  0  0  0  0  0  0  0  0  0  0
   -7.4810   14.7128    5.0831 C   0  0  0  0  0  0  0  0  0  0  0  0
   -8.4241   14.4967    6.0963 C   0  0  0  0  0  0  0  0  0  0  0  0
   -9.5649   16.5293    5.5407 C   0  0  0  0  0  0  0  0  0  0  0  0
   -8.6041   16.7633    4.5159 C   0  0  0  0  0  0  0  0  0  0  0  0
   -7.5956   15.8432    4.2829 C   0  0  0  0  0  0  0  0  0  0  0  0
   -9.4714   15.4285    6.3178 C   0  0  0  0  0  0  0  0  0  0  0  0
  -10.4804   15.2111    7.4075 C   0  0  0  0  0  0  0  0  0  0  0  0
  -10.0111   14.1966    8.2445 F   0  0  0  0  0  0  0  0  0  0  0  0
  -11.6725   14.8364    6.8893 F   0  0  0  0  0  0  0  0  0  0  0  0
  -10.6464   16.3928    8.1537 F   0  0  0  0  0  0  0  0  0  0  0  0
   -6.3480   13.6617    4.8450 C   0  0  0  0  0  0  0  0  0  0  0  0
   -4.6394   12.9370    7.9051 C   0  0  0  0  0  0  0  0  0  0  0  0
   -3.0101   13.3849    6.2770 C   0  0  0  0  0  0  0  0  0  0  0  0
   -4.1477   13.6380    5.2163 C   0  0  0  0  0  0  0  0  0  0  0  0
   -5.5561   12.6386    6.6684 C   0  0  0  0  0  0  0  0  0  0  0  0
   -2.5284   12.6957    8.2861 C   0  0  0  0  0  0  0  0  0  0  0  0
   -5.3914   13.6147    5.7283 N   0  0  0  0  0  0  0  0  0  0  0  0
   -3.3835   13.3539    7.6029 N   0  0  0  0  0  0  0  0  0  0  0  0
   -9.7312   21.7615    0.3584 C   0  0  0  0  0  0  0  0  0  0  0  0
  -10.9262   21.3855    0.8844 C   0  0  0  0  0  0  0  0  0  0  0  0
  -11.0030   20.2492    1.6642 C   0  0  0  0  0  0  0  0  0  0  0  0
   -9.8398   19.4854    1.8905 C   0  0  0  0  0  0  0  0  0  0  0  0
   -8.6687   19.8599    1.3836 C   0  0  0  0  0  0  0  0  0  0  0  0
   -8.5949   21.0068    0.6056 C   0  0  0  0  0  0  0  0  0  0  0  0
  -10.0874   22.8465   -1.9986 C   0  0  0  0  0  0  0  0  0  0  0  0
   -9.6128   23.0662   -0.5268 C   0  0  0  0  0  0  0  0  0  0  0  0
  -10.3489   24.2551    0.1522 C   0  0  0  0  0  0  0  0  0  0  0  0
   -7.2486   21.3948    0.0463 C   0  0  0  0  0  0  0  0  0  0  0  0
   -6.1047   21.6843   -0.4155 C   0  0  0  0  0  0  0  0  0  0  0  0
   -4.6983   22.0393   -0.9375 C   0  0  0  0  0  0  0  0  0  0  0  0
   -4.3614   23.1854   -1.7243 C   0  0  0  0  0  0  0  0  0  0  0  0
   -2.5779   21.9728   -1.3304 C   0  0  0  0  0  0  0  0  0  0  0  0
   -1.3194   21.4819   -1.2847 C   0  0  0  0  0  0  0  0  0  0  0  0
   -2.0512   19.6473    0.0280 C   0  0  0  0  0  0  0  0  0  0  0  0
   -3.3074   20.1301   -0.0162 C   0  0  0  0  0  0  0  0  0  0  0  0
   -3.0726   23.1183   -1.9495 N   0  0  0  0  0  0  0  0  0  0  0  0
   -1.0632   20.2839   -0.5818 N   0  0  0  0  0  0  0  0  0  0  0  0
   -3.5554   21.3364   -0.7261 N   0  0  0  0  0  0  0  0  0  0  0  0
 19 16  1  0  0  0
 19 21  1  0  0  0
 15 21  1  0  0  0
 15  5  1  0  0  0
 16 22  1  0  0  0
 21 18  1  0  0  0
  5  6  2  0  0  0
  5  9  1  0  0  0
 22 20  1  0  0  0
 22 17  1  0  0  0
  6 10  1  0  0  0
  9  8  2  0  0  0
 18 17  1  0  0  0
 14 11  1  0  0  0
 10 11  1  0  0  0
 10  7  2  0  0  0
  8  7  1  0  0  0
  8  2  1  0  0  0
 11 12  1  0  0  0
 11 13  1  0  0  0
  2  1  1  0  0  0
 25 24  2  0  0  0
 25 26  1  0  0  0
 24 23  1  0  0  0
  1 26  1  0  0  0
  1  3  2  0  0  0
 31 30  1  0  0  0
 26 27  2  0  0  0
 23 30  1  0  0  0
 23 28  2  0  0  0
 27 28  1  0  0  0
 30 29  1  0  0  0
 28 32  1  0  0  0
 32 33  3  0  0  0
 33 34  1  0  0  0
 34 35  2  0  0  0
 34 42  1  0  0  0
 35 40  1  0  0  0
 42 39  1  0  0  0
 42 36  1  0  0  0
 40 36  2  0  0  0
 39 38  2  0  0  0
 36 37  1  0  0  0
 38 41  1  0  0  0
 37 41  2  0  0  0
  2  4  1  0  0  0
M  END
> <minimizedAffinity>
-9.70715

$$$$
6GWR_FEW_A_1001


 42 46  0  0  0  0  0  0  0  0999 V2000
   -3.6883   17.6537    2.0005 C   0  0  0  0  0  0  0  0  0  0  0  0
   -5.1432   17.5518    2.0933 N   0  0  0  0  0  0  0  0  0  0  0  0
   -2.9691   16.9366    2.5743 O   0  0  0  0  0  0  0  0  0  0  0  0
   -5.6878   18.1961    1.5858 H   0  0  0  0  0  0  0  0  0  0  0  0
   -5.8827   14.3547    3.9281 C   0  0  0  0  0  0  0  0  0  0  0  0
   -7.1876   14.6051    4.3723 C   0  0  0  0  0  0  0  0  0  0  0  0
   -7.1744   16.7741    3.3541 C   0  0  0  0  0  0  0  0  0  0  0  0
   -5.8435   16.5332    2.9082 C   0  0  0  0  0  0  0  0  0  0  0  0
   -5.2275   15.3220    3.1756 C   0  0  0  0  0  0  0  0  0  0  0  0
   -7.8264   15.8374    4.0765 C   0  0  0  0  0  0  0  0  0  0  0  0
   -9.2202   16.1192    4.5569 C   0  0  0  0  0  0  0  0  0  0  0  0
   -9.1373   16.7443    5.8029 F   0  0  0  0  0  0  0  0  0  0  0  0
   -9.9235   14.9709    4.6877 F   0  0  0  0  0  0  0  0  0  0  0  0
   -9.8798   16.9701    3.6505 F   0  0  0  0  0  0  0  0  0  0  0  0
   -5.2073   12.9814    4.2492 C   0  0  0  0  0  0  0  0  0  0  0  0
   -2.7772   13.2063    6.8671 C   0  0  0  0  0  0  0  0  0  0  0  0
   -4.8650   12.8379    7.8729 C   0  0  0  0  0  0  0  0  0  0  0  0
   -5.5379   12.7982    6.4486 C   0  0  0  0  0  0  0  0  0  0  0  0
   -3.6350   13.7175    5.6581 C   0  0  0  0  0  0  0  0  0  0  0  0
   -3.0510   13.2440    9.0080 C   0  0  0  0  0  0  0  0  0  0  0  0
   -4.6647   12.8515    5.4267 N   0  0  0  0  0  0  0  0  0  0  0  0
   -3.4917   12.7372    7.9216 N   0  0  0  0  0  0  0  0  0  0  0  0
   -2.0713   20.8129   -0.4265 C   0  0  0  0  0  0  0  0  0  0  0  0
   -1.2351   20.1519    0.4161 C   0  0  0  0  0  0  0  0  0  0  0  0
   -1.7270   19.1350    1.2093 C   0  0  0  0  0  0  0  0  0  0  0  0
   -3.0967   18.8075    1.1440 C   0  0  0  0  0  0  0  0  0  0  0  0
   -3.9123   19.4483    0.3115 C   0  0  0  0  0  0  0  0  0  0  0  0
   -3.4120   20.4657   -0.4890 C   0  0  0  0  0  0  0  0  0  0  0  0
   -1.6877   23.3878   -0.7141 C   0  0  0  0  0  0  0  0  0  0  0  0
   -1.5310   21.9724   -1.3558 C   0  0  0  0  0  0  0  0  0  0  0  0
   -0.0654   21.6870   -1.7882 C   0  0  0  0  0  0  0  0  0  0  0  0
   -4.3707   21.1701   -1.4166 C   0  0  0  0  0  0  0  0  0  0  0  0
   -5.1757   21.7928   -2.1714 C   0  0  0  0  0  0  0  0  0  0  0  0
   -6.1863   22.5425   -3.0621 C   0  0  0  0  0  0  0  0  0  0  0  0
   -7.2886   21.9529   -3.7574 C   0  0  0  0  0  0  0  0  0  0  0  0
   -7.2233   24.1151   -4.1139 C   0  0  0  0  0  0  0  0  0  0  0  0
   -7.4727   25.3748   -4.5355 C   0  0  0  0  0  0  0  0  0  0  0  0
   -5.6100   26.1848   -3.3112 C   0  0  0  0  0  0  0  0  0  0  0  0
   -5.3551   24.9316   -2.8899 C   0  0  0  0  0  0  0  0  0  0  0  0
   -7.8970   22.9270   -4.3874 N   0  0  0  0  0  0  0  0  0  0  0  0
   -6.6339   26.4301   -4.1142 N   0  0  0  0  0  0  0  0  0  0  0  0
   -6.2050   23.8760   -3.3192 N   0  0  0  0  0  0  0  0  0  0  0  0
 19 16  1  0  0  0
 19 21  1  0  0  0
 15 21  1  0  0  0
 15  5  1  0  0  0
 16 22  1  0  0  0
 21 18  1  0  0  0
  5  6  2  0  0  0
  5  9  1  0  0  0
 22 20  1  0  0  0
 22 17  1  0  0  0
  6 10  1  0  0  0
  9  8  2  0  0  0
 18 17  1  0  0  0
 14 11  1  0  0  0
 10 11  1  0  0  0
 10  7  2  0  0  0
  8  7  1  0  0  0
  8  2  1  0  0  0
 11 12  1  0  0  0
 11 13  1  0  0  0
  2  1  1  0  0  0
 25 24  2  0  0  0
 25 26  1  0  0  0
 24 23  1  0  0  0
  1 26  1  0  0  0
  1  3  2  0  0  0
 31 30  1  0  0  0
 26 27  2  0  0  0
 23 30  1  0  0  0
 23 28  2  0  0  0
 27 28  1  0  0  0
 30 29  1  0  0  0
 28 32  1  0  0  0
 32 33  3  0  0  0
 33 34  1  0  0  0
 34 35  2  0  0  0
 34 42  1  0  0  0
 35 40  1  0  0  0
 42 39  1  0  0  0
 42 36  1  0  0  0
 40 36  2  0  0  0
 39 38  2  0  0  0
 36 37  1  0  0  0
 38 41  1  0  0  0
 37 41  2  0  0  0
  2  4  1  0  0  0
M  END
> <minimizedAffinity>
-9.57249

$$$$
6GWR_FEW_A_1001


 42 46  0  0  0  0  0  0  0  0999 V2000
   -9.7530   18.0486    2.7691 C   0  0  0  0  0  0  0  0  0  0  0  0
   -8.4907   17.6571    3.3928 N   0  0  0  0  0  0  0  0  0  0  0  0
  -10.7172   17.3954    2.8352 O   0  0  0  0  0  0  0  0  0  0  0  0
   -7.7158   18.2555    3.2897 H   0  0  0  0  0  0  0  0  0  0  0  0
   -8.7005   15.1379    6.1758 C   0  0  0  0  0  0  0  0  0  0  0  0
   -7.9158   14.1032    5.6502 C   0  0  0  0  0  0  0  0  0  0  0  0
   -7.5073   15.3578    3.6500 C   0  0  0  0  0  0  0  0  0  0  0  0
   -8.3129   16.4102    4.1712 C   0  0  0  0  0  0  0  0  0  0  0  0
   -8.8738   16.2992    5.4325 C   0  0  0  0  0  0  0  0  0  0  0  0
   -7.3216   14.2285    4.3675 C   0  0  0  0  0  0  0  0  0  0  0  0
   -6.4879   13.1213    3.7914 C   0  0  0  0  0  0  0  0  0  0  0  0
   -7.1309   11.9085    4.0479 F   0  0  0  0  0  0  0  0  0  0  0  0
   -5.2618   13.0975    4.3625 F   0  0  0  0  0  0  0  0  0  0  0  0
   -6.3523   13.2931    2.4012 F   0  0  0  0  0  0  0  0  0  0  0  0
   -9.3282   14.9849    7.5998 C   0  0  0  0  0  0  0  0  0  0  0  0
   -6.8398   15.0561   10.1711 C   0  0  0  0  0  0  0  0  0  0  0  0
   -8.1298   13.1225   10.4919 C   0  0  0  0  0  0  0  0  0  0  0  0
   -8.9933   13.4956    9.2276 C   0  0  0  0  0  0  0  0  0  0  0  0
   -8.0917   15.5589    9.3718 C   0  0  0  0  0  0  0  0  0  0  0  0
   -6.5867   13.7697   11.8859 C   0  0  0  0  0  0  0  0  0  0  0  0
   -8.5411   14.5659    8.5498 N   0  0  0  0  0  0  0  0  0  0  0  0
   -6.9376   13.7929   10.6582 N   0  0  0  0  0  0  0  0  0  0  0  0
   -9.7629   21.7119    0.5182 C   0  0  0  0  0  0  0  0  0  0  0  0
  -10.9293   21.2906    1.0734 C   0  0  0  0  0  0  0  0  0  0  0  0
  -10.9566   20.1169    1.7991 C   0  0  0  0  0  0  0  0  0  0  0  0
   -9.7737   19.3629    1.9402 C   0  0  0  0  0  0  0  0  0  0  0  0
   -8.6303   19.7814    1.4050 C   0  0  0  0  0  0  0  0  0  0  0  0
   -8.6061   20.9656    0.6818 C   0  0  0  0  0  0  0  0  0  0  0  0
  -10.1403   22.8818   -1.7944 C   0  0  0  0  0  0  0  0  0  0  0  0
   -9.7009   23.0596   -0.3062 C   0  0  0  0  0  0  0  0  0  0  0  0
  -10.5101   24.1761    0.4116 C   0  0  0  0  0  0  0  0  0  0  0  0
   -7.2901   21.4031    0.0878 C   0  0  0  0  0  0  0  0  0  0  0  0
   -6.1660   21.7502   -0.3828 C   0  0  0  0  0  0  0  0  0  0  0  0
   -4.7943   22.2003   -0.9236 C   0  0  0  0  0  0  0  0  0  0  0  0
   -4.5367   23.3988   -1.6606 C   0  0  0  0  0  0  0  0  0  0  0  0
   -2.6855   22.2595   -1.3755 C   0  0  0  0  0  0  0  0  0  0  0  0
   -1.4037   21.8307   -1.3878 C   0  0  0  0  0  0  0  0  0  0  0  0
   -2.0069   19.8999   -0.1496 C   0  0  0  0  0  0  0  0  0  0  0  0
   -3.2858   20.3207   -0.1362 C   0  0  0  0  0  0  0  0  0  0  0  0
   -3.2533   23.4075   -1.9231 N   0  0  0  0  0  0  0  0  0  0  0  0
   -1.0692   20.6143   -0.7527 N   0  0  0  0  0  0  0  0  0  0  0  0
   -3.6129   21.5462   -0.7780 N   0  0  0  0  0  0  0  0  0  0  0  0
 19 16  1  0  0  0
 19 21  1  0  0  0
 15 21  1  0  0  0
 15  5  1  0  0  0
 16 22  1  0  0  0
 21 18  1  0  0  0
  5  6  2  0  0  0
  5  9  1  0  0  0
 22 20  1  0  0  0
 22 17  1  0  0  0
  6 10  1  0  0  0
  9  8  2  0  0  0
 18 17  1  0  0  0
 14 11  1  0  0  0
 10 11  1  0  0  0
 10  7  2  0  0  0
  8  7  1  0  0  0
  8  2  1  0  0  0
 11 12  1  0  0  0
 11 13  1  0  0  0
  2  1  1  0  0  0
 25 24  2  0  0  0
 25 26  1  0  0  0
 24 23  1  0  0  0
  1 26  1  0  0  0
  1  3  2  0  0  0
 31 30  1  0  0  0
 26 27  2  0  0  0
 23 30  1  0  0  0
 23 28  2  0  0  0
 27 28  1  0  0  0
 30 29  1  0  0  0
 28 32  1  0  0  0
 32 33  3  0  0  0
 33 34  1  0  0  0
 34 35  2  0  0  0
 34 42  1  0  0  0
 35 40  1  0  0  0
 42 39  1  0  0  0
 42 36  1  0  0  0
 40 36  2  0  0  0
 39 38  2  0  0  0
 36 37  1  0  0  0
 38 41  1  0  0  0
 37 41  2  0  0  0
  2  4  1  0  0  0
M  END
> <minimizedAffinity>
-9.56806

$$$$
