1C84_761_A_301


 22 23  0  0  0  0  0  0  0  0999 V2000
   46.0705    9.7739    0.6509 C   0  0  0  0  0  0  0  0  0  0  0  0
   46.3635   10.7581    1.5912 C   0  0  0  0  0  0  0  0  0  0  0  0
   45.6144   11.9283    1.6598 C   0  0  0  0  0  0  0  0  0  0  0  0
   44.5429   12.1038    0.7662 C   0  0  0  0  0  0  0  0  0  0  0  0
   44.2336   11.1009   -0.1826 C   0  0  0  0  0  0  0  0  0  0  0  0
   44.9872    9.9353   -0.2195 C   0  0  0  0  0  0  0  0  0  0  0  0
   45.8355   12.9104    2.6416 C   0  0  0  0  0  0  0  0  0  0  0  0
   45.0458   14.0683    2.6590 C   0  0  0  0  0  0  0  0  0  0  0  0
   44.0343   14.2683    1.7033 C   0  0  0  0  0  0  0  0  0  0  0  0
   43.7847   13.2750    0.7413 C   0  0  0  0  0  0  0  0  0  0  0  0
   43.3653   15.5574    1.6081 C   0  0  0  0  0  0  0  0  0  0  0  0
   43.0957   16.2133    2.5583 O   0  0  0  0  0  0  0  0  0  0  0  0
   43.1170   15.9212    0.3553 O   0  0  0  0  0  0  0  0  0  0  0  0
   43.3556   15.3558   -0.3528 H   0  0  0  0  0  0  0  0  0  0  0  0
   45.1485   15.0217    3.6188 N   0  0  0  0  0  0  0  0  0  0  0  0
   46.2413   15.6611    4.0840 C   0  0  0  0  0  0  0  0  0  0  0  0
   47.4059   15.2679    3.9060 O   0  0  0  0  0  0  0  0  0  0  0  0
   44.2983   15.2865    4.0385 H   0  0  0  0  0  0  0  0  0  0  0  0
   45.9910   16.9638    4.9189 C   0  0  0  0  0  0  0  0  0  0  0  0
   46.8825   17.5305    5.5024 O   0  0  0  0  0  0  0  0  0  0  0  0
   44.7185   17.4673    4.8710 O   0  0  0  0  0  0  0  0  0  0  0  0
   44.0480   17.0032    4.4094 H   0  0  0  0  0  0  0  0  0  0  0  0
  1  2  2  0  0  0
  1  6  1  0  0  0
  2  3  1  0  0  0
  3  4  2  0  0  0
  3  7  1  0  0  0
  4  5  1  0  0  0
  4 10  1  0  0  0
  5  6  2  0  0  0
  7  8  2  0  0  0
  8  9  1  0  0  0
  8 15  1  0  0  0
  9 10  2  0  0  0
  9 11  1  0  0  0
 11 12  2  0  0  0
 11 13  1  0  0  0
 15 16  1  0  0  0
 16 17  2  0  0  0
 16 19  1  0  0  0
 19 20  2  0  0  0
 19 21  1  0  0  0
 13 14  1  0  0  0
 15 18  1  0  0  0
 21 22  1  0  0  0
M  END
> <minimizedAffinity>
-9.19821

$$$$
1C84_761_A_301


 22 23  0  0  0  0  0  0  0  0999 V2000
   44.3403    9.4391   -1.0263 C   0  0  0  0  0  0  0  0  0  0  0  0
   44.5514   10.2076    0.1155 C   0  0  0  0  0  0  0  0  0  0  0  0
   44.2172   11.5577    0.1414 C   0  0  0  0  0  0  0  0  0  0  0  0
   43.6509   12.1408   -1.0060 C   0  0  0  0  0  0  0  0  0  0  0  0
   43.4229   11.3609   -2.1642 C   0  0  0  0  0  0  0  0  0  0  0  0
   43.7509   10.0118   -2.1585 C   0  0  0  0  0  0  0  0  0  0  0  0
   44.3491   12.3465    1.2980 C   0  0  0  0  0  0  0  0  0  0  0  0
   43.9941   13.7020    1.2612 C   0  0  0  0  0  0  0  0  0  0  0  0
   43.5106   14.2911    0.0798 C   0  0  0  0  0  0  0  0  0  0  0  0
   43.3430   13.5004   -1.0696 C   0  0  0  0  0  0  0  0  0  0  0  0
   43.3424   15.7346    0.0003 C   0  0  0  0  0  0  0  0  0  0  0  0
   43.6703   16.3687   -0.9463 O   0  0  0  0  0  0  0  0  0  0  0  0
   42.7669   16.2496    1.0807 O   0  0  0  0  0  0  0  0  0  0  0  0
   42.5314   15.6928    1.7966 H   0  0  0  0  0  0  0  0  0  0  0  0
   44.0210   14.5057    2.3539 N   0  0  0  0  0  0  0  0  0  0  0  0
   45.0139   14.7193    3.2415 C   0  0  0  0  0  0  0  0  0  0  0  0
   46.0009   13.9769    3.3732 O   0  0  0  0  0  0  0  0  0  0  0  0
   43.1918   15.0083    2.5244 H   0  0  0  0  0  0  0  0  0  0  0  0
   44.8708   15.9762    4.1670 C   0  0  0  0  0  0  0  0  0  0  0  0
   43.9441   16.7426    4.0656 O   0  0  0  0  0  0  0  0  0  0  0  0
   45.8119   16.1001    5.1539 O   0  0  0  0  0  0  0  0  0  0  0  0
   46.5198   15.4885    5.2057 H   0  0  0  0  0  0  0  0  0  0  0  0
  1  2  2  0  0  0
  1  6  1  0  0  0
  2  3  1  0  0  0
  3  4  2  0  0  0
  3  7  1  0  0  0
  4  5  1  0  0  0
  4 10  1  0  0  0
  5  6  2  0  0  0
  7  8  2  0  0  0
  8  9  1  0  0  0
  8 15  1  0  0  0
  9 10  2  0  0  0
  9 11  1  0  0  0
 11 12  2  0  0  0
 11 13  1  0  0  0
 15 16  1  0  0  0
 16 17  2  0  0  0
 16 19  1  0  0  0
 19 20  2  0  0  0
 19 21  1  0  0  0
 13 14  1  0  0  0
 15 18  1  0  0  0
 21 22  1  0  0  0
M  END
> <minimizedAffinity>
-7.45455

$$$$
1C84_761_A_301


 22 23  0  0  0  0  0  0  0  0999 V2000
   44.5612   15.4590    3.0434 C   0  0  0  0  0  0  0  0  0  0  0  0
   45.3936   14.3531    3.1939 C   0  0  0  0  0  0  0  0  0  0  0  0
   45.3060   13.2680    2.3278 C   0  0  0  0  0  0  0  0  0  0  0  0
   44.3645   13.3047    1.2839 C   0  0  0  0  0  0  0  0  0  0  0  0
   43.5252   14.4318    1.1194 C   0  0  0  0  0  0  0  0  0  0  0  0
   43.6439   15.5084    1.9882 C   0  0  0  0  0  0  0  0  0  0  0  0
   46.1776   12.1673    2.4052 C   0  0  0  0  0  0  0  0  0  0  0  0
   46.0393   11.1042    1.5022 C   0  0  0  0  0  0  0  0  0  0  0  0
   45.0353   11.1171    0.5182 C   0  0  0  0  0  0  0  0  0  0  0  0
   44.1837   12.2298    0.4126 C   0  0  0  0  0  0  0  0  0  0  0  0
   44.7742    9.9239   -0.2733 C   0  0  0  0  0  0  0  0  0  0  0  0
   44.0195    9.0767    0.0710 O   0  0  0  0  0  0  0  0  0  0  0  0
   45.4476    9.9034   -1.4177 O   0  0  0  0  0  0  0  0  0  0  0  0
   46.0300   10.6056   -1.6312 H   0  0  0  0  0  0  0  0  0  0  0  0
   46.8885   10.0467    1.4659 N   0  0  0  0  0  0  0  0  0  0  0  0
   48.0104    9.8677    0.7389 C   0  0  0  0  0  0  0  0  0  0  0  0
   48.3071   10.5431   -0.2603 O   0  0  0  0  0  0  0  0  0  0  0  0
   46.6501    9.2979    2.0589 H   0  0  0  0  0  0  0  0  0  0  0  0
   48.9654    8.7111    1.1938 C   0  0  0  0  0  0  0  0  0  0  0  0
   48.6990    7.5496    1.0030 O   0  0  0  0  0  0  0  0  0  0  0  0
   50.1590    9.1029    1.7386 O   0  0  0  0  0  0  0  0  0  0  0  0
   50.3358   10.0130    1.8742 H   0  0  0  0  0  0  0  0  0  0  0  0
  1  2  2  0  0  0
  1  6  1  0  0  0
  2  3  1  0  0  0
  3  4  2  0  0  0
  3  7  1  0  0  0
  4  5  1  0  0  0
  4 10  1  0  0  0
  5  6  2  0  0  0
  7  8  2  0  0  0
  8  9  1  0  0  0
  8 15  1  0  0  0
  9 10  2  0  0  0
  9 11  1  0  0  0
 11 12  2  0  0  0
 11 13  1  0  0  0
 15 16  1  0  0  0
 16 17  2  0  0  0
 16 19  1  0  0  0
 19 20  2  0  0  0
 19 21  1  0  0  0
 13 14  1  0  0  0
 15 18  1  0  0  0
 21 22  1  0  0  0
M  END
> <minimizedAffinity>
-7.34226

$$$$
1C84_761_A_301


 22 23  0  0  0  0  0  0  0  0999 V2000
   44.0309   15.5755    2.6595 C   0  0  0  0  0  0  0  0  0  0  0  0
   43.6398   14.6611    1.6851 C   0  0  0  0  0  0  0  0  0  0  0  0
   44.3167   13.4569    1.5206 C   0  0  0  0  0  0  0  0  0  0  0  0
   45.4049   13.1673    2.3627 C   0  0  0  0  0  0  0  0  0  0  0  0
   45.7980   14.0879    3.3626 C   0  0  0  0  0  0  0  0  0  0  0  0
   45.0956   15.2757    3.5162 C   0  0  0  0  0  0  0  0  0  0  0  0
   43.9061   12.4795    0.5968 C   0  0  0  0  0  0  0  0  0  0  0  0
   44.6297   11.2849    0.4784 C   0  0  0  0  0  0  0  0  0  0  0  0
   45.7684   11.0479    1.2682 C   0  0  0  0  0  0  0  0  0  0  0  0
   46.1635   12.0050    2.2181 C   0  0  0  0  0  0  0  0  0  0  0  0
   46.6224    9.9023    0.9916 C   0  0  0  0  0  0  0  0  0  0  0  0
   46.2265    8.7849    1.0155 O   0  0  0  0  0  0  0  0  0  0  0  0
   47.8692   10.2460    0.6902 O   0  0  0  0  0  0  0  0  0  0  0  0
   48.1190   11.1491    0.6891 H   0  0  0  0  0  0  0  0  0  0  0  0
   44.2513   10.2659   -0.3334 N   0  0  0  0  0  0  0  0  0  0  0  0
   44.3751   10.1386   -1.6705 C   0  0  0  0  0  0  0  0  0  0  0  0
   44.6056   11.0851   -2.4410 O   0  0  0  0  0  0  0  0  0  0  0  0
   43.8222    9.5055    0.1215 H   0  0  0  0  0  0  0  0  0  0  0  0
   44.1854    8.6987   -2.2598 C   0  0  0  0  0  0  0  0  0  0  0  0
   43.0924    8.2147   -2.4261 O   0  0  0  0  0  0  0  0  0  0  0  0
   45.3305    8.0615   -2.6570 O   0  0  0  0  0  0  0  0  0  0  0  0
   46.1644    8.4639   -2.5136 H   0  0  0  0  0  0  0  0  0  0  0  0
  1  2  2  0  0  0
  1  6  1  0  0  0
  2  3  1  0  0  0
  3  4  2  0  0  0
  3  7  1  0  0  0
  4  5  1  0  0  0
  4 10  1  0  0  0
  5  6  2  0  0  0
  7  8  2  0  0  0
  8  9  1  0  0  0
  8 15  1  0  0  0
  9 10  2  0  0  0
  9 11  1  0  0  0
 11 12  2  0  0  0
 11 13  1  0  0  0
 15 16  1  0  0  0
 16 17  2  0  0  0
 16 19  1  0  0  0
 19 20  2  0  0  0
 19 21  1  0  0  0
 13 14  1  0  0  0
 15 18  1  0  0  0
 21 22  1  0  0  0
M  END
> <minimizedAffinity>
-7.23816

$$$$
1C84_761_A_301


 22 23  0  0  0  0  0  0  0  0999 V2000
   45.5781   14.6581    3.8682 C   0  0  0  0  0  0  0  0  0  0  0  0
   46.1331   13.5287    3.2722 C   0  0  0  0  0  0  0  0  0  0  0  0
   45.5761   12.9795    2.1218 C   0  0  0  0  0  0  0  0  0  0  0  0
   44.4410   13.5884    1.5577 C   0  0  0  0  0  0  0  0  0  0  0  0
   43.8812   14.7436    2.1526 C   0  0  0  0  0  0  0  0  0  0  0  0
   44.4660   15.2809    3.2915 C   0  0  0  0  0  0  0  0  0  0  0  0
   46.1508   11.8844    1.4528 C   0  0  0  0  0  0  0  0  0  0  0  0
   45.5423   11.3767    0.2966 C   0  0  0  0  0  0  0  0  0  0  0  0
   44.3578   11.9435   -0.2056 C   0  0  0  0  0  0  0  0  0  0  0  0
   43.7977   13.0601    0.4378 C   0  0  0  0  0  0  0  0  0  0  0  0
   43.6308   11.2823   -1.2791 C   0  0  0  0  0  0  0  0  0  0  0  0
   43.3926   10.1208   -1.2737 O   0  0  0  0  0  0  0  0  0  0  0  0
   43.2492   12.1179   -2.2381 O   0  0  0  0  0  0  0  0  0  0  0  0
   43.4700   13.0268   -2.1827 H   0  0  0  0  0  0  0  0  0  0  0  0
   46.0779   10.3743   -0.4443 N   0  0  0  0  0  0  0  0  0  0  0  0
   46.2502    9.0726   -0.1356 C   0  0  0  0  0  0  0  0  0  0  0  0
   46.2065    8.6200    1.0202 O   0  0  0  0  0  0  0  0  0  0  0  0
   46.3871   10.6362   -1.3415 H   0  0  0  0  0  0  0  0  0  0  0  0
   46.5477    8.1009   -1.3289 C   0  0  0  0  0  0  0  0  0  0  0  0
   47.4775    7.3318   -1.3106 O   0  0  0  0  0  0  0  0  0  0  0  0
   45.6368    8.1158   -2.3512 O   0  0  0  0  0  0  0  0  0  0  0  0
   44.9255    8.7255   -2.3361 H   0  0  0  0  0  0  0  0  0  0  0  0
  1  2  2  0  0  0
  1  6  1  0  0  0
  2  3  1  0  0  0
  3  4  2  0  0  0
  3  7  1  0  0  0
  4  5  1  0  0  0
  4 10  1  0  0  0
  5  6  2  0  0  0
  7  8  2  0  0  0
  8  9  1  0  0  0
  8 15  1  0  0  0
  9 10  2  0  0  0
  9 11  1  0  0  0
 11 12  2  0  0  0
 11 13  1  0  0  0
 15 16  1  0  0  0
 16 17  2  0  0  0
 16 19  1  0  0  0
 19 20  2  0  0  0
 19 21  1  0  0  0
 13 14  1  0  0  0
 15 18  1  0  0  0
 21 22  1  0  0  0
M  END
> <minimizedAffinity>
-6.54556

$$$$
1C84_761_A_301


 22 23  0  0  0  0  0  0  0  0999 V2000
   47.7080    8.3648    1.3838 C   0  0  0  0  0  0  0  0  0  0  0  0
   47.1943    9.5327    1.9412 C   0  0  0  0  0  0  0  0  0  0  0  0
   46.3111   10.3376    1.2289 C   0  0  0  0  0  0  0  0  0  0  0  0
   45.9331    9.9505   -0.0690 C   0  0  0  0  0  0  0  0  0  0  0  0
   46.4426    8.7580   -0.6347 C   0  0  0  0  0  0  0  0  0  0  0  0
   47.3103    7.9644    0.1036 C   0  0  0  0  0  0  0  0  0  0  0  0
   45.7172   11.4842    1.7855 C   0  0  0  0  0  0  0  0  0  0  0  0
   44.8336   12.2542    1.0167 C   0  0  0  0  0  0  0  0  0  0  0  0
   44.5333   11.9009   -0.3105 C   0  0  0  0  0  0  0  0  0  0  0  0
   45.0957   10.7370   -0.8612 C   0  0  0  0  0  0  0  0  0  0  0  0
   43.7817   12.8160   -1.1567 C   0  0  0  0  0  0  0  0  0  0  0  0
   43.7839   13.9904   -0.9940 O   0  0  0  0  0  0  0  0  0  0  0  0
   43.1234   12.1987   -2.1310 O   0  0  0  0  0  0  0  0  0  0  0  0
   43.1626   11.2655   -2.2048 H   0  0  0  0  0  0  0  0  0  0  0  0
   44.1644   13.3272    1.5082 N   0  0  0  0  0  0  0  0  0  0  0  0
   44.5732   14.2715    2.3803 C   0  0  0  0  0  0  0  0  0  0  0  0
   45.5636   14.1531    3.1203 O   0  0  0  0  0  0  0  0  0  0  0  0
   43.2425   13.4323    1.1792 H   0  0  0  0  0  0  0  0  0  0  0  0
   43.7086   15.5765    2.4592 C   0  0  0  0  0  0  0  0  0  0  0  0
   43.7191   16.2927    3.4305 O   0  0  0  0  0  0  0  0  0  0  0  0
   43.0122   15.8997    1.3255 O   0  0  0  0  0  0  0  0  0  0  0  0
   43.0240   15.3222    0.5877 H   0  0  0  0  0  0  0  0  0  0  0  0
  1  2  2  0  0  0
  1  6  1  0  0  0
  2  3  1  0  0  0
  3  4  2  0  0  0
  3  7  1  0  0  0
  4  5  1  0  0  0
  4 10  1  0  0  0
  5  6  2  0  0  0
  7  8  2  0  0  0
  8  9  1  0  0  0
  8 15  1  0  0  0
  9 10  2  0  0  0
  9 11  1  0  0  0
 11 12  2  0  0  0
 11 13  1  0  0  0
 15 16  1  0  0  0
 16 17  2  0  0  0
 16 19  1  0  0  0
 19 20  2  0  0  0
 19 21  1  0  0  0
 13 14  1  0  0  0
 15 18  1  0  0  0
 21 22  1  0  0  0
M  END
> <minimizedAffinity>
-6.24176

$$$$
