5D24_L26_A_201


 29 30  0  0  0  0  0  0  0  0999 V2000
    8.5656    6.7364   -2.5062 C   0  0  0  0  0  0  0  0  0  0  0  0
    8.7534    6.1263   -1.2776 N   0  0  0  0  0  0  0  0  0  0  0  0
    9.4891    7.0790   -3.2331 O   0  0  0  0  0  0  0  0  0  0  0  0
    7.9632    5.7908   -0.7956 H   0  0  0  0  0  0  0  0  0  0  0  0
    5.0173    7.8076   -2.7248 C   0  0  0  0  0  0  0  0  0  0  0  0
    6.3111    8.0843   -2.2402 C   0  0  0  0  0  0  0  0  0  0  0  0
    7.1184    6.9657   -2.7685 C   0  0  0  0  0  0  0  0  0  0  0  0
    5.0688    6.5218   -3.4830 C   0  0  0  0  0  0  0  0  0  0  0  0
    3.9514    5.8006   -4.2087 C   0  0  0  0  0  0  0  0  0  0  0  0
    6.3453    6.0852   -3.4624 N   0  0  0  0  0  0  0  0  0  0  0  0
    6.6684    5.2566   -3.8846 H   0  0  0  0  0  0  0  0  0  0  0  0
    3.7532    8.5614   -2.4862 C   0  0  0  0  0  0  0  0  0  0  0  0
    2.9344    8.1314   -1.2986 C   0  0  0  0  0  0  0  0  0  0  0  0
    3.3355    9.3954   -3.2748 O   0  0  0  0  0  0  0  0  0  0  0  0
    6.8642    9.2498   -1.4232 C   0  0  0  0  0  0  0  0  0  0  0  0
    6.4518    8.9490    0.0088 C   0  0  0  0  0  0  0  0  0  0  0  0
   12.0648    4.7024   -0.7948 C   0  0  0  0  0  0  0  0  0  0  0  0
   12.5674    5.3393    0.3444 C   0  0  0  0  0  0  0  0  0  0  0  0
   10.4926    6.6005    0.4720 C   0  0  0  0  0  0  0  0  0  0  0  0
   10.0243    5.9617   -0.6819 C   0  0  0  0  0  0  0  0  0  0  0  0
   10.8034    5.0099   -1.2901 C   0  0  0  0  0  0  0  0  0  0  0  0
   11.7687    6.2823    0.9849 C   0  0  0  0  0  0  0  0  0  0  0  0
   12.7875    3.7725   -1.4863 O   0  0  0  0  0  0  0  0  0  0  0  0
   13.7368    2.9611   -0.8038 C   0  0  0  0  0  0  0  0  0  0  0  0
   15.0038    2.9782   -1.6122 C   0  0  0  0  0  0  0  0  0  0  0  0
   16.0103    3.4210   -1.0956 O   0  0  0  0  0  0  0  0  0  0  0  0
   14.9828    2.4804   -2.9465 N   0  0  0  0  0  0  0  0  0  0  0  0
   15.8056    2.4858   -3.4870 H   0  0  0  0  0  0  0  0  0  0  0  0
   14.1453    2.1309   -3.3284 H   0  0  0  0  0  0  0  0  0  0  0  0
 26 25  2  0  0  0
 25 27  1  0  0  0
 25 24  1  0  0  0
 24 23  1  0  0  0
 23 17  1  0  0  0
 17 21  2  0  0  0
 17 18  1  0  0  0
 21 20  1  0  0  0
 18 22  2  0  0  0
  9  8  1  0  0  0
 20  2  1  0  0  0
 20 19  2  0  0  0
 22 19  1  0  0  0
  2  1  1  0  0  0
 10  8  1  0  0  0
 10  7  1  0  0  0
  8  5  2  0  0  0
  7  1  1  0  0  0
  7  6  2  0  0  0
  1  3  2  0  0  0
  5 12  1  0  0  0
  5  6  1  0  0  0
 14 12  2  0  0  0
 12 13  1  0  0  0
  6 15  1  0  0  0
 15 16  1  0  0  0
 10 11  1  0  0  0
  2  4  1  0  0  0
 27 28  1  0  0  0
 27 29  1  0  0  0
M  END
> <minimizedAffinity>
-7.88115

$$$$
5D24_L26_A_201


 29 30  0  0  0  0  0  0  0  0999 V2000
    9.1168    5.9596   -0.4301 C   0  0  0  0  0  0  0  0  0  0  0  0
    8.6521    6.3029   -1.6883 N   0  0  0  0  0  0  0  0  0  0  0  0
    8.4763    6.1481    0.5961 O   0  0  0  0  0  0  0  0  0  0  0  0
    9.1804    6.0305   -2.4731 H   0  0  0  0  0  0  0  0  0  0  0  0
   12.7275    5.1116   -0.2592 C   0  0  0  0  0  0  0  0  0  0  0  0
   11.6827    5.9429    0.1911 C   0  0  0  0  0  0  0  0  0  0  0  0
   10.4966    5.4065   -0.5073 C   0  0  0  0  0  0  0  0  0  0  0  0
   12.1593    4.1389   -1.2400 C   0  0  0  0  0  0  0  0  0  0  0  0
   12.8626    3.0298   -1.9954 C   0  0  0  0  0  0  0  0  0  0  0  0
   10.8348    4.3783   -1.3336 N   0  0  0  0  0  0  0  0  0  0  0  0
   10.2085    3.8850   -1.9111 H   0  0  0  0  0  0  0  0  0  0  0  0
   14.1813    5.1865    0.0632 C   0  0  0  0  0  0  0  0  0  0  0  0
   14.8078    6.5540    0.0045 C   0  0  0  0  0  0  0  0  0  0  0  0
   14.8595    4.1865    0.2417 O   0  0  0  0  0  0  0  0  0  0  0  0
   11.6582    7.0934    1.1948 C   0  0  0  0  0  0  0  0  0  0  0  0
   11.6268    6.4185    2.5566 C   0  0  0  0  0  0  0  0  0  0  0  0
    5.3541    6.9888   -3.0590 C   0  0  0  0  0  0  0  0  0  0  0  0
    5.0279    8.2651   -2.5892 C   0  0  0  0  0  0  0  0  0  0  0  0
    7.1659    8.3121   -1.4325 C   0  0  0  0  0  0  0  0  0  0  0  0
    7.4562    7.0254   -1.9006 C   0  0  0  0  0  0  0  0  0  0  0  0
    6.5602    6.3872   -2.7207 C   0  0  0  0  0  0  0  0  0  0  0  0
    5.9468    8.9312   -1.7835 C   0  0  0  0  0  0  0  0  0  0  0  0
    4.5050    6.2649   -3.8464 O   0  0  0  0  0  0  0  0  0  0  0  0
    3.1172    6.5795   -3.8693 C   0  0  0  0  0  0  0  0  0  0  0  0
    2.3635    5.2792   -3.8845 C   0  0  0  0  0  0  0  0  0  0  0  0
    1.3806    5.1752   -3.1782 O   0  0  0  0  0  0  0  0  0  0  0  0
    2.8234    4.2199   -4.7183 N   0  0  0  0  0  0  0  0  0  0  0  0
    2.3391    3.3630   -4.7377 H   0  0  0  0  0  0  0  0  0  0  0  0
    3.6257    4.3447   -5.2752 H   0  0  0  0  0  0  0  0  0  0  0  0
 26 25  2  0  0  0
 25 27  1  0  0  0
 25 24  1  0  0  0
 24 23  1  0  0  0
 23 17  1  0  0  0
 17 21  2  0  0  0
 17 18  1  0  0  0
 21 20  1  0  0  0
 18 22  2  0  0  0
  9  8  1  0  0  0
 20  2  1  0  0  0
 20 19  2  0  0  0
 22 19  1  0  0  0
  2  1  1  0  0  0
 10  8  1  0  0  0
 10  7  1  0  0  0
  8  5  2  0  0  0
  7  1  1  0  0  0
  7  6  2  0  0  0
  1  3  2  0  0  0
  5 12  1  0  0  0
  5  6  1  0  0  0
 14 12  2  0  0  0
 12 13  1  0  0  0
  6 15  1  0  0  0
 15 16  1  0  0  0
 10 11  1  0  0  0
  2  4  1  0  0  0
 27 28  1  0  0  0
 27 29  1  0  0  0
M  END
> <minimizedAffinity>
-7.84707

$$$$
5D24_L26_A_201


 29 30  0  0  0  0  0  0  0  0999 V2000
   10.0353    6.1684    0.3501 C   0  0  0  0  0  0  0  0  0  0  0  0
   11.0301    6.4488   -0.5711 N   0  0  0  0  0  0  0  0  0  0  0  0
   10.1922    5.4073    1.2960 O   0  0  0  0  0  0  0  0  0  0  0  0
   10.8608    7.1454   -1.2459 H   0  0  0  0  0  0  0  0  0  0  0  0
    7.0342    7.7301   -1.1797 C   0  0  0  0  0  0  0  0  0  0  0  0
    8.1748    6.9235   -1.3641 C   0  0  0  0  0  0  0  0  0  0  0  0
    8.7673    6.8585   -0.0124 C   0  0  0  0  0  0  0  0  0  0  0  0
    6.9956    8.1628    0.2494 C   0  0  0  0  0  0  0  0  0  0  0  0
    5.9680    9.0243    0.9543 C   0  0  0  0  0  0  0  0  0  0  0  0
    8.0547    7.6075    0.8740 N   0  0  0  0  0  0  0  0  0  0  0  0
    8.2783    7.7257    1.8255 H   0  0  0  0  0  0  0  0  0  0  0  0
    6.0478    8.1937   -2.1971 C   0  0  0  0  0  0  0  0  0  0  0  0
    5.2645    7.1202   -2.9042 C   0  0  0  0  0  0  0  0  0  0  0  0
    5.9636    9.3648   -2.5338 O   0  0  0  0  0  0  0  0  0  0  0  0
    8.7189    6.1956   -2.5912 C   0  0  0  0  0  0  0  0  0  0  0  0
    9.2088    7.3016   -3.5119 C   0  0  0  0  0  0  0  0  0  0  0  0
   13.3780    3.7570   -1.2549 C   0  0  0  0  0  0  0  0  0  0  0  0
   14.5843    4.1793   -0.6870 C   0  0  0  0  0  0  0  0  0  0  0  0
   13.4648    6.2234    0.0055 C   0  0  0  0  0  0  0  0  0  0  0  0
   12.2768    5.7836   -0.5897 C   0  0  0  0  0  0  0  0  0  0  0  0
   12.2402    4.5525   -1.1946 C   0  0  0  0  0  0  0  0  0  0  0  0
   14.6195    5.4129   -0.0435 C   0  0  0  0  0  0  0  0  0  0  0  0
   13.2613    2.5651   -1.9113 O   0  0  0  0  0  0  0  0  0  0  0  0
   14.4171    1.9406   -2.4586 C   0  0  0  0  0  0  0  0  0  0  0  0
   14.1458    1.6957   -3.9165 C   0  0  0  0  0  0  0  0  0  0  0  0
   13.0417    1.9603   -4.3489 O   0  0  0  0  0  0  0  0  0  0  0  0
   15.1826    1.1645   -4.7360 N   0  0  0  0  0  0  0  0  0  0  0  0
   15.0181    0.9993   -5.6925 H   0  0  0  0  0  0  0  0  0  0  0  0
   16.0636    0.9625   -4.3459 H   0  0  0  0  0  0  0  0  0  0  0  0
 26 25  2  0  0  0
 25 27  1  0  0  0
 25 24  1  0  0  0
 24 23  1  0  0  0
 23 17  1  0  0  0
 17 21  2  0  0  0
 17 18  1  0  0  0
 21 20  1  0  0  0
 18 22  2  0  0  0
  9  8  1  0  0  0
 20  2  1  0  0  0
 20 19  2  0  0  0
 22 19  1  0  0  0
  2  1  1  0  0  0
 10  8  1  0  0  0
 10  7  1  0  0  0
  8  5  2  0  0  0
  7  1  1  0  0  0
  7  6  2  0  0  0
  1  3  2  0  0  0
  5 12  1  0  0  0
  5  6  1  0  0  0
 14 12  2  0  0  0
 12 13  1  0  0  0
  6 15  1  0  0  0
 15 16  1  0  0  0
 10 11  1  0  0  0
  2  4  1  0  0  0
 27 28  1  0  0  0
 27 29  1  0  0  0
M  END
> <minimizedAffinity>
-7.60437

$$$$
5D24_L26_A_201


 29 30  0  0  0  0  0  0  0  0999 V2000
   11.4402    5.3153   -0.6309 C   0  0  0  0  0  0  0  0  0  0  0  0
   10.0871    5.0551   -0.4951 N   0  0  0  0  0  0  0  0  0  0  0  0
   11.9874    6.2946   -0.1408 O   0  0  0  0  0  0  0  0  0  0  0  0
    9.7388    4.1984   -0.8328 H   0  0  0  0  0  0  0  0  0  0  0  0
   13.5902    2.8402   -2.3736 C   0  0  0  0  0  0  0  0  0  0  0  0
   13.4175    3.6817   -1.2566 C   0  0  0  0  0  0  0  0  0  0  0  0
   12.0930    4.2920   -1.4924 C   0  0  0  0  0  0  0  0  0  0  0  0
   12.4021    2.9989   -3.2646 C   0  0  0  0  0  0  0  0  0  0  0  0
   12.0991    2.3061   -4.5774 C   0  0  0  0  0  0  0  0  0  0  0  0
   11.5624    3.8751   -2.6752 N   0  0  0  0  0  0  0  0  0  0  0  0
   10.6980    4.1685   -3.0440 H   0  0  0  0  0  0  0  0  0  0  0  0
   14.7621    1.9876   -2.7241 C   0  0  0  0  0  0  0  0  0  0  0  0
   14.4552    0.5835   -3.1715 C   0  0  0  0  0  0  0  0  0  0  0  0
   15.9119    2.3569   -2.5412 O   0  0  0  0  0  0  0  0  0  0  0  0
   14.2847    3.9278   -0.0241 C   0  0  0  0  0  0  0  0  0  0  0  0
   15.1054    5.1603   -0.3680 C   0  0  0  0  0  0  0  0  0  0  0  0
    7.6187    7.7222   -0.3555 C   0  0  0  0  0  0  0  0  0  0  0  0
    7.3891    7.9284    1.0087 C   0  0  0  0  0  0  0  0  0  0  0  0
    8.9878    6.1573    1.4765 C   0  0  0  0  0  0  0  0  0  0  0  0
    9.1819    5.9595    0.1046 C   0  0  0  0  0  0  0  0  0  0  0  0
    8.5130    6.7527   -0.7932 C   0  0  0  0  0  0  0  0  0  0  0  0
    8.0890    7.1490    1.9252 C   0  0  0  0  0  0  0  0  0  0  0  0
    6.9669    8.4379   -1.3188 O   0  0  0  0  0  0  0  0  0  0  0  0
    6.9474    7.9664   -2.6614 C   0  0  0  0  0  0  0  0  0  0  0  0
    5.5241    7.6131   -2.9912 C   0  0  0  0  0  0  0  0  0  0  0  0
    4.7055    8.5093   -3.0420 O   0  0  0  0  0  0  0  0  0  0  0  0
    5.1845    6.2506   -3.2298 N   0  0  0  0  0  0  0  0  0  0  0  0
    4.2560    6.0054   -3.4468 H   0  0  0  0  0  0  0  0  0  0  0  0
    5.8782    5.5539   -3.1777 H   0  0  0  0  0  0  0  0  0  0  0  0
 26 25  2  0  0  0
 25 27  1  0  0  0
 25 24  1  0  0  0
 24 23  1  0  0  0
 23 17  1  0  0  0
 17 21  2  0  0  0
 17 18  1  0  0  0
 21 20  1  0  0  0
 18 22  2  0  0  0
  9  8  1  0  0  0
 20  2  1  0  0  0
 20 19  2  0  0  0
 22 19  1  0  0  0
  2  1  1  0  0  0
 10  8  1  0  0  0
 10  7  1  0  0  0
  8  5  2  0  0  0
  7  1  1  0  0  0
  7  6  2  0  0  0
  1  3  2  0  0  0
  5 12  1  0  0  0
  5  6  1  0  0  0
 14 12  2  0  0  0
 12 13  1  0  0  0
  6 15  1  0  0  0
 15 16  1  0  0  0
 10 11  1  0  0  0
  2  4  1  0  0  0
 27 28  1  0  0  0
 27 29  1  0  0  0
M  END
> <minimizedAffinity>
-6.93132

$$$$
5D24_L26_A_201


 29 30  0  0  0  0  0  0  0  0999 V2000
    8.3600    6.6922   -2.6212 C   0  0  0  0  0  0  0  0  0  0  0  0
    8.5664    6.1092   -1.3826 N   0  0  0  0  0  0  0  0  0  0  0  0
    9.2710    6.9874   -3.3839 O   0  0  0  0  0  0  0  0  0  0  0  0
    7.7815    5.8106   -0.8688 H   0  0  0  0  0  0  0  0  0  0  0  0
    4.8394    7.8631   -2.7635 C   0  0  0  0  0  0  0  0  0  0  0  0
    6.1544    8.1123   -2.3230 C   0  0  0  0  0  0  0  0  0  0  0  0
    6.9130    6.9583   -2.8474 C   0  0  0  0  0  0  0  0  0  0  0  0
    4.8313    6.5591   -3.4920 C   0  0  0  0  0  0  0  0  0  0  0  0
    3.6726    5.8550   -4.1679 C   0  0  0  0  0  0  0  0  0  0  0  0
    6.0945    6.0854   -3.4976 N   0  0  0  0  0  0  0  0  0  0  0  0
    6.3810    5.2381   -3.9089 H   0  0  0  0  0  0  0  0  0  0  0  0
    3.6052    8.6593   -2.5068 C   0  0  0  0  0  0  0  0  0  0  0  0
    2.7783    8.2437   -1.3197 C   0  0  0  0  0  0  0  0  0  0  0  0
    3.2138    9.5187   -3.2816 O   0  0  0  0  0  0  0  0  0  0  0  0
    6.7648    9.2793   -1.5502 C   0  0  0  0  0  0  0  0  0  0  0  0
    6.4127    9.0076   -0.0966 C   0  0  0  0  0  0  0  0  0  0  0  0
   11.1921    6.3572    1.1215 C   0  0  0  0  0  0  0  0  0  0  0  0
   12.3189    5.7894    0.5183 C   0  0  0  0  0  0  0  0  0  0  0  0
   10.9653    5.3669   -1.4567 C   0  0  0  0  0  0  0  0  0  0  0  0
    9.8492    5.9219   -0.8200 C   0  0  0  0  0  0  0  0  0  0  0  0
    9.9777    6.4263    0.4496 C   0  0  0  0  0  0  0  0  0  0  0  0
   12.2035    5.3054   -0.7816 C   0  0  0  0  0  0  0  0  0  0  0  0
   11.2187    6.8467    2.3962 O   0  0  0  0  0  0  0  0  0  0  0  0
   11.6965    6.0305    3.4596 C   0  0  0  0  0  0  0  0  0  0  0  0
   10.5603    5.8437    4.4258 C   0  0  0  0  0  0  0  0  0  0  0  0
    9.9077    4.8213    4.3563 O   0  0  0  0  0  0  0  0  0  0  0  0
   10.2873    6.8635    5.3819 N   0  0  0  0  0  0  0  0  0  0  0  0
    9.5460    6.7538    6.0205 H   0  0  0  0  0  0  0  0  0  0  0  0
   10.8398    7.6780    5.4042 H   0  0  0  0  0  0  0  0  0  0  0  0
 26 25  2  0  0  0
 25 27  1  0  0  0
 25 24  1  0  0  0
 24 23  1  0  0  0
 23 17  1  0  0  0
 17 21  2  0  0  0
 17 18  1  0  0  0
 21 20  1  0  0  0
 18 22  2  0  0  0
  9  8  1  0  0  0
 20  2  1  0  0  0
 20 19  2  0  0  0
 22 19  1  0  0  0
  2  1  1  0  0  0
 10  8  1  0  0  0
 10  7  1  0  0  0
  8  5  2  0  0  0
  7  1  1  0  0  0
  7  6  2  0  0  0
  1  3  2  0  0  0
  5 12  1  0  0  0
  5  6  1  0  0  0
 14 12  2  0  0  0
 12 13  1  0  0  0
  6 15  1  0  0  0
 15 16  1  0  0  0
 10 11  1  0  0  0
  2  4  1  0  0  0
 27 28  1  0  0  0
 27 29  1  0  0  0
M  END
> <minimizedAffinity>
-6.86315

$$$$
5D24_L26_A_201


 29 30  0  0  0  0  0  0  0  0999 V2000
    8.9479    6.1865    0.1444 C   0  0  0  0  0  0  0  0  0  0  0  0
    8.5025    6.9256   -0.9383 N   0  0  0  0  0  0  0  0  0  0  0  0
    8.3321    6.1040    1.1993 O   0  0  0  0  0  0  0  0  0  0  0  0
    9.0016    6.8640   -1.7847 H   0  0  0  0  0  0  0  0  0  0  0  0
   12.5030    5.1603   -0.1626 C   0  0  0  0  0  0  0  0  0  0  0  0
   11.5586    5.9845    0.4812 C   0  0  0  0  0  0  0  0  0  0  0  0
   10.2788    5.5825   -0.1375 C   0  0  0  0  0  0  0  0  0  0  0  0
   11.7831    4.3276   -1.1723 C   0  0  0  0  0  0  0  0  0  0  0  0
   12.3414    3.2766   -2.1098 C   0  0  0  0  0  0  0  0  0  0  0  0
   10.4719    4.6363   -1.0976 N   0  0  0  0  0  0  0  0  0  0  0  0
    9.7628    4.2382   -1.6526 H   0  0  0  0  0  0  0  0  0  0  0  0
   13.9839    5.1329    0.0078 C   0  0  0  0  0  0  0  0  0  0  0  0
   14.7062    6.4329   -0.2250 C   0  0  0  0  0  0  0  0  0  0  0  0
   14.5965    4.0939    0.2006 O   0  0  0  0  0  0  0  0  0  0  0  0
   11.7023    7.0184    1.5956 C   0  0  0  0  0  0  0  0  0  0  0  0
   11.7406    6.2028    2.8779 C   0  0  0  0  0  0  0  0  0  0  0  0
    5.4188    8.4589   -2.1069 C   0  0  0  0  0  0  0  0  0  0  0  0
    5.0821    9.3884   -1.1176 C   0  0  0  0  0  0  0  0  0  0  0  0
    7.0656    8.7004    0.1087 C   0  0  0  0  0  0  0  0  0  0  0  0
    7.3662    7.7643   -0.8873 C   0  0  0  0  0  0  0  0  0  0  0  0
    6.5542    7.6664   -1.9891 C   0  0  0  0  0  0  0  0  0  0  0  0
    5.9194    9.5154   -0.0130 C   0  0  0  0  0  0  0  0  0  0  0  0
    4.6465    8.2664   -3.2167 O   0  0  0  0  0  0  0  0  0  0  0  0
    4.4189    6.9483   -3.7025 C   0  0  0  0  0  0  0  0  0  0  0  0
    3.0430    6.5385   -3.2575 C   0  0  0  0  0  0  0  0  0  0  0  0
    2.7782    5.3533   -3.2231 O   0  0  0  0  0  0  0  0  0  0  0  0
    2.1021    7.5446   -2.8952 N   0  0  0  0  0  0  0  0  0  0  0  0
    1.1975    7.2899   -2.6020 H   0  0  0  0  0  0  0  0  0  0  0  0
    2.3564    8.4947   -2.9381 H   0  0  0  0  0  0  0  0  0  0  0  0
 26 25  2  0  0  0
 25 27  1  0  0  0
 25 24  1  0  0  0
 24 23  1  0  0  0
 23 17  1  0  0  0
 17 21  2  0  0  0
 17 18  1  0  0  0
 21 20  1  0  0  0
 18 22  2  0  0  0
  9  8  1  0  0  0
 20  2  1  0  0  0
 20 19  2  0  0  0
 22 19  1  0  0  0
  2  1  1  0  0  0
 10  8  1  0  0  0
 10  7  1  0  0  0
  8  5  2  0  0  0
  7  1  1  0  0  0
  7  6  2  0  0  0
  1  3  2  0  0  0
  5 12  1  0  0  0
  5  6  1  0  0  0
 14 12  2  0  0  0
 12 13  1  0  0  0
  6 15  1  0  0  0
 15 16  1  0  0  0
 10 11  1  0  0  0
  2  4  1  0  0  0
 27 28  1  0  0  0
 27 29  1  0  0  0
M  END
> <minimizedAffinity>
-6.81719

$$$$
5D24_L26_A_201


 29 30  0  0  0  0  0  0  0  0999 V2000
    9.8739    6.3671   -2.3214 C   0  0  0  0  0  0  0  0  0  0  0  0
    8.6869    6.2893   -1.6129 N   0  0  0  0  0  0  0  0  0  0  0  0
    9.9723    6.9262   -3.4061 O   0  0  0  0  0  0  0  0  0  0  0  0
    8.7077    5.9110   -0.7043 H   0  0  0  0  0  0  0  0  0  0  0  0
   12.6729    5.1057   -0.2333 C   0  0  0  0  0  0  0  0  0  0  0  0
   11.7546    6.1451   -0.4819 C   0  0  0  0  0  0  0  0  0  0  0  0
   10.9606    5.6329   -1.6174 C   0  0  0  0  0  0  0  0  0  0  0  0
   12.4418    4.0286   -1.2420 C   0  0  0  0  0  0  0  0  0  0  0  0
   13.1536    2.7000   -1.3941 C   0  0  0  0  0  0  0  0  0  0  0  0
   11.4139    4.4154   -2.0257 N   0  0  0  0  0  0  0  0  0  0  0  0
   11.0475    3.8967   -2.7780 H   0  0  0  0  0  0  0  0  0  0  0  0
   13.7713    5.0552    0.7736 C   0  0  0  0  0  0  0  0  0  0  0  0
   13.4053    5.4473    2.1801 C   0  0  0  0  0  0  0  0  0  0  0  0
   14.9305    4.8324    0.4597 O   0  0  0  0  0  0  0  0  0  0  0  0
   11.5105    7.4776    0.2229 C   0  0  0  0  0  0  0  0  0  0  0  0
   10.4963    7.1604    1.3100 C   0  0  0  0  0  0  0  0  0  0  0  0
    5.8587    8.5259   -2.0868 C   0  0  0  0  0  0  0  0  0  0  0  0
    4.9770    7.8206   -2.9122 C   0  0  0  0  0  0  0  0  0  0  0  0
    6.5756    5.9889   -2.9407 C   0  0  0  0  0  0  0  0  0  0  0  0
    7.4469    6.7265   -2.1309 C   0  0  0  0  0  0  0  0  0  0  0  0
    7.0735    7.9740   -1.6985 C   0  0  0  0  0  0  0  0  0  0  0  0
    5.3356    6.5415   -3.3277 C   0  0  0  0  0  0  0  0  0  0  0  0
    5.5865    9.7884   -1.6429 O   0  0  0  0  0  0  0  0  0  0  0  0
    4.3660   10.0525   -0.9601 C   0  0  0  0  0  0  0  0  0  0  0  0
    4.5724    9.6872    0.4832 C   0  0  0  0  0  0  0  0  0  0  0  0
    3.7309    9.0023    1.0297 O   0  0  0  0  0  0  0  0  0  0  0  0
    5.7371   10.1535    1.1577 N   0  0  0  0  0  0  0  0  0  0  0  0
    5.8845    9.9216    2.1030 H   0  0  0  0  0  0  0  0  0  0  0  0
    6.3947   10.7077    0.6785 H   0  0  0  0  0  0  0  0  0  0  0  0
 26 25  2  0  0  0
 25 27  1  0  0  0
 25 24  1  0  0  0
 24 23  1  0  0  0
 23 17  1  0  0  0
 17 21  2  0  0  0
 17 18  1  0  0  0
 21 20  1  0  0  0
 18 22  2  0  0  0
  9  8  1  0  0  0
 20  2  1  0  0  0
 20 19  2  0  0  0
 22 19  1  0  0  0
  2  1  1  0  0  0
 10  8  1  0  0  0
 10  7  1  0  0  0
  8  5  2  0  0  0
  7  1  1  0  0  0
  7  6  2  0  0  0
  1  3  2  0  0  0
  5 12  1  0  0  0
  5  6  1  0  0  0
 14 12  2  0  0  0
 12 13  1  0  0  0
  6 15  1  0  0  0
 15 16  1  0  0  0
 10 11  1  0  0  0
  2  4  1  0  0  0
 27 28  1  0  0  0
 27 29  1  0  0  0
M  END
> <minimizedAffinity>
-6.59715

$$$$
5D24_L26_A_201


 29 30  0  0  0  0  0  0  0  0999 V2000
   11.4315    6.5092    2.4976 C   0  0  0  0  0  0  0  0  0  0  0  0
   11.8864    6.8739    1.2418 N   0  0  0  0  0  0  0  0  0  0  0  0
   11.9314    5.6063    3.1561 O   0  0  0  0  0  0  0  0  0  0  0  0
   11.4982    7.6726    0.8168 H   0  0  0  0  0  0  0  0  0  0  0  0
    8.1367    8.1449    3.0024 C   0  0  0  0  0  0  0  0  0  0  0  0
    8.8607    7.1010    2.3928 C   0  0  0  0  0  0  0  0  0  0  0  0
   10.2383    7.3114    2.8829 C   0  0  0  0  0  0  0  0  0  0  0  0
    9.0930    8.9738    3.7957 C   0  0  0  0  0  0  0  0  0  0  0  0
    8.8134   10.1974    4.6442 C   0  0  0  0  0  0  0  0  0  0  0  0
   10.3160    8.4173    3.6737 N   0  0  0  0  0  0  0  0  0  0  0  0
   11.1391    8.7587    4.0924 H   0  0  0  0  0  0  0  0  0  0  0  0
    6.6929    8.4860    2.8546 C   0  0  0  0  0  0  0  0  0  0  0  0
    6.2721    9.0424    1.5207 C   0  0  0  0  0  0  0  0  0  0  0  0
    5.9148    8.4390    3.7950 O   0  0  0  0  0  0  0  0  0  0  0  0
    8.4220    5.9503    1.4899 C   0  0  0  0  0  0  0  0  0  0  0  0
    8.5275    6.5041    0.0781 C   0  0  0  0  0  0  0  0  0  0  0  0
   13.2500    4.2802   -0.9120 C   0  0  0  0  0  0  0  0  0  0  0  0
   14.6342    4.4783   -0.8813 C   0  0  0  0  0  0  0  0  0  0  0  0
   14.2630    6.3649    0.6068 C   0  0  0  0  0  0  0  0  0  0  0  0
   12.8808    6.1552    0.5406 C   0  0  0  0  0  0  0  0  0  0  0  0
   12.3914    5.1084   -0.1993 C   0  0  0  0  0  0  0  0  0  0  0  0
   15.1391    5.5185   -0.1065 C   0  0  0  0  0  0  0  0  0  0  0  0
   12.6738    3.2887   -1.6536 O   0  0  0  0  0  0  0  0  0  0  0  0
   13.4892    2.2965   -2.2669 C   0  0  0  0  0  0  0  0  0  0  0  0
   13.1895    2.3183   -3.7396 C   0  0  0  0  0  0  0  0  0  0  0  0
   12.0501    2.5501   -4.0918 O   0  0  0  0  0  0  0  0  0  0  0  0
   14.2417    2.0669   -4.6661 N   0  0  0  0  0  0  0  0  0  0  0  0
   14.0590    2.0782   -5.6334 H   0  0  0  0  0  0  0  0  0  0  0  0
   15.1517    1.8819   -4.3391 H   0  0  0  0  0  0  0  0  0  0  0  0
 26 25  2  0  0  0
 25 27  1  0  0  0
 25 24  1  0  0  0
 24 23  1  0  0  0
 23 17  1  0  0  0
 17 21  2  0  0  0
 17 18  1  0  0  0
 21 20  1  0  0  0
 18 22  2  0  0  0
  9  8  1  0  0  0
 20  2  1  0  0  0
 20 19  2  0  0  0
 22 19  1  0  0  0
  2  1  1  0  0  0
 10  8  1  0  0  0
 10  7  1  0  0  0
  8  5  2  0  0  0
  7  1  1  0  0  0
  7  6  2  0  0  0
  1  3  2  0  0  0
  5 12  1  0  0  0
  5  6  1  0  0  0
 14 12  2  0  0  0
 12 13  1  0  0  0
  6 15  1  0  0  0
 15 16  1  0  0  0
 10 11  1  0  0  0
  2  4  1  0  0  0
 27 28  1  0  0  0
 27 29  1  0  0  0
M  END
> <minimizedAffinity>
-6.58649

$$$$
5D24_L26_A_201


 29 30  0  0  0  0  0  0  0  0999 V2000
   11.5752    5.0656   -1.0828 C   0  0  0  0  0  0  0  0  0  0  0  0
   10.2525    4.8481   -0.7362 N   0  0  0  0  0  0  0  0  0  0  0  0
   12.2092    6.0499   -0.7252 O   0  0  0  0  0  0  0  0  0  0  0  0
    9.8403    3.9874   -0.9782 H   0  0  0  0  0  0  0  0  0  0  0  0
   13.3396    2.3651   -2.9212 C   0  0  0  0  0  0  0  0  0  0  0  0
   13.2914    3.1824   -1.7744 C   0  0  0  0  0  0  0  0  0  0  0  0
   12.0713    3.9888   -1.9828 C   0  0  0  0  0  0  0  0  0  0  0  0
   12.1887    2.7284   -3.8011 C   0  0  0  0  0  0  0  0  0  0  0  0
   11.7884    2.1350   -5.1364 C   0  0  0  0  0  0  0  0  0  0  0  0
   11.4864    3.6970   -3.1774 N   0  0  0  0  0  0  0  0  0  0  0  0
   10.6749    4.1272   -3.5319 H   0  0  0  0  0  0  0  0  0  0  0  0
   14.3737    1.3626   -3.3067 C   0  0  0  0  0  0  0  0  0  0  0  0
   15.2695    1.7371   -4.4570 C   0  0  0  0  0  0  0  0  0  0  0  0
   14.4166    0.2487   -2.8074 O   0  0  0  0  0  0  0  0  0  0  0  0
   14.1840    3.2542   -0.5376 C   0  0  0  0  0  0  0  0  0  0  0  0
   15.2431    4.2884   -0.8839 C   0  0  0  0  0  0  0  0  0  0  0  0
    8.7763    6.5352    2.1274 C   0  0  0  0  0  0  0  0  0  0  0  0
    7.9242    7.4983    1.5773 C   0  0  0  0  0  0  0  0  0  0  0  0
    8.6056    6.7421   -0.6307 C   0  0  0  0  0  0  0  0  0  0  0  0
    9.4654    5.8017   -0.0518 C   0  0  0  0  0  0  0  0  0  0  0  0
    9.5278    5.6951    1.3147 C   0  0  0  0  0  0  0  0  0  0  0  0
    7.8318    7.5895    0.1915 C   0  0  0  0  0  0  0  0  0  0  0  0
    8.9309    6.3866    3.4762 O   0  0  0  0  0  0  0  0  0  0  0  0
   10.0900    6.9055    4.1186 C   0  0  0  0  0  0  0  0  0  0  0  0
   10.7838    5.7532    4.7893 C   0  0  0  0  0  0  0  0  0  0  0  0
   11.9983    5.7255    4.7755 O   0  0  0  0  0  0  0  0  0  0  0  0
   10.0013    4.7392    5.4125 N   0  0  0  0  0  0  0  0  0  0  0  0
   10.4431    3.9790    5.8554 H   0  0  0  0  0  0  0  0  0  0  0  0
    9.0187    4.7986    5.4004 H   0  0  0  0  0  0  0  0  0  0  0  0
 26 25  2  0  0  0
 25 27  1  0  0  0
 25 24  1  0  0  0
 24 23  1  0  0  0
 23 17  1  0  0  0
 17 21  2  0  0  0
 17 18  1  0  0  0
 21 20  1  0  0  0
 18 22  2  0  0  0
  9  8  1  0  0  0
 20  2  1  0  0  0
 20 19  2  0  0  0
 22 19  1  0  0  0
  2  1  1  0  0  0
 10  8  1  0  0  0
 10  7  1  0  0  0
  8  5  2  0  0  0
  7  1  1  0  0  0
  7  6  2  0  0  0
  1  3  2  0  0  0
  5 12  1  0  0  0
  5  6  1  0  0  0
 14 12  2  0  0  0
 12 13  1  0  0  0
  6 15  1  0  0  0
 15 16  1  0  0  0
 10 11  1  0  0  0
  2  4  1  0  0  0
 27 28  1  0  0  0
 27 29  1  0  0  0
M  END
> <minimizedAffinity>
-6.35439

$$$$
5D24_L26_A_201


 29 30  0  0  0  0  0  0  0  0999 V2000
    7.0907    8.2379   -1.9596 C   0  0  0  0  0  0  0  0  0  0  0  0
    5.8254    7.7738   -1.6421 N   0  0  0  0  0  0  0  0  0  0  0  0
    7.2914    9.1529   -2.7477 O   0  0  0  0  0  0  0  0  0  0  0  0
    5.7384    7.1029   -0.9269 H   0  0  0  0  0  0  0  0  0  0  0  0
    9.9754    6.1830   -0.8453 C   0  0  0  0  0  0  0  0  0  0  0  0
    9.3713    6.9098   -1.8904 C   0  0  0  0  0  0  0  0  0  0  0  0
    8.1380    7.4356   -1.2703 C   0  0  0  0  0  0  0  0  0  0  0  0
    9.0789    6.2500    0.3476 C   0  0  0  0  0  0  0  0  0  0  0  0
    9.2801    5.6474    1.7230 C   0  0  0  0  0  0  0  0  0  0  0  0
    8.0126    7.0073    0.0163 N   0  0  0  0  0  0  0  0  0  0  0  0
    7.2589    7.2182    0.6136 H   0  0  0  0  0  0  0  0  0  0  0  0
   11.2333    5.3831   -0.8737 C   0  0  0  0  0  0  0  0  0  0  0  0
   12.5114    6.1414   -0.6342 C   0  0  0  0  0  0  0  0  0  0  0  0
   11.2469    4.2052   -1.1967 O   0  0  0  0  0  0  0  0  0  0  0  0
    9.8215    7.2007   -3.3203 C   0  0  0  0  0  0  0  0  0  0  0  0
    9.0999    6.1680   -4.1711 C   0  0  0  0  0  0  0  0  0  0  0  0
    3.1486    7.7390   -4.1037 C   0  0  0  0  0  0  0  0  0  0  0  0
    2.4110    8.8997   -3.8491 C   0  0  0  0  0  0  0  0  0  0  0  0
    3.9463    9.3953   -2.0301 C   0  0  0  0  0  0  0  0  0  0  0  0
    4.6529    8.2165   -2.2950 C   0  0  0  0  0  0  0  0  0  0  0  0
    4.2604    7.4135   -3.3361 C   0  0  0  0  0  0  0  0  0  0  0  0
    2.8234    9.7352   -2.8151 C   0  0  0  0  0  0  0  0  0  0  0  0
    2.8060    6.8622   -5.0931 O   0  0  0  0  0  0  0  0  0  0  0  0
    3.3981    5.5687   -5.1310 C   0  0  0  0  0  0  0  0  0  0  0  0
    2.8941    4.8816   -6.3692 C   0  0  0  0  0  0  0  0  0  0  0  0
    3.6135    4.8584   -7.3479 O   0  0  0  0  0  0  0  0  0  0  0  0
    1.6001    4.2867   -6.3551 N   0  0  0  0  0  0  0  0  0  0  0  0
    1.2579    3.8336   -7.1593 H   0  0  0  0  0  0  0  0  0  0  0  0
    1.0479    4.3286   -5.5411 H   0  0  0  0  0  0  0  0  0  0  0  0
 26 25  2  0  0  0
 25 27  1  0  0  0
 25 24  1  0  0  0
 24 23  1  0  0  0
 23 17  1  0  0  0
 17 21  2  0  0  0
 17 18  1  0  0  0
 21 20  1  0  0  0
 18 22  2  0  0  0
  9  8  1  0  0  0
 20  2  1  0  0  0
 20 19  2  0  0  0
 22 19  1  0  0  0
  2  1  1  0  0  0
 10  8  1  0  0  0
 10  7  1  0  0  0
  8  5  2  0  0  0
  7  1  1  0  0  0
  7  6  2  0  0  0
  1  3  2  0  0  0
  5 12  1  0  0  0
  5  6  1  0  0  0
 14 12  2  0  0  0
 12 13  1  0  0  0
  6 15  1  0  0  0
 15 16  1  0  0  0
 10 11  1  0  0  0
  2  4  1  0  0  0
 27 28  1  0  0  0
 27 29  1  0  0  0
M  END
> <minimizedAffinity>
-6.15603

$$$$
