5HWU_DUP_B_201


 35 36  0  0  0  0  0  0  0  0999 V2000
   12.2699    8.5205  -33.0712 O   0  0  0  0  0  0  0  0  0  0  0  0
   11.1126    8.5512  -34.2469 P   0  0  0  0  0  0  0  0  0  0  0  0
   11.7509    8.7122  -35.6084 O   0  0  0  0  0  0  0  0  0  0  0  0
   10.1239    9.6459  -34.0029 O   0  0  0  0  0  0  0  0  0  0  0  0
   10.5856   10.4986  -33.9769 H   0  0  0  0  0  0  0  0  0  0  0  0
   10.2005    7.1342  -34.2708 N   0  0  0  0  0  0  0  0  0  0  0  0
   10.8735    6.3712  -34.1980 H   0  0  0  0  0  0  0  0  0  0  0  0
    8.9794    6.7757  -33.1574 P   0  0  0  0  0  0  0  0  0  0  0  0
    8.5028    7.9402  -32.3208 O   0  0  0  0  0  0  0  0  0  0  0  0
    7.8068    6.2054  -33.9251 O   0  0  0  0  0  0  0  0  0  0  0  0
    7.4128    6.8997  -34.4761 H   0  0  0  0  0  0  0  0  0  0  0  0
    9.7387    5.6989  -32.1821 O   0  0  0  0  0  0  0  0  0  0  0  0
    9.0900    5.0147  -30.8341 P   0  0  0  0  0  0  0  0  0  0  0  0
    7.5978    4.9381  -31.0062 O   0  0  0  0  0  0  0  0  0  0  0  0
    9.4317    5.9192  -29.6792 O   0  0  0  0  0  0  0  0  0  0  0  0
    9.7144    3.6462  -30.7565 O   0  0  0  0  0  0  0  0  0  0  0  0
    8.9952    6.7769  -29.8001 H   0  0  0  0  0  0  0  0  0  0  0  0
    9.4492    3.1255  -31.5307 H   0  0  0  0  0  0  0  0  0  0  0  0
   11.9850    9.1542  -31.8550 C   0  0  0  0  0  0  0  0  0  0  0  0
   14.0565    8.1945  -29.7442 C   0  0  0  0  0  0  0  0  0  0  0  0
   13.3215    9.2120  -29.2936 C   0  0  0  0  0  0  0  0  0  0  0  0
   11.7877    8.7621  -29.5211 C   0  0  0  0  0  0  0  0  0  0  0  0
   11.4049    7.9076  -28.4392 O   0  0  0  0  0  0  0  0  0  0  0  0
   13.1278    7.3339  -30.7127 O   0  0  0  0  0  0  0  0  0  0  0  0
   11.8382    8.1266  -30.7453 C   0  0  0  0  0  0  0  0  0  0  0  0
   12.0287    7.1676  -28.3754 H   0  0  0  0  0  0  0  0  0  0  0  0
   18.6716    9.6566  -32.0702 O   0  0  0  0  0  0  0  0  0  0  0  0
   17.6415    9.3233  -31.5629 C   0  0  0  0  0  0  0  0  0  0  0  0
   16.5295    9.1472  -32.3336 C   0  0  0  0  0  0  0  0  0  0  0  0
   15.3448    8.7830  -31.7518 C   0  0  0  0  0  0  0  0  0  0  0  0
   17.5633    9.1351  -30.2568 N   0  0  0  0  0  0  0  0  0  0  0  0
   16.3746    8.7840  -29.6871 C   0  0  0  0  0  0  0  0  0  0  0  0
   16.2613    8.6051  -28.5172 O   0  0  0  0  0  0  0  0  0  0  0  0
   15.2702    8.6076  -30.4368 N   0  0  0  0  0  0  0  0  0  0  0  0
   18.3636    9.2485  -29.6947 H   0  0  0  0  0  0  0  0  0  0  0  0
 27 28  2  0  0  0
 28 29  1  0  0  0
 28 31  1  0  0  0
 29 30  2  0  0  0
 30 34  1  0  0  0
 31 32  1  0  0  0
 32 33  2  0  0  0
 32 34  1  0  0  0
 34 20  1  0  0  0
 20 21  1  0  0  0
 20 24  1  0  0  0
 21 22  1  0  0  0
 22 23  1  0  0  0
 22 25  1  0  0  0
 24 25  1  0  0  0
 25 19  1  0  0  0
 19  1  1  0  0  0
  1  2  1  0  0  0
  2  3  2  0  0  0
  2  4  1  0  0  0
  2  6  1  0  0  0
  6  8  1  0  0  0
  8  9  2  0  0  0
  8 10  1  0  0  0
  8 12  1  0  0  0
 12 13  1  0  0  0
 13 14  2  0  0  0
 13 15  1  0  0  0
 13 16  1  0  0  0
 31 35  1  0  0  0
 23 26  1  0  0  0
  4  5  1  0  0  0
  6  7  1  0  0  0
 10 11  1  0  0  0
 15 17  1  0  0  0
 16 18  1  0  0  0
M  END
> <minimizedAffinity>
-9.34624

$$$$
5HWU_DUP_B_201


 35 36  0  0  0  0  0  0  0  0999 V2000
   13.2598    8.5402  -33.3159 O   0  0  0  0  0  0  0  0  0  0  0  0
   11.6510    8.8934  -33.4154 P   0  0  0  0  0  0  0  0  0  0  0  0
   11.3187    9.4494  -34.7819 O   0  0  0  0  0  0  0  0  0  0  0  0
   11.2428    9.8573  -32.3479 O   0  0  0  0  0  0  0  0  0  0  0  0
   11.7618   10.6724  -32.4326 H   0  0  0  0  0  0  0  0  0  0  0  0
   10.6901    7.5314  -33.1667 N   0  0  0  0  0  0  0  0  0  0  0  0
   11.3194    6.7320  -33.2410 H   0  0  0  0  0  0  0  0  0  0  0  0
    9.7712    7.2629  -31.7729 P   0  0  0  0  0  0  0  0  0  0  0  0
   10.5045    7.4560  -30.4660 O   0  0  0  0  0  0  0  0  0  0  0  0
    8.5823    8.1978  -31.8159 O   0  0  0  0  0  0  0  0  0  0  0  0
    8.8867    9.1129  -31.7124 H   0  0  0  0  0  0  0  0  0  0  0  0
    9.3919    5.6766  -31.9376 O   0  0  0  0  0  0  0  0  0  0  0  0
    8.6313    4.7580  -30.8046 P   0  0  0  0  0  0  0  0  0  0  0  0
    7.4085    4.1432  -31.4283 O   0  0  0  0  0  0  0  0  0  0  0  0
    8.2313    5.6865  -29.6882 O   0  0  0  0  0  0  0  0  0  0  0  0
    9.6428    3.7136  -30.4110 O   0  0  0  0  0  0  0  0  0  0  0  0
    7.5813    6.3268  -30.0173 H   0  0  0  0  0  0  0  0  0  0  0  0
    9.8487    3.1575  -31.1786 H   0  0  0  0  0  0  0  0  0  0  0  0
   13.9728    9.0373  -32.2175 C   0  0  0  0  0  0  0  0  0  0  0  0
   15.7953    8.6228  -29.7327 C   0  0  0  0  0  0  0  0  0  0  0  0
   14.8832    9.5739  -29.5280 C   0  0  0  0  0  0  0  0  0  0  0  0
   13.4677    8.8931  -29.9015 C   0  0  0  0  0  0  0  0  0  0  0  0
   13.0285    8.1242  -28.7776 O   0  0  0  0  0  0  0  0  0  0  0  0
   15.1364    7.5363  -30.6953 O   0  0  0  0  0  0  0  0  0  0  0  0
   13.7815    8.1340  -31.0107 C   0  0  0  0  0  0  0  0  0  0  0  0
   13.7193    7.4899  -28.5300 H   0  0  0  0  0  0  0  0  0  0  0  0
   20.5171   10.3819  -31.5921 O   0  0  0  0  0  0  0  0  0  0  0  0
   19.4646    9.9828  -31.1891 C   0  0  0  0  0  0  0  0  0  0  0  0
   18.4325    9.7881  -32.0600 C   0  0  0  0  0  0  0  0  0  0  0  0
   17.2211    9.3482  -31.5975 C   0  0  0  0  0  0  0  0  0  0  0  0
   19.2839    9.7393  -29.9025 N   0  0  0  0  0  0  0  0  0  0  0  0
   18.0690    9.3127  -29.4519 C   0  0  0  0  0  0  0  0  0  0  0  0
   17.8646    9.0824  -28.3036 O   0  0  0  0  0  0  0  0  0  0  0  0
   17.0427    9.1172  -30.3012 N   0  0  0  0  0  0  0  0  0  0  0  0
   20.0267    9.8658  -29.2689 H   0  0  0  0  0  0  0  0  0  0  0  0
 27 28  2  0  0  0
 28 29  1  0  0  0
 28 31  1  0  0  0
 29 30  2  0  0  0
 30 34  1  0  0  0
 31 32  1  0  0  0
 32 33  2  0  0  0
 32 34  1  0  0  0
 34 20  1  0  0  0
 20 21  1  0  0  0
 20 24  1  0  0  0
 21 22  1  0  0  0
 22 23  1  0  0  0
 22 25  1  0  0  0
 24 25  1  0  0  0
 25 19  1  0  0  0
 19  1  1  0  0  0
  1  2  1  0  0  0
  2  3  2  0  0  0
  2  4  1  0  0  0
  2  6  1  0  0  0
  6  8  1  0  0  0
  8  9  2  0  0  0
  8 10  1  0  0  0
  8 12  1  0  0  0
 12 13  1  0  0  0
 13 14  2  0  0  0
 13 15  1  0  0  0
 13 16  1  0  0  0
 31 35  1  0  0  0
 23 26  1  0  0  0
  4  5  1  0  0  0
  6  7  1  0  0  0
 10 11  1  0  0  0
 15 17  1  0  0  0
 16 18  1  0  0  0
M  END
> <minimizedAffinity>
-9.11508

$$$$
5HWU_DUP_B_201


 35 36  0  0  0  0  0  0  0  0999 V2000
   13.2429    8.3871  -33.0212 O   0  0  0  0  0  0  0  0  0  0  0  0
   11.7190    8.8792  -33.4190 P   0  0  0  0  0  0  0  0  0  0  0  0
   11.6445    9.2210  -34.8903 O   0  0  0  0  0  0  0  0  0  0  0  0
   11.2962   10.0498  -32.5907 O   0  0  0  0  0  0  0  0  0  0  0  0
   11.9200   10.7809  -32.7220 H   0  0  0  0  0  0  0  0  0  0  0  0
   10.5703    7.6856  -33.1095 N   0  0  0  0  0  0  0  0  0  0  0  0
   11.0856    6.8056  -33.0859 H   0  0  0  0  0  0  0  0  0  0  0  0
    9.5685    7.6664  -31.7474 P   0  0  0  0  0  0  0  0  0  0  0  0
    9.5209    6.3561  -30.9964 O   0  0  0  0  0  0  0  0  0  0  0  0
   10.0411    8.7566  -30.8106 O   0  0  0  0  0  0  0  0  0  0  0  0
   10.9117    8.5211  -30.4536 H   0  0  0  0  0  0  0  0  0  0  0  0
    8.1007    7.9429  -32.4229 O   0  0  0  0  0  0  0  0  0  0  0  0
    7.6631    9.3147  -33.2183 P   0  0  0  0  0  0  0  0  0  0  0  0
    8.1466    9.2196  -34.6394 O   0  0  0  0  0  0  0  0  0  0  0  0
    8.3427   10.4608  -32.5162 O   0  0  0  0  0  0  0  0  0  0  0  0
    6.1591    9.3435  -33.1407 O   0  0  0  0  0  0  0  0  0  0  0  0
    9.3042   10.3730  -32.6100 H   0  0  0  0  0  0  0  0  0  0  0  0
    5.7963    8.5780  -33.6133 H   0  0  0  0  0  0  0  0  0  0  0  0
   13.7847    8.8450  -31.8134 C   0  0  0  0  0  0  0  0  0  0  0  0
   15.1345    8.2838  -29.0693 C   0  0  0  0  0  0  0  0  0  0  0  0
   14.2923    9.3159  -29.0080 C   0  0  0  0  0  0  0  0  0  0  0  0
   12.8998    8.7649  -29.6111 C   0  0  0  0  0  0  0  0  0  0  0  0
   12.2156    8.0479  -28.5792 O   0  0  0  0  0  0  0  0  0  0  0  0
   14.5437    7.2551  -30.1341 O   0  0  0  0  0  0  0  0  0  0  0  0
   13.3184    7.9720  -30.6605 C   0  0  0  0  0  0  0  0  0  0  0  0
   12.7960    7.3548  -28.2277 H   0  0  0  0  0  0  0  0  0  0  0  0
   20.2248    9.6431  -30.1125 O   0  0  0  0  0  0  0  0  0  0  0  0
   19.0924    9.3310  -29.8897 C   0  0  0  0  0  0  0  0  0  0  0  0
   18.2679    8.9820  -30.9193 C   0  0  0  0  0  0  0  0  0  0  0  0
   16.9658    8.6418  -30.6677 C   0  0  0  0  0  0  0  0  0  0  0  0
   18.6234    9.3327  -28.6537 N   0  0  0  0  0  0  0  0  0  0  0  0
   17.3210    9.0034  -28.4167 C   0  0  0  0  0  0  0  0  0  0  0  0
   16.8598    8.9923  -27.3210 O   0  0  0  0  0  0  0  0  0  0  0  0
   16.4975    8.6576  -29.4243 N   0  0  0  0  0  0  0  0  0  0  0  0
   19.2146    9.5718  -27.9037 H   0  0  0  0  0  0  0  0  0  0  0  0
 27 28  2  0  0  0
 28 29  1  0  0  0
 28 31  1  0  0  0
 29 30  2  0  0  0
 30 34  1  0  0  0
 31 32  1  0  0  0
 32 33  2  0  0  0
 32 34  1  0  0  0
 34 20  1  0  0  0
 20 21  1  0  0  0
 20 24  1  0  0  0
 21 22  1  0  0  0
 22 23  1  0  0  0
 22 25  1  0  0  0
 24 25  1  0  0  0
 25 19  1  0  0  0
 19  1  1  0  0  0
  1  2  1  0  0  0
  2  3  2  0  0  0
  2  4  1  0  0  0
  2  6  1  0  0  0
  6  8  1  0  0  0
  8  9  2  0  0  0
  8 10  1  0  0  0
  8 12  1  0  0  0
 12 13  1  0  0  0
 13 14  2  0  0  0
 13 15  1  0  0  0
 13 16  1  0  0  0
 31 35  1  0  0  0
 23 26  1  0  0  0
  4  5  1  0  0  0
  6  7  1  0  0  0
 10 11  1  0  0  0
 15 17  1  0  0  0
 16 18  1  0  0  0
M  END
> <minimizedAffinity>
-9.09451

$$$$
5HWU_DUP_B_201


 35 36  0  0  0  0  0  0  0  0999 V2000
   12.2743    7.7704  -31.1958 O   0  0  0  0  0  0  0  0  0  0  0  0
   10.9238    7.9902  -30.2736 P   0  0  0  0  0  0  0  0  0  0  0  0
   10.9276    9.3711  -29.6571 O   0  0  0  0  0  0  0  0  0  0  0  0
   10.8209    6.9453  -29.2092 O   0  0  0  0  0  0  0  0  0  0  0  0
   11.6098    6.9787  -28.6459 H   0  0  0  0  0  0  0  0  0  0  0  0
    9.5105    7.8348  -31.1784 N   0  0  0  0  0  0  0  0  0  0  0  0
    9.3784    8.7342  -31.6410 H   0  0  0  0  0  0  0  0  0  0  0  0
    9.2776    6.6648  -32.3767 P   0  0  0  0  0  0  0  0  0  0  0  0
    7.8768    6.5808  -32.9369 O   0  0  0  0  0  0  0  0  0  0  0  0
   10.2441    6.9581  -33.5033 O   0  0  0  0  0  0  0  0  0  0  0  0
    9.9880    7.7843  -33.9422 H   0  0  0  0  0  0  0  0  0  0  0  0
    9.6001    5.2871  -31.5489 O   0  0  0  0  0  0  0  0  0  0  0  0
    8.5938    4.5741  -30.4603 P   0  0  0  0  0  0  0  0  0  0  0  0
    7.5898    3.7417  -31.2094 O   0  0  0  0  0  0  0  0  0  0  0  0
    7.8958    5.6846  -29.7201 O   0  0  0  0  0  0  0  0  0  0  0  0
    9.4934    3.7250  -29.6009 O   0  0  0  0  0  0  0  0  0  0  0  0
    7.3382    6.1839  -30.3371 H   0  0  0  0  0  0  0  0  0  0  0  0
    9.9046    3.0358  -30.1456 H   0  0  0  0  0  0  0  0  0  0  0  0
   13.1125    8.8733  -31.4032 C   0  0  0  0  0  0  0  0  0  0  0  0
   16.1300    8.1535  -31.6132 C   0  0  0  0  0  0  0  0  0  0  0  0
   15.3579    7.0661  -31.6080 C   0  0  0  0  0  0  0  0  0  0  0  0
   14.2670    7.3135  -32.7721 C   0  0  0  0  0  0  0  0  0  0  0  0
   14.8648    6.9755  -34.0273 O   0  0  0  0  0  0  0  0  0  0  0  0
   15.3131    9.3087  -32.3476 O   0  0  0  0  0  0  0  0  0  0  0  0
   13.9773    8.6559  -32.6336 C   0  0  0  0  0  0  0  0  0  0  0  0
   15.6855    7.4800  -34.1408 H   0  0  0  0  0  0  0  0  0  0  0  0
   17.8854    9.8472  -26.8282 O   0  0  0  0  0  0  0  0  0  0  0  0
   17.4832    9.4767  -27.8913 C   0  0  0  0  0  0  0  0  0  0  0  0
   16.1745    9.1189  -28.0362 C   0  0  0  0  0  0  0  0  0  0  0  0
   15.7164    8.6772  -29.2486 C   0  0  0  0  0  0  0  0  0  0  0  0
   18.2975    9.3966  -28.9296 N   0  0  0  0  0  0  0  0  0  0  0  0
   17.8323    8.9437  -30.1293 C   0  0  0  0  0  0  0  0  0  0  0  0
   18.5309    8.8565  -31.0874 O   0  0  0  0  0  0  0  0  0  0  0  0
   16.5433    8.5874  -30.2849 N   0  0  0  0  0  0  0  0  0  0  0  0
   19.2404    9.6639  -28.8368 H   0  0  0  0  0  0  0  0  0  0  0  0
 27 28  2  0  0  0
 28 29  1  0  0  0
 28 31  1  0  0  0
 29 30  2  0  0  0
 30 34  1  0  0  0
 31 32  1  0  0  0
 32 33  2  0  0  0
 32 34  1  0  0  0
 34 20  1  0  0  0
 20 21  1  0  0  0
 20 24  1  0  0  0
 21 22  1  0  0  0
 22 23  1  0  0  0
 22 25  1  0  0  0
 24 25  1  0  0  0
 25 19  1  0  0  0
 19  1  1  0  0  0
  1  2  1  0  0  0
  2  3  2  0  0  0
  2  4  1  0  0  0
  2  6  1  0  0  0
  6  8  1  0  0  0
  8  9  2  0  0  0
  8 10  1  0  0  0
  8 12  1  0  0  0
 12 13  1  0  0  0
 13 14  2  0  0  0
 13 15  1  0  0  0
 13 16  1  0  0  0
 31 35  1  0  0  0
 23 26  1  0  0  0
  4  5  1  0  0  0
  6  7  1  0  0  0
 10 11  1  0  0  0
 15 17  1  0  0  0
 16 18  1  0  0  0
M  END
> <minimizedAffinity>
-8.94808

$$$$
5HWU_DUP_B_201


 35 36  0  0  0  0  0  0  0  0999 V2000
   12.3086    8.5369  -33.1131 O   0  0  0  0  0  0  0  0  0  0  0  0
   11.1768    8.4582  -34.3113 P   0  0  0  0  0  0  0  0  0  0  0  0
   10.3241    7.2199  -34.1481 O   0  0  0  0  0  0  0  0  0  0  0  0
   11.8183    8.4742  -35.6617 O   0  0  0  0  0  0  0  0  0  0  0  0
   12.4281    7.7238  -35.7389 H   0  0  0  0  0  0  0  0  0  0  0  0
   10.1506    9.7949  -34.2978 N   0  0  0  0  0  0  0  0  0  0  0  0
   10.7290   10.5901  -34.5688 H   0  0  0  0  0  0  0  0  0  0  0  0
    8.7418    9.9161  -35.2251 P   0  0  0  0  0  0  0  0  0  0  0  0
    8.6304   11.1604  -36.0750 O   0  0  0  0  0  0  0  0  0  0  0  0
    8.6710    8.6980  -36.1198 O   0  0  0  0  0  0  0  0  0  0  0  0
    9.3801    8.7404  -36.7804 H   0  0  0  0  0  0  0  0  0  0  0  0
    7.5914    9.9674  -34.0583 O   0  0  0  0  0  0  0  0  0  0  0  0
    7.1167    8.6920  -33.1341 P   0  0  0  0  0  0  0  0  0  0  0  0
    6.8283    7.5256  -34.0389 O   0  0  0  0  0  0  0  0  0  0  0  0
    5.8602    9.1157  -32.4199 O   0  0  0  0  0  0  0  0  0  0  0  0
    8.2853    8.4177  -32.2243 O   0  0  0  0  0  0  0  0  0  0  0  0
    5.1567    9.2731  -33.0690 H   0  0  0  0  0  0  0  0  0  0  0  0
    9.0526    8.1518  -32.7548 H   0  0  0  0  0  0  0  0  0  0  0  0
   11.9436    9.1474  -31.9065 C   0  0  0  0  0  0  0  0  0  0  0  0
   14.0055    8.1642  -29.7972 C   0  0  0  0  0  0  0  0  0  0  0  0
   13.2660    9.1741  -29.3373 C   0  0  0  0  0  0  0  0  0  0  0  0
   11.7344    8.7242  -29.5790 C   0  0  0  0  0  0  0  0  0  0  0  0
   11.3475    7.8548  -28.5106 O   0  0  0  0  0  0  0  0  0  0  0  0
   13.0839    7.3145  -30.7820 O   0  0  0  0  0  0  0  0  0  0  0  0
   11.7929    8.1050  -30.8112 C   0  0  0  0  0  0  0  0  0  0  0  0
   11.9725    7.1152  -28.4531 H   0  0  0  0  0  0  0  0  0  0  0  0
   18.6297    9.6690  -32.0774 O   0  0  0  0  0  0  0  0  0  0  0  0
   17.5978    9.3262  -31.5803 C   0  0  0  0  0  0  0  0  0  0  0  0
   16.4941    9.1439  -32.3615 C   0  0  0  0  0  0  0  0  0  0  0  0
   15.3071    8.7688  -31.7914 C   0  0  0  0  0  0  0  0  0  0  0  0
   17.5094    9.1334  -30.2755 N   0  0  0  0  0  0  0  0  0  0  0  0
   16.3184    8.7713  -29.7175 C   0  0  0  0  0  0  0  0  0  0  0  0
   16.1961    8.5880  -28.5492 O   0  0  0  0  0  0  0  0  0  0  0  0
   15.2222    8.5887  -30.4776 N   0  0  0  0  0  0  0  0  0  0  0  0
   18.3038    9.2512  -29.7060 H   0  0  0  0  0  0  0  0  0  0  0  0
 27 28  2  0  0  0
 28 29  1  0  0  0
 28 31  1  0  0  0
 29 30  2  0  0  0
 30 34  1  0  0  0
 31 32  1  0  0  0
 32 33  2  0  0  0
 32 34  1  0  0  0
 34 20  1  0  0  0
 20 21  1  0  0  0
 20 24  1  0  0  0
 21 22  1  0  0  0
 22 23  1  0  0  0
 22 25  1  0  0  0
 24 25  1  0  0  0
 25 19  1  0  0  0
 19  1  1  0  0  0
  1  2  1  0  0  0
  2  3  2  0  0  0
  2  4  1  0  0  0
  2  6  1  0  0  0
  6  8  1  0  0  0
  8  9  2  0  0  0
  8 10  1  0  0  0
  8 12  1  0  0  0
 12 13  1  0  0  0
 13 14  2  0  0  0
 13 15  1  0  0  0
 13 16  1  0  0  0
 31 35  1  0  0  0
 23 26  1  0  0  0
  4  5  1  0  0  0
  6  7  1  0  0  0
 10 11  1  0  0  0
 15 17  1  0  0  0
 16 18  1  0  0  0
M  END
> <minimizedAffinity>
-8.65810

$$$$
5HWU_DUP_B_201


 35 36  0  0  0  0  0  0  0  0999 V2000
   11.8588    7.3800  -30.9172 O   0  0  0  0  0  0  0  0  0  0  0  0
   10.3019    7.7698  -31.3004 P   0  0  0  0  0  0  0  0  0  0  0  0
   10.0115    9.2051  -30.9227 O   0  0  0  0  0  0  0  0  0  0  0  0
    9.3340    6.8490  -30.6293 O   0  0  0  0  0  0  0  0  0  0  0  0
    9.4554    6.8969  -29.6681 H   0  0  0  0  0  0  0  0  0  0  0  0
    9.9971    7.6001  -32.9491 N   0  0  0  0  0  0  0  0  0  0  0  0
   10.2043    6.6260  -33.1696 H   0  0  0  0  0  0  0  0  0  0  0  0
    8.5049    7.9265  -33.6744 P   0  0  0  0  0  0  0  0  0  0  0  0
    7.9066    6.7876  -34.4669 O   0  0  0  0  0  0  0  0  0  0  0  0
    7.5387    8.3306  -32.5825 O   0  0  0  0  0  0  0  0  0  0  0  0
    7.3517    7.5651  -32.0167 H   0  0  0  0  0  0  0  0  0  0  0  0
    8.9057    9.1359  -34.7060 O   0  0  0  0  0  0  0  0  0  0  0  0
    9.4542   10.6219  -34.2621 P   0  0  0  0  0  0  0  0  0  0  0  0
   10.9420   10.5418  -34.0566 O   0  0  0  0  0  0  0  0  0  0  0  0
    8.7709   10.9688  -32.9654 O   0  0  0  0  0  0  0  0  0  0  0  0
    9.0971   11.5255  -35.4130 O   0  0  0  0  0  0  0  0  0  0  0  0
    9.0499   10.3459  -32.2762 H   0  0  0  0  0  0  0  0  0  0  0  0
    9.5738   11.2401  -36.2081 H   0  0  0  0  0  0  0  0  0  0  0  0
   12.7787    8.4261  -30.7699 C   0  0  0  0  0  0  0  0  0  0  0  0
   15.7828    8.7633  -31.4970 C   0  0  0  0  0  0  0  0  0  0  0  0
   15.3642    7.5102  -31.6788 C   0  0  0  0  0  0  0  0  0  0  0  0
   14.0514    7.6313  -32.6106 C   0  0  0  0  0  0  0  0  0  0  0  0
   14.4764    7.7667  -33.9701 O   0  0  0  0  0  0  0  0  0  0  0  0
   14.5514    9.7235  -31.8179 O   0  0  0  0  0  0  0  0  0  0  0  0
   13.4255    8.7529  -32.1055 C   0  0  0  0  0  0  0  0  0  0  0  0
   15.0852    8.5181  -34.0452 H   0  0  0  0  0  0  0  0  0  0  0  0
   17.9202    9.7692  -26.6735 O   0  0  0  0  0  0  0  0  0  0  0  0
   17.4347    9.5540  -27.7446 C   0  0  0  0  0  0  0  0  0  0  0  0
   16.0779    9.4992  -27.8776 C   0  0  0  0  0  0  0  0  0  0  0  0
   15.5206    9.2350  -29.1001 C   0  0  0  0  0  0  0  0  0  0  0  0
   18.2000    9.3547  -28.8039 N   0  0  0  0  0  0  0  0  0  0  0  0
   17.6335    9.0805  -30.0142 C   0  0  0  0  0  0  0  0  0  0  0  0
   18.2852    8.8952  -30.9911 O   0  0  0  0  0  0  0  0  0  0  0  0
   16.2960    9.0234  -30.1582 N   0  0  0  0  0  0  0  0  0  0  0  0
   19.1796    9.4042  -28.7193 H   0  0  0  0  0  0  0  0  0  0  0  0
 27 28  2  0  0  0
 28 29  1  0  0  0
 28 31  1  0  0  0
 29 30  2  0  0  0
 30 34  1  0  0  0
 31 32  1  0  0  0
 32 33  2  0  0  0
 32 34  1  0  0  0
 34 20  1  0  0  0
 20 21  1  0  0  0
 20 24  1  0  0  0
 21 22  1  0  0  0
 22 23  1  0  0  0
 22 25  1  0  0  0
 24 25  1  0  0  0
 25 19  1  0  0  0
 19  1  1  0  0  0
  1  2  1  0  0  0
  2  3  2  0  0  0
  2  4  1  0  0  0
  2  6  1  0  0  0
  6  8  1  0  0  0
  8  9  2  0  0  0
  8 10  1  0  0  0
  8 12  1  0  0  0
 12 13  1  0  0  0
 13 14  2  0  0  0
 13 15  1  0  0  0
 13 16  1  0  0  0
 31 35  1  0  0  0
 23 26  1  0  0  0
  4  5  1  0  0  0
  6  7  1  0  0  0
 10 11  1  0  0  0
 15 17  1  0  0  0
 16 18  1  0  0  0
M  END
> <minimizedAffinity>
-8.33847

$$$$
5HWU_DUP_B_201


 35 36  0  0  0  0  0  0  0  0999 V2000
   13.0377    8.1289  -31.6632 O   0  0  0  0  0  0  0  0  0  0  0  0
   13.8615    8.1203  -30.2334 P   0  0  0  0  0  0  0  0  0  0  0  0
   14.7678    6.9121  -30.1566 O   0  0  0  0  0  0  0  0  0  0  0  0
   12.9233    8.1420  -29.0696 O   0  0  0  0  0  0  0  0  0  0  0  0
   12.3365    7.3708  -29.1128 H   0  0  0  0  0  0  0  0  0  0  0  0
   14.8196    9.4945  -30.0498 N   0  0  0  0  0  0  0  0  0  0  0  0
   14.2261   10.1858  -29.5912 H   0  0  0  0  0  0  0  0  0  0  0  0
   16.2864    9.5203  -29.2090 P   0  0  0  0  0  0  0  0  0  0  0  0
   16.5090   10.7297  -28.3309 O   0  0  0  0  0  0  0  0  0  0  0  0
   16.3530    8.2715  -28.3571 O   0  0  0  0  0  0  0  0  0  0  0  0
   15.6884    8.3249  -27.6526 H   0  0  0  0  0  0  0  0  0  0  0  0
   17.3647    9.5566  -30.4432 O   0  0  0  0  0  0  0  0  0  0  0  0
   18.9969    9.4271  -30.2842 P   0  0  0  0  0  0  0  0  0  0  0  0
   19.4347    8.1201  -30.8861 O   0  0  0  0  0  0  0  0  0  0  0  0
   19.2931    9.4416  -28.8076 O   0  0  0  0  0  0  0  0  0  0  0  0
   19.5536   10.6047  -31.0405 O   0  0  0  0  0  0  0  0  0  0  0  0
   18.9044    8.6560  -28.3921 H   0  0  0  0  0  0  0  0  0  0  0  0
   19.3229   10.5245  -31.9792 H   0  0  0  0  0  0  0  0  0  0  0  0
   12.2619    9.2553  -31.9653 C   0  0  0  0  0  0  0  0  0  0  0  0
    9.8123    7.9888  -33.4016 C   0  0  0  0  0  0  0  0  0  0  0  0
    9.5802    9.2517  -33.0416 C   0  0  0  0  0  0  0  0  0  0  0  0
   10.8132   10.1000  -33.6468 C   0  0  0  0  0  0  0  0  0  0  0  0
   10.5425   10.3641  -35.0267 O   0  0  0  0  0  0  0  0  0  0  0  0
   11.3621    7.8770  -33.7583 O   0  0  0  0  0  0  0  0  0  0  0  0
   11.8884    9.2601  -33.4382 C   0  0  0  0  0  0  0  0  0  0  0  0
   10.3732    9.5282  -35.4887 H   0  0  0  0  0  0  0  0  0  0  0  0
    8.3897    4.2241  -29.8449 O   0  0  0  0  0  0  0  0  0  0  0  0
    8.7187    5.0624  -30.6314 C   0  0  0  0  0  0  0  0  0  0  0  0
    9.5412    6.0778  -30.2389 C   0  0  0  0  0  0  0  0  0  0  0  0
    9.9043    7.0485  -31.1336 C   0  0  0  0  0  0  0  0  0  0  0  0
    8.2826    5.0247  -31.8787 N   0  0  0  0  0  0  0  0  0  0  0  0
    8.6416    6.0040  -32.7579 C   0  0  0  0  0  0  0  0  0  0  0  0
    8.2718    6.0074  -33.8878 O   0  0  0  0  0  0  0  0  0  0  0  0
    9.4525    7.0113  -32.3826 N   0  0  0  0  0  0  0  0  0  0  0  0
    7.6983    4.2892  -32.1735 H   0  0  0  0  0  0  0  0  0  0  0  0
 27 28  2  0  0  0
 28 29  1  0  0  0
 28 31  1  0  0  0
 29 30  2  0  0  0
 30 34  1  0  0  0
 31 32  1  0  0  0
 32 33  2  0  0  0
 32 34  1  0  0  0
 34 20  1  0  0  0
 20 21  1  0  0  0
 20 24  1  0  0  0
 21 22  1  0  0  0
 22 23  1  0  0  0
 22 25  1  0  0  0
 24 25  1  0  0  0
 25 19  1  0  0  0
 19  1  1  0  0  0
  1  2  1  0  0  0
  2  3  2  0  0  0
  2  4  1  0  0  0
  2  6  1  0  0  0
  6  8  1  0  0  0
  8  9  2  0  0  0
  8 10  1  0  0  0
  8 12  1  0  0  0
 12 13  1  0  0  0
 13 14  2  0  0  0
 13 15  1  0  0  0
 13 16  1  0  0  0
 31 35  1  0  0  0
 23 26  1  0  0  0
  4  5  1  0  0  0
  6  7  1  0  0  0
 10 11  1  0  0  0
 15 17  1  0  0  0
 16 18  1  0  0  0
M  END
> <minimizedAffinity>
-8.15702

$$$$
5HWU_DUP_B_201


 35 36  0  0  0  0  0  0  0  0999 V2000
   11.0891    9.6401  -32.4283 O   0  0  0  0  0  0  0  0  0  0  0  0
   11.2931    8.7610  -33.8098 P   0  0  0  0  0  0  0  0  0  0  0  0
   12.7009    8.2133  -33.8809 O   0  0  0  0  0  0  0  0  0  0  0  0
   10.9924    9.5828  -35.0220 O   0  0  0  0  0  0  0  0  0  0  0  0
   11.5749   10.3583  -35.0396 H   0  0  0  0  0  0  0  0  0  0  0  0
   10.2291    7.4566  -33.8897 N   0  0  0  0  0  0  0  0  0  0  0  0
   10.7162    6.6754  -33.4504 H   0  0  0  0  0  0  0  0  0  0  0  0
    8.6750    7.4604  -33.2232 P   0  0  0  0  0  0  0  0  0  0  0  0
    8.0972    6.0980  -32.9184 O   0  0  0  0  0  0  0  0  0  0  0  0
    8.7207    8.2748  -31.9487 O   0  0  0  0  0  0  0  0  0  0  0  0
    9.2497    7.8061  -31.2844 H   0  0  0  0  0  0  0  0  0  0  0  0
    7.8070    8.1448  -34.4336 O   0  0  0  0  0  0  0  0  0  0  0  0
    7.5436    9.7578  -34.6208 P   0  0  0  0  0  0  0  0  0  0  0  0
    8.1368   10.1911  -35.9332 O   0  0  0  0  0  0  0  0  0  0  0  0
    8.2466   10.4488  -33.4821 O   0  0  0  0  0  0  0  0  0  0  0  0
    6.0450    9.9088  -34.6081 O   0  0  0  0  0  0  0  0  0  0  0  0
    9.2031   10.3067  -33.5587 H   0  0  0  0  0  0  0  0  0  0  0  0
    5.6663    9.4393  -35.3677 H   0  0  0  0  0  0  0  0  0  0  0  0
   12.0663    9.5290  -31.4310 C   0  0  0  0  0  0  0  0  0  0  0  0
   13.9435    7.9534  -29.5176 C   0  0  0  0  0  0  0  0  0  0  0  0
   13.3325    8.9628  -28.8960 C   0  0  0  0  0  0  0  0  0  0  0  0
   11.7604    8.7627  -29.2041 C   0  0  0  0  0  0  0  0  0  0  0  0
   11.2442    7.7888  -28.2918 O   0  0  0  0  0  0  0  0  0  0  0  0
   12.9382    7.4039  -30.6260 O   0  0  0  0  0  0  0  0  0  0  0  0
   11.7613    8.3506  -30.5213 C   0  0  0  0  0  0  0  0  0  0  0  0
   11.7669    6.9744  -28.3584 H   0  0  0  0  0  0  0  0  0  0  0  0
   18.5872    9.1267  -31.9479 O   0  0  0  0  0  0  0  0  0  0  0  0
   17.5506    8.8785  -31.4064 C   0  0  0  0  0  0  0  0  0  0  0  0
   17.0903    9.6926  -30.4129 C   0  0  0  0  0  0  0  0  0  0  0  0
   15.9122    9.3999  -29.7795 C   0  0  0  0  0  0  0  0  0  0  0  0
   16.8482    7.8130  -31.7510 N   0  0  0  0  0  0  0  0  0  0  0  0
   15.6820    7.5251  -31.1046 C   0  0  0  0  0  0  0  0  0  0  0  0
   15.0205    6.5774  -31.3836 O   0  0  0  0  0  0  0  0  0  0  0  0
   15.2175    8.3204  -30.1225 N   0  0  0  0  0  0  0  0  0  0  0  0
   17.1671    7.2267  -32.4748 H   0  0  0  0  0  0  0  0  0  0  0  0
 27 28  2  0  0  0
 28 29  1  0  0  0
 28 31  1  0  0  0
 29 30  2  0  0  0
 30 34  1  0  0  0
 31 32  1  0  0  0
 32 33  2  0  0  0
 32 34  1  0  0  0
 34 20  1  0  0  0
 20 21  1  0  0  0
 20 24  1  0  0  0
 21 22  1  0  0  0
 22 23  1  0  0  0
 22 25  1  0  0  0
 24 25  1  0  0  0
 25 19  1  0  0  0
 19  1  1  0  0  0
  1  2  1  0  0  0
  2  3  2  0  0  0
  2  4  1  0  0  0
  2  6  1  0  0  0
  6  8  1  0  0  0
  8  9  2  0  0  0
  8 10  1  0  0  0
  8 12  1  0  0  0
 12 13  1  0  0  0
 13 14  2  0  0  0
 13 15  1  0  0  0
 13 16  1  0  0  0
 31 35  1  0  0  0
 23 26  1  0  0  0
  4  5  1  0  0  0
  6  7  1  0  0  0
 10 11  1  0  0  0
 15 17  1  0  0  0
 16 18  1  0  0  0
M  END
> <minimizedAffinity>
-8.11005

$$$$
5HWU_DUP_B_201


 35 36  0  0  0  0  0  0  0  0999 V2000
   13.8843    7.9050  -32.7674 O   0  0  0  0  0  0  0  0  0  0  0  0
   15.3500    8.4068  -32.1992 P   0  0  0  0  0  0  0  0  0  0  0  0
   15.9523    9.4325  -33.1331 O   0  0  0  0  0  0  0  0  0  0  0  0
   16.2839    7.2529  -32.0213 O   0  0  0  0  0  0  0  0  0  0  0  0
   16.4012    6.7980  -32.8700 H   0  0  0  0  0  0  0  0  0  0  0  0
   15.2270    9.1104  -30.6728 N   0  0  0  0  0  0  0  0  0  0  0  0
   14.5975    9.9051  -30.7849 H   0  0  0  0  0  0  0  0  0  0  0  0
   14.6905    8.2920  -29.2938 P   0  0  0  0  0  0  0  0  0  0  0  0
   13.5706    8.9655  -28.5351 O   0  0  0  0  0  0  0  0  0  0  0  0
   14.2389    6.9126  -29.7211 O   0  0  0  0  0  0  0  0  0  0  0  0
   13.4387    6.9882  -30.2640 H   0  0  0  0  0  0  0  0  0  0  0  0
   16.0415    8.3052  -28.3653 O   0  0  0  0  0  0  0  0  0  0  0  0
   16.9087    9.6451  -27.9670 P   0  0  0  0  0  0  0  0  0  0  0  0
   16.3738   10.8124  -28.7501 O   0  0  0  0  0  0  0  0  0  0  0  0
   18.3373    9.3712  -28.3576 O   0  0  0  0  0  0  0  0  0  0  0  0
   16.6926    9.8194  -26.4866 O   0  0  0  0  0  0  0  0  0  0  0  0
   18.3957    9.2714  -29.3207 H   0  0  0  0  0  0  0  0  0  0  0  0
   15.7535    9.9915  -26.3150 H   0  0  0  0  0  0  0  0  0  0  0  0
   12.7838    8.7503  -32.5772 C   0  0  0  0  0  0  0  0  0  0  0  0
    9.8384    8.1077  -33.3385 C   0  0  0  0  0  0  0  0  0  0  0  0
    9.9733    9.3516  -32.8771 C   0  0  0  0  0  0  0  0  0  0  0  0
   11.1539   10.0076  -33.7616 C   0  0  0  0  0  0  0  0  0  0  0  0
   10.5941   10.4478  -35.0025 O   0  0  0  0  0  0  0  0  0  0  0  0
   11.1845    7.7420  -34.1102 O   0  0  0  0  0  0  0  0  0  0  0  0
   12.0493    8.9651  -33.8901 C   0  0  0  0  0  0  0  0  0  0  0  0
   10.1419    9.7062  -35.4344 H   0  0  0  0  0  0  0  0  0  0  0  0
    8.7406    4.3029  -29.7100 O   0  0  0  0  0  0  0  0  0  0  0  0
    8.9972    5.1513  -30.5124 C   0  0  0  0  0  0  0  0  0  0  0  0
    9.7259    6.2426  -30.1388 C   0  0  0  0  0  0  0  0  0  0  0  0
   10.0052    7.2238  -31.0521 C   0  0  0  0  0  0  0  0  0  0  0  0
    8.5703    5.0509  -31.7595 N   0  0  0  0  0  0  0  0  0  0  0  0
    8.8447    6.0406  -32.6573 C   0  0  0  0  0  0  0  0  0  0  0  0
    8.4798    5.9892  -33.7877 O   0  0  0  0  0  0  0  0  0  0  0  0
    9.5625    7.1224  -32.3008 N   0  0  0  0  0  0  0  0  0  0  0  0
    8.0540    4.2611  -32.0405 H   0  0  0  0  0  0  0  0  0  0  0  0
 27 28  2  0  0  0
 28 29  1  0  0  0
 28 31  1  0  0  0
 29 30  2  0  0  0
 30 34  1  0  0  0
 31 32  1  0  0  0
 32 33  2  0  0  0
 32 34  1  0  0  0
 34 20  1  0  0  0
 20 21  1  0  0  0
 20 24  1  0  0  0
 21 22  1  0  0  0
 22 23  1  0  0  0
 22 25  1  0  0  0
 24 25  1  0  0  0
 25 19  1  0  0  0
 19  1  1  0  0  0
  1  2  1  0  0  0
  2  3  2  0  0  0
  2  4  1  0  0  0
  2  6  1  0  0  0
  6  8  1  0  0  0
  8  9  2  0  0  0
  8 10  1  0  0  0
  8 12  1  0  0  0
 12 13  1  0  0  0
 13 14  2  0  0  0
 13 15  1  0  0  0
 13 16  1  0  0  0
 31 35  1  0  0  0
 23 26  1  0  0  0
  4  5  1  0  0  0
  6  7  1  0  0  0
 10 11  1  0  0  0
 15 17  1  0  0  0
 16 18  1  0  0  0
M  END
> <minimizedAffinity>
-7.78611

$$$$
5HWU_DUP_B_201


 35 36  0  0  0  0  0  0  0  0999 V2000
   12.1519    8.6998  -32.9112 O   0  0  0  0  0  0  0  0  0  0  0  0
   10.8609    8.6312  -33.9367 P   0  0  0  0  0  0  0  0  0  0  0  0
    9.7977    9.6183  -33.5097 O   0  0  0  0  0  0  0  0  0  0  0  0
   10.2934    7.2493  -33.9985 O   0  0  0  0  0  0  0  0  0  0  0  0
   10.0197    6.9722  -33.1101 H   0  0  0  0  0  0  0  0  0  0  0  0
   11.2958    8.9977  -35.5230 N   0  0  0  0  0  0  0  0  0  0  0  0
   11.9653    8.2793  -35.7990 H   0  0  0  0  0  0  0  0  0  0  0  0
   10.1968    9.1154  -36.8027 P   0  0  0  0  0  0  0  0  0  0  0  0
   10.5118    8.2606  -38.0082 O   0  0  0  0  0  0  0  0  0  0  0  0
    8.8297    8.7402  -36.2740 O   0  0  0  0  0  0  0  0  0  0  0  0
    8.8168    7.7961  -36.0519 H   0  0  0  0  0  0  0  0  0  0  0  0
   10.3530   10.6936  -37.2176 O   0  0  0  0  0  0  0  0  0  0  0  0
    9.5902   11.9507  -36.4802 P   0  0  0  0  0  0  0  0  0  0  0  0
    8.1409   11.5919  -36.2987 O   0  0  0  0  0  0  0  0  0  0  0  0
    9.7181   13.1371  -37.3993 O   0  0  0  0  0  0  0  0  0  0  0  0
   10.2960   12.1101  -35.1592 O   0  0  0  0  0  0  0  0  0  0  0  0
    9.2401   12.9598  -38.2245 H   0  0  0  0  0  0  0  0  0  0  0  0
   10.1685   11.3099  -34.6259 H   0  0  0  0  0  0  0  0  0  0  0  0
   11.9561    9.2754  -31.6493 C   0  0  0  0  0  0  0  0  0  0  0  0
   14.0760    8.1584  -29.6680 C   0  0  0  0  0  0  0  0  0  0  0  0
   13.3824    9.1669  -29.1386 C   0  0  0  0  0  0  0  0  0  0  0  0
   11.8310    8.7646  -29.3335 C   0  0  0  0  0  0  0  0  0  0  0  0
   11.4655    7.8629  -28.2845 O   0  0  0  0  0  0  0  0  0  0  0  0
   13.0931    7.3716  -30.6458 O   0  0  0  0  0  0  0  0  0  0  0  0
   11.8230    8.1939  -30.5902 C   0  0  0  0  0  0  0  0  0  0  0  0
   12.0728    7.1065  -28.2821 H   0  0  0  0  0  0  0  0  0  0  0  0
   18.6391    9.6546  -32.0735 O   0  0  0  0  0  0  0  0  0  0  0  0
   17.6206    9.3135  -31.5484 C   0  0  0  0  0  0  0  0  0  0  0  0
   16.4987    9.1213  -32.3008 C   0  0  0  0  0  0  0  0  0  0  0  0
   15.3270    8.7482  -31.6987 C   0  0  0  0  0  0  0  0  0  0  0  0
   17.5644    9.1324  -30.2401 N   0  0  0  0  0  0  0  0  0  0  0  0
   16.3884    8.7723  -29.6501 C   0  0  0  0  0  0  0  0  0  0  0  0
   16.2950    8.5993  -28.4776 O   0  0  0  0  0  0  0  0  0  0  0  0
   15.2745    8.5799  -30.3817 N   0  0  0  0  0  0  0  0  0  0  0  0
   18.3720    9.2575  -29.6912 H   0  0  0  0  0  0  0  0  0  0  0  0
 27 28  2  0  0  0
 28 29  1  0  0  0
 28 31  1  0  0  0
 29 30  2  0  0  0
 30 34  1  0  0  0
 31 32  1  0  0  0
 32 33  2  0  0  0
 32 34  1  0  0  0
 34 20  1  0  0  0
 20 21  1  0  0  0
 20 24  1  0  0  0
 21 22  1  0  0  0
 22 23  1  0  0  0
 22 25  1  0  0  0
 24 25  1  0  0  0
 25 19  1  0  0  0
 19  1  1  0  0  0
  1  2  1  0  0  0
  2  3  2  0  0  0
  2  4  1  0  0  0
  2  6  1  0  0  0
  6  8  1  0  0  0
  8  9  2  0  0  0
  8 10  1  0  0  0
  8 12  1  0  0  0
 12 13  1  0  0  0
 13 14  2  0  0  0
 13 15  1  0  0  0
 13 16  1  0  0  0
 31 35  1  0  0  0
 23 26  1  0  0  0
  4  5  1  0  0  0
  6  7  1  0  0  0
 10 11  1  0  0  0
 15 17  1  0  0  0
 16 18  1  0  0  0
M  END
> <minimizedAffinity>
-7.73479

$$$$
