4AJI_88R_A_1332


 20 20  0  0  0  0  0  0  0  0999 V2000
   14.5624  -13.4437    7.5511 C   0  0  0  0  0  0  0  0  0  0  0  0
   15.4963  -13.7292    8.5359 C   0  0  0  0  0  0  0  0  0  0  0  0
   15.1137  -14.4250    9.6926 C   0  0  0  0  0  0  0  0  0  0  0  0
   13.7929  -14.8231    9.8676 C   0  0  0  0  0  0  0  0  0  0  0  0
   12.8710  -14.5480    8.8674 C   0  0  0  0  0  0  0  0  0  0  0  0
   13.2305  -13.8583    7.7271 C   0  0  0  0  0  0  0  0  0  0  0  0
   15.8412  -13.3295    5.5346 C   0  0  0  0  0  0  0  0  0  0  0  0
   14.8381  -12.7847    6.3826 O   0  0  0  0  0  0  0  0  0  0  0  0
   12.3681  -13.5414    6.7225 O   0  0  0  0  0  0  0  0  0  0  0  0
   10.9513  -13.5169    7.0339 C   0  0  0  0  0  0  0  0  0  0  0  0
   13.3571  -15.6056   11.0621 C   0  0  0  0  0  0  0  0  0  0  0  0
   12.2622  -16.6349   10.7378 C   0  0  0  0  0  0  0  0  0  0  0  0
   12.8312  -17.7863    9.9476 C   0  0  0  0  0  0  0  0  0  0  0  0
   12.2665  -18.2317    8.9902 O   0  0  0  0  0  0  0  0  0  0  0  0
   13.9959  -18.2315   10.3803 O   0  0  0  0  0  0  0  0  0  0  0  0
   14.3935  -17.8458   11.1360 H   0  0  0  0  0  0  0  0  0  0  0  0
   11.6149  -17.1654   11.9887 C   0  0  0  0  0  0  0  0  0  0  0  0
   10.9587  -16.4335   12.7162 O   0  0  0  0  0  0  0  0  0  0  0  0
   11.7962  -18.4807   12.1904 O   0  0  0  0  0  0  0  0  0  0  0  0
   12.3132  -18.9800   11.5893 H   0  0  0  0  0  0  0  0  0  0  0  0
  7  8  1  0  0  0
  8  1  1  0  0  0
  1  2  1  0  0  0
  1  6  2  0  0  0
  2  3  2  0  0  0
  3  4  1  0  0  0
  4  5  2  0  0  0
  4 11  1  0  0  0
  5  6  1  0  0  0
  6  9  1  0  0  0
  9 10  1  0  0  0
 11 12  1  0  0  0
 12 13  1  0  0  0
 12 17  1  0  0  0
 13 14  2  0  0  0
 13 15  1  0  0  0
 17 18  2  0  0  0
 17 19  1  0  0  0
 15 16  1  0  0  0
 19 20  1  0  0  0
M  END
> <minimizedAffinity>
-7.38319

$$$$
4AJI_88R_A_1332


 20 20  0  0  0  0  0  0  0  0999 V2000
   14.2722  -14.1836    7.3267 C   0  0  0  0  0  0  0  0  0  0  0  0
   14.9890  -13.8122    8.4544 C   0  0  0  0  0  0  0  0  0  0  0  0
   14.5266  -14.1604    9.7324 C   0  0  0  0  0  0  0  0  0  0  0  0
   13.3396  -14.8693    9.8803 C   0  0  0  0  0  0  0  0  0  0  0  0
   12.6401  -15.2515    8.7443 C   0  0  0  0  0  0  0  0  0  0  0  0
   13.0785  -14.9105    7.4806 C   0  0  0  0  0  0  0  0  0  0  0  0
   15.9959  -14.1579    5.6706 C   0  0  0  0  0  0  0  0  0  0  0  0
   14.6457  -13.9057    6.0387 O   0  0  0  0  0  0  0  0  0  0  0  0
   12.4259  -15.2383    6.3317 O   0  0  0  0  0  0  0  0  0  0  0  0
   10.9795  -15.1252    6.3230 C   0  0  0  0  0  0  0  0  0  0  0  0
   12.8394  -15.2984   11.2201 C   0  0  0  0  0  0  0  0  0  0  0  0
   13.1298  -16.7773   11.5230 C   0  0  0  0  0  0  0  0  0  0  0  0
   14.2715  -16.9065   12.4996 C   0  0  0  0  0  0  0  0  0  0  0  0
   14.0833  -17.1292   13.6610 O   0  0  0  0  0  0  0  0  0  0  0  0
   15.4721  -16.7821   11.9657 O   0  0  0  0  0  0  0  0  0  0  0  0
   15.5617  -16.6076   11.0495 H   0  0  0  0  0  0  0  0  0  0  0  0
   11.9190  -17.4745   12.0828 C   0  0  0  0  0  0  0  0  0  0  0  0
   10.8973  -16.8527   12.3381 O   0  0  0  0  0  0  0  0  0  0  0  0
   12.0629  -18.8016   12.2291 O   0  0  0  0  0  0  0  0  0  0  0  0
   12.8774  -19.2112   12.0129 H   0  0  0  0  0  0  0  0  0  0  0  0
  7  8  1  0  0  0
  8  1  1  0  0  0
  1  2  1  0  0  0
  1  6  2  0  0  0
  2  3  2  0  0  0
  3  4  1  0  0  0
  4  5  2  0  0  0
  4 11  1  0  0  0
  5  6  1  0  0  0
  6  9  1  0  0  0
  9 10  1  0  0  0
 11 12  1  0  0  0
 12 13  1  0  0  0
 12 17  1  0  0  0
 13 14  2  0  0  0
 13 15  1  0  0  0
 17 18  2  0  0  0
 17 19  1  0  0  0
 15 16  1  0  0  0
 19 20  1  0  0  0
M  END
> <minimizedAffinity>
-7.35390

$$$$
4AJI_88R_A_1332


 20 20  0  0  0  0  0  0  0  0999 V2000
   13.1720  -15.1070   10.3092 C   0  0  0  0  0  0  0  0  0  0  0  0
   14.3480  -14.3792   10.2053 C   0  0  0  0  0  0  0  0  0  0  0  0
   14.7217  -13.8112    8.9781 C   0  0  0  0  0  0  0  0  0  0  0  0
   13.9234  -13.9835    7.8528 C   0  0  0  0  0  0  0  0  0  0  0  0
   12.7398  -14.6982    7.9727 C   0  0  0  0  0  0  0  0  0  0  0  0
   12.3620  -15.2689    9.1714 C   0  0  0  0  0  0  0  0  0  0  0  0
   13.5953  -16.5524   12.1657 C   0  0  0  0  0  0  0  0  0  0  0  0
   12.7132  -15.6871   11.4619 O   0  0  0  0  0  0  0  0  0  0  0  0
   11.2251  -15.9972    9.3457 O   0  0  0  0  0  0  0  0  0  0  0  0
   10.7685  -16.8093    8.2335 C   0  0  0  0  0  0  0  0  0  0  0  0
   14.2633  -13.3558    6.5414 C   0  0  0  0  0  0  0  0  0  0  0  0
   15.6682  -13.7317    6.0430 C   0  0  0  0  0  0  0  0  0  0  0  0
   15.6618  -15.1040    5.4178 C   0  0  0  0  0  0  0  0  0  0  0  0
   14.7611  -15.8723    5.5971 O   0  0  0  0  0  0  0  0  0  0  0  0
   16.7026  -15.3662    4.6497 O   0  0  0  0  0  0  0  0  0  0  0  0
   17.3800  -14.7274    4.5446 H   0  0  0  0  0  0  0  0  0  0  0  0
   16.1840  -12.7341    5.0410 C   0  0  0  0  0  0  0  0  0  0  0  0
   15.4215  -11.9747    4.4600 O   0  0  0  0  0  0  0  0  0  0  0  0
   17.5183  -12.7418    4.8890 O   0  0  0  0  0  0  0  0  0  0  0  0
   18.0409  -13.3541    5.3685 H   0  0  0  0  0  0  0  0  0  0  0  0
  7  8  1  0  0  0
  8  1  1  0  0  0
  1  2  1  0  0  0
  1  6  2  0  0  0
  2  3  2  0  0  0
  3  4  1  0  0  0
  4  5  2  0  0  0
  4 11  1  0  0  0
  5  6  1  0  0  0
  6  9  1  0  0  0
  9 10  1  0  0  0
 11 12  1  0  0  0
 12 13  1  0  0  0
 12 17  1  0  0  0
 13 14  2  0  0  0
 13 15  1  0  0  0
 17 18  2  0  0  0
 17 19  1  0  0  0
 15 16  1  0  0  0
 19 20  1  0  0  0
M  END
> <minimizedAffinity>
-7.33378

$$$$
4AJI_88R_A_1332


 20 20  0  0  0  0  0  0  0  0999 V2000
   13.0249  -15.5312   10.3354 C   0  0  0  0  0  0  0  0  0  0  0  0
   14.3115  -15.2139   10.7450 C   0  0  0  0  0  0  0  0  0  0  0  0
   15.1503  -14.4545    9.9155 C   0  0  0  0  0  0  0  0  0  0  0  0
   14.7040  -14.0243    8.6709 C   0  0  0  0  0  0  0  0  0  0  0  0
   13.4088  -14.3321    8.2792 C   0  0  0  0  0  0  0  0  0  0  0  0
   12.5740  -15.0842    9.0809 C   0  0  0  0  0  0  0  0  0  0  0  0
   12.3754  -17.6415   11.2515 C   0  0  0  0  0  0  0  0  0  0  0  0
   12.1265  -16.2525   11.0758 O   0  0  0  0  0  0  0  0  0  0  0  0
   11.3028  -15.4350    8.7429 O   0  0  0  0  0  0  0  0  0  0  0  0
   11.1118  -16.1587    7.5000 C   0  0  0  0  0  0  0  0  0  0  0  0
   15.5499  -13.1754    7.7803 C   0  0  0  0  0  0  0  0  0  0  0  0
   14.9574  -13.0082    6.3717 C   0  0  0  0  0  0  0  0  0  0  0  0
   14.6138  -11.5640    6.1066 C   0  0  0  0  0  0  0  0  0  0  0  0
   13.6243  -11.2528    5.5084 O   0  0  0  0  0  0  0  0  0  0  0  0
   15.4691  -10.6918    6.6062 O   0  0  0  0  0  0  0  0  0  0  0  0
   16.2285  -10.9910    7.0662 H   0  0  0  0  0  0  0  0  0  0  0  0
   15.9090  -13.4929    5.3111 C   0  0  0  0  0  0  0  0  0  0  0  0
   16.4480  -14.5869    5.4023 O   0  0  0  0  0  0  0  0  0  0  0  0
   16.0656  -12.6472    4.2798 O   0  0  0  0  0  0  0  0  0  0  0  0
   15.6197  -11.8231    4.2778 H   0  0  0  0  0  0  0  0  0  0  0  0
  7  8  1  0  0  0
  8  1  1  0  0  0
  1  2  1  0  0  0
  1  6  2  0  0  0
  2  3  2  0  0  0
  3  4  1  0  0  0
  4  5  2  0  0  0
  4 11  1  0  0  0
  5  6  1  0  0  0
  6  9  1  0  0  0
  9 10  1  0  0  0
 11 12  1  0  0  0
 12 13  1  0  0  0
 12 17  1  0  0  0
 13 14  2  0  0  0
 13 15  1  0  0  0
 17 18  2  0  0  0
 17 19  1  0  0  0
 15 16  1  0  0  0
 19 20  1  0  0  0
M  END
> <minimizedAffinity>
-7.25062

$$$$
4AJI_88R_A_1332


 20 20  0  0  0  0  0  0  0  0999 V2000
   14.0465  -13.5093    7.0650 C   0  0  0  0  0  0  0  0  0  0  0  0
   12.7174  -13.8138    7.3185 C   0  0  0  0  0  0  0  0  0  0  0  0
   12.3541  -14.4536    8.5131 C   0  0  0  0  0  0  0  0  0  0  0  0
   13.3242  -14.7995    9.4472 C   0  0  0  0  0  0  0  0  0  0  0  0
   14.6487  -14.4737    9.1912 C   0  0  0  0  0  0  0  0  0  0  0  0
   15.0227  -13.8506    8.0177 C   0  0  0  0  0  0  0  0  0  0  0  0
   14.2191  -11.4878    5.8009 C   0  0  0  0  0  0  0  0  0  0  0  0
   14.5002  -12.8749    5.9393 O   0  0  0  0  0  0  0  0  0  0  0  0
   16.3061  -13.5248    7.7015 O   0  0  0  0  0  0  0  0  0  0  0  0
   16.8338  -12.2796    8.2267 C   0  0  0  0  0  0  0  0  0  0  0  0
   12.9720  -15.4387   10.7497 C   0  0  0  0  0  0  0  0  0  0  0  0
   12.0671  -16.6709   10.5876 C   0  0  0  0  0  0  0  0  0  0  0  0
   12.7974  -17.7767    9.8679 C   0  0  0  0  0  0  0  0  0  0  0  0
   12.3541  -18.2818    8.8769 O   0  0  0  0  0  0  0  0  0  0  0  0
   13.9572  -18.1117   10.4015 O   0  0  0  0  0  0  0  0  0  0  0  0
   14.2563  -17.6833   11.1792 H   0  0  0  0  0  0  0  0  0  0  0  0
   11.5852  -17.1813   11.9190 C   0  0  0  0  0  0  0  0  0  0  0  0
   10.9478  -16.4617   12.6750 O   0  0  0  0  0  0  0  0  0  0  0  0
   11.8850  -18.4680   12.1599 O   0  0  0  0  0  0  0  0  0  0  0  0
   12.3786  -18.9593   11.5331 H   0  0  0  0  0  0  0  0  0  0  0  0
  7  8  1  0  0  0
  8  1  1  0  0  0
  1  2  1  0  0  0
  1  6  2  0  0  0
  2  3  2  0  0  0
  3  4  1  0  0  0
  4  5  2  0  0  0
  4 11  1  0  0  0
  5  6  1  0  0  0
  6  9  1  0  0  0
  9 10  1  0  0  0
 11 12  1  0  0  0
 12 13  1  0  0  0
 12 17  1  0  0  0
 13 14  2  0  0  0
 13 15  1  0  0  0
 17 18  2  0  0  0
 17 19  1  0  0  0
 15 16  1  0  0  0
 19 20  1  0  0  0
M  END
> <minimizedAffinity>
-7.09988

$$$$
4AJI_88R_A_1332


 20 20  0  0  0  0  0  0  0  0999 V2000
   13.3587  -15.6374   11.0577 C   0  0  0  0  0  0  0  0  0  0  0  0
   12.7207  -14.9053   10.0675 C   0  0  0  0  0  0  0  0  0  0  0  0
   13.4702  -14.2502    9.0788 C   0  0  0  0  0  0  0  0  0  0  0  0
   14.8589  -14.3184    9.0903 C   0  0  0  0  0  0  0  0  0  0  0  0
   15.4858  -15.0687   10.0751 C   0  0  0  0  0  0  0  0  0  0  0  0
   14.7627  -15.7131   11.0586 C   0  0  0  0  0  0  0  0  0  0  0  0
   11.9703  -17.4766   11.6932 C   0  0  0  0  0  0  0  0  0  0  0  0
   12.7185  -16.3230   12.0556 O   0  0  0  0  0  0  0  0  0  0  0  0
   15.3211  -16.4456   12.0611 O   0  0  0  0  0  0  0  0  0  0  0  0
   16.7512  -16.6837   12.0050 C   0  0  0  0  0  0  0  0  0  0  0  0
   15.6886  -13.6740    8.0294 C   0  0  0  0  0  0  0  0  0  0  0  0
   14.9945  -13.6492    6.6579 C   0  0  0  0  0  0  0  0  0  0  0  0
   15.3918  -12.4185    5.8823 C   0  0  0  0  0  0  0  0  0  0  0  0
   15.4365  -12.4167    4.6857 O   0  0  0  0  0  0  0  0  0  0  0  0
   15.6534  -11.3585    6.6238 O   0  0  0  0  0  0  0  0  0  0  0  0
   15.6031  -11.4160    7.5577 H   0  0  0  0  0  0  0  0  0  0  0  0
   15.3280  -14.8732    5.8479 C   0  0  0  0  0  0  0  0  0  0  0  0
   14.5346  -15.7989    5.7515 O   0  0  0  0  0  0  0  0  0  0  0  0
   16.5234  -14.8243    5.2379 O   0  0  0  0  0  0  0  0  0  0  0  0
   17.0807  -14.0807    5.3581 H   0  0  0  0  0  0  0  0  0  0  0  0
  7  8  1  0  0  0
  8  1  1  0  0  0
  1  2  1  0  0  0
  1  6  2  0  0  0
  2  3  2  0  0  0
  3  4  1  0  0  0
  4  5  2  0  0  0
  4 11  1  0  0  0
  5  6  1  0  0  0
  6  9  1  0  0  0
  9 10  1  0  0  0
 11 12  1  0  0  0
 12 13  1  0  0  0
 12 17  1  0  0  0
 13 14  2  0  0  0
 13 15  1  0  0  0
 17 18  2  0  0  0
 17 19  1  0  0  0
 15 16  1  0  0  0
 19 20  1  0  0  0
M  END
> <minimizedAffinity>
-7.01337

$$$$
4AJI_88R_A_1332


 20 20  0  0  0  0  0  0  0  0999 V2000
   14.7220  -13.5275    7.4885 C   0  0  0  0  0  0  0  0  0  0  0  0
   15.6137  -13.8526    8.4998 C   0  0  0  0  0  0  0  0  0  0  0  0
   15.1472  -14.3971    9.7057 C   0  0  0  0  0  0  0  0  0  0  0  0
   13.7863  -14.6037    9.9025 C   0  0  0  0  0  0  0  0  0  0  0  0
   12.9049  -14.2917    8.8769 C   0  0  0  0  0  0  0  0  0  0  0  0
   13.3478  -13.7489    7.6875 C   0  0  0  0  0  0  0  0  0  0  0  0
   16.0839  -13.6827    5.5301 C   0  0  0  0  0  0  0  0  0  0  0  0
   15.0776  -13.0063    6.2730 O   0  0  0  0  0  0  0  0  0  0  0  0
   12.5310  -13.4038    6.6546 O   0  0  0  0  0  0  0  0  0  0  0  0
   11.1117  -13.6662    6.8018 C   0  0  0  0  0  0  0  0  0  0  0  0
   13.2558  -15.2239   11.1527 C   0  0  0  0  0  0  0  0  0  0  0  0
   13.3461  -16.7586   11.1457 C   0  0  0  0  0  0  0  0  0  0  0  0
   13.1089  -17.3122   12.5281 C   0  0  0  0  0  0  0  0  0  0  0  0
   12.0927  -17.8780   12.8129 O   0  0  0  0  0  0  0  0  0  0  0  0
   14.1114  -17.1450   13.3700 O   0  0  0  0  0  0  0  0  0  0  0  0
   14.8848  -16.6937   13.0939 H   0  0  0  0  0  0  0  0  0  0  0  0
   12.3522  -17.3660   10.1924 C   0  0  0  0  0  0  0  0  0  0  0  0
   12.6780  -18.2698    9.4357 O   0  0  0  0  0  0  0  0  0  0  0  0
   11.1133  -16.8562   10.2857 O   0  0  0  0  0  0  0  0  0  0  0  0
   10.9365  -16.1622   10.8899 H   0  0  0  0  0  0  0  0  0  0  0  0
  7  8  1  0  0  0
  8  1  1  0  0  0
  1  2  1  0  0  0
  1  6  2  0  0  0
  2  3  2  0  0  0
  3  4  1  0  0  0
  4  5  2  0  0  0
  4 11  1  0  0  0
  5  6  1  0  0  0
  6  9  1  0  0  0
  9 10  1  0  0  0
 11 12  1  0  0  0
 12 13  1  0  0  0
 12 17  1  0  0  0
 13 14  2  0  0  0
 13 15  1  0  0  0
 17 18  2  0  0  0
 17 19  1  0  0  0
 15 16  1  0  0  0
 19 20  1  0  0  0
M  END
> <minimizedAffinity>
-6.96730

$$$$
4AJI_88R_A_1332


 20 20  0  0  0  0  0  0  0  0999 V2000
   13.0383  -15.3854    9.5949 C   0  0  0  0  0  0  0  0  0  0  0  0
   12.6170  -14.8953    8.3677 C   0  0  0  0  0  0  0  0  0  0  0  0
   13.4395  -14.0285    7.6326 C   0  0  0  0  0  0  0  0  0  0  0  0
   14.6781  -13.6431    8.1333 C   0  0  0  0  0  0  0  0  0  0  0  0
   15.0971  -14.1541    9.3537 C   0  0  0  0  0  0  0  0  0  0  0  0
   14.2964  -15.0022   10.0919 C   0  0  0  0  0  0  0  0  0  0  0  0
   12.2307  -17.6041    9.9687 C   0  0  0  0  0  0  0  0  0  0  0  0
   12.3177  -16.2457   10.3800 O   0  0  0  0  0  0  0  0  0  0  0  0
   14.6433  -15.5185   11.3029 O   0  0  0  0  0  0  0  0  0  0  0  0
   15.8722  -16.2858   11.3808 C   0  0  0  0  0  0  0  0  0  0  0  0
   15.6010  -12.7602    7.3601 C   0  0  0  0  0  0  0  0  0  0  0  0
   15.3447  -12.8054    5.8449 C   0  0  0  0  0  0  0  0  0  0  0  0
   15.1166  -11.4173    5.3019 C   0  0  0  0  0  0  0  0  0  0  0  0
   14.8458  -11.2292    4.1507 O   0  0  0  0  0  0  0  0  0  0  0  0
   15.2132  -10.4512    6.1959 O   0  0  0  0  0  0  0  0  0  0  0  0
   15.4284  -10.6553    7.0848 H   0  0  0  0  0  0  0  0  0  0  0  0
   16.4933  -13.4418    5.1092 C   0  0  0  0  0  0  0  0  0  0  0  0
   16.7182  -14.6396    5.2099 O   0  0  0  0  0  0  0  0  0  0  0  0
   17.1907  -12.5955    4.3340 O   0  0  0  0  0  0  0  0  0  0  0  0
   16.9607  -11.6876    4.3066 H   0  0  0  0  0  0  0  0  0  0  0  0
  7  8  1  0  0  0
  8  1  1  0  0  0
  1  2  1  0  0  0
  1  6  2  0  0  0
  2  3  2  0  0  0
  3  4  1  0  0  0
  4  5  2  0  0  0
  4 11  1  0  0  0
  5  6  1  0  0  0
  6  9  1  0  0  0
  9 10  1  0  0  0
 11 12  1  0  0  0
 12 13  1  0  0  0
 12 17  1  0  0  0
 13 14  2  0  0  0
 13 15  1  0  0  0
 17 18  2  0  0  0
 17 19  1  0  0  0
 15 16  1  0  0  0
 19 20  1  0  0  0
M  END
> <minimizedAffinity>
-6.82262

$$$$
4AJI_88R_A_1332


 20 20  0  0  0  0  0  0  0  0999 V2000
   14.2079  -13.4004    6.9601 C   0  0  0  0  0  0  0  0  0  0  0  0
   12.8623  -13.6660    7.1655 C   0  0  0  0  0  0  0  0  0  0  0  0
   12.4263  -14.2057    8.3850 C   0  0  0  0  0  0  0  0  0  0  0  0
   13.3405  -14.4909    9.3931 C   0  0  0  0  0  0  0  0  0  0  0  0
   14.6820  -14.2041    9.1833 C   0  0  0  0  0  0  0  0  0  0  0  0
   15.1273  -13.6796    7.9866 C   0  0  0  0  0  0  0  0  0  0  0  0
   14.4667  -11.4907    5.5457 C   0  0  0  0  0  0  0  0  0  0  0  0
   14.7305  -12.8619    5.8144 O   0  0  0  0  0  0  0  0  0  0  0  0
   16.4309  -13.3970    7.7146 O   0  0  0  0  0  0  0  0  0  0  0  0
   16.9552  -12.1258    8.1773 C   0  0  0  0  0  0  0  0  0  0  0  0
   12.9101  -15.0216   10.7206 C   0  0  0  0  0  0  0  0  0  0  0  0
   13.1376  -16.5353   10.8634 C   0  0  0  0  0  0  0  0  0  0  0  0
   12.8173  -16.9919   12.2645 C   0  0  0  0  0  0  0  0  0  0  0  0
   11.6936  -17.2185   12.6104 O   0  0  0  0  0  0  0  0  0  0  0  0
   13.8671  -17.1427   13.0501 O   0  0  0  0  0  0  0  0  0  0  0  0
   14.7254  -16.9505   12.7272 H   0  0  0  0  0  0  0  0  0  0  0  0
   12.2995  -17.3145    9.8857 C   0  0  0  0  0  0  0  0  0  0  0  0
   12.7647  -18.2698    9.2802 O   0  0  0  0  0  0  0  0  0  0  0  0
   11.0299  -16.8891    9.7831 O   0  0  0  0  0  0  0  0  0  0  0  0
   10.7427  -16.1477   10.2789 H   0  0  0  0  0  0  0  0  0  0  0  0
  7  8  1  0  0  0
  8  1  1  0  0  0
  1  2  1  0  0  0
  1  6  2  0  0  0
  2  3  2  0  0  0
  3  4  1  0  0  0
  4  5  2  0  0  0
  4 11  1  0  0  0
  5  6  1  0  0  0
  6  9  1  0  0  0
  9 10  1  0  0  0
 11 12  1  0  0  0
 12 13  1  0  0  0
 12 17  1  0  0  0
 13 14  2  0  0  0
 13 15  1  0  0  0
 17 18  2  0  0  0
 17 19  1  0  0  0
 15 16  1  0  0  0
 19 20  1  0  0  0
M  END
> <minimizedAffinity>
-6.80806

$$$$
4AJI_88R_A_1332


 20 20  0  0  0  0  0  0  0  0999 V2000
   12.6100  -16.7524   10.1315 C   0  0  0  0  0  0  0  0  0  0  0  0
   11.8645  -16.7435    8.9620 C   0  0  0  0  0  0  0  0  0  0  0  0
   12.1482  -15.8142    7.9499 C   0  0  0  0  0  0  0  0  0  0  0  0
   13.1702  -14.8861    8.1155 C   0  0  0  0  0  0  0  0  0  0  0  0
   13.9214  -14.9160    9.2820 C   0  0  0  0  0  0  0  0  0  0  0  0
   13.6501  -15.8196   10.2897 C   0  0  0  0  0  0  0  0  0  0  0  0
   11.3952  -17.3302   12.1075 C   0  0  0  0  0  0  0  0  0  0  0  0
   12.4221  -17.6259   11.1694 O   0  0  0  0  0  0  0  0  0  0  0  0
   14.3373  -15.8839   11.4631 O   0  0  0  0  0  0  0  0  0  0  0  0
   15.7496  -16.2099   11.3995 C   0  0  0  0  0  0  0  0  0  0  0  0
   13.5325  -13.9125    7.0431 C   0  0  0  0  0  0  0  0  0  0  0  0
   15.0513  -13.7512    6.8679 C   0  0  0  0  0  0  0  0  0  0  0  0
   15.5648  -14.6778    5.7948 C   0  0  0  0  0  0  0  0  0  0  0  0
   15.0522  -15.7389    5.5823 O   0  0  0  0  0  0  0  0  0  0  0  0
   16.5908  -14.2124    5.1072 O   0  0  0  0  0  0  0  0  0  0  0  0
   16.9534  -13.3741    5.3164 H   0  0  0  0  0  0  0  0  0  0  0  0
   15.4192  -12.3348    6.5159 C   0  0  0  0  0  0  0  0  0  0  0  0
   14.7974  -11.7169    5.6632 O   0  0  0  0  0  0  0  0  0  0  0  0
   16.4356  -11.8321    7.2354 O   0  0  0  0  0  0  0  0  0  0  0  0
   16.8668  -12.3657    7.8736 H   0  0  0  0  0  0  0  0  0  0  0  0
  7  8  1  0  0  0
  8  1  1  0  0  0
  1  2  1  0  0  0
  1  6  2  0  0  0
  2  3  2  0  0  0
  3  4  1  0  0  0
  4  5  2  0  0  0
  4 11  1  0  0  0
  5  6  1  0  0  0
  6  9  1  0  0  0
  9 10  1  0  0  0
 11 12  1  0  0  0
 12 13  1  0  0  0
 12 17  1  0  0  0
 13 14  2  0  0  0
 13 15  1  0  0  0
 17 18  2  0  0  0
 17 19  1  0  0  0
 15 16  1  0  0  0
 19 20  1  0  0  0
M  END
> <minimizedAffinity>
-6.61491

$$$$
