4XOE_KGM_A_301


 23 23  0  0  0  0  0  0  0  0999 V2000
  -10.3231  -57.0342   -6.4549 C   0  0  0  0  0  0  0  0  0  0  0  0
   -9.3481  -56.3086   -7.1439 O   0  0  0  0  0  0  0  0  0  0  0  0
   -9.9072  -57.2194   -5.0003 C   0  0  0  0  0  0  0  0  0  0  0  0
  -10.7879  -58.1118   -4.3792 O   0  0  0  0  0  0  0  0  0  0  0  0
   -8.4844  -57.7820   -4.9299 C   0  0  0  0  0  0  0  0  0  0  0  0
   -8.0429  -57.8088   -3.6014 O   0  0  0  0  0  0  0  0  0  0  0  0
   -7.5510  -56.9102   -5.7449 C   0  0  0  0  0  0  0  0  0  0  0  0
   -7.4809  -55.6127   -5.1964 O   0  0  0  0  0  0  0  0  0  0  0  0
   -8.0618  -56.8211   -7.1588 C   0  0  0  0  0  0  0  0  0  0  0  0
  -10.7566  -58.9672   -4.8355 H   0  0  0  0  0  0  0  0  0  0  0  0
   -8.0399  -56.9073   -3.2434 H   0  0  0  0  0  0  0  0  0  0  0  0
   -8.3634  -55.2101   -5.2046 H   0  0  0  0  0  0  0  0  0  0  0  0
  -11.7831  -55.3724   -5.4834 O   0  0  0  0  0  0  0  0  0  0  0  0
  -11.6538  -56.3006   -6.5388 C   0  0  0  0  0  0  0  0  0  0  0  0
  -12.6365  -54.9171   -5.5560 H   0  0  0  0  0  0  0  0  0  0  0  0
   -8.0657  -58.1275   -7.7137 O   0  0  0  0  0  0  0  0  0  0  0  0
   -7.7228  -58.1758   -9.0802 C   0  0  0  0  0  0  0  0  0  0  0  0
   -8.4379  -59.3294   -9.7497 C   0  0  0  0  0  0  0  0  0  0  0  0
   -9.9034  -59.2519   -9.3692 C   0  0  0  0  0  0  0  0  0  0  0  0
  -10.7198  -60.3354  -10.0427 C   0  0  0  0  0  0  0  0  0  0  0  0
  -11.1087  -59.8966  -11.4405 C   0  0  0  0  0  0  0  0  0  0  0  0
  -13.2653  -60.5970  -10.4544 C   0  0  0  0  0  0  0  0  0  0  0  0
  -12.5244  -60.3338  -11.7479 C   0  0  0  0  0  0  0  0  0  0  0  0
 22 23  1  0  0  0
 23 21  1  0  0  0
 21 20  1  0  0  0
 20 19  1  0  0  0
 19 18  1  0  0  0
 18 17  1  0  0  0
 17 16  1  0  0  0
 16  9  1  0  0  0
  9  7  1  0  0  0
  9  2  1  0  0  0
  7  8  1  0  0  0
  7  5  1  0  0  0
  5  6  1  0  0  0
  5  3  1  0  0  0
  3  4  1  0  0  0
  3  1  1  0  0  0
  1  2  1  0  0  0
  1 14  1  0  0  0
 14 13  1  0  0  0
 13 15  1  0  0  0
  4 10  1  0  0  0
  6 11  1  0  0  0
  8 12  1  0  0  0
M  END
> <minimizedAffinity>
-7.79257

$$$$
4XOE_KGM_A_301


 23 23  0  0  0  0  0  0  0  0999 V2000
  -10.2969  -57.0145   -6.4376 C   0  0  0  0  0  0  0  0  0  0  0  0
   -9.3305  -56.2407   -7.0851 O   0  0  0  0  0  0  0  0  0  0  0  0
   -9.9035  -57.2318   -4.9812 C   0  0  0  0  0  0  0  0  0  0  0  0
  -10.7694  -58.1676   -4.4046 O   0  0  0  0  0  0  0  0  0  0  0  0
   -8.4665  -57.7554   -4.8994 C   0  0  0  0  0  0  0  0  0  0  0  0
   -8.0497  -57.8099   -3.5637 O   0  0  0  0  0  0  0  0  0  0  0  0
   -7.5436  -56.8329   -5.6692 C   0  0  0  0  0  0  0  0  0  0  0  0
   -7.5219  -55.5511   -5.0810 O   0  0  0  0  0  0  0  0  0  0  0  0
   -8.0298  -56.7155   -7.0897 C   0  0  0  0  0  0  0  0  0  0  0  0
  -10.7044  -59.0075   -4.8855 H   0  0  0  0  0  0  0  0  0  0  0  0
   -8.0799  -56.9200   -3.1790 H   0  0  0  0  0  0  0  0  0  0  0  0
   -8.4155  -55.1739   -5.0946 H   0  0  0  0  0  0  0  0  0  0  0  0
  -11.7813  -55.3521   -5.5048 O   0  0  0  0  0  0  0  0  0  0  0  0
  -11.6467  -56.3171   -6.5260 C   0  0  0  0  0  0  0  0  0  0  0  0
  -12.6469  -54.9207   -5.5797 H   0  0  0  0  0  0  0  0  0  0  0  0
   -7.9850  -58.0039   -7.6833 O   0  0  0  0  0  0  0  0  0  0  0  0
   -6.6829  -58.5162   -7.8546 C   0  0  0  0  0  0  0  0  0  0  0  0
   -6.7137  -60.0284   -7.8016 C   0  0  0  0  0  0  0  0  0  0  0  0
   -8.1358  -60.4745   -8.0794 C   0  0  0  0  0  0  0  0  0  0  0  0
   -8.2440  -61.2364   -9.3839 C   0  0  0  0  0  0  0  0  0  0  0  0
   -7.2178  -62.3515   -9.4184 C   0  0  0  0  0  0  0  0  0  0  0  0
   -8.3947  -63.0178  -11.4884 C   0  0  0  0  0  0  0  0  0  0  0  0
   -7.7490  -63.5228  -10.2159 C   0  0  0  0  0  0  0  0  0  0  0  0
 22 23  1  0  0  0
 23 21  1  0  0  0
 21 20  1  0  0  0
 20 19  1  0  0  0
 19 18  1  0  0  0
 18 17  1  0  0  0
 17 16  1  0  0  0
 16  9  1  0  0  0
  9  7  1  0  0  0
  9  2  1  0  0  0
  7  8  1  0  0  0
  7  5  1  0  0  0
  5  6  1  0  0  0
  5  3  1  0  0  0
  3  4  1  0  0  0
  3  1  1  0  0  0
  1  2  1  0  0  0
  1 14  1  0  0  0
 14 13  1  0  0  0
 13 15  1  0  0  0
  4 10  1  0  0  0
  6 11  1  0  0  0
  8 12  1  0  0  0
M  END
> <minimizedAffinity>
-6.65701

$$$$
4XOE_KGM_A_301


 23 23  0  0  0  0  0  0  0  0999 V2000
  -10.3163  -57.0344   -6.4613 C   0  0  0  0  0  0  0  0  0  0  0  0
   -9.3589  -56.2753   -7.1388 O   0  0  0  0  0  0  0  0  0  0  0  0
   -9.8970  -57.2303   -5.0091 C   0  0  0  0  0  0  0  0  0  0  0  0
  -10.7560  -58.1529   -4.4018 O   0  0  0  0  0  0  0  0  0  0  0  0
   -8.4609  -57.7589   -4.9454 C   0  0  0  0  0  0  0  0  0  0  0  0
   -8.0198  -57.7940   -3.6169 O   0  0  0  0  0  0  0  0  0  0  0  0
   -7.5486  -56.8529   -5.7467 C   0  0  0  0  0  0  0  0  0  0  0  0
   -7.5107  -55.5620   -5.1796 O   0  0  0  0  0  0  0  0  0  0  0  0
   -8.0604  -56.7559   -7.1597 C   0  0  0  0  0  0  0  0  0  0  0  0
  -10.7034  -59.0006   -4.8703 H   0  0  0  0  0  0  0  0  0  0  0  0
   -8.0392  -56.8979   -3.2460 H   0  0  0  0  0  0  0  0  0  0  0  0
   -8.4028  -55.1811   -5.1829 H   0  0  0  0  0  0  0  0  0  0  0  0
  -11.7868  -55.3691   -5.5118 O   0  0  0  0  0  0  0  0  0  0  0  0
  -11.6646  -56.3325   -6.5361 C   0  0  0  0  0  0  0  0  0  0  0  0
  -12.6516  -54.9348   -5.5780 H   0  0  0  0  0  0  0  0  0  0  0  0
   -8.0320  -58.0539   -7.7333 O   0  0  0  0  0  0  0  0  0  0  0  0
   -7.7730  -58.0676   -9.1190 C   0  0  0  0  0  0  0  0  0  0  0  0
   -6.6879  -57.0658   -9.4496 C   0  0  0  0  0  0  0  0  0  0  0  0
   -5.4289  -57.8391   -9.7896 C   0  0  0  0  0  0  0  0  0  0  0  0
   -4.7120  -57.2523  -10.9878 C   0  0  0  0  0  0  0  0  0  0  0  0
   -4.1609  -55.8834  -10.6417 C   0  0  0  0  0  0  0  0  0  0  0  0
   -5.6470  -55.3126  -12.5337 C   0  0  0  0  0  0  0  0  0  0  0  0
   -4.3852  -54.9263  -11.7922 C   0  0  0  0  0  0  0  0  0  0  0  0
 22 23  1  0  0  0
 23 21  1  0  0  0
 21 20  1  0  0  0
 20 19  1  0  0  0
 19 18  1  0  0  0
 18 17  1  0  0  0
 17 16  1  0  0  0
 16  9  1  0  0  0
  9  7  1  0  0  0
  9  2  1  0  0  0
  7  8  1  0  0  0
  7  5  1  0  0  0
  5  6  1  0  0  0
  5  3  1  0  0  0
  3  4  1  0  0  0
  3  1  1  0  0  0
  1  2  1  0  0  0
  1 14  1  0  0  0
 14 13  1  0  0  0
 13 15  1  0  0  0
  4 10  1  0  0  0
  6 11  1  0  0  0
  8 12  1  0  0  0
M  END
> <minimizedAffinity>
-6.59141

$$$$
4XOE_KGM_A_301


 23 23  0  0  0  0  0  0  0  0999 V2000
  -10.2603  -57.0138   -6.4619 C   0  0  0  0  0  0  0  0  0  0  0  0
   -9.2744  -56.2860   -7.1328 O   0  0  0  0  0  0  0  0  0  0  0  0
   -9.8743  -57.1921   -4.9983 C   0  0  0  0  0  0  0  0  0  0  0  0
  -10.7638  -58.0865   -4.3927 O   0  0  0  0  0  0  0  0  0  0  0  0
   -8.4508  -57.7480   -4.8961 C   0  0  0  0  0  0  0  0  0  0  0  0
   -8.0371  -57.7684   -3.5585 O   0  0  0  0  0  0  0  0  0  0  0  0
   -7.5044  -56.8747   -5.6943 C   0  0  0  0  0  0  0  0  0  0  0  0
   -7.4517  -55.5750   -5.1490 O   0  0  0  0  0  0  0  0  0  0  0  0
   -7.9857  -56.7927   -7.1189 C   0  0  0  0  0  0  0  0  0  0  0  0
  -10.7190  -58.9433   -4.8453 H   0  0  0  0  0  0  0  0  0  0  0  0
   -8.0457  -56.8657   -3.2036 H   0  0  0  0  0  0  0  0  0  0  0  0
   -8.3356  -55.1766   -5.1770 H   0  0  0  0  0  0  0  0  0  0  0  0
  -11.7757  -55.4008   -5.4927 O   0  0  0  0  0  0  0  0  0  0  0  0
  -11.5923  -56.2865   -6.5762 C   0  0  0  0  0  0  0  0  0  0  0  0
  -12.6289  -54.9488   -5.5853 H   0  0  0  0  0  0  0  0  0  0  0  0
   -7.9722  -58.1009   -7.6692 O   0  0  0  0  0  0  0  0  0  0  0  0
   -7.8703  -58.1354   -9.0749 C   0  0  0  0  0  0  0  0  0  0  0  0
   -7.1830  -59.4116   -9.5099 C   0  0  0  0  0  0  0  0  0  0  0  0
   -7.2325  -60.3853   -8.3489 C   0  0  0  0  0  0  0  0  0  0  0  0
   -5.8607  -60.9313   -8.0109 C   0  0  0  0  0  0  0  0  0  0  0  0
   -4.8474  -59.8043   -7.9847 C   0  0  0  0  0  0  0  0  0  0  0  0
   -3.4365  -61.5138   -6.8887 C   0  0  0  0  0  0  0  0  0  0  0  0
   -3.8236  -60.0505   -6.8978 C   0  0  0  0  0  0  0  0  0  0  0  0
 22 23  1  0  0  0
 23 21  1  0  0  0
 21 20  1  0  0  0
 20 19  1  0  0  0
 19 18  1  0  0  0
 18 17  1  0  0  0
 17 16  1  0  0  0
 16  9  1  0  0  0
  9  7  1  0  0  0
  9  2  1  0  0  0
  7  8  1  0  0  0
  7  5  1  0  0  0
  5  6  1  0  0  0
  5  3  1  0  0  0
  3  4  1  0  0  0
  3  1  1  0  0  0
  1  2  1  0  0  0
  1 14  1  0  0  0
 14 13  1  0  0  0
 13 15  1  0  0  0
  4 10  1  0  0  0
  6 11  1  0  0  0
  8 12  1  0  0  0
M  END
> <minimizedAffinity>
-6.52582

$$$$
4XOE_KGM_A_301


 23 23  0  0  0  0  0  0  0  0999 V2000
   -7.8599  -56.8239   -5.5086 C   0  0  0  0  0  0  0  0  0  0  0  0
   -7.4102  -57.8581   -6.3333 O   0  0  0  0  0  0  0  0  0  0  0  0
   -8.9412  -57.3390   -4.5660 C   0  0  0  0  0  0  0  0  0  0  0  0
   -9.5187  -56.2572   -3.8921 O   0  0  0  0  0  0  0  0  0  0  0  0
  -10.0233  -58.0745   -5.3622 C   0  0  0  0  0  0  0  0  0  0  0  0
  -10.9353  -58.6798   -4.4890 O   0  0  0  0  0  0  0  0  0  0  0  0
   -9.3830  -59.1407   -6.2273 C   0  0  0  0  0  0  0  0  0  0  0  0
   -8.7603  -60.1201   -5.4259 O   0  0  0  0  0  0  0  0  0  0  0  0
   -8.3502  -58.5034   -7.1190 C   0  0  0  0  0  0  0  0  0  0  0  0
   -9.9144  -55.6492   -4.5360 H   0  0  0  0  0  0  0  0  0  0  0  0
  -10.4701  -59.3208   -3.9290 H   0  0  0  0  0  0  0  0  0  0  0  0
   -8.0688  -59.7050   -4.8869 H   0  0  0  0  0  0  0  0  0  0  0  0
   -6.9773  -54.9623   -4.2467 O   0  0  0  0  0  0  0  0  0  0  0  0
   -6.6880  -56.2611   -4.7175 C   0  0  0  0  0  0  0  0  0  0  0  0
   -6.2186  -54.6233   -3.7463 H   0  0  0  0  0  0  0  0  0  0  0  0
   -9.0056  -57.5669   -7.9603 O   0  0  0  0  0  0  0  0  0  0  0  0
   -8.3656  -57.3558   -9.1986 C   0  0  0  0  0  0  0  0  0  0  0  0
   -7.9467  -58.6825   -9.7941 C   0  0  0  0  0  0  0  0  0  0  0  0
   -8.6918  -58.8609  -11.1023 C   0  0  0  0  0  0  0  0  0  0  0  0
   -9.5271  -60.1244  -11.1086 C   0  0  0  0  0  0  0  0  0  0  0  0
  -10.9919  -59.7753  -11.2828 C   0  0  0  0  0  0  0  0  0  0  0  0
  -13.2775  -60.4573  -10.6306 C   0  0  0  0  0  0  0  0  0  0  0  0
  -11.8586  -60.9375  -10.8491 C   0  0  0  0  0  0  0  0  0  0  0  0
 22 23  1  0  0  0
 23 21  1  0  0  0
 21 20  1  0  0  0
 20 19  1  0  0  0
 19 18  1  0  0  0
 18 17  1  0  0  0
 17 16  1  0  0  0
 16  9  1  0  0  0
  9  7  1  0  0  0
  9  2  1  0  0  0
  7  8  1  0  0  0
  7  5  1  0  0  0
  5  6  1  0  0  0
  5  3  1  0  0  0
  3  4  1  0  0  0
  3  1  1  0  0  0
  1  2  1  0  0  0
  1 14  1  0  0  0
 14 13  1  0  0  0
 13 15  1  0  0  0
  4 10  1  0  0  0
  6 11  1  0  0  0
  8 12  1  0  0  0
M  END
> <minimizedAffinity>
-6.30000

$$$$
4XOE_KGM_A_301


 23 23  0  0  0  0  0  0  0  0999 V2000
   -9.3781  -57.4972   -6.2362 C   0  0  0  0  0  0  0  0  0  0  0  0
   -8.3844  -56.5838   -6.5969 O   0  0  0  0  0  0  0  0  0  0  0  0
   -8.7575  -58.8594   -5.9493 C   0  0  0  0  0  0  0  0  0  0  0  0
   -9.7760  -59.8051   -5.7878 O   0  0  0  0  0  0  0  0  0  0  0  0
   -7.8569  -59.2805   -7.1145 C   0  0  0  0  0  0  0  0  0  0  0  0
   -7.1669  -60.4547   -6.7891 O   0  0  0  0  0  0  0  0  0  0  0  0
   -6.8553  -58.1820   -7.4069 C   0  0  0  0  0  0  0  0  0  0  0  0
   -5.9965  -57.9892   -6.3048 O   0  0  0  0  0  0  0  0  0  0  0  0
   -7.5924  -56.8992   -7.6881 C   0  0  0  0  0  0  0  0  0  0  0  0
  -10.3028  -59.8550   -6.6008 H   0  0  0  0  0  0  0  0  0  0  0  0
   -6.6137  -60.2987   -6.0078 H   0  0  0  0  0  0  0  0  0  0  0  0
   -6.5187  -57.7310   -5.5293 H   0  0  0  0  0  0  0  0  0  0  0  0
   -9.7233  -57.6826   -3.8522 O   0  0  0  0  0  0  0  0  0  0  0  0
  -10.1195  -56.9815   -5.0113 C   0  0  0  0  0  0  0  0  0  0  0  0
  -10.2070  -57.3386   -3.0850 H   0  0  0  0  0  0  0  0  0  0  0  0
   -8.4031  -57.0943   -8.8367 O   0  0  0  0  0  0  0  0  0  0  0  0
   -7.7148  -56.9588  -10.0595 C   0  0  0  0  0  0  0  0  0  0  0  0
   -7.9463  -58.1830  -10.9187 C   0  0  0  0  0  0  0  0  0  0  0  0
   -9.0768  -58.9798  -10.2978 C   0  0  0  0  0  0  0  0  0  0  0  0
   -9.9756  -59.5977  -11.3486 C   0  0  0  0  0  0  0  0  0  0  0  0
  -11.0512  -60.4331  -10.6831 C   0  0  0  0  0  0  0  0  0  0  0  0
  -13.5093  -60.6546  -10.5311 C   0  0  0  0  0  0  0  0  0  0  0  0
  -12.3531  -60.3071  -11.4442 C   0  0  0  0  0  0  0  0  0  0  0  0
 22 23  1  0  0  0
 23 21  1  0  0  0
 21 20  1  0  0  0
 20 19  1  0  0  0
 19 18  1  0  0  0
 18 17  1  0  0  0
 17 16  1  0  0  0
 16  9  1  0  0  0
  9  7  1  0  0  0
  9  2  1  0  0  0
  7  8  1  0  0  0
  7  5  1  0  0  0
  5  6  1  0  0  0
  5  3  1  0  0  0
  3  4  1  0  0  0
  3  1  1  0  0  0
  1  2  1  0  0  0
  1 14  1  0  0  0
 14 13  1  0  0  0
 13 15  1  0  0  0
  4 10  1  0  0  0
  6 11  1  0  0  0
  8 12  1  0  0  0
M  END
> <minimizedAffinity>
-5.88439

$$$$
4XOE_KGM_A_301


 23 23  0  0  0  0  0  0  0  0999 V2000
   -9.5838  -58.4371   -6.7262 C   0  0  0  0  0  0  0  0  0  0  0  0
   -9.1892  -57.6368   -7.8013 O   0  0  0  0  0  0  0  0  0  0  0  0
   -8.4399  -59.3535   -6.3084 C   0  0  0  0  0  0  0  0  0  0  0  0
   -8.9107  -60.2810   -5.3725 O   0  0  0  0  0  0  0  0  0  0  0  0
   -7.8943  -60.1001   -7.5294 C   0  0  0  0  0  0  0  0  0  0  0  0
   -6.7482  -60.8238   -7.1782 O   0  0  0  0  0  0  0  0  0  0  0  0
   -7.5394  -59.1070   -8.6171 C   0  0  0  0  0  0  0  0  0  0  0  0
   -6.5002  -58.2548   -8.1891 O   0  0  0  0  0  0  0  0  0  0  0  0
   -8.7523  -58.2779   -8.9483 C   0  0  0  0  0  0  0  0  0  0  0  0
   -9.6197  -60.8102   -5.7701 H   0  0  0  0  0  0  0  0  0  0  0  0
   -6.0667  -60.2135   -6.8555 H   0  0  0  0  0  0  0  0  0  0  0  0
   -6.7883  -57.7622   -7.4048 H   0  0  0  0  0  0  0  0  0  0  0  0
  -10.6820  -58.3030   -4.5784 O   0  0  0  0  0  0  0  0  0  0  0  0
  -10.0074  -57.5507   -5.5639 C   0  0  0  0  0  0  0  0  0  0  0  0
  -10.9425  -57.7197   -3.8484 H   0  0  0  0  0  0  0  0  0  0  0  0
   -9.7646  -59.1451   -9.4357 O   0  0  0  0  0  0  0  0  0  0  0  0
   -9.5954  -59.5323  -10.7806 C   0  0  0  0  0  0  0  0  0  0  0  0
  -10.9405  -59.8471  -11.3987 C   0  0  0  0  0  0  0  0  0  0  0  0
  -11.8836  -60.2469  -10.2810 C   0  0  0  0  0  0  0  0  0  0  0  0
  -13.1747  -60.8326  -10.8140 C   0  0  0  0  0  0  0  0  0  0  0  0
  -13.3196  -60.5098  -12.2879 C   0  0  0  0  0  0  0  0  0  0  0  0
  -15.0893  -59.6062  -13.7596 C   0  0  0  0  0  0  0  0  0  0  0  0
  -14.7659  -60.6489  -12.7110 C   0  0  0  0  0  0  0  0  0  0  0  0
 22 23  1  0  0  0
 23 21  1  0  0  0
 21 20  1  0  0  0
 20 19  1  0  0  0
 19 18  1  0  0  0
 18 17  1  0  0  0
 17 16  1  0  0  0
 16  9  1  0  0  0
  9  7  1  0  0  0
  9  2  1  0  0  0
  7  8  1  0  0  0
  7  5  1  0  0  0
  5  6  1  0  0  0
  5  3  1  0  0  0
  3  4  1  0  0  0
  3  1  1  0  0  0
  1  2  1  0  0  0
  1 14  1  0  0  0
 14 13  1  0  0  0
 13 15  1  0  0  0
  4 10  1  0  0  0
  6 11  1  0  0  0
  8 12  1  0  0  0
M  END
> <minimizedAffinity>
-5.74713

$$$$
4XOE_KGM_A_301


 23 23  0  0  0  0  0  0  0  0999 V2000
  -10.4421  -57.4130   -5.9211 C   0  0  0  0  0  0  0  0  0  0  0  0
   -9.7585  -56.8885   -7.0209 O   0  0  0  0  0  0  0  0  0  0  0  0
   -9.6586  -57.1449   -4.6415 C   0  0  0  0  0  0  0  0  0  0  0  0
  -10.2495  -57.8453   -3.5840 O   0  0  0  0  0  0  0  0  0  0  0  0
   -8.2087  -57.6096   -4.8080 C   0  0  0  0  0  0  0  0  0  0  0  0
   -7.4500  -57.2267   -3.6952 O   0  0  0  0  0  0  0  0  0  0  0  0
   -7.6131  -56.9843   -6.0528 C   0  0  0  0  0  0  0  0  0  0  0  0
   -7.5566  -55.5810   -5.9231 O   0  0  0  0  0  0  0  0  0  0  0  0
   -8.4668  -57.3356   -7.2427 C   0  0  0  0  0  0  0  0  0  0  0  0
  -10.2358  -58.7956   -3.7780 H   0  0  0  0  0  0  0  0  0  0  0  0
   -7.4604  -56.2602   -3.6138 H   0  0  0  0  0  0  0  0  0  0  0  0
   -8.4531  -55.2311   -5.8017 H   0  0  0  0  0  0  0  0  0  0  0  0
  -11.7348  -55.3870   -5.6737 O   0  0  0  0  0  0  0  0  0  0  0  0
  -11.8262  -56.7858   -5.8391 C   0  0  0  0  0  0  0  0  0  0  0  0
  -12.6265  -55.0084   -5.6239 H   0  0  0  0  0  0  0  0  0  0  0  0
   -8.4604  -58.7468   -7.3940 O   0  0  0  0  0  0  0  0  0  0  0  0
   -9.3489  -59.2264   -8.3778 C   0  0  0  0  0  0  0  0  0  0  0  0
   -8.7971  -58.9335   -9.7563 C   0  0  0  0  0  0  0  0  0  0  0  0
   -8.6975  -60.2473  -10.5062 C   0  0  0  0  0  0  0  0  0  0  0  0
   -8.5329  -60.0357  -11.9968 C   0  0  0  0  0  0  0  0  0  0  0  0
   -8.4231  -58.5546  -12.3001 C   0  0  0  0  0  0  0  0  0  0  0  0
   -7.4654  -58.1453  -14.5428 C   0  0  0  0  0  0  0  0  0  0  0  0
   -7.1497  -58.2738  -13.0679 C   0  0  0  0  0  0  0  0  0  0  0  0
 22 23  1  0  0  0
 23 21  1  0  0  0
 21 20  1  0  0  0
 20 19  1  0  0  0
 19 18  1  0  0  0
 18 17  1  0  0  0
 17 16  1  0  0  0
 16  9  1  0  0  0
  9  7  1  0  0  0
  9  2  1  0  0  0
  7  8  1  0  0  0
  7  5  1  0  0  0
  5  6  1  0  0  0
  5  3  1  0  0  0
  3  4  1  0  0  0
  3  1  1  0  0  0
  1  2  1  0  0  0
  1 14  1  0  0  0
 14 13  1  0  0  0
 13 15  1  0  0  0
  4 10  1  0  0  0
  6 11  1  0  0  0
  8 12  1  0  0  0
M  END
> <minimizedAffinity>
-5.67998

$$$$
4XOE_KGM_A_301


 23 23  0  0  0  0  0  0  0  0999 V2000
   -8.8638  -57.5599   -7.7313 C   0  0  0  0  0  0  0  0  0  0  0  0
   -8.0070  -58.1636   -8.6550 O   0  0  0  0  0  0  0  0  0  0  0  0
   -8.7848  -58.2847   -6.3929 C   0  0  0  0  0  0  0  0  0  0  0  0
   -9.7876  -57.7996   -5.5461 O   0  0  0  0  0  0  0  0  0  0  0  0
   -8.9821  -59.7894   -6.5997 C   0  0  0  0  0  0  0  0  0  0  0  0
   -8.7580  -60.4736   -5.3987 O   0  0  0  0  0  0  0  0  0  0  0  0
   -8.0080  -60.2919   -7.6456 C   0  0  0  0  0  0  0  0  0  0  0  0
   -6.6790  -60.1342   -7.2003 O   0  0  0  0  0  0  0  0  0  0  0  0
   -8.1978  -59.5097   -8.9184 C   0  0  0  0  0  0  0  0  0  0  0  0
  -10.6556  -57.9585   -5.9488 H   0  0  0  0  0  0  0  0  0  0  0  0
   -7.8481  -60.3162   -5.1019 H   0  0  0  0  0  0  0  0  0  0  0  0
   -6.5010  -59.1941   -7.0404 H   0  0  0  0  0  0  0  0  0  0  0  0
   -7.7390  -55.9006   -6.3826 O   0  0  0  0  0  0  0  0  0  0  0  0
   -8.4810  -56.0961   -7.5673 C   0  0  0  0  0  0  0  0  0  0  0  0
   -7.5060  -54.9628   -6.2980 H   0  0  0  0  0  0  0  0  0  0  0  0
   -9.5202  -59.7310   -9.3838 O   0  0  0  0  0  0  0  0  0  0  0  0
   -9.5923  -60.2772  -10.6814 C   0  0  0  0  0  0  0  0  0  0  0  0
  -10.9774  -60.0646  -11.2531 C   0  0  0  0  0  0  0  0  0  0  0  0
  -11.9827  -60.3552  -10.1561 C   0  0  0  0  0  0  0  0  0  0  0  0
  -13.1598  -61.1594  -10.6676 C   0  0  0  0  0  0  0  0  0  0  0  0
  -14.0642  -60.2774  -11.5054 C   0  0  0  0  0  0  0  0  0  0  0  0
  -14.0857  -59.8894  -13.9473 C   0  0  0  0  0  0  0  0  0  0  0  0
  -14.3065  -60.9151  -12.8562 C   0  0  0  0  0  0  0  0  0  0  0  0
 22 23  1  0  0  0
 23 21  1  0  0  0
 21 20  1  0  0  0
 20 19  1  0  0  0
 19 18  1  0  0  0
 18 17  1  0  0  0
 17 16  1  0  0  0
 16  9  1  0  0  0
  9  7  1  0  0  0
  9  2  1  0  0  0
  7  8  1  0  0  0
  7  5  1  0  0  0
  5  6  1  0  0  0
  5  3  1  0  0  0
  3  4  1  0  0  0
  3  1  1  0  0  0
  1  2  1  0  0  0
  1 14  1  0  0  0
 14 13  1  0  0  0
 13 15  1  0  0  0
  4 10  1  0  0  0
  6 11  1  0  0  0
  8 12  1  0  0  0
M  END
> <minimizedAffinity>
-5.48770

$$$$
4XOE_KGM_A_301


 23 23  0  0  0  0  0  0  0  0999 V2000
   -7.3451  -58.1908   -7.4303 C   0  0  0  0  0  0  0  0  0  0  0  0
   -7.6582  -59.5302   -7.6751 O   0  0  0  0  0  0  0  0  0  0  0  0
   -7.8156  -57.7895   -6.0373 C   0  0  0  0  0  0  0  0  0  0  0  0
   -7.6779  -56.4054   -5.8852 O   0  0  0  0  0  0  0  0  0  0  0  0
   -9.2861  -58.1747   -5.8500 C   0  0  0  0  0  0  0  0  0  0  0  0
   -9.6775  -57.9489   -4.5247 O   0  0  0  0  0  0  0  0  0  0  0  0
   -9.4745  -59.6415   -6.1793 C   0  0  0  0  0  0  0  0  0  0  0  0
   -8.7462  -60.4480   -5.2800 O   0  0  0  0  0  0  0  0  0  0  0  0
   -8.9885  -59.9028   -7.5805 C   0  0  0  0  0  0  0  0  0  0  0  0
   -8.2174  -55.9517   -6.5514 H   0  0  0  0  0  0  0  0  0  0  0  0
   -9.1351  -58.4907   -3.9305 H   0  0  0  0  0  0  0  0  0  0  0  0
   -7.8021  -60.2362   -5.3475 H   0  0  0  0  0  0  0  0  0  0  0  0
   -5.1940  -58.2199   -6.3307 O   0  0  0  0  0  0  0  0  0  0  0  0
   -5.8424  -57.9896   -7.5631 C   0  0  0  0  0  0  0  0  0  0  0  0
   -4.2392  -58.0865   -6.4379 H   0  0  0  0  0  0  0  0  0  0  0  0
   -9.7742  -59.1305   -8.4753 O   0  0  0  0  0  0  0  0  0  0  0  0
   -9.7122  -59.5597   -9.8167 C   0  0  0  0  0  0  0  0  0  0  0  0
  -11.0283  -60.1913  -10.2162 C   0  0  0  0  0  0  0  0  0  0  0  0
  -11.2753  -59.8672  -11.6764 C   0  0  0  0  0  0  0  0  0  0  0  0
  -12.3487  -60.7508  -12.2772 C   0  0  0  0  0  0  0  0  0  0  0  0
  -13.6739  -60.4977  -11.5861 C   0  0  0  0  0  0  0  0  0  0  0  0
  -14.4744  -59.8340  -13.8295 C   0  0  0  0  0  0  0  0  0  0  0  0
  -14.8096  -60.6181  -12.5789 C   0  0  0  0  0  0  0  0  0  0  0  0
 22 23  1  0  0  0
 23 21  1  0  0  0
 21 20  1  0  0  0
 20 19  1  0  0  0
 19 18  1  0  0  0
 18 17  1  0  0  0
 17 16  1  0  0  0
 16  9  1  0  0  0
  9  7  1  0  0  0
  9  2  1  0  0  0
  7  8  1  0  0  0
  7  5  1  0  0  0
  5  6  1  0  0  0
  5  3  1  0  0  0
  3  4  1  0  0  0
  3  1  1  0  0  0
  1  2  1  0  0  0
  1 14  1  0  0  0
 14 13  1  0  0  0
 13 15  1  0  0  0
  4 10  1  0  0  0
  6 11  1  0  0  0
  8 12  1  0  0  0
M  END
> <minimizedAffinity>
-5.47284

$$$$
