2VK6_DAN_A_2692


 26 26  0  0  0  0  0  0  0  0999 V2000
    1.8100   35.7999   20.3203 C   0  0  0  0  0  0  0  0  0  0  0  0
    1.4570   34.7172   21.0726 C   0  0  0  0  0  0  0  0  0  0  0  0
    2.4260   33.5586   21.1391 C   0  0  0  0  0  0  0  0  0  0  0  0
    3.8445   34.1109   20.9665 C   0  0  0  0  0  0  0  0  0  0  0  0
    3.9095   34.8064   19.6162 C   0  0  0  0  0  0  0  0  0  0  0  0
    2.2894   32.7698   22.3423 O   0  0  0  0  0  0  0  0  0  0  0  0
    2.9682   35.8760   19.5575 O   0  0  0  0  0  0  0  0  0  0  0  0
    2.4784   33.3241   23.1155 H   0  0  0  0  0  0  0  0  0  0  0  0
    5.8977   32.9765   21.7551 C   0  0  0  0  0  0  0  0  0  0  0  0
    6.7589   31.7304   21.6910 C   0  0  0  0  0  0  0  0  0  0  0  0
    4.7831   33.0016   20.9729 N   0  0  0  0  0  0  0  0  0  0  0  0
    6.2227   33.9273   22.5245 O   0  0  0  0  0  0  0  0  0  0  0  0
    4.6051   32.2326   20.3846 H   0  0  0  0  0  0  0  0  0  0  0  0
    0.9027   36.9143   20.0660 C   0  0  0  0  0  0  0  0  0  0  0  0
    1.1175   37.6429   19.0144 O   0  0  0  0  0  0  0  0  0  0  0  0
   -0.0767   37.0732   20.7688 O   0  0  0  0  0  0  0  0  0  0  0  0
   -0.2054   36.5316   21.5224 H   0  0  0  0  0  0  0  0  0  0  0  0
    5.2725   35.4352   19.3058 C   0  0  0  0  0  0  0  0  0  0  0  0
    5.7806   36.1090   20.4813 O   0  0  0  0  0  0  0  0  0  0  0  0
    5.1750   36.8243   20.7311 H   0  0  0  0  0  0  0  0  0  0  0  0
    5.1918   36.4754   18.1561 C   0  0  0  0  0  0  0  0  0  0  0  0
    4.5683   35.8758   17.0120 O   0  0  0  0  0  0  0  0  0  0  0  0
    5.0735   35.0932   16.7415 H   0  0  0  0  0  0  0  0  0  0  0  0
    6.6215   36.8344   17.8166 C   0  0  0  0  0  0  0  0  0  0  0  0
    6.6621   37.9958   16.9127 O   0  0  0  0  0  0  0  0  0  0  0  0
    6.1946   37.7818   16.0901 H   0  0  0  0  0  0  0  0  0  0  0  0
 14  1  1  0  0  0
 14 15  2  0  0  0
 14 16  1  0  0  0
  1  2  2  0  0  0
  1  7  1  0  0  0
  2  3  1  0  0  0
  3  4  1  0  0  0
  3  6  1  0  0  0
  4  5  1  0  0  0
  4 11  1  0  0  0
  5 18  1  0  0  0
  5  7  1  0  0  0
 18 21  1  0  0  0
 18 19  1  0  0  0
 21 24  1  0  0  0
 21 22  1  0  0  0
 24 25  1  0  0  0
  9 10  1  0  0  0
  9 11  1  0  0  0
  9 12  2  0  0  0
 11 13  1  0  0  0
 16 17  1  0  0  0
  6  8  1  0  0  0
 19 20  1  0  0  0
 22 23  1  0  0  0
 25 26  1  0  0  0
M  END
> <minimizedAffinity>
-8.55571

$$$$
2VK6_DAN_A_2692


 26 26  0  0  0  0  0  0  0  0999 V2000
    5.9559   37.7379   18.6347 C   0  0  0  0  0  0  0  0  0  0  0  0
    6.6985   36.6415   18.9652 C   0  0  0  0  0  0  0  0  0  0  0  0
    6.1232   35.6799   19.9802 C   0  0  0  0  0  0  0  0  0  0  0  0
    4.5956   35.7353   19.8792 C   0  0  0  0  0  0  0  0  0  0  0  0
    4.1638   37.1641   20.1678 C   0  0  0  0  0  0  0  0  0  0  0  0
    6.6316   34.3342   19.8422 O   0  0  0  0  0  0  0  0  0  0  0  0
    4.7396   38.0624   19.2218 O   0  0  0  0  0  0  0  0  0  0  0  0
    6.3879   33.9842   18.9710 H   0  0  0  0  0  0  0  0  0  0  0  0
    3.1925   33.8234   20.5869 C   0  0  0  0  0  0  0  0  0  0  0  0
    2.7160   32.9621   21.7399 C   0  0  0  0  0  0  0  0  0  0  0  0
    4.0273   34.8566   20.8875 N   0  0  0  0  0  0  0  0  0  0  0  0
    2.8222   33.5561   19.4065 O   0  0  0  0  0  0  0  0  0  0  0  0
    4.2564   35.0155   21.8317 H   0  0  0  0  0  0  0  0  0  0  0  0
    6.4620   38.8053   17.7780 C   0  0  0  0  0  0  0  0  0  0  0  0
    5.9226   39.9798   17.8901 O   0  0  0  0  0  0  0  0  0  0  0  0
    7.4273   38.6070   17.0658 O   0  0  0  0  0  0  0  0  0  0  0  0
    7.7957   37.7476   17.0047 H   0  0  0  0  0  0  0  0  0  0  0  0
    2.6496   37.3854   20.0822 C   0  0  0  0  0  0  0  0  0  0  0  0
    2.1563   36.9118   18.8069 O   0  0  0  0  0  0  0  0  0  0  0  0
    2.5702   37.4195   18.0915 H   0  0  0  0  0  0  0  0  0  0  0  0
    2.2658   38.8837   20.2166 C   0  0  0  0  0  0  0  0  0  0  0  0
    3.3002   39.5803   20.9250 O   0  0  0  0  0  0  0  0  0  0  0  0
    3.4274   39.1718   21.7956 H   0  0  0  0  0  0  0  0  0  0  0  0
    0.9914   38.9171   21.0307 C   0  0  0  0  0  0  0  0  0  0  0  0
    0.2173   37.6810   20.8301 O   0  0  0  0  0  0  0  0  0  0  0  0
   -0.0180   37.5953   19.8930 H   0  0  0  0  0  0  0  0  0  0  0  0
 14  1  1  0  0  0
 14 15  2  0  0  0
 14 16  1  0  0  0
  1  2  2  0  0  0
  1  7  1  0  0  0
  2  3  1  0  0  0
  3  4  1  0  0  0
  3  6  1  0  0  0
  4  5  1  0  0  0
  4 11  1  0  0  0
  5 18  1  0  0  0
  5  7  1  0  0  0
 18 21  1  0  0  0
 18 19  1  0  0  0
 21 24  1  0  0  0
 21 22  1  0  0  0
 24 25  1  0  0  0
  9 10  1  0  0  0
  9 11  1  0  0  0
  9 12  2  0  0  0
 11 13  1  0  0  0
 16 17  1  0  0  0
  6  8  1  0  0  0
 19 20  1  0  0  0
 22 23  1  0  0  0
 25 26  1  0  0  0
M  END
> <minimizedAffinity>
-7.52339

$$$$
2VK6_DAN_A_2692


 26 26  0  0  0  0  0  0  0  0999 V2000
    3.0368   34.3966   20.8266 C   0  0  0  0  0  0  0  0  0  0  0  0
    4.2499   33.8740   20.4830 C   0  0  0  0  0  0  0  0  0  0  0  0
    5.1462   34.7006   19.5890 C   0  0  0  0  0  0  0  0  0  0  0  0
    4.8434   36.1804   19.8448 C   0  0  0  0  0  0  0  0  0  0  0  0
    3.3763   36.4154   19.5226 C   0  0  0  0  0  0  0  0  0  0  0  0
    6.5494   34.3944   19.7490 O   0  0  0  0  0  0  0  0  0  0  0  0
    2.5453   35.6058   20.3516 O   0  0  0  0  0  0  0  0  0  0  0  0
    6.8215   34.5907   20.6591 H   0  0  0  0  0  0  0  0  0  0  0  0
    6.5893   37.8761   19.3964 C   0  0  0  0  0  0  0  0  0  0  0  0
    7.3987   38.6117   18.3466 C   0  0  0  0  0  0  0  0  0  0  0  0
    5.6587   36.9866   18.9520 N   0  0  0  0  0  0  0  0  0  0  0  0
    6.8058   38.0931   20.6244 O   0  0  0  0  0  0  0  0  0  0  0  0
    5.5326   36.8850   17.9809 H   0  0  0  0  0  0  0  0  0  0  0  0
    2.0313   33.6392   21.5647 C   0  0  0  0  0  0  0  0  0  0  0  0
    2.3374   32.4382   21.9479 O   0  0  0  0  0  0  0  0  0  0  0  0
    0.9879   34.1714   21.8910 O   0  0  0  0  0  0  0  0  0  0  0  0
    0.7938   35.0402   21.5988 H   0  0  0  0  0  0  0  0  0  0  0  0
    2.9126   37.8581   19.7524 C   0  0  0  0  0  0  0  0  0  0  0  0
    3.7316   38.4799   20.7705 O   0  0  0  0  0  0  0  0  0  0  0  0
    3.6282   37.9994   21.6067 H   0  0  0  0  0  0  0  0  0  0  0  0
    1.4333   37.9332   20.2173 C   0  0  0  0  0  0  0  0  0  0  0  0
    0.5896   37.3305   19.2262 O   0  0  0  0  0  0  0  0  0  0  0  0
    0.7135   37.7834   18.3774 H   0  0  0  0  0  0  0  0  0  0  0  0
    1.1040   39.4054   20.3270 C   0  0  0  0  0  0  0  0  0  0  0  0
    1.6207   40.1390   19.1598 O   0  0  0  0  0  0  0  0  0  0  0  0
    2.5848   40.0413   19.1173 H   0  0  0  0  0  0  0  0  0  0  0  0
 14  1  1  0  0  0
 14 15  2  0  0  0
 14 16  1  0  0  0
  1  2  2  0  0  0
  1  7  1  0  0  0
  2  3  1  0  0  0
  3  4  1  0  0  0
  3  6  1  0  0  0
  4  5  1  0  0  0
  4 11  1  0  0  0
  5 18  1  0  0  0
  5  7  1  0  0  0
 18 21  1  0  0  0
 18 19  1  0  0  0
 21 24  1  0  0  0
 21 22  1  0  0  0
 24 25  1  0  0  0
  9 10  1  0  0  0
  9 11  1  0  0  0
  9 12  2  0  0  0
 11 13  1  0  0  0
 16 17  1  0  0  0
  6  8  1  0  0  0
 19 20  1  0  0  0
 22 23  1  0  0  0
 25 26  1  0  0  0
M  END
> <minimizedAffinity>
-7.46514

$$$$
2VK6_DAN_A_2692


 26 26  0  0  0  0  0  0  0  0999 V2000
    2.4223   34.6536   20.7210 C   0  0  0  0  0  0  0  0  0  0  0  0
    1.4897   35.4976   21.2506 C   0  0  0  0  0  0  0  0  0  0  0  0
    1.8455   36.9630   21.3590 C   0  0  0  0  0  0  0  0  0  0  0  0
    2.8299   37.3006   20.2348 C   0  0  0  0  0  0  0  0  0  0  0  0
    4.0570   36.4212   20.4141 C   0  0  0  0  0  0  0  0  0  0  0  0
    0.6907   37.8318   21.3533 O   0  0  0  0  0  0  0  0  0  0  0  0
    3.7004   35.0424   20.3410 O   0  0  0  0  0  0  0  0  0  0  0  0
    0.2147   37.7314   20.5142 H   0  0  0  0  0  0  0  0  0  0  0  0
    2.5477   39.7134   19.7618 C   0  0  0  0  0  0  0  0  0  0  0  0
    3.0481   41.1206   20.0216 C   0  0  0  0  0  0  0  0  0  0  0  0
    3.2240   38.6937   20.3599 N   0  0  0  0  0  0  0  0  0  0  0  0
    1.5331   39.5316   19.0273 O   0  0  0  0  0  0  0  0  0  0  0  0
    4.0167   38.9105   20.9020 H   0  0  0  0  0  0  0  0  0  0  0  0
    2.2511   33.2046   20.6942 C   0  0  0  0  0  0  0  0  0  0  0  0
    2.0895   32.5922   21.8264 O   0  0  0  0  0  0  0  0  0  0  0  0
    2.1601   32.6229   19.6304 O   0  0  0  0  0  0  0  0  0  0  0  0
    2.2819   33.0916   18.8282 H   0  0  0  0  0  0  0  0  0  0  0  0
    5.1329   36.6292   19.3424 C   0  0  0  0  0  0  0  0  0  0  0  0
    5.7845   37.9055   19.5432 O   0  0  0  0  0  0  0  0  0  0  0  0
    5.1336   38.6188   19.4510 H   0  0  0  0  0  0  0  0  0  0  0  0
    4.5430   36.6143   17.9065 C   0  0  0  0  0  0  0  0  0  0  0  0
    3.9801   35.3234   17.6343 O   0  0  0  0  0  0  0  0  0  0  0  0
    4.6643   34.6438   17.7391 H   0  0  0  0  0  0  0  0  0  0  0  0
    5.7082   36.8593   16.9736 C   0  0  0  0  0  0  0  0  0  0  0  0
    6.9037   36.1372   17.4390 O   0  0  0  0  0  0  0  0  0  0  0  0
    7.1467   36.4507   18.3242 H   0  0  0  0  0  0  0  0  0  0  0  0
 14  1  1  0  0  0
 14 15  2  0  0  0
 14 16  1  0  0  0
  1  2  2  0  0  0
  1  7  1  0  0  0
  2  3  1  0  0  0
  3  4  1  0  0  0
  3  6  1  0  0  0
  4  5  1  0  0  0
  4 11  1  0  0  0
  5 18  1  0  0  0
  5  7  1  0  0  0
 18 21  1  0  0  0
 18 19  1  0  0  0
 21 24  1  0  0  0
 21 22  1  0  0  0
 24 25  1  0  0  0
  9 10  1  0  0  0
  9 11  1  0  0  0
  9 12  2  0  0  0
 11 13  1  0  0  0
 16 17  1  0  0  0
  6  8  1  0  0  0
 19 20  1  0  0  0
 22 23  1  0  0  0
 25 26  1  0  0  0
M  END
> <minimizedAffinity>
-7.18559

$$$$
2VK6_DAN_A_2692


 26 26  0  0  0  0  0  0  0  0999 V2000
    2.5171   35.0341   20.7961 C   0  0  0  0  0  0  0  0  0  0  0  0
    2.0723   36.2409   20.3393 C   0  0  0  0  0  0  0  0  0  0  0  0
    3.0986   37.3234   20.0931 C   0  0  0  0  0  0  0  0  0  0  0  0
    4.4224   36.6508   19.7164 C   0  0  0  0  0  0  0  0  0  0  0  0
    4.8331   35.7557   20.8747 C   0  0  0  0  0  0  0  0  0  0  0  0
    2.6786   38.2933   19.1075 O   0  0  0  0  0  0  0  0  0  0  0  0
    3.8409   34.7602   21.1150 O   0  0  0  0  0  0  0  0  0  0  0  0
    2.5440   37.8504   18.2550 H   0  0  0  0  0  0  0  0  0  0  0  0
    5.7100   38.2373   18.3202 C   0  0  0  0  0  0  0  0  0  0  0  0
    6.7580   39.3323   18.2883 C   0  0  0  0  0  0  0  0  0  0  0  0
    5.4335   37.6778   19.5307 N   0  0  0  0  0  0  0  0  0  0  0  0
    5.1265   37.8932   17.2511 O   0  0  0  0  0  0  0  0  0  0  0  0
    5.9423   37.9833   20.3162 H   0  0  0  0  0  0  0  0  0  0  0  0
    1.6141   33.9623   21.2027 C   0  0  0  0  0  0  0  0  0  0  0  0
    1.5503   32.9060   20.4522 O   0  0  0  0  0  0  0  0  0  0  0  0
    1.0299   34.0307   22.2668 O   0  0  0  0  0  0  0  0  0  0  0  0
    1.0945   34.8068   22.7877 H   0  0  0  0  0  0  0  0  0  0  0  0
    6.1397   34.9908   20.6363 C   0  0  0  0  0  0  0  0  0  0  0  0
    6.3618   34.8306   19.2154 O   0  0  0  0  0  0  0  0  0  0  0  0
    5.6395   34.3088   18.8321 H   0  0  0  0  0  0  0  0  0  0  0  0
    6.1194   33.5777   21.2791 C   0  0  0  0  0  0  0  0  0  0  0  0
    6.6350   33.6531   22.6154 O   0  0  0  0  0  0  0  0  0  0  0  0
    7.5344   34.0157   22.5949 H   0  0  0  0  0  0  0  0  0  0  0  0
    7.0378   32.7217   20.4355 C   0  0  0  0  0  0  0  0  0  0  0  0
    6.2566   31.8187   19.5743 O   0  0  0  0  0  0  0  0  0  0  0  0
    5.7129   31.2354   20.1265 H   0  0  0  0  0  0  0  0  0  0  0  0
 14  1  1  0  0  0
 14 15  2  0  0  0
 14 16  1  0  0  0
  1  2  2  0  0  0
  1  7  1  0  0  0
  2  3  1  0  0  0
  3  4  1  0  0  0
  3  6  1  0  0  0
  4  5  1  0  0  0
  4 11  1  0  0  0
  5 18  1  0  0  0
  5  7  1  0  0  0
 18 21  1  0  0  0
 18 19  1  0  0  0
 21 24  1  0  0  0
 21 22  1  0  0  0
 24 25  1  0  0  0
  9 10  1  0  0  0
  9 11  1  0  0  0
  9 12  2  0  0  0
 11 13  1  0  0  0
 16 17  1  0  0  0
  6  8  1  0  0  0
 19 20  1  0  0  0
 22 23  1  0  0  0
 25 26  1  0  0  0
M  END
> <minimizedAffinity>
-7.14793

$$$$
2VK6_DAN_A_2692


 26 26  0  0  0  0  0  0  0  0999 V2000
    5.7578   33.4975   20.6349 C   0  0  0  0  0  0  0  0  0  0  0  0
    4.4613   33.4351   21.0567 C   0  0  0  0  0  0  0  0  0  0  0  0
    3.7288   34.7388   21.2796 C   0  0  0  0  0  0  0  0  0  0  0  0
    4.3166   35.7864   20.3287 C   0  0  0  0  0  0  0  0  0  0  0  0
    5.7963   35.9243   20.6493 C   0  0  0  0  0  0  0  0  0  0  0  0
    2.2954   34.6180   21.1408 O   0  0  0  0  0  0  0  0  0  0  0  0
    6.4672   34.6795   20.4650 O   0  0  0  0  0  0  0  0  0  0  0  0
    2.0805   34.3391   20.2370 H   0  0  0  0  0  0  0  0  0  0  0  0
    2.6166   37.5115   19.8202 C   0  0  0  0  0  0  0  0  0  0  0  0
    2.0004   38.8374   20.2208 C   0  0  0  0  0  0  0  0  0  0  0  0
    3.6595   37.0597   20.5706 N   0  0  0  0  0  0  0  0  0  0  0  0
    2.1474   36.8716   18.8342 O   0  0  0  0  0  0  0  0  0  0  0  0
    3.9831   37.6218   21.3112 H   0  0  0  0  0  0  0  0  0  0  0  0
    6.6086   32.3174   20.5207 C   0  0  0  0  0  0  0  0  0  0  0  0
    7.4729   32.0997   21.4632 O   0  0  0  0  0  0  0  0  0  0  0  0
    6.4258   31.5212   19.6201 O   0  0  0  0  0  0  0  0  0  0  0  0
    5.7944   31.7056   18.9527 H   0  0  0  0  0  0  0  0  0  0  0  0
    6.5343   36.9297   19.7583 C   0  0  0  0  0  0  0  0  0  0  0  0
    6.2228   38.2787   20.1792 O   0  0  0  0  0  0  0  0  0  0  0  0
    5.2712   38.4372   20.0783 H   0  0  0  0  0  0  0  0  0  0  0  0
    6.1384   36.7919   18.2635 C   0  0  0  0  0  0  0  0  0  0  0  0
    6.9828   35.8188   17.6332 O   0  0  0  0  0  0  0  0  0  0  0  0
    7.9104   36.0867   17.7266 H   0  0  0  0  0  0  0  0  0  0  0  0
    6.3843   38.1476   17.6395 C   0  0  0  0  0  0  0  0  0  0  0  0
    5.1129   38.8618   17.4370 O   0  0  0  0  0  0  0  0  0  0  0  0
    4.5444   38.3476   16.8425 H   0  0  0  0  0  0  0  0  0  0  0  0
 14  1  1  0  0  0
 14 15  2  0  0  0
 14 16  1  0  0  0
  1  2  2  0  0  0
  1  7  1  0  0  0
  2  3  1  0  0  0
  3  4  1  0  0  0
  3  6  1  0  0  0
  4  5  1  0  0  0
  4 11  1  0  0  0
  5 18  1  0  0  0
  5  7  1  0  0  0
 18 21  1  0  0  0
 18 19  1  0  0  0
 21 24  1  0  0  0
 21 22  1  0  0  0
 24 25  1  0  0  0
  9 10  1  0  0  0
  9 11  1  0  0  0
  9 12  2  0  0  0
 11 13  1  0  0  0
 16 17  1  0  0  0
  6  8  1  0  0  0
 19 20  1  0  0  0
 22 23  1  0  0  0
 25 26  1  0  0  0
M  END
> <minimizedAffinity>
-7.11305

$$$$
2VK6_DAN_A_2692


 26 26  0  0  0  0  0  0  0  0999 V2000
    5.0958   37.2543   17.4430 C   0  0  0  0  0  0  0  0  0  0  0  0
    5.8723   38.3173   17.8033 C   0  0  0  0  0  0  0  0  0  0  0  0
    5.6336   38.9366   19.1618 C   0  0  0  0  0  0  0  0  0  0  0  0
    5.1114   37.8442   20.1003 C   0  0  0  0  0  0  0  0  0  0  0  0
    3.8204   37.3025   19.5075 C   0  0  0  0  0  0  0  0  0  0  0  0
    6.7982   39.6051   19.6959 O   0  0  0  0  0  0  0  0  0  0  0  0
    4.0559   36.7507   18.2139 O   0  0  0  0  0  0  0  0  0  0  0  0
    7.5141   38.9616   19.8150 H   0  0  0  0  0  0  0  0  0  0  0  0
    5.7123   38.4295   22.4286 C   0  0  0  0  0  0  0  0  0  0  0  0
    5.2920   39.1296   23.7059 C   0  0  0  0  0  0  0  0  0  0  0  0
    4.8247   38.4372   21.3957 N   0  0  0  0  0  0  0  0  0  0  0  0
    6.8522   37.8845   22.3553 O   0  0  0  0  0  0  0  0  0  0  0  0
    3.9484   38.8643   21.5329 H   0  0  0  0  0  0  0  0  0  0  0  0
    5.1355   36.6638   16.1091 C   0  0  0  0  0  0  0  0  0  0  0  0
    4.5992   35.4935   15.9481 O   0  0  0  0  0  0  0  0  0  0  0  0
    5.5665   37.3075   15.1720 O   0  0  0  0  0  0  0  0  0  0  0  0
    5.9487   38.1503   15.3189 H   0  0  0  0  0  0  0  0  0  0  0  0
    3.1833   36.1766   20.3295 C   0  0  0  0  0  0  0  0  0  0  0  0
    2.9551   35.0229   19.4865 O   0  0  0  0  0  0  0  0  0  0  0  0
    2.3362   35.2579   18.7774 H   0  0  0  0  0  0  0  0  0  0  0  0
    1.8209   36.5963   20.9444 C   0  0  0  0  0  0  0  0  0  0  0  0
    0.8994   35.5007   20.8572 O   0  0  0  0  0  0  0  0  0  0  0  0
    0.7984   35.2362   19.9294 H   0  0  0  0  0  0  0  0  0  0  0  0
    1.3162   37.7437   20.0978 C   0  0  0  0  0  0  0  0  0  0  0  0
    0.8905   37.2610   18.7737 O   0  0  0  0  0  0  0  0  0  0  0  0
    1.6447   36.8524   18.3207 H   0  0  0  0  0  0  0  0  0  0  0  0
 14  1  1  0  0  0
 14 15  2  0  0  0
 14 16  1  0  0  0
  1  2  2  0  0  0
  1  7  1  0  0  0
  2  3  1  0  0  0
  3  4  1  0  0  0
  3  6  1  0  0  0
  4  5  1  0  0  0
  4 11  1  0  0  0
  5 18  1  0  0  0
  5  7  1  0  0  0
 18 21  1  0  0  0
 18 19  1  0  0  0
 21 24  1  0  0  0
 21 22  1  0  0  0
 24 25  1  0  0  0
  9 10  1  0  0  0
  9 11  1  0  0  0
  9 12  2  0  0  0
 11 13  1  0  0  0
 16 17  1  0  0  0
  6  8  1  0  0  0
 19 20  1  0  0  0
 22 23  1  0  0  0
 25 26  1  0  0  0
M  END
> <minimizedAffinity>
-6.83525

$$$$
2VK6_DAN_A_2692


 26 26  0  0  0  0  0  0  0  0999 V2000
    5.1465   37.0447   17.5563 C   0  0  0  0  0  0  0  0  0  0  0  0
    6.2064   37.7011   18.1116 C   0  0  0  0  0  0  0  0  0  0  0  0
    6.0334   38.2708   19.5014 C   0  0  0  0  0  0  0  0  0  0  0  0
    5.0195   37.4015   20.2518 C   0  0  0  0  0  0  0  0  0  0  0  0
    3.7131   37.4384   19.4750 C   0  0  0  0  0  0  0  0  0  0  0  0
    7.2790   38.4032   20.2221 O   0  0  0  0  0  0  0  0  0  0  0  0
    3.8995   36.9277   18.1567 O   0  0  0  0  0  0  0  0  0  0  0  0
    7.6803   37.5277   20.3376 H   0  0  0  0  0  0  0  0  0  0  0  0
    4.6521   39.3057   21.7893 C   0  0  0  0  0  0  0  0  0  0  0  0
    4.3827   39.7476   23.2142 C   0  0  0  0  0  0  0  0  0  0  0  0
    4.8013   37.9697   21.5714 N   0  0  0  0  0  0  0  0  0  0  0  0
    4.7147   40.1672   20.8643 O   0  0  0  0  0  0  0  0  0  0  0  0
    4.7594   37.3605   22.3437 H   0  0  0  0  0  0  0  0  0  0  0  0
    5.1441   36.5762   16.1742 C   0  0  0  0  0  0  0  0  0  0  0  0
    4.5795   35.4358   15.9217 O   0  0  0  0  0  0  0  0  0  0  0  0
    5.5681   37.2933   15.2887 O   0  0  0  0  0  0  0  0  0  0  0  0
    5.9714   38.1119   15.5014 H   0  0  0  0  0  0  0  0  0  0  0  0
    2.5970   36.5903   20.0950 C   0  0  0  0  0  0  0  0  0  0  0  0
    2.1674   37.1823   21.3435 O   0  0  0  0  0  0  0  0  0  0  0  0
    2.9100   37.1956   21.9674 H   0  0  0  0  0  0  0  0  0  0  0  0
    3.0572   35.1369   20.3886 C   0  0  0  0  0  0  0  0  0  0  0  0
    3.1885   34.4185   19.1541 O   0  0  0  0  0  0  0  0  0  0  0  0
    2.3412   34.4291   18.6822 H   0  0  0  0  0  0  0  0  0  0  0  0
    1.9584   34.5103   21.2181 C   0  0  0  0  0  0  0  0  0  0  0  0
    0.6412   35.0158   20.7977 O   0  0  0  0  0  0  0  0  0  0  0  0
    0.6096   35.9775   20.9206 H   0  0  0  0  0  0  0  0  0  0  0  0
 14  1  1  0  0  0
 14 15  2  0  0  0
 14 16  1  0  0  0
  1  2  2  0  0  0
  1  7  1  0  0  0
  2  3  1  0  0  0
  3  4  1  0  0  0
  3  6  1  0  0  0
  4  5  1  0  0  0
  4 11  1  0  0  0
  5 18  1  0  0  0
  5  7  1  0  0  0
 18 21  1  0  0  0
 18 19  1  0  0  0
 21 24  1  0  0  0
 21 22  1  0  0  0
 24 25  1  0  0  0
  9 10  1  0  0  0
  9 11  1  0  0  0
  9 12  2  0  0  0
 11 13  1  0  0  0
 16 17  1  0  0  0
  6  8  1  0  0  0
 19 20  1  0  0  0
 22 23  1  0  0  0
 25 26  1  0  0  0
M  END
> <minimizedAffinity>
-6.79465

$$$$
2VK6_DAN_A_2692


 26 26  0  0  0  0  0  0  0  0999 V2000
    2.8364   35.0239   20.4117 C   0  0  0  0  0  0  0  0  0  0  0  0
    1.7799   35.5603   21.0890 C   0  0  0  0  0  0  0  0  0  0  0  0
    1.8305   37.0343   21.4215 C   0  0  0  0  0  0  0  0  0  0  0  0
    2.6606   37.7394   20.3442 C   0  0  0  0  0  0  0  0  0  0  0  0
    4.0510   37.1245   20.3545 C   0  0  0  0  0  0  0  0  0  0  0  0
    0.5224   37.6281   21.5793 O   0  0  0  0  0  0  0  0  0  0  0  0
    3.9837   35.7287   20.0707 O   0  0  0  0  0  0  0  0  0  0  0  0
    0.0321   37.5565   20.7455 H   0  0  0  0  0  0  0  0  0  0  0  0
    2.1773   40.1335   19.9451 C   0  0  0  0  0  0  0  0  0  0  0  0
    2.3322   41.5561   20.4457 C   0  0  0  0  0  0  0  0  0  0  0  0
    2.7644   39.1493   20.6809 N   0  0  0  0  0  0  0  0  0  0  0  0
    1.5120   39.9054   18.8929 O   0  0  0  0  0  0  0  0  0  0  0  0
    3.2831   39.4047   21.4777 H   0  0  0  0  0  0  0  0  0  0  0  0
    2.9673   33.5927   20.1583 C   0  0  0  0  0  0  0  0  0  0  0  0
    3.5800   33.2222   19.0765 O   0  0  0  0  0  0  0  0  0  0  0  0
    2.6016   32.7912   20.9962 O   0  0  0  0  0  0  0  0  0  0  0  0
    2.1612   33.0884   21.7680 H   0  0  0  0  0  0  0  0  0  0  0  0
    5.0002   37.7161   19.3065 C   0  0  0  0  0  0  0  0  0  0  0  0
    4.2448   38.4782   18.3357 O   0  0  0  0  0  0  0  0  0  0  0  0
    3.6249   37.8912   17.8752 H   0  0  0  0  0  0  0  0  0  0  0  0
    5.7902   36.6192   18.5431 C   0  0  0  0  0  0  0  0  0  0  0  0
    7.1601   37.0225   18.4093 O   0  0  0  0  0  0  0  0  0  0  0  0
    7.2030   37.8727   17.9444 H   0  0  0  0  0  0  0  0  0  0  0  0
    5.1589   36.5278   17.1715 C   0  0  0  0  0  0  0  0  0  0  0  0
    4.1310   35.4743   17.1447 O   0  0  0  0  0  0  0  0  0  0  0  0
    4.5387   34.6193   17.3537 H   0  0  0  0  0  0  0  0  0  0  0  0
 14  1  1  0  0  0
 14 15  2  0  0  0
 14 16  1  0  0  0
  1  2  2  0  0  0
  1  7  1  0  0  0
  2  3  1  0  0  0
  3  4  1  0  0  0
  3  6  1  0  0  0
  4  5  1  0  0  0
  4 11  1  0  0  0
  5 18  1  0  0  0
  5  7  1  0  0  0
 18 21  1  0  0  0
 18 19  1  0  0  0
 21 24  1  0  0  0
 21 22  1  0  0  0
 24 25  1  0  0  0
  9 10  1  0  0  0
  9 11  1  0  0  0
  9 12  2  0  0  0
 11 13  1  0  0  0
 16 17  1  0  0  0
  6  8  1  0  0  0
 19 20  1  0  0  0
 22 23  1  0  0  0
 25 26  1  0  0  0
M  END
> <minimizedAffinity>
-6.77492

$$$$
2VK6_DAN_A_2692


 26 26  0  0  0  0  0  0  0  0999 V2000
    6.5605   39.0639   18.4069 C   0  0  0  0  0  0  0  0  0  0  0  0
    7.0647   37.8065   18.2415 C   0  0  0  0  0  0  0  0  0  0  0  0
    6.5307   36.7095   19.1344 C   0  0  0  0  0  0  0  0  0  0  0  0
    5.0868   37.0583   19.5092 C   0  0  0  0  0  0  0  0  0  0  0  0
    5.1060   38.3959   20.2315 C   0  0  0  0  0  0  0  0  0  0  0  0
    6.6404   35.3933   18.5479 O   0  0  0  0  0  0  0  0  0  0  0  0
    5.6414   39.4133   19.3879 O   0  0  0  0  0  0  0  0  0  0  0  0
    6.1149   35.3576   17.7333 H   0  0  0  0  0  0  0  0  0  0  0  0
    3.6514   35.1139   20.0417 C   0  0  0  0  0  0  0  0  0  0  0  0
    3.2511   34.0831   21.0788 C   0  0  0  0  0  0  0  0  0  0  0  0
    4.5784   36.0400   20.4128 N   0  0  0  0  0  0  0  0  0  0  0  0
    3.1369   35.0768   18.8860 O   0  0  0  0  0  0  0  0  0  0  0  0
    4.9199   36.0187   21.3359 H   0  0  0  0  0  0  0  0  0  0  0  0
    7.0940   40.2271   17.7055 C   0  0  0  0  0  0  0  0  0  0  0  0
    8.1260   40.0522   16.9391 O   0  0  0  0  0  0  0  0  0  0  0  0
    6.5130   41.2934   17.7673 O   0  0  0  0  0  0  0  0  0  0  0  0
    5.7701   41.3902   18.3301 H   0  0  0  0  0  0  0  0  0  0  0  0
    3.7196   38.8940   20.6544 C   0  0  0  0  0  0  0  0  0  0  0  0
    3.1989   38.0551   21.7122 O   0  0  0  0  0  0  0  0  0  0  0  0
    3.0998   37.1471   21.3857 H   0  0  0  0  0  0  0  0  0  0  0  0
    2.7032   38.8699   19.4811 C   0  0  0  0  0  0  0  0  0  0  0  0
    2.3635   40.2145   19.1153 O   0  0  0  0  0  0  0  0  0  0  0  0
    1.9981   40.6767   19.8859 H   0  0  0  0  0  0  0  0  0  0  0  0
    1.4717   38.1684   20.0096 C   0  0  0  0  0  0  0  0  0  0  0  0
    0.9353   37.2373   19.0033 O   0  0  0  0  0  0  0  0  0  0  0  0
    0.6900   37.7304   18.2047 H   0  0  0  0  0  0  0  0  0  0  0  0
 14  1  1  0  0  0
 14 15  2  0  0  0
 14 16  1  0  0  0
  1  2  2  0  0  0
  1  7  1  0  0  0
  2  3  1  0  0  0
  3  4  1  0  0  0
  3  6  1  0  0  0
  4  5  1  0  0  0
  4 11  1  0  0  0
  5 18  1  0  0  0
  5  7  1  0  0  0
 18 21  1  0  0  0
 18 19  1  0  0  0
 21 24  1  0  0  0
 21 22  1  0  0  0
 24 25  1  0  0  0
  9 10  1  0  0  0
  9 11  1  0  0  0
  9 12  2  0  0  0
 11 13  1  0  0  0
 16 17  1  0  0  0
  6  8  1  0  0  0
 19 20  1  0  0  0
 22 23  1  0  0  0
 25 26  1  0  0  0
M  END
> <minimizedAffinity>
-6.66532

$$$$
