5TMN_0PJ_E_317


 37 37  0  0  0  0  0  0  0  0999 V2000
   51.6057   18.6136   -4.5476 N   0  0  0  0  0  0  0  0  0  0  0  0
   51.2478   19.5352   -4.2963 H   0  0  0  0  0  0  0  0  0  0  0  0
   51.6502   18.6226   -6.2042 P   0  0  0  0  0  0  0  0  0  0  0  0
   51.1049   19.9686   -6.6524 O   0  0  0  0  0  0  0  0  0  0  0  0
   53.0649   18.4977   -6.5445 O   0  0  0  0  0  0  0  0  0  0  0  0
   53.1664   18.4961   -7.5092 H   0  0  0  0  0  0  0  0  0  0  0  0
   50.6579   17.2412   -6.5268 C   0  0  0  0  0  0  0  0  0  0  0  0
   49.8378   17.3124   -8.7060 C   0  0  0  0  0  0  0  0  0  0  0  0
   50.6059   16.5098   -9.1874 O   0  0  0  0  0  0  0  0  0  0  0  0
   49.7802   17.7550   -7.4716 N   0  0  0  0  0  0  0  0  0  0  0  0
   49.1227   18.4428   -7.2191 H   0  0  0  0  0  0  0  0  0  0  0  0
   48.8853   17.8858   -9.3835 O   0  0  0  0  0  0  0  0  0  0  0  0
   49.0573   18.3281  -10.7952 C   0  0  0  0  0  0  0  0  0  0  0  0
   49.6217   19.7998  -10.9058 C   0  0  0  0  0  0  0  0  0  0  0  0
   50.0775   20.2427  -12.1226 C   0  0  0  0  0  0  0  0  0  0  0  0
   50.6130   21.5186  -12.3163 C   0  0  0  0  0  0  0  0  0  0  0  0
   50.6502   22.3655  -11.2710 C   0  0  0  0  0  0  0  0  0  0  0  0
   50.1769   21.9726  -10.0590 C   0  0  0  0  0  0  0  0  0  0  0  0
   49.6752   20.6783   -9.8461 C   0  0  0  0  0  0  0  0  0  0  0  0
   52.6927   18.3791   -3.6167 C   0  0  0  0  0  0  0  0  0  0  0  0
   53.4989   17.0989   -3.8748 C   0  0  0  0  0  0  0  0  0  0  0  0
   54.6982   17.1449   -4.1614 O   0  0  0  0  0  0  0  0  0  0  0  0
   52.8337   15.9767   -3.7601 N   0  0  0  0  0  0  0  0  0  0  0  0
   51.8757   16.0276   -3.5392 H   0  0  0  0  0  0  0  0  0  0  0  0
   53.4282   14.6509   -3.9405 C   0  0  0  0  0  0  0  0  0  0  0  0
   52.7404   13.8616   -5.0274 C   0  0  0  0  0  0  0  0  0  0  0  0
   51.5331   14.0876   -5.3041 O   0  0  0  0  0  0  0  0  0  0  0  0
   53.3739   13.0158   -5.7268 O   0  0  0  0  0  0  0  0  0  0  0  0
   54.2732   12.8319   -5.5386 H   0  0  0  0  0  0  0  0  0  0  0  0
   53.6687   13.8924   -2.5841 C   0  0  0  0  0  0  0  0  0  0  0  0
   52.4341   13.4830   -1.8352 C   0  0  0  0  0  0  0  0  0  0  0  0
   52.7518   12.4052   -0.8311 C   0  0  0  0  0  0  0  0  0  0  0  0
   51.9435   14.6590   -1.0146 C   0  0  0  0  0  0  0  0  0  0  0  0
   52.2324   18.3976   -2.1326 C   0  0  0  0  0  0  0  0  0  0  0  0
   53.4097   18.5441   -1.1753 C   0  0  0  0  0  0  0  0  0  0  0  0
   54.0067   19.9562   -1.3161 C   0  0  0  0  0  0  0  0  0  0  0  0
   52.8793   18.3208    0.2549 C   0  0  0  0  0  0  0  0  0  0  0  0
  8  9  2  0  0  0
  8 12  1  0  0  0
 12 13  1  0  0  0
 13 14  1  0  0  0
 14 15  2  0  0  0
 14 19  1  0  0  0
 15 16  1  0  0  0
 16 17  2  0  0  0
 17 18  1  0  0  0
 18 19  2  0  0  0
 10  7  1  0  0  0
  7  3  1  0  0  0
  3  4  2  0  0  0
  3  5  1  0  0  0
  1 20  1  0  0  0
 20 21  1  0  0  0
 20 34  1  0  0  0
 21 22  2  0  0  0
 34 35  1  0  0  0
 35 36  1  0  0  0
 35 37  1  0  0  0
 23 25  1  0  0  0
 25 26  1  0  0  0
 25 30  1  0  0  0
 26 27  2  0  0  0
 26 28  1  0  0  0
 30 31  1  0  0  0
 31 32  1  0  0  0
 31 33  1  0  0  0
  8 10  1  0  0  0
  3  1  1  0  0  0
 21 23  1  0  0  0
 10 11  1  0  0  0
  5  6  1  0  0  0
  1  2  1  0  0  0
 23 24  1  0  0  0
 28 29  1  0  0  0
M  END
> <minimizedAffinity>
-9.01365

$$$$
5TMN_0PJ_E_317


 37 37  0  0  0  0  0  0  0  0999 V2000
   50.0525   18.6946  -10.0815 N   0  0  0  0  0  0  0  0  0  0  0  0
   51.0427   18.7776  -10.3118 H   0  0  0  0  0  0  0  0  0  0  0  0
   50.0304   18.3398   -8.4629 P   0  0  0  0  0  0  0  0  0  0  0  0
   48.5997   17.9642   -8.1136 O   0  0  0  0  0  0  0  0  0  0  0  0
   50.9183   17.1896   -8.3163 O   0  0  0  0  0  0  0  0  0  0  0  0
   50.9535   16.9251   -7.3838 H   0  0  0  0  0  0  0  0  0  0  0  0
   50.6105   19.8432   -7.8303 C   0  0  0  0  0  0  0  0  0  0  0  0
   51.9133   18.9586   -6.1137 C   0  0  0  0  0  0  0  0  0  0  0  0
   52.8567   18.6204   -6.7930 O   0  0  0  0  0  0  0  0  0  0  0  0
   50.7893   19.5211   -6.4919 N   0  0  0  0  0  0  0  0  0  0  0  0
   50.0818   19.7122   -5.8345 H   0  0  0  0  0  0  0  0  0  0  0  0
   51.8752   18.8142   -4.8203 O   0  0  0  0  0  0  0  0  0  0  0  0
   52.6827   17.7893   -4.1021 C   0  0  0  0  0  0  0  0  0  0  0  0
   53.1651   18.2831   -2.6809 C   0  0  0  0  0  0  0  0  0  0  0  0
   52.4136   17.9589   -1.5787 C   0  0  0  0  0  0  0  0  0  0  0  0
   52.7459   18.3660   -0.2842 C   0  0  0  0  0  0  0  0  0  0  0  0
   53.8740   19.0776   -0.1040 C   0  0  0  0  0  0  0  0  0  0  0  0
   54.6604   19.3885   -1.1680 C   0  0  0  0  0  0  0  0  0  0  0  0
   54.3120   19.0185   -2.4772 C   0  0  0  0  0  0  0  0  0  0  0  0
   49.4244   19.8052  -10.7708 C   0  0  0  0  0  0  0  0  0  0  0  0
   48.0410   19.4996  -11.3611 C   0  0  0  0  0  0  0  0  0  0  0  0
   47.6965   18.3429  -11.6183 O   0  0  0  0  0  0  0  0  0  0  0  0
   47.2661   20.5368  -11.5574 N   0  0  0  0  0  0  0  0  0  0  0  0
   47.6213   21.4279  -11.3359 H   0  0  0  0  0  0  0  0  0  0  0  0
   45.9034   20.4518  -12.0863 C   0  0  0  0  0  0  0  0  0  0  0  0
   45.6089   21.5487  -13.0800 C   0  0  0  0  0  0  0  0  0  0  0  0
   46.5539   22.1508  -13.6542 O   0  0  0  0  0  0  0  0  0  0  0  0
   44.4193   21.8350  -13.4097 O   0  0  0  0  0  0  0  0  0  0  0  0
   43.7006   21.3994  -12.9954 H   0  0  0  0  0  0  0  0  0  0  0  0
   44.8205   20.2245  -10.9688 C   0  0  0  0  0  0  0  0  0  0  0  0
   43.9353   19.0259  -11.1493 C   0  0  0  0  0  0  0  0  0  0  0  0
   44.2633   17.9624  -10.1333 C   0  0  0  0  0  0  0  0  0  0  0  0
   42.5020   19.4244  -10.8597 C   0  0  0  0  0  0  0  0  0  0  0  0
   50.3251   20.4157  -11.8802 C   0  0  0  0  0  0  0  0  0  0  0  0
   51.1420   21.5943  -11.3631 C   0  0  0  0  0  0  0  0  0  0  0  0
   51.9066   22.2360  -12.5352 C   0  0  0  0  0  0  0  0  0  0  0  0
   50.1596   22.6055  -10.7393 C   0  0  0  0  0  0  0  0  0  0  0  0
  8  9  2  0  0  0
  8 12  1  0  0  0
 12 13  1  0  0  0
 13 14  1  0  0  0
 14 15  2  0  0  0
 14 19  1  0  0  0
 15 16  1  0  0  0
 16 17  2  0  0  0
 17 18  1  0  0  0
 18 19  2  0  0  0
 10  7  1  0  0  0
  7  3  1  0  0  0
  3  4  2  0  0  0
  3  5  1  0  0  0
  1 20  1  0  0  0
 20 21  1  0  0  0
 20 34  1  0  0  0
 21 22  2  0  0  0
 34 35  1  0  0  0
 35 36  1  0  0  0
 35 37  1  0  0  0
 23 25  1  0  0  0
 25 26  1  0  0  0
 25 30  1  0  0  0
 26 27  2  0  0  0
 26 28  1  0  0  0
 30 31  1  0  0  0
 31 32  1  0  0  0
 31 33  1  0  0  0
  8 10  1  0  0  0
  3  1  1  0  0  0
 21 23  1  0  0  0
 10 11  1  0  0  0
  5  6  1  0  0  0
  1  2  1  0  0  0
 23 24  1  0  0  0
 28 29  1  0  0  0
M  END
> <minimizedAffinity>
-8.70498

$$$$
5TMN_0PJ_E_317


 37 37  0  0  0  0  0  0  0  0999 V2000
   49.7613   18.7731   -8.0676 N   0  0  0  0  0  0  0  0  0  0  0  0
   49.1217   18.0359   -7.7714 H   0  0  0  0  0  0  0  0  0  0  0  0
   50.9909   18.7276   -6.9575 P   0  0  0  0  0  0  0  0  0  0  0  0
   52.2820   18.9771   -7.7196 O   0  0  0  0  0  0  0  0  0  0  0  0
   50.7110   19.8278   -6.0387 O   0  0  0  0  0  0  0  0  0  0  0  0
   51.3984   19.8610   -5.3551 H   0  0  0  0  0  0  0  0  0  0  0  0
   50.7582   17.1292   -6.3349 C   0  0  0  0  0  0  0  0  0  0  0  0
   52.2335   15.8543   -5.0601 C   0  0  0  0  0  0  0  0  0  0  0  0
   51.8116   14.7648   -5.3774 O   0  0  0  0  0  0  0  0  0  0  0  0
   51.8038   17.0393   -5.4261 N   0  0  0  0  0  0  0  0  0  0  0  0
   52.2178   17.8543   -5.0607 H   0  0  0  0  0  0  0  0  0  0  0  0
   53.2497   16.0236   -4.2641 O   0  0  0  0  0  0  0  0  0  0  0  0
   53.7703   17.3709   -3.9008 C   0  0  0  0  0  0  0  0  0  0  0  0
   53.5989   17.6937   -2.3636 C   0  0  0  0  0  0  0  0  0  0  0  0
   52.7035   16.9561   -1.6296 C   0  0  0  0  0  0  0  0  0  0  0  0
   52.4666   17.1792   -0.2708 C   0  0  0  0  0  0  0  0  0  0  0  0
   53.1748   18.1365    0.3563 C   0  0  0  0  0  0  0  0  0  0  0  0
   54.0941   18.8643   -0.3311 C   0  0  0  0  0  0  0  0  0  0  0  0
   54.3087   18.6742   -1.7059 C   0  0  0  0  0  0  0  0  0  0  0  0
   49.8403   18.6291   -9.5085 C   0  0  0  0  0  0  0  0  0  0  0  0
   49.7602   19.9450  -10.2943 C   0  0  0  0  0  0  0  0  0  0  0  0
   50.1959   20.9990   -9.8233 O   0  0  0  0  0  0  0  0  0  0  0  0
   49.2149   19.8643  -11.4821 N   0  0  0  0  0  0  0  0  0  0  0  0
   48.8818   18.9867  -11.7793 H   0  0  0  0  0  0  0  0  0  0  0  0
   49.0704   20.9997  -12.3952 C   0  0  0  0  0  0  0  0  0  0  0  0
   47.6421   21.1925  -12.8425 C   0  0  0  0  0  0  0  0  0  0  0  0
   47.1677   20.4791  -13.7652 O   0  0  0  0  0  0  0  0  0  0  0  0
   46.8756   22.0151  -12.2581 O   0  0  0  0  0  0  0  0  0  0  0  0
   47.2073   22.5561  -11.5687 H   0  0  0  0  0  0  0  0  0  0  0  0
   50.1578   21.0207  -13.5311 C   0  0  0  0  0  0  0  0  0  0  0  0
   50.8992   22.3142  -13.7038 C   0  0  0  0  0  0  0  0  0  0  0  0
   51.9187   22.4952  -12.6090 C   0  0  0  0  0  0  0  0  0  0  0  0
   51.7011   22.2544  -14.9884 C   0  0  0  0  0  0  0  0  0  0  0  0
   48.7885   17.6355  -10.0754 C   0  0  0  0  0  0  0  0  0  0  0  0
   47.7638   17.2318   -9.0214 C   0  0  0  0  0  0  0  0  0  0  0  0
   46.3681   17.7120   -9.4593 C   0  0  0  0  0  0  0  0  0  0  0  0
   47.7952   15.6949   -8.9041 C   0  0  0  0  0  0  0  0  0  0  0  0
  8  9  2  0  0  0
  8 12  1  0  0  0
 12 13  1  0  0  0
 13 14  1  0  0  0
 14 15  2  0  0  0
 14 19  1  0  0  0
 15 16  1  0  0  0
 16 17  2  0  0  0
 17 18  1  0  0  0
 18 19  2  0  0  0
 10  7  1  0  0  0
  7  3  1  0  0  0
  3  4  2  0  0  0
  3  5  1  0  0  0
  1 20  1  0  0  0
 20 21  1  0  0  0
 20 34  1  0  0  0
 21 22  2  0  0  0
 34 35  1  0  0  0
 35 36  1  0  0  0
 35 37  1  0  0  0
 23 25  1  0  0  0
 25 26  1  0  0  0
 25 30  1  0  0  0
 26 27  2  0  0  0
 26 28  1  0  0  0
 30 31  1  0  0  0
 31 32  1  0  0  0
 31 33  1  0  0  0
  8 10  1  0  0  0
  3  1  1  0  0  0
 21 23  1  0  0  0
 10 11  1  0  0  0
  5  6  1  0  0  0
  1  2  1  0  0  0
 23 24  1  0  0  0
 28 29  1  0  0  0
M  END
> <minimizedAffinity>
-8.47744

$$$$
5TMN_0PJ_E_317


 37 37  0  0  0  0  0  0  0  0999 V2000
   48.5452   21.2772  -11.5455 N   0  0  0  0  0  0  0  0  0  0  0  0
   48.9167   22.1458  -11.9302 H   0  0  0  0  0  0  0  0  0  0  0  0
   47.4107   20.7854  -12.6489 P   0  0  0  0  0  0  0  0  0  0  0  0
   46.1092   20.5948  -11.8875 O   0  0  0  0  0  0  0  0  0  0  0  0
   47.2997   21.8923  -13.5951 O   0  0  0  0  0  0  0  0  0  0  0  0
   46.6457   21.6709  -14.2764 H   0  0  0  0  0  0  0  0  0  0  0  0
   48.1808   19.3495  -13.2336 C   0  0  0  0  0  0  0  0  0  0  0  0
   46.5958   18.2596  -14.5477 C   0  0  0  0  0  0  0  0  0  0  0  0
   46.9258   18.7316  -15.6127 O   0  0  0  0  0  0  0  0  0  0  0  0
   47.0953   18.4929  -13.3565 N   0  0  0  0  0  0  0  0  0  0  0  0
   46.7050   18.0656  -12.5601 H   0  0  0  0  0  0  0  0  0  0  0  0
   45.6401   17.3850  -14.4186 O   0  0  0  0  0  0  0  0  0  0  0  0
   45.4836   16.5394  -13.2026 C   0  0  0  0  0  0  0  0  0  0  0  0
   44.1120   16.7919  -12.4600 C   0  0  0  0  0  0  0  0  0  0  0  0
   43.1266   15.8404  -12.5509 C   0  0  0  0  0  0  0  0  0  0  0  0
   41.8743   15.9812  -11.9476 C   0  0  0  0  0  0  0  0  0  0  0  0
   41.6353   17.0833  -11.2130 C   0  0  0  0  0  0  0  0  0  0  0  0
   42.5994   18.0311  -11.0733 C   0  0  0  0  0  0  0  0  0  0  0  0
   43.8457   17.9165  -11.7102 C   0  0  0  0  0  0  0  0  0  0  0  0
   49.7133   20.5604  -11.0713 C   0  0  0  0  0  0  0  0  0  0  0  0
   49.7864   20.3804   -9.5489 C   0  0  0  0  0  0  0  0  0  0  0  0
   49.6663   21.3416   -8.7844 O   0  0  0  0  0  0  0  0  0  0  0  0
   49.9719   19.1533   -9.1308 N   0  0  0  0  0  0  0  0  0  0  0  0
   50.0692   18.4443   -9.8069 H   0  0  0  0  0  0  0  0  0  0  0  0
   50.0433   18.7717   -7.7191 C   0  0  0  0  0  0  0  0  0  0  0  0
   51.3617   19.1535   -7.0920 C   0  0  0  0  0  0  0  0  0  0  0  0
   52.4056   18.5090   -7.3751 O   0  0  0  0  0  0  0  0  0  0  0  0
   51.4607   20.1636   -6.3333 O   0  0  0  0  0  0  0  0  0  0  0  0
   50.6969   20.6580   -6.1094 H   0  0  0  0  0  0  0  0  0  0  0  0
   49.5520   17.3020   -7.4513 C   0  0  0  0  0  0  0  0  0  0  0  0
   48.2656   16.9101   -8.1178 C   0  0  0  0  0  0  0  0  0  0  0  0
   48.4688   15.7095   -9.0056 C   0  0  0  0  0  0  0  0  0  0  0  0
   47.2796   16.4595   -7.0587 C   0  0  0  0  0  0  0  0  0  0  0  0
   51.0475   21.1793  -11.5731 C   0  0  0  0  0  0  0  0  0  0  0  0
   50.8101   22.2981  -12.5810 C   0  0  0  0  0  0  0  0  0  0  0  0
   51.8020   23.4443  -12.3110 C   0  0  0  0  0  0  0  0  0  0  0  0
   51.0304   21.7121  -13.9898 C   0  0  0  0  0  0  0  0  0  0  0  0
  8  9  2  0  0  0
  8 12  1  0  0  0
 12 13  1  0  0  0
 13 14  1  0  0  0
 14 15  2  0  0  0
 14 19  1  0  0  0
 15 16  1  0  0  0
 16 17  2  0  0  0
 17 18  1  0  0  0
 18 19  2  0  0  0
 10  7  1  0  0  0
  7  3  1  0  0  0
  3  4  2  0  0  0
  3  5  1  0  0  0
  1 20  1  0  0  0
 20 21  1  0  0  0
 20 34  1  0  0  0
 21 22  2  0  0  0
 34 35  1  0  0  0
 35 36  1  0  0  0
 35 37  1  0  0  0
 23 25  1  0  0  0
 25 26  1  0  0  0
 25 30  1  0  0  0
 26 27  2  0  0  0
 26 28  1  0  0  0
 30 31  1  0  0  0
 31 32  1  0  0  0
 31 33  1  0  0  0
  8 10  1  0  0  0
  3  1  1  0  0  0
 21 23  1  0  0  0
 10 11  1  0  0  0
  5  6  1  0  0  0
  1  2  1  0  0  0
 23 24  1  0  0  0
 28 29  1  0  0  0
M  END
> <minimizedAffinity>
-8.45695

$$$$
5TMN_0PJ_E_317


 37 37  0  0  0  0  0  0  0  0999 V2000
   49.0250   20.3967  -11.6859 N   0  0  0  0  0  0  0  0  0  0  0  0
   49.0927   21.3005  -12.1539 H   0  0  0  0  0  0  0  0  0  0  0  0
   48.3810   19.3840  -12.8287 P   0  0  0  0  0  0  0  0  0  0  0  0
   49.3335   19.3936  -14.0130 O   0  0  0  0  0  0  0  0  0  0  0  0
   48.3551   18.0682  -12.1956 O   0  0  0  0  0  0  0  0  0  0  0  0
   47.9858   17.4189  -12.8144 H   0  0  0  0  0  0  0  0  0  0  0  0
   46.8480   20.1531  -13.0644 C   0  0  0  0  0  0  0  0  0  0  0  0
   44.8445   19.5171  -12.0603 C   0  0  0  0  0  0  0  0  0  0  0  0
   44.4283   20.6295  -11.8255 O   0  0  0  0  0  0  0  0  0  0  0  0
   45.9802   19.1662  -12.6171 N   0  0  0  0  0  0  0  0  0  0  0  0
   46.2136   18.2150  -12.7164 H   0  0  0  0  0  0  0  0  0  0  0  0
   44.1790   18.4321  -11.7866 O   0  0  0  0  0  0  0  0  0  0  0  0
   42.8676   18.4503  -11.0807 C   0  0  0  0  0  0  0  0  0  0  0  0
   42.8630   17.5460   -9.7851 C   0  0  0  0  0  0  0  0  0  0  0  0
   41.6577   17.1609   -9.2527 C   0  0  0  0  0  0  0  0  0  0  0  0
   41.5497   16.3798   -8.0993 C   0  0  0  0  0  0  0  0  0  0  0  0
   42.6790   15.9544   -7.5032 C   0  0  0  0  0  0  0  0  0  0  0  0
   43.8902   16.2884   -8.0216 C   0  0  0  0  0  0  0  0  0  0  0  0
   44.0076   17.1071   -9.1565 C   0  0  0  0  0  0  0  0  0  0  0  0
   50.2771   20.2651  -10.9660 C   0  0  0  0  0  0  0  0  0  0  0  0
   50.1464   20.2731   -9.4368 C   0  0  0  0  0  0  0  0  0  0  0  0
   49.7230   21.2642   -8.8359 O   0  0  0  0  0  0  0  0  0  0  0  0
   50.5014   19.1676   -8.8312 N   0  0  0  0  0  0  0  0  0  0  0  0
   50.8397   18.4260   -9.3835 H   0  0  0  0  0  0  0  0  0  0  0  0
   50.4258   18.9673   -7.3828 C   0  0  0  0  0  0  0  0  0  0  0  0
   51.7653   19.1494   -6.7121 C   0  0  0  0  0  0  0  0  0  0  0  0
   52.7371   18.4158   -7.0331 O   0  0  0  0  0  0  0  0  0  0  0  0
   51.9601   20.0803   -5.8748 O   0  0  0  0  0  0  0  0  0  0  0  0
   51.2513   20.6384   -5.6214 H   0  0  0  0  0  0  0  0  0  0  0  0
   49.6219   17.6773   -6.9791 C   0  0  0  0  0  0  0  0  0  0  0  0
   48.9811   16.9251   -8.1087 C   0  0  0  0  0  0  0  0  0  0  0  0
   49.7803   15.6945   -8.4516 C   0  0  0  0  0  0  0  0  0  0  0  0
   47.6311   16.4086   -7.6530 C   0  0  0  0  0  0  0  0  0  0  0  0
   51.3325   21.3239  -11.3900 C   0  0  0  0  0  0  0  0  0  0  0  0
   50.7729   22.3038  -12.4149 C   0  0  0  0  0  0  0  0  0  0  0  0
   50.8663   23.7346  -11.8540 C   0  0  0  0  0  0  0  0  0  0  0  0
   51.6163   22.1695  -13.6985 C   0  0  0  0  0  0  0  0  0  0  0  0
  8  9  2  0  0  0
  8 12  1  0  0  0
 12 13  1  0  0  0
 13 14  1  0  0  0
 14 15  2  0  0  0
 14 19  1  0  0  0
 15 16  1  0  0  0
 16 17  2  0  0  0
 17 18  1  0  0  0
 18 19  2  0  0  0
 10  7  1  0  0  0
  7  3  1  0  0  0
  3  4  2  0  0  0
  3  5  1  0  0  0
  1 20  1  0  0  0
 20 21  1  0  0  0
 20 34  1  0  0  0
 21 22  2  0  0  0
 34 35  1  0  0  0
 35 36  1  0  0  0
 35 37  1  0  0  0
 23 25  1  0  0  0
 25 26  1  0  0  0
 25 30  1  0  0  0
 26 27  2  0  0  0
 26 28  1  0  0  0
 30 31  1  0  0  0
 31 32  1  0  0  0
 31 33  1  0  0  0
  8 10  1  0  0  0
  3  1  1  0  0  0
 21 23  1  0  0  0
 10 11  1  0  0  0
  5  6  1  0  0  0
  1  2  1  0  0  0
 23 24  1  0  0  0
 28 29  1  0  0  0
M  END
> <minimizedAffinity>
-8.37240

$$$$
5TMN_0PJ_E_317


 37 37  0  0  0  0  0  0  0  0999 V2000
   48.6996   18.1938   -8.8483 N   0  0  0  0  0  0  0  0  0  0  0  0
   47.8489   18.0658   -8.3003 H   0  0  0  0  0  0  0  0  0  0  0  0
   49.9310   17.8942   -7.7805 P   0  0  0  0  0  0  0  0  0  0  0  0
   49.3186   17.1674   -6.5944 O   0  0  0  0  0  0  0  0  0  0  0  0
   50.8530   17.0217   -8.5026 O   0  0  0  0  0  0  0  0  0  0  0  0
   51.6061   16.8036   -7.9315 H   0  0  0  0  0  0  0  0  0  0  0  0
   50.4692   19.5152   -7.4988 C   0  0  0  0  0  0  0  0  0  0  0  0
   52.0787   18.9641   -5.9075 C   0  0  0  0  0  0  0  0  0  0  0  0
   52.9092   18.5257   -6.6717 O   0  0  0  0  0  0  0  0  0  0  0  0
   50.8836   19.4354   -6.1763 N   0  0  0  0  0  0  0  0  0  0  0  0
   50.2883   19.7286   -5.4490 H   0  0  0  0  0  0  0  0  0  0  0  0
   52.2641   19.0482   -4.6215 O   0  0  0  0  0  0  0  0  0  0  0  0
   53.5108   18.5769   -3.9568 C   0  0  0  0  0  0  0  0  0  0  0  0
   53.3755   18.5196   -2.3836 C   0  0  0  0  0  0  0  0  0  0  0  0
   54.4840   18.7763   -1.6156 C   0  0  0  0  0  0  0  0  0  0  0  0
   54.4700   18.7299   -0.2192 C   0  0  0  0  0  0  0  0  0  0  0  0
   53.3082   18.4572    0.4030 C   0  0  0  0  0  0  0  0  0  0  0  0
   52.1827   18.2307   -0.3245 C   0  0  0  0  0  0  0  0  0  0  0  0
   52.1975   18.2348   -1.7287 C   0  0  0  0  0  0  0  0  0  0  0  0
   48.4207   17.5383  -10.1115 C   0  0  0  0  0  0  0  0  0  0  0  0
   48.5817   18.4294  -11.3507 C   0  0  0  0  0  0  0  0  0  0  0  0
   48.6695   17.9431  -12.4814 O   0  0  0  0  0  0  0  0  0  0  0  0
   48.6079   19.7187  -11.1229 N   0  0  0  0  0  0  0  0  0  0  0  0
   48.5431   20.0246  -10.1894 H   0  0  0  0  0  0  0  0  0  0  0  0
   48.7277   20.7329  -12.1721 C   0  0  0  0  0  0  0  0  0  0  0  0
   47.4875   20.8162  -13.0278 C   0  0  0  0  0  0  0  0  0  0  0  0
   46.5778   21.6386  -12.7426 O   0  0  0  0  0  0  0  0  0  0  0  0
   47.3675   20.1215  -14.0807 O   0  0  0  0  0  0  0  0  0  0  0  0
   48.0323   19.5032  -14.3124 H   0  0  0  0  0  0  0  0  0  0  0  0
   50.0955   20.6630  -12.9450 C   0  0  0  0  0  0  0  0  0  0  0  0
   51.0692   21.7673  -12.6535 C   0  0  0  0  0  0  0  0  0  0  0  0
   51.5471   22.4083  -13.9309 C   0  0  0  0  0  0  0  0  0  0  0  0
   50.3525   22.8693  -11.8993 C   0  0  0  0  0  0  0  0  0  0  0  0
   47.0195   16.8675  -10.1482 C   0  0  0  0  0  0  0  0  0  0  0  0
   45.9795   17.6843   -9.3898 C   0  0  0  0  0  0  0  0  0  0  0  0
   44.9880   18.3019  -10.3928 C   0  0  0  0  0  0  0  0  0  0  0  0
   45.2490   16.7296   -8.4246 C   0  0  0  0  0  0  0  0  0  0  0  0
  8  9  2  0  0  0
  8 12  1  0  0  0
 12 13  1  0  0  0
 13 14  1  0  0  0
 14 15  2  0  0  0
 14 19  1  0  0  0
 15 16  1  0  0  0
 16 17  2  0  0  0
 17 18  1  0  0  0
 18 19  2  0  0  0
 10  7  1  0  0  0
  7  3  1  0  0  0
  3  4  2  0  0  0
  3  5  1  0  0  0
  1 20  1  0  0  0
 20 21  1  0  0  0
 20 34  1  0  0  0
 21 22  2  0  0  0
 34 35  1  0  0  0
 35 36  1  0  0  0
 35 37  1  0  0  0
 23 25  1  0  0  0
 25 26  1  0  0  0
 25 30  1  0  0  0
 26 27  2  0  0  0
 26 28  1  0  0  0
 30 31  1  0  0  0
 31 32  1  0  0  0
 31 33  1  0  0  0
  8 10  1  0  0  0
  3  1  1  0  0  0
 21 23  1  0  0  0
 10 11  1  0  0  0
  5  6  1  0  0  0
  1  2  1  0  0  0
 23 24  1  0  0  0
 28 29  1  0  0  0
M  END
> <minimizedAffinity>
-8.36815

$$$$
5TMN_0PJ_E_317


 37 37  0  0  0  0  0  0  0  0999 V2000
   48.1445   17.2117   -8.4578 N   0  0  0  0  0  0  0  0  0  0  0  0
   47.4931   17.3083   -7.6788 H   0  0  0  0  0  0  0  0  0  0  0  0
   49.2318   16.0682   -7.9513 P   0  0  0  0  0  0  0  0  0  0  0  0
   48.4319   14.9729   -7.2652 O   0  0  0  0  0  0  0  0  0  0  0  0
   49.8511   15.5677   -9.1755 O   0  0  0  0  0  0  0  0  0  0  0  0
   50.5056   14.8875   -8.9520 H   0  0  0  0  0  0  0  0  0  0  0  0
   50.2289   17.0500   -6.9321 C   0  0  0  0  0  0  0  0  0  0  0  0
   51.4599   18.8700   -7.7061 C   0  0  0  0  0  0  0  0  0  0  0  0
   52.4827   18.6336   -7.1030 O   0  0  0  0  0  0  0  0  0  0  0  0
   50.3249   18.2109   -7.6871 N   0  0  0  0  0  0  0  0  0  0  0  0
   49.5513   18.5360   -8.2020 H   0  0  0  0  0  0  0  0  0  0  0  0
   51.3284   19.8734   -8.5252 O   0  0  0  0  0  0  0  0  0  0  0  0
   50.1185   20.0661   -9.3722 C   0  0  0  0  0  0  0  0  0  0  0  0
   50.3499   21.1140  -10.5318 C   0  0  0  0  0  0  0  0  0  0  0  0
   50.7599   20.6597  -11.7606 C   0  0  0  0  0  0  0  0  0  0  0  0
   51.0107   21.5090  -12.8414 C   0  0  0  0  0  0  0  0  0  0  0  0
   50.8057   22.8296  -12.6820 C   0  0  0  0  0  0  0  0  0  0  0  0
   50.3678   23.3117  -11.4890 C   0  0  0  0  0  0  0  0  0  0  0  0
   50.1531   22.4697  -10.3859 C   0  0  0  0  0  0  0  0  0  0  0  0
   47.3010   17.1952   -9.6374 C   0  0  0  0  0  0  0  0  0  0  0  0
   47.9368   17.8048  -10.8943 C   0  0  0  0  0  0  0  0  0  0  0  0
   49.0057   17.3799  -11.3409 O   0  0  0  0  0  0  0  0  0  0  0  0
   47.2676   18.7830  -11.4513 N   0  0  0  0  0  0  0  0  0  0  0  0
   46.4276   19.0699  -11.0253 H   0  0  0  0  0  0  0  0  0  0  0  0
   47.6926   19.4760  -12.6691 C   0  0  0  0  0  0  0  0  0  0  0  0
   47.1409   20.8783  -12.7482 C   0  0  0  0  0  0  0  0  0  0  0  0
   47.5549   21.6706  -13.6349 O   0  0  0  0  0  0  0  0  0  0  0  0
   46.2082   21.2621  -11.9810 O   0  0  0  0  0  0  0  0  0  0  0  0
   45.8845   20.6890  -11.3140 H   0  0  0  0  0  0  0  0  0  0  0  0
   47.5359   18.5990  -13.9650 C   0  0  0  0  0  0  0  0  0  0  0  0
   48.8115   18.2355  -14.6675 C   0  0  0  0  0  0  0  0  0  0  0  0
   48.8214   16.7736  -15.0331 C   0  0  0  0  0  0  0  0  0  0  0  0
   48.8746   18.9763  -15.9882 C   0  0  0  0  0  0  0  0  0  0  0  0
   45.9151   17.8564   -9.3990 C   0  0  0  0  0  0  0  0  0  0  0  0
   44.7997   16.8208   -9.3134 C   0  0  0  0  0  0  0  0  0  0  0  0
   44.6947   16.3053   -7.8665 C   0  0  0  0  0  0  0  0  0  0  0  0
   43.4882   17.5106   -9.7388 C   0  0  0  0  0  0  0  0  0  0  0  0
  8  9  2  0  0  0
  8 12  1  0  0  0
 12 13  1  0  0  0
 13 14  1  0  0  0
 14 15  2  0  0  0
 14 19  1  0  0  0
 15 16  1  0  0  0
 16 17  2  0  0  0
 17 18  1  0  0  0
 18 19  2  0  0  0
 10  7  1  0  0  0
  7  3  1  0  0  0
  3  4  2  0  0  0
  3  5  1  0  0  0
  1 20  1  0  0  0
 20 21  1  0  0  0
 20 34  1  0  0  0
 21 22  2  0  0  0
 34 35  1  0  0  0
 35 36  1  0  0  0
 35 37  1  0  0  0
 23 25  1  0  0  0
 25 26  1  0  0  0
 25 30  1  0  0  0
 26 27  2  0  0  0
 26 28  1  0  0  0
 30 31  1  0  0  0
 31 32  1  0  0  0
 31 33  1  0  0  0
  8 10  1  0  0  0
  3  1  1  0  0  0
 21 23  1  0  0  0
 10 11  1  0  0  0
  5  6  1  0  0  0
  1  2  1  0  0  0
 23 24  1  0  0  0
 28 29  1  0  0  0
M  END
> <minimizedAffinity>
-8.33612

$$$$
5TMN_0PJ_E_317


 37 37  0  0  0  0  0  0  0  0999 V2000
   50.4475   20.2789  -10.4305 N   0  0  0  0  0  0  0  0  0  0  0  0
   51.4147   20.5464  -10.2481 H   0  0  0  0  0  0  0  0  0  0  0  0
   49.7240   20.2933   -8.9396 P   0  0  0  0  0  0  0  0  0  0  0  0
   50.2245   21.5344   -8.2189 O   0  0  0  0  0  0  0  0  0  0  0  0
   48.2935   20.3960   -9.2151 O   0  0  0  0  0  0  0  0  0  0  0  0
   47.8032   20.4097   -8.3782 H   0  0  0  0  0  0  0  0  0  0  0  0
   50.2820   18.7707   -8.3336 C   0  0  0  0  0  0  0  0  0  0  0  0
   51.4416   18.2480   -6.3820 C   0  0  0  0  0  0  0  0  0  0  0  0
   51.5333   17.0556   -6.5703 O   0  0  0  0  0  0  0  0  0  0  0  0
   50.8544   19.1540   -7.1284 N   0  0  0  0  0  0  0  0  0  0  0  0
   50.8203   20.0938   -6.8371 H   0  0  0  0  0  0  0  0  0  0  0  0
   51.9546   18.8501   -5.3479 O   0  0  0  0  0  0  0  0  0  0  0  0
   53.1961   18.3756   -4.6758 C   0  0  0  0  0  0  0  0  0  0  0  0
   53.1489   18.5672   -3.1081 C   0  0  0  0  0  0  0  0  0  0  0  0
   54.2784   19.0040   -2.4617 C   0  0  0  0  0  0  0  0  0  0  0  0
   54.3419   19.1841   -1.0776 C   0  0  0  0  0  0  0  0  0  0  0  0
   53.2344   18.9542   -0.3482 C   0  0  0  0  0  0  0  0  0  0  0  0
   52.0881   18.5527   -0.9584 C   0  0  0  0  0  0  0  0  0  0  0  0
   52.0277   18.3298   -2.3436 C   0  0  0  0  0  0  0  0  0  0  0  0
   50.0814   21.0255  -11.6187 C   0  0  0  0  0  0  0  0  0  0  0  0
   48.9543   20.4006  -12.4521 C   0  0  0  0  0  0  0  0  0  0  0  0
   49.1995   19.6282  -13.3827 O   0  0  0  0  0  0  0  0  0  0  0  0
   47.7375   20.7342  -12.1016 N   0  0  0  0  0  0  0  0  0  0  0  0
   47.6283   21.3657  -11.3542 H   0  0  0  0  0  0  0  0  0  0  0  0
   46.5293   20.2252  -12.7536 C   0  0  0  0  0  0  0  0  0  0  0  0
   45.5222   21.3172  -13.0186 C   0  0  0  0  0  0  0  0  0  0  0  0
   45.8294   22.2958  -13.7489 O   0  0  0  0  0  0  0  0  0  0  0  0
   44.3365   21.2389  -12.5784 O   0  0  0  0  0  0  0  0  0  0  0  0
   44.0858   20.5193  -12.0332 H   0  0  0  0  0  0  0  0  0  0  0  0
   45.9691   18.9183  -12.0816 C   0  0  0  0  0  0  0  0  0  0  0  0
   45.9475   17.6938  -12.9491 C   0  0  0  0  0  0  0  0  0  0  0  0
   44.5506   17.1380  -13.0530 C   0  0  0  0  0  0  0  0  0  0  0  0
   46.3260   18.0856  -14.3634 C   0  0  0  0  0  0  0  0  0  0  0  0
   51.2936   21.3197  -12.5453 C   0  0  0  0  0  0  0  0  0  0  0  0
   51.3140   22.7717  -13.0090 C   0  0  0  0  0  0  0  0  0  0  0  0
   50.5600   22.8890  -14.3461 C   0  0  0  0  0  0  0  0  0  0  0  0
   50.6232   23.6189  -11.9219 C   0  0  0  0  0  0  0  0  0  0  0  0
  8  9  2  0  0  0
  8 12  1  0  0  0
 12 13  1  0  0  0
 13 14  1  0  0  0
 14 15  2  0  0  0
 14 19  1  0  0  0
 15 16  1  0  0  0
 16 17  2  0  0  0
 17 18  1  0  0  0
 18 19  2  0  0  0
 10  7  1  0  0  0
  7  3  1  0  0  0
  3  4  2  0  0  0
  3  5  1  0  0  0
  1 20  1  0  0  0
 20 21  1  0  0  0
 20 34  1  0  0  0
 21 22  2  0  0  0
 34 35  1  0  0  0
 35 36  1  0  0  0
 35 37  1  0  0  0
 23 25  1  0  0  0
 25 26  1  0  0  0
 25 30  1  0  0  0
 26 27  2  0  0  0
 26 28  1  0  0  0
 30 31  1  0  0  0
 31 32  1  0  0  0
 31 33  1  0  0  0
  8 10  1  0  0  0
  3  1  1  0  0  0
 21 23  1  0  0  0
 10 11  1  0  0  0
  5  6  1  0  0  0
  1  2  1  0  0  0
 23 24  1  0  0  0
 28 29  1  0  0  0
M  END
> <minimizedAffinity>
-8.24372

$$$$
5TMN_0PJ_E_317


 37 37  0  0  0  0  0  0  0  0999 V2000
   46.9095   18.7683  -13.2661 N   0  0  0  0  0  0  0  0  0  0  0  0
   46.3988   17.8936  -13.1450 H   0  0  0  0  0  0  0  0  0  0  0  0
   47.7160   18.5834  -14.7019 P   0  0  0  0  0  0  0  0  0  0  0  0
   46.6773   18.6840  -15.8069 O   0  0  0  0  0  0  0  0  0  0  0  0
   48.6452   19.7086  -14.7606 O   0  0  0  0  0  0  0  0  0  0  0  0
   49.1559   19.6635  -15.5840 H   0  0  0  0  0  0  0  0  0  0  0  0
   48.4164   17.0220  -14.4403 C   0  0  0  0  0  0  0  0  0  0  0  0
   47.8735   15.4210  -12.8376 C   0  0  0  0  0  0  0  0  0  0  0  0
   48.2891   14.4543  -13.4366 O   0  0  0  0  0  0  0  0  0  0  0  0
   47.8561   16.6771  -13.2179 N   0  0  0  0  0  0  0  0  0  0  0  0
   47.4507   17.3661  -12.6433 H   0  0  0  0  0  0  0  0  0  0  0  0
   47.3573   15.3551  -11.6442 O   0  0  0  0  0  0  0  0  0  0  0  0
   48.0330   14.6597  -10.5136 C   0  0  0  0  0  0  0  0  0  0  0  0
   48.5155   15.6582   -9.3881 C   0  0  0  0  0  0  0  0  0  0  0  0
   49.6240   16.4331   -9.6234 C   0  0  0  0  0  0  0  0  0  0  0  0
   50.1395   17.3295   -8.6838 C   0  0  0  0  0  0  0  0  0  0  0  0
   49.4992   17.4669   -7.5080 C   0  0  0  0  0  0  0  0  0  0  0  0
   48.3791   16.7403   -7.2534 C   0  0  0  0  0  0  0  0  0  0  0  0
   47.8783   15.8074   -8.1759 C   0  0  0  0  0  0  0  0  0  0  0  0
   45.9607   19.7986  -12.8899 C   0  0  0  0  0  0  0  0  0  0  0  0
   46.4850   21.2356  -13.0146 C   0  0  0  0  0  0  0  0  0  0  0  0
   45.7933   22.1282  -13.5121 O   0  0  0  0  0  0  0  0  0  0  0  0
   47.6932   21.4409  -12.5531 N   0  0  0  0  0  0  0  0  0  0  0  0
   48.1830   20.6719  -12.1815 H   0  0  0  0  0  0  0  0  0  0  0  0
   48.3600   22.7444  -12.5561 C   0  0  0  0  0  0  0  0  0  0  0  0
   48.4396   23.3400  -13.9403 C   0  0  0  0  0  0  0  0  0  0  0  0
   49.0161   22.7109  -14.8662 O   0  0  0  0  0  0  0  0  0  0  0  0
   47.8719   24.4387  -14.2169 O   0  0  0  0  0  0  0  0  0  0  0  0
   47.4368   24.9237  -13.5435 H   0  0  0  0  0  0  0  0  0  0  0  0
   49.6929   22.7580  -11.7216 C   0  0  0  0  0  0  0  0  0  0  0  0
   50.6371   21.6198  -11.9776 C   0  0  0  0  0  0  0  0  0  0  0  0
   51.9413   22.1245  -12.5391 C   0  0  0  0  0  0  0  0  0  0  0  0
   50.9972   20.9719  -10.6557 C   0  0  0  0  0  0  0  0  0  0  0  0
   45.3791   19.5933  -11.4636 C   0  0  0  0  0  0  0  0  0  0  0  0
   46.1858   18.5775  -10.6628 C   0  0  0  0  0  0  0  0  0  0  0  0
   47.2415   19.3170   -9.8207 C   0  0  0  0  0  0  0  0  0  0  0  0
   45.2036   17.8149   -9.7515 C   0  0  0  0  0  0  0  0  0  0  0  0
  8  9  2  0  0  0
  8 12  1  0  0  0
 12 13  1  0  0  0
 13 14  1  0  0  0
 14 15  2  0  0  0
 14 19  1  0  0  0
 15 16  1  0  0  0
 16 17  2  0  0  0
 17 18  1  0  0  0
 18 19  2  0  0  0
 10  7  1  0  0  0
  7  3  1  0  0  0
  3  4  2  0  0  0
  3  5  1  0  0  0
  1 20  1  0  0  0
 20 21  1  0  0  0
 20 34  1  0  0  0
 21 22  2  0  0  0
 34 35  1  0  0  0
 35 36  1  0  0  0
 35 37  1  0  0  0
 23 25  1  0  0  0
 25 26  1  0  0  0
 25 30  1  0  0  0
 26 27  2  0  0  0
 26 28  1  0  0  0
 30 31  1  0  0  0
 31 32  1  0  0  0
 31 33  1  0  0  0
  8 10  1  0  0  0
  3  1  1  0  0  0
 21 23  1  0  0  0
 10 11  1  0  0  0
  5  6  1  0  0  0
  1  2  1  0  0  0
 23 24  1  0  0  0
 28 29  1  0  0  0
M  END
> <minimizedAffinity>
-8.10732

$$$$
5TMN_0PJ_E_317


 37 37  0  0  0  0  0  0  0  0999 V2000
   49.5199   19.7126  -11.0015 N   0  0  0  0  0  0  0  0  0  0  0  0
   50.3647   19.6536  -11.5700 H   0  0  0  0  0  0  0  0  0  0  0  0
   50.0739   19.9283   -9.4546 P   0  0  0  0  0  0  0  0  0  0  0  0
   51.5449   20.2959   -9.5606 O   0  0  0  0  0  0  0  0  0  0  0  0
   49.2972   21.0472   -8.9279 O   0  0  0  0  0  0  0  0  0  0  0  0
   49.5718   21.2306   -8.0159 H   0  0  0  0  0  0  0  0  0  0  0  0
   49.7135   18.3671   -8.7990 C   0  0  0  0  0  0  0  0  0  0  0  0
   47.7194   17.1628   -8.8027 C   0  0  0  0  0  0  0  0  0  0  0  0
   48.1866   16.0877   -8.5000 O   0  0  0  0  0  0  0  0  0  0  0  0
   48.3410   18.3025   -8.9966 N   0  0  0  0  0  0  0  0  0  0  0  0
   47.8399   19.1016   -9.2788 H   0  0  0  0  0  0  0  0  0  0  0  0
   46.4458   17.3639   -8.9827 O   0  0  0  0  0  0  0  0  0  0  0  0
   45.9165   18.2631  -10.0455 C   0  0  0  0  0  0  0  0  0  0  0  0
   44.3379   18.2600  -10.1127 C   0  0  0  0  0  0  0  0  0  0  0  0
   43.6497   17.2856   -9.4334 C   0  0  0  0  0  0  0  0  0  0  0  0
   42.2561   17.1869   -9.4485 C   0  0  0  0  0  0  0  0  0  0  0  0
   41.5538   18.1110  -10.1298 C   0  0  0  0  0  0  0  0  0  0  0  0
   42.2002   19.1099  -10.7868 C   0  0  0  0  0  0  0  0  0  0  0  0
   43.6019   19.1922  -10.8106 C   0  0  0  0  0  0  0  0  0  0  0  0
   48.6253   20.5600  -11.7663 C   0  0  0  0  0  0  0  0  0  0  0  0
   47.8282   19.8364  -12.8601 C   0  0  0  0  0  0  0  0  0  0  0  0
   47.1344   20.4620  -13.6662 O   0  0  0  0  0  0  0  0  0  0  0  0
   47.9459   18.5322  -12.8791 N   0  0  0  0  0  0  0  0  0  0  0  0
   48.5110   18.1089  -12.1931 H   0  0  0  0  0  0  0  0  0  0  0  0
   47.2880   17.6654  -13.8588 C   0  0  0  0  0  0  0  0  0  0  0  0
   47.7575   17.9385  -15.2667 C   0  0  0  0  0  0  0  0  0  0  0  0
   48.7110   17.2761  -15.7540 O   0  0  0  0  0  0  0  0  0  0  0  0
   47.1633   18.7784  -16.0064 O   0  0  0  0  0  0  0  0  0  0  0  0
   46.4510   19.2823  -15.6647 H   0  0  0  0  0  0  0  0  0  0  0  0
   45.7311   17.5751  -13.6561 C   0  0  0  0  0  0  0  0  0  0  0  0
   45.2160   16.2737  -13.1142 C   0  0  0  0  0  0  0  0  0  0  0  0
   43.7095   16.2702  -13.0768 C   0  0  0  0  0  0  0  0  0  0  0  0
   45.5928   15.1590  -14.0694 C   0  0  0  0  0  0  0  0  0  0  0  0
   49.3429   21.7886  -12.3910 C   0  0  0  0  0  0  0  0  0  0  0  0
   50.6153   21.3878  -13.1288 C   0  0  0  0  0  0  0  0  0  0  0  0
   50.4565   21.7074  -14.6264 C   0  0  0  0  0  0  0  0  0  0  0  0
   51.7805   22.1956  -12.5234 C   0  0  0  0  0  0  0  0  0  0  0  0
  8  9  2  0  0  0
  8 12  1  0  0  0
 12 13  1  0  0  0
 13 14  1  0  0  0
 14 15  2  0  0  0
 14 19  1  0  0  0
 15 16  1  0  0  0
 16 17  2  0  0  0
 17 18  1  0  0  0
 18 19  2  0  0  0
 10  7  1  0  0  0
  7  3  1  0  0  0
  3  4  2  0  0  0
  3  5  1  0  0  0
  1 20  1  0  0  0
 20 21  1  0  0  0
 20 34  1  0  0  0
 21 22  2  0  0  0
 34 35  1  0  0  0
 35 36  1  0  0  0
 35 37  1  0  0  0
 23 25  1  0  0  0
 25 26  1  0  0  0
 25 30  1  0  0  0
 26 27  2  0  0  0
 26 28  1  0  0  0
 30 31  1  0  0  0
 31 32  1  0  0  0
 31 33  1  0  0  0
  8 10  1  0  0  0
  3  1  1  0  0  0
 21 23  1  0  0  0
 10 11  1  0  0  0
  5  6  1  0  0  0
  1  2  1  0  0  0
 23 24  1  0  0  0
 28 29  1  0  0  0
M  END
> <minimizedAffinity>
-8.01554

$$$$
