1XJD_STU_A_200


 37 44  0  0  0  0  0  0  0  0999 V2000
   56.2559    5.3496    2.8500 O   0  0  0  0  0  0  0  0  0  0  0  0
   57.1940    5.4880    3.9588 C   0  0  0  0  0  0  0  0  0  0  0  0
   56.4368    5.0872    5.3348 C   0  0  0  0  0  0  0  0  0  0  0  0
   54.8949    4.6306    5.1151 C   0  0  0  0  0  0  0  0  0  0  0  0
   54.1216    5.7199    4.3028 C   0  0  0  0  0  0  0  0  0  0  0  0
   54.8830    5.8201    2.8245 C   0  0  0  0  0  0  0  0  0  0  0  0
   54.2366    4.7328    1.9361 C   0  0  0  0  0  0  0  0  0  0  0  0
   54.7765    7.3260    2.3595 N   0  0  0  0  0  0  0  0  0  0  0  0
   55.8538    8.2653    2.6615 C   0  0  0  0  0  0  0  0  0  0  0  0
   57.0861    8.1184    3.3762 C   0  0  0  0  0  0  0  0  0  0  0  0
   58.0338    9.2678    3.5637 C   0  0  0  0  0  0  0  0  0  0  0  0
   57.5632   10.6205    2.9203 C   0  0  0  0  0  0  0  0  0  0  0  0
   56.3912   10.7498    2.2573 C   0  0  0  0  0  0  0  0  0  0  0  0
   55.4552    9.5966    2.0576 C   0  0  0  0  0  0  0  0  0  0  0  0
   54.1865    9.4256    1.4504 C   0  0  0  0  0  0  0  0  0  0  0  0
   53.7573    7.9825    1.5714 C   0  0  0  0  0  0  0  0  0  0  0  0
   52.4452    7.5718    1.0142 C   0  0  0  0  0  0  0  0  0  0  0  0
   51.6146    8.4840    0.2894 C   0  0  0  0  0  0  0  0  0  0  0  0
   52.0371    9.9193    0.1285 C   0  0  0  0  0  0  0  0  0  0  0  0
   53.3123   10.3355    0.6905 C   0  0  0  0  0  0  0  0  0  0  0  0
   56.2410   12.1694    1.7659 C   0  0  0  0  0  0  0  0  0  0  0  0
   57.4667   12.7173    2.2724 N   0  0  0  0  0  0  0  0  0  0  0  0
   58.2747   11.9231    2.9351 C   0  0  0  0  0  0  0  0  0  0  0  0
   59.3459   12.2065    3.4277 O   0  0  0  0  0  0  0  0  0  0  0  0
   59.1152    8.8171    4.3252 C   0  0  0  0  0  0  0  0  0  0  0  0
   58.8991    7.3456    4.5838 C   0  0  0  0  0  0  0  0  0  0  0  0
   59.8743    6.5555    5.4022 C   0  0  0  0  0  0  0  0  0  0  0  0
   61.0898    7.2216    5.8664 C   0  0  0  0  0  0  0  0  0  0  0  0
   61.3277    8.6674    5.5843 C   0  0  0  0  0  0  0  0  0  0  0  0
   60.3679    9.4214    4.8124 C   0  0  0  0  0  0  0  0  0  0  0  0
   57.6794    6.9628    4.0608 N   0  0  0  0  0  0  0  0  0  0  0  0
   57.6954   13.6637    2.1267 H   0  0  0  0  0  0  0  0  0  0  0  0
   54.3020    4.3343    6.5602 N   0  0  0  0  0  0  0  0  0  0  0  0
   54.3335    2.8452    6.9087 C   0  0  0  0  0  0  0  0  0  0  0  0
   53.3350    4.6574    6.5901 H   0  0  0  0  0  0  0  0  0  0  0  0
   54.1601    7.0394    5.0273 O   0  0  0  0  0  0  0  0  0  0  0  0
   52.9252    7.7436    5.0245 C   0  0  0  0  0  0  0  0  0  0  0  0
  1  2  1  0  0  0
  1  6  1  0  0  0
  2  3  1  0  0  0
  2 31  1  0  0  0
  3  4  1  0  0  0
  4  5  1  0  0  0
  4 33  1  0  0  0
  5  6  1  0  0  0
  5 36  1  0  0  0
  6  7  1  0  0  0
  6  8  1  0  0  0
  8  9  1  0  0  0
  8 16  1  0  0  0
  9 10  2  0  0  0
  9 14  1  0  0  0
 10 11  1  0  0  0
 10 31  1  0  0  0
 11 12  2  0  0  0
 11 25  1  0  0  0
 12 13  1  0  0  0
 12 23  1  0  0  0
 13 14  2  0  0  0
 13 21  1  0  0  0
 14 15  1  0  0  0
 15 16  2  0  0  0
 15 20  1  0  0  0
 16 17  1  0  0  0
 17 18  2  0  0  0
 18 19  1  0  0  0
 19 20  2  0  0  0
 21 22  1  0  0  0
 22 23  1  0  0  0
 23 24  2  0  0  0
 25 26  2  0  0  0
 25 30  1  0  0  0
 26 27  1  0  0  0
 26 31  1  0  0  0
 27 28  2  0  0  0
 28 29  1  0  0  0
 29 30  2  0  0  0
 36 37  1  0  0  0
 33 34  1  0  0  0
 22 32  1  0  0  0
 33 35  1  0  0  0
M  END
> <minimizedAffinity>
-13.37022

$$$$
1XJD_STU_A_200


 37 44  0  0  0  0  0  0  0  0999 V2000
   55.4226    4.8866    2.5616 O   0  0  0  0  0  0  0  0  0  0  0  0
   55.7860    4.1216    3.7496 C   0  0  0  0  0  0  0  0  0  0  0  0
   54.4942    4.0281    4.7242 C   0  0  0  0  0  0  0  0  0  0  0  0
   53.1780    4.7657    4.1259 C   0  0  0  0  0  0  0  0  0  0  0  0
   53.5207    6.2381    3.7274 C   0  0  0  0  0  0  0  0  0  0  0  0
   54.6835    6.1357    2.5389 C   0  0  0  0  0  0  0  0  0  0  0  0
   53.9186    5.9779    1.2050 C   0  0  0  0  0  0  0  0  0  0  0  0
   55.6263    7.3907    2.7160 N   0  0  0  0  0  0  0  0  0  0  0  0
   56.8415    7.2880    3.5201 C   0  0  0  0  0  0  0  0  0  0  0  0
   57.4061    6.2114    4.2772 C   0  0  0  0  0  0  0  0  0  0  0  0
   58.6864    6.3705    5.0452 C   0  0  0  0  0  0  0  0  0  0  0  0
   59.3393    7.7951    4.9484 C   0  0  0  0  0  0  0  0  0  0  0  0
   58.7903    8.8079    4.2393 C   0  0  0  0  0  0  0  0  0  0  0  0
   57.5211    8.6410    3.4603 C   0  0  0  0  0  0  0  0  0  0  0  0
   56.7106    9.4894    2.6661 C   0  0  0  0  0  0  0  0  0  0  0  0
   55.5339    8.7090    2.1294 C   0  0  0  0  0  0  0  0  0  0  0  0
   54.5376    9.4029    1.2769 C   0  0  0  0  0  0  0  0  0  0  0  0
   54.7057   10.7666    0.8775 C   0  0  0  0  0  0  0  0  0  0  0  0
   55.8876   11.5546    1.3740 C   0  0  0  0  0  0  0  0  0  0  0  0
   56.8580   10.8880    2.2280 C   0  0  0  0  0  0  0  0  0  0  0  0
   59.6619   10.0355    4.3513 C   0  0  0  0  0  0  0  0  0  0  0  0
   60.6905    9.5085    5.2018 N   0  0  0  0  0  0  0  0  0  0  0  0
   60.5952    8.2583    5.5899 C   0  0  0  0  0  0  0  0  0  0  0  0
   61.3654    7.6462    6.2988 O   0  0  0  0  0  0  0  0  0  0  0  0
   58.9507    5.1648    5.7002 C   0  0  0  0  0  0  0  0  0  0  0  0
   57.8649    4.1930    5.3059 C   0  0  0  0  0  0  0  0  0  0  0  0
   57.8382    2.8009    5.8595 C   0  0  0  0  0  0  0  0  0  0  0  0
   58.9416    2.3749    6.7183 C   0  0  0  0  0  0  0  0  0  0  0  0
   60.0376    3.3191    7.0840 C   0  0  0  0  0  0  0  0  0  0  0  0
   60.0382    4.6648    6.5599 C   0  0  0  0  0  0  0  0  0  0  0  0
   56.9400    4.8383    4.5084 N   0  0  0  0  0  0  0  0  0  0  0  0
   61.4476   10.0698    5.4866 H   0  0  0  0  0  0  0  0  0  0  0  0
   52.0412    4.6236    5.2282 N   0  0  0  0  0  0  0  0  0  0  0  0
   50.9643    3.6137    4.8276 C   0  0  0  0  0  0  0  0  0  0  0  0
   51.6020    5.5339    5.3652 H   0  0  0  0  0  0  0  0  0  0  0  0
   54.0278    6.9999    4.9232 O   0  0  0  0  0  0  0  0  0  0  0  0
   53.2702    8.1601    5.2409 C   0  0  0  0  0  0  0  0  0  0  0  0
  1  2  1  0  0  0
  1  6  1  0  0  0
  2  3  1  0  0  0
  2 31  1  0  0  0
  3  4  1  0  0  0
  4  5  1  0  0  0
  4 33  1  0  0  0
  5  6  1  0  0  0
  5 36  1  0  0  0
  6  7  1  0  0  0
  6  8  1  0  0  0
  8  9  1  0  0  0
  8 16  1  0  0  0
  9 10  2  0  0  0
  9 14  1  0  0  0
 10 11  1  0  0  0
 10 31  1  0  0  0
 11 12  2  0  0  0
 11 25  1  0  0  0
 12 13  1  0  0  0
 12 23  1  0  0  0
 13 14  2  0  0  0
 13 21  1  0  0  0
 14 15  1  0  0  0
 15 16  2  0  0  0
 15 20  1  0  0  0
 16 17  1  0  0  0
 17 18  2  0  0  0
 18 19  1  0  0  0
 19 20  2  0  0  0
 21 22  1  0  0  0
 22 23  1  0  0  0
 23 24  2  0  0  0
 25 26  2  0  0  0
 25 30  1  0  0  0
 26 27  1  0  0  0
 26 31  1  0  0  0
 27 28  2  0  0  0
 28 29  1  0  0  0
 29 30  2  0  0  0
 36 37  1  0  0  0
 33 34  1  0  0  0
 22 32  1  0  0  0
 33 35  1  0  0  0
M  END
> <minimizedAffinity>
-11.73180

$$$$
