4WHS_3N8_A_301


 11 11  0  0  0  0  0  0  0  0999 V2000
  -16.4291  -52.4472  -32.5511 C   0  0  0  0  0  0  0  0  0  0  0  0
  -15.3609  -51.6201  -32.8849 C   0  0  0  0  0  0  0  0  0  0  0  0
  -15.4763  -50.7425  -33.9598 C   0  0  0  0  0  0  0  0  0  0  0  0
  -16.6635  -50.6941  -34.7027 C   0  0  0  0  0  0  0  0  0  0  0  0
  -17.7349  -51.5048  -34.3552 C   0  0  0  0  0  0  0  0  0  0  0  0
  -17.6127  -52.3892  -33.2909 C   0  0  0  0  0  0  0  0  0  0  0  0
  -16.2697  -53.3035  -31.5026 O   0  0  0  0  0  0  0  0  0  0  0  0
  -14.2002  -51.6642  -32.1643 O   0  0  0  0  0  0  0  0  0  0  0  0
  -16.7799  -49.8427  -35.7363 F   0  0  0  0  0  0  0  0  0  0  0  0
  -16.9700  -53.8736  -31.2527 H   0  0  0  0  0  0  0  0  0  0  0  0
  -14.1202  -52.2540  -31.4406 H   0  0  0  0  0  0  0  0  0  0  0  0
  7  1  1  0  0  0
  1  6  2  0  0  0
  1  2  1  0  0  0
  8  2  1  0  0  0
  6  5  1  0  0  0
  2  3  2  0  0  0
  5  4  2  0  0  0
  3  4  1  0  0  0
  4  9  1  0  0  0
  7 10  1  0  0  0
  8 11  1  0  0  0
M  END
> <minimizedAffinity>
-4.68555

$$$$
4WHS_3N8_A_301


 11 11  0  0  0  0  0  0  0  0999 V2000
  -16.0997  -51.1809  -33.8813 C   0  0  0  0  0  0  0  0  0  0  0  0
  -17.4758  -51.2619  -33.6908 C   0  0  0  0  0  0  0  0  0  0  0  0
  -18.3366  -50.6664  -34.6092 C   0  0  0  0  0  0  0  0  0  0  0  0
  -17.8179  -49.9872  -35.7198 C   0  0  0  0  0  0  0  0  0  0  0  0
  -16.4459  -49.9255  -35.9189 C   0  0  0  0  0  0  0  0  0  0  0  0
  -15.5888  -50.5088  -34.9943 C   0  0  0  0  0  0  0  0  0  0  0  0
  -15.2914  -51.7629  -32.9507 O   0  0  0  0  0  0  0  0  0  0  0  0
  -17.9868  -51.9222  -32.6086 O   0  0  0  0  0  0  0  0  0  0  0  0
  -18.6470  -49.4176  -36.6115 F   0  0  0  0  0  0  0  0  0  0  0  0
  -14.3604  -51.7259  -33.0500 H   0  0  0  0  0  0  0  0  0  0  0  0
  -17.4096  -52.3237  -31.9893 H   0  0  0  0  0  0  0  0  0  0  0  0
  7  1  1  0  0  0
  1  6  2  0  0  0
  1  2  1  0  0  0
  8  2  1  0  0  0
  6  5  1  0  0  0
  2  3  2  0  0  0
  5  4  2  0  0  0
  3  4  1  0  0  0
  4  9  1  0  0  0
  7 10  1  0  0  0
  8 11  1  0  0  0
M  END
> <minimizedAffinity>
-4.67752

$$$$
4WHS_3N8_A_301


 11 11  0  0  0  0  0  0  0  0999 V2000
  -19.1371  -50.3790  -34.4186 C   0  0  0  0  0  0  0  0  0  0  0  0
  -18.1855  -51.0311  -33.6404 C   0  0  0  0  0  0  0  0  0  0  0  0
  -16.8601  -51.0779  -34.0649 C   0  0  0  0  0  0  0  0  0  0  0  0
  -16.4874  -50.4713  -35.2719 C   0  0  0  0  0  0  0  0  0  0  0  0
  -17.4340  -49.8036  -36.0360 C   0  0  0  0  0  0  0  0  0  0  0  0
  -18.7581  -49.7698  -35.6173 C   0  0  0  0  0  0  0  0  0  0  0  0
  -20.4262  -50.3702  -33.9759 O   0  0  0  0  0  0  0  0  0  0  0  0
  -18.5441  -51.6255  -32.4628 O   0  0  0  0  0  0  0  0  0  0  0  0
  -15.2073  -50.5089  -35.6802 F   0  0  0  0  0  0  0  0  0  0  0  0
  -21.0907  -49.9396  -34.4769 H   0  0  0  0  0  0  0  0  0  0  0  0
  -19.4353  -51.5953  -32.1751 H   0  0  0  0  0  0  0  0  0  0  0  0
  7  1  1  0  0  0
  1  6  2  0  0  0
  1  2  1  0  0  0
  8  2  1  0  0  0
  6  5  1  0  0  0
  2  3  2  0  0  0
  5  4  2  0  0  0
  3  4  1  0  0  0
  4  9  1  0  0  0
  7 10  1  0  0  0
  8 11  1  0  0  0
M  END
> <minimizedAffinity>
-4.46154

$$$$
4WHS_3N8_A_301


 11 11  0  0  0  0  0  0  0  0999 V2000
  -18.0351  -51.9315  -36.8360 C   0  0  0  0  0  0  0  0  0  0  0  0
  -16.7278  -52.1853  -36.4322 C   0  0  0  0  0  0  0  0  0  0  0  0
  -15.9501  -51.1505  -35.9192 C   0  0  0  0  0  0  0  0  0  0  0  0
  -16.4823  -49.8586  -35.8117 C   0  0  0  0  0  0  0  0  0  0  0  0
  -17.7930  -49.6123  -36.1956 C   0  0  0  0  0  0  0  0  0  0  0  0
  -18.5626  -50.6433  -36.7196 C   0  0  0  0  0  0  0  0  0  0  0  0
  -18.7573  -52.9680  -37.3479 O   0  0  0  0  0  0  0  0  0  0  0  0
  -16.2034  -53.4433  -36.5360 O   0  0  0  0  0  0  0  0  0  0  0  0
  -15.7359  -48.8595  -35.3102 F   0  0  0  0  0  0  0  0  0  0  0  0
  -19.6405  -52.8300  -37.6290 H   0  0  0  0  0  0  0  0  0  0  0  0
  -16.7249  -54.1413  -36.8809 H   0  0  0  0  0  0  0  0  0  0  0  0
  7  1  1  0  0  0
  1  6  2  0  0  0
  1  2  1  0  0  0
  8  2  1  0  0  0
  6  5  1  0  0  0
  2  3  2  0  0  0
  5  4  2  0  0  0
  3  4  1  0  0  0
  4  9  1  0  0  0
  7 10  1  0  0  0
  8 11  1  0  0  0
M  END
> <minimizedAffinity>
-4.45859

$$$$
4WHS_3N8_A_301


 11 11  0  0  0  0  0  0  0  0999 V2000
  -17.6325  -51.3515  -33.4995 C   0  0  0  0  0  0  0  0  0  0  0  0
  -16.5947  -50.9690  -34.3440 C   0  0  0  0  0  0  0  0  0  0  0  0
  -16.8732  -50.2249  -35.4875 C   0  0  0  0  0  0  0  0  0  0  0  0
  -18.1940  -49.8644  -35.7865 C   0  0  0  0  0  0  0  0  0  0  0  0
  -19.2249  -50.2291  -34.9320 C   0  0  0  0  0  0  0  0  0  0  0  0
  -18.9462  -50.9829  -33.7989 C   0  0  0  0  0  0  0  0  0  0  0  0
  -17.3195  -52.0931  -32.3994 O   0  0  0  0  0  0  0  0  0  0  0  0
  -15.3048  -51.3191  -34.0576 O   0  0  0  0  0  0  0  0  0  0  0  0
  -18.4645  -49.1401  -36.8860 F   0  0  0  0  0  0  0  0  0  0  0  0
  -17.9955  -52.3666  -31.8109 H   0  0  0  0  0  0  0  0  0  0  0  0
  -15.1150  -51.8198  -33.2886 H   0  0  0  0  0  0  0  0  0  0  0  0
  7  1  1  0  0  0
  1  6  2  0  0  0
  1  2  1  0  0  0
  8  2  1  0  0  0
  6  5  1  0  0  0
  2  3  2  0  0  0
  5  4  2  0  0  0
  3  4  1  0  0  0
  4  9  1  0  0  0
  7 10  1  0  0  0
  8 11  1  0  0  0
M  END
> <minimizedAffinity>
-4.43881

$$$$
4WHS_3N8_A_301


 11 11  0  0  0  0  0  0  0  0999 V2000
  -18.2314  -50.7514  -38.1370 C   0  0  0  0  0  0  0  0  0  0  0  0
  -16.9308  -51.2349  -38.0311 C   0  0  0  0  0  0  0  0  0  0  0  0
  -16.1557  -50.8957  -36.9251 C   0  0  0  0  0  0  0  0  0  0  0  0
  -16.6838  -50.0696  -35.9239 C   0  0  0  0  0  0  0  0  0  0  0  0
  -17.9881  -49.6057  -36.0214 C   0  0  0  0  0  0  0  0  0  0  0  0
  -18.7549  -49.9343  -37.1321 C   0  0  0  0  0  0  0  0  0  0  0  0
  -18.9510  -51.0932  -39.2430 O   0  0  0  0  0  0  0  0  0  0  0  0
  -16.4104  -52.0400  -39.0054 O   0  0  0  0  0  0  0  0  0  0  0  0
  -15.9400  -49.7467  -34.8519 F   0  0  0  0  0  0  0  0  0  0  0  0
  -19.8297  -50.7838  -39.3443 H   0  0  0  0  0  0  0  0  0  0  0  0
  -16.9301  -52.2695  -39.7506 H   0  0  0  0  0  0  0  0  0  0  0  0
  7  1  1  0  0  0
  1  6  2  0  0  0
  1  2  1  0  0  0
  8  2  1  0  0  0
  6  5  1  0  0  0
  2  3  2  0  0  0
  5  4  2  0  0  0
  3  4  1  0  0  0
  4  9  1  0  0  0
  7 10  1  0  0  0
  8 11  1  0  0  0
M  END
> <minimizedAffinity>
-4.40917

$$$$
4WHS_3N8_A_301


 11 11  0  0  0  0  0  0  0  0999 V2000
  -16.3406  -51.0261  -35.5672 C   0  0  0  0  0  0  0  0  0  0  0  0
  -16.7207  -52.0034  -36.4820 C   0  0  0  0  0  0  0  0  0  0  0  0
  -17.7339  -51.7349  -37.3986 C   0  0  0  0  0  0  0  0  0  0  0  0
  -18.3686  -50.4855  -37.3981 C   0  0  0  0  0  0  0  0  0  0  0  0
  -17.9737  -49.5053  -36.4987 C   0  0  0  0  0  0  0  0  0  0  0  0
  -16.9719  -49.7800  -35.5763 C   0  0  0  0  0  0  0  0  0  0  0  0
  -15.3562  -51.3346  -34.6761 O   0  0  0  0  0  0  0  0  0  0  0  0
  -16.1057  -53.2241  -36.4860 O   0  0  0  0  0  0  0  0  0  0  0  0
  -19.3420  -50.2215  -38.2866 F   0  0  0  0  0  0  0  0  0  0  0  0
  -15.0775  -50.6984  -34.0472 H   0  0  0  0  0  0  0  0  0  0  0  0
  -15.4236  -53.4071  -35.8701 H   0  0  0  0  0  0  0  0  0  0  0  0
  7  1  1  0  0  0
  1  6  2  0  0  0
  1  2  1  0  0  0
  8  2  1  0  0  0
  6  5  1  0  0  0
  2  3  2  0  0  0
  5  4  2  0  0  0
  3  4  1  0  0  0
  4  9  1  0  0  0
  7 10  1  0  0  0
  8 11  1  0  0  0
M  END
> <minimizedAffinity>
-4.38908

$$$$
4WHS_3N8_A_301


 11 11  0  0  0  0  0  0  0  0999 V2000
  -16.9699  -51.1814  -37.1777 C   0  0  0  0  0  0  0  0  0  0  0  0
  -16.7614  -52.1990  -36.2516 C   0  0  0  0  0  0  0  0  0  0  0  0
  -17.2550  -52.0660  -34.9563 C   0  0  0  0  0  0  0  0  0  0  0  0
  -17.9575  -50.9109  -34.5875 C   0  0  0  0  0  0  0  0  0  0  0  0
  -18.1823  -49.9067  -35.5186 C   0  0  0  0  0  0  0  0  0  0  0  0
  -17.6774  -50.0356  -36.8063 C   0  0  0  0  0  0  0  0  0  0  0  0
  -16.4563  -51.3433  -38.4299 O   0  0  0  0  0  0  0  0  0  0  0  0
  -16.0757  -53.3271  -36.6058 O   0  0  0  0  0  0  0  0  0  0  0  0
  -18.4411  -50.7833  -33.3399 F   0  0  0  0  0  0  0  0  0  0  0  0
  -16.5793  -50.6765  -39.0765 H   0  0  0  0  0  0  0  0  0  0  0  0
  -15.7426  -53.4188  -37.4768 H   0  0  0  0  0  0  0  0  0  0  0  0
  7  1  1  0  0  0
  1  6  2  0  0  0
  1  2  1  0  0  0
  8  2  1  0  0  0
  6  5  1  0  0  0
  2  3  2  0  0  0
  5  4  2  0  0  0
  3  4  1  0  0  0
  4  9  1  0  0  0
  7 10  1  0  0  0
  8 11  1  0  0  0
M  END
> <minimizedAffinity>
-4.35418

$$$$
4WHS_3N8_A_301


 11 11  0  0  0  0  0  0  0  0999 V2000
  -17.7288  -49.9487  -35.5304 C   0  0  0  0  0  0  0  0  0  0  0  0
  -18.4963  -50.4812  -34.4989 C   0  0  0  0  0  0  0  0  0  0  0  0
  -17.8982  -51.3004  -33.5449 C   0  0  0  0  0  0  0  0  0  0  0  0
  -16.5290  -51.5878  -33.6249 C   0  0  0  0  0  0  0  0  0  0  0  0
  -15.7614  -51.0389  -34.6424 C   0  0  0  0  0  0  0  0  0  0  0  0
  -16.3629  -50.2328  -35.6007 C   0  0  0  0  0  0  0  0  0  0  0  0
  -18.3556  -49.1652  -36.4531 O   0  0  0  0  0  0  0  0  0  0  0  0
  -19.8324  -50.2049  -34.4170 O   0  0  0  0  0  0  0  0  0  0  0  0
  -15.9480  -52.3725  -32.7010 F   0  0  0  0  0  0  0  0  0  0  0  0
  -17.8669  -48.7916  -37.1599 H   0  0  0  0  0  0  0  0  0  0  0  0
  -20.2371  -49.6539  -35.0578 H   0  0  0  0  0  0  0  0  0  0  0  0
  7  1  1  0  0  0
  1  6  2  0  0  0
  1  2  1  0  0  0
  8  2  1  0  0  0
  6  5  1  0  0  0
  2  3  2  0  0  0
  5  4  2  0  0  0
  3  4  1  0  0  0
  4  9  1  0  0  0
  7 10  1  0  0  0
  8 11  1  0  0  0
M  END
> <minimizedAffinity>
-4.33525

$$$$
4WHS_3N8_A_301


 11 11  0  0  0  0  0  0  0  0999 V2000
  -17.9613  -51.3315  -33.4955 C   0  0  0  0  0  0  0  0  0  0  0  0
  -18.6262  -50.5451  -34.4315 C   0  0  0  0  0  0  0  0  0  0  0  0
  -18.0206  -50.2654  -35.6538 C   0  0  0  0  0  0  0  0  0  0  0  0
  -16.7460  -50.7734  -35.9387 C   0  0  0  0  0  0  0  0  0  0  0  0
  -16.0936  -51.5746  -35.0123 C   0  0  0  0  0  0  0  0  0  0  0  0
  -16.6940  -51.8411  -33.7882 C   0  0  0  0  0  0  0  0  0  0  0  0
  -18.5815  -51.5680  -32.3050 O   0  0  0  0  0  0  0  0  0  0  0  0
  -19.8690  -50.0461  -34.1581 O   0  0  0  0  0  0  0  0  0  0  0  0
  -16.1624  -50.5108  -37.1207 F   0  0  0  0  0  0  0  0  0  0  0  0
  -18.1604  -52.0936  -31.6536 H   0  0  0  0  0  0  0  0  0  0  0  0
  -20.2785  -50.2329  -33.3362 H   0  0  0  0  0  0  0  0  0  0  0  0
  7  1  1  0  0  0
  1  6  2  0  0  0
  1  2  1  0  0  0
  8  2  1  0  0  0
  6  5  1  0  0  0
  2  3  2  0  0  0
  5  4  2  0  0  0
  3  4  1  0  0  0
  4  9  1  0  0  0
  7 10  1  0  0  0
  8 11  1  0  0  0
M  END
> <minimizedAffinity>
-4.28682

$$$$
