2F6T_1C2_A_608


 29 30  0  0  0  0  0  0  0  0999 V2000
  -10.4445   47.1555   49.1992 C   0  0  0  0  0  0  0  0  0  0  0  0
   -9.6531   46.4285   50.0927 C   0  0  0  0  0  0  0  0  0  0  0  0
  -11.8312   46.9647   49.2181 C   0  0  0  0  0  0  0  0  0  0  0  0
  -12.4441   46.0564   50.0896 C   0  0  0  0  0  0  0  0  0  0  0  0
  -13.9479   45.8611   50.0909 C   0  0  0  0  0  0  0  0  0  0  0  0
  -14.4710   45.2902   51.3482 N   0  0  0  0  0  0  0  0  0  0  0  0
  -15.7705   45.0351   51.4724 C   0  0  0  0  0  0  0  0  0  0  0  0
  -16.3324   44.5621   52.4505 O   0  0  0  0  0  0  0  0  0  0  0  0
  -13.5770   44.9878   52.4598 C   0  0  0  0  0  0  0  0  0  0  0  0
  -12.2994   44.3589   51.8954 C   0  0  0  0  0  0  0  0  0  0  0  0
  -11.6432   45.3373   50.9519 C   0  0  0  0  0  0  0  0  0  0  0  0
  -10.2579   45.5093   50.9642 C   0  0  0  0  0  0  0  0  0  0  0  0
  -13.3612   46.1868   53.3378 C   0  0  0  0  0  0  0  0  0  0  0  0
  -13.9591   47.2268   53.1338 O   0  0  0  0  0  0  0  0  0  0  0  0
  -12.4934   46.0711   54.3370 N   0  0  0  0  0  0  0  0  0  0  0  0
  -12.2364   47.1992   55.2259 C   0  0  0  0  0  0  0  0  0  0  0  0
  -12.0209   45.2191   54.4785 H   0  0  0  0  0  0  0  0  0  0  0  0
   -9.8693   48.0705   48.3572 N   0  0  0  0  0  0  0  0  0  0  0  0
   -9.9040   49.0259   48.5922 H   0  0  0  0  0  0  0  0  0  0  0  0
  -10.1425   46.8561   46.2377 O   0  0  0  0  0  0  0  0  0  0  0  0
   -9.1313   47.6213   46.9812 S   0  0  0  0  0  0  0  0  0  0  0  0
   -8.0100   46.7548   47.3397 O   0  0  0  0  0  0  0  0  0  0  0  0
   -8.7601   48.9069   46.3432 O   0  0  0  0  0  0  0  0  0  0  0  0
   -9.7654   46.5541   45.3965 H   0  0  0  0  0  0  0  0  0  0  0  0
  -16.5130   45.3850   50.2896 O   0  0  0  0  0  0  0  0  0  0  0  0
  -17.7385   46.1226   50.1696 C   0  0  0  0  0  0  0  0  0  0  0  0
  -17.9630   46.3632   48.6783 C   0  0  0  0  0  0  0  0  0  0  0  0
  -17.6357   47.4439   50.9222 C   0  0  0  0  0  0  0  0  0  0  0  0
  -18.8621   45.2386   50.6842 C   0  0  0  0  0  0  0  0  0  0  0  0
 20 21  1  0  0  0
 21 22  2  0  0  0
 21 23  2  0  0  0
 21 18  1  0  0  0
 18  1  1  0  0  0
  1  2  1  0  0  0
  1  3  2  0  0  0
  2 12  2  0  0  0
  3  4  1  0  0  0
  4  5  1  0  0  0
  4 11  2  0  0  0
  5  6  1  0  0  0
  6  7  1  0  0  0
  6  9  1  0  0  0
  7  8  2  0  0  0
  7 25  1  0  0  0
 25 26  1  0  0  0
 26 27  1  0  0  0
 26 28  1  0  0  0
 26 29  1  0  0  0
  9 13  1  0  0  0
  9 10  1  0  0  0
 13 14  2  0  0  0
 13 15  1  0  0  0
 15 16  1  0  0  0
 10 11  1  0  0  0
 11 12  1  0  0  0
 20 24  1  0  0  0
 18 19  1  0  0  0
 15 17  1  0  0  0
M  END
> <minimizedAffinity>
-9.21251

$$$$
2F6T_1C2_A_608


 29 30  0  0  0  0  0  0  0  0999 V2000
  -12.2050   46.5900   49.6125 C   0  0  0  0  0  0  0  0  0  0  0  0
  -11.1190   45.9303   50.1944 C   0  0  0  0  0  0  0  0  0  0  0  0
  -13.4935   46.3125   50.0841 C   0  0  0  0  0  0  0  0  0  0  0  0
  -13.7266   45.3830   51.1048 C   0  0  0  0  0  0  0  0  0  0  0  0
  -15.1310   45.0933   51.5983 C   0  0  0  0  0  0  0  0  0  0  0  0
  -15.1752   44.5131   52.9553 N   0  0  0  0  0  0  0  0  0  0  0  0
  -16.3428   44.1788   53.4976 C   0  0  0  0  0  0  0  0  0  0  0  0
  -16.5214   43.6888   54.6040 O   0  0  0  0  0  0  0  0  0  0  0  0
  -13.9488   44.2874   53.7113 C   0  0  0  0  0  0  0  0  0  0  0  0
  -12.8881   43.7304   52.7568 C   0  0  0  0  0  0  0  0  0  0  0  0
  -12.6424   44.7313   51.6542 C   0  0  0  0  0  0  0  0  0  0  0  0
  -11.3437   44.9905   51.2124 C   0  0  0  0  0  0  0  0  0  0  0  0
  -13.5364   45.5131   54.4746 C   0  0  0  0  0  0  0  0  0  0  0  0
  -14.2328   46.5109   54.4785 O   0  0  0  0  0  0  0  0  0  0  0  0
  -12.3861   45.4685   55.1376 N   0  0  0  0  0  0  0  0  0  0  0  0
  -11.9267   46.6261   55.8978 C   0  0  0  0  0  0  0  0  0  0  0  0
  -11.8402   44.6495   55.1158 H   0  0  0  0  0  0  0  0  0  0  0  0
  -11.9982   47.5244   48.6320 N   0  0  0  0  0  0  0  0  0  0  0  0
  -12.7757   47.9607   48.2145 H   0  0  0  0  0  0  0  0  0  0  0  0
   -9.6118   47.4872   49.2197 O   0  0  0  0  0  0  0  0  0  0  0  0
  -10.5043   47.9316   48.1397 S   0  0  0  0  0  0  0  0  0  0  0  0
  -10.4573   49.3875   48.0173 O   0  0  0  0  0  0  0  0  0  0  0  0
  -10.3338   47.1832   46.8715 O   0  0  0  0  0  0  0  0  0  0  0  0
   -8.6941   47.7012   48.9895 H   0  0  0  0  0  0  0  0  0  0  0  0
  -17.4528   44.4600   52.6248 O   0  0  0  0  0  0  0  0  0  0  0  0
  -18.5711   45.3365   52.8286 C   0  0  0  0  0  0  0  0  0  0  0  0
  -18.0498   46.5405   53.6100 C   0  0  0  0  0  0  0  0  0  0  0  0
  -19.6690   44.6200   53.6060 C   0  0  0  0  0  0  0  0  0  0  0  0
  -19.0352   45.8182   51.4643 C   0  0  0  0  0  0  0  0  0  0  0  0
 20 21  1  0  0  0
 21 22  2  0  0  0
 21 23  2  0  0  0
 21 18  1  0  0  0
 18  1  1  0  0  0
  1  2  1  0  0  0
  1  3  2  0  0  0
  2 12  2  0  0  0
  3  4  1  0  0  0
  4  5  1  0  0  0
  4 11  2  0  0  0
  5  6  1  0  0  0
  6  7  1  0  0  0
  6  9  1  0  0  0
  7  8  2  0  0  0
  7 25  1  0  0  0
 25 26  1  0  0  0
 26 27  1  0  0  0
 26 28  1  0  0  0
 26 29  1  0  0  0
  9 13  1  0  0  0
  9 10  1  0  0  0
 13 14  2  0  0  0
 13 15  1  0  0  0
 15 16  1  0  0  0
 10 11  1  0  0  0
 11 12  1  0  0  0
 20 24  1  0  0  0
 18 19  1  0  0  0
 15 17  1  0  0  0
M  END
> <minimizedAffinity>
-6.26589

$$$$
