4V01_0LI_A_1776


 40 44  0  0  0  0  0  0  0  0999 V2000
   88.0359    1.4813   17.6932 C   0  0  0  0  0  0  0  0  0  0  0  0
   86.9087    1.0466   17.5182 O   0  0  0  0  0  0  0  0  0  0  0  0
   88.7023    1.5162   18.9014 N   0  0  0  0  0  0  0  0  0  0  0  0
   89.5751    1.9694   18.9473 H   0  0  0  0  0  0  0  0  0  0  0  0
   88.9161    2.1484   14.1366 C   0  0  0  0  0  0  0  0  0  0  0  0
   90.0886    2.8691   14.2683 C   0  0  0  0  0  0  0  0  0  0  0  0
   90.5904    3.1552   15.5189 C   0  0  0  0  0  0  0  0  0  0  0  0
   89.9406    2.7132   16.6539 C   0  0  0  0  0  0  0  0  0  0  0  0
   88.2692    1.7051   15.2715 C   0  0  0  0  0  0  0  0  0  0  0  0
   88.7775    1.9867   16.5197 C   0  0  0  0  0  0  0  0  0  0  0  0
   90.8054    3.3269   13.0528 C   0  0  0  0  0  0  0  0  0  0  0  0
   88.3824    1.8012   12.8458 C   0  0  0  0  0  0  0  0  0  0  0  0
   87.9454    1.4186   11.7871 C   0  0  0  0  0  0  0  0  0  0  0  0
   87.0543   -0.5571    8.8511 N   0  0  0  0  0  0  0  0  0  0  0  0
   85.3044    0.8175    7.7786 C   0  0  0  0  0  0  0  0  0  0  0  0
   84.6100    1.9559    7.8583 C   0  0  0  0  0  0  0  0  0  0  0  0
   84.9420    2.8067    9.0210 C   0  0  0  0  0  0  0  0  0  0  0  0
   85.8185    2.5523    9.9397 N   0  0  0  0  0  0  0  0  0  0  0  0
   86.4592    1.3762    9.7559 N   0  0  0  0  0  0  0  0  0  0  0  0
   86.2651    0.4905    8.7401 C   0  0  0  0  0  0  0  0  0  0  0  0
   87.7775   -0.3354    9.9957 C   0  0  0  0  0  0  0  0  0  0  0  0
   87.4313    0.8625   10.5697 C   0  0  0  0  0  0  0  0  0  0  0  0
   88.1828    0.9293   20.0702 C   0  0  0  0  0  0  0  0  0  0  0  0
   87.4696    1.2013   22.3390 C   0  0  0  0  0  0  0  0  0  0  0  0
   87.3636   -0.9501   21.3207 C   0  0  0  0  0  0  0  0  0  0  0  0
   87.9755    1.7349   21.1718 C   0  0  0  0  0  0  0  0  0  0  0  0
   87.1596   -0.1427   22.4266 C   0  0  0  0  0  0  0  0  0  0  0  0
   87.8745   -0.4124   20.1560 C   0  0  0  0  0  0  0  0  0  0  0  0
   87.0521   -2.4076   21.3705 C   0  0  0  0  0  0  0  0  0  0  0  0
   87.5160   -3.0435   20.2709 F   0  0  0  0  0  0  0  0  0  0  0  0
   87.5524   -3.0470   22.4481 F   0  0  0  0  0  0  0  0  0  0  0  0
   85.7386   -2.7210   21.4053 F   0  0  0  0  0  0  0  0  0  0  0  0
   86.6172   -0.6870   23.7110 C   0  0  0  0  0  0  0  0  0  0  0  0
   86.2515    0.3161   24.7448 N   0  0  0  0  0  0  0  0  0  0  0  0
   84.9717    1.0105   24.4795 C   0  0  0  0  0  0  0  0  0  0  0  0
   84.9628    2.2296   25.3737 C   0  0  0  0  0  0  0  0  0  0  0  0
   86.3260   -0.2007   26.1431 C   0  0  0  0  0  0  0  0  0  0  0  0
   86.1295    0.9203   27.1569 C   0  0  0  0  0  0  0  0  0  0  0  0
   84.6172    2.7951   27.7386 C   0  0  0  0  0  0  0  0  0  0  0  0
   84.9385    1.7190   26.7751 N   0  0  0  0  0  0  0  0  0  0  0  0
 14 20  2  0  0  0
 14 21  1  0  0  0
 34 33  1  0  0  0
 34 35  1  0  0  0
 34 37  1  0  0  0
 12  5  1  0  0  0
 12 13  3  0  0  0
  5  6  2  0  0  0
  5  9  1  0  0  0
  6  7  1  0  0  0
  6 11  1  0  0  0
  7  8  2  0  0  0
  8 10  1  0  0  0
  9 10  2  0  0  0
 23  3  1  0  0  0
 23 26  2  0  0  0
 23 28  1  0  0  0
 24 26  1  0  0  0
 24 27  2  0  0  0
 25 27  1  0  0  0
 25 28  2  0  0  0
 25 29  1  0  0  0
 33 27  1  0  0  0
 35 36  1  0  0  0
 36 40  1  0  0  0
 37 38  1  0  0  0
 15 16  2  0  0  0
 15 20  1  0  0  0
 16 17  1  0  0  0
 17 18  2  0  0  0
 18 19  1  0  0  0
 19 20  1  0  0  0
 19 22  1  0  0  0
 21 22  2  0  0  0
 22 13  1  0  0  0
 10  1  1  0  0  0
  1  2  2  0  0  0
  1  3  1  0  0  0
 29 30  1  0  0  0
 29 31  1  0  0  0
 29 32  1  0  0  0
 38 40  1  0  0  0
 39 40  1  0  0  0
  3  4  1  0  0  0
M  END
> <minimizedAffinity>
-12.93483

$$$$
4V01_0LI_A_1776


 40 44  0  0  0  0  0  0  0  0999 V2000
   87.8515    1.2708   12.5601 C   0  0  0  0  0  0  0  0  0  0  0  0
   87.4897    0.1055   12.5968 O   0  0  0  0  0  0  0  0  0  0  0  0
   87.5320    2.1779   11.5701 N   0  0  0  0  0  0  0  0  0  0  0  0
   87.9497    3.0691   11.5923 H   0  0  0  0  0  0  0  0  0  0  0  0
   89.0207    1.8891   16.0414 C   0  0  0  0  0  0  0  0  0  0  0  0
   90.1282    2.6886   15.8275 C   0  0  0  0  0  0  0  0  0  0  0  0
   90.5092    3.0175   14.5452 C   0  0  0  0  0  0  0  0  0  0  0  0
   89.7829    2.5688   13.4603 C   0  0  0  0  0  0  0  0  0  0  0  0
   88.2944    1.4435   14.9566 C   0  0  0  0  0  0  0  0  0  0  0  0
   88.6739    1.7803   13.6767 C   0  0  0  0  0  0  0  0  0  0  0  0
   90.8998    3.1944   16.9893 C   0  0  0  0  0  0  0  0  0  0  0  0
   88.5737    1.5551   17.3682 C   0  0  0  0  0  0  0  0  0  0  0  0
   88.2882    1.2879   18.5107 C   0  0  0  0  0  0  0  0  0  0  0  0
   87.7526    1.2592   22.1203 N   0  0  0  0  0  0  0  0  0  0  0  0
   87.2096   -1.1077   22.5729 C   0  0  0  0  0  0  0  0  0  0  0  0
   87.0599   -2.3166   22.0246 C   0  0  0  0  0  0  0  0  0  0  0  0
   87.2822   -2.3687   20.5638 C   0  0  0  0  0  0  0  0  0  0  0  0
   87.5985   -1.3763   19.7943 N   0  0  0  0  0  0  0  0  0  0  0  0
   87.7237   -0.2049   20.4572 N   0  0  0  0  0  0  0  0  0  0  0  0
   87.5524    0.0003   21.7924 C   0  0  0  0  0  0  0  0  0  0  0  0
   88.0550    1.8886   20.9394 C   0  0  0  0  0  0  0  0  0  0  0  0
   88.0514    0.9981   19.8947 C   0  0  0  0  0  0  0  0  0  0  0  0
   86.6324    1.8785   10.5301 C   0  0  0  0  0  0  0  0  0  0  0  0
   86.2902    1.0337    8.3168 C   0  0  0  0  0  0  0  0  0  0  0  0
   84.4243    1.7908    9.5902 C   0  0  0  0  0  0  0  0  0  0  0  0
   87.1356    1.3406    9.3627 C   0  0  0  0  0  0  0  0  0  0  0  0
   84.9297    1.2550    8.4180 C   0  0  0  0  0  0  0  0  0  0  0  0
   85.2750    2.1008   10.6328 C   0  0  0  0  0  0  0  0  0  0  0  0
   82.9646    2.0554    9.7426 C   0  0  0  0  0  0  0  0  0  0  0  0
   82.2289    1.0525    9.2119 F   0  0  0  0  0  0  0  0  0  0  0  0
   82.5596    2.2218   11.0188 F   0  0  0  0  0  0  0  0  0  0  0  0
   82.5068    3.1656    9.1240 F   0  0  0  0  0  0  0  0  0  0  0  0
   84.0440    0.9142    7.2607 C   0  0  0  0  0  0  0  0  0  0  0  0
   83.4532    2.0639    6.5273 N   0  0  0  0  0  0  0  0  0  0  0  0
   83.9856    2.2382    5.1574 C   0  0  0  0  0  0  0  0  0  0  0  0
   83.5936    3.6343    4.7296 C   0  0  0  0  0  0  0  0  0  0  0  0
   81.9612    2.0970    6.5542 C   0  0  0  0  0  0  0  0  0  0  0  0
   81.4272    3.3932    5.9560 C   0  0  0  0  0  0  0  0  0  0  0  0
   81.6034    4.8501    3.9593 C   0  0  0  0  0  0  0  0  0  0  0  0
   82.1035    3.6463    4.6595 N   0  0  0  0  0  0  0  0  0  0  0  0
 14 20  2  0  0  0
 14 21  1  0  0  0
 34 33  1  0  0  0
 34 35  1  0  0  0
 34 37  1  0  0  0
 12  5  1  0  0  0
 12 13  3  0  0  0
  5  6  2  0  0  0
  5  9  1  0  0  0
  6  7  1  0  0  0
  6 11  1  0  0  0
  7  8  2  0  0  0
  8 10  1  0  0  0
  9 10  2  0  0  0
 23  3  1  0  0  0
 23 26  2  0  0  0
 23 28  1  0  0  0
 24 26  1  0  0  0
 24 27  2  0  0  0
 25 27  1  0  0  0
 25 28  2  0  0  0
 25 29  1  0  0  0
 33 27  1  0  0  0
 35 36  1  0  0  0
 36 40  1  0  0  0
 37 38  1  0  0  0
 15 16  2  0  0  0
 15 20  1  0  0  0
 16 17  1  0  0  0
 17 18  2  0  0  0
 18 19  1  0  0  0
 19 20  1  0  0  0
 19 22  1  0  0  0
 21 22  2  0  0  0
 22 13  1  0  0  0
 10  1  1  0  0  0
  1  2  2  0  0  0
  1  3  1  0  0  0
 29 30  1  0  0  0
 29 31  1  0  0  0
 29 32  1  0  0  0
 38 40  1  0  0  0
 39 40  1  0  0  0
  3  4  1  0  0  0
M  END
> <minimizedAffinity>
-10.13790

$$$$
