5BOJ_4TX_A_201


 19 19  0  0  0  0  0  0  0  0999 V2000
    0.7605   -1.2344    5.2885 C   0  0  0  0  0  0  0  0  0  0  0  0
   -0.1786   -0.8149    6.3908 C   0  0  0  0  0  0  0  0  0  0  0  0
    0.4583    0.3274    7.1566 C   0  0  0  0  0  0  0  0  0  0  0  0
   -0.2789    0.6584    8.4416 C   0  0  0  0  0  0  0  0  0  0  0  0
    0.6249    0.3675    9.6298 C   0  0  0  0  0  0  0  0  0  0  0  0
   -1.5696   -0.1317    8.5695 C   0  0  0  0  0  0  0  0  0  0  0  0
   -0.2943    2.8671    9.2944 O   0  0  0  0  0  0  0  0  0  0  0  0
   -0.6229    2.1265    8.3843 C   0  0  0  0  0  0  0  0  0  0  0  0
   -1.2746    2.6518    7.3504 O   0  0  0  0  0  0  0  0  0  0  0  0
   -1.5392    2.1054    6.6368 H   0  0  0  0  0  0  0  0  0  0  0  0
    0.2643   -0.6013    4.1266 O   0  0  0  0  0  0  0  0  0  0  0  0
    2.2110    0.1300    2.8481 C   0  0  0  0  0  0  0  0  0  0  0  0
    2.7985    1.1774    2.1421 C   0  0  0  0  0  0  0  0  0  0  0  0
    2.1405    2.3880    2.0139 C   0  0  0  0  0  0  0  0  0  0  0  0
    0.8881    2.5700    2.5752 C   0  0  0  0  0  0  0  0  0  0  0  0
    0.9513    0.3313    3.4155 C   0  0  0  0  0  0  0  0  0  0  0  0
    0.3018    1.5296    3.2857 C   0  0  0  0  0  0  0  0  0  0  0  0
   -1.0576    1.6299    3.9254 C   0  0  0  0  0  0  0  0  0  0  0  0
    4.1589    1.0258    1.5218 C   0  0  0  0  0  0  0  0  0  0  0  0
 14 15  2  0  0  0
 14 13  1  0  0  0
 15 17  1  0  0  0
 19 13  1  0  0  0
 13 12  2  0  0  0
 17 18  1  0  0  0
 17 16  2  0  0  0
 12 16  1  0  0  0
 16 11  1  0  0  0
 11  1  1  0  0  0
  1  2  1  0  0  0
  2  3  1  0  0  0
  3  4  1  0  0  0
  6  4  1  0  0  0
  5  4  1  0  0  0
  4  8  1  0  0  0
  8  7  2  0  0  0
  8  9  1  0  0  0
  9 10  1  0  0  0
M  END
> <minimizedAffinity>
-7.06970

$$$$
5BOJ_4TX_A_201


 19 19  0  0  0  0  0  0  0  0999 V2000
    1.7547   -1.5718    7.5613 C   0  0  0  0  0  0  0  0  0  0  0  0
    1.1173   -1.1531    8.8617 C   0  0  0  0  0  0  0  0  0  0  0  0
    1.2977    0.3427    9.0263 C   0  0  0  0  0  0  0  0  0  0  0  0
    0.1567    0.9935    9.7869 C   0  0  0  0  0  0  0  0  0  0  0  0
   -0.1329    0.1896   11.0452 C   0  0  0  0  0  0  0  0  0  0  0  0
   -1.0993    1.0952    8.9391 C   0  0  0  0  0  0  0  0  0  0  0  0
    1.5124    2.5559   10.9391 O   0  0  0  0  0  0  0  0  0  0  0  0
    0.6060    2.3898   10.1417 C   0  0  0  0  0  0  0  0  0  0  0  0
    0.0441    3.4647    9.5957 O   0  0  0  0  0  0  0  0  0  0  0  0
   -0.6548    3.3661    8.9795 H   0  0  0  0  0  0  0  0  0  0  0  0
    0.6730   -1.7809    6.6762 O   0  0  0  0  0  0  0  0  0  0  0  0
   -0.3239    0.1659    5.5919 C   0  0  0  0  0  0  0  0  0  0  0  0
   -0.4970    0.8542    4.3933 C   0  0  0  0  0  0  0  0  0  0  0  0
    0.0630    0.3707    3.2239 C   0  0  0  0  0  0  0  0  0  0  0  0
    0.8097   -0.7951    3.2320 C   0  0  0  0  0  0  0  0  0  0  0  0
    0.4247   -1.0125    5.5827 C   0  0  0  0  0  0  0  0  0  0  0  0
    0.9790   -1.4879    4.4245 C   0  0  0  0  0  0  0  0  0  0  0  0
    1.7784   -2.7592    4.5344 C   0  0  0  0  0  0  0  0  0  0  0  0
   -1.3050    2.1202    4.3373 C   0  0  0  0  0  0  0  0  0  0  0  0
 14 15  2  0  0  0
 14 13  1  0  0  0
 15 17  1  0  0  0
 19 13  1  0  0  0
 13 12  2  0  0  0
 17 18  1  0  0  0
 17 16  2  0  0  0
 12 16  1  0  0  0
 16 11  1  0  0  0
 11  1  1  0  0  0
  1  2  1  0  0  0
  2  3  1  0  0  0
  3  4  1  0  0  0
  6  4  1  0  0  0
  5  4  1  0  0  0
  4  8  1  0  0  0
  8  7  2  0  0  0
  8  9  1  0  0  0
  9 10  1  0  0  0
M  END
> <minimizedAffinity>
-7.03832

$$$$
5BOJ_4TX_A_201


 19 19  0  0  0  0  0  0  0  0999 V2000
   -0.8814    1.2571    5.3416 C   0  0  0  0  0  0  0  0  0  0  0  0
    0.0487    0.9738    6.4938 C   0  0  0  0  0  0  0  0  0  0  0  0
   -0.3984   -0.3071    7.1694 C   0  0  0  0  0  0  0  0  0  0  0  0
    0.4442   -0.6586    8.3820 C   0  0  0  0  0  0  0  0  0  0  0  0
   -0.3040   -0.2648    9.6463 C   0  0  0  0  0  0  0  0  0  0  0  0
    1.7968    0.0313    8.3467 C   0  0  0  0  0  0  0  0  0  0  0  0
    0.2922   -2.8500    9.2658 O   0  0  0  0  0  0  0  0  0  0  0  0
    0.6693   -2.1503    8.3422 C   0  0  0  0  0  0  0  0  0  0  0  0
    1.2661   -2.7398    7.3099 O   0  0  0  0  0  0  0  0  0  0  0  0
    1.5660   -2.2258    6.5861 H   0  0  0  0  0  0  0  0  0  0  0  0
   -0.3071    0.5883    4.2371 O   0  0  0  0  0  0  0  0  0  0  0  0
   -2.2182   -0.1469    2.9079 C   0  0  0  0  0  0  0  0  0  0  0  0
   -2.7683   -1.1823    2.1558 C   0  0  0  0  0  0  0  0  0  0  0  0
   -2.0755   -2.3687    1.9902 C   0  0  0  0  0  0  0  0  0  0  0  0
   -0.8250   -2.5377    2.5598 C   0  0  0  0  0  0  0  0  0  0  0  0
   -0.9599   -0.3351    3.4828 C   0  0  0  0  0  0  0  0  0  0  0  0
   -0.2759   -1.5094    3.3161 C   0  0  0  0  0  0  0  0  0  0  0  0
    1.0784   -1.5967    3.9683 C   0  0  0  0  0  0  0  0  0  0  0  0
   -4.1253   -1.0446    1.5248 C   0  0  0  0  0  0  0  0  0  0  0  0
 14 15  2  0  0  0
 14 13  1  0  0  0
 15 17  1  0  0  0
 19 13  1  0  0  0
 13 12  2  0  0  0
 17 18  1  0  0  0
 17 16  2  0  0  0
 12 16  1  0  0  0
 16 11  1  0  0  0
 11  1  1  0  0  0
  1  2  1  0  0  0
  2  3  1  0  0  0
  3  4  1  0  0  0
  6  4  1  0  0  0
  5  4  1  0  0  0
  4  8  1  0  0  0
  8  7  2  0  0  0
  8  9  1  0  0  0
  9 10  1  0  0  0
M  END
> <minimizedAffinity>
-6.99950

$$$$
5BOJ_4TX_A_201


 19 19  0  0  0  0  0  0  0  0999 V2000
   -1.6169    1.3671    7.2146 C   0  0  0  0  0  0  0  0  0  0  0  0
   -1.0846    1.1792    8.6125 C   0  0  0  0  0  0  0  0  0  0  0  0
   -1.2004   -0.2870    8.9784 C   0  0  0  0  0  0  0  0  0  0  0  0
    0.0604   -0.8349    9.6220 C   0  0  0  0  0  0  0  0  0  0  0  0
   -0.0004   -0.6052   11.1242 C   0  0  0  0  0  0  0  0  0  0  0  0
    1.3104   -0.1882    9.0512 C   0  0  0  0  0  0  0  0  0  0  0  0
    0.8042   -2.7249    8.4050 O   0  0  0  0  0  0  0  0  0  0  0  0
    0.1046   -2.3113    9.3130 C   0  0  0  0  0  0  0  0  0  0  0  0
   -0.5978   -3.1943   10.0176 O   0  0  0  0  0  0  0  0  0  0  0  0
   -1.1440   -2.9039   10.7214 H   0  0  0  0  0  0  0  0  0  0  0  0
   -0.4685    1.4431    6.3947 O   0  0  0  0  0  0  0  0  0  0  0  0
    0.6140   -0.6428    5.7338 C   0  0  0  0  0  0  0  0  0  0  0  0
    0.8847   -1.5180    4.6845 C   0  0  0  0  0  0  0  0  0  0  0  0
    0.4223   -1.2430    3.4096 C   0  0  0  0  0  0  0  0  0  0  0  0
   -0.3226   -0.1024    3.1631 C   0  0  0  0  0  0  0  0  0  0  0  0
   -0.1314    0.5074    5.4681 C   0  0  0  0  0  0  0  0  0  0  0  0
   -0.5891    0.7763    4.2060 C   0  0  0  0  0  0  0  0  0  0  0  0
   -1.3948    2.0371    4.0378 C   0  0  0  0  0  0  0  0  0  0  0  0
    1.6946   -2.7646    4.9055 C   0  0  0  0  0  0  0  0  0  0  0  0
 14 15  2  0  0  0
 14 13  1  0  0  0
 15 17  1  0  0  0
 19 13  1  0  0  0
 13 12  2  0  0  0
 17 18  1  0  0  0
 17 16  2  0  0  0
 12 16  1  0  0  0
 16 11  1  0  0  0
 11  1  1  0  0  0
  1  2  1  0  0  0
  2  3  1  0  0  0
  3  4  1  0  0  0
  6  4  1  0  0  0
  5  4  1  0  0  0
  4  8  1  0  0  0
  8  7  2  0  0  0
  8  9  1  0  0  0
  9 10  1  0  0  0
M  END
> <minimizedAffinity>
-6.98088

$$$$
5BOJ_4TX_A_201


 19 19  0  0  0  0  0  0  0  0999 V2000
    0.8356   -1.2106    6.1309 C   0  0  0  0  0  0  0  0  0  0  0  0
   -0.1411   -0.7864    5.0637 C   0  0  0  0  0  0  0  0  0  0  0  0
    0.4928   -1.0269    3.7082 C   0  0  0  0  0  0  0  0  0  0  0  0
    0.5134    0.2169    2.8385 C   0  0  0  0  0  0  0  0  0  0  0  0
    1.9401    0.4946    2.3907 C   0  0  0  0  0  0  0  0  0  0  0  0
   -0.0418    1.4256    3.5717 C   0  0  0  0  0  0  0  0  0  0  0  0
    0.0881   -0.0118    0.5205 O   0  0  0  0  0  0  0  0  0  0  0  0
   -0.3703   -0.0653    1.6483 C   0  0  0  0  0  0  0  0  0  0  0  0
   -1.6530   -0.3875    1.7909 O   0  0  0  0  0  0  0  0  0  0  0  0
   -2.0315   -0.4360    2.6466 H   0  0  0  0  0  0  0  0  0  0  0  0
    0.0448   -1.4327    7.2809 O   0  0  0  0  0  0  0  0  0  0  0  0
    0.2558    0.7399    8.3739 C   0  0  0  0  0  0  0  0  0  0  0  0
    0.2607    1.4231    9.5878 C   0  0  0  0  0  0  0  0  0  0  0  0
    0.0892    0.7353   10.7763 C   0  0  0  0  0  0  0  0  0  0  0  0
   -0.0997   -0.6363   10.7734 C   0  0  0  0  0  0  0  0  0  0  0  0
    0.0724   -0.6441    8.3877 C   0  0  0  0  0  0  0  0  0  0  0  0
   -0.0987   -1.3220    9.5649 C   0  0  0  0  0  0  0  0  0  0  0  0
   -0.3027   -2.8101    9.4599 C   0  0  0  0  0  0  0  0  0  0  0  0
    0.4686    2.9107    9.6382 C   0  0  0  0  0  0  0  0  0  0  0  0
 14 15  2  0  0  0
 14 13  1  0  0  0
 15 17  1  0  0  0
 19 13  1  0  0  0
 13 12  2  0  0  0
 17 18  1  0  0  0
 17 16  2  0  0  0
 12 16  1  0  0  0
 16 11  1  0  0  0
 11  1  1  0  0  0
  1  2  1  0  0  0
  2  3  1  0  0  0
  3  4  1  0  0  0
  6  4  1  0  0  0
  5  4  1  0  0  0
  4  8  1  0  0  0
  8  7  2  0  0  0
  8  9  1  0  0  0
  9 10  1  0  0  0
M  END
> <minimizedAffinity>
-6.97725

$$$$
5BOJ_4TX_A_201


 19 19  0  0  0  0  0  0  0  0999 V2000
   -0.8275    1.2458    6.1375 C   0  0  0  0  0  0  0  0  0  0  0  0
    0.0545    0.7398    5.0245 C   0  0  0  0  0  0  0  0  0  0  0  0
   -0.8267    0.1403    3.9469 C   0  0  0  0  0  0  0  0  0  0  0  0
   -0.0936   -0.8663    3.0790 C   0  0  0  0  0  0  0  0  0  0  0  0
   -1.0183   -2.0341    2.7717 C   0  0  0  0  0  0  0  0  0  0  0  0
    1.1714   -1.3724    3.7500 C   0  0  0  0  0  0  0  0  0  0  0  0
   -0.4893   -0.0861    0.8787 O   0  0  0  0  0  0  0  0  0  0  0  0
    0.2951   -0.1496    1.8091 C   0  0  0  0  0  0  0  0  0  0  0  0
    1.4818    0.4355    1.6720 O   0  0  0  0  0  0  0  0  0  0  0  0
    2.1042    0.4022    2.3716 H   0  0  0  0  0  0  0  0  0  0  0  0
    0.0363    1.4001    7.2452 O   0  0  0  0  0  0  0  0  0  0  0  0
   -0.2011   -0.7495    8.3777 C   0  0  0  0  0  0  0  0  0  0  0  0
   -0.2383   -1.4069    9.6052 C   0  0  0  0  0  0  0  0  0  0  0  0
   -0.1006   -0.6938   10.7831 C   0  0  0  0  0  0  0  0  0  0  0  0
    0.0860    0.6777   10.7565 C   0  0  0  0  0  0  0  0  0  0  0  0
   -0.0204    0.6349    8.3673 C   0  0  0  0  0  0  0  0  0  0  0  0
    0.1171    1.3378    9.5341 C   0  0  0  0  0  0  0  0  0  0  0  0
    0.3215    2.8239    9.4034 C   0  0  0  0  0  0  0  0  0  0  0  0
   -0.4450   -2.8936    9.6812 C   0  0  0  0  0  0  0  0  0  0  0  0
 14 15  2  0  0  0
 14 13  1  0  0  0
 15 17  1  0  0  0
 19 13  1  0  0  0
 13 12  2  0  0  0
 17 18  1  0  0  0
 17 16  2  0  0  0
 12 16  1  0  0  0
 16 11  1  0  0  0
 11  1  1  0  0  0
  1  2  1  0  0  0
  2  3  1  0  0  0
  3  4  1  0  0  0
  6  4  1  0  0  0
  5  4  1  0  0  0
  4  8  1  0  0  0
  8  7  2  0  0  0
  8  9  1  0  0  0
  9 10  1  0  0  0
M  END
> <minimizedAffinity>
-6.96700

$$$$
5BOJ_4TX_A_201


 19 19  0  0  0  0  0  0  0  0999 V2000
   -0.8642    1.1091    6.0608 C   0  0  0  0  0  0  0  0  0  0  0  0
   -0.6804    0.2366    7.2764 C   0  0  0  0  0  0  0  0  0  0  0  0
   -0.8479    1.0948    8.5144 C   0  0  0  0  0  0  0  0  0  0  0  0
    0.2996    0.9427    9.4962 C   0  0  0  0  0  0  0  0  0  0  0  0
    1.4952    0.3309    8.7825 C   0  0  0  0  0  0  0  0  0  0  0  0
   -0.0877    0.0812   10.6856 C   0  0  0  0  0  0  0  0  0  0  0  0
    1.4860    2.4754   10.8562 O   0  0  0  0  0  0  0  0  0  0  0  0
    0.6332    2.3260    9.9988 C   0  0  0  0  0  0  0  0  0  0  0  0
    0.0252    3.4085    9.5213 O   0  0  0  0  0  0  0  0  0  0  0  0
   -0.6345    3.3227    8.8615 H   0  0  0  0  0  0  0  0  0  0  0  0
   -0.6892    0.2410    4.9595 O   0  0  0  0  0  0  0  0  0  0  0  0
    1.2921    1.1694    3.8771 C   0  0  0  0  0  0  0  0  0  0  0  0
    1.9296    1.4250    2.6652 C   0  0  0  0  0  0  0  0  0  0  0  0
    1.3266    1.0704    1.4712 C   0  0  0  0  0  0  0  0  0  0  0  0
    0.0895    0.4488    1.4662 C   0  0  0  0  0  0  0  0  0  0  0  0
    0.0414    0.5494    3.8556 C   0  0  0  0  0  0  0  0  0  0  0  0
   -0.5523    0.1981    2.6729 C   0  0  0  0  0  0  0  0  0  0  0  0
   -1.8942   -0.4780    2.7693 C   0  0  0  0  0  0  0  0  0  0  0  0
    3.2701    2.1031    2.6235 C   0  0  0  0  0  0  0  0  0  0  0  0
 14 15  2  0  0  0
 14 13  1  0  0  0
 15 17  1  0  0  0
 19 13  1  0  0  0
 13 12  2  0  0  0
 17 18  1  0  0  0
 17 16  2  0  0  0
 12 16  1  0  0  0
 16 11  1  0  0  0
 11  1  1  0  0  0
  1  2  1  0  0  0
  2  3  1  0  0  0
  3  4  1  0  0  0
  6  4  1  0  0  0
  5  4  1  0  0  0
  4  8  1  0  0  0
  8  7  2  0  0  0
  8  9  1  0  0  0
  9 10  1  0  0  0
M  END
> <minimizedAffinity>
-6.81593

$$$$
5BOJ_4TX_A_201


 19 19  0  0  0  0  0  0  0  0999 V2000
    1.3394   -2.1285    5.9876 C   0  0  0  0  0  0  0  0  0  0  0  0
    1.6454   -1.7970    7.4261 C   0  0  0  0  0  0  0  0  0  0  0  0
    0.4034   -2.0577    8.2547 C   0  0  0  0  0  0  0  0  0  0  0  0
   -0.0986   -0.8167    8.9702 C   0  0  0  0  0  0  0  0  0  0  0  0
   -1.3932   -0.3509    8.3220 C   0  0  0  0  0  0  0  0  0  0  0  0
    0.9262    0.3038    8.9396 C   0  0  0  0  0  0  0  0  0  0  0  0
    0.0800   -0.4984   11.3096 O   0  0  0  0  0  0  0  0  0  0  0  0
   -0.3361   -1.2057   10.4088 C   0  0  0  0  0  0  0  0  0  0  0  0
   -1.0059   -2.3082   10.7333 O   0  0  0  0  0  0  0  0  0  0  0  0
   -1.3371   -2.8702   10.0607 H   0  0  0  0  0  0  0  0  0  0  0  0
    0.8879   -0.9145    5.4223 O   0  0  0  0  0  0  0  0  0  0  0  0
   -0.1754   -1.8508    3.4342 C   0  0  0  0  0  0  0  0  0  0  0  0
   -1.0917   -1.6340    2.4077 C   0  0  0  0  0  0  0  0  0  0  0  0
   -1.7787   -0.4355    2.3272 C   0  0  0  0  0  0  0  0  0  0  0  0
   -1.5724    0.5574    3.2697 C   0  0  0  0  0  0  0  0  0  0  0  0
    0.0279   -0.8370    4.3725 C   0  0  0  0  0  0  0  0  0  0  0  0
   -0.6544    0.3473    4.2914 C   0  0  0  0  0  0  0  0  0  0  0  0
   -0.3670    1.3632    5.3649 C   0  0  0  0  0  0  0  0  0  0  0  0
   -1.3424   -2.6817    1.3597 C   0  0  0  0  0  0  0  0  0  0  0  0
 14 15  2  0  0  0
 14 13  1  0  0  0
 15 17  1  0  0  0
 19 13  1  0  0  0
 13 12  2  0  0  0
 17 18  1  0  0  0
 17 16  2  0  0  0
 12 16  1  0  0  0
 16 11  1  0  0  0
 11  1  1  0  0  0
  1  2  1  0  0  0
  2  3  1  0  0  0
  3  4  1  0  0  0
  6  4  1  0  0  0
  5  4  1  0  0  0
  4  8  1  0  0  0
  8  7  2  0  0  0
  8  9  1  0  0  0
  9 10  1  0  0  0
M  END
> <minimizedAffinity>
-6.77511

$$$$
5BOJ_4TX_A_201


 19 19  0  0  0  0  0  0  0  0999 V2000
    1.1856   -1.4720    6.0075 C   0  0  0  0  0  0  0  0  0  0  0  0
    0.4380   -1.2829    7.3030 C   0  0  0  0  0  0  0  0  0  0  0  0
    0.9163    0.0007    7.9515 C   0  0  0  0  0  0  0  0  0  0  0  0
   -0.1118    0.6046    8.8908 C   0  0  0  0  0  0  0  0  0  0  0  0
    0.1754    0.1476   10.3127 C   0  0  0  0  0  0  0  0  0  0  0  0
   -1.5274    0.2170    8.5002 C   0  0  0  0  0  0  0  0  0  0  0  0
   -0.8429    2.7521    8.2125 O   0  0  0  0  0  0  0  0  0  0  0  0
    0.0193    2.1038    8.7793 C   0  0  0  0  0  0  0  0  0  0  0  0
    1.0569    2.7552    9.2976 O   0  0  0  0  0  0  0  0  0  0  0  0
    1.7344    2.2816    9.7389 H   0  0  0  0  0  0  0  0  0  0  0  0
    0.7404   -0.4217    5.1734 O   0  0  0  0  0  0  0  0  0  0  0  0
   -0.2301   -1.7070    3.3388 C   0  0  0  0  0  0  0  0  0  0  0  0
   -1.1971   -1.7343    2.3366 C   0  0  0  0  0  0  0  0  0  0  0  0
   -2.0546   -0.6618    2.1651 C   0  0  0  0  0  0  0  0  0  0  0  0
   -1.9696    0.4452    2.9922 C   0  0  0  0  0  0  0  0  0  0  0  0
   -0.1512   -0.5804    4.1597 C   0  0  0  0  0  0  0  0  0  0  0  0
   -1.0019    0.4787    3.9888 C   0  0  0  0  0  0  0  0  0  0  0  0
   -0.8364    1.6339    4.9403 C   0  0  0  0  0  0  0  0  0  0  0  0
   -1.3210   -2.9127    1.4122 C   0  0  0  0  0  0  0  0  0  0  0  0
 14 15  2  0  0  0
 14 13  1  0  0  0
 15 17  1  0  0  0
 19 13  1  0  0  0
 13 12  2  0  0  0
 17 18  1  0  0  0
 17 16  2  0  0  0
 12 16  1  0  0  0
 16 11  1  0  0  0
 11  1  1  0  0  0
  1  2  1  0  0  0
  2  3  1  0  0  0
  3  4  1  0  0  0
  6  4  1  0  0  0
  5  4  1  0  0  0
  4  8  1  0  0  0
  8  7  2  0  0  0
  8  9  1  0  0  0
  9 10  1  0  0  0
M  END
> <minimizedAffinity>
-6.68955

$$$$
5BOJ_4TX_A_201


 19 19  0  0  0  0  0  0  0  0999 V2000
   -1.3192    2.3454    6.1393 C   0  0  0  0  0  0  0  0  0  0  0  0
   -1.4547    1.8480    7.5560 C   0  0  0  0  0  0  0  0  0  0  0  0
   -0.1028    1.9508    8.2334 C   0  0  0  0  0  0  0  0  0  0  0  0
    0.2415    0.7193    9.0511 C   0  0  0  0  0  0  0  0  0  0  0  0
    1.5211    0.0985    8.5120 C   0  0  0  0  0  0  0  0  0  0  0  0
   -0.8796   -0.3050    9.0253 C   0  0  0  0  0  0  0  0  0  0  0  0
    0.8793    2.2894   10.7046 O   0  0  0  0  0  0  0  0  0  0  0  0
    0.4344    1.1783   10.4756 C   0  0  0  0  0  0  0  0  0  0  0  0
    0.1191    0.4021   11.5088 O   0  0  0  0  0  0  0  0  0  0  0  0
   -0.2249   -0.4569   11.3616 H   0  0  0  0  0  0  0  0  0  0  0  0
   -1.2160    1.1768    5.3514 O   0  0  0  0  0  0  0  0  0  0  0  0
    0.0488    1.9426    3.4089 C   0  0  0  0  0  0  0  0  0  0  0  0
    1.0261    1.6199    2.4703 C   0  0  0  0  0  0  0  0  0  0  0  0
    1.6454    0.3828    2.5050 C   0  0  0  0  0  0  0  0  0  0  0  0
    1.3098   -0.5440    3.4772 C   0  0  0  0  0  0  0  0  0  0  0  0
   -0.2847    0.9947    4.3781 C   0  0  0  0  0  0  0  0  0  0  0  0
    0.3307   -0.2280    4.4111 C   0  0  0  0  0  0  0  0  0  0  0  0
   -0.0969   -1.1661    5.5085 C   0  0  0  0  0  0  0  0  0  0  0  0
    1.4171    2.5930    1.3938 C   0  0  0  0  0  0  0  0  0  0  0  0
 14 15  2  0  0  0
 14 13  1  0  0  0
 15 17  1  0  0  0
 19 13  1  0  0  0
 13 12  2  0  0  0
 17 18  1  0  0  0
 17 16  2  0  0  0
 12 16  1  0  0  0
 16 11  1  0  0  0
 11  1  1  0  0  0
  1  2  1  0  0  0
  2  3  1  0  0  0
  3  4  1  0  0  0
  6  4  1  0  0  0
  5  4  1  0  0  0
  4  8  1  0  0  0
  8  7  2  0  0  0
  8  9  1  0  0  0
  9 10  1  0  0  0
M  END
> <minimizedAffinity>
-6.65175

$$$$
