2ANS_2AN_A_201


 23 25  0  0  0  0  0  0  0  0999 V2000
    5.7854   29.0070   16.2468 C   0  0  0  0  0  0  0  0  0  0  0  0
    5.3747   28.1538   15.2235 C   0  0  0  0  0  0  0  0  0  0  0  0
    4.3188   28.4487   14.3558 C   0  0  0  0  0  0  0  0  0  0  0  0
    3.6403   29.6122   14.4911 C   0  0  0  0  0  0  0  0  0  0  0  0
    3.9818   30.5487   15.5032 C   0  0  0  0  0  0  0  0  0  0  0  0
    3.2301   31.7510   15.5923 C   0  0  0  0  0  0  0  0  0  0  0  0
    3.4914   32.6923   16.5255 C   0  0  0  0  0  0  0  0  0  0  0  0
    4.5324   32.4919   17.4417 C   0  0  0  0  0  0  0  0  0  0  0  0
    5.3322   31.3586   17.4490 C   0  0  0  0  0  0  0  0  0  0  0  0
    5.0843   30.2872   16.4408 C   0  0  0  0  0  0  0  0  0  0  0  0
    6.5918   31.4164   18.7638 S   0  0  0  0  0  0  0  0  0  0  0  0
    7.9113   31.3999   18.1506 O   0  0  0  0  0  0  0  0  0  0  0  0
    6.3328   32.6124   19.5444 O   0  0  0  0  0  0  0  0  0  0  0  0
    6.3822   30.2318   19.5894 O   0  0  0  0  0  0  0  0  0  0  0  0
    6.5565   29.4359   19.0631 H   0  0  0  0  0  0  0  0  0  0  0  0
    6.8619   28.5822   17.0456 N   0  0  0  0  0  0  0  0  0  0  0  0
    7.2513   29.2553   17.6493 H   0  0  0  0  0  0  0  0  0  0  0  0
    7.4424   27.3055   17.0774 C   0  0  0  0  0  0  0  0  0  0  0  0
    8.6797   27.1131   16.4212 C   0  0  0  0  0  0  0  0  0  0  0  0
    9.2957   25.8801   16.4171 C   0  0  0  0  0  0  0  0  0  0  0  0
    8.7306   24.8038   17.0470 C   0  0  0  0  0  0  0  0  0  0  0  0
    7.5138   24.9509   17.7050 C   0  0  0  0  0  0  0  0  0  0  0  0
    6.8594   26.1858   17.7308 C   0  0  0  0  0  0  0  0  0  0  0  0
  1  2  2  0  0  0
  1 16  1  0  0  0
  1 10  1  0  0  0
  2  3  1  0  0  0
  3  4  2  0  0  0
  4  5  1  0  0  0
  5  6  2  0  0  0
  5 10  1  0  0  0
  6  7  1  0  0  0
  7  8  2  0  0  0
  8  9  1  0  0  0
 16 18  1  0  0  0
 11  9  1  0  0  0
 11 12  2  0  0  0
 11 13  2  0  0  0
 11 14  1  0  0  0
  9 10  2  0  0  0
 18 19  2  0  0  0
 18 23  1  0  0  0
 19 20  1  0  0  0
 20 21  2  0  0  0
 21 22  1  0  0  0
 22 23  2  0  0  0
 16 17  1  0  0  0
 14 15  1  0  0  0
M  END
> <minimizedAffinity>
-8.65509

$$$$
2ANS_2AN_A_201


 23 25  0  0  0  0  0  0  0  0999 V2000
    7.0106   30.4548   16.9862 C   0  0  0  0  0  0  0  0  0  0  0  0
    7.5003   29.1952   16.6437 C   0  0  0  0  0  0  0  0  0  0  0  0
    6.7700   28.2643   15.8988 C   0  0  0  0  0  0  0  0  0  0  0  0
    5.5213   28.5707   15.4754 C   0  0  0  0  0  0  0  0  0  0  0  0
    4.9324   29.8287   15.7728 C   0  0  0  0  0  0  0  0  0  0  0  0
    3.6181   30.0881   15.2997 C   0  0  0  0  0  0  0  0  0  0  0  0
    2.9879   31.2588   15.5391 C   0  0  0  0  0  0  0  0  0  0  0  0
    3.6366   32.2588   16.2758 C   0  0  0  0  0  0  0  0  0  0  0  0
    4.9187   32.1176   16.7861 C   0  0  0  0  0  0  0  0  0  0  0  0
    5.6582   30.8431   16.5522 C   0  0  0  0  0  0  0  0  0  0  0  0
    5.4652   33.6028   17.6884 S   0  0  0  0  0  0  0  0  0  0  0  0
    4.3752   34.5666   17.7095 O   0  0  0  0  0  0  0  0  0  0  0  0
    5.8759   33.1665   19.0104 O   0  0  0  0  0  0  0  0  0  0  0  0
    6.6159   34.1281   16.9611 O   0  0  0  0  0  0  0  0  0  0  0  0
    6.3359   34.4180   16.0788 H   0  0  0  0  0  0  0  0  0  0  0  0
    7.8537   31.2897   17.7407 N   0  0  0  0  0  0  0  0  0  0  0  0
    7.5313   31.5441   18.6354 H   0  0  0  0  0  0  0  0  0  0  0  0
    9.1035   31.8002   17.3596 C   0  0  0  0  0  0  0  0  0  0  0  0
    9.2656   32.2601   16.0326 C   0  0  0  0  0  0  0  0  0  0  0  0
   10.4715   32.7696   15.6012 C   0  0  0  0  0  0  0  0  0  0  0  0
   11.5494   32.8467   16.4420 C   0  0  0  0  0  0  0  0  0  0  0  0
   11.4316   32.4055   17.7560 C   0  0  0  0  0  0  0  0  0  0  0  0
   10.2247   31.8828   18.2295 C   0  0  0  0  0  0  0  0  0  0  0  0
  1  2  2  0  0  0
  1 16  1  0  0  0
  1 10  1  0  0  0
  2  3  1  0  0  0
  3  4  2  0  0  0
  4  5  1  0  0  0
  5  6  2  0  0  0
  5 10  1  0  0  0
  6  7  1  0  0  0
  7  8  2  0  0  0
  8  9  1  0  0  0
 16 18  1  0  0  0
 11  9  1  0  0  0
 11 12  2  0  0  0
 11 13  2  0  0  0
 11 14  1  0  0  0
  9 10  2  0  0  0
 18 19  2  0  0  0
 18 23  1  0  0  0
 19 20  1  0  0  0
 20 21  2  0  0  0
 21 22  1  0  0  0
 22 23  2  0  0  0
 16 17  1  0  0  0
 14 15  1  0  0  0
M  END
> <minimizedAffinity>
-8.47493

$$$$
2ANS_2AN_A_201


 23 25  0  0  0  0  0  0  0  0999 V2000
    6.7540   30.0538   17.2683 C   0  0  0  0  0  0  0  0  0  0  0  0
    7.1252   28.7587   16.9098 C   0  0  0  0  0  0  0  0  0  0  0  0
    6.3665   27.9511   16.0572 C   0  0  0  0  0  0  0  0  0  0  0  0
    5.2077   28.4206   15.5386 C   0  0  0  0  0  0  0  0  0  0  0  0
    4.7425   29.7278   15.8433 C   0  0  0  0  0  0  0  0  0  0  0  0
    3.5181   30.1604   15.2670 C   0  0  0  0  0  0  0  0  0  0  0  0
    3.0075   31.3881   15.5059 C   0  0  0  0  0  0  0  0  0  0  0  0
    3.6943   32.2744   16.3463 C   0  0  0  0  0  0  0  0  0  0  0  0
    4.8970   31.9614   16.9625 C   0  0  0  0  0  0  0  0  0  0  0  0
    5.5031   30.6175   16.7338 C   0  0  0  0  0  0  0  0  0  0  0  0
    5.5231   33.3350   17.9823 S   0  0  0  0  0  0  0  0  0  0  0  0
    5.4714   32.9416   19.3823 O   0  0  0  0  0  0  0  0  0  0  0  0
    6.8650   33.6304   17.5147 O   0  0  0  0  0  0  0  0  0  0  0  0
    4.6476   34.4734   17.7247 O   0  0  0  0  0  0  0  0  0  0  0  0
    3.7526   34.2707   18.0390 H   0  0  0  0  0  0  0  0  0  0  0  0
    7.6123   30.7524   18.1358 N   0  0  0  0  0  0  0  0  0  0  0  0
    8.2060   31.4191   17.7209 H   0  0  0  0  0  0  0  0  0  0  0  0
    7.7161   30.6044   19.5269 C   0  0  0  0  0  0  0  0  0  0  0  0
    8.7538   31.2890   20.2001 C   0  0  0  0  0  0  0  0  0  0  0  0
    8.9061   31.1792   21.5657 C   0  0  0  0  0  0  0  0  0  0  0  0
    8.0593   30.4051   22.3129 C   0  0  0  0  0  0  0  0  0  0  0  0
    7.0247   29.7155   21.6891 C   0  0  0  0  0  0  0  0  0  0  0  0
    6.8387   29.8025   20.3064 C   0  0  0  0  0  0  0  0  0  0  0  0
  1  2  2  0  0  0
  1 16  1  0  0  0
  1 10  1  0  0  0
  2  3  1  0  0  0
  3  4  2  0  0  0
  4  5  1  0  0  0
  5  6  2  0  0  0
  5 10  1  0  0  0
  6  7  1  0  0  0
  7  8  2  0  0  0
  8  9  1  0  0  0
 16 18  1  0  0  0
 11  9  1  0  0  0
 11 12  2  0  0  0
 11 13  2  0  0  0
 11 14  1  0  0  0
  9 10  2  0  0  0
 18 19  2  0  0  0
 18 23  1  0  0  0
 19 20  1  0  0  0
 20 21  2  0  0  0
 21 22  1  0  0  0
 22 23  2  0  0  0
 16 17  1  0  0  0
 14 15  1  0  0  0
M  END
> <minimizedAffinity>
-8.47129

$$$$
2ANS_2AN_A_201


 23 25  0  0  0  0  0  0  0  0999 V2000
    7.7806   29.9143   17.0131 C   0  0  0  0  0  0  0  0  0  0  0  0
    8.6706   28.8831   17.3100 C   0  0  0  0  0  0  0  0  0  0  0  0
    8.4379   27.5469   16.9704 C   0  0  0  0  0  0  0  0  0  0  0  0
    7.3001   27.2047   16.3219 C   0  0  0  0  0  0  0  0  0  0  0  0
    6.3298   28.1824   15.9744 C   0  0  0  0  0  0  0  0  0  0  0  0
    5.1567   27.7579   15.2947 C   0  0  0  0  0  0  0  0  0  0  0  0
    4.1868   28.6244   14.9290 C   0  0  0  0  0  0  0  0  0  0  0  0
    4.3266   29.9875   15.2221 C   0  0  0  0  0  0  0  0  0  0  0  0
    5.4277   30.5154   15.8801 C   0  0  0  0  0  0  0  0  0  0  0  0
    6.5265   29.6013   16.3078 C   0  0  0  0  0  0  0  0  0  0  0  0
    5.2965   32.3192   16.0983 S   0  0  0  0  0  0  0  0  0  0  0  0
    4.0204   32.7654   15.5598 O   0  0  0  0  0  0  0  0  0  0  0  0
    5.4493   32.5852   17.5169 O   0  0  0  0  0  0  0  0  0  0  0  0
    6.4107   32.9068   15.3620 O   0  0  0  0  0  0  0  0  0  0  0  0
    6.3036   32.7261   14.4150 H   0  0  0  0  0  0  0  0  0  0  0  0
    8.1422   31.2122   17.4153 N   0  0  0  0  0  0  0  0  0  0  0  0
    7.4553   31.7292   17.8950 H   0  0  0  0  0  0  0  0  0  0  0  0
    9.3734   31.8520   17.2088 C   0  0  0  0  0  0  0  0  0  0  0  0
    9.7768   32.1211   15.8807 C   0  0  0  0  0  0  0  0  0  0  0  0
   10.9772   32.7450   15.6171 C   0  0  0  0  0  0  0  0  0  0  0  0
   11.8164   33.1236   16.6305 C   0  0  0  0  0  0  0  0  0  0  0  0
   11.4566   32.8778   17.9516 C   0  0  0  0  0  0  0  0  0  0  0  0
   10.2471   32.2474   18.2580 C   0  0  0  0  0  0  0  0  0  0  0  0
  1  2  2  0  0  0
  1 16  1  0  0  0
  1 10  1  0  0  0
  2  3  1  0  0  0
  3  4  2  0  0  0
  4  5  1  0  0  0
  5  6  2  0  0  0
  5 10  1  0  0  0
  6  7  1  0  0  0
  7  8  2  0  0  0
  8  9  1  0  0  0
 16 18  1  0  0  0
 11  9  1  0  0  0
 11 12  2  0  0  0
 11 13  2  0  0  0
 11 14  1  0  0  0
  9 10  2  0  0  0
 18 19  2  0  0  0
 18 23  1  0  0  0
 19 20  1  0  0  0
 20 21  2  0  0  0
 21 22  1  0  0  0
 22 23  2  0  0  0
 16 17  1  0  0  0
 14 15  1  0  0  0
M  END
> <minimizedAffinity>
-8.21024

$$$$
2ANS_2AN_A_201


 23 25  0  0  0  0  0  0  0  0999 V2000
    7.0357   29.7763   17.1398 C   0  0  0  0  0  0  0  0  0  0  0  0
    7.8538   28.6928   17.4567 C   0  0  0  0  0  0  0  0  0  0  0  0
    7.6546   27.4060   16.9476 C   0  0  0  0  0  0  0  0  0  0  0  0
    6.6238   27.1674   16.1033 C   0  0  0  0  0  0  0  0  0  0  0  0
    5.7332   28.2052   15.7191 C   0  0  0  0  0  0  0  0  0  0  0  0
    4.6709   27.8891   14.8303 C   0  0  0  0  0  0  0  0  0  0  0  0
    3.7818   28.8182   14.4165 C   0  0  0  0  0  0  0  0  0  0  0  0
    3.8966   30.1395   14.8689 C   0  0  0  0  0  0  0  0  0  0  0  0
    4.8927   30.5630   15.7363 C   0  0  0  0  0  0  0  0  0  0  0  0
    5.8990   29.5760   16.2255 C   0  0  0  0  0  0  0  0  0  0  0  0
    4.7580   32.3386   16.1208 S   0  0  0  0  0  0  0  0  0  0  0  0
    3.6032   32.8835   15.4231 O   0  0  0  0  0  0  0  0  0  0  0  0
    4.6667   32.4522   17.5649 O   0  0  0  0  0  0  0  0  0  0  0  0
    5.9937   32.9576   15.6530 O   0  0  0  0  0  0  0  0  0  0  0  0
    6.0495   32.8789   14.6879 H   0  0  0  0  0  0  0  0  0  0  0  0
    7.3521   31.0146   17.7259 N   0  0  0  0  0  0  0  0  0  0  0  0
    7.4106   31.7853   17.1162 H   0  0  0  0  0  0  0  0  0  0  0  0
    7.5935   31.2734   19.0833 C   0  0  0  0  0  0  0  0  0  0  0  0
    6.9527   30.4613   20.0469 C   0  0  0  0  0  0  0  0  0  0  0  0
    7.1504   30.6707   21.3949 C   0  0  0  0  0  0  0  0  0  0  0  0
    7.9719   31.6698   21.8436 C   0  0  0  0  0  0  0  0  0  0  0  0
    8.6220   32.4910   20.9281 C   0  0  0  0  0  0  0  0  0  0  0  0
    8.4463   32.3091   19.5533 C   0  0  0  0  0  0  0  0  0  0  0  0
  1  2  2  0  0  0
  1 16  1  0  0  0
  1 10  1  0  0  0
  2  3  1  0  0  0
  3  4  2  0  0  0
  4  5  1  0  0  0
  5  6  2  0  0  0
  5 10  1  0  0  0
  6  7  1  0  0  0
  7  8  2  0  0  0
  8  9  1  0  0  0
 16 18  1  0  0  0
 11  9  1  0  0  0
 11 12  2  0  0  0
 11 13  2  0  0  0
 11 14  1  0  0  0
  9 10  2  0  0  0
 18 19  2  0  0  0
 18 23  1  0  0  0
 19 20  1  0  0  0
 20 21  2  0  0  0
 21 22  1  0  0  0
 22 23  2  0  0  0
 16 17  1  0  0  0
 14 15  1  0  0  0
M  END
> <minimizedAffinity>
-8.20098

$$$$
2ANS_2AN_A_201


 23 25  0  0  0  0  0  0  0  0999 V2000
    7.7491   29.6814   17.0310 C   0  0  0  0  0  0  0  0  0  0  0  0
    8.1715   31.0092   16.9835 C   0  0  0  0  0  0  0  0  0  0  0  0
    9.4663   31.3901   16.6185 C   0  0  0  0  0  0  0  0  0  0  0  0
   10.3793   30.4460   16.2908 C   0  0  0  0  0  0  0  0  0  0  0  0
   10.0471   29.0649   16.3084 C   0  0  0  0  0  0  0  0  0  0  0  0
   11.0512   28.1241   15.9544 C   0  0  0  0  0  0  0  0  0  0  0  0
   10.8160   26.7938   15.9457 C   0  0  0  0  0  0  0  0  0  0  0  0
    9.5480   26.3103   16.2945 C   0  0  0  0  0  0  0  0  0  0  0  0
    8.4923   27.1343   16.6560 C   0  0  0  0  0  0  0  0  0  0  0  0
    8.6994   28.6115   16.6842 C   0  0  0  0  0  0  0  0  0  0  0  0
    6.9851   26.1875   17.0441 S   0  0  0  0  0  0  0  0  0  0  0  0
    6.7167   26.2964   18.4702 O   0  0  0  0  0  0  0  0  0  0  0  0
    5.9229   26.7257   16.2140 O   0  0  0  0  0  0  0  0  0  0  0  0
    7.2565   24.8049   16.6655 O   0  0  0  0  0  0  0  0  0  0  0  0
    7.9667   24.4504   17.2231 H   0  0  0  0  0  0  0  0  0  0  0  0
    6.4181   29.4430   17.4167 N   0  0  0  0  0  0  0  0  0  0  0  0
    6.2789   28.7549   18.1069 H   0  0  0  0  0  0  0  0  0  0  0  0
    5.2666   30.0771   16.9269 C   0  0  0  0  0  0  0  0  0  0  0  0
    4.8060   29.7307   15.6360 C   0  0  0  0  0  0  0  0  0  0  0  0
    3.6816   30.3227   15.1020 C   0  0  0  0  0  0  0  0  0  0  0  0
    2.9758   31.2636   15.8028 C   0  0  0  0  0  0  0  0  0  0  0  0
    3.3952   31.6323   17.0769 C   0  0  0  0  0  0  0  0  0  0  0  0
    4.5306   31.0537   17.6515 C   0  0  0  0  0  0  0  0  0  0  0  0
  1  2  2  0  0  0
  1 16  1  0  0  0
  1 10  1  0  0  0
  2  3  1  0  0  0
  3  4  2  0  0  0
  4  5  1  0  0  0
  5  6  2  0  0  0
  5 10  1  0  0  0
  6  7  1  0  0  0
  7  8  2  0  0  0
  8  9  1  0  0  0
 16 18  1  0  0  0
 11  9  1  0  0  0
 11 12  2  0  0  0
 11 13  2  0  0  0
 11 14  1  0  0  0
  9 10  2  0  0  0
 18 19  2  0  0  0
 18 23  1  0  0  0
 19 20  1  0  0  0
 20 21  2  0  0  0
 21 22  1  0  0  0
 22 23  2  0  0  0
 16 17  1  0  0  0
 14 15  1  0  0  0
M  END
> <minimizedAffinity>
-8.13722

$$$$
2ANS_2AN_A_201


 23 25  0  0  0  0  0  0  0  0999 V2000
    6.7997   29.4580   18.1181 C   0  0  0  0  0  0  0  0  0  0  0  0
    7.5459   29.0661   19.2286 C   0  0  0  0  0  0  0  0  0  0  0  0
    7.7169   29.8688   20.3605 C   0  0  0  0  0  0  0  0  0  0  0  0
    7.1432   31.0938   20.4108 C   0  0  0  0  0  0  0  0  0  0  0  0
    6.3632   31.5850   19.3299 C   0  0  0  0  0  0  0  0  0  0  0  0
    5.7887   32.8793   19.4450 C   0  0  0  0  0  0  0  0  0  0  0  0
    5.0340   33.4185   18.4628 C   0  0  0  0  0  0  0  0  0  0  0  0
    4.8014   32.6921   17.2873 C   0  0  0  0  0  0  0  0  0  0  0  0
    5.3101   31.4209   17.0650 C   0  0  0  0  0  0  0  0  0  0  0  0
    6.1520   30.7803   18.1171 C   0  0  0  0  0  0  0  0  0  0  0  0
    4.8166   30.7590   15.4411 S   0  0  0  0  0  0  0  0  0  0  0  0
    5.9640   30.8051   14.5473 O   0  0  0  0  0  0  0  0  0  0  0  0
    4.3146   29.4161   15.6674 O   0  0  0  0  0  0  0  0  0  0  0  0
    3.7391   31.6148   14.9560 O   0  0  0  0  0  0  0  0  0  0  0  0
    4.0801   32.5105   14.8066 H   0  0  0  0  0  0  0  0  0  0  0  0
    6.7129   28.5499   17.0481 N   0  0  0  0  0  0  0  0  0  0  0  0
    6.1087   28.7978   16.3114 H   0  0  0  0  0  0  0  0  0  0  0  0
    7.3921   27.3298   16.9140 C   0  0  0  0  0  0  0  0  0  0  0  0
    6.6774   26.1331   17.1500 C   0  0  0  0  0  0  0  0  0  0  0  0
    7.2933   24.9053   17.0356 C   0  0  0  0  0  0  0  0  0  0  0  0
    8.6144   24.8048   16.6906 C   0  0  0  0  0  0  0  0  0  0  0  0
    9.3534   25.9584   16.4491 C   0  0  0  0  0  0  0  0  0  0  0  0
    8.7632   27.2212   16.5552 C   0  0  0  0  0  0  0  0  0  0  0  0
  1  2  2  0  0  0
  1 16  1  0  0  0
  1 10  1  0  0  0
  2  3  1  0  0  0
  3  4  2  0  0  0
  4  5  1  0  0  0
  5  6  2  0  0  0
  5 10  1  0  0  0
  6  7  1  0  0  0
  7  8  2  0  0  0
  8  9  1  0  0  0
 16 18  1  0  0  0
 11  9  1  0  0  0
 11 12  2  0  0  0
 11 13  2  0  0  0
 11 14  1  0  0  0
  9 10  2  0  0  0
 18 19  2  0  0  0
 18 23  1  0  0  0
 19 20  1  0  0  0
 20 21  2  0  0  0
 21 22  1  0  0  0
 22 23  2  0  0  0
 16 17  1  0  0  0
 14 15  1  0  0  0
M  END
> <minimizedAffinity>
-7.99294

$$$$
2ANS_2AN_A_201


 23 25  0  0  0  0  0  0  0  0999 V2000
    7.1037   29.9075   17.3809 C   0  0  0  0  0  0  0  0  0  0  0  0
    5.8272   30.0152   16.8307 C   0  0  0  0  0  0  0  0  0  0  0  0
    4.8336   30.8482   17.3541 C   0  0  0  0  0  0  0  0  0  0  0  0
    5.0923   31.5991   18.4501 C   0  0  0  0  0  0  0  0  0  0  0  0
    6.3626   31.5601   19.0847 C   0  0  0  0  0  0  0  0  0  0  0  0
    6.5698   32.3722   20.2319 C   0  0  0  0  0  0  0  0  0  0  0  0
    7.7482   32.3929   20.8922 C   0  0  0  0  0  0  0  0  0  0  0  0
    8.8091   31.5942   20.4451 C   0  0  0  0  0  0  0  0  0  0  0  0
    8.7221   30.7636   19.3376 C   0  0  0  0  0  0  0  0  0  0  0  0
    7.4420   30.7017   18.5738 C   0  0  0  0  0  0  0  0  0  0  0  0
   10.2784   29.8689   19.0273 S   0  0  0  0  0  0  0  0  0  0  0  0
   10.0893   28.4667   19.3676 O   0  0  0  0  0  0  0  0  0  0  0  0
   10.6183   30.0839   17.6327 O   0  0  0  0  0  0  0  0  0  0  0  0
   11.2869   30.4849   19.8830 O   0  0  0  0  0  0  0  0  0  0  0  0
   11.0549   30.3382   20.8134 H   0  0  0  0  0  0  0  0  0  0  0  0
    8.0035   29.0292   16.7517 N   0  0  0  0  0  0  0  0  0  0  0  0
    8.7544   29.4439   16.2685 H   0  0  0  0  0  0  0  0  0  0  0  0
    7.9499   27.6275   16.7364 C   0  0  0  0  0  0  0  0  0  0  0  0
    9.1658   26.9089   16.6736 C   0  0  0  0  0  0  0  0  0  0  0  0
    9.1744   25.5307   16.6532 C   0  0  0  0  0  0  0  0  0  0  0  0
    8.0083   24.8143   16.6930 C   0  0  0  0  0  0  0  0  0  0  0  0
    6.7902   25.4832   16.7559 C   0  0  0  0  0  0  0  0  0  0  0  0
    6.7416   26.8801   16.7784 C   0  0  0  0  0  0  0  0  0  0  0  0
  1  2  2  0  0  0
  1 16  1  0  0  0
  1 10  1  0  0  0
  2  3  1  0  0  0
  3  4  2  0  0  0
  4  5  1  0  0  0
  5  6  2  0  0  0
  5 10  1  0  0  0
  6  7  1  0  0  0
  7  8  2  0  0  0
  8  9  1  0  0  0
 16 18  1  0  0  0
 11  9  1  0  0  0
 11 12  2  0  0  0
 11 13  2  0  0  0
 11 14  1  0  0  0
  9 10  2  0  0  0
 18 19  2  0  0  0
 18 23  1  0  0  0
 19 20  1  0  0  0
 20 21  2  0  0  0
 21 22  1  0  0  0
 22 23  2  0  0  0
 16 17  1  0  0  0
 14 15  1  0  0  0
M  END
> <minimizedAffinity>
-7.98600

$$$$
2ANS_2AN_A_201


 23 25  0  0  0  0  0  0  0  0999 V2000
    7.0131   29.4812   16.1911 C   0  0  0  0  0  0  0  0  0  0  0  0
    5.9860   29.6855   15.2707 C   0  0  0  0  0  0  0  0  0  0  0  0
    5.1210   28.6715   14.8483 C   0  0  0  0  0  0  0  0  0  0  0  0
    5.2629   27.4175   15.3376 C   0  0  0  0  0  0  0  0  0  0  0  0
    6.2793   27.1070   16.2802 C   0  0  0  0  0  0  0  0  0  0  0  0
    6.3754   25.7712   16.7545 C   0  0  0  0  0  0  0  0  0  0  0  0
    7.3130   25.3946   17.6513 C   0  0  0  0  0  0  0  0  0  0  0  0
    8.2270   26.3384   18.1384 C   0  0  0  0  0  0  0  0  0  0  0  0
    8.2277   27.6693   17.7476 C   0  0  0  0  0  0  0  0  0  0  0  0
    7.2143   28.1370   16.7575 C   0  0  0  0  0  0  0  0  0  0  0  0
    9.5413   28.6254   18.5716 S   0  0  0  0  0  0  0  0  0  0  0  0
   10.2167   27.7647   19.5311 O   0  0  0  0  0  0  0  0  0  0  0  0
   10.4174   29.1256   17.5280 O   0  0  0  0  0  0  0  0  0  0  0  0
    8.8821   29.7415   19.2413 O   0  0  0  0  0  0  0  0  0  0  0  0
    8.2982   29.4017   19.9373 H   0  0  0  0  0  0  0  0  0  0  0  0
    7.8085   30.5916   16.5248 N   0  0  0  0  0  0  0  0  0  0  0  0
    8.7829   30.4516   16.5129 H   0  0  0  0  0  0  0  0  0  0  0  0
    7.3672   31.8770   16.8728 C   0  0  0  0  0  0  0  0  0  0  0  0
    6.2978   31.9952   17.7899 C   0  0  0  0  0  0  0  0  0  0  0  0
    5.8207   33.2323   18.1667 C   0  0  0  0  0  0  0  0  0  0  0  0
    6.3656   34.3843   17.6662 C   0  0  0  0  0  0  0  0  0  0  0  0
    7.4199   34.3118   16.7617 C   0  0  0  0  0  0  0  0  0  0  0  0
    7.9307   33.0753   16.3561 C   0  0  0  0  0  0  0  0  0  0  0  0
  1  2  2  0  0  0
  1 16  1  0  0  0
  1 10  1  0  0  0
  2  3  1  0  0  0
  3  4  2  0  0  0
  4  5  1  0  0  0
  5  6  2  0  0  0
  5 10  1  0  0  0
  6  7  1  0  0  0
  7  8  2  0  0  0
  8  9  1  0  0  0
 16 18  1  0  0  0
 11  9  1  0  0  0
 11 12  2  0  0  0
 11 13  2  0  0  0
 11 14  1  0  0  0
  9 10  2  0  0  0
 18 19  2  0  0  0
 18 23  1  0  0  0
 19 20  1  0  0  0
 20 21  2  0  0  0
 21 22  1  0  0  0
 22 23  2  0  0  0
 16 17  1  0  0  0
 14 15  1  0  0  0
M  END
> <minimizedAffinity>
-7.92324

$$$$
2ANS_2AN_A_201


 23 25  0  0  0  0  0  0  0  0999 V2000
    7.3201   30.3970   16.7841 C   0  0  0  0  0  0  0  0  0  0  0  0
    6.6162   30.9467   15.7136 C   0  0  0  0  0  0  0  0  0  0  0  0
    5.8113   30.1913   14.8555 C   0  0  0  0  0  0  0  0  0  0  0  0
    5.6899   28.8567   15.0463 C   0  0  0  0  0  0  0  0  0  0  0  0
    6.3672   28.2016   16.1093 C   0  0  0  0  0  0  0  0  0  0  0  0
    6.1985   26.7985   16.2548 C   0  0  0  0  0  0  0  0  0  0  0  0
    6.8070   26.1015   17.2391 C   0  0  0  0  0  0  0  0  0  0  0  0
    7.6340   26.7679   18.1531 C   0  0  0  0  0  0  0  0  0  0  0  0
    7.8713   28.1339   18.1090 C   0  0  0  0  0  0  0  0  0  0  0  0
    7.2252   28.9502   17.0403 C   0  0  0  0  0  0  0  0  0  0  0  0
    8.9869   28.6796   19.4418 S   0  0  0  0  0  0  0  0  0  0  0  0
    9.1110   27.6077   20.4181 O   0  0  0  0  0  0  0  0  0  0  0  0
   10.2464   29.0403   18.8171 O   0  0  0  0  0  0  0  0  0  0  0  0
    8.3731   29.8621   20.0364 O   0  0  0  0  0  0  0  0  0  0  0  0
    7.5322   29.6155   20.4523 H   0  0  0  0  0  0  0  0  0  0  0  0
    8.0926   31.2749   17.5649 N   0  0  0  0  0  0  0  0  0  0  0  0
    7.7468   31.4813   18.4633 H   0  0  0  0  0  0  0  0  0  0  0  0
    9.3015   31.8892   17.2056 C   0  0  0  0  0  0  0  0  0  0  0  0
   10.0773   32.4923   18.2220 C   0  0  0  0  0  0  0  0  0  0  0  0
   11.2725   33.1127   17.9276 C   0  0  0  0  0  0  0  0  0  0  0  0
   11.7462   33.1650   16.6441 C   0  0  0  0  0  0  0  0  0  0  0  0
   11.0135   32.5831   15.6146 C   0  0  0  0  0  0  0  0  0  0  0  0
    9.7972   31.9450   15.8745 C   0  0  0  0  0  0  0  0  0  0  0  0
  1  2  2  0  0  0
  1 16  1  0  0  0
  1 10  1  0  0  0
  2  3  1  0  0  0
  3  4  2  0  0  0
  4  5  1  0  0  0
  5  6  2  0  0  0
  5 10  1  0  0  0
  6  7  1  0  0  0
  7  8  2  0  0  0
  8  9  1  0  0  0
 16 18  1  0  0  0
 11  9  1  0  0  0
 11 12  2  0  0  0
 11 13  2  0  0  0
 11 14  1  0  0  0
  9 10  2  0  0  0
 18 19  2  0  0  0
 18 23  1  0  0  0
 19 20  1  0  0  0
 20 21  2  0  0  0
 21 22  1  0  0  0
 22 23  2  0  0  0
 16 17  1  0  0  0
 14 15  1  0  0  0
M  END
> <minimizedAffinity>
-7.90795

$$$$
