2A8G_GNG_B_201


 24 26  0  0  0  0  0  0  0  0999 V2000
   11.0482    0.5421    3.5650 N   0  0  0  0  0  0  0  0  0  0  0  0
   10.1382    1.5255    3.4549 C   0  0  0  0  0  0  0  0  0  0  0  0
   10.0379    1.8413    2.1552 N   0  0  0  0  0  0  0  0  0  0  0  0
   10.8642    1.0318    1.4625 C   0  0  0  0  0  0  0  0  0  0  0  0
   11.5073    0.2017    2.3481 C   0  0  0  0  0  0  0  0  0  0  0  0
   12.4127   -0.7174    1.8832 N   0  0  0  0  0  0  0  0  0  0  0  0
   12.6651   -0.8133    0.5437 C   0  0  0  0  0  0  0  0  0  0  0  0
   12.0454    0.0055   -0.3187 N   0  0  0  0  0  0  0  0  0  0  0  0
   11.1709    0.9073    0.1293 C   0  0  0  0  0  0  0  0  0  0  0  0
   10.6249    1.6313   -0.6965 O   0  0  0  0  0  0  0  0  0  0  0  0
   13.5385   -1.6949    0.0127 N   0  0  0  0  0  0  0  0  0  0  0  0
   12.8815   -1.3089    2.5153 H   0  0  0  0  0  0  0  0  0  0  0  0
   14.0229   -2.3211    0.5979 H   0  0  0  0  0  0  0  0  0  0  0  0
   13.6910   -1.7117   -0.9597 H   0  0  0  0  0  0  0  0  0  0  0  0
   12.6801   -1.7053    5.9093 C   0  0  0  0  0  0  0  0  0  0  0  0
   12.5760   -0.9839    4.6861 O   0  0  0  0  0  0  0  0  0  0  0  0
   11.4697   -0.1015    4.8350 C   0  0  0  0  0  0  0  0  0  0  0  0
   10.4121   -0.9696    5.4843 C   0  0  0  0  0  0  0  0  0  0  0  0
   11.2703   -1.7358    6.4726 C   0  0  0  0  0  0  0  0  0  0  0  0
   11.2665   -0.9619    7.6643 O   0  0  0  0  0  0  0  0  0  0  0  0
   11.5770   -0.0642    7.4678 H   0  0  0  0  0  0  0  0  0  0  0  0
   14.2323   -3.2557    6.6513 O   0  0  0  0  0  0  0  0  0  0  0  0
   13.2655   -3.0702    5.6221 C   0  0  0  0  0  0  0  0  0  0  0  0
   14.6611   -4.1187    6.5404 H   0  0  0  0  0  0  0  0  0  0  0  0
 22 23  1  0  0  0
 23 15  1  0  0  0
 15 16  1  0  0  0
 15 19  1  0  0  0
 16 17  1  0  0  0
 17  1  1  0  0  0
 17 18  1  0  0  0
  1  2  1  0  0  0
  1  5  1  0  0  0
  2  3  2  0  0  0
  3  4  1  0  0  0
  4  5  2  0  0  0
  4  9  1  0  0  0
  5  6  1  0  0  0
  6  7  1  0  0  0
  7  8  2  0  0  0
  7 11  1  0  0  0
  8  9  1  0  0  0
  9 10  2  0  0  0
 18 19  1  0  0  0
 19 20  1  0  0  0
 22 24  1  0  0  0
  6 12  1  0  0  0
 11 13  1  0  0  0
 11 14  1  0  0  0
 20 21  1  0  0  0
M  END
> <minimizedAffinity>
-7.55085

$$$$
2A8G_GNG_B_201


 24 26  0  0  0  0  0  0  0  0999 V2000
   11.3437    0.0348    3.0088 N   0  0  0  0  0  0  0  0  0  0  0  0
   10.4266    0.9869    3.2532 C   0  0  0  0  0  0  0  0  0  0  0  0
   10.2431    1.0416    4.5807 N   0  0  0  0  0  0  0  0  0  0  0  0
   11.0690    0.1440    5.1551 C   0  0  0  0  0  0  0  0  0  0  0  0
   11.7738   -0.4976    4.1659 C   0  0  0  0  0  0  0  0  0  0  0  0
   12.6825   -1.4690    4.4998 N   0  0  0  0  0  0  0  0  0  0  0  0
   12.8927   -1.7887    5.8115 C   0  0  0  0  0  0  0  0  0  0  0  0
   12.1956   -1.1698    6.7755 N   0  0  0  0  0  0  0  0  0  0  0  0
   11.3040   -0.2310    6.4556 C   0  0  0  0  0  0  0  0  0  0  0  0
   10.6936    0.3113    7.3708 O   0  0  0  0  0  0  0  0  0  0  0  0
   13.7722   -2.7293    6.2161 N   0  0  0  0  0  0  0  0  0  0  0  0
   13.1841   -1.9366    3.7934 H   0  0  0  0  0  0  0  0  0  0  0  0
   14.3119   -3.2165    5.5523 H   0  0  0  0  0  0  0  0  0  0  0  0
   13.8739   -2.9281    7.1749 H   0  0  0  0  0  0  0  0  0  0  0  0
   12.5604   -1.9862    0.2438 C   0  0  0  0  0  0  0  0  0  0  0  0
   11.8235   -1.7635    1.4417 O   0  0  0  0  0  0  0  0  0  0  0  0
   11.8383   -0.3583    1.6650 C   0  0  0  0  0  0  0  0  0  0  0  0
   13.2755    0.0277    1.3835 C   0  0  0  0  0  0  0  0  0  0  0  0
   13.5457   -0.8336    0.1646 C   0  0  0  0  0  0  0  0  0  0  0  0
   13.1860   -0.0365   -0.9554 O   0  0  0  0  0  0  0  0  0  0  0  0
   12.2662    0.2568   -0.8614 H   0  0  0  0  0  0  0  0  0  0  0  0
   13.5146   -3.6605   -1.0407 O   0  0  0  0  0  0  0  0  0  0  0  0
   13.2052   -3.3528    0.3150 C   0  0  0  0  0  0  0  0  0  0  0  0
   13.9369   -4.5325   -1.0860 H   0  0  0  0  0  0  0  0  0  0  0  0
 22 23  1  0  0  0
 23 15  1  0  0  0
 15 16  1  0  0  0
 15 19  1  0  0  0
 16 17  1  0  0  0
 17  1  1  0  0  0
 17 18  1  0  0  0
  1  2  1  0  0  0
  1  5  1  0  0  0
  2  3  2  0  0  0
  3  4  1  0  0  0
  4  5  2  0  0  0
  4  9  1  0  0  0
  5  6  1  0  0  0
  6  7  1  0  0  0
  7  8  2  0  0  0
  7 11  1  0  0  0
  8  9  1  0  0  0
  9 10  2  0  0  0
 18 19  1  0  0  0
 19 20  1  0  0  0
 22 24  1  0  0  0
  6 12  1  0  0  0
 11 13  1  0  0  0
 11 14  1  0  0  0
 20 21  1  0  0  0
M  END
> <minimizedAffinity>
-7.48218

$$$$
2A8G_GNG_B_201


 24 26  0  0  0  0  0  0  0  0999 V2000
   12.8627   -2.3543    2.3050 N   0  0  0  0  0  0  0  0  0  0  0  0
   13.0035   -1.1478    1.7288 C   0  0  0  0  0  0  0  0  0  0  0  0
   12.9599   -1.3257    0.4001 N   0  0  0  0  0  0  0  0  0  0  0  0
   12.7623   -2.6375    0.1593 C   0  0  0  0  0  0  0  0  0  0  0  0
   12.6962   -3.2979    1.3620 C   0  0  0  0  0  0  0  0  0  0  0  0
   12.5047   -4.6557    1.3820 N   0  0  0  0  0  0  0  0  0  0  0  0
   12.3698   -5.3458    0.2105 C   0  0  0  0  0  0  0  0  0  0  0  0
   12.4463   -4.7017   -0.9632 N   0  0  0  0  0  0  0  0  0  0  0  0
   12.6416   -3.3827   -0.9883 C   0  0  0  0  0  0  0  0  0  0  0  0
   12.6999   -2.8356   -2.0845 O   0  0  0  0  0  0  0  0  0  0  0  0
   12.1751   -6.6802    0.1515 N   0  0  0  0  0  0  0  0  0  0  0  0
   12.4644   -5.1339    2.2417 H   0  0  0  0  0  0  0  0  0  0  0  0
   12.1109   -7.2054    0.9817 H   0  0  0  0  0  0  0  0  0  0  0  0
   12.0973   -7.1282   -0.7217 H   0  0  0  0  0  0  0  0  0  0  0  0
   11.7895   -2.4916    5.7748 C   0  0  0  0  0  0  0  0  0  0  0  0
   11.5768   -2.4757    4.3669 O   0  0  0  0  0  0  0  0  0  0  0  0
   12.8596   -2.6141    3.7669 C   0  0  0  0  0  0  0  0  0  0  0  0
   13.7300   -1.6758    4.5768 C   0  0  0  0  0  0  0  0  0  0  0  0
   13.1980   -1.9584    5.9687 C   0  0  0  0  0  0  0  0  0  0  0  0
   13.9941   -3.0210    6.4750 O   0  0  0  0  0  0  0  0  0  0  0  0
   13.9545   -3.7739    5.8647 H   0  0  0  0  0  0  0  0  0  0  0  0
   11.3251   -1.1985    7.6390 O   0  0  0  0  0  0  0  0  0  0  0  0
   10.7129   -1.6630    6.4399 C   0  0  0  0  0  0  0  0  0  0  0  0
   10.6946   -0.6512    8.1329 H   0  0  0  0  0  0  0  0  0  0  0  0
 22 23  1  0  0  0
 23 15  1  0  0  0
 15 16  1  0  0  0
 15 19  1  0  0  0
 16 17  1  0  0  0
 17  1  1  0  0  0
 17 18  1  0  0  0
  1  2  1  0  0  0
  1  5  1  0  0  0
  2  3  2  0  0  0
  3  4  1  0  0  0
  4  5  2  0  0  0
  4  9  1  0  0  0
  5  6  1  0  0  0
  6  7  1  0  0  0
  7  8  2  0  0  0
  7 11  1  0  0  0
  8  9  1  0  0  0
  9 10  2  0  0  0
 18 19  1  0  0  0
 19 20  1  0  0  0
 22 24  1  0  0  0
  6 12  1  0  0  0
 11 13  1  0  0  0
 11 14  1  0  0  0
 20 21  1  0  0  0
M  END
> <minimizedAffinity>
-7.44476

$$$$
2A8G_GNG_B_201


 24 26  0  0  0  0  0  0  0  0999 V2000
   12.6397   -2.7742    2.3545 N   0  0  0  0  0  0  0  0  0  0  0  0
   12.8278   -3.7855    1.4890 C   0  0  0  0  0  0  0  0  0  0  0  0
   12.6829   -3.2912    0.2505 N   0  0  0  0  0  0  0  0  0  0  0  0
   12.4352   -1.9699    0.3532 C   0  0  0  0  0  0  0  0  0  0  0  0
   12.4091   -1.6318    1.6844 C   0  0  0  0  0  0  0  0  0  0  0  0
   12.1669   -0.3327    2.0509 N   0  0  0  0  0  0  0  0  0  0  0  0
   11.9633    0.6222    1.0950 C   0  0  0  0  0  0  0  0  0  0  0  0
   11.9775    0.2887   -0.2038 N   0  0  0  0  0  0  0  0  0  0  0  0
   12.2033   -0.9750   -0.5652 C   0  0  0  0  0  0  0  0  0  0  0  0
   12.2119   -1.2323   -1.7644 O   0  0  0  0  0  0  0  0  0  0  0  0
   11.7238    1.9198    1.3792 N   0  0  0  0  0  0  0  0  0  0  0  0
   12.1396   -0.0878    3.0041 H   0  0  0  0  0  0  0  0  0  0  0  0
   11.7015    2.2226    2.3157 H   0  0  0  0  0  0  0  0  0  0  0  0
   11.5713    2.5634    0.6499 H   0  0  0  0  0  0  0  0  0  0  0  0
   11.7736   -2.4673    5.8710 C   0  0  0  0  0  0  0  0  0  0  0  0
   11.4771   -2.5737    4.4824 O   0  0  0  0  0  0  0  0  0  0  0  0
   12.7047   -2.8849    3.8338 C   0  0  0  0  0  0  0  0  0  0  0  0
   13.6980   -1.9513    4.4938 C   0  0  0  0  0  0  0  0  0  0  0  0
   13.2307   -2.0446    5.9337 C   0  0  0  0  0  0  0  0  0  0  0  0
   13.9655   -3.1176    6.5064 O   0  0  0  0  0  0  0  0  0  0  0  0
   13.8261   -3.9214    5.9816 H   0  0  0  0  0  0  0  0  0  0  0  0
   11.4015   -1.1836    7.7623 O   0  0  0  0  0  0  0  0  0  0  0  0
   10.8124   -1.4837    6.5009 C   0  0  0  0  0  0  0  0  0  0  0  0
   10.8414   -0.5507    8.2384 H   0  0  0  0  0  0  0  0  0  0  0  0
 22 23  1  0  0  0
 23 15  1  0  0  0
 15 16  1  0  0  0
 15 19  1  0  0  0
 16 17  1  0  0  0
 17  1  1  0  0  0
 17 18  1  0  0  0
  1  2  1  0  0  0
  1  5  1  0  0  0
  2  3  2  0  0  0
  3  4  1  0  0  0
  4  5  2  0  0  0
  4  9  1  0  0  0
  5  6  1  0  0  0
  6  7  1  0  0  0
  7  8  2  0  0  0
  7 11  1  0  0  0
  8  9  1  0  0  0
  9 10  2  0  0  0
 18 19  1  0  0  0
 19 20  1  0  0  0
 22 24  1  0  0  0
  6 12  1  0  0  0
 11 13  1  0  0  0
 11 14  1  0  0  0
 20 21  1  0  0  0
M  END
> <minimizedAffinity>
-7.42950

$$$$
2A8G_GNG_B_201


 24 26  0  0  0  0  0  0  0  0999 V2000
   12.3804    0.3530    2.0455 N   0  0  0  0  0  0  0  0  0  0  0  0
   13.5627   -0.2865    2.0210 C   0  0  0  0  0  0  0  0  0  0  0  0
   13.7950   -0.7564    3.2557 N   0  0  0  0  0  0  0  0  0  0  0  0
   12.7417   -0.4318    4.0323 C   0  0  0  0  0  0  0  0  0  0  0  0
   11.8375    0.2695    3.2725 C   0  0  0  0  0  0  0  0  0  0  0  0
   10.6748    0.7199    3.8435 N   0  0  0  0  0  0  0  0  0  0  0  0
   10.4133    0.4622    5.1596 C   0  0  0  0  0  0  0  0  0  0  0  0
   11.3022   -0.2124    5.9033 N   0  0  0  0  0  0  0  0  0  0  0  0
   12.4386   -0.6445    5.3552 C   0  0  0  0  0  0  0  0  0  0  0  0
   13.2192   -1.2613    6.0724 O   0  0  0  0  0  0  0  0  0  0  0  0
    9.2904    0.8692    5.7883 N   0  0  0  0  0  0  0  0  0  0  0  0
   10.0277    1.2296    3.3043 H   0  0  0  0  0  0  0  0  0  0  0  0
    8.6021    1.3689    5.2924 H   0  0  0  0  0  0  0  0  0  0  0  0
    9.1595    0.6664    6.7428 H   0  0  0  0  0  0  0  0  0  0  0  0
   10.3776    2.6659    0.0837 C   0  0  0  0  0  0  0  0  0  0  0  0
   11.1587    2.2847    1.2115 O   0  0  0  0  0  0  0  0  0  0  0  0
   11.7442    1.0292    0.8867 C   0  0  0  0  0  0  0  0  0  0  0  0
   10.6016    0.2605    0.2564 C   0  0  0  0  0  0  0  0  0  0  0  0
    9.9723    1.3603   -0.5772 C   0  0  0  0  0  0  0  0  0  0  0  0
   10.6177    1.2999   -1.8417 O   0  0  0  0  0  0  0  0  0  0  0  0
   11.5765    1.3813   -1.7195 H   0  0  0  0  0  0  0  0  0  0  0  0
    8.7572    4.1625   -0.6220 O   0  0  0  0  0  0  0  0  0  0  0  0
    9.2158    3.5105    0.5582 C   0  0  0  0  0  0  0  0  0  0  0  0
    8.0028    4.7321   -0.4044 H   0  0  0  0  0  0  0  0  0  0  0  0
 22 23  1  0  0  0
 23 15  1  0  0  0
 15 16  1  0  0  0
 15 19  1  0  0  0
 16 17  1  0  0  0
 17  1  1  0  0  0
 17 18  1  0  0  0
  1  2  1  0  0  0
  1  5  1  0  0  0
  2  3  2  0  0  0
  3  4  1  0  0  0
  4  5  2  0  0  0
  4  9  1  0  0  0
  5  6  1  0  0  0
  6  7  1  0  0  0
  7  8  2  0  0  0
  7 11  1  0  0  0
  8  9  1  0  0  0
  9 10  2  0  0  0
 18 19  1  0  0  0
 19 20  1  0  0  0
 22 24  1  0  0  0
  6 12  1  0  0  0
 11 13  1  0  0  0
 11 14  1  0  0  0
 20 21  1  0  0  0
M  END
> <minimizedAffinity>
-7.31716

$$$$
2A8G_GNG_B_201


 24 26  0  0  0  0  0  0  0  0999 V2000
   10.8432    0.3407    3.3162 N   0  0  0  0  0  0  0  0  0  0  0  0
    9.9049    1.1332    3.8629 C   0  0  0  0  0  0  0  0  0  0  0  0
    9.9963    1.0096    5.1954 N   0  0  0  0  0  0  0  0  0  0  0  0
   11.0103    0.1642    5.4691 C   0  0  0  0  0  0  0  0  0  0  0  0
   11.5559   -0.2631    4.2831 C   0  0  0  0  0  0  0  0  0  0  0  0
   12.6080   -1.1426    4.2970 N   0  0  0  0  0  0  0  0  0  0  0  0
   13.1172   -1.5829    5.4861 C   0  0  0  0  0  0  0  0  0  0  0  0
   12.5761   -1.1741    6.6430 N   0  0  0  0  0  0  0  0  0  0  0  0
   11.5469   -0.3260    6.6347 C   0  0  0  0  0  0  0  0  0  0  0  0
   11.0879    0.0241    7.7168 O   0  0  0  0  0  0  0  0  0  0  0  0
   14.1524   -2.4441    5.5785 N   0  0  0  0  0  0  0  0  0  0  0  0
   12.9969   -1.4573    3.4490 H   0  0  0  0  0  0  0  0  0  0  0  0
   14.5893   -2.7781    4.7619 H   0  0  0  0  0  0  0  0  0  0  0  0
   14.4706   -2.7382    6.4625 H   0  0  0  0  0  0  0  0  0  0  0  0
   12.1936   -0.8773    0.1693 C   0  0  0  0  0  0  0  0  0  0  0  0
   11.8230   -1.0009    1.5386 O   0  0  0  0  0  0  0  0  0  0  0  0
   11.0855    0.1725    1.8609 C   0  0  0  0  0  0  0  0  0  0  0  0
   11.8943    1.2828    1.2231 C   0  0  0  0  0  0  0  0  0  0  0  0
   12.2674    0.6174   -0.0878 C   0  0  0  0  0  0  0  0  0  0  0  0
   11.2263    0.9494   -0.9962 O   0  0  0  0  0  0  0  0  0  0  0  0
   10.3739    0.6698   -0.6272 H   0  0  0  0  0  0  0  0  0  0  0  0
   14.2825   -0.7022   -0.8153 O   0  0  0  0  0  0  0  0  0  0  0  0
   13.4973   -1.6121   -0.0512 C   0  0  0  0  0  0  0  0  0  0  0  0
   15.1469   -1.1000   -1.0033 H   0  0  0  0  0  0  0  0  0  0  0  0
 22 23  1  0  0  0
 23 15  1  0  0  0
 15 16  1  0  0  0
 15 19  1  0  0  0
 16 17  1  0  0  0
 17  1  1  0  0  0
 17 18  1  0  0  0
  1  2  1  0  0  0
  1  5  1  0  0  0
  2  3  2  0  0  0
  3  4  1  0  0  0
  4  5  2  0  0  0
  4  9  1  0  0  0
  5  6  1  0  0  0
  6  7  1  0  0  0
  7  8  2  0  0  0
  7 11  1  0  0  0
  8  9  1  0  0  0
  9 10  2  0  0  0
 18 19  1  0  0  0
 19 20  1  0  0  0
 22 24  1  0  0  0
  6 12  1  0  0  0
 11 13  1  0  0  0
 11 14  1  0  0  0
 20 21  1  0  0  0
M  END
> <minimizedAffinity>
-7.21849

$$$$
2A8G_GNG_B_201


 24 26  0  0  0  0  0  0  0  0999 V2000
   12.5816   -3.1564    3.0751 N   0  0  0  0  0  0  0  0  0  0  0  0
   12.9025   -4.4595    2.9959 C   0  0  0  0  0  0  0  0  0  0  0  0
   13.0607   -4.7598    1.6983 N   0  0  0  0  0  0  0  0  0  0  0  0
   12.8664   -3.6347    0.9812 C   0  0  0  0  0  0  0  0  0  0  0  0
   12.5650   -2.6111    1.8463 C   0  0  0  0  0  0  0  0  0  0  0  0
   12.3167   -1.3557    1.3534 N   0  0  0  0  0  0  0  0  0  0  0  0
   12.3797   -1.1230    0.0084 C   0  0  0  0  0  0  0  0  0  0  0  0
   12.6625   -2.1257   -0.8360 N   0  0  0  0  0  0  0  0  0  0  0  0
   12.8956   -3.3503   -0.3624 C   0  0  0  0  0  0  0  0  0  0  0  0
   13.1550   -4.2348   -1.1716 O   0  0  0  0  0  0  0  0  0  0  0  0
   12.1520    0.0851   -0.5487 N   0  0  0  0  0  0  0  0  0  0  0  0
   12.0928   -0.6211    1.9695 H   0  0  0  0  0  0  0  0  0  0  0  0
   11.9397    0.8584    0.0223 H   0  0  0  0  0  0  0  0  0  0  0  0
   12.1983    0.1930   -1.5262 H   0  0  0  0  0  0  0  0  0  0  0  0
   11.2763   -0.6876    5.4012 C   0  0  0  0  0  0  0  0  0  0  0  0
   11.2312   -1.4927    4.2276 O   0  0  0  0  0  0  0  0  0  0  0  0
   12.3127   -2.4116    4.3312 C   0  0  0  0  0  0  0  0  0  0  0  0
   13.4616   -1.5502    4.8127 C   0  0  0  0  0  0  0  0  0  0  0  0
   12.7351   -0.6824    5.8225 C   0  0  0  0  0  0  0  0  0  0  0  0
   12.8278   -1.3747    7.0599 O   0  0  0  0  0  0  0  0  0  0  0  0
   12.4658   -2.2689    6.9581 H   0  0  0  0  0  0  0  0  0  0  0  0
    9.5538    0.7809    5.8913 O   0  0  0  0  0  0  0  0  0  0  0  0
   10.7172    0.6799    5.0761 C   0  0  0  0  0  0  0  0  0  0  0  0
    9.1284    1.6398    5.7426 H   0  0  0  0  0  0  0  0  0  0  0  0
 22 23  1  0  0  0
 23 15  1  0  0  0
 15 16  1  0  0  0
 15 19  1  0  0  0
 16 17  1  0  0  0
 17  1  1  0  0  0
 17 18  1  0  0  0
  1  2  1  0  0  0
  1  5  1  0  0  0
  2  3  2  0  0  0
  3  4  1  0  0  0
  4  5  2  0  0  0
  4  9  1  0  0  0
  5  6  1  0  0  0
  6  7  1  0  0  0
  7  8  2  0  0  0
  7 11  1  0  0  0
  8  9  1  0  0  0
  9 10  2  0  0  0
 18 19  1  0  0  0
 19 20  1  0  0  0
 22 24  1  0  0  0
  6 12  1  0  0  0
 11 13  1  0  0  0
 11 14  1  0  0  0
 20 21  1  0  0  0
M  END
> <minimizedAffinity>
-7.09241

$$$$
2A8G_GNG_B_201


 24 26  0  0  0  0  0  0  0  0999 V2000
   11.4896    0.2788    2.9298 N   0  0  0  0  0  0  0  0  0  0  0  0
   10.4557    1.0953    3.1973 C   0  0  0  0  0  0  0  0  0  0  0  0
   10.1963    1.0041    4.5101 N   0  0  0  0  0  0  0  0  0  0  0  0
   11.0898    0.1544    5.0555 C   0  0  0  0  0  0  0  0  0  0  0  0
   11.9167   -0.3086    4.0611 C   0  0  0  0  0  0  0  0  0  0  0  0
   12.9137   -1.1995    4.3663 N   0  0  0  0  0  0  0  0  0  0  0  0
   13.0895   -1.6156    5.6559 C   0  0  0  0  0  0  0  0  0  0  0  0
   12.2742   -1.1719    6.6237 N   0  0  0  0  0  0  0  0  0  0  0  0
   11.2973   -0.3127    6.3306 C   0  0  0  0  0  0  0  0  0  0  0  0
   10.5796    0.0696    7.2488 O   0  0  0  0  0  0  0  0  0  0  0  0
   14.0501   -2.4859    6.0321 N   0  0  0  0  0  0  0  0  0  0  0  0
   13.5036   -1.5396    3.6552 H   0  0  0  0  0  0  0  0  0  0  0  0
   14.6778   -2.8452    5.3642 H   0  0  0  0  0  0  0  0  0  0  0  0
   14.1231   -2.7614    6.9744 H   0  0  0  0  0  0  0  0  0  0  0  0
   11.9079    0.1457   -0.6781 C   0  0  0  0  0  0  0  0  0  0  0  0
   11.3490    0.6520    0.5297 O   0  0  0  0  0  0  0  0  0  0  0  0
   12.0979    0.0716    1.5912 C   0  0  0  0  0  0  0  0  0  0  0  0
   12.2312   -1.3788    1.1759 C   0  0  0  0  0  0  0  0  0  0  0  0
   12.4946   -1.2050   -0.3076 C   0  0  0  0  0  0  0  0  0  0  0  0
   13.9064   -1.1110   -0.4379 O   0  0  0  0  0  0  0  0  0  0  0  0
   14.2352   -0.3889    0.1201 H   0  0  0  0  0  0  0  0  0  0  0  0
    9.6398   -0.2023   -0.9910 O   0  0  0  0  0  0  0  0  0  0  0  0
   10.8226    0.0857   -1.7301 C   0  0  0  0  0  0  0  0  0  0  0  0
    8.8851   -0.2587   -1.5977 H   0  0  0  0  0  0  0  0  0  0  0  0
 22 23  1  0  0  0
 23 15  1  0  0  0
 15 16  1  0  0  0
 15 19  1  0  0  0
 16 17  1  0  0  0
 17  1  1  0  0  0
 17 18  1  0  0  0
  1  2  1  0  0  0
  1  5  1  0  0  0
  2  3  2  0  0  0
  3  4  1  0  0  0
  4  5  2  0  0  0
  4  9  1  0  0  0
  5  6  1  0  0  0
  6  7  1  0  0  0
  7  8  2  0  0  0
  7 11  1  0  0  0
  8  9  1  0  0  0
  9 10  2  0  0  0
 18 19  1  0  0  0
 19 20  1  0  0  0
 22 24  1  0  0  0
  6 12  1  0  0  0
 11 13  1  0  0  0
 11 14  1  0  0  0
 20 21  1  0  0  0
M  END
> <minimizedAffinity>
-7.07874

$$$$
2A8G_GNG_B_201


 24 26  0  0  0  0  0  0  0  0999 V2000
   12.8395   -0.4934    2.0521 N   0  0  0  0  0  0  0  0  0  0  0  0
   12.9677    0.5651    1.2333 C   0  0  0  0  0  0  0  0  0  0  0  0
   13.0076    0.1018   -0.0248 N   0  0  0  0  0  0  0  0  0  0  0  0
   12.8739   -1.2391    0.0182 C   0  0  0  0  0  0  0  0  0  0  0  0
   12.7634   -1.6259    1.3316 C   0  0  0  0  0  0  0  0  0  0  0  0
   12.6224   -2.9549    1.6390 N   0  0  0  0  0  0  0  0  0  0  0  0
   12.5813   -3.8881    0.6418 C   0  0  0  0  0  0  0  0  0  0  0  0
   12.7011   -3.5104   -0.6393 N   0  0  0  0  0  0  0  0  0  0  0  0
   12.8477   -2.2201   -0.9431 C   0  0  0  0  0  0  0  0  0  0  0  0
   12.9485   -1.9212   -2.1283 O   0  0  0  0  0  0  0  0  0  0  0  0
   12.4408   -5.2115    0.8670 N   0  0  0  0  0  0  0  0  0  0  0  0
   12.5506   -3.2370    2.5795 H   0  0  0  0  0  0  0  0  0  0  0  0
   12.3487   -5.5471    1.7879 H   0  0  0  0  0  0  0  0  0  0  0  0
   12.4305   -5.8412    0.1103 H   0  0  0  0  0  0  0  0  0  0  0  0
   13.0124   -1.4566    5.5524 C   0  0  0  0  0  0  0  0  0  0  0  0
   13.4002   -1.5233    4.1839 O   0  0  0  0  0  0  0  0  0  0  0  0
   12.7620   -0.4304    3.5336 C   0  0  0  0  0  0  0  0  0  0  0  0
   11.3553   -0.4602    4.0940 C   0  0  0  0  0  0  0  0  0  0  0  0
   11.6572   -0.7719    5.5473 C   0  0  0  0  0  0  0  0  0  0  0  0
   11.8096    0.4883    6.1860 O   0  0  0  0  0  0  0  0  0  0  0  0
   12.4952    1.0011    5.7300 H   0  0  0  0  0  0  0  0  0  0  0  0
   14.3020   -3.0144    6.6811 O   0  0  0  0  0  0  0  0  0  0  0  0
   13.0005   -2.8568    6.1246 C   0  0  0  0  0  0  0  0  0  0  0  0
   14.3806   -3.8975    7.0746 H   0  0  0  0  0  0  0  0  0  0  0  0
 22 23  1  0  0  0
 23 15  1  0  0  0
 15 16  1  0  0  0
 15 19  1  0  0  0
 16 17  1  0  0  0
 17  1  1  0  0  0
 17 18  1  0  0  0
  1  2  1  0  0  0
  1  5  1  0  0  0
  2  3  2  0  0  0
  3  4  1  0  0  0
  4  5  2  0  0  0
  4  9  1  0  0  0
  5  6  1  0  0  0
  6  7  1  0  0  0
  7  8  2  0  0  0
  7 11  1  0  0  0
  8  9  1  0  0  0
  9 10  2  0  0  0
 18 19  1  0  0  0
 19 20  1  0  0  0
 22 24  1  0  0  0
  6 12  1  0  0  0
 11 13  1  0  0  0
 11 14  1  0  0  0
 20 21  1  0  0  0
M  END
> <minimizedAffinity>
-6.91041

$$$$
2A8G_GNG_B_201


 24 26  0  0  0  0  0  0  0  0999 V2000
   10.6442    0.9004    3.7738 N   0  0  0  0  0  0  0  0  0  0  0  0
    9.6459    1.2792    4.5907 C   0  0  0  0  0  0  0  0  0  0  0  0
    9.8370    0.6734    5.7721 N   0  0  0  0  0  0  0  0  0  0  0  0
   10.9691   -0.0543    5.6914 C   0  0  0  0  0  0  0  0  0  0  0  0
   11.4902    0.0859    4.4282 C   0  0  0  0  0  0  0  0  0  0  0  0
   12.6481   -0.5687    4.0942 N   0  0  0  0  0  0  0  0  0  0  0  0
   13.2853   -1.3481    5.0181 C   0  0  0  0  0  0  0  0  0  0  0  0
   12.7693   -1.4935    6.2473 N   0  0  0  0  0  0  0  0  0  0  0  0
   11.6386   -0.8664    6.5742 C   0  0  0  0  0  0  0  0  0  0  0  0
   11.2068   -1.0250    7.7111 O   0  0  0  0  0  0  0  0  0  0  0  0
   14.4290   -2.0183    4.7639 N   0  0  0  0  0  0  0  0  0  0  0  0
   13.0207   -0.4771    3.1876 H   0  0  0  0  0  0  0  0  0  0  0  0
   14.8536   -1.9492    3.8784 H   0  0  0  0  0  0  0  0  0  0  0  0
   14.8386   -2.5762    5.4640 H   0  0  0  0  0  0  0  0  0  0  0  0
   10.3170    2.8050    0.6956 C   0  0  0  0  0  0  0  0  0  0  0  0
   10.3261    2.6476    2.1108 O   0  0  0  0  0  0  0  0  0  0  0  0
   10.8139    1.3352    2.3642 C   0  0  0  0  0  0  0  0  0  0  0  0
   10.0801    0.4847    1.3484 C   0  0  0  0  0  0  0  0  0  0  0  0
   10.1434    1.4018    0.1420 C   0  0  0  0  0  0  0  0  0  0  0  0
   11.3418    1.0569   -0.5393 O   0  0  0  0  0  0  0  0  0  0  0  0
   12.0933    1.1341    0.0692 H   0  0  0  0  0  0  0  0  0  0  0  0
    9.2430    3.7891   -1.1048 O   0  0  0  0  0  0  0  0  0  0  0  0
    9.2099    3.7644    0.3188 C   0  0  0  0  0  0  0  0  0  0  0  0
    8.5552    4.3887   -1.4339 H   0  0  0  0  0  0  0  0  0  0  0  0
 22 23  1  0  0  0
 23 15  1  0  0  0
 15 16  1  0  0  0
 15 19  1  0  0  0
 16 17  1  0  0  0
 17  1  1  0  0  0
 17 18  1  0  0  0
  1  2  1  0  0  0
  1  5  1  0  0  0
  2  3  2  0  0  0
  3  4  1  0  0  0
  4  5  2  0  0  0
  4  9  1  0  0  0
  5  6  1  0  0  0
  6  7  1  0  0  0
  7  8  2  0  0  0
  7 11  1  0  0  0
  8  9  1  0  0  0
  9 10  2  0  0  0
 18 19  1  0  0  0
 19 20  1  0  0  0
 22 24  1  0  0  0
  6 12  1  0  0  0
 11 13  1  0  0  0
 11 14  1  0  0  0
 20 21  1  0  0  0
M  END
> <minimizedAffinity>
-6.84500

$$$$
