4AGN_NXG_A_1294


 26 27  0  0  0  0  0  0  0  0999 V2000
   91.4022   93.0821  -45.7364 C   0  0  0  0  0  0  0  0  0  0  0  0
   90.8467   95.3163  -44.9718 C   0  0  0  0  0  0  0  0  0  0  0  0
   91.2913   95.9988  -42.7051 O   0  0  0  0  0  0  0  0  0  0  0  0
   91.8874   92.7636  -44.4570 C   0  0  0  0  0  0  0  0  0  0  0  0
   90.8772   94.3633  -45.9912 C   0  0  0  0  0  0  0  0  0  0  0  0
   91.8402   93.7493  -43.4519 C   0  0  0  0  0  0  0  0  0  0  0  0
   91.3237   95.0330  -43.6676 C   0  0  0  0  0  0  0  0  0  0  0  0
   92.5350   93.2723  -41.4964 I   0  0  0  0  0  0  0  0  0  0  0  0
   90.9348   96.8431  -42.9003 H   0  0  0  0  0  0  0  0  0  0  0  0
   91.4256   92.1466  -46.8166 C   0  0  0  0  0  0  0  0  0  0  0  0
   91.4346   91.3626  -47.7243 C   0  0  0  0  0  0  0  0  0  0  0  0
   91.4448   90.4085  -48.8340 C   0  0  0  0  0  0  0  0  0  0  0  0
   92.2098   89.2594  -48.4884 O   0  0  0  0  0  0  0  0  0  0  0  0
   93.1228   89.5246  -48.2961 H   0  0  0  0  0  0  0  0  0  0  0  0
   90.2490   96.6649  -45.2677 C   0  0  0  0  0  0  0  0  0  0  0  0
   90.7733   97.7020  -44.3468 N   0  0  0  0  0  0  0  0  0  0  0  0
   89.6406   98.5365  -43.8046 C   0  0  0  0  0  0  0  0  0  0  0  0
   90.1895   99.5892  -42.8576 C   0  0  0  0  0  0  0  0  0  0  0  0
   91.0911  100.4654  -43.7222 C   0  0  0  0  0  0  0  0  0  0  0  0
   92.3246   99.6567  -44.1593 C   0  0  0  0  0  0  0  0  0  0  0  0
   91.8192   98.5203  -45.0412 C   0  0  0  0  0  0  0  0  0  0  0  0
   91.5173  101.7846  -43.0383 N   0  0  0  0  0  0  0  0  0  0  0  0
   92.9670  102.2178  -43.2220 C   0  0  0  0  0  0  0  0  0  0  0  0
   93.0918  103.3874  -44.1864 C   0  0  0  0  0  0  0  0  0  0  0  0
   91.1214  101.7719  -41.5471 C   0  0  0  0  0  0  0  0  0  0  0  0
   92.3599  101.6256  -40.6797 C   0  0  0  0  0  0  0  0  0  0  0  0
  1  4  1  0  0  0
  1  5  2  0  0  0
  1 10  1  0  0  0
  2 15  1  0  0  0
  2  5  1  0  0  0
  2  7  2  0  0  0
 16 15  1  0  0  0
 16 17  1  0  0  0
 16 21  1  0  0  0
  3  7  1  0  0  0
  4  6  2  0  0  0
 22 19  1  0  0  0
 22 23  1  0  0  0
 22 25  1  0  0  0
 17 18  1  0  0  0
  6  7  1  0  0  0
  6  8  1  0  0  0
 18 19  1  0  0  0
 19 20  1  0  0  0
 23 24  1  0  0  0
 25 26  1  0  0  0
 20 21  1  0  0  0
 10 11  3  0  0  0
 11 12  1  0  0  0
 12 13  1  0  0  0
  3  9  1  0  0  0
 13 14  1  0  0  0
M  END
> <minimizedAffinity>
-6.78474

$$$$
4AGN_NXG_A_1294


 26 27  0  0  0  0  0  0  0  0999 V2000
   91.2160   93.6671  -45.6434 C   0  0  0  0  0  0  0  0  0  0  0  0
   90.6502   95.8263  -44.6933 C   0  0  0  0  0  0  0  0  0  0  0  0
   91.2398   96.3767  -42.4237 O   0  0  0  0  0  0  0  0  0  0  0  0
   91.8038   93.2842  -44.4262 C   0  0  0  0  0  0  0  0  0  0  0  0
   90.6346   94.9426  -45.7737 C   0  0  0  0  0  0  0  0  0  0  0  0
   91.8007   94.2009  -43.3567 C   0  0  0  0  0  0  0  0  0  0  0  0
   91.2307   95.4767  -43.4485 C   0  0  0  0  0  0  0  0  0  0  0  0
   92.6523   93.6238  -41.4922 I   0  0  0  0  0  0  0  0  0  0  0  0
   90.8441   97.2186  -42.5361 H   0  0  0  0  0  0  0  0  0  0  0  0
   91.1882   92.8046  -46.7826 C   0  0  0  0  0  0  0  0  0  0  0  0
   91.1581   92.0874  -47.7434 C   0  0  0  0  0  0  0  0  0  0  0  0
   91.1229   91.2147  -48.9177 C   0  0  0  0  0  0  0  0  0  0  0  0
   92.1762   90.2599  -48.8535 O   0  0  0  0  0  0  0  0  0  0  0  0
   93.0295   90.7207  -48.8322 H   0  0  0  0  0  0  0  0  0  0  0  0
   89.9912   97.1692  -44.8548 C   0  0  0  0  0  0  0  0  0  0  0  0
   90.8397   98.0963  -45.6417 N   0  0  0  0  0  0  0  0  0  0  0  0
   91.8784   98.7318  -44.7526 C   0  0  0  0  0  0  0  0  0  0  0  0
   92.7451   99.6723  -45.5713 C   0  0  0  0  0  0  0  0  0  0  0  0
   91.7894  100.7487  -46.0775 C   0  0  0  0  0  0  0  0  0  0  0  0
   90.8171  100.1315  -47.0974 C   0  0  0  0  0  0  0  0  0  0  0  0
   89.9806   99.1025  -46.3452 C   0  0  0  0  0  0  0  0  0  0  0  0
   92.5030  101.9808  -46.6796 N   0  0  0  0  0  0  0  0  0  0  0  0
   92.0128  103.3503  -46.2246 C   0  0  0  0  0  0  0  0  0  0  0  0
   92.0156  103.4792  -44.7091 C   0  0  0  0  0  0  0  0  0  0  0  0
   92.5421  101.8830  -48.2189 C   0  0  0  0  0  0  0  0  0  0  0  0
   93.9672  101.6509  -48.6909 C   0  0  0  0  0  0  0  0  0  0  0  0
  1  4  1  0  0  0
  1  5  2  0  0  0
  1 10  1  0  0  0
  2 15  1  0  0  0
  2  5  1  0  0  0
  2  7  2  0  0  0
 16 15  1  0  0  0
 16 17  1  0  0  0
 16 21  1  0  0  0
  3  7  1  0  0  0
  4  6  2  0  0  0
 22 19  1  0  0  0
 22 23  1  0  0  0
 22 25  1  0  0  0
 17 18  1  0  0  0
  6  7  1  0  0  0
  6  8  1  0  0  0
 18 19  1  0  0  0
 19 20  1  0  0  0
 23 24  1  0  0  0
 25 26  1  0  0  0
 20 21  1  0  0  0
 10 11  3  0  0  0
 11 12  1  0  0  0
 12 13  1  0  0  0
  3  9  1  0  0  0
 13 14  1  0  0  0
M  END
> <minimizedAffinity>
-5.97282

$$$$
4AGN_NXG_A_1294


 26 27  0  0  0  0  0  0  0  0999 V2000
   90.3628   95.7906  -45.4734 C   0  0  0  0  0  0  0  0  0  0  0  0
   90.4697   97.7213  -44.0084 C   0  0  0  0  0  0  0  0  0  0  0  0
   89.0266   99.6194  -44.3493 O   0  0  0  0  0  0  0  0  0  0  0  0
   89.3519   96.4143  -46.2235 C   0  0  0  0  0  0  0  0  0  0  0  0
   90.9246   96.4504  -44.3638 C   0  0  0  0  0  0  0  0  0  0  0  0
   88.9178   97.6974  -45.8370 C   0  0  0  0  0  0  0  0  0  0  0  0
   89.4541   98.3849  -44.7411 C   0  0  0  0  0  0  0  0  0  0  0  0
   87.4141   98.6744  -46.9852 I   0  0  0  0  0  0  0  0  0  0  0  0
   89.4187  100.0376  -43.6081 H   0  0  0  0  0  0  0  0  0  0  0  0
   90.8515   94.4849  -45.7876 C   0  0  0  0  0  0  0  0  0  0  0  0
   91.2606   93.3913  -46.0617 C   0  0  0  0  0  0  0  0  0  0  0  0
   91.7624   92.0582  -46.3976 C   0  0  0  0  0  0  0  0  0  0  0  0
   92.0356   91.9716  -47.7916 O   0  0  0  0  0  0  0  0  0  0  0  0
   91.2203   92.1337  -48.2916 H   0  0  0  0  0  0  0  0  0  0  0  0
   91.1137   98.4128  -42.8376 C   0  0  0  0  0  0  0  0  0  0  0  0
   91.3418   99.8508  -43.1181 N   0  0  0  0  0  0  0  0  0  0  0  0
   92.5261  100.0200  -44.0359 C   0  0  0  0  0  0  0  0  0  0  0  0
   92.7442  101.4955  -44.3213 C   0  0  0  0  0  0  0  0  0  0  0  0
   93.0659  102.1160  -42.9650 C   0  0  0  0  0  0  0  0  0  0  0  0
   91.8131  102.0752  -42.0732 C   0  0  0  0  0  0  0  0  0  0  0  0
   91.4892  100.6051  -41.8317 C   0  0  0  0  0  0  0  0  0  0  0  0
   93.6248  103.5544  -43.0560 N   0  0  0  0  0  0  0  0  0  0  0  0
   93.7354  104.1629  -44.4490 C   0  0  0  0  0  0  0  0  0  0  0  0
   92.7222  105.2768  -44.6636 C   0  0  0  0  0  0  0  0  0  0  0  0
   94.9593  103.6643  -42.2895 C   0  0  0  0  0  0  0  0  0  0  0  0
   95.9972  104.3679  -43.1471 C   0  0  0  0  0  0  0  0  0  0  0  0
  1  4  1  0  0  0
  1  5  2  0  0  0
  1 10  1  0  0  0
  2 15  1  0  0  0
  2  5  1  0  0  0
  2  7  2  0  0  0
 16 15  1  0  0  0
 16 17  1  0  0  0
 16 21  1  0  0  0
  3  7  1  0  0  0
  4  6  2  0  0  0
 22 19  1  0  0  0
 22 23  1  0  0  0
 22 25  1  0  0  0
 17 18  1  0  0  0
  6  7  1  0  0  0
  6  8  1  0  0  0
 18 19  1  0  0  0
 19 20  1  0  0  0
 23 24  1  0  0  0
 25 26  1  0  0  0
 20 21  1  0  0  0
 10 11  3  0  0  0
 11 12  1  0  0  0
 12 13  1  0  0  0
  3  9  1  0  0  0
 13 14  1  0  0  0
M  END
> <minimizedAffinity>
-5.48160

$$$$
4AGN_NXG_A_1294


 26 27  0  0  0  0  0  0  0  0999 V2000
   90.6087   96.1358  -44.5910 C   0  0  0  0  0  0  0  0  0  0  0  0
   89.7637   98.3894  -44.8948 C   0  0  0  0  0  0  0  0  0  0  0  0
   88.4971   98.9864  -46.8546 O   0  0  0  0  0  0  0  0  0  0  0  0
   90.0518   95.7594  -45.8246 C   0  0  0  0  0  0  0  0  0  0  0  0
   90.4655   97.4577  -44.1281 C   0  0  0  0  0  0  0  0  0  0  0  0
   89.3510   96.7258  -46.5724 C   0  0  0  0  0  0  0  0  0  0  0  0
   89.1898   98.0497  -46.1454 C   0  0  0  0  0  0  0  0  0  0  0  0
   88.5337   96.1837  -48.4625 I   0  0  0  0  0  0  0  0  0  0  0  0
   88.4182   99.8599  -46.5249 H   0  0  0  0  0  0  0  0  0  0  0  0
   91.3226   95.2155  -43.7628 C   0  0  0  0  0  0  0  0  0  0  0  0
   91.9308   94.4461  -43.0724 C   0  0  0  0  0  0  0  0  0  0  0  0
   92.6745   93.5100  -42.2284 C   0  0  0  0  0  0  0  0  0  0  0  0
   93.0504   94.1388  -41.0083 O   0  0  0  0  0  0  0  0  0  0  0  0
   93.6154   94.9037  -41.1995 H   0  0  0  0  0  0  0  0  0  0  0  0
   89.6571   99.8018  -44.3875 C   0  0  0  0  0  0  0  0  0  0  0  0
   90.8105  100.1547  -43.5252 N   0  0  0  0  0  0  0  0  0  0  0  0
   90.3268  100.6250  -42.1767 C   0  0  0  0  0  0  0  0  0  0  0  0
   91.5169  100.9757  -41.3010 C   0  0  0  0  0  0  0  0  0  0  0  0
   92.2075  102.1314  -42.0190 C   0  0  0  0  0  0  0  0  0  0  0  0
   92.8287  101.6213  -43.3307 C   0  0  0  0  0  0  0  0  0  0  0  0
   91.6764  101.1629  -44.2175 C   0  0  0  0  0  0  0  0  0  0  0  0
   93.2680  102.8541  -41.1573 N   0  0  0  0  0  0  0  0  0  0  0  0
   94.6460  103.0462  -41.7797 C   0  0  0  0  0  0  0  0  0  0  0  0
   95.0946  104.4985  -41.7275 C   0  0  0  0  0  0  0  0  0  0  0  0
   93.3694  102.1987  -39.7642 C   0  0  0  0  0  0  0  0  0  0  0  0
   93.1441  103.2391  -38.6805 C   0  0  0  0  0  0  0  0  0  0  0  0
  1  4  1  0  0  0
  1  5  2  0  0  0
  1 10  1  0  0  0
  2 15  1  0  0  0
  2  5  1  0  0  0
  2  7  2  0  0  0
 16 15  1  0  0  0
 16 17  1  0  0  0
 16 21  1  0  0  0
  3  7  1  0  0  0
  4  6  2  0  0  0
 22 19  1  0  0  0
 22 23  1  0  0  0
 22 25  1  0  0  0
 17 18  1  0  0  0
  6  7  1  0  0  0
  6  8  1  0  0  0
 18 19  1  0  0  0
 19 20  1  0  0  0
 23 24  1  0  0  0
 25 26  1  0  0  0
 20 21  1  0  0  0
 10 11  3  0  0  0
 11 12  1  0  0  0
 12 13  1  0  0  0
  3  9  1  0  0  0
 13 14  1  0  0  0
M  END
> <minimizedAffinity>
-5.35564

$$$$
4AGN_NXG_A_1294


 26 27  0  0  0  0  0  0  0  0999 V2000
   90.5548   98.7374  -42.6107 C   0  0  0  0  0  0  0  0  0  0  0  0
   91.0131  101.0972  -42.9368 C   0  0  0  0  0  0  0  0  0  0  0  0
   89.2921  102.6028  -43.6938 O   0  0  0  0  0  0  0  0  0  0  0  0
   89.2270   98.9370  -43.0239 C   0  0  0  0  0  0  0  0  0  0  0  0
   91.4503   99.8230  -42.5712 C   0  0  0  0  0  0  0  0  0  0  0  0
   88.8203  100.2359  -43.3867 C   0  0  0  0  0  0  0  0  0  0  0  0
   89.6828  101.3390  -43.3617 C   0  0  0  0  0  0  0  0  0  0  0  0
   86.8223  100.5503  -44.0527 I   0  0  0  0  0  0  0  0  0  0  0  0
   89.9086  103.3077  -43.6607 H   0  0  0  0  0  0  0  0  0  0  0  0
   91.0461   97.4559  -42.2123 C   0  0  0  0  0  0  0  0  0  0  0  0
   91.4680   96.3828  -41.8821 C   0  0  0  0  0  0  0  0  0  0  0  0
   91.9848   95.0750  -41.4769 C   0  0  0  0  0  0  0  0  0  0  0  0
   91.0968   94.4600  -40.5503 O   0  0  0  0  0  0  0  0  0  0  0  0
   91.0123   95.0202  -39.7629 H   0  0  0  0  0  0  0  0  0  0  0  0
   92.0035  102.2296  -42.9152 C   0  0  0  0  0  0  0  0  0  0  0  0
   92.8634  102.1724  -41.7086 N   0  0  0  0  0  0  0  0  0  0  0  0
   92.1018  102.6638  -40.5037 C   0  0  0  0  0  0  0  0  0  0  0  0
   92.9903  102.5929  -39.2741 C   0  0  0  0  0  0  0  0  0  0  0  0
   94.1430  103.5492  -39.5653 C   0  0  0  0  0  0  0  0  0  0  0  0
   95.0081  102.9775  -40.7016 C   0  0  0  0  0  0  0  0  0  0  0  0
   94.1307  102.9354  -41.9478 C   0  0  0  0  0  0  0  0  0  0  0  0
   95.0111  103.8720  -38.3275 N   0  0  0  0  0  0  0  0  0  0  0  0
   94.2913  104.4464  -37.1130 C   0  0  0  0  0  0  0  0  0  0  0  0
   93.6474  105.7901  -37.4183 C   0  0  0  0  0  0  0  0  0  0  0  0
   96.2182  104.7455  -38.7279 C   0  0  0  0  0  0  0  0  0  0  0  0
   97.3072  104.6454  -37.6735 C   0  0  0  0  0  0  0  0  0  0  0  0
  1  4  1  0  0  0
  1  5  2  0  0  0
  1 10  1  0  0  0
  2 15  1  0  0  0
  2  5  1  0  0  0
  2  7  2  0  0  0
 16 15  1  0  0  0
 16 17  1  0  0  0
 16 21  1  0  0  0
  3  7  1  0  0  0
  4  6  2  0  0  0
 22 19  1  0  0  0
 22 23  1  0  0  0
 22 25  1  0  0  0
 17 18  1  0  0  0
  6  7  1  0  0  0
  6  8  1  0  0  0
 18 19  1  0  0  0
 19 20  1  0  0  0
 23 24  1  0  0  0
 25 26  1  0  0  0
 20 21  1  0  0  0
 10 11  3  0  0  0
 11 12  1  0  0  0
 12 13  1  0  0  0
  3  9  1  0  0  0
 13 14  1  0  0  0
M  END
> <minimizedAffinity>
-5.15530

$$$$
4AGN_NXG_A_1294


 26 27  0  0  0  0  0  0  0  0999 V2000
   90.8793   97.6070  -43.0045 C   0  0  0  0  0  0  0  0  0  0  0  0
   90.6682   99.9987  -42.6574 C   0  0  0  0  0  0  0  0  0  0  0  0
   89.7367  101.4229  -44.3620 O   0  0  0  0  0  0  0  0  0  0  0  0
   90.3303   97.7440  -44.2904 C   0  0  0  0  0  0  0  0  0  0  0  0
   91.0510   98.7411  -42.1881 C   0  0  0  0  0  0  0  0  0  0  0  0
   89.9561   99.0282  -44.7319 C   0  0  0  0  0  0  0  0  0  0  0  0
   90.1134  100.1787  -43.9491 C   0  0  0  0  0  0  0  0  0  0  0  0
   89.1584   99.2605  -46.6925 I   0  0  0  0  0  0  0  0  0  0  0  0
   89.8637  102.1615  -43.7997 H   0  0  0  0  0  0  0  0  0  0  0  0
   91.2724   96.3399  -42.4731 C   0  0  0  0  0  0  0  0  0  0  0  0
   91.5955   95.2779  -42.0189 C   0  0  0  0  0  0  0  0  0  0  0  0
   91.9867   93.9809  -41.4654 C   0  0  0  0  0  0  0  0  0  0  0  0
   93.2922   94.0585  -40.9041 O   0  0  0  0  0  0  0  0  0  0  0  0
   93.9266   94.3078  -41.5943 H   0  0  0  0  0  0  0  0  0  0  0  0
   90.8954  101.1945  -41.7731 C   0  0  0  0  0  0  0  0  0  0  0  0
   92.3393  101.5080  -41.6489 N   0  0  0  0  0  0  0  0  0  0  0  0
   92.6535  101.9644  -40.2466 C   0  0  0  0  0  0  0  0  0  0  0  0
   94.1355  102.2747  -40.1304 C   0  0  0  0  0  0  0  0  0  0  0  0
   94.3739  103.4282  -41.1003 C   0  0  0  0  0  0  0  0  0  0  0  0
   94.1948  102.9284  -42.5442 C   0  0  0  0  0  0  0  0  0  0  0  0
   92.7361  102.5099  -42.6903 C   0  0  0  0  0  0  0  0  0  0  0  0
   95.7486  104.1133  -40.9261 N   0  0  0  0  0  0  0  0  0  0  0  0
   95.8810  105.1086  -39.7794 C   0  0  0  0  0  0  0  0  0  0  0  0
   94.5957  105.8904  -39.5556 C   0  0  0  0  0  0  0  0  0  0  0  0
   96.2169  104.7307  -42.2603 C   0  0  0  0  0  0  0  0  0  0  0  0
   97.4427  105.5984  -42.0319 C   0  0  0  0  0  0  0  0  0  0  0  0
  1  4  1  0  0  0
  1  5  2  0  0  0
  1 10  1  0  0  0
  2 15  1  0  0  0
  2  5  1  0  0  0
  2  7  2  0  0  0
 16 15  1  0  0  0
 16 17  1  0  0  0
 16 21  1  0  0  0
  3  7  1  0  0  0
  4  6  2  0  0  0
 22 19  1  0  0  0
 22 23  1  0  0  0
 22 25  1  0  0  0
 17 18  1  0  0  0
  6  7  1  0  0  0
  6  8  1  0  0  0
 18 19  1  0  0  0
 19 20  1  0  0  0
 23 24  1  0  0  0
 25 26  1  0  0  0
 20 21  1  0  0  0
 10 11  3  0  0  0
 11 12  1  0  0  0
 12 13  1  0  0  0
  3  9  1  0  0  0
 13 14  1  0  0  0
M  END
> <minimizedAffinity>
-5.11220

$$$$
4AGN_NXG_A_1294


 26 27  0  0  0  0  0  0  0  0999 V2000
   92.2739  102.3526  -41.9640 C   0  0  0  0  0  0  0  0  0  0  0  0
   90.9256  100.6418  -43.0316 C   0  0  0  0  0  0  0  0  0  0  0  0
   90.4259  100.7446  -45.3856 O   0  0  0  0  0  0  0  0  0  0  0  0
   92.3938  103.0257  -43.1912 C   0  0  0  0  0  0  0  0  0  0  0  0
   91.5334  101.1578  -41.8859 C   0  0  0  0  0  0  0  0  0  0  0  0
   91.7666  102.4768  -44.3268 C   0  0  0  0  0  0  0  0  0  0  0  0
   91.0208  101.2922  -44.2872 C   0  0  0  0  0  0  0  0  0  0  0  0
   91.9048  103.5036  -46.1872 I   0  0  0  0  0  0  0  0  0  0  0  0
   89.9370   99.9492  -45.3061 H   0  0  0  0  0  0  0  0  0  0  0  0
   92.8899  102.8320  -40.7668 C   0  0  0  0  0  0  0  0  0  0  0  0
   93.4157  103.2367  -39.7676 C   0  0  0  0  0  0  0  0  0  0  0  0
   94.0572  103.7336  -38.5497 C   0  0  0  0  0  0  0  0  0  0  0  0
   94.0480  102.7280  -37.5428 O   0  0  0  0  0  0  0  0  0  0  0  0
   93.1318  102.4853  -37.3366 H   0  0  0  0  0  0  0  0  0  0  0  0
   90.1140   99.3810  -42.9077 C   0  0  0  0  0  0  0  0  0  0  0  0
   90.9151   98.1854  -43.2646 N   0  0  0  0  0  0  0  0  0  0  0  0
   90.2695   97.4506  -44.4120 C   0  0  0  0  0  0  0  0  0  0  0  0
   91.1031   96.2335  -44.7727 C   0  0  0  0  0  0  0  0  0  0  0  0
   91.0711   95.3511  -43.5283 C   0  0  0  0  0  0  0  0  0  0  0  0
   91.8548   96.0353  -42.3951 C   0  0  0  0  0  0  0  0  0  0  0  0
   91.1102   97.3217  -42.0556 C   0  0  0  0  0  0  0  0  0  0  0  0
   91.5979   93.9177  -43.7686 N   0  0  0  0  0  0  0  0  0  0  0  0
   92.7219   93.4362  -42.8588 C   0  0  0  0  0  0  0  0  0  0  0  0
   92.1994   92.5782  -41.7169 C   0  0  0  0  0  0  0  0  0  0  0  0
   91.9562   93.7167  -45.2557 C   0  0  0  0  0  0  0  0  0  0  0  0
   91.3971   92.3947  -45.7530 C   0  0  0  0  0  0  0  0  0  0  0  0
  1  4  1  0  0  0
  1  5  2  0  0  0
  1 10  1  0  0  0
  2 15  1  0  0  0
  2  5  1  0  0  0
  2  7  2  0  0  0
 16 15  1  0  0  0
 16 17  1  0  0  0
 16 21  1  0  0  0
  3  7  1  0  0  0
  4  6  2  0  0  0
 22 19  1  0  0  0
 22 23  1  0  0  0
 22 25  1  0  0  0
 17 18  1  0  0  0
  6  7  1  0  0  0
  6  8  1  0  0  0
 18 19  1  0  0  0
 19 20  1  0  0  0
 23 24  1  0  0  0
 25 26  1  0  0  0
 20 21  1  0  0  0
 10 11  3  0  0  0
 11 12  1  0  0  0
 12 13  1  0  0  0
  3  9  1  0  0  0
 13 14  1  0  0  0
M  END
> <minimizedAffinity>
-4.91739

$$$$
4AGN_NXG_A_1294


 26 27  0  0  0  0  0  0  0  0999 V2000
   91.0072   97.6577  -44.1880 C   0  0  0  0  0  0  0  0  0  0  0  0
   89.9360   99.7106  -43.4650 C   0  0  0  0  0  0  0  0  0  0  0  0
   90.3008  101.7814  -44.6399 O   0  0  0  0  0  0  0  0  0  0  0  0
   91.6387   98.3536  -45.2323 C   0  0  0  0  0  0  0  0  0  0  0  0
   90.1555   98.3420  -43.3002 C   0  0  0  0  0  0  0  0  0  0  0  0
   91.3951   99.7343  -45.3684 C   0  0  0  0  0  0  0  0  0  0  0  0
   90.5563  100.4486  -44.5039 C   0  0  0  0  0  0  0  0  0  0  0  0
   92.3740  100.8131  -46.9215 I   0  0  0  0  0  0  0  0  0  0  0  0
   89.7313  102.2135  -44.0341 H   0  0  0  0  0  0  0  0  0  0  0  0
   91.1879   96.2543  -43.9868 C   0  0  0  0  0  0  0  0  0  0  0  0
   91.3310   95.0765  -43.8113 C   0  0  0  0  0  0  0  0  0  0  0  0
   91.5028   93.6388  -43.5987 C   0  0  0  0  0  0  0  0  0  0  0  0
   91.0804   93.2808  -42.2877 O   0  0  0  0  0  0  0  0  0  0  0  0
   91.6142   93.7592  -41.6342 H   0  0  0  0  0  0  0  0  0  0  0  0
   89.0465  100.4187  -42.4796 C   0  0  0  0  0  0  0  0  0  0  0  0
   89.8381  101.0707  -41.4087 N   0  0  0  0  0  0  0  0  0  0  0  0
   89.6416  102.5649  -41.4534 C   0  0  0  0  0  0  0  0  0  0  0  0
   90.4509  103.2197  -40.3477 C   0  0  0  0  0  0  0  0  0  0  0  0
   91.9045  102.8933  -40.6770 C   0  0  0  0  0  0  0  0  0  0  0  0
   92.1452  101.3852  -40.4919 C   0  0  0  0  0  0  0  0  0  0  0  0
   91.2774  100.6687  -41.5206 C   0  0  0  0  0  0  0  0  0  0  0  0
   92.9271  103.7140  -39.8582 N   0  0  0  0  0  0  0  0  0  0  0  0
   93.9631  104.5062  -40.6470 C   0  0  0  0  0  0  0  0  0  0  0  0
   94.8096  103.6068  -41.5346 C   0  0  0  0  0  0  0  0  0  0  0  0
   93.5965  102.8279  -38.7871 C   0  0  0  0  0  0  0  0  0  0  0  0
   93.4246  103.4512  -37.4125 C   0  0  0  0  0  0  0  0  0  0  0  0
  1  4  1  0  0  0
  1  5  2  0  0  0
  1 10  1  0  0  0
  2 15  1  0  0  0
  2  5  1  0  0  0
  2  7  2  0  0  0
 16 15  1  0  0  0
 16 17  1  0  0  0
 16 21  1  0  0  0
  3  7  1  0  0  0
  4  6  2  0  0  0
 22 19  1  0  0  0
 22 23  1  0  0  0
 22 25  1  0  0  0
 17 18  1  0  0  0
  6  7  1  0  0  0
  6  8  1  0  0  0
 18 19  1  0  0  0
 19 20  1  0  0  0
 23 24  1  0  0  0
 25 26  1  0  0  0
 20 21  1  0  0  0
 10 11  3  0  0  0
 11 12  1  0  0  0
 12 13  1  0  0  0
  3  9  1  0  0  0
 13 14  1  0  0  0
M  END
> <minimizedAffinity>
-4.89878

$$$$
4AGN_NXG_A_1294


 26 27  0  0  0  0  0  0  0  0999 V2000
   92.3424  101.7532  -44.0163 C   0  0  0  0  0  0  0  0  0  0  0  0
   90.3857  100.5206  -44.7491 C   0  0  0  0  0  0  0  0  0  0  0  0
   89.8930  100.2524  -47.0916 O   0  0  0  0  0  0  0  0  0  0  0  0
   92.6828  102.0109  -45.3547 C   0  0  0  0  0  0  0  0  0  0  0  0
   91.1868  101.0076  -43.7150 C   0  0  0  0  0  0  0  0  0  0  0  0
   91.8510  101.5050  -46.3727 C   0  0  0  0  0  0  0  0  0  0  0  0
   90.6935  100.7614  -46.1115 C   0  0  0  0  0  0  0  0  0  0  0  0
   92.3297  101.9187  -48.4060 I   0  0  0  0  0  0  0  0  0  0  0  0
   89.1284   99.7610  -46.8639 H   0  0  0  0  0  0  0  0  0  0  0  0
   93.1379  102.2168  -42.9233 C   0  0  0  0  0  0  0  0  0  0  0  0
   93.8125  102.5980  -42.0078 C   0  0  0  0  0  0  0  0  0  0  0  0
   94.6382  103.0640  -40.8929 C   0  0  0  0  0  0  0  0  0  0  0  0
   95.2713  101.9610  -40.2543 O   0  0  0  0  0  0  0  0  0  0  0  0
   94.5962  101.3550  -39.9111 H   0  0  0  0  0  0  0  0  0  0  0  0
   89.1400   99.7557  -44.3928 C   0  0  0  0  0  0  0  0  0  0  0  0
   89.4166   98.3052  -44.2581 N   0  0  0  0  0  0  0  0  0  0  0  0
   90.7613   98.0902  -43.6110 C   0  0  0  0  0  0  0  0  0  0  0  0
   91.0290   96.6019  -43.4719 C   0  0  0  0  0  0  0  0  0  0  0  0
   91.0688   96.0732  -44.9026 C   0  0  0  0  0  0  0  0  0  0  0  0
   89.6619   96.1576  -45.5190 C   0  0  0  0  0  0  0  0  0  0  0  0
   89.2994   97.6367  -45.5941 C   0  0  0  0  0  0  0  0  0  0  0  0
   91.6311   94.6380  -45.0199 N   0  0  0  0  0  0  0  0  0  0  0  0
   91.1257   93.7939  -46.1839 C   0  0  0  0  0  0  0  0  0  0  0  0
   91.4874   92.3258  -46.0192 C   0  0  0  0  0  0  0  0  0  0  0  0
   91.4827   93.8890  -43.6792 C   0  0  0  0  0  0  0  0  0  0  0  0
   92.8526   93.5707  -43.1049 C   0  0  0  0  0  0  0  0  0  0  0  0
  1  4  1  0  0  0
  1  5  2  0  0  0
  1 10  1  0  0  0
  2 15  1  0  0  0
  2  5  1  0  0  0
  2  7  2  0  0  0
 16 15  1  0  0  0
 16 17  1  0  0  0
 16 21  1  0  0  0
  3  7  1  0  0  0
  4  6  2  0  0  0
 22 19  1  0  0  0
 22 23  1  0  0  0
 22 25  1  0  0  0
 17 18  1  0  0  0
  6  7  1  0  0  0
  6  8  1  0  0  0
 18 19  1  0  0  0
 19 20  1  0  0  0
 23 24  1  0  0  0
 25 26  1  0  0  0
 20 21  1  0  0  0
 10 11  3  0  0  0
 11 12  1  0  0  0
 12 13  1  0  0  0
  3  9  1  0  0  0
 13 14  1  0  0  0
M  END
> <minimizedAffinity>
-4.83241

$$$$
4AGN_NXG_A_1294


 26 27  0  0  0  0  0  0  0  0999 V2000
   91.3110   93.5832  -45.5322 C   0  0  0  0  0  0  0  0  0  0  0  0
   90.9160   95.7364  -44.4869 C   0  0  0  0  0  0  0  0  0  0  0  0
   91.5284   96.1328  -42.1914 O   0  0  0  0  0  0  0  0  0  0  0  0
   91.8544   93.0984  -44.3308 C   0  0  0  0  0  0  0  0  0  0  0  0
   90.8375   94.9070  -45.6068 C   0  0  0  0  0  0  0  0  0  0  0  0
   91.9170   93.9627  -43.2203 C   0  0  0  0  0  0  0  0  0  0  0  0
   91.4546   95.2841  -43.2565 C   0  0  0  0  0  0  0  0  0  0  0  0
   92.7016   93.2333  -41.3800 I   0  0  0  0  0  0  0  0  0  0  0  0
   91.2043   97.0087  -42.2669 H   0  0  0  0  0  0  0  0  0  0  0  0
   91.2226   92.7785  -46.7099 C   0  0  0  0  0  0  0  0  0  0  0  0
   91.1548   92.1101  -47.7035 C   0  0  0  0  0  0  0  0  0  0  0  0
   91.0754   91.2937  -48.9155 C   0  0  0  0  0  0  0  0  0  0  0  0
   89.9701   90.4007  -48.8363 O   0  0  0  0  0  0  0  0  0  0  0  0
   90.0823   89.8146  -48.0716 H   0  0  0  0  0  0  0  0  0  0  0  0
   90.3711   97.1350  -44.5900 C   0  0  0  0  0  0  0  0  0  0  0  0
   90.0567   97.4903  -45.9948 N   0  0  0  0  0  0  0  0  0  0  0  0
   90.0684   98.9881  -46.1674 C   0  0  0  0  0  0  0  0  0  0  0  0
   89.7528   99.3382  -47.6110 C   0  0  0  0  0  0  0  0  0  0  0  0
   88.3380   98.8160  -47.8430 C   0  0  0  0  0  0  0  0  0  0  0  0
   88.3483   97.2780  -47.8109 C   0  0  0  0  0  0  0  0  0  0  0  0
   88.7555   96.8672  -46.4003 C   0  0  0  0  0  0  0  0  0  0  0  0
   87.6915   99.3307  -49.1495 N   0  0  0  0  0  0  0  0  0  0  0  0
   88.1702  100.6814  -49.6684 C   0  0  0  0  0  0  0  0  0  0  0  0
   88.8602  100.5584  -51.0183 C   0  0  0  0  0  0  0  0  0  0  0  0
   86.1529   99.2844  -49.0449 C   0  0  0  0  0  0  0  0  0  0  0  0
   85.5550   98.8037  -50.3560 C   0  0  0  0  0  0  0  0  0  0  0  0
  1  4  1  0  0  0
  1  5  2  0  0  0
  1 10  1  0  0  0
  2 15  1  0  0  0
  2  5  1  0  0  0
  2  7  2  0  0  0
 16 15  1  0  0  0
 16 17  1  0  0  0
 16 21  1  0  0  0
  3  7  1  0  0  0
  4  6  2  0  0  0
 22 19  1  0  0  0
 22 23  1  0  0  0
 22 25  1  0  0  0
 17 18  1  0  0  0
  6  7  1  0  0  0
  6  8  1  0  0  0
 18 19  1  0  0  0
 19 20  1  0  0  0
 23 24  1  0  0  0
 25 26  1  0  0  0
 20 21  1  0  0  0
 10 11  3  0  0  0
 11 12  1  0  0  0
 12 13  1  0  0  0
  3  9  1  0  0  0
 13 14  1  0  0  0
M  END
> <minimizedAffinity>
-4.82657

$$$$
