5VB7_921_A_602


 35 38  0  0  0  0  0  0  0  0999 V2000
   -5.7542   26.2813   13.5547 C   0  0  0  0  0  0  0  0  0  0  0  0
   -5.4844   23.8450   13.3827 C   0  0  0  0  0  0  0  0  0  0  0  0
   -4.9533   25.1957   13.5258 N   0  0  0  0  0  0  0  0  0  0  0  0
   -5.2981   27.3937   13.7112 O   0  0  0  0  0  0  0  0  0  0  0  0
   -7.1082   26.0610   13.4749 N   0  0  0  0  0  0  0  0  0  0  0  0
   -3.2669   24.8027   15.1137 C   0  0  0  0  0  0  0  0  0  0  0  0
   -1.8528   25.1309   15.5457 C   0  0  0  0  0  0  0  0  0  0  0  0
   -0.8339   24.5337   14.5781 C   0  0  0  0  0  0  0  0  0  0  0  0
   -2.5573   24.7045   12.7340 C   0  0  0  0  0  0  0  0  0  0  0  0
   -3.5024   25.3624   13.7211 C   0  0  0  0  0  0  0  0  0  0  0  0
   -1.1235   25.0215   13.1556 C   0  0  0  0  0  0  0  0  0  0  0  0
    2.8218   24.1294   15.4397 C   0  0  0  0  0  0  0  0  0  0  0  0
    2.2723   26.3000   15.8125 C   0  0  0  0  0  0  0  0  0  0  0  0
    0.5804   24.8195   15.0321 C   0  0  0  0  0  0  0  0  0  0  0  0
    1.5409   23.8236   15.0330 C   0  0  0  0  0  0  0  0  0  0  0  0
    3.2030   25.3458   15.8289 N   0  0  0  0  0  0  0  0  0  0  0  0
    0.9652   26.0884   15.4244 C   0  0  0  0  0  0  0  0  0  0  0  0
   -7.1004   25.2542   15.7997 C   0  0  0  0  0  0  0  0  0  0  0  0
   -8.7793   23.7193   16.5703 C   0  0  0  0  0  0  0  0  0  0  0  0
   -7.6775   25.2661   14.5303 C   0  0  0  0  0  0  0  0  0  0  0  0
   -7.6489   24.4770   16.8040 C   0  0  0  0  0  0  0  0  0  0  0  0
   -9.3546   23.7388   15.3146 C   0  0  0  0  0  0  0  0  0  0  0  0
   -8.8165   24.5000   14.2873 C   0  0  0  0  0  0  0  0  0  0  0  0
  -10.4860   22.9619   15.1043 O   0  0  0  0  0  0  0  0  0  0  0  0
  -11.6617   23.5663   14.6868 C   0  0  0  0  0  0  0  0  0  0  0  0
  -12.2766   23.1486   13.5219 C   0  0  0  0  0  0  0  0  0  0  0  0
  -13.4472   23.7642   13.1187 C   0  0  0  0  0  0  0  0  0  0  0  0
  -13.9915   24.7841   13.8640 C   0  0  0  0  0  0  0  0  0  0  0  0
  -13.3736   25.1926   15.0234 C   0  0  0  0  0  0  0  0  0  0  0  0
  -12.2030   24.5889   15.4443 C   0  0  0  0  0  0  0  0  0  0  0  0
   -7.9898   27.1628   13.0790 C   0  0  0  0  0  0  0  0  0  0  0  0
   -8.1728   28.0923   14.2358 C   0  0  0  0  0  0  0  0  0  0  0  0
   -9.3097   28.3841   14.8419 C   0  0  0  0  0  0  0  0  0  0  0  0
   -9.3835   29.3354   15.9944 C   0  0  0  0  0  0  0  0  0  0  0  0
  -10.6255   27.8005   14.4314 C   0  0  0  0  0  0  0  0  0  0  0  0
  9 11  1  0  0  0
  9 10  1  0  0  0
 29 28  2  0  0  0
 29 30  1  0  0  0
 31  5  1  0  0  0
 31 32  1  0  0  0
 11  8  1  0  0  0
 28 27  1  0  0  0
  5  1  1  0  0  0
  5 20  1  0  0  0
  2  3  1  0  0  0
  1  3  1  0  0  0
  1  4  2  0  0  0
 30 25  2  0  0  0
  3 10  1  0  0  0
 10  6  1  0  0  0
 32 33  2  0  0  0
 23 20  2  0  0  0
 23 22  1  0  0  0
 27 26  2  0  0  0
  8 14  1  0  0  0
  8  7  1  0  0  0
 20 18  1  0  0  0
 25 26  1  0  0  0
 25 24  1  0  0  0
 35 33  1  0  0  0
 33 34  1  0  0  0
 17 14  2  0  0  0
 17 13  1  0  0  0
 14 15  1  0  0  0
  6  7  1  0  0  0
 24 22  1  0  0  0
 22 19  2  0  0  0
 13 16  2  0  0  0
 15 12  2  0  0  0
 18 21  2  0  0  0
 16 12  1  0  0  0
 19 21  1  0  0  0
M  END
> <minimizedAffinity>
-11.95149

$$$$
5VB7_921_A_602


 35 38  0  0  0  0  0  0  0  0999 V2000
   -2.9904   24.0808   15.2931 C   0  0  0  0  0  0  0  0  0  0  0  0
   -3.9872   23.4491   13.1379 C   0  0  0  0  0  0  0  0  0  0  0  0
   -4.0836   23.8422   14.5389 N   0  0  0  0  0  0  0  0  0  0  0  0
   -3.0900   24.4425   16.4461 O   0  0  0  0  0  0  0  0  0  0  0  0
   -1.7683   23.9688   14.6748 N   0  0  0  0  0  0  0  0  0  0  0  0
   -6.3611   23.6552   13.9929 C   0  0  0  0  0  0  0  0  0  0  0  0
   -7.7742   24.0553   14.3629 C   0  0  0  0  0  0  0  0  0  0  0  0
   -8.2122   23.3768   15.6587 C   0  0  0  0  0  0  0  0  0  0  0  0
   -5.7904   23.3146   16.3876 C   0  0  0  0  0  0  0  0  0  0  0  0
   -5.4216   24.0569   15.1173 C   0  0  0  0  0  0  0  0  0  0  0  0
   -7.2162   23.7027   16.7755 C   0  0  0  0  0  0  0  0  0  0  0  0
  -11.6074   25.0328   15.6671 C   0  0  0  0  0  0  0  0  0  0  0  0
  -11.6421   23.4044   17.2481 C   0  0  0  0  0  0  0  0  0  0  0  0
   -9.6396   23.7371   16.0062 C   0  0  0  0  0  0  0  0  0  0  0  0
  -10.3021   24.7461   15.3299 C   0  0  0  0  0  0  0  0  0  0  0  0
  -12.2866   24.3824   16.6115 N   0  0  0  0  0  0  0  0  0  0  0  0
  -10.3360   23.0478   16.9820 C   0  0  0  0  0  0  0  0  0  0  0  0
   -0.5361   24.5931   12.6383 C   0  0  0  0  0  0  0  0  0  0  0  0
   -1.1033   26.5867   11.4249 C   0  0  0  0  0  0  0  0  0  0  0  0
   -1.5424   24.8580   13.5666 C   0  0  0  0  0  0  0  0  0  0  0  0
   -0.3195   25.4610   11.5831 C   0  0  0  0  0  0  0  0  0  0  0  0
   -2.1052   26.8431   12.3406 C   0  0  0  0  0  0  0  0  0  0  0  0
   -2.3342   25.9951   13.4143 C   0  0  0  0  0  0  0  0  0  0  0  0
   -2.8736   27.9857   12.1626 O   0  0  0  0  0  0  0  0  0  0  0  0
   -4.1423   28.0492   12.7182 C   0  0  0  0  0  0  0  0  0  0  0  0
   -4.4581   29.0620   13.6036 C   0  0  0  0  0  0  0  0  0  0  0  0
   -5.7272   29.1087   14.1505 C   0  0  0  0  0  0  0  0  0  0  0  0
   -6.6636   28.1561   13.8224 C   0  0  0  0  0  0  0  0  0  0  0  0
   -6.3412   27.1521   12.9387 C   0  0  0  0  0  0  0  0  0  0  0  0
   -5.0779   27.0887   12.3800 C   0  0  0  0  0  0  0  0  0  0  0  0
   -0.5658   23.7939   15.4942 C   0  0  0  0  0  0  0  0  0  0  0  0
    0.1416   25.1048   15.6236 C   0  0  0  0  0  0  0  0  0  0  0  0
    1.4474   25.3032   15.5974 C   0  0  0  0  0  0  0  0  0  0  0  0
    2.0555   26.6628   15.7402 C   0  0  0  0  0  0  0  0  0  0  0  0
    2.4374   24.1930   15.4308 C   0  0  0  0  0  0  0  0  0  0  0  0
  9 11  1  0  0  0
  9 10  1  0  0  0
 29 28  2  0  0  0
 29 30  1  0  0  0
 31  5  1  0  0  0
 31 32  1  0  0  0
 11  8  1  0  0  0
 28 27  1  0  0  0
  5  1  1  0  0  0
  5 20  1  0  0  0
  2  3  1  0  0  0
  1  3  1  0  0  0
  1  4  2  0  0  0
 30 25  2  0  0  0
  3 10  1  0  0  0
 10  6  1  0  0  0
 32 33  2  0  0  0
 23 20  2  0  0  0
 23 22  1  0  0  0
 27 26  2  0  0  0
  8 14  1  0  0  0
  8  7  1  0  0  0
 20 18  1  0  0  0
 25 26  1  0  0  0
 25 24  1  0  0  0
 35 33  1  0  0  0
 33 34  1  0  0  0
 17 14  2  0  0  0
 17 13  1  0  0  0
 14 15  1  0  0  0
  6  7  1  0  0  0
 24 22  1  0  0  0
 22 19  2  0  0  0
 13 16  2  0  0  0
 15 12  2  0  0  0
 18 21  2  0  0  0
 16 12  1  0  0  0
 19 21  1  0  0  0
M  END
> <minimizedAffinity>
-9.55397

$$$$
5VB7_921_A_602


 35 38  0  0  0  0  0  0  0  0999 V2000
   -5.5556   27.0090   12.6069 C   0  0  0  0  0  0  0  0  0  0  0  0
   -5.7266   27.7456   14.9449 C   0  0  0  0  0  0  0  0  0  0  0  0
   -6.3048   27.2405   13.7051 N   0  0  0  0  0  0  0  0  0  0  0  0
   -6.0470   26.5542   11.5962 O   0  0  0  0  0  0  0  0  0  0  0  0
   -4.2050   27.2401   12.7121 N   0  0  0  0  0  0  0  0  0  0  0  0
   -7.7811   25.5045   14.2766 C   0  0  0  0  0  0  0  0  0  0  0  0
   -9.1718   24.9327   14.0946 C   0  0  0  0  0  0  0  0  0  0  0  0
  -10.2163   25.8077   14.7834 C   0  0  0  0  0  0  0  0  0  0  0  0
   -8.7064   27.8061   14.4272 C   0  0  0  0  0  0  0  0  0  0  0  0
   -7.7391   26.9035   13.6856 C   0  0  0  0  0  0  0  0  0  0  0  0
  -10.1165   27.2429   14.2583 C   0  0  0  0  0  0  0  0  0  0  0  0
  -13.0607   23.4522   13.9886 C   0  0  0  0  0  0  0  0  0  0  0  0
  -13.9571   25.2935   14.9677 C   0  0  0  0  0  0  0  0  0  0  0  0
  -11.6008   25.2146   14.6437 C   0  0  0  0  0  0  0  0  0  0  0  0
  -11.7840   23.9629   14.0834 C   0  0  0  0  0  0  0  0  0  0  0  0
  -14.1468   24.0937   14.4187 N   0  0  0  0  0  0  0  0  0  0  0  0
  -12.7187   25.8867   15.1029 C   0  0  0  0  0  0  0  0  0  0  0  0
   -4.0117   25.2181   14.1012 C   0  0  0  0  0  0  0  0  0  0  0  0
   -2.1614   24.9372   15.6066 C   0  0  0  0  0  0  0  0  0  0  0  0
   -3.5090   26.4539   13.6957 C   0  0  0  0  0  0  0  0  0  0  0  0
   -3.3408   24.4757   15.0565 C   0  0  0  0  0  0  0  0  0  0  0  0
   -1.6605   26.1578   15.1975 C   0  0  0  0  0  0  0  0  0  0  0  0
   -2.3209   26.9268   14.2506 C   0  0  0  0  0  0  0  0  0  0  0  0
   -0.4771   26.6019   15.7721 O   0  0  0  0  0  0  0  0  0  0  0  0
    0.6993   25.9069   15.5372 C   0  0  0  0  0  0  0  0  0  0  0  0
    0.6578   24.6620   14.9389 C   0  0  0  0  0  0  0  0  0  0  0  0
    1.8403   23.9815   14.7145 C   0  0  0  0  0  0  0  0  0  0  0  0
    3.0440   24.5332   15.0867 C   0  0  0  0  0  0  0  0  0  0  0  0
    3.0764   25.7740   15.6802 C   0  0  0  0  0  0  0  0  0  0  0  0
    1.9050   26.4710   15.9122 C   0  0  0  0  0  0  0  0  0  0  0  0
   -3.4136   27.4216   11.4921 C   0  0  0  0  0  0  0  0  0  0  0  0
   -3.2114   26.0964   10.8298 C   0  0  0  0  0  0  0  0  0  0  0  0
   -2.0597   25.4808   10.6308 C   0  0  0  0  0  0  0  0  0  0  0  0
   -1.9676   24.1512    9.9508 C   0  0  0  0  0  0  0  0  0  0  0  0
   -0.7446   26.0541   11.0573 C   0  0  0  0  0  0  0  0  0  0  0  0
  9 11  1  0  0  0
  9 10  1  0  0  0
 29 28  2  0  0  0
 29 30  1  0  0  0
 31  5  1  0  0  0
 31 32  1  0  0  0
 11  8  1  0  0  0
 28 27  1  0  0  0
  5  1  1  0  0  0
  5 20  1  0  0  0
  2  3  1  0  0  0
  1  3  1  0  0  0
  1  4  2  0  0  0
 30 25  2  0  0  0
  3 10  1  0  0  0
 10  6  1  0  0  0
 32 33  2  0  0  0
 23 20  2  0  0  0
 23 22  1  0  0  0
 27 26  2  0  0  0
  8 14  1  0  0  0
  8  7  1  0  0  0
 20 18  1  0  0  0
 25 26  1  0  0  0
 25 24  1  0  0  0
 35 33  1  0  0  0
 33 34  1  0  0  0
 17 14  2  0  0  0
 17 13  1  0  0  0
 14 15  1  0  0  0
  6  7  1  0  0  0
 24 22  1  0  0  0
 22 19  2  0  0  0
 13 16  2  0  0  0
 15 12  2  0  0  0
 18 21  2  0  0  0
 16 12  1  0  0  0
 19 21  1  0  0  0
M  END
> <minimizedAffinity>
-9.53033

$$$$
5VB7_921_A_602


 35 38  0  0  0  0  0  0  0  0999 V2000
   -3.6956   24.2508   15.3147 C   0  0  0  0  0  0  0  0  0  0  0  0
   -4.3000   23.6944   12.9989 C   0  0  0  0  0  0  0  0  0  0  0  0
   -4.6387   23.9816   14.3879 N   0  0  0  0  0  0  0  0  0  0  0  0
   -3.9976   24.5235   16.4568 O   0  0  0  0  0  0  0  0  0  0  0  0
   -2.3896   24.2755   14.8879 N   0  0  0  0  0  0  0  0  0  0  0  0
   -6.7856   23.8579   13.4417 C   0  0  0  0  0  0  0  0  0  0  0  0
   -8.2589   24.1499   13.6373 C   0  0  0  0  0  0  0  0  0  0  0  0
   -8.8637   23.2244   14.6904 C   0  0  0  0  0  0  0  0  0  0  0  0
   -6.5910   23.0713   15.7911 C   0  0  0  0  0  0  0  0  0  0  0  0
   -6.0618   24.0530   14.7631 C   0  0  0  0  0  0  0  0  0  0  0  0
   -8.0790   23.3479   15.9997 C   0  0  0  0  0  0  0  0  0  0  0  0
  -12.1833   24.4101   16.0485 C   0  0  0  0  0  0  0  0  0  0  0  0
  -12.5953   23.3314   14.0943 C   0  0  0  0  0  0  0  0  0  0  0  0
  -10.3453   23.4815   14.8545 C   0  0  0  0  0  0  0  0  0  0  0  0
  -10.8276   24.1842   15.9444 C   0  0  0  0  0  0  0  0  0  0  0  0
  -13.0727   23.9968   15.1461 N   0  0  0  0  0  0  0  0  0  0  0  0
  -11.2566   23.0554   13.9058 C   0  0  0  0  0  0  0  0  0  0  0  0
   -0.9211   25.1344   13.1099 C   0  0  0  0  0  0  0  0  0  0  0  0
   -1.4731   27.1540   11.9330 C   0  0  0  0  0  0  0  0  0  0  0  0
   -2.0775   25.2535   13.8799 C   0  0  0  0  0  0  0  0  0  0  0  0
   -0.6245   26.0869   12.1516 C   0  0  0  0  0  0  0  0  0  0  0  0
   -2.6226   27.2658   12.6908 C   0  0  0  0  0  0  0  0  0  0  0  0
   -2.9360   26.3308   13.6666 C   0  0  0  0  0  0  0  0  0  0  0  0
   -3.4545   28.3523   12.4561 O   0  0  0  0  0  0  0  0  0  0  0  0
   -4.7057   28.3958   13.0517 C   0  0  0  0  0  0  0  0  0  0  0  0
   -4.9979   29.3839   13.9724 C   0  0  0  0  0  0  0  0  0  0  0  0
   -6.2497   29.4109   14.5588 C   0  0  0  0  0  0  0  0  0  0  0  0
   -7.1924   28.4631   14.2348 C   0  0  0  0  0  0  0  0  0  0  0  0
   -6.8937   27.4838   13.3158 C   0  0  0  0  0  0  0  0  0  0  0  0
   -5.6479   27.4404   12.7173 C   0  0  0  0  0  0  0  0  0  0  0  0
   -1.3129   24.1371   15.8726 C   0  0  0  0  0  0  0  0  0  0  0  0
   -0.8389   22.7192   15.8937 C   0  0  0  0  0  0  0  0  0  0  0  0
    0.3827   22.2911   15.6299 C   0  0  0  0  0  0  0  0  0  0  0  0
    0.7527   20.8421   15.6764 C   0  0  0  0  0  0  0  0  0  0  0  0
    1.5044   23.2081   15.2544 C   0  0  0  0  0  0  0  0  0  0  0  0
  9 11  1  0  0  0
  9 10  1  0  0  0
 29 28  2  0  0  0
 29 30  1  0  0  0
 31  5  1  0  0  0
 31 32  1  0  0  0
 11  8  1  0  0  0
 28 27  1  0  0  0
  5  1  1  0  0  0
  5 20  1  0  0  0
  2  3  1  0  0  0
  1  3  1  0  0  0
  1  4  2  0  0  0
 30 25  2  0  0  0
  3 10  1  0  0  0
 10  6  1  0  0  0
 32 33  2  0  0  0
 23 20  2  0  0  0
 23 22  1  0  0  0
 27 26  2  0  0  0
  8 14  1  0  0  0
  8  7  1  0  0  0
 20 18  1  0  0  0
 25 26  1  0  0  0
 25 24  1  0  0  0
 35 33  1  0  0  0
 33 34  1  0  0  0
 17 14  2  0  0  0
 17 13  1  0  0  0
 14 15  1  0  0  0
  6  7  1  0  0  0
 24 22  1  0  0  0
 22 19  2  0  0  0
 13 16  2  0  0  0
 15 12  2  0  0  0
 18 21  2  0  0  0
 16 12  1  0  0  0
 19 21  1  0  0  0
M  END
> <minimizedAffinity>
-9.23064

$$$$
