4NL1_Z13_A_301


 13 13  0  0  0  0  0  0  0  0999 V2000
  -25.6436   42.6533   15.8543 C   0  0  0  0  0  0  0  0  0  0  0  0
  -24.5435   43.3809   16.3878 C   0  0  0  0  0  0  0  0  0  0  0  0
  -23.4699   43.6501   15.5347 C   0  0  0  0  0  0  0  0  0  0  0  0
  -23.4567   43.1604   14.2189 C   0  0  0  0  0  0  0  0  0  0  0  0
  -25.6129   42.1655   14.5658 C   0  0  0  0  0  0  0  0  0  0  0  0
  -24.5086   42.4072   13.7020 C   0  0  0  0  0  0  0  0  0  0  0  0
  -24.4958   40.5890   12.2605 F   0  0  0  0  0  0  0  0  0  0  0  0
  -25.5931   42.3317   11.6735 F   0  0  0  0  0  0  0  0  0  0  0  0
  -23.3988   42.3380   11.6978 F   0  0  0  0  0  0  0  0  0  0  0  0
  -24.4852   41.9057   12.2991 C   0  0  0  0  0  0  0  0  0  0  0  0
  -24.6061   43.9472   17.7376 C   0  0  0  0  0  0  0  0  0  0  0  0
  -24.0270   45.2522   17.6751 N   0  0  0  0  0  0  0  0  0  0  0  0
  -23.1527   45.4695   18.8082 C   0  0  0  0  0  0  0  0  0  0  0  0
  7 10  1  0  0  0
  9 10  1  0  0  0
  8 10  1  0  0  0
 10  6  1  0  0  0
  6  4  2  0  0  0
  6  5  1  0  0  0
  4  3  1  0  0  0
  5  1  2  0  0  0
  1  2  1  0  0  0
  3  2  2  0  0  0
  2 11  1  0  0  0
 11 12  1  0  0  0
 13 12  2  0  0  0
M  END
> <minimizedAffinity>
-5.08419

$$$$
4NL1_Z13_A_301


 13 13  0  0  0  0  0  0  0  0999 V2000
  -23.7187   42.9939   15.8919 C   0  0  0  0  0  0  0  0  0  0  0  0
  -24.7507   42.2043   16.4711 C   0  0  0  0  0  0  0  0  0  0  0  0
  -25.8249   41.8414   15.6542 C   0  0  0  0  0  0  0  0  0  0  0  0
  -25.9069   42.2984   14.3290 C   0  0  0  0  0  0  0  0  0  0  0  0
  -23.8172   43.4483   14.5946 C   0  0  0  0  0  0  0  0  0  0  0  0
  -24.9242   43.1105   13.7672 C   0  0  0  0  0  0  0  0  0  0  0  0
  -26.2112   43.3334   11.8494 F   0  0  0  0  0  0  0  0  0  0  0  0
  -24.8392   44.9058   12.3297 F   0  0  0  0  0  0  0  0  0  0  0  0
  -24.1165   42.9564   11.6277 F   0  0  0  0  0  0  0  0  0  0  0  0
  -25.0194   43.5765   12.3551 C   0  0  0  0  0  0  0  0  0  0  0  0
  -24.6133   41.6752   17.8305 C   0  0  0  0  0  0  0  0  0  0  0  0
  -25.0942   40.3296   17.8104 N   0  0  0  0  0  0  0  0  0  0  0  0
  -25.7542   40.0125   19.0590 C   0  0  0  0  0  0  0  0  0  0  0  0
  7 10  1  0  0  0
  9 10  1  0  0  0
  8 10  1  0  0  0
 10  6  1  0  0  0
  6  4  2  0  0  0
  6  5  1  0  0  0
  4  3  1  0  0  0
  5  1  2  0  0  0
  1  2  1  0  0  0
  3  2  2  0  0  0
  2 11  1  0  0  0
 11 12  1  0  0  0
 13 12  2  0  0  0
M  END
> <minimizedAffinity>
-5.05478

$$$$
4NL1_Z13_A_301


 13 13  0  0  0  0  0  0  0  0999 V2000
  -25.8072   41.7783   15.5532 C   0  0  0  0  0  0  0  0  0  0  0  0
  -24.7495   42.0960   16.4501 C   0  0  0  0  0  0  0  0  0  0  0  0
  -23.7477   42.9558   15.9919 C   0  0  0  0  0  0  0  0  0  0  0  0
  -23.7579   43.4326   14.6713 C   0  0  0  0  0  0  0  0  0  0  0  0
  -25.7989   42.2406   14.2550 C   0  0  0  0  0  0  0  0  0  0  0  0
  -24.7646   43.0896   13.7715 C   0  0  0  0  0  0  0  0  0  0  0  0
  -23.7045   43.2132   11.7111 F   0  0  0  0  0  0  0  0  0  0  0  0
  -25.8441   43.1289   11.7392 F   0  0  0  0  0  0  0  0  0  0  0  0
  -24.7794   44.9289   12.4040 F   0  0  0  0  0  0  0  0  0  0  0  0
  -24.7680   43.6144   12.3769 C   0  0  0  0  0  0  0  0  0  0  0  0
  -24.7935   41.6505   17.8452 C   0  0  0  0  0  0  0  0  0  0  0  0
  -25.2155   40.2851   17.8393 N   0  0  0  0  0  0  0  0  0  0  0  0
  -26.1107   40.0303   18.9479 C   0  0  0  0  0  0  0  0  0  0  0  0
  7 10  1  0  0  0
  9 10  1  0  0  0
  8 10  1  0  0  0
 10  6  1  0  0  0
  6  4  2  0  0  0
  6  5  1  0  0  0
  4  3  1  0  0  0
  5  1  2  0  0  0
  1  2  1  0  0  0
  3  2  2  0  0  0
  2 11  1  0  0  0
 11 12  1  0  0  0
 13 12  2  0  0  0
M  END
> <minimizedAffinity>
-4.99463

$$$$
4NL1_Z13_A_301


 13 13  0  0  0  0  0  0  0  0999 V2000
  -25.2792   41.9647   17.3602 C   0  0  0  0  0  0  0  0  0  0  0  0
  -26.6616   41.9728   17.0244 C   0  0  0  0  0  0  0  0  0  0  0  0
  -27.0047   42.2495   15.6982 C   0  0  0  0  0  0  0  0  0  0  0  0
  -26.0181   42.5710   14.7523 C   0  0  0  0  0  0  0  0  0  0  0  0
  -24.3209   42.2958   16.4267 C   0  0  0  0  0  0  0  0  0  0  0  0
  -24.6653   42.6112   15.0828 C   0  0  0  0  0  0  0  0  0  0  0  0
  -23.7789   44.1683   13.6085 F   0  0  0  0  0  0  0  0  0  0  0  0
  -22.4215   42.8765   14.6450 F   0  0  0  0  0  0  0  0  0  0  0  0
  -23.7225   42.1015   13.0567 F   0  0  0  0  0  0  0  0  0  0  0  0
  -23.6293   42.9414   14.0641 C   0  0  0  0  0  0  0  0  0  0  0  0
  -27.6711   41.5631   18.0041 C   0  0  0  0  0  0  0  0  0  0  0  0
  -28.8268   42.3743   17.7838 N   0  0  0  0  0  0  0  0  0  0  0  0
  -29.7688   42.2141   18.8712 C   0  0  0  0  0  0  0  0  0  0  0  0
  7 10  1  0  0  0
  9 10  1  0  0  0
  8 10  1  0  0  0
 10  6  1  0  0  0
  6  4  2  0  0  0
  6  5  1  0  0  0
  4  3  1  0  0  0
  5  1  2  0  0  0
  1  2  1  0  0  0
  3  2  2  0  0  0
  2 11  1  0  0  0
 11 12  1  0  0  0
 13 12  2  0  0  0
M  END
> <minimizedAffinity>
-4.04911

$$$$
4NL1_Z13_A_301


 13 13  0  0  0  0  0  0  0  0999 V2000
  -25.6987   42.0985   15.3609 C   0  0  0  0  0  0  0  0  0  0  0  0
  -24.7412   42.3029   14.3287 C   0  0  0  0  0  0  0  0  0  0  0  0
  -23.6524   43.1326   14.6100 C   0  0  0  0  0  0  0  0  0  0  0  0
  -23.5490   43.7886   15.8470 C   0  0  0  0  0  0  0  0  0  0  0  0
  -25.5942   42.7591   16.5659 C   0  0  0  0  0  0  0  0  0  0  0  0
  -24.5060   43.6313   16.8472 C   0  0  0  0  0  0  0  0  0  0  0  0
  -23.8702   43.5243   19.0762 F   0  0  0  0  0  0  0  0  0  0  0  0
  -23.5257   45.3536   18.0176 F   0  0  0  0  0  0  0  0  0  0  0  0
  -25.5594   44.7321   18.5595 F   0  0  0  0  0  0  0  0  0  0  0  0
  -24.3750   44.3245   18.1596 C   0  0  0  0  0  0  0  0  0  0  0  0
  -24.8250   41.5535   13.0725 C   0  0  0  0  0  0  0  0  0  0  0  0
  -24.6948   42.4982   12.0081 N   0  0  0  0  0  0  0  0  0  0  0  0
  -25.9216   43.2500   11.8497 C   0  0  0  0  0  0  0  0  0  0  0  0
  7 10  1  0  0  0
  9 10  1  0  0  0
  8 10  1  0  0  0
 10  6  1  0  0  0
  6  4  2  0  0  0
  6  5  1  0  0  0
  4  3  1  0  0  0
  5  1  2  0  0  0
  1  2  1  0  0  0
  3  2  2  0  0  0
  2 11  1  0  0  0
 11 12  1  0  0  0
 13 12  2  0  0  0
M  END
> <minimizedAffinity>
-3.98454

$$$$
4NL1_Z13_A_301


 13 13  0  0  0  0  0  0  0  0999 V2000
  -22.3292   43.6818   15.8748 C   0  0  0  0  0  0  0  0  0  0  0  0
  -22.7550   44.2886   17.0891 C   0  0  0  0  0  0  0  0  0  0  0  0
  -24.0930   44.1281   17.4593 C   0  0  0  0  0  0  0  0  0  0  0  0
  -24.9931   43.4463   16.6248 C   0  0  0  0  0  0  0  0  0  0  0  0
  -23.2249   43.0275   15.0571 C   0  0  0  0  0  0  0  0  0  0  0  0
  -24.5958   42.8888   15.4115 C   0  0  0  0  0  0  0  0  0  0  0  0
  -26.1903   42.9781   13.7281 F   0  0  0  0  0  0  0  0  0  0  0  0
  -24.8781   41.2868   13.7834 F   0  0  0  0  0  0  0  0  0  0  0  0
  -26.4480   41.5437   15.2950 F   0  0  0  0  0  0  0  0  0  0  0  0
  -25.5606   42.1570   14.5432 C   0  0  0  0  0  0  0  0  0  0  0  0
  -21.7880   44.9315   17.9826 C   0  0  0  0  0  0  0  0  0  0  0  0
  -21.8927   46.3414   17.7735 N   0  0  0  0  0  0  0  0  0  0  0  0
  -21.8939   47.0393   19.0417 C   0  0  0  0  0  0  0  0  0  0  0  0
  7 10  1  0  0  0
  9 10  1  0  0  0
  8 10  1  0  0  0
 10  6  1  0  0  0
  6  4  2  0  0  0
  6  5  1  0  0  0
  4  3  1  0  0  0
  5  1  2  0  0  0
  1  2  1  0  0  0
  3  2  2  0  0  0
  2 11  1  0  0  0
 11 12  1  0  0  0
 13 12  2  0  0  0
M  END
> <minimizedAffinity>
-3.95983

$$$$
4NL1_Z13_A_301


 13 13  0  0  0  0  0  0  0  0999 V2000
  -23.9570   43.6504   15.2036 C   0  0  0  0  0  0  0  0  0  0  0  0
  -24.6447   43.2672   14.0186 C   0  0  0  0  0  0  0  0  0  0  0  0
  -25.8885   42.6468   14.1630 C   0  0  0  0  0  0  0  0  0  0  0  0
  -26.4040   42.3572   15.4365 C   0  0  0  0  0  0  0  0  0  0  0  0
  -24.4662   43.3480   16.4480 C   0  0  0  0  0  0  0  0  0  0  0  0
  -25.7164   42.6867   16.6026 C   0  0  0  0  0  0  0  0  0  0  0  0
  -26.7048   41.1383   18.0201 F   0  0  0  0  0  0  0  0  0  0  0  0
  -25.3140   42.5312   18.8632 F   0  0  0  0  0  0  0  0  0  0  0  0
  -27.2954   43.1884   18.1864 F   0  0  0  0  0  0  0  0  0  0  0  0
  -26.2831   42.3841   17.9470 C   0  0  0  0  0  0  0  0  0  0  0  0
  -24.1280   43.6431   12.7000 C   0  0  0  0  0  0  0  0  0  0  0  0
  -23.1121   42.6975   12.3595 N   0  0  0  0  0  0  0  0  0  0  0  0
  -23.7042   41.5071   11.7868 C   0  0  0  0  0  0  0  0  0  0  0  0
  7 10  1  0  0  0
  9 10  1  0  0  0
  8 10  1  0  0  0
 10  6  1  0  0  0
  6  4  2  0  0  0
  6  5  1  0  0  0
  4  3  1  0  0  0
  5  1  2  0  0  0
  1  2  1  0  0  0
  3  2  2  0  0  0
  2 11  1  0  0  0
 11 12  1  0  0  0
 13 12  2  0  0  0
M  END
> <minimizedAffinity>
-3.94689

$$$$
4NL1_Z13_A_301


 13 13  0  0  0  0  0  0  0  0999 V2000
  -22.9534   42.3943   17.6614 C   0  0  0  0  0  0  0  0  0  0  0  0
  -22.1600   42.9757   16.6336 C   0  0  0  0  0  0  0  0  0  0  0  0
  -22.8059   43.3603   15.4555 C   0  0  0  0  0  0  0  0  0  0  0  0
  -24.1772   43.1185   15.2756 C   0  0  0  0  0  0  0  0  0  0  0  0
  -24.2956   42.1488   17.4677 C   0  0  0  0  0  0  0  0  0  0  0  0
  -24.9532   42.5073   16.2580 C   0  0  0  0  0  0  0  0  0  0  0  0
  -26.7876   42.6070   14.8407 F   0  0  0  0  0  0  0  0  0  0  0  0
  -26.6538   40.9577   16.1998 F   0  0  0  0  0  0  0  0  0  0  0  0
  -27.0942   42.9814   16.9251 F   0  0  0  0  0  0  0  0  0  0  0  0
  -26.4103   42.2694   16.0567 C   0  0  0  0  0  0  0  0  0  0  0  0
  -20.7476   43.2883   16.8663 C   0  0  0  0  0  0  0  0  0  0  0  0
  -20.5818   44.6890   16.6365 N   0  0  0  0  0  0  0  0  0  0  0  0
  -20.2474   45.3654   17.8719 C   0  0  0  0  0  0  0  0  0  0  0  0
  7 10  1  0  0  0
  9 10  1  0  0  0
  8 10  1  0  0  0
 10  6  1  0  0  0
  6  4  2  0  0  0
  6  5  1  0  0  0
  4  3  1  0  0  0
  5  1  2  0  0  0
  1  2  1  0  0  0
  3  2  2  0  0  0
  2 11  1  0  0  0
 11 12  1  0  0  0
 13 12  2  0  0  0
M  END
> <minimizedAffinity>
-3.90600

$$$$
4NL1_Z13_A_301


 13 13  0  0  0  0  0  0  0  0999 V2000
  -25.7578   42.4092   14.7348 C   0  0  0  0  0  0  0  0  0  0  0  0
  -24.4993   42.9612   15.1030 C   0  0  0  0  0  0  0  0  0  0  0  0
  -24.3266   43.3494   16.4343 C   0  0  0  0  0  0  0  0  0  0  0  0
  -25.3835   43.2549   17.3537 C   0  0  0  0  0  0  0  0  0  0  0  0
  -26.7921   42.3348   15.6424 C   0  0  0  0  0  0  0  0  0  0  0  0
  -26.6339   42.7590   16.9911 C   0  0  0  0  0  0  0  0  0  0  0  0
  -27.3563   43.0534   19.1764 F   0  0  0  0  0  0  0  0  0  0  0  0
  -28.7414   43.4596   17.5947 F   0  0  0  0  0  0  0  0  0  0  0  0
  -28.1386   41.4021   18.0627 F   0  0  0  0  0  0  0  0  0  0  0  0
  -27.7416   42.6530   17.9821 C   0  0  0  0  0  0  0  0  0  0  0  0
  -23.3857   42.9836   14.1510 C   0  0  0  0  0  0  0  0  0  0  0  0
  -23.9253   43.3475   12.8787 N   0  0  0  0  0  0  0  0  0  0  0  0
  -23.4948   42.4104   11.8630 C   0  0  0  0  0  0  0  0  0  0  0  0
  7 10  1  0  0  0
  9 10  1  0  0  0
  8 10  1  0  0  0
 10  6  1  0  0  0
  6  4  2  0  0  0
  6  5  1  0  0  0
  4  3  1  0  0  0
  5  1  2  0  0  0
  1  2  1  0  0  0
  3  2  2  0  0  0
  2 11  1  0  0  0
 11 12  1  0  0  0
 13 12  2  0  0  0
M  END
> <minimizedAffinity>
-3.85313

$$$$
4NL1_Z13_A_301


 13 13  0  0  0  0  0  0  0  0999 V2000
  -24.8688   42.2421   16.8322 C   0  0  0  0  0  0  0  0  0  0  0  0
  -25.3178   42.6914   15.5592 C   0  0  0  0  0  0  0  0  0  0  0  0
  -24.3705   43.2535   14.6993 C   0  0  0  0  0  0  0  0  0  0  0  0
  -23.0387   43.4245   15.1098 C   0  0  0  0  0  0  0  0  0  0  0  0
  -23.5624   42.4284   17.2295 C   0  0  0  0  0  0  0  0  0  0  0  0
  -22.5999   43.0303   16.3719 C   0  0  0  0  0  0  0  0  0  0  0  0
  -20.8620   44.4819   16.8784 F   0  0  0  0  0  0  0  0  0  0  0  0
  -21.0206   42.6686   18.0064 F   0  0  0  0  0  0  0  0  0  0  0  0
  -20.3910   42.6356   15.9044 F   0  0  0  0  0  0  0  0  0  0  0  0
  -21.1800   43.2068   16.7877 C   0  0  0  0  0  0  0  0  0  0  0  0
  -26.6923   42.4380   15.1193 C   0  0  0  0  0  0  0  0  0  0  0  0
  -27.4105   41.9344   16.2476 N   0  0  0  0  0  0  0  0  0  0  0  0
  -28.6153   42.7074   16.4630 C   0  0  0  0  0  0  0  0  0  0  0  0
  7 10  1  0  0  0
  9 10  1  0  0  0
  8 10  1  0  0  0
 10  6  1  0  0  0
  6  4  2  0  0  0
  6  5  1  0  0  0
  4  3  1  0  0  0
  5  1  2  0  0  0
  1  2  1  0  0  0
  3  2  2  0  0  0
  2 11  1  0  0  0
 11 12  1  0  0  0
 13 12  2  0  0  0
M  END
> <minimizedAffinity>
-3.84964

$$$$
