3C4H_DRL_A_601


 13 14  0  0  0  0  0  0  0  0999 V2000
   18.9962   -4.6955   13.0684 C   0  0  0  0  0  0  0  0  0  0  0  0
   18.0697   -5.6491   12.3029 C   0  0  0  0  0  0  0  0  0  0  0  0
   18.4152   -6.9208   12.0839 N   0  0  0  0  0  0  0  0  0  0  0  0
   17.6386   -7.7933   11.4146 C   0  0  0  0  0  0  0  0  0  0  0  0
   18.2506   -9.2012   11.3264 C   0  0  0  0  0  0  0  0  0  0  0  0
   17.2246  -10.2842   10.9751 C   0  0  0  0  0  0  0  0  0  0  0  0
   16.3421   -9.7894    9.4658 S   0  0  0  0  0  0  0  0  0  0  0  0
   15.4549   -8.3338   10.1463 C   0  0  0  0  0  0  0  0  0  0  0  0
   16.3919   -7.3882   10.9116 C   0  0  0  0  0  0  0  0  0  0  0  0
   16.0258   -6.0584   11.1308 C   0  0  0  0  0  0  0  0  0  0  0  0
   14.9550   -5.6116   10.7239 O   0  0  0  0  0  0  0  0  0  0  0  0
   16.8507   -5.2005   11.8360 N   0  0  0  0  0  0  0  0  0  0  0  0
   16.5690   -4.2723   12.0043 H   0  0  0  0  0  0  0  0  0  0  0  0
  1  2  1  0  0  0
  2  3  2  0  0  0
  2 12  1  0  0  0
  3  4  1  0  0  0
  4  5  1  0  0  0
  4  9  2  0  0  0
  5  6  1  0  0  0
  6  7  1  0  0  0
  7  8  1  0  0  0
  8  9  1  0  0  0
  9 10  1  0  0  0
 10 11  2  0  0  0
 10 12  1  0  0  0
 12 13  1  0  0  0
M  END
> <minimizedAffinity>
-7.34946

$$$$
3C4H_DRL_A_601


 13 14  0  0  0  0  0  0  0  0999 V2000
   15.3328   -9.9556    9.9329 C   0  0  0  0  0  0  0  0  0  0  0  0
   16.0657   -8.7559   10.5469 C   0  0  0  0  0  0  0  0  0  0  0  0
   17.3324   -8.8571   10.9593 N   0  0  0  0  0  0  0  0  0  0  0  0
   18.0153   -7.8348   11.5077 C   0  0  0  0  0  0  0  0  0  0  0  0
   19.4643   -8.2019   11.8686 C   0  0  0  0  0  0  0  0  0  0  0  0
   20.3644   -6.9781   12.0708 C   0  0  0  0  0  0  0  0  0  0  0  0
   19.5833   -5.8679   13.2786 S   0  0  0  0  0  0  0  0  0  0  0  0
   18.1283   -5.3716   12.2756 C   0  0  0  0  0  0  0  0  0  0  0  0
   17.4044   -6.5803   11.6650 C   0  0  0  0  0  0  0  0  0  0  0  0
   16.0782   -6.4678   11.2420 C   0  0  0  0  0  0  0  0  0  0  0  0
   15.4593   -5.4102   11.3435 O   0  0  0  0  0  0  0  0  0  0  0  0
   15.4199   -7.5424   10.6716 N   0  0  0  0  0  0  0  0  0  0  0  0
   14.4930   -7.4420   10.3555 H   0  0  0  0  0  0  0  0  0  0  0  0
  1  2  1  0  0  0
  2  3  2  0  0  0
  2 12  1  0  0  0
  3  4  1  0  0  0
  4  5  1  0  0  0
  4  9  2  0  0  0
  5  6  1  0  0  0
  6  7  1  0  0  0
  7  8  1  0  0  0
  8  9  1  0  0  0
  9 10  1  0  0  0
 10 11  2  0  0  0
 10 12  1  0  0  0
 12 13  1  0  0  0
M  END
> <minimizedAffinity>
-6.43176

$$$$
3C4H_DRL_A_601


 13 14  0  0  0  0  0  0  0  0999 V2000
   20.7717  -11.0687   12.0837 C   0  0  0  0  0  0  0  0  0  0  0  0
   19.7164   -9.9803   11.8482 C   0  0  0  0  0  0  0  0  0  0  0  0
   18.5111  -10.2812   11.3568 N   0  0  0  0  0  0  0  0  0  0  0  0
   17.5548   -9.3614   11.1292 C   0  0  0  0  0  0  0  0  0  0  0  0
   16.2489   -9.9694   10.5913 C   0  0  0  0  0  0  0  0  0  0  0  0
   15.0417   -9.0376   10.7439 C   0  0  0  0  0  0  0  0  0  0  0  0
   15.4440   -7.4291   10.0006 S   0  0  0  0  0  0  0  0  0  0  0  0
   16.7445   -6.9100   11.1874 C   0  0  0  0  0  0  0  0  0  0  0  0
   17.7934   -8.0078   11.4163 C   0  0  0  0  0  0  0  0  0  0  0  0
   19.0532   -7.6840   11.9245 C   0  0  0  0  0  0  0  0  0  0  0  0
   19.3554   -6.5247   12.2016 O   0  0  0  0  0  0  0  0  0  0  0  0
   20.0010   -8.6649   12.1548 N   0  0  0  0  0  0  0  0  0  0  0  0
   20.8764   -8.4255   12.5364 H   0  0  0  0  0  0  0  0  0  0  0  0
  1  2  1  0  0  0
  2  3  2  0  0  0
  2 12  1  0  0  0
  3  4  1  0  0  0
  4  5  1  0  0  0
  4  9  2  0  0  0
  5  6  1  0  0  0
  6  7  1  0  0  0
  7  8  1  0  0  0
  8  9  1  0  0  0
  9 10  1  0  0  0
 10 11  2  0  0  0
 10 12  1  0  0  0
 12 13  1  0  0  0
M  END
> <minimizedAffinity>
-6.36956

$$$$
3C4H_DRL_A_601


 13 14  0  0  0  0  0  0  0  0999 V2000
   20.6975  -11.8911   12.1389 C   0  0  0  0  0  0  0  0  0  0  0  0
   19.7148  -10.7527   11.8354 C   0  0  0  0  0  0  0  0  0  0  0  0
   20.0503   -9.4764   12.0432 N   0  0  0  0  0  0  0  0  0  0  0  0
   19.2217   -8.4445   11.7963 C   0  0  0  0  0  0  0  0  0  0  0  0
   19.8585   -7.0760   12.0898 C   0  0  0  0  0  0  0  0  0  0  0  0
   19.1233   -5.9116   11.4171 C   0  0  0  0  0  0  0  0  0  0  0  0
   17.3631   -5.9940   11.8606 S   0  0  0  0  0  0  0  0  0  0  0  0
   16.9429   -7.5471   10.9771 C   0  0  0  0  0  0  0  0  0  0  0  0
   17.9341   -8.6781   11.2873 C   0  0  0  0  0  0  0  0  0  0  0  0
   17.5733  -10.0101   11.0730 C   0  0  0  0  0  0  0  0  0  0  0  0
   16.4654  -10.3127   10.6338 O   0  0  0  0  0  0  0  0  0  0  0  0
   18.4629  -11.0380   11.3288 N   0  0  0  0  0  0  0  0  0  0  0  0
   18.2038  -11.9708   11.1500 H   0  0  0  0  0  0  0  0  0  0  0  0
  1  2  1  0  0  0
  2  3  2  0  0  0
  2 12  1  0  0  0
  3  4  1  0  0  0
  4  5  1  0  0  0
  4  9  2  0  0  0
  5  6  1  0  0  0
  6  7  1  0  0  0
  7  8  1  0  0  0
  8  9  1  0  0  0
  9 10  1  0  0  0
 10 11  2  0  0  0
 10 12  1  0  0  0
 12 13  1  0  0  0
M  END
> <minimizedAffinity>
-6.17744

$$$$
3C4H_DRL_A_601


 13 14  0  0  0  0  0  0  0  0999 V2000
   15.4235   -9.8381    9.9757 C   0  0  0  0  0  0  0  0  0  0  0  0
   16.6598   -9.2196   10.6411 C   0  0  0  0  0  0  0  0  0  0  0  0
   16.7071   -7.9175   10.9362 N   0  0  0  0  0  0  0  0  0  0  0  0
   17.7702   -7.3289   11.5156 C   0  0  0  0  0  0  0  0  0  0  0  0
   17.5605   -5.8283   11.7776 C   0  0  0  0  0  0  0  0  0  0  0  0
   18.5411   -5.2522   12.8049 C   0  0  0  0  0  0  0  0  0  0  0  0
   20.2357   -5.6613   12.2926 S   0  0  0  0  0  0  0  0  0  0  0  0
   20.1455   -7.4807   12.5178 C   0  0  0  0  0  0  0  0  0  0  0  0
   18.9035   -8.0877   11.8494 C   0  0  0  0  0  0  0  0  0  0  0  0
   18.8646   -9.4487   11.5385 C   0  0  0  0  0  0  0  0  0  0  0  0
   19.8114  -10.1921   11.7891 O   0  0  0  0  0  0  0  0  0  0  0  0
   17.7447  -10.0132   10.9548 N   0  0  0  0  0  0  0  0  0  0  0  0
   17.7216  -10.9787   10.7635 H   0  0  0  0  0  0  0  0  0  0  0  0
  1  2  1  0  0  0
  2  3  2  0  0  0
  2 12  1  0  0  0
  3  4  1  0  0  0
  4  5  1  0  0  0
  4  9  2  0  0  0
  5  6  1  0  0  0
  6  7  1  0  0  0
  7  8  1  0  0  0
  8  9  1  0  0  0
  9 10  1  0  0  0
 10 11  2  0  0  0
 10 12  1  0  0  0
 12 13  1  0  0  0
M  END
> <minimizedAffinity>
-6.12108

$$$$
3C4H_DRL_A_601


 13 14  0  0  0  0  0  0  0  0999 V2000
   15.5244   -9.8966   10.1021 C   0  0  0  0  0  0  0  0  0  0  0  0
   16.6224   -9.0338   10.7374 C   0  0  0  0  0  0  0  0  0  0  0  0
   17.8239   -9.5436   11.0220 N   0  0  0  0  0  0  0  0  0  0  0  0
   18.8168   -8.8281   11.5830 C   0  0  0  0  0  0  0  0  0  0  0  0
   20.1085   -9.6390   11.7789 C   0  0  0  0  0  0  0  0  0  0  0  0
   21.3461   -8.7604   11.9918 C   0  0  0  0  0  0  0  0  0  0  0  0
   21.0150   -7.5988   13.3493 S   0  0  0  0  0  0  0  0  0  0  0  0
   19.7147   -6.5981   12.5265 C   0  0  0  0  0  0  0  0  0  0  0  0
   18.6229   -7.4724   11.8931 C   0  0  0  0  0  0  0  0  0  0  0  0
   17.3674   -6.9333   11.6044 C   0  0  0  0  0  0  0  0  0  0  0  0
   17.1030   -5.7567   11.8445 O   0  0  0  0  0  0  0  0  0  0  0  0
   16.3808   -7.7035   11.0153 N   0  0  0  0  0  0  0  0  0  0  0  0
   15.5085   -7.3038   10.7948 H   0  0  0  0  0  0  0  0  0  0  0  0
  1  2  1  0  0  0
  2  3  2  0  0  0
  2 12  1  0  0  0
  3  4  1  0  0  0
  4  5  1  0  0  0
  4  9  2  0  0  0
  5  6  1  0  0  0
  6  7  1  0  0  0
  7  8  1  0  0  0
  8  9  1  0  0  0
  9 10  1  0  0  0
 10 11  2  0  0  0
 10 12  1  0  0  0
 12 13  1  0  0  0
M  END
> <minimizedAffinity>
-6.05362

$$$$
3C4H_DRL_A_601


 13 14  0  0  0  0  0  0  0  0999 V2000
   21.0878   -6.8494   12.5800 C   0  0  0  0  0  0  0  0  0  0  0  0
   19.8647   -7.6293   12.0808 C   0  0  0  0  0  0  0  0  0  0  0  0
   18.7462   -6.9987   11.7120 N   0  0  0  0  0  0  0  0  0  0  0  0
   17.6470   -7.6392   11.2719 C   0  0  0  0  0  0  0  0  0  0  0  0
   16.5074   -6.6833   10.8818 C   0  0  0  0  0  0  0  0  0  0  0  0
   15.4490   -7.3391    9.9881 C   0  0  0  0  0  0  0  0  0  0  0  0
   14.8658   -8.8620   10.7894 S   0  0  0  0  0  0  0  0  0  0  0  0
   16.4202   -9.8313   10.6727 C   0  0  0  0  0  0  0  0  0  0  0  0
   17.6370   -9.0398   11.1733 C   0  0  0  0  0  0  0  0  0  0  0  0
   18.8003   -9.7072   11.5627 C   0  0  0  0  0  0  0  0  0  0  0  0
   18.8838  -10.9331   11.5155 O   0  0  0  0  0  0  0  0  0  0  0  0
   19.9112   -9.0063   11.9966 N   0  0  0  0  0  0  0  0  0  0  0  0
   20.7329   -9.4884   12.2448 H   0  0  0  0  0  0  0  0  0  0  0  0
  1  2  1  0  0  0
  2  3  2  0  0  0
  2 12  1  0  0  0
  3  4  1  0  0  0
  4  5  1  0  0  0
  4  9  2  0  0  0
  5  6  1  0  0  0
  6  7  1  0  0  0
  7  8  1  0  0  0
  8  9  1  0  0  0
  9 10  1  0  0  0
 10 11  2  0  0  0
 10 12  1  0  0  0
 12 13  1  0  0  0
M  END
> <minimizedAffinity>
-5.92197

$$$$
3C4H_DRL_A_601


 13 14  0  0  0  0  0  0  0  0999 V2000
   15.7947   -5.9015   10.9780 C   0  0  0  0  0  0  0  0  0  0  0  0
   16.8574   -6.9858   11.1983 C   0  0  0  0  0  0  0  0  0  0  0  0
   18.0503   -6.6883   11.7208 N   0  0  0  0  0  0  0  0  0  0  0  0
   19.0155   -7.6035   11.9288 C   0  0  0  0  0  0  0  0  0  0  0  0
   20.2814   -7.0103   12.5693 C   0  0  0  0  0  0  0  0  0  0  0  0
   21.1885   -8.0690   13.2058 C   0  0  0  0  0  0  0  0  0  0  0  0
   21.5433   -9.3560   11.9732 S   0  0  0  0  0  0  0  0  0  0  0  0
   19.8492  -10.0453   11.8189 C   0  0  0  0  0  0  0  0  0  0  0  0
   18.7946   -8.9508   11.6007 C   0  0  0  0  0  0  0  0  0  0  0  0
   17.5521   -9.2692   11.0481 C   0  0  0  0  0  0  0  0  0  0  0  0
   17.2691  -10.4214   10.7254 O   0  0  0  0  0  0  0  0  0  0  0  0
   16.5851   -8.2972   10.8645 N   0  0  0  0  0  0  0  0  0  0  0  0
   15.7048   -8.5402   10.4967 H   0  0  0  0  0  0  0  0  0  0  0  0
  1  2  1  0  0  0
  2  3  2  0  0  0
  2 12  1  0  0  0
  3  4  1  0  0  0
  4  5  1  0  0  0
  4  9  2  0  0  0
  5  6  1  0  0  0
  6  7  1  0  0  0
  7  8  1  0  0  0
  8  9  1  0  0  0
  9 10  1  0  0  0
 10 11  2  0  0  0
 10 12  1  0  0  0
 12 13  1  0  0  0
M  END
> <minimizedAffinity>
-5.88423

$$$$
3C4H_DRL_A_601


 13 14  0  0  0  0  0  0  0  0999 V2000
   16.2479  -10.1557   10.5958 C   0  0  0  0  0  0  0  0  0  0  0  0
   17.6701   -9.9045   11.1132 C   0  0  0  0  0  0  0  0  0  0  0  0
   18.1006   -8.6680   11.3787 N   0  0  0  0  0  0  0  0  0  0  0  0
   19.3398   -8.3974   11.8298 C   0  0  0  0  0  0  0  0  0  0  0  0
   19.5746   -6.8996   12.0866 C   0  0  0  0  0  0  0  0  0  0  0  0
   20.7801   -6.6244   12.9921 C   0  0  0  0  0  0  0  0  0  0  0  0
   22.2343   -7.4718   12.3075 S   0  0  0  0  0  0  0  0  0  0  0  0
   21.6789   -9.2010   12.5729 C   0  0  0  0  0  0  0  0  0  0  0  0
   20.2540   -9.4396   12.0529 C   0  0  0  0  0  0  0  0  0  0  0  0
   19.8139  -10.7348   11.7718 C   0  0  0  0  0  0  0  0  0  0  0  0
   20.5449  -11.7105   11.9319 O   0  0  0  0  0  0  0  0  0  0  0  0
   18.5264  -10.9668   11.3220 N   0  0  0  0  0  0  0  0  0  0  0  0
   18.2217  -11.8872   11.1513 H   0  0  0  0  0  0  0  0  0  0  0  0
  1  2  1  0  0  0
  2  3  2  0  0  0
  2 12  1  0  0  0
  3  4  1  0  0  0
  4  5  1  0  0  0
  4  9  2  0  0  0
  5  6  1  0  0  0
  6  7  1  0  0  0
  7  8  1  0  0  0
  8  9  1  0  0  0
  9 10  1  0  0  0
 10 11  2  0  0  0
 10 12  1  0  0  0
 12 13  1  0  0  0
M  END
> <minimizedAffinity>
-5.86025

$$$$
3C4H_DRL_A_601


 13 14  0  0  0  0  0  0  0  0999 V2000
   15.4526   -6.5570   10.9307 C   0  0  0  0  0  0  0  0  0  0  0  0
   16.8665   -6.5464   11.5259 C   0  0  0  0  0  0  0  0  0  0  0  0
   17.6481   -7.6284   11.4700 N   0  0  0  0  0  0  0  0  0  0  0  0
   18.8928   -7.6686   11.9814 C   0  0  0  0  0  0  0  0  0  0  0  0
   19.5928   -9.0196   11.7591 C   0  0  0  0  0  0  0  0  0  0  0  0
   21.1144   -8.9455   11.9271 C   0  0  0  0  0  0  0  0  0  0  0  0
   21.4914   -8.1987   13.5401 S   0  0  0  0  0  0  0  0  0  0  0  0
   20.8515   -6.5115   13.2035 C   0  0  0  0  0  0  0  0  0  0  0  0
   19.4371   -6.5353   12.6065 C   0  0  0  0  0  0  0  0  0  0  0  0
   18.6242   -5.4018   12.6746 C   0  0  0  0  0  0  0  0  0  0  0  0
   19.0129   -4.3637   13.2068 O   0  0  0  0  0  0  0  0  0  0  0  0
   17.3554   -5.4021   12.1233 N   0  0  0  0  0  0  0  0  0  0  0  0
   16.8025   -4.5882   12.1570 H   0  0  0  0  0  0  0  0  0  0  0  0
  1  2  1  0  0  0
  2  3  2  0  0  0
  2 12  1  0  0  0
  3  4  1  0  0  0
  4  5  1  0  0  0
  4  9  2  0  0  0
  5  6  1  0  0  0
  6  7  1  0  0  0
  7  8  1  0  0  0
  8  9  1  0  0  0
  9 10  1  0  0  0
 10 11  2  0  0  0
 10 12  1  0  0  0
 12 13  1  0  0  0
M  END
> <minimizedAffinity>
-5.63000

$$$$
