4GNY_SDS_A_201


 18 17  0  0  0  0  0  0  0  0999 V2000
   23.1000   36.5957   18.4347 C   0  0  0  0  0  0  0  0  0  0  0  0
   23.9965   35.4868   18.8648 C   0  0  0  0  0  0  0  0  0  0  0  0
   24.2084   34.4816   17.7857 C   0  0  0  0  0  0  0  0  0  0  0  0
   24.0718   33.1385   18.4101 C   0  0  0  0  0  0  0  0  0  0  0  0
   22.8504   32.9979   19.2633 C   0  0  0  0  0  0  0  0  0  0  0  0
   22.5834   31.5430   19.4612 C   0  0  0  0  0  0  0  0  0  0  0  0
   23.7872   30.6830   19.2761 C   0  0  0  0  0  0  0  0  0  0  0  0
   22.2537   28.9545   20.1163 C   0  0  0  0  0  0  0  0  0  0  0  0
   23.4234   29.2427   19.2311 C   0  0  0  0  0  0  0  0  0  0  0  0
   23.7411   37.2972   17.2838 C   0  0  0  0  0  0  0  0  0  0  0  0
   23.3012   38.7232   17.2118 C   0  0  0  0  0  0  0  0  0  0  0  0
   21.8699   38.8252   17.6352 C   0  0  0  0  0  0  0  0  0  0  0  0
   21.5120   40.1535   17.7952 O   0  0  0  0  0  0  0  0  0  0  0  0
   20.1953   40.5370   18.3401 S   0  0  0  0  0  0  0  0  0  0  0  0
   19.9337   41.9458   18.1708 O   0  0  0  0  0  0  0  0  0  0  0  0
   20.0860   40.1462   19.7557 O   0  0  0  0  0  0  0  0  0  0  0  0
   19.1279   39.9639   17.5563 O   0  0  0  0  0  0  0  0  0  0  0  0
   20.8140   40.5442   20.2582 H   0  0  0  0  0  0  0  0  0  0  0  0
 14 15  2  0  0  0
 14 13  1  0  0  0
 14 16  1  0  0  0
 14 17  2  0  0  0
 13 12  1  0  0  0
 12 11  1  0  0  0
  8  9  1  0  0  0
  9  7  1  0  0  0
  7  6  1  0  0  0
  6  5  1  0  0  0
  5  4  1  0  0  0
  4  3  1  0  0  0
  3  2  1  0  0  0
  2  1  1  0  0  0
  1 10  1  0  0  0
 10 11  1  0  0  0
 16 18  1  0  0  0
M  END
> <minimizedAffinity>
-6.40493

$$$$
4GNY_SDS_A_201


 18 17  0  0  0  0  0  0  0  0999 V2000
   23.2072   35.8648   18.6222 C   0  0  0  0  0  0  0  0  0  0  0  0
   22.9635   34.5518   17.9626 C   0  0  0  0  0  0  0  0  0  0  0  0
   23.1294   33.4083   18.9031 C   0  0  0  0  0  0  0  0  0  0  0  0
   24.3342   32.6550   18.4632 C   0  0  0  0  0  0  0  0  0  0  0  0
   24.4759   31.3182   19.1210 C   0  0  0  0  0  0  0  0  0  0  0  0
   23.1109   30.8108   19.4472 C   0  0  0  0  0  0  0  0  0  0  0  0
   23.0098   29.3233   19.4488 C   0  0  0  0  0  0  0  0  0  0  0  0
   22.2577   27.6832   21.1190 C   0  0  0  0  0  0  0  0  0  0  0  0
   21.8690   28.8578   20.2798 C   0  0  0  0  0  0  0  0  0  0  0  0
   23.5877   36.8539   17.5713 C   0  0  0  0  0  0  0  0  0  0  0  0
   22.8507   38.1407   17.7534 C   0  0  0  0  0  0  0  0  0  0  0  0
   23.3200   39.1320   16.7357 C   0  0  0  0  0  0  0  0  0  0  0  0
   24.6579   39.4273   16.9372 O   0  0  0  0  0  0  0  0  0  0  0  0
   25.1281   40.8194   17.0745 S   0  0  0  0  0  0  0  0  0  0  0  0
   26.5612   40.8897   17.2265 O   0  0  0  0  0  0  0  0  0  0  0  0
   24.4449   41.4897   18.1937 O   0  0  0  0  0  0  0  0  0  0  0  0
   24.9474   41.5469   15.8414 O   0  0  0  0  0  0  0  0  0  0  0  0
   24.5825   40.9807   19.0079 H   0  0  0  0  0  0  0  0  0  0  0  0
 14 15  2  0  0  0
 14 13  1  0  0  0
 14 16  1  0  0  0
 14 17  2  0  0  0
 13 12  1  0  0  0
 12 11  1  0  0  0
  8  9  1  0  0  0
  9  7  1  0  0  0
  7  6  1  0  0  0
  6  5  1  0  0  0
  5  4  1  0  0  0
  4  3  1  0  0  0
  3  2  1  0  0  0
  2  1  1  0  0  0
  1 10  1  0  0  0
 10 11  1  0  0  0
 16 18  1  0  0  0
M  END
> <minimizedAffinity>
-6.06858

$$$$
4GNY_SDS_A_201


 18 17  0  0  0  0  0  0  0  0999 V2000
   23.6460   37.8294   17.4060 C   0  0  0  0  0  0  0  0  0  0  0  0
   23.8062   36.3503   17.4763 C   0  0  0  0  0  0  0  0  0  0  0  0
   23.5605   35.8206   18.8470 C   0  0  0  0  0  0  0  0  0  0  0  0
   23.0806   34.4212   18.6927 C   0  0  0  0  0  0  0  0  0  0  0  0
   24.0843   33.5125   18.0552 C   0  0  0  0  0  0  0  0  0  0  0  0
   24.1303   32.2435   18.8392 C   0  0  0  0  0  0  0  0  0  0  0  0
   22.9091   32.0024   19.6599 C   0  0  0  0  0  0  0  0  0  0  0  0
   23.6208   29.7088   19.1323 C   0  0  0  0  0  0  0  0  0  0  0  0
   22.5037   30.5731   19.6225 C   0  0  0  0  0  0  0  0  0  0  0  0
   22.2899   38.1792   17.9217 C   0  0  0  0  0  0  0  0  0  0  0  0
   21.9135   39.5736   17.5396 C   0  0  0  0  0  0  0  0  0  0  0  0
   20.4755   39.8119   17.8770 C   0  0  0  0  0  0  0  0  0  0  0  0
   20.2448   41.1654   18.0584 O   0  0  0  0  0  0  0  0  0  0  0  0
   20.2758   41.7798   19.3997 S   0  0  0  0  0  0  0  0  0  0  0  0
   19.9020   40.8406   20.4294 O   0  0  0  0  0  0  0  0  0  0  0  0
   19.4200   42.9774   19.4417 O   0  0  0  0  0  0  0  0  0  0  0  0
   21.6293   42.0912   19.7913 O   0  0  0  0  0  0  0  0  0  0  0  0
   18.5182   42.7400   19.1746 H   0  0  0  0  0  0  0  0  0  0  0  0
 14 15  2  0  0  0
 14 13  1  0  0  0
 14 16  1  0  0  0
 14 17  2  0  0  0
 13 12  1  0  0  0
 12 11  1  0  0  0
  8  9  1  0  0  0
  9  7  1  0  0  0
  7  6  1  0  0  0
  6  5  1  0  0  0
  5  4  1  0  0  0
  4  3  1  0  0  0
  3  2  1  0  0  0
  2  1  1  0  0  0
  1 10  1  0  0  0
 10 11  1  0  0  0
 16 18  1  0  0  0
M  END
> <minimizedAffinity>
-5.74603

$$$$
4GNY_SDS_A_201


 18 17  0  0  0  0  0  0  0  0999 V2000
   23.8537   37.5248   17.1156 C   0  0  0  0  0  0  0  0  0  0  0  0
   23.0921   37.0538   18.3058 C   0  0  0  0  0  0  0  0  0  0  0  0
   23.4488   35.6588   18.6882 C   0  0  0  0  0  0  0  0  0  0  0  0
   23.8387   34.9518   17.4389 C   0  0  0  0  0  0  0  0  0  0  0  0
   24.6427   33.7128   17.6798 C   0  0  0  0  0  0  0  0  0  0  0  0
   23.9232   32.8768   18.6850 C   0  0  0  0  0  0  0  0  0  0  0  0
   24.5365   31.5345   18.8963 C   0  0  0  0  0  0  0  0  0  0  0  0
   22.3054   30.8409   19.6618 C   0  0  0  0  0  0  0  0  0  0  0  0
   23.7780   30.7431   19.8998 C   0  0  0  0  0  0  0  0  0  0  0  0
   23.1045   38.6582   16.4980 C   0  0  0  0  0  0  0  0  0  0  0  0
   23.5576   39.9682   17.0553 C   0  0  0  0  0  0  0  0  0  0  0  0
   22.4173   40.6303   17.7622 C   0  0  0  0  0  0  0  0  0  0  0  0
   21.2532   39.9030   17.5779 O   0  0  0  0  0  0  0  0  0  0  0  0
   19.9265   40.4897   17.8483 S   0  0  0  0  0  0  0  0  0  0  0  0
   19.8301   41.0025   19.1935 O   0  0  0  0  0  0  0  0  0  0  0  0
   18.8611   39.5093   17.5795 O   0  0  0  0  0  0  0  0  0  0  0  0
   19.7318   41.6960   17.0807 O   0  0  0  0  0  0  0  0  0  0  0  0
   19.0163   38.7103   18.1071 H   0  0  0  0  0  0  0  0  0  0  0  0
 14 15  2  0  0  0
 14 13  1  0  0  0
 14 16  1  0  0  0
 14 17  2  0  0  0
 13 12  1  0  0  0
 12 11  1  0  0  0
  8  9  1  0  0  0
  9  7  1  0  0  0
  7  6  1  0  0  0
  6  5  1  0  0  0
  5  4  1  0  0  0
  4  3  1  0  0  0
  3  2  1  0  0  0
  2  1  1  0  0  0
  1 10  1  0  0  0
 10 11  1  0  0  0
 16 18  1  0  0  0
M  END
> <minimizedAffinity>
-5.70796

$$$$
4GNY_SDS_A_201


 18 17  0  0  0  0  0  0  0  0999 V2000
   23.2998   38.7595   16.7343 C   0  0  0  0  0  0  0  0  0  0  0  0
   23.7927   37.4265   17.1801 C   0  0  0  0  0  0  0  0  0  0  0  0
   23.0417   36.9128   18.3598 C   0  0  0  0  0  0  0  0  0  0  0  0
   23.7334   35.6754   18.8102 C   0  0  0  0  0  0  0  0  0  0  0  0
   24.1641   34.7884   17.6844 C   0  0  0  0  0  0  0  0  0  0  0  0
   24.0594   33.3711   18.1397 C   0  0  0  0  0  0  0  0  0  0  0  0
   22.9908   33.1458   19.1546 C   0  0  0  0  0  0  0  0  0  0  0  0
   23.9854   30.9060   18.9565 C   0  0  0  0  0  0  0  0  0  0  0  0
   22.8176   31.6993   19.4484 C   0  0  0  0  0  0  0  0  0  0  0  0
   24.4062   39.7475   16.8992 C   0  0  0  0  0  0  0  0  0  0  0  0
   23.9033   41.0221   17.4946 C   0  0  0  0  0  0  0  0  0  0  0  0
   22.4283   41.1299   17.2687 C   0  0  0  0  0  0  0  0  0  0  0  0
   21.8134   41.6825   18.3798 O   0  0  0  0  0  0  0  0  0  0  0  0
   20.4184   41.3544   18.7319 S   0  0  0  0  0  0  0  0  0  0  0  0
   19.7169   42.4961   19.2671 O   0  0  0  0  0  0  0  0  0  0  0  0
   20.3732   40.2198   19.6696 O   0  0  0  0  0  0  0  0  0  0  0  0
   19.6392   41.0846   17.5477 O   0  0  0  0  0  0  0  0  0  0  0  0
   20.9039   40.4277   20.4545 H   0  0  0  0  0  0  0  0  0  0  0  0
 14 15  2  0  0  0
 14 13  1  0  0  0
 14 16  1  0  0  0
 14 17  2  0  0  0
 13 12  1  0  0  0
 12 11  1  0  0  0
  8  9  1  0  0  0
  9  7  1  0  0  0
  7  6  1  0  0  0
  6  5  1  0  0  0
  5  4  1  0  0  0
  4  3  1  0  0  0
  3  2  1  0  0  0
  2  1  1  0  0  0
  1 10  1  0  0  0
 10 11  1  0  0  0
 16 18  1  0  0  0
M  END
> <minimizedAffinity>
-5.62651

$$$$
4GNY_SDS_A_201


 18 17  0  0  0  0  0  0  0  0999 V2000
   23.8995   37.0088   17.5610 C   0  0  0  0  0  0  0  0  0  0  0  0
   23.1524   35.9269   18.2608 C   0  0  0  0  0  0  0  0  0  0  0  0
   24.0617   34.9585   18.9354 C   0  0  0  0  0  0  0  0  0  0  0  0
   24.2886   33.8390   17.9826 C   0  0  0  0  0  0  0  0  0  0  0  0
   24.2051   32.4870   18.6188 C   0  0  0  0  0  0  0  0  0  0  0  0
   22.8816   32.3714   19.2986 C   0  0  0  0  0  0  0  0  0  0  0  0
   22.7481   31.1512   20.1450 C   0  0  0  0  0  0  0  0  0  0  0  0
   22.3735   28.7333   19.9038 C   0  0  0  0  0  0  0  0  0  0  0  0
   23.1167   29.9248   19.3910 C   0  0  0  0  0  0  0  0  0  0  0  0
   23.0188   38.2111   17.4818 C   0  0  0  0  0  0  0  0  0  0  0  0
   23.0372   38.8005   16.1091 C   0  0  0  0  0  0  0  0  0  0  0  0
   23.3372   40.2635   16.1989 C   0  0  0  0  0  0  0  0  0  0  0  0
   24.1025   40.5266   17.3228 O   0  0  0  0  0  0  0  0  0  0  0  0
   24.2088   41.8882   17.8817 S   0  0  0  0  0  0  0  0  0  0  0  0
   23.2356   42.1193   18.9216 O   0  0  0  0  0  0  0  0  0  0  0  0
   24.0919   42.8973   16.8155 O   0  0  0  0  0  0  0  0  0  0  0  0
   25.4395   42.0470   18.6182 O   0  0  0  0  0  0  0  0  0  0  0  0
   23.2577   42.7677   16.3378 H   0  0  0  0  0  0  0  0  0  0  0  0
 14 15  2  0  0  0
 14 13  1  0  0  0
 14 16  1  0  0  0
 14 17  2  0  0  0
 13 12  1  0  0  0
 12 11  1  0  0  0
  8  9  1  0  0  0
  9  7  1  0  0  0
  7  6  1  0  0  0
  6  5  1  0  0  0
  5  4  1  0  0  0
  4  3  1  0  0  0
  3  2  1  0  0  0
  2  1  1  0  0  0
  1 10  1  0  0  0
 10 11  1  0  0  0
 16 18  1  0  0  0
M  END
> <minimizedAffinity>
-5.57685

$$$$
4GNY_SDS_A_201


 18 17  0  0  0  0  0  0  0  0999 V2000
   24.3676   41.0712   16.6058 C   0  0  0  0  0  0  0  0  0  0  0  0
   25.5483   40.3127   17.1047 C   0  0  0  0  0  0  0  0  0  0  0  0
   26.8267   41.0415   16.8720 C   0  0  0  0  0  0  0  0  0  0  0  0
   26.8402   42.2030   17.8011 C   0  0  0  0  0  0  0  0  0  0  0  0
   27.2121   41.8408   19.2047 C   0  0  0  0  0  0  0  0  0  0  0  0
   26.4527   42.7285   20.1334 C   0  0  0  0  0  0  0  0  0  0  0  0
   25.0381   42.9559   19.7211 C   0  0  0  0  0  0  0  0  0  0  0  0
   22.9126   41.7456   19.9707 C   0  0  0  0  0  0  0  0  0  0  0  0
   24.0870   42.3379   20.6813 C   0  0  0  0  0  0  0  0  0  0  0  0
   23.3020   40.0923   16.2398 C   0  0  0  0  0  0  0  0  0  0  0  0
   23.4082   38.8504   17.0636 C   0  0  0  0  0  0  0  0  0  0  0  0
   22.1813   38.7058   17.9075 C   0  0  0  0  0  0  0  0  0  0  0  0
   21.1535   39.4790   17.3938 O   0  0  0  0  0  0  0  0  0  0  0  0
   19.8298   39.5325   18.0439 S   0  0  0  0  0  0  0  0  0  0  0  0
   19.7345   40.6274   18.9787 O   0  0  0  0  0  0  0  0  0  0  0  0
   19.5217   38.2503   18.6994 O   0  0  0  0  0  0  0  0  0  0  0  0
   18.8049   39.8930   17.0942 O   0  0  0  0  0  0  0  0  0  0  0  0
   20.2250   38.0328   19.3309 H   0  0  0  0  0  0  0  0  0  0  0  0
 14 15  2  0  0  0
 14 13  1  0  0  0
 14 16  1  0  0  0
 14 17  2  0  0  0
 13 12  1  0  0  0
 12 11  1  0  0  0
  8  9  1  0  0  0
  9  7  1  0  0  0
  7  6  1  0  0  0
  6  5  1  0  0  0
  5  4  1  0  0  0
  4  3  1  0  0  0
  3  2  1  0  0  0
  2  1  1  0  0  0
  1 10  1  0  0  0
 10 11  1  0  0  0
 16 18  1  0  0  0
M  END
> <minimizedAffinity>
-5.11086

$$$$
4GNY_SDS_A_201


 18 17  0  0  0  0  0  0  0  0999 V2000
   23.9335   39.9531   17.1966 C   0  0  0  0  0  0  0  0  0  0  0  0
   23.5141   38.5973   16.7445 C   0  0  0  0  0  0  0  0  0  0  0  0
   23.0576   37.7415   17.8754 C   0  0  0  0  0  0  0  0  0  0  0  0
   23.7381   36.4271   17.7280 C   0  0  0  0  0  0  0  0  0  0  0  0
   23.7295   35.6065   18.9795 C   0  0  0  0  0  0  0  0  0  0  0  0
   23.1238   34.2795   18.6642 C   0  0  0  0  0  0  0  0  0  0  0  0
   24.1073   33.2757   18.1664 C   0  0  0  0  0  0  0  0  0  0  0  0
   22.8131   31.5913   19.4046 C   0  0  0  0  0  0  0  0  0  0  0  0
   24.1794   32.0945   19.0655 C   0  0  0  0  0  0  0  0  0  0  0  0
   25.3512   40.1676   16.7824 C   0  0  0  0  0  0  0  0  0  0  0  0
   26.0378   41.1295   17.6964 C   0  0  0  0  0  0  0  0  0  0  0  0
   25.3681   42.4646   17.6092 C   0  0  0  0  0  0  0  0  0  0  0  0
   25.4722   42.9687   16.3236 O   0  0  0  0  0  0  0  0  0  0  0  0
   24.4161   43.8189   15.7409 S   0  0  0  0  0  0  0  0  0  0  0  0
   24.1160   44.9535   16.5802 O   0  0  0  0  0  0  0  0  0  0  0  0
   23.2041   43.0277   15.4696 O   0  0  0  0  0  0  0  0  0  0  0  0
   24.8873   44.4783   14.5470 O   0  0  0  0  0  0  0  0  0  0  0  0
   22.9098   42.5964   16.2871 H   0  0  0  0  0  0  0  0  0  0  0  0
 14 15  2  0  0  0
 14 13  1  0  0  0
 14 16  1  0  0  0
 14 17  2  0  0  0
 13 12  1  0  0  0
 12 11  1  0  0  0
  8  9  1  0  0  0
  9  7  1  0  0  0
  7  6  1  0  0  0
  6  5  1  0  0  0
  5  4  1  0  0  0
  4  3  1  0  0  0
  3  2  1  0  0  0
  2  1  1  0  0  0
  1 10  1  0  0  0
 10 11  1  0  0  0
 16 18  1  0  0  0
M  END
> <minimizedAffinity>
-5.03144

$$$$
4GNY_SDS_A_201


 18 17  0  0  0  0  0  0  0  0999 V2000
   23.0009   38.5632   16.2756 C   0  0  0  0  0  0  0  0  0  0  0  0
   23.9742   37.9441   17.2178 C   0  0  0  0  0  0  0  0  0  0  0  0
   23.7840   36.4713   17.3385 C   0  0  0  0  0  0  0  0  0  0  0  0
   22.9879   36.2356   18.5727 C   0  0  0  0  0  0  0  0  0  0  0  0
   23.0119   34.8128   19.0362 C   0  0  0  0  0  0  0  0  0  0  0  0
   23.8364   34.0222   18.0759 C   0  0  0  0  0  0  0  0  0  0  0  0
   24.1785   32.6557   18.5644 C   0  0  0  0  0  0  0  0  0  0  0  0
   23.1883   30.5437   19.3416 C   0  0  0  0  0  0  0  0  0  0  0  0
   23.0307   32.0286   19.2701 C   0  0  0  0  0  0  0  0  0  0  0  0
   22.6665   39.9285   16.7772 C   0  0  0  0  0  0  0  0  0  0  0  0
   22.1198   39.8710   18.1664 C   0  0  0  0  0  0  0  0  0  0  0  0
   22.4084   41.1598   18.8694 C   0  0  0  0  0  0  0  0  0  0  0  0
   23.7245   41.5356   18.6578 O   0  0  0  0  0  0  0  0  0  0  0  0
   24.3248   42.6777   19.3739 S   0  0  0  0  0  0  0  0  0  0  0  0
   23.6891   42.9063   20.6489 O   0  0  0  0  0  0  0  0  0  0  0  0
   24.2867   43.8909   18.5400 O   0  0  0  0  0  0  0  0  0  0  0  0
   25.6723   42.3725   19.7903 O   0  0  0  0  0  0  0  0  0  0  0  0
   23.3714   44.0723   18.2747 H   0  0  0  0  0  0  0  0  0  0  0  0
 14 15  2  0  0  0
 14 13  1  0  0  0
 14 16  1  0  0  0
 14 17  2  0  0  0
 13 12  1  0  0  0
 12 11  1  0  0  0
  8  9  1  0  0  0
  9  7  1  0  0  0
  7  6  1  0  0  0
  6  5  1  0  0  0
  5  4  1  0  0  0
  4  3  1  0  0  0
  3  2  1  0  0  0
  2  1  1  0  0  0
  1 10  1  0  0  0
 10 11  1  0  0  0
 16 18  1  0  0  0
M  END
> <minimizedAffinity>
-4.92395

$$$$
4GNY_SDS_A_201


 18 17  0  0  0  0  0  0  0  0999 V2000
   25.1143   41.1232   17.0348 C   0  0  0  0  0  0  0  0  0  0  0  0
   24.8362   39.6600   17.0380 C   0  0  0  0  0  0  0  0  0  0  0  0
   23.4482   39.3484   16.5952 C   0  0  0  0  0  0  0  0  0  0  0  0
   22.9290   38.2917   17.5042 C   0  0  0  0  0  0  0  0  0  0  0  0
   23.6689   36.9953   17.3971 C   0  0  0  0  0  0  0  0  0  0  0  0
   23.2103   36.1027   18.5017 C   0  0  0  0  0  0  0  0  0  0  0  0
   24.1962   35.0449   18.8649 C   0  0  0  0  0  0  0  0  0  0  0  0
   24.1042   32.5970   18.6549 C   0  0  0  0  0  0  0  0  0  0  0  0
   24.1351   33.8989   17.9207 C   0  0  0  0  0  0  0  0  0  0  0  0
   23.9037   41.8316   17.5448 C   0  0  0  0  0  0  0  0  0  0  0  0
   24.0107   42.0887   19.0127 C   0  0  0  0  0  0  0  0  0  0  0  0
   22.6482   42.0368   19.6284 C   0  0  0  0  0  0  0  0  0  0  0  0
   21.7532   41.4356   18.7592 O   0  0  0  0  0  0  0  0  0  0  0  0
   20.2983   41.4720   19.0036 S   0  0  0  0  0  0  0  0  0  0  0  0
   19.9917   41.5289   20.4124 O   0  0  0  0  0  0  0  0  0  0  0  0
   19.6361   40.3220   18.3652 O   0  0  0  0  0  0  0  0  0  0  0  0
   19.7318   42.7190   18.5494 O   0  0  0  0  0  0  0  0  0  0  0  0
   20.0355   39.4989   18.6878 H   0  0  0  0  0  0  0  0  0  0  0  0
 14 15  2  0  0  0
 14 13  1  0  0  0
 14 16  1  0  0  0
 14 17  2  0  0  0
 13 12  1  0  0  0
 12 11  1  0  0  0
  8  9  1  0  0  0
  9  7  1  0  0  0
  7  6  1  0  0  0
  6  5  1  0  0  0
  5  4  1  0  0  0
  4  3  1  0  0  0
  3  2  1  0  0  0
  2  1  1  0  0  0
  1 10  1  0  0  0
 10 11  1  0  0  0
 16 18  1  0  0  0
M  END
> <minimizedAffinity>
-4.87845

$$$$
