5D3N_L40_A_201


 29 30  0  0  0  0  0  0  0  0999 V2000
  -10.9122    6.5742    0.9805 C   0  0  0  0  0  0  0  0  0  0  0  0
  -11.1261    5.2703    0.8653 N   0  0  0  0  0  0  0  0  0  0  0  0
  -11.7877    7.3334    1.3345 O   0  0  0  0  0  0  0  0  0  0  0  0
  -10.4487    4.7502    0.3755 H   0  0  0  0  0  0  0  0  0  0  0  0
  -14.5669    3.9400    1.2261 C   0  0  0  0  0  0  0  0  0  0  0  0
  -14.4858    3.2944    2.4552 C   0  0  0  0  0  0  0  0  0  0  0  0
  -12.1533    3.9274    2.6119 C   0  0  0  0  0  0  0  0  0  0  0  0
  -12.2041    4.5735    1.3648 C   0  0  0  0  0  0  0  0  0  0  0  0
  -13.4362    4.5725    0.6661 C   0  0  0  0  0  0  0  0  0  0  0  0
  -13.2663    3.2841    3.1504 C   0  0  0  0  0  0  0  0  0  0  0  0
  -13.6373    5.2293   -0.6782 C   0  0  0  0  0  0  0  0  0  0  0  0
  -13.6483    1.1994    4.3912 O   0  0  0  0  0  0  0  0  0  0  0  0
  -11.7913    2.4682    4.9841 O   0  0  0  0  0  0  0  0  0  0  0  0
  -13.1616    2.5455    4.5682 S   0  0  0  0  0  0  0  0  0  0  0  0
  -13.4582    4.0270    6.7879 C   0  0  0  0  0  0  0  0  0  0  0  0
  -14.0672    3.3052    5.6821 N   0  0  0  0  0  0  0  0  0  0  0  0
  -14.6690    2.5945    6.0981 H   0  0  0  0  0  0  0  0  0  0  0  0
   -7.5004    7.9679    1.3780 C   0  0  0  0  0  0  0  0  0  0  0  0
   -8.6186    7.3970    1.9801 C   0  0  0  0  0  0  0  0  0  0  0  0
   -9.5447    7.1608    0.8373 C   0  0  0  0  0  0  0  0  0  0  0  0
   -7.7517    8.1118   -0.0593 C   0  0  0  0  0  0  0  0  0  0  0  0
   -6.8614    8.6843   -1.1208 C   0  0  0  0  0  0  0  0  0  0  0  0
   -8.9770    7.6156   -0.2879 N   0  0  0  0  0  0  0  0  0  0  0  0
   -9.4063    7.5890   -1.1735 H   0  0  0  0  0  0  0  0  0  0  0  0
   -6.2542    8.4486    2.0122 C   0  0  0  0  0  0  0  0  0  0  0  0
   -6.0887    9.9267    2.0519 C   0  0  0  0  0  0  0  0  0  0  0  0
   -5.3934    7.6910    2.4004 O   0  0  0  0  0  0  0  0  0  0  0  0
   -8.6583    8.3279    4.2162 C   0  0  0  0  0  0  0  0  0  0  0  0
   -8.8385    7.0285    3.4428 C   0  0  0  0  0  0  0  0  0  0  0  0
 11  9  1  0  0  0
 28 29  1  0  0  0
  5  9  2  0  0  0
  5  6  1  0  0  0
  9  8  1  0  0  0
 29 19  1  0  0  0
  6 10  2  0  0  0
  8  2  1  0  0  0
  8  7  2  0  0  0
  2  1  1  0  0  0
 26 25  1  0  0  0
 27 25  2  0  0  0
 25 18  1  0  0  0
 19 18  1  0  0  0
 19 20  2  0  0  0
 18 21  2  0  0  0
  1 20  1  0  0  0
  1  3  2  0  0  0
 10  7  1  0  0  0
 10 14  1  0  0  0
 20 23  1  0  0  0
 21 23  1  0  0  0
 21 22  1  0  0  0
 12 14  2  0  0  0
 14 16  1  0  0  0
 14 13  2  0  0  0
 16 15  1  0  0  0
 23 24  1  0  0  0
  2  4  1  0  0  0
 16 17  1  0  0  0
M  END
> <minimizedAffinity>
-8.02313

$$$$
5D3N_L40_A_201


 29 30  0  0  0  0  0  0  0  0999 V2000
   -9.3510    6.8949    2.2355 C   0  0  0  0  0  0  0  0  0  0  0  0
   -8.1608    6.7846    1.6607 N   0  0  0  0  0  0  0  0  0  0  0  0
   -9.5646    7.7126    3.1036 O   0  0  0  0  0  0  0  0  0  0  0  0
   -7.9980    5.9731    1.1276 H   0  0  0  0  0  0  0  0  0  0  0  0
   -5.6838    9.3548    0.6615 C   0  0  0  0  0  0  0  0  0  0  0  0
   -4.9072    9.4512    1.8112 C   0  0  0  0  0  0  0  0  0  0  0  0
   -6.3202    7.8006    2.8810 C   0  0  0  0  0  0  0  0  0  0  0  0
   -7.1306    7.6955    1.7374 C   0  0  0  0  0  0  0  0  0  0  0  0
   -6.8001    8.4922    0.6139 C   0  0  0  0  0  0  0  0  0  0  0  0
   -5.2327    8.6708    2.9317 C   0  0  0  0  0  0  0  0  0  0  0  0
   -7.5777    8.4793   -0.6799 C   0  0  0  0  0  0  0  0  0  0  0  0
   -3.3793    9.8246    4.0565 O   0  0  0  0  0  0  0  0  0  0  0  0
   -5.1660    9.1372    5.3775 O   0  0  0  0  0  0  0  0  0  0  0  0
   -4.3438    8.7719    4.2608 S   0  0  0  0  0  0  0  0  0  0  0  0
   -2.8406    6.6865    3.4853 C   0  0  0  0  0  0  0  0  0  0  0  0
   -3.5661    7.3739    4.5416 N   0  0  0  0  0  0  0  0  0  0  0  0
   -4.2675    6.7174    4.8842 H   0  0  0  0  0  0  0  0  0  0  0  0
  -12.4480    5.6411    0.6301 C   0  0  0  0  0  0  0  0  0  0  0  0
  -11.5317    6.6794    0.7743 C   0  0  0  0  0  0  0  0  0  0  0  0
  -10.5364    6.1319    1.7381 C   0  0  0  0  0  0  0  0  0  0  0  0
  -12.0516    4.5288    1.4991 C   0  0  0  0  0  0  0  0  0  0  0  0
  -12.7242    3.2048    1.7045 C   0  0  0  0  0  0  0  0  0  0  0  0
  -10.9206    4.9049    2.1150 N   0  0  0  0  0  0  0  0  0  0  0  0
  -10.4330    4.3479    2.7640 H   0  0  0  0  0  0  0  0  0  0  0  0
  -13.6829    5.6051   -0.1823 C   0  0  0  0  0  0  0  0  0  0  0  0
  -14.8625    6.2817    0.4215 C   0  0  0  0  0  0  0  0  0  0  0  0
  -13.7502    4.9998   -1.2286 O   0  0  0  0  0  0  0  0  0  0  0  0
  -11.0575    7.7340   -1.3545 C   0  0  0  0  0  0  0  0  0  0  0  0
  -11.4956    8.0325    0.0731 C   0  0  0  0  0  0  0  0  0  0  0  0
 11  9  1  0  0  0
 28 29  1  0  0  0
  5  9  2  0  0  0
  5  6  1  0  0  0
  9  8  1  0  0  0
 29 19  1  0  0  0
  6 10  2  0  0  0
  8  2  1  0  0  0
  8  7  2  0  0  0
  2  1  1  0  0  0
 26 25  1  0  0  0
 27 25  2  0  0  0
 25 18  1  0  0  0
 19 18  1  0  0  0
 19 20  2  0  0  0
 18 21  2  0  0  0
  1 20  1  0  0  0
  1  3  2  0  0  0
 10  7  1  0  0  0
 10 14  1  0  0  0
 20 23  1  0  0  0
 21 23  1  0  0  0
 21 22  1  0  0  0
 12 14  2  0  0  0
 14 16  1  0  0  0
 14 13  2  0  0  0
 16 15  1  0  0  0
 23 24  1  0  0  0
  2  4  1  0  0  0
 16 17  1  0  0  0
M  END
> <minimizedAffinity>
-7.65465

$$$$
5D3N_L40_A_201


 29 30  0  0  0  0  0  0  0  0999 V2000
   -9.2032    6.8780    0.2112 C   0  0  0  0  0  0  0  0  0  0  0  0
  -10.3366    7.1220    0.8555 N   0  0  0  0  0  0  0  0  0  0  0  0
   -9.1369    6.0444   -0.6655 O   0  0  0  0  0  0  0  0  0  0  0  0
  -10.2718    7.6464    1.6861 H   0  0  0  0  0  0  0  0  0  0  0  0
  -13.6746    7.1192   -0.7560 C   0  0  0  0  0  0  0  0  0  0  0  0
  -14.2527    5.9873   -0.1915 C   0  0  0  0  0  0  0  0  0  0  0  0
  -12.2085    5.5825    1.0427 C   0  0  0  0  0  0  0  0  0  0  0  0
  -11.5954    6.7125    0.4749 C   0  0  0  0  0  0  0  0  0  0  0  0
  -12.3487    7.4869   -0.4412 C   0  0  0  0  0  0  0  0  0  0  0  0
  -13.5101    5.2101    0.7113 C   0  0  0  0  0  0  0  0  0  0  0  0
  -11.8207    8.7256   -1.1234 C   0  0  0  0  0  0  0  0  0  0  0  0
  -15.5257    3.8190    0.8951 O   0  0  0  0  0  0  0  0  0  0  0  0
  -13.4711    2.7295    0.9328 O   0  0  0  0  0  0  0  0  0  0  0  0
  -14.1664    3.9052    1.3696 S   0  0  0  0  0  0  0  0  0  0  0  0
  -13.7665    2.8927    3.8241 C   0  0  0  0  0  0  0  0  0  0  0  0
  -14.1659    4.0150    2.9901 N   0  0  0  0  0  0  0  0  0  0  0  0
  -15.1195    4.2524    3.2634 H   0  0  0  0  0  0  0  0  0  0  0  0
   -6.2861    8.8033    1.4460 C   0  0  0  0  0  0  0  0  0  0  0  0
   -7.3459    7.9497    1.7406 C   0  0  0  0  0  0  0  0  0  0  0  0
   -7.9871    7.7231    0.4151 C   0  0  0  0  0  0  0  0  0  0  0  0
   -6.3072    9.1159    0.0136 C   0  0  0  0  0  0  0  0  0  0  0  0
   -5.3866    9.9989   -0.7738 C   0  0  0  0  0  0  0  0  0  0  0  0
   -7.3408    8.4418   -0.5128 N   0  0  0  0  0  0  0  0  0  0  0  0
   -7.5933    8.4716   -1.4639 H   0  0  0  0  0  0  0  0  0  0  0  0
   -5.2999    9.4043    2.3693 C   0  0  0  0  0  0  0  0  0  0  0  0
   -5.6947   10.7114    2.9603 C   0  0  0  0  0  0  0  0  0  0  0  0
   -4.2147    8.9060    2.5686 O   0  0  0  0  0  0  0  0  0  0  0  0
   -8.5556    8.3925    3.7921 C   0  0  0  0  0  0  0  0  0  0  0  0
   -7.7350    7.3277    3.0768 C   0  0  0  0  0  0  0  0  0  0  0  0
 11  9  1  0  0  0
 28 29  1  0  0  0
  5  9  2  0  0  0
  5  6  1  0  0  0
  9  8  1  0  0  0
 29 19  1  0  0  0
  6 10  2  0  0  0
  8  2  1  0  0  0
  8  7  2  0  0  0
  2  1  1  0  0  0
 26 25  1  0  0  0
 27 25  2  0  0  0
 25 18  1  0  0  0
 19 18  1  0  0  0
 19 20  2  0  0  0
 18 21  2  0  0  0
  1 20  1  0  0  0
  1  3  2  0  0  0
 10  7  1  0  0  0
 10 14  1  0  0  0
 20 23  1  0  0  0
 21 23  1  0  0  0
 21 22  1  0  0  0
 12 14  2  0  0  0
 14 16  1  0  0  0
 14 13  2  0  0  0
 16 15  1  0  0  0
 23 24  1  0  0  0
  2  4  1  0  0  0
 16 17  1  0  0  0
M  END
> <minimizedAffinity>
-7.51800

$$$$
5D3N_L40_A_201


 29 30  0  0  0  0  0  0  0  0999 V2000
   -8.6641    7.1869   -0.7119 C   0  0  0  0  0  0  0  0  0  0  0  0
   -8.1798    8.4152   -0.5865 N   0  0  0  0  0  0  0  0  0  0  0  0
   -8.0239    6.2137   -0.3787 O   0  0  0  0  0  0  0  0  0  0  0  0
   -8.6546    9.1315   -1.0667 H   0  0  0  0  0  0  0  0  0  0  0  0
   -4.7440    9.5294    0.2464 C   0  0  0  0  0  0  0  0  0  0  0  0
   -4.7357    9.3877    1.6298 C   0  0  0  0  0  0  0  0  0  0  0  0
   -7.0366    8.6361    1.5473 C   0  0  0  0  0  0  0  0  0  0  0  0
   -7.0766    8.7855    0.1504 C   0  0  0  0  0  0  0  0  0  0  0  0
   -5.9058    9.2429   -0.5024 C   0  0  0  0  0  0  0  0  0  0  0  0
   -5.8944    8.9424    2.2852 C   0  0  0  0  0  0  0  0  0  0  0  0
   -5.8038    9.4456   -1.9948 C   0  0  0  0  0  0  0  0  0  0  0  0
   -7.0344    7.9587    4.2253 O   0  0  0  0  0  0  0  0  0  0  0  0
   -4.7130    8.0817    4.3019 O   0  0  0  0  0  0  0  0  0  0  0  0
   -5.8958    8.7731    3.8783 S   0  0  0  0  0  0  0  0  0  0  0  0
   -4.8549   10.8919    5.1579 C   0  0  0  0  0  0  0  0  0  0  0  0
   -6.0213   10.2172    4.6111 N   0  0  0  0  0  0  0  0  0  0  0  0
   -6.6719   10.0915    5.3867 H   0  0  0  0  0  0  0  0  0  0  0  0
  -12.2765    6.4034   -0.9912 C   0  0  0  0  0  0  0  0  0  0  0  0
  -11.1597    6.5412   -0.1712 C   0  0  0  0  0  0  0  0  0  0  0  0
  -10.0813    6.9399   -1.1186 C   0  0  0  0  0  0  0  0  0  0  0  0
  -11.8857    6.6646   -2.3800 C   0  0  0  0  0  0  0  0  0  0  0  0
  -12.7259    6.6241   -3.6209 C   0  0  0  0  0  0  0  0  0  0  0  0
  -10.5791    6.9683   -2.3622 N   0  0  0  0  0  0  0  0  0  0  0  0
  -10.0510    7.1853   -3.1642 H   0  0  0  0  0  0  0  0  0  0  0  0
  -13.6483    5.9933   -0.6223 C   0  0  0  0  0  0  0  0  0  0  0  0
  -14.5259    7.0844   -0.1193 C   0  0  0  0  0  0  0  0  0  0  0  0
  -14.0071    4.8374   -0.6530 O   0  0  0  0  0  0  0  0  0  0  0  0
  -11.1340    4.8958    1.6065 C   0  0  0  0  0  0  0  0  0  0  0  0
  -11.0558    6.3935    1.3425 C   0  0  0  0  0  0  0  0  0  0  0  0
 11  9  1  0  0  0
 28 29  1  0  0  0
  5  9  2  0  0  0
  5  6  1  0  0  0
  9  8  1  0  0  0
 29 19  1  0  0  0
  6 10  2  0  0  0
  8  2  1  0  0  0
  8  7  2  0  0  0
  2  1  1  0  0  0
 26 25  1  0  0  0
 27 25  2  0  0  0
 25 18  1  0  0  0
 19 18  1  0  0  0
 19 20  2  0  0  0
 18 21  2  0  0  0
  1 20  1  0  0  0
  1  3  2  0  0  0
 10  7  1  0  0  0
 10 14  1  0  0  0
 20 23  1  0  0  0
 21 23  1  0  0  0
 21 22  1  0  0  0
 12 14  2  0  0  0
 14 16  1  0  0  0
 14 13  2  0  0  0
 16 15  1  0  0  0
 23 24  1  0  0  0
  2  4  1  0  0  0
 16 17  1  0  0  0
M  END
> <minimizedAffinity>
-7.41569

$$$$
5D3N_L40_A_201


 29 30  0  0  0  0  0  0  0  0999 V2000
  -13.7209    6.8870   -0.2448 C   0  0  0  0  0  0  0  0  0  0  0  0
  -13.3011    5.6290   -0.2299 N   0  0  0  0  0  0  0  0  0  0  0  0
  -14.0527    7.4588    0.7706 O   0  0  0  0  0  0  0  0  0  0  0  0
  -13.2543    5.1656   -1.0972 H   0  0  0  0  0  0  0  0  0  0  0  0
  -11.1638    4.0368    2.3462 C   0  0  0  0  0  0  0  0  0  0  0  0
  -12.0983    3.2934    3.0591 C   0  0  0  0  0  0  0  0  0  0  0  0
  -13.8458    4.1353    1.6089 C   0  0  0  0  0  0  0  0  0  0  0  0
  -12.9243    4.9082    0.8816 C   0  0  0  0  0  0  0  0  0  0  0  0
  -11.5621    4.8532    1.2659 C   0  0  0  0  0  0  0  0  0  0  0  0
  -13.4514    3.3484    2.6896 C   0  0  0  0  0  0  0  0  0  0  0  0
  -10.4650    5.6256    0.5741 C   0  0  0  0  0  0  0  0  0  0  0  0
  -15.8212    2.7372    2.8934 O   0  0  0  0  0  0  0  0  0  0  0  0
  -14.2502    1.0942    3.3855 O   0  0  0  0  0  0  0  0  0  0  0  0
  -14.5365    2.4946    3.5022 S   0  0  0  0  0  0  0  0  0  0  0  0
  -13.3612    3.1818    5.8166 C   0  0  0  0  0  0  0  0  0  0  0  0
  -14.5816    2.9529    5.0597 N   0  0  0  0  0  0  0  0  0  0  0  0
  -15.0989    2.2290    5.5586 H   0  0  0  0  0  0  0  0  0  0  0  0
  -12.8686    9.1243   -3.0748 C   0  0  0  0  0  0  0  0  0  0  0  0
  -12.4580    8.5005   -1.8997 C   0  0  0  0  0  0  0  0  0  0  0  0
  -13.6574    7.7209   -1.4839 C   0  0  0  0  0  0  0  0  0  0  0  0
  -14.2677    8.7742   -3.3389 C   0  0  0  0  0  0  0  0  0  0  0  0
  -15.1529    9.2091   -4.4679 C   0  0  0  0  0  0  0  0  0  0  0  0
  -14.6514    7.9496   -2.3528 N   0  0  0  0  0  0  0  0  0  0  0  0
  -15.5525    7.5604   -2.2768 H   0  0  0  0  0  0  0  0  0  0  0  0
  -12.1138   10.0587   -3.9370 C   0  0  0  0  0  0  0  0  0  0  0  0
  -11.9537   11.4358   -3.3969 C   0  0  0  0  0  0  0  0  0  0  0  0
  -11.7220    9.7470   -5.0393 O   0  0  0  0  0  0  0  0  0  0  0  0
  -10.1476    7.8286   -2.1815 C   0  0  0  0  0  0  0  0  0  0  0  0
  -11.0939    8.5354   -1.2201 C   0  0  0  0  0  0  0  0  0  0  0  0
 11  9  1  0  0  0
 28 29  1  0  0  0
  5  9  2  0  0  0
  5  6  1  0  0  0
  9  8  1  0  0  0
 29 19  1  0  0  0
  6 10  2  0  0  0
  8  2  1  0  0  0
  8  7  2  0  0  0
  2  1  1  0  0  0
 26 25  1  0  0  0
 27 25  2  0  0  0
 25 18  1  0  0  0
 19 18  1  0  0  0
 19 20  2  0  0  0
 18 21  2  0  0  0
  1 20  1  0  0  0
  1  3  2  0  0  0
 10  7  1  0  0  0
 10 14  1  0  0  0
 20 23  1  0  0  0
 21 23  1  0  0  0
 21 22  1  0  0  0
 12 14  2  0  0  0
 14 16  1  0  0  0
 14 13  2  0  0  0
 16 15  1  0  0  0
 23 24  1  0  0  0
  2  4  1  0  0  0
 16 17  1  0  0  0
M  END
> <minimizedAffinity>
-7.22524

$$$$
5D3N_L40_A_201


 29 30  0  0  0  0  0  0  0  0999 V2000
   -8.7302    6.9912    1.0578 C   0  0  0  0  0  0  0  0  0  0  0  0
   -8.5756    8.1087    1.7552 N   0  0  0  0  0  0  0  0  0  0  0  0
   -7.7905    6.4320    0.5362 O   0  0  0  0  0  0  0  0  0  0  0  0
   -9.3914    8.6182    1.9652 H   0  0  0  0  0  0  0  0  0  0  0  0
   -5.9472    9.3070    4.0780 C   0  0  0  0  0  0  0  0  0  0  0  0
   -5.0183    9.8414    3.1916 C   0  0  0  0  0  0  0  0  0  0  0  0
   -6.4367    9.1868    1.3408 C   0  0  0  0  0  0  0  0  0  0  0  0
   -7.3841    8.6254    2.2140 C   0  0  0  0  0  0  0  0  0  0  0  0
   -7.1250    8.6894    3.6050 C   0  0  0  0  0  0  0  0  0  0  0  0
   -5.2639    9.7751    1.8111 C   0  0  0  0  0  0  0  0  0  0  0  0
   -8.0540    8.1324    4.6565 C   0  0  0  0  0  0  0  0  0  0  0  0
   -3.2260   11.1206    1.5506 O   0  0  0  0  0  0  0  0  0  0  0  0
   -3.5189    9.3351    0.0891 O   0  0  0  0  0  0  0  0  0  0  0  0
   -4.2021   10.3895    0.7807 S   0  0  0  0  0  0  0  0  0  0  0  0
   -5.1779   12.7892    0.0742 C   0  0  0  0  0  0  0  0  0  0  0  0
   -4.9301   11.3969   -0.2649 N   0  0  0  0  0  0  0  0  0  0  0  0
   -5.8390   10.9854   -0.4766 H   0  0  0  0  0  0  0  0  0  0  0  0
  -12.1814    5.7699    0.4755 C   0  0  0  0  0  0  0  0  0  0  0  0
  -11.2002    6.7146    0.1862 C   0  0  0  0  0  0  0  0  0  0  0  0
  -10.0397    6.2717    1.0086 C   0  0  0  0  0  0  0  0  0  0  0  0
  -11.6558    4.8205    1.4614 C   0  0  0  0  0  0  0  0  0  0  0  0
  -12.3348    3.6428    2.0934 C   0  0  0  0  0  0  0  0  0  0  0  0
  -10.3932    5.1929    1.7202 N   0  0  0  0  0  0  0  0  0  0  0  0
   -9.7995    4.7303    2.3548 H   0  0  0  0  0  0  0  0  0  0  0  0
  -13.5718    5.7000   -0.0226 C   0  0  0  0  0  0  0  0  0  0  0  0
  -14.4999    6.7210    0.5340 C   0  0  0  0  0  0  0  0  0  0  0  0
  -13.9466    4.8248   -0.7704 O   0  0  0  0  0  0  0  0  0  0  0  0
  -10.9382    7.2914   -2.1520 C   0  0  0  0  0  0  0  0  0  0  0  0
  -11.2533    7.8872   -0.7864 C   0  0  0  0  0  0  0  0  0  0  0  0
 11  9  1  0  0  0
 28 29  1  0  0  0
  5  9  2  0  0  0
  5  6  1  0  0  0
  9  8  1  0  0  0
 29 19  1  0  0  0
  6 10  2  0  0  0
  8  2  1  0  0  0
  8  7  2  0  0  0
  2  1  1  0  0  0
 26 25  1  0  0  0
 27 25  2  0  0  0
 25 18  1  0  0  0
 19 18  1  0  0  0
 19 20  2  0  0  0
 18 21  2  0  0  0
  1 20  1  0  0  0
  1  3  2  0  0  0
 10  7  1  0  0  0
 10 14  1  0  0  0
 20 23  1  0  0  0
 21 23  1  0  0  0
 21 22  1  0  0  0
 12 14  2  0  0  0
 14 16  1  0  0  0
 14 13  2  0  0  0
 16 15  1  0  0  0
 23 24  1  0  0  0
  2  4  1  0  0  0
 16 17  1  0  0  0
M  END
> <minimizedAffinity>
-7.08613

$$$$
5D3N_L40_A_201


 29 30  0  0  0  0  0  0  0  0999 V2000
  -10.0228    7.0766   -1.3745 C   0  0  0  0  0  0  0  0  0  0  0  0
   -9.4229    6.2973   -0.4847 N   0  0  0  0  0  0  0  0  0  0  0  0
  -10.5158    8.1379   -1.0605 O   0  0  0  0  0  0  0  0  0  0  0  0
   -9.2387    5.3697   -0.7584 H   0  0  0  0  0  0  0  0  0  0  0  0
   -9.5329    6.8848    3.1735 C   0  0  0  0  0  0  0  0  0  0  0  0
   -8.3310    7.5528    3.3820 C   0  0  0  0  0  0  0  0  0  0  0  0
   -7.8315    7.3510    1.0208 C   0  0  0  0  0  0  0  0  0  0  0  0
   -9.0326    6.6601    0.7854 C   0  0  0  0  0  0  0  0  0  0  0  0
   -9.8907    6.4256    1.8877 C   0  0  0  0  0  0  0  0  0  0  0  0
   -7.4713    7.7822    2.2963 C   0  0  0  0  0  0  0  0  0  0  0  0
  -11.2112    5.7017    1.7820 C   0  0  0  0  0  0  0  0  0  0  0  0
   -5.6033    8.9669    1.2294 O   0  0  0  0  0  0  0  0  0  0  0  0
   -6.2997    9.7309    3.3129 O   0  0  0  0  0  0  0  0  0  0  0  0
   -6.0852    8.5527    2.5241 S   0  0  0  0  0  0  0  0  0  0  0  0
   -4.0107    8.0890    4.1645 C   0  0  0  0  0  0  0  0  0  0  0  0
   -4.9905    7.5756    3.2206 N   0  0  0  0  0  0  0  0  0  0  0  0
   -4.4621    7.1466    2.4610 H   0  0  0  0  0  0  0  0  0  0  0  0
  -10.6800    6.2514   -4.9281 C   0  0  0  0  0  0  0  0  0  0  0  0
  -11.1986    6.5074   -3.6616 C   0  0  0  0  0  0  0  0  0  0  0  0
   -9.9858    6.7704   -2.8372 C   0  0  0  0  0  0  0  0  0  0  0  0
   -9.2163    6.3137   -4.8676 C   0  0  0  0  0  0  0  0  0  0  0  0
   -8.2159    6.0950   -5.9624 C   0  0  0  0  0  0  0  0  0  0  0  0
   -8.8956    6.6204   -3.6016 N   0  0  0  0  0  0  0  0  0  0  0  0
   -7.9727    6.7228   -3.2744 H   0  0  0  0  0  0  0  0  0  0  0  0
  -11.4030    5.8941   -6.1674 C   0  0  0  0  0  0  0  0  0  0  0  0
  -12.1162    7.0164   -6.8349 C   0  0  0  0  0  0  0  0  0  0  0  0
  -11.4747    4.7536   -6.5672 O   0  0  0  0  0  0  0  0  0  0  0  0
  -13.0796    8.0197   -3.4533 C   0  0  0  0  0  0  0  0  0  0  0  0
  -12.6548    6.5766   -3.2162 C   0  0  0  0  0  0  0  0  0  0  0  0
 11  9  1  0  0  0
 28 29  1  0  0  0
  5  9  2  0  0  0
  5  6  1  0  0  0
  9  8  1  0  0  0
 29 19  1  0  0  0
  6 10  2  0  0  0
  8  2  1  0  0  0
  8  7  2  0  0  0
  2  1  1  0  0  0
 26 25  1  0  0  0
 27 25  2  0  0  0
 25 18  1  0  0  0
 19 18  1  0  0  0
 19 20  2  0  0  0
 18 21  2  0  0  0
  1 20  1  0  0  0
  1  3  2  0  0  0
 10  7  1  0  0  0
 10 14  1  0  0  0
 20 23  1  0  0  0
 21 23  1  0  0  0
 21 22  1  0  0  0
 12 14  2  0  0  0
 14 16  1  0  0  0
 14 13  2  0  0  0
 16 15  1  0  0  0
 23 24  1  0  0  0
  2  4  1  0  0  0
 16 17  1  0  0  0
M  END
> <minimizedAffinity>
-6.99731

$$$$
5D3N_L40_A_201


 29 30  0  0  0  0  0  0  0  0999 V2000
  -10.6837    6.2929    0.5966 C   0  0  0  0  0  0  0  0  0  0  0  0
   -9.5017    6.0050    0.0684 N   0  0  0  0  0  0  0  0  0  0  0  0
  -11.2338    7.3516    0.3853 O   0  0  0  0  0  0  0  0  0  0  0  0
   -9.0219    5.2330    0.4465 H   0  0  0  0  0  0  0  0  0  0  0  0
   -7.3642    8.4493   -1.7194 C   0  0  0  0  0  0  0  0  0  0  0  0
   -7.7170    8.2083   -3.0428 C   0  0  0  0  0  0  0  0  0  0  0  0
   -9.2310    6.4691   -2.3024 C   0  0  0  0  0  0  0  0  0  0  0  0
   -8.8806    6.6817   -0.9580 C   0  0  0  0  0  0  0  0  0  0  0  0
   -7.9280    7.6900   -0.6715 C   0  0  0  0  0  0  0  0  0  0  0  0
   -8.6545    7.2055   -3.3358 C   0  0  0  0  0  0  0  0  0  0  0  0
   -7.4612    8.0293    0.7234 C   0  0  0  0  0  0  0  0  0  0  0  0
  -10.2168    7.7440   -5.1525 O   0  0  0  0  0  0  0  0  0  0  0  0
   -8.0086    7.3085   -5.7391 O   0  0  0  0  0  0  0  0  0  0  0  0
   -9.0703    6.9206   -4.8565 S   0  0  0  0  0  0  0  0  0  0  0  0
   -8.4431    4.3177   -5.0612 C   0  0  0  0  0  0  0  0  0  0  0  0
   -9.4598    5.3575   -5.0643 N   0  0  0  0  0  0  0  0  0  0  0  0
   -9.9330    5.2955   -5.9658 H   0  0  0  0  0  0  0  0  0  0  0  0
  -13.2109    3.9725    2.0001 C   0  0  0  0  0  0  0  0  0  0  0  0
  -12.8950    4.9338    1.0437 C   0  0  0  0  0  0  0  0  0  0  0  0
  -11.4767    5.2729    1.3485 C   0  0  0  0  0  0  0  0  0  0  0  0
  -12.0513    3.7673    2.8737 C   0  0  0  0  0  0  0  0  0  0  0  0
  -11.9073    2.8523    4.0523 C   0  0  0  0  0  0  0  0  0  0  0  0
  -11.0798    4.5738    2.4204 N   0  0  0  0  0  0  0  0  0  0  0  0
  -10.1852    4.6435    2.8256 H   0  0  0  0  0  0  0  0  0  0  0  0
  -14.4966    3.2765    2.2207 C   0  0  0  0  0  0  0  0  0  0  0  0
  -14.3936    1.9322    2.8499 C   0  0  0  0  0  0  0  0  0  0  0  0
  -15.5519    3.7347    1.8438 O   0  0  0  0  0  0  0  0  0  0  0  0
  -14.4533    6.6999    0.4772 C   0  0  0  0  0  0  0  0  0  0  0  0
  -13.7532    5.4742   -0.0944 C   0  0  0  0  0  0  0  0  0  0  0  0
 11  9  1  0  0  0
 28 29  1  0  0  0
  5  9  2  0  0  0
  5  6  1  0  0  0
  9  8  1  0  0  0
 29 19  1  0  0  0
  6 10  2  0  0  0
  8  2  1  0  0  0
  8  7  2  0  0  0
  2  1  1  0  0  0
 26 25  1  0  0  0
 27 25  2  0  0  0
 25 18  1  0  0  0
 19 18  1  0  0  0
 19 20  2  0  0  0
 18 21  2  0  0  0
  1 20  1  0  0  0
  1  3  2  0  0  0
 10  7  1  0  0  0
 10 14  1  0  0  0
 20 23  1  0  0  0
 21 23  1  0  0  0
 21 22  1  0  0  0
 12 14  2  0  0  0
 14 16  1  0  0  0
 14 13  2  0  0  0
 16 15  1  0  0  0
 23 24  1  0  0  0
  2  4  1  0  0  0
 16 17  1  0  0  0
M  END
> <minimizedAffinity>
-6.82441

$$$$
5D3N_L40_A_201


 29 30  0  0  0  0  0  0  0  0999 V2000
   -6.3426    8.0229    1.9426 C   0  0  0  0  0  0  0  0  0  0  0  0
   -7.1543    6.9788    1.8430 N   0  0  0  0  0  0  0  0  0  0  0  0
   -6.4067    8.9542    1.1703 O   0  0  0  0  0  0  0  0  0  0  0  0
   -6.9110    6.1756    2.3578 H   0  0  0  0  0  0  0  0  0  0  0  0
  -10.7425    6.7000    0.9561 C   0  0  0  0  0  0  0  0  0  0  0  0
  -10.6769    6.5912   -0.4288 C   0  0  0  0  0  0  0  0  0  0  0  0
   -8.2653    6.7816   -0.3101 C   0  0  0  0  0  0  0  0  0  0  0  0
   -8.3049    6.9094    1.0890 C   0  0  0  0  0  0  0  0  0  0  0  0
   -9.5703    6.8690    1.7240 C   0  0  0  0  0  0  0  0  0  0  0  0
   -9.4272    6.6381   -1.0665 C   0  0  0  0  0  0  0  0  0  0  0  0
   -9.7628    6.9897    3.2164 C   0  0  0  0  0  0  0  0  0  0  0  0
  -10.6549    6.1666   -3.1406 O   0  0  0  0  0  0  0  0  0  0  0  0
   -8.9765    7.7738   -3.2369 O   0  0  0  0  0  0  0  0  0  0  0  0
   -9.3391    6.5115   -2.6612 S   0  0  0  0  0  0  0  0  0  0  0  0
   -8.5054    4.5299   -4.2700 C   0  0  0  0  0  0  0  0  0  0  0  0
   -8.2867    5.3510   -3.0899 N   0  0  0  0  0  0  0  0  0  0  0  0
   -8.2269    4.7094   -2.2992 H   0  0  0  0  0  0  0  0  0  0  0  0
   -4.5780    8.8872    5.0860 C   0  0  0  0  0  0  0  0  0  0  0  0
   -5.7235    9.0113    4.3042 C   0  0  0  0  0  0  0  0  0  0  0  0
   -5.4138    8.1870    3.1025 C   0  0  0  0  0  0  0  0  0  0  0  0
   -3.5994    8.0601    4.3733 C   0  0  0  0  0  0  0  0  0  0  0  0
   -2.2183    7.6572    4.7947 C   0  0  0  0  0  0  0  0  0  0  0  0
   -4.1727    7.6953    3.2165 N   0  0  0  0  0  0  0  0  0  0  0  0
   -3.7352    7.1353    2.5352 H   0  0  0  0  0  0  0  0  0  0  0  0
   -4.2803    9.5098    6.3936 C   0  0  0  0  0  0  0  0  0  0  0  0
   -4.0602   10.9810    6.3633 C   0  0  0  0  0  0  0  0  0  0  0  0
   -4.1471    8.8568    7.4044 O   0  0  0  0  0  0  0  0  0  0  0  0
   -6.9152   11.0755    3.8716 C   0  0  0  0  0  0  0  0  0  0  0  0
   -7.0212    9.7493    4.6125 C   0  0  0  0  0  0  0  0  0  0  0  0
 11  9  1  0  0  0
 28 29  1  0  0  0
  5  9  2  0  0  0
  5  6  1  0  0  0
  9  8  1  0  0  0
 29 19  1  0  0  0
  6 10  2  0  0  0
  8  2  1  0  0  0
  8  7  2  0  0  0
  2  1  1  0  0  0
 26 25  1  0  0  0
 27 25  2  0  0  0
 25 18  1  0  0  0
 19 18  1  0  0  0
 19 20  2  0  0  0
 18 21  2  0  0  0
  1 20  1  0  0  0
  1  3  2  0  0  0
 10  7  1  0  0  0
 10 14  1  0  0  0
 20 23  1  0  0  0
 21 23  1  0  0  0
 21 22  1  0  0  0
 12 14  2  0  0  0
 14 16  1  0  0  0
 14 13  2  0  0  0
 16 15  1  0  0  0
 23 24  1  0  0  0
  2  4  1  0  0  0
 16 17  1  0  0  0
M  END
> <minimizedAffinity>
-6.70732

$$$$
5D3N_L40_A_201


 29 30  0  0  0  0  0  0  0  0999 V2000
   -8.8902    7.0057   -0.0787 C   0  0  0  0  0  0  0  0  0  0  0  0
  -10.0227    7.3278    0.5318 N   0  0  0  0  0  0  0  0  0  0  0  0
   -8.7477    5.9374   -0.6324 O   0  0  0  0  0  0  0  0  0  0  0  0
   -9.9972    8.1057    1.1346 H   0  0  0  0  0  0  0  0  0  0  0  0
  -13.5167    6.6097   -0.4762 C   0  0  0  0  0  0  0  0  0  0  0  0
  -13.7853    5.4602    0.2591 C   0  0  0  0  0  0  0  0  0  0  0  0
  -11.5336    5.5261    1.1485 C   0  0  0  0  0  0  0  0  0  0  0  0
  -11.2311    6.6792    0.4040 C   0  0  0  0  0  0  0  0  0  0  0  0
  -12.2460    7.2218   -0.4217 C   0  0  0  0  0  0  0  0  0  0  0  0
  -12.7824    4.9117    1.0738 C   0  0  0  0  0  0  0  0  0  0  0  0
  -12.0636    8.4559   -1.2717 C   0  0  0  0  0  0  0  0  0  0  0  0
  -13.0820    2.4749    1.0112 O   0  0  0  0  0  0  0  0  0  0  0  0
  -12.0353    3.3728    2.8842 O   0  0  0  0  0  0  0  0  0  0  0  0
  -13.0812    3.5891    1.9271 S   0  0  0  0  0  0  0  0  0  0  0  0
  -15.1570    2.5212    3.2539 C   0  0  0  0  0  0  0  0  0  0  0  0
  -14.5286    3.6890    2.6573 N   0  0  0  0  0  0  0  0  0  0  0  0
  -15.1811    4.0417    1.9572 H   0  0  0  0  0  0  0  0  0  0  0  0
   -6.3567    9.4448   -1.2507 C   0  0  0  0  0  0  0  0  0  0  0  0
   -7.4433    8.6316   -1.5619 C   0  0  0  0  0  0  0  0  0  0  0  0
   -7.7859    7.9972   -0.2583 C   0  0  0  0  0  0  0  0  0  0  0  0
   -6.0265    9.2800    0.1683 C   0  0  0  0  0  0  0  0  0  0  0  0
   -4.9334    9.9267    0.9646 C   0  0  0  0  0  0  0  0  0  0  0  0
   -6.9143    8.4095    0.6721 N   0  0  0  0  0  0  0  0  0  0  0  0
   -6.9241    8.1104    1.6100 H   0  0  0  0  0  0  0  0  0  0  0  0
   -5.5600   10.3061   -2.1504 C   0  0  0  0  0  0  0  0  0  0  0  0
   -4.4406    9.6263   -2.8567 C   0  0  0  0  0  0  0  0  0  0  0  0
   -5.7558   11.4970   -2.2450 O   0  0  0  0  0  0  0  0  0  0  0  0
   -7.4208    7.3600   -3.6237 C   0  0  0  0  0  0  0  0  0  0  0  0
   -8.1691    8.4664   -2.8922 C   0  0  0  0  0  0  0  0  0  0  0  0
 11  9  1  0  0  0
 28 29  1  0  0  0
  5  9  2  0  0  0
  5  6  1  0  0  0
  9  8  1  0  0  0
 29 19  1  0  0  0
  6 10  2  0  0  0
  8  2  1  0  0  0
  8  7  2  0  0  0
  2  1  1  0  0  0
 26 25  1  0  0  0
 27 25  2  0  0  0
 25 18  1  0  0  0
 19 18  1  0  0  0
 19 20  2  0  0  0
 18 21  2  0  0  0
  1 20  1  0  0  0
  1  3  2  0  0  0
 10  7  1  0  0  0
 10 14  1  0  0  0
 20 23  1  0  0  0
 21 23  1  0  0  0
 21 22  1  0  0  0
 12 14  2  0  0  0
 14 16  1  0  0  0
 14 13  2  0  0  0
 16 15  1  0  0  0
 23 24  1  0  0  0
  2  4  1  0  0  0
 16 17  1  0  0  0
M  END
> <minimizedAffinity>
-6.62665

$$$$
