2F1G_GNF_A_1002


 35 38  0  0  0  0  0  0  0  0999 V2000
   22.8655   31.4619   12.5571 C   0  0  0  0  0  0  0  0  0  0  0  0
   20.9492   31.8608   11.2853 O   0  0  0  0  0  0  0  0  0  0  0  0
   21.6159   32.2384   12.2415 C   0  0  0  0  0  0  0  0  0  0  0  0
   21.2768   33.2577   13.0572 N   0  0  0  0  0  0  0  0  0  0  0  0
   21.8764   33.4703   13.8086 H   0  0  0  0  0  0  0  0  0  0  0  0
   20.0701   34.0643   12.8890 C   0  0  0  0  0  0  0  0  0  0  0  0
   20.3358   35.5354   12.5042 C   0  0  0  0  0  0  0  0  0  0  0  0
   21.7623   35.7706   12.3209 N   0  0  0  0  0  0  0  0  0  0  0  0
   22.4197   35.1592   12.7250 H   0  0  0  0  0  0  0  0  0  0  0  0
   22.1811   36.8349   11.5915 C   0  0  0  0  0  0  0  0  0  0  0  0
   23.5195   36.9112   11.1721 C   0  0  0  0  0  0  0  0  0  0  0  0
   23.9185   37.9625   10.3391 C   0  0  0  0  0  0  0  0  0  0  0  0
   21.2533   37.7880   11.1392 C   0  0  0  0  0  0  0  0  0  0  0  0
   21.6511   38.8098   10.2981 C   0  0  0  0  0  0  0  0  0  0  0  0
   22.9632   38.8822    9.9040 C   0  0  0  0  0  0  0  0  0  0  0  0
   23.2752   39.9249    9.1234 O   0  0  0  0  0  0  0  0  0  0  0  0
   22.5394   41.0640    9.4593 C   0  0  0  0  0  0  0  0  0  0  0  0
   23.9240   32.2379   11.9585 N   0  0  0  0  0  0  0  0  0  0  0  0
   24.1262   32.0842   11.0074 H   0  0  0  0  0  0  0  0  0  0  0  0
   24.6523   33.1576   12.6155 C   0  0  0  0  0  0  0  0  0  0  0  0
   24.0430   34.2168   13.2116 O   0  0  0  0  0  0  0  0  0  0  0  0
   25.1354   34.9003   13.7601 C   0  0  0  0  0  0  0  0  0  0  0  0
   25.0648   36.0769   14.4853 C   0  0  0  0  0  0  0  0  0  0  0  0
   26.2517   36.6042   14.9657 C   0  0  0  0  0  0  0  0  0  0  0  0
   27.4624   35.9492   14.7083 C   0  0  0  0  0  0  0  0  0  0  0  0
   27.5130   34.7753   13.9561 C   0  0  0  0  0  0  0  0  0  0  0  0
   26.3259   34.2409   13.4810 C   0  0  0  0  0  0  0  0  0  0  0  0
   26.0030   33.1335   12.7475 N   0  0  0  0  0  0  0  0  0  0  0  0
   23.0688   31.3127   14.0629 C   0  0  0  0  0  0  0  0  0  0  0  0
   22.2571   30.1933   14.7321 C   0  0  0  0  0  0  0  0  0  0  0  0
   21.2246   30.7937   15.6889 C   0  0  0  0  0  0  0  0  0  0  0  0
   20.4861   29.6882   16.4342 C   0  0  0  0  0  0  0  0  0  0  0  0
   21.4355   28.7630   17.1886 C   0  0  0  0  0  0  0  0  0  0  0  0
   22.8946   29.1144   16.9286 C   0  0  0  0  0  0  0  0  0  0  0  0
   23.1886   29.2147   15.4391 C   0  0  0  0  0  0  0  0  0  0  0  0
  2  3  2  0  0  0
  3  1  1  0  0  0
  3  4  1  0  0  0
  1 18  1  0  0  0
  1 29  1  0  0  0
 18 20  1  0  0  0
 20 21  1  0  0  0
 20 28  2  0  0  0
 21 22  1  0  0  0
 22 23  2  0  0  0
 22 27  1  0  0  0
 23 24  1  0  0  0
 24 25  2  0  0  0
 25 26  1  0  0  0
 26 27  2  0  0  0
 27 28  1  0  0  0
 29 30  1  0  0  0
 30 31  1  0  0  0
 30 35  1  0  0  0
 31 32  1  0  0  0
 32 33  1  0  0  0
 33 34  1  0  0  0
 34 35  1  0  0  0
  4  6  1  0  0  0
  6  7  1  0  0  0
  7  8  1  0  0  0
  8 10  1  0  0  0
 10 11  1  0  0  0
 10 13  2  0  0  0
 11 12  2  0  0  0
 12 15  1  0  0  0
 13 14  1  0  0  0
 14 15  2  0  0  0
 15 16  1  0  0  0
 16 17  1  0  0  0
 18 19  1  0  0  0
  4  5  1  0  0  0
  8  9  1  0  0  0
M  END
> <minimizedAffinity>
-7.70465

$$$$
2F1G_GNF_A_1002


 35 38  0  0  0  0  0  0  0  0999 V2000
   21.9882   31.3847   12.8136 C   0  0  0  0  0  0  0  0  0  0  0  0
   20.3951   32.2513   11.3439 O   0  0  0  0  0  0  0  0  0  0  0  0
   21.1012   32.4934   12.3157 C   0  0  0  0  0  0  0  0  0  0  0  0
   21.0932   33.6571   12.9976 N   0  0  0  0  0  0  0  0  0  0  0  0
   21.6899   33.7433   13.7759 H   0  0  0  0  0  0  0  0  0  0  0  0
   20.2491   34.7971   12.6467 C   0  0  0  0  0  0  0  0  0  0  0  0
   21.0289   36.0777   12.2794 C   0  0  0  0  0  0  0  0  0  0  0  0
   22.1876   35.7573   11.4558 N   0  0  0  0  0  0  0  0  0  0  0  0
   22.0990   35.1324   10.7003 H   0  0  0  0  0  0  0  0  0  0  0  0
   23.3888   36.3231   11.7338 C   0  0  0  0  0  0  0  0  0  0  0  0
   24.0320   37.1092   10.7637 C   0  0  0  0  0  0  0  0  0  0  0  0
   25.2222   37.7675   11.0929 C   0  0  0  0  0  0  0  0  0  0  0  0
   23.9237   36.2396   13.0302 C   0  0  0  0  0  0  0  0  0  0  0  0
   25.0872   36.9115   13.3533 C   0  0  0  0  0  0  0  0  0  0  0  0
   25.7141   37.6669   12.3951 C   0  0  0  0  0  0  0  0  0  0  0  0
   26.8571   38.2517   12.7768 O   0  0  0  0  0  0  0  0  0  0  0  0
   27.6611   37.3846   13.5206 C   0  0  0  0  0  0  0  0  0  0  0  0
   23.1446   32.0673   13.3405 N   0  0  0  0  0  0  0  0  0  0  0  0
   23.2374   32.1278   14.3187 H   0  0  0  0  0  0  0  0  0  0  0  0
   24.1039   32.6264   12.5821 C   0  0  0  0  0  0  0  0  0  0  0  0
   23.8632   32.9168   11.2759 O   0  0  0  0  0  0  0  0  0  0  0  0
   25.0882   33.4660   10.8772 C   0  0  0  0  0  0  0  0  0  0  0  0
   25.3844   33.9323    9.6084 C   0  0  0  0  0  0  0  0  0  0  0  0
   26.6480   34.4586    9.3992 C   0  0  0  0  0  0  0  0  0  0  0  0
   27.5705   34.5010   10.4520 C   0  0  0  0  0  0  0  0  0  0  0  0
   27.2583   34.0051   11.7181 C   0  0  0  0  0  0  0  0  0  0  0  0
   25.9917   33.4852   11.9324 C   0  0  0  0  0  0  0  0  0  0  0  0
   25.3517   32.9437   13.0120 N   0  0  0  0  0  0  0  0  0  0  0  0
   21.2958   30.5520   13.8899 C   0  0  0  0  0  0  0  0  0  0  0  0
   21.9306   30.6177   15.2872 C   0  0  0  0  0  0  0  0  0  0  0  0
   22.5490   29.2647   15.6468 C   0  0  0  0  0  0  0  0  0  0  0  0
   23.0892   29.2904   17.0718 C   0  0  0  0  0  0  0  0  0  0  0  0
   22.0206   29.6744   18.0902 C   0  0  0  0  0  0  0  0  0  0  0  0
   20.7016   30.0345   17.4190 C   0  0  0  0  0  0  0  0  0  0  0  0
   20.8984   31.0647   16.3166 C   0  0  0  0  0  0  0  0  0  0  0  0
  2  3  2  0  0  0
  3  1  1  0  0  0
  3  4  1  0  0  0
  1 18  1  0  0  0
  1 29  1  0  0  0
 18 20  1  0  0  0
 20 21  1  0  0  0
 20 28  2  0  0  0
 21 22  1  0  0  0
 22 23  2  0  0  0
 22 27  1  0  0  0
 23 24  1  0  0  0
 24 25  2  0  0  0
 25 26  1  0  0  0
 26 27  2  0  0  0
 27 28  1  0  0  0
 29 30  1  0  0  0
 30 31  1  0  0  0
 30 35  1  0  0  0
 31 32  1  0  0  0
 32 33  1  0  0  0
 33 34  1  0  0  0
 34 35  1  0  0  0
  4  6  1  0  0  0
  6  7  1  0  0  0
  7  8  1  0  0  0
  8 10  1  0  0  0
 10 11  1  0  0  0
 10 13  2  0  0  0
 11 12  2  0  0  0
 12 15  1  0  0  0
 13 14  1  0  0  0
 14 15  2  0  0  0
 15 16  1  0  0  0
 16 17  1  0  0  0
 18 19  1  0  0  0
  4  5  1  0  0  0
  8  9  1  0  0  0
M  END
> <minimizedAffinity>
-7.65642

$$$$
2F1G_GNF_A_1002


 35 38  0  0  0  0  0  0  0  0999 V2000
   21.9585   31.5258   12.6884 C   0  0  0  0  0  0  0  0  0  0  0  0
   20.3125   32.6109   11.4386 O   0  0  0  0  0  0  0  0  0  0  0  0
   21.3179   32.7639   12.1223 C   0  0  0  0  0  0  0  0  0  0  0  0
   21.8493   33.9606   12.4460 N   0  0  0  0  0  0  0  0  0  0  0  0
   22.6521   33.9732   13.0157 H   0  0  0  0  0  0  0  0  0  0  0  0
   21.3012   35.2393   11.9992 C   0  0  0  0  0  0  0  0  0  0  0  0
   22.2941   36.4188   12.0740 C   0  0  0  0  0  0  0  0  0  0  0  0
   23.6693   35.9386   12.0302 N   0  0  0  0  0  0  0  0  0  0  0  0
   23.9541   35.3200   11.3192 H   0  0  0  0  0  0  0  0  0  0  0  0
   24.5556   36.3469   12.9725 C   0  0  0  0  0  0  0  0  0  0  0  0
   25.4754   37.3651   12.6720 C   0  0  0  0  0  0  0  0  0  0  0  0
   26.3194   37.8462   13.6791 C   0  0  0  0  0  0  0  0  0  0  0  0
   24.4659   35.8534   14.2848 C   0  0  0  0  0  0  0  0  0  0  0  0
   25.2875   36.3505   15.2786 C   0  0  0  0  0  0  0  0  0  0  0  0
   26.1907   37.3365   14.9719 C   0  0  0  0  0  0  0  0  0  0  0  0
   26.9773   37.7335   15.9807 O   0  0  0  0  0  0  0  0  0  0  0  0
   28.0960   36.9090   16.1227 C   0  0  0  0  0  0  0  0  0  0  0  0
   23.2127   31.4233   11.9832 N   0  0  0  0  0  0  0  0  0  0  0  0
   23.1945   31.0873   11.0580 H   0  0  0  0  0  0  0  0  0  0  0  0
   24.4051   31.7569   12.5077 C   0  0  0  0  0  0  0  0  0  0  0  0
   25.1153   30.8489   13.2285 O   0  0  0  0  0  0  0  0  0  0  0  0
   26.2530   31.5889   13.5742 C   0  0  0  0  0  0  0  0  0  0  0  0
   27.3159   31.1227   14.3279 C   0  0  0  0  0  0  0  0  0  0  0  0
   28.3671   31.9940   14.5585 C   0  0  0  0  0  0  0  0  0  0  0  0
   28.3254   33.2931   14.0373 C   0  0  0  0  0  0  0  0  0  0  0  0
   27.2337   33.7497   13.2984 C   0  0  0  0  0  0  0  0  0  0  0  0
   26.1838   32.8772   13.0591 C   0  0  0  0  0  0  0  0  0  0  0  0
   24.9987   32.9713   12.3845 N   0  0  0  0  0  0  0  0  0  0  0  0
   22.1759   31.6447   14.1950 C   0  0  0  0  0  0  0  0  0  0  0  0
   21.6011   30.4970   15.0387 C   0  0  0  0  0  0  0  0  0  0  0  0
   20.9477   31.0534   16.3060 C   0  0  0  0  0  0  0  0  0  0  0  0
   20.4670   29.9152   17.1984 C   0  0  0  0  0  0  0  0  0  0  0  0
   21.5895   28.9477   17.5596 C   0  0  0  0  0  0  0  0  0  0  0  0
   22.8928   29.3041   16.8564 C   0  0  0  0  0  0  0  0  0  0  0  0
   22.6901   29.4787   15.3585 C   0  0  0  0  0  0  0  0  0  0  0  0
  2  3  2  0  0  0
  3  1  1  0  0  0
  3  4  1  0  0  0
  1 18  1  0  0  0
  1 29  1  0  0  0
 18 20  1  0  0  0
 20 21  1  0  0  0
 20 28  2  0  0  0
 21 22  1  0  0  0
 22 23  2  0  0  0
 22 27  1  0  0  0
 23 24  1  0  0  0
 24 25  2  0  0  0
 25 26  1  0  0  0
 26 27  2  0  0  0
 27 28  1  0  0  0
 29 30  1  0  0  0
 30 31  1  0  0  0
 30 35  1  0  0  0
 31 32  1  0  0  0
 32 33  1  0  0  0
 33 34  1  0  0  0
 34 35  1  0  0  0
  4  6  1  0  0  0
  6  7  1  0  0  0
  7  8  1  0  0  0
  8 10  1  0  0  0
 10 11  1  0  0  0
 10 13  2  0  0  0
 11 12  2  0  0  0
 12 15  1  0  0  0
 13 14  1  0  0  0
 14 15  2  0  0  0
 15 16  1  0  0  0
 16 17  1  0  0  0
 18 19  1  0  0  0
  4  5  1  0  0  0
  8  9  1  0  0  0
M  END
> <minimizedAffinity>
-7.62072

$$$$
2F1G_GNF_A_1002


 35 38  0  0  0  0  0  0  0  0999 V2000
   22.5785   34.1461   12.7820 C   0  0  0  0  0  0  0  0  0  0  0  0
   20.5341   34.4881   11.7086 O   0  0  0  0  0  0  0  0  0  0  0  0
   21.5854   35.0128   12.0565 C   0  0  0  0  0  0  0  0  0  0  0  0
   21.8838   36.3171   11.8858 N   0  0  0  0  0  0  0  0  0  0  0  0
   22.7522   36.6419   12.2171 H   0  0  0  0  0  0  0  0  0  0  0  0
   20.9916   37.2753   11.2370 C   0  0  0  0  0  0  0  0  0  0  0  0
   21.7126   38.4644   10.5670 C   0  0  0  0  0  0  0  0  0  0  0  0
   20.8086   39.1792    9.6752 N   0  0  0  0  0  0  0  0  0  0  0  0
   20.3070   39.9604   10.0027 H   0  0  0  0  0  0  0  0  0  0  0  0
   20.6607   38.7643    8.3921 C   0  0  0  0  0  0  0  0  0  0  0  0
   21.7507   38.1981    7.7108 C   0  0  0  0  0  0  0  0  0  0  0  0
   21.5629   37.6849    6.4226 C   0  0  0  0  0  0  0  0  0  0  0  0
   19.3908   38.7724    7.7911 C   0  0  0  0  0  0  0  0  0  0  0  0
   19.2095   38.2425    6.5278 C   0  0  0  0  0  0  0  0  0  0  0  0
   20.2832   37.7028    5.8661 C   0  0  0  0  0  0  0  0  0  0  0  0
   20.0321   37.2488    4.6312 O   0  0  0  0  0  0  0  0  0  0  0  0
   18.8930   36.4408    4.5963 C   0  0  0  0  0  0  0  0  0  0  0  0
   21.9813   32.8331   12.7632 N   0  0  0  0  0  0  0  0  0  0  0  0
   21.5968   32.5144   11.9148 H   0  0  0  0  0  0  0  0  0  0  0  0
   21.9157   32.0164   13.8293 C   0  0  0  0  0  0  0  0  0  0  0  0
   22.7705   30.9651   13.9413 O   0  0  0  0  0  0  0  0  0  0  0  0
   22.3672   30.4002   15.1577 C   0  0  0  0  0  0  0  0  0  0  0  0
   22.9243   29.2784   15.7462 C   0  0  0  0  0  0  0  0  0  0  0  0
   22.4053   28.8703   16.9634 C   0  0  0  0  0  0  0  0  0  0  0  0
   21.3541   29.5857   17.5502 C   0  0  0  0  0  0  0  0  0  0  0  0
   20.7925   30.7014   16.9288 C   0  0  0  0  0  0  0  0  0  0  0  0
   21.3153   31.1169   15.7145 C   0  0  0  0  0  0  0  0  0  0  0  0
   21.0357   32.1424   14.8550 N   0  0  0  0  0  0  0  0  0  0  0  0
   23.9384   34.1483   12.0877 C   0  0  0  0  0  0  0  0  0  0  0  0
   25.0391   34.9559   12.7919 C   0  0  0  0  0  0  0  0  0  0  0  0
   24.5403   35.4472   14.1529 C   0  0  0  0  0  0  0  0  0  0  0  0
   25.5882   36.3359   14.8126 C   0  0  0  0  0  0  0  0  0  0  0  0
   25.9836   37.5175   13.9328 C   0  0  0  0  0  0  0  0  0  0  0  0
   25.3056   37.4609   12.5700 C   0  0  0  0  0  0  0  0  0  0  0  0
   25.5008   36.1067   11.9043 C   0  0  0  0  0  0  0  0  0  0  0  0
  2  3  2  0  0  0
  3  1  1  0  0  0
  3  4  1  0  0  0
  1 18  1  0  0  0
  1 29  1  0  0  0
 18 20  1  0  0  0
 20 21  1  0  0  0
 20 28  2  0  0  0
 21 22  1  0  0  0
 22 23  2  0  0  0
 22 27  1  0  0  0
 23 24  1  0  0  0
 24 25  2  0  0  0
 25 26  1  0  0  0
 26 27  2  0  0  0
 27 28  1  0  0  0
 29 30  1  0  0  0
 30 31  1  0  0  0
 30 35  1  0  0  0
 31 32  1  0  0  0
 32 33  1  0  0  0
 33 34  1  0  0  0
 34 35  1  0  0  0
  4  6  1  0  0  0
  6  7  1  0  0  0
  7  8  1  0  0  0
  8 10  1  0  0  0
 10 11  1  0  0  0
 10 13  2  0  0  0
 11 12  2  0  0  0
 12 15  1  0  0  0
 13 14  1  0  0  0
 14 15  2  0  0  0
 15 16  1  0  0  0
 16 17  1  0  0  0
 18 19  1  0  0  0
  4  5  1  0  0  0
  8  9  1  0  0  0
M  END
> <minimizedAffinity>
-7.39231

$$$$
2F1G_GNF_A_1002


 35 38  0  0  0  0  0  0  0  0999 V2000
   22.2271   35.2316   12.5282 C   0  0  0  0  0  0  0  0  0  0  0  0
   20.2143   34.6091   11.5230 O   0  0  0  0  0  0  0  0  0  0  0  0
   21.1270   34.2424   12.2539 C   0  0  0  0  0  0  0  0  0  0  0  0
   21.2395   33.0040   12.7765 N   0  0  0  0  0  0  0  0  0  0  0  0
   22.0224   32.8073   13.3401 H   0  0  0  0  0  0  0  0  0  0  0  0
   20.2654   31.9379   12.5537 C   0  0  0  0  0  0  0  0  0  0  0  0
   20.5870   30.6179   13.2865 C   0  0  0  0  0  0  0  0  0  0  0  0
   21.8573   30.7173   13.9938 N   0  0  0  0  0  0  0  0  0  0  0  0
   22.6340   31.1365   13.5576 H   0  0  0  0  0  0  0  0  0  0  0  0
   21.9658   30.2303   15.2553 C   0  0  0  0  0  0  0  0  0  0  0  0
   23.0360   29.3834   15.5876 C   0  0  0  0  0  0  0  0  0  0  0  0
   23.1936   28.9651   16.9136 C   0  0  0  0  0  0  0  0  0  0  0  0
   21.0931   30.6785   16.2609 C   0  0  0  0  0  0  0  0  0  0  0  0
   21.2697   30.2788   17.5719 C   0  0  0  0  0  0  0  0  0  0  0  0
   22.3110   29.4419   17.8839 C   0  0  0  0  0  0  0  0  0  0  0  0
   22.3874   29.0687   19.1680 O   0  0  0  0  0  0  0  0  0  0  0  0
   22.9466   27.7961   19.3068 C   0  0  0  0  0  0  0  0  0  0  0  0
   23.1929   34.4821   13.2940 N   0  0  0  0  0  0  0  0  0  0  0  0
   22.9779   33.5478   13.5179 H   0  0  0  0  0  0  0  0  0  0  0  0
   24.3676   34.9770   13.7219 C   0  0  0  0  0  0  0  0  0  0  0  0
   25.5272   34.3202   13.4527 O   0  0  0  0  0  0  0  0  0  0  0  0
   26.4732   35.1544   14.0613 C   0  0  0  0  0  0  0  0  0  0  0  0
   27.8397   34.9365   14.0840 C   0  0  0  0  0  0  0  0  0  0  0  0
   28.6272   35.8800   14.7221 C   0  0  0  0  0  0  0  0  0  0  0  0
   28.0330   37.0009   15.3150 C   0  0  0  0  0  0  0  0  0  0  0  0
   26.6508   37.1898   15.2993 C   0  0  0  0  0  0  0  0  0  0  0  0
   25.8609   36.2513   14.6544 C   0  0  0  0  0  0  0  0  0  0  0  0
   24.5181   36.1232   14.4333 N   0  0  0  0  0  0  0  0  0  0  0  0
   22.8372   35.7659   11.2345 C   0  0  0  0  0  0  0  0  0  0  0  0
   22.9384   37.2953   11.1335 C   0  0  0  0  0  0  0  0  0  0  0  0
   21.7267   37.8531   10.3832 C   0  0  0  0  0  0  0  0  0  0  0  0
   21.8704   39.3578   10.1878 C   0  0  0  0  0  0  0  0  0  0  0  0
   23.1609   39.7280    9.4638 C   0  0  0  0  0  0  0  0  0  0  0  0
   24.0346   38.5077    9.2039 C   0  0  0  0  0  0  0  0  0  0  0  0
   24.2527   37.6959   10.4722 C   0  0  0  0  0  0  0  0  0  0  0  0
  2  3  2  0  0  0
  3  1  1  0  0  0
  3  4  1  0  0  0
  1 18  1  0  0  0
  1 29  1  0  0  0
 18 20  1  0  0  0
 20 21  1  0  0  0
 20 28  2  0  0  0
 21 22  1  0  0  0
 22 23  2  0  0  0
 22 27  1  0  0  0
 23 24  1  0  0  0
 24 25  2  0  0  0
 25 26  1  0  0  0
 26 27  2  0  0  0
 27 28  1  0  0  0
 29 30  1  0  0  0
 30 31  1  0  0  0
 30 35  1  0  0  0
 31 32  1  0  0  0
 32 33  1  0  0  0
 33 34  1  0  0  0
 34 35  1  0  0  0
  4  6  1  0  0  0
  6  7  1  0  0  0
  7  8  1  0  0  0
  8 10  1  0  0  0
 10 11  1  0  0  0
 10 13  2  0  0  0
 11 12  2  0  0  0
 12 15  1  0  0  0
 13 14  1  0  0  0
 14 15  2  0  0  0
 15 16  1  0  0  0
 16 17  1  0  0  0
 18 19  1  0  0  0
  4  5  1  0  0  0
  8  9  1  0  0  0
M  END
> <minimizedAffinity>
-7.38147

$$$$
2F1G_GNF_A_1002


 35 38  0  0  0  0  0  0  0  0999 V2000
   24.0976   35.8465   10.9981 C   0  0  0  0  0  0  0  0  0  0  0  0
   23.2685   36.3250   13.1271 O   0  0  0  0  0  0  0  0  0  0  0  0
   22.9909   35.8874   12.0167 C   0  0  0  0  0  0  0  0  0  0  0  0
   21.7578   35.4983   11.6329 N   0  0  0  0  0  0  0  0  0  0  0  0
   21.6389   35.1758   10.7103 H   0  0  0  0  0  0  0  0  0  0  0  0
   20.5885   35.5281   12.5087 C   0  0  0  0  0  0  0  0  0  0  0  0
   19.9310   34.1509   12.7403 C   0  0  0  0  0  0  0  0  0  0  0  0
   20.9159   33.0832   12.6235 N   0  0  0  0  0  0  0  0  0  0  0  0
   21.5548   33.0804   11.8744 H   0  0  0  0  0  0  0  0  0  0  0  0
   20.9494   32.0933   13.5504 C   0  0  0  0  0  0  0  0  0  0  0  0
   21.1387   32.4112   14.9054 C   0  0  0  0  0  0  0  0  0  0  0  0
   21.0746   31.3938   15.8642 C   0  0  0  0  0  0  0  0  0  0  0  0
   20.6590   30.7700   13.1787 C   0  0  0  0  0  0  0  0  0  0  0  0
   20.5747   29.7756   14.1345 C   0  0  0  0  0  0  0  0  0  0  0  0
   20.7731   30.0944   15.4539 C   0  0  0  0  0  0  0  0  0  0  0  0
   20.7156   29.0671   16.3115 O   0  0  0  0  0  0  0  0  0  0  0  0
   20.1967   29.4525   17.5499 C   0  0  0  0  0  0  0  0  0  0  0  0
   24.1591   34.4617   10.5990 N   0  0  0  0  0  0  0  0  0  0  0  0
   23.9027   34.2369    9.6755 H   0  0  0  0  0  0  0  0  0  0  0  0
   24.5440   33.4579   11.4067 C   0  0  0  0  0  0  0  0  0  0  0  0
   23.7510   32.3655   11.5686 O   0  0  0  0  0  0  0  0  0  0  0  0
   24.5073   31.5961   12.4615 C   0  0  0  0  0  0  0  0  0  0  0  0
   24.1424   30.3596   12.9647 C   0  0  0  0  0  0  0  0  0  0  0  0
   25.0261   29.7346   13.8284 C   0  0  0  0  0  0  0  0  0  0  0  0
   26.2349   30.3574   14.1630 C   0  0  0  0  0  0  0  0  0  0  0  0
   26.5731   31.6145   13.6612 C   0  0  0  0  0  0  0  0  0  0  0  0
   25.6942   32.2387   12.7902 C   0  0  0  0  0  0  0  0  0  0  0  0
   25.7026   33.4262   12.1132 N   0  0  0  0  0  0  0  0  0  0  0  0
   23.7994   36.7553    9.8081 C   0  0  0  0  0  0  0  0  0  0  0  0
   23.6738   38.2513   10.1336 C   0  0  0  0  0  0  0  0  0  0  0  0
   22.2956   38.7662    9.7119 C   0  0  0  0  0  0  0  0  0  0  0  0
   22.2003   40.2708    9.9357 C   0  0  0  0  0  0  0  0  0  0  0  0
   23.3000   41.0364    9.2069 C   0  0  0  0  0  0  0  0  0  0  0  0
   24.2813   40.0982    8.5165 C   0  0  0  0  0  0  0  0  0  0  0  0
   24.8023   39.0335    9.4705 C   0  0  0  0  0  0  0  0  0  0  0  0
  2  3  2  0  0  0
  3  1  1  0  0  0
  3  4  1  0  0  0
  1 18  1  0  0  0
  1 29  1  0  0  0
 18 20  1  0  0  0
 20 21  1  0  0  0
 20 28  2  0  0  0
 21 22  1  0  0  0
 22 23  2  0  0  0
 22 27  1  0  0  0
 23 24  1  0  0  0
 24 25  2  0  0  0
 25 26  1  0  0  0
 26 27  2  0  0  0
 27 28  1  0  0  0
 29 30  1  0  0  0
 30 31  1  0  0  0
 30 35  1  0  0  0
 31 32  1  0  0  0
 32 33  1  0  0  0
 33 34  1  0  0  0
 34 35  1  0  0  0
  4  6  1  0  0  0
  6  7  1  0  0  0
  7  8  1  0  0  0
  8 10  1  0  0  0
 10 11  1  0  0  0
 10 13  2  0  0  0
 11 12  2  0  0  0
 12 15  1  0  0  0
 13 14  1  0  0  0
 14 15  2  0  0  0
 15 16  1  0  0  0
 16 17  1  0  0  0
 18 19  1  0  0  0
  4  5  1  0  0  0
  8  9  1  0  0  0
M  END
> <minimizedAffinity>
-7.35588

$$$$
2F1G_GNF_A_1002


 35 38  0  0  0  0  0  0  0  0999 V2000
   21.6672   31.8443   13.7798 C   0  0  0  0  0  0  0  0  0  0  0  0
   19.8620   32.5126   12.4592 O   0  0  0  0  0  0  0  0  0  0  0  0
   20.8742   32.8871   13.0396 C   0  0  0  0  0  0  0  0  0  0  0  0
   21.2887   34.1688   13.1072 N   0  0  0  0  0  0  0  0  0  0  0  0
   22.1096   34.3652   13.6139 H   0  0  0  0  0  0  0  0  0  0  0  0
   20.5884   35.2825   12.4710 C   0  0  0  0  0  0  0  0  0  0  0  0
   21.4961   36.4718   12.0909 C   0  0  0  0  0  0  0  0  0  0  0  0
   22.8124   36.0037   11.6762 N   0  0  0  0  0  0  0  0  0  0  0  0
   22.8964   35.3509   10.9441 H   0  0  0  0  0  0  0  0  0  0  0  0
   23.9214   36.4705   12.3025 C   0  0  0  0  0  0  0  0  0  0  0  0
   24.3135   35.9184   13.5331 C   0  0  0  0  0  0  0  0  0  0  0  0
   25.5108   36.3384   14.1231 C   0  0  0  0  0  0  0  0  0  0  0  0
   24.7522   37.4044   11.6611 C   0  0  0  0  0  0  0  0  0  0  0  0
   25.9442   37.7965   12.2399 C   0  0  0  0  0  0  0  0  0  0  0  0
   26.3121   37.2601   13.4478 C   0  0  0  0  0  0  0  0  0  0  0  0
   27.4597   37.7233   13.9600 O   0  0  0  0  0  0  0  0  0  0  0  0
   27.7203   37.1842   15.2222 C   0  0  0  0  0  0  0  0  0  0  0  0
   23.0293   32.3120   13.6968 N   0  0  0  0  0  0  0  0  0  0  0  0
   23.2656   33.1311   14.1892 H   0  0  0  0  0  0  0  0  0  0  0  0
   23.9971   31.7016   12.9905 C   0  0  0  0  0  0  0  0  0  0  0  0
   24.9857   32.4315   12.4089 O   0  0  0  0  0  0  0  0  0  0  0  0
   25.7521   31.4327   11.7955 C   0  0  0  0  0  0  0  0  0  0  0  0
   26.8992   31.6441   11.0507 C   0  0  0  0  0  0  0  0  0  0  0  0
   27.5378   30.5311   10.5300 C   0  0  0  0  0  0  0  0  0  0  0  0
   27.0161   29.2527   10.7639 C   0  0  0  0  0  0  0  0  0  0  0  0
   25.8457   29.0640   11.4995 C   0  0  0  0  0  0  0  0  0  0  0  0
   25.2090   30.1754   12.0286 C   0  0  0  0  0  0  0  0  0  0  0  0
   24.0885   30.3624   12.7888 N   0  0  0  0  0  0  0  0  0  0  0  0
   21.2106   31.7169   15.2311 C   0  0  0  0  0  0  0  0  0  0  0  0
   21.0475   30.2800   15.7493 C   0  0  0  0  0  0  0  0  0  0  0  0
   20.3811   30.2915   17.1270 C   0  0  0  0  0  0  0  0  0  0  0  0
   20.3099   28.8783   17.6935 C   0  0  0  0  0  0  0  0  0  0  0  0
   21.6812   28.2149   17.7714 C   0  0  0  0  0  0  0  0  0  0  0  0
   22.7705   29.0935   17.1701 C   0  0  0  0  0  0  0  0  0  0  0  0
   22.3970   29.5704   15.7743 C   0  0  0  0  0  0  0  0  0  0  0  0
  2  3  2  0  0  0
  3  1  1  0  0  0
  3  4  1  0  0  0
  1 18  1  0  0  0
  1 29  1  0  0  0
 18 20  1  0  0  0
 20 21  1  0  0  0
 20 28  2  0  0  0
 21 22  1  0  0  0
 22 23  2  0  0  0
 22 27  1  0  0  0
 23 24  1  0  0  0
 24 25  2  0  0  0
 25 26  1  0  0  0
 26 27  2  0  0  0
 27 28  1  0  0  0
 29 30  1  0  0  0
 30 31  1  0  0  0
 30 35  1  0  0  0
 31 32  1  0  0  0
 32 33  1  0  0  0
 33 34  1  0  0  0
 34 35  1  0  0  0
  4  6  1  0  0  0
  6  7  1  0  0  0
  7  8  1  0  0  0
  8 10  1  0  0  0
 10 11  1  0  0  0
 10 13  2  0  0  0
 11 12  2  0  0  0
 12 15  1  0  0  0
 13 14  1  0  0  0
 14 15  2  0  0  0
 15 16  1  0  0  0
 16 17  1  0  0  0
 18 19  1  0  0  0
  4  5  1  0  0  0
  8  9  1  0  0  0
M  END
> <minimizedAffinity>
-7.35454

$$$$
2F1G_GNF_A_1002


 35 38  0  0  0  0  0  0  0  0999 V2000
   22.4155   34.3217   12.2310 C   0  0  0  0  0  0  0  0  0  0  0  0
   20.1143   33.9952   12.0152 O   0  0  0  0  0  0  0  0  0  0  0  0
   21.1684   33.4949   12.3893 C   0  0  0  0  0  0  0  0  0  0  0  0
   21.2923   32.2425   12.8746 N   0  0  0  0  0  0  0  0  0  0  0  0
   22.1899   31.9313   13.1328 H   0  0  0  0  0  0  0  0  0  0  0  0
   20.1699   31.3215   13.0390 C   0  0  0  0  0  0  0  0  0  0  0  0
   20.5462   29.9657   13.6738 C   0  0  0  0  0  0  0  0  0  0  0  0
   21.0188   30.1497   15.0400 N   0  0  0  0  0  0  0  0  0  0  0  0
   20.4513   30.6074   15.7016 H   0  0  0  0  0  0  0  0  0  0  0  0
   22.2434   29.6881   15.3970 C   0  0  0  0  0  0  0  0  0  0  0  0
   22.4504   29.1856   16.6922 C   0  0  0  0  0  0  0  0  0  0  0  0
   23.6889   28.6228   17.0200 C   0  0  0  0  0  0  0  0  0  0  0  0
   23.2642   29.5838   14.4374 C   0  0  0  0  0  0  0  0  0  0  0  0
   24.4764   29.0057   14.7630 C   0  0  0  0  0  0  0  0  0  0  0  0
   24.6725   28.5289   16.0343 C   0  0  0  0  0  0  0  0  0  0  0  0
   25.8877   28.0220   16.2802 O   0  0  0  0  0  0  0  0  0  0  0  0
   25.9156   27.2941   17.4722 C   0  0  0  0  0  0  0  0  0  0  0  0
   21.9849   35.6684   12.5172 N   0  0  0  0  0  0  0  0  0  0  0  0
   21.5148   35.8306   13.3669 H   0  0  0  0  0  0  0  0  0  0  0  0
   22.1839   36.7164   11.6987 C   0  0  0  0  0  0  0  0  0  0  0  0
   23.4463   37.1023   11.3732 O   0  0  0  0  0  0  0  0  0  0  0  0
   23.2007   38.1938   10.5309 C   0  0  0  0  0  0  0  0  0  0  0  0
   24.1693   38.9669    9.9150 C   0  0  0  0  0  0  0  0  0  0  0  0
   23.7396   40.0010    9.1004 C   0  0  0  0  0  0  0  0  0  0  0  0
   22.3692   40.2321    8.9284 C   0  0  0  0  0  0  0  0  0  0  0  0
   21.4095   39.4539    9.5764 C   0  0  0  0  0  0  0  0  0  0  0  0
   21.8366   38.4133   10.3859 C   0  0  0  0  0  0  0  0  0  0  0  0
   21.2006   37.4661   11.1388 N   0  0  0  0  0  0  0  0  0  0  0  0
   23.5129   33.8727   13.1930 C   0  0  0  0  0  0  0  0  0  0  0  0
   24.8760   33.5768   12.5494 C   0  0  0  0  0  0  0  0  0  0  0  0
   24.7379   33.5295   11.0260 C   0  0  0  0  0  0  0  0  0  0  0  0
   26.0631   33.1342   10.3853 C   0  0  0  0  0  0  0  0  0  0  0  0
   26.5883   31.8030   10.9133 C   0  0  0  0  0  0  0  0  0  0  0  0
   25.7069   31.2468   12.0241 C   0  0  0  0  0  0  0  0  0  0  0  0
   25.4558   32.2826   13.1100 C   0  0  0  0  0  0  0  0  0  0  0  0
  2  3  2  0  0  0
  3  1  1  0  0  0
  3  4  1  0  0  0
  1 18  1  0  0  0
  1 29  1  0  0  0
 18 20  1  0  0  0
 20 21  1  0  0  0
 20 28  2  0  0  0
 21 22  1  0  0  0
 22 23  2  0  0  0
 22 27  1  0  0  0
 23 24  1  0  0  0
 24 25  2  0  0  0
 25 26  1  0  0  0
 26 27  2  0  0  0
 27 28  1  0  0  0
 29 30  1  0  0  0
 30 31  1  0  0  0
 30 35  1  0  0  0
 31 32  1  0  0  0
 32 33  1  0  0  0
 33 34  1  0  0  0
 34 35  1  0  0  0
  4  6  1  0  0  0
  6  7  1  0  0  0
  7  8  1  0  0  0
  8 10  1  0  0  0
 10 11  1  0  0  0
 10 13  2  0  0  0
 11 12  2  0  0  0
 12 15  1  0  0  0
 13 14  1  0  0  0
 14 15  2  0  0  0
 15 16  1  0  0  0
 16 17  1  0  0  0
 18 19  1  0  0  0
  4  5  1  0  0  0
  8  9  1  0  0  0
M  END
> <minimizedAffinity>
-7.26895

$$$$
2F1G_GNF_A_1002


 35 38  0  0  0  0  0  0  0  0999 V2000
   22.5547   34.7606   12.1026 C   0  0  0  0  0  0  0  0  0  0  0  0
   20.2458   34.4573   11.9419 O   0  0  0  0  0  0  0  0  0  0  0  0
   21.3177   33.9061   12.1627 C   0  0  0  0  0  0  0  0  0  0  0  0
   21.4666   32.5860   12.3963 N   0  0  0  0  0  0  0  0  0  0  0  0
   22.3763   32.2409   12.5468 H   0  0  0  0  0  0  0  0  0  0  0  0
   20.3545   31.6392   12.4385 C   0  0  0  0  0  0  0  0  0  0  0  0
   20.4879   30.5479   13.5221 C   0  0  0  0  0  0  0  0  0  0  0  0
   21.8147   30.5789   14.1241 N   0  0  0  0  0  0  0  0  0  0  0  0
   22.5926   30.8613   13.5910 H   0  0  0  0  0  0  0  0  0  0  0  0
   21.9741   30.2171   15.4218 C   0  0  0  0  0  0  0  0  0  0  0  0
   21.0711   30.6811   16.3925 C   0  0  0  0  0  0  0  0  0  0  0  0
   21.1861   30.2249   17.7104 C   0  0  0  0  0  0  0  0  0  0  0  0
   22.9530   29.2733   15.7749 C   0  0  0  0  0  0  0  0  0  0  0  0
   23.0449   28.8107   17.0738 C   0  0  0  0  0  0  0  0  0  0  0  0
   22.1657   29.2793   18.0169 C   0  0  0  0  0  0  0  0  0  0  0  0
   22.3484   28.8132   19.2592 O   0  0  0  0  0  0  0  0  0  0  0  0
   23.2586   27.7538   19.2880 C   0  0  0  0  0  0  0  0  0  0  0  0
   22.0647   36.1047   12.2878 N   0  0  0  0  0  0  0  0  0  0  0  0
   21.5951   36.3118   13.1279 H   0  0  0  0  0  0  0  0  0  0  0  0
   22.2076   37.0929   11.3873 C   0  0  0  0  0  0  0  0  0  0  0  0
   21.1322   37.5459   10.6897 O   0  0  0  0  0  0  0  0  0  0  0  0
   21.7107   38.5403    9.8911 C   0  0  0  0  0  0  0  0  0  0  0  0
   21.0365   39.3264    8.9731 C   0  0  0  0  0  0  0  0  0  0  0  0
   21.7714   40.2740    8.2807 C   0  0  0  0  0  0  0  0  0  0  0  0
   23.1448   40.4058    8.5210 C   0  0  0  0  0  0  0  0  0  0  0  0
   23.8088   39.5877    9.4354 C   0  0  0  0  0  0  0  0  0  0  0  0
   23.0743   38.6440   10.1357 C   0  0  0  0  0  0  0  0  0  0  0  0
   23.3778   37.7128   11.0892 N   0  0  0  0  0  0  0  0  0  0  0  0
   23.5547   34.3785   13.1912 C   0  0  0  0  0  0  0  0  0  0  0  0
   24.9008   35.1169   13.1413 C   0  0  0  0  0  0  0  0  0  0  0  0
   26.0365   34.1639   13.5213 C   0  0  0  0  0  0  0  0  0  0  0  0
   27.3623   34.9137   13.5753 C   0  0  0  0  0  0  0  0  0  0  0  0
   27.3195   36.0992   14.5341 C   0  0  0  0  0  0  0  0  0  0  0  0
   25.9302   36.2997   15.1253 C   0  0  0  0  0  0  0  0  0  0  0  0
   24.8630   36.3469   14.0418 C   0  0  0  0  0  0  0  0  0  0  0  0
  2  3  2  0  0  0
  3  1  1  0  0  0
  3  4  1  0  0  0
  1 18  1  0  0  0
  1 29  1  0  0  0
 18 20  1  0  0  0
 20 21  1  0  0  0
 20 28  2  0  0  0
 21 22  1  0  0  0
 22 23  2  0  0  0
 22 27  1  0  0  0
 23 24  1  0  0  0
 24 25  2  0  0  0
 25 26  1  0  0  0
 26 27  2  0  0  0
 27 28  1  0  0  0
 29 30  1  0  0  0
 30 31  1  0  0  0
 30 35  1  0  0  0
 31 32  1  0  0  0
 32 33  1  0  0  0
 33 34  1  0  0  0
 34 35  1  0  0  0
  4  6  1  0  0  0
  6  7  1  0  0  0
  7  8  1  0  0  0
  8 10  1  0  0  0
 10 11  1  0  0  0
 10 13  2  0  0  0
 11 12  2  0  0  0
 12 15  1  0  0  0
 13 14  1  0  0  0
 14 15  2  0  0  0
 15 16  1  0  0  0
 16 17  1  0  0  0
 18 19  1  0  0  0
  4  5  1  0  0  0
  8  9  1  0  0  0
M  END
> <minimizedAffinity>
-7.23946

$$$$
2F1G_GNF_A_1002


 35 38  0  0  0  0  0  0  0  0999 V2000
   21.5873   31.2832   13.1682 C   0  0  0  0  0  0  0  0  0  0  0  0
   19.7828   32.2058   12.0101 O   0  0  0  0  0  0  0  0  0  0  0  0
   20.7887   32.4546   12.6643 C   0  0  0  0  0  0  0  0  0  0  0  0
   21.1913   33.6950   13.0086 N   0  0  0  0  0  0  0  0  0  0  0  0
   22.0079   33.7841   13.5512 H   0  0  0  0  0  0  0  0  0  0  0  0
   20.4842   34.9139   12.6221 C   0  0  0  0  0  0  0  0  0  0  0  0
   21.3144   35.8837   11.7543 C   0  0  0  0  0  0  0  0  0  0  0  0
   22.4747   35.2062   11.1901 N   0  0  0  0  0  0  0  0  0  0  0  0
   22.4100   34.2637   10.9130 H   0  0  0  0  0  0  0  0  0  0  0  0
   23.6442   35.8786   11.0480 C   0  0  0  0  0  0  0  0  0  0  0  0
   23.9726   36.9068   11.9469 C   0  0  0  0  0  0  0  0  0  0  0  0
   25.2229   37.5281   11.8514 C   0  0  0  0  0  0  0  0  0  0  0  0
   24.5861   35.4598   10.0934 C   0  0  0  0  0  0  0  0  0  0  0  0
   25.8272   36.0634   10.0211 C   0  0  0  0  0  0  0  0  0  0  0  0
   26.1335   37.0748   10.8958 C   0  0  0  0  0  0  0  0  0  0  0  0
   27.3394   37.6344   10.7325 O   0  0  0  0  0  0  0  0  0  0  0  0
   28.2447   37.2122   11.7091 C   0  0  0  0  0  0  0  0  0  0  0  0
   22.7788   31.2923   12.3551 N   0  0  0  0  0  0  0  0  0  0  0  0
   22.7167   30.9258   11.4434 H   0  0  0  0  0  0  0  0  0  0  0  0
   23.9686   31.7688   12.7615 C   0  0  0  0  0  0  0  0  0  0  0  0
   24.2077   33.1072   12.7610 O   0  0  0  0  0  0  0  0  0  0  0  0
   25.5223   33.1605   13.2407 C   0  0  0  0  0  0  0  0  0  0  0  0
   26.2612   34.3149   13.4324 C   0  0  0  0  0  0  0  0  0  0  0  0
   27.5456   34.1766   13.9310 C   0  0  0  0  0  0  0  0  0  0  0  0
   28.0505   32.9024   14.2183 C   0  0  0  0  0  0  0  0  0  0  0  0
   27.2960   31.7500   13.9967 C   0  0  0  0  0  0  0  0  0  0  0  0
   26.0073   31.8858   13.5054 C   0  0  0  0  0  0  0  0  0  0  0  0
   25.0073   31.0083   13.1919 N   0  0  0  0  0  0  0  0  0  0  0  0
   21.9245   31.4293   14.6501 C   0  0  0  0  0  0  0  0  0  0  0  0
   21.5283   30.2406   15.5388 C   0  0  0  0  0  0  0  0  0  0  0  0
   20.8560   30.7433   16.8185 C   0  0  0  0  0  0  0  0  0  0  0  0
   20.5536   29.5771   17.7521 C   0  0  0  0  0  0  0  0  0  0  0  0
   21.8005   28.7660   18.0896 C   0  0  0  0  0  0  0  0  0  0  0  0
   23.0230   29.2638   17.3295 C   0  0  0  0  0  0  0  0  0  0  0  0
   22.7469   29.3740   15.8373 C   0  0  0  0  0  0  0  0  0  0  0  0
  2  3  2  0  0  0
  3  1  1  0  0  0
  3  4  1  0  0  0
  1 18  1  0  0  0
  1 29  1  0  0  0
 18 20  1  0  0  0
 20 21  1  0  0  0
 20 28  2  0  0  0
 21 22  1  0  0  0
 22 23  2  0  0  0
 22 27  1  0  0  0
 23 24  1  0  0  0
 24 25  2  0  0  0
 25 26  1  0  0  0
 26 27  2  0  0  0
 27 28  1  0  0  0
 29 30  1  0  0  0
 30 31  1  0  0  0
 30 35  1  0  0  0
 31 32  1  0  0  0
 32 33  1  0  0  0
 33 34  1  0  0  0
 34 35  1  0  0  0
  4  6  1  0  0  0
  6  7  1  0  0  0
  7  8  1  0  0  0
  8 10  1  0  0  0
 10 11  1  0  0  0
 10 13  2  0  0  0
 11 12  2  0  0  0
 12 15  1  0  0  0
 13 14  1  0  0  0
 14 15  2  0  0  0
 15 16  1  0  0  0
 16 17  1  0  0  0
 18 19  1  0  0  0
  4  5  1  0  0  0
  8  9  1  0  0  0
M  END
> <minimizedAffinity>
-7.21276

$$$$
