2BES_RES_A_200


 20 19  0  0  0  0  0  0  0  0999 V2000
   26.9930   -8.7729   14.1454 C   0  0  0  0  0  0  0  0  0  0  0  0
   26.5790   -8.6103   12.7962 O   0  0  0  0  0  0  0  0  0  0  0  0
   25.8875   -9.2585   12.5899 H   0  0  0  0  0  0  0  0  0  0  0  0
   25.7956   -8.5210   15.0570 C   0  0  0  0  0  0  0  0  0  0  0  0
   26.2170   -8.2967   16.3955 O   0  0  0  0  0  0  0  0  0  0  0  0
   26.8021   -7.5236   16.4250 H   0  0  0  0  0  0  0  0  0  0  0  0
   25.0645   -7.3205   14.5342 C   0  0  0  0  0  0  0  0  0  0  0  0
   25.5705   -6.2112   14.6028 O   0  0  0  0  0  0  0  0  0  0  0  0
   23.8749   -7.5299   13.9856 N   0  0  0  0  0  0  0  0  0  0  0  0
   23.1798   -6.4278   13.4803 O   0  0  0  0  0  0  0  0  0  0  0  0
   23.4927   -8.4359   13.9360 H   0  0  0  0  0  0  0  0  0  0  0  0
   23.7058   -5.6241   13.6154 H   0  0  0  0  0  0  0  0  0  0  0  0
   27.5789  -10.1648   14.3271 C   0  0  0  0  0  0  0  0  0  0  0  0
   28.5034  -10.1313   15.4114 O   0  0  0  0  0  0  0  0  0  0  0  0
   30.4324  -11.3298   16.3576 O   0  0  0  0  0  0  0  0  0  0  0  0
   28.9509  -11.4901   16.1429 P   0  0  0  0  0  0  0  0  0  0  0  0
   28.1242  -11.5094   17.4018 O   0  0  0  0  0  0  0  0  0  0  0  0
   28.6071  -12.5873   15.1649 O   0  0  0  0  0  0  0  0  0  0  0  0
   28.3323  -12.3070   17.9131 H   0  0  0  0  0  0  0  0  0  0  0  0
   28.8522  -13.4462   15.5433 H   0  0  0  0  0  0  0  0  0  0  0  0
 15 16  2  0  0  0
 16 17  1  0  0  0
 16 18  1  0  0  0
 16 14  1  0  0  0
 14 13  1  0  0  0
 13  1  1  0  0  0
  1  2  1  0  0  0
  1  4  1  0  0  0
  4  5  1  0  0  0
  4  7  1  0  0  0
  7  8  2  0  0  0
  7  9  1  0  0  0
  9 10  1  0  0  0
 17 19  1  0  0  0
 18 20  1  0  0  0
  2  3  1  0  0  0
  5  6  1  0  0  0
  9 11  1  0  0  0
 10 12  1  0  0  0
M  END
> <minimizedAffinity>
-8.24510

$$$$
2BES_RES_A_200


 20 19  0  0  0  0  0  0  0  0999 V2000
   26.4433   -9.8389   13.7825 C   0  0  0  0  0  0  0  0  0  0  0  0
   26.7309   -8.7030   12.9792 O   0  0  0  0  0  0  0  0  0  0  0  0
   26.8668   -7.9300   13.5491 H   0  0  0  0  0  0  0  0  0  0  0  0
   27.6361  -10.1053   14.6959 C   0  0  0  0  0  0  0  0  0  0  0  0
   28.6789  -10.7617   13.9880 O   0  0  0  0  0  0  0  0  0  0  0  0
   28.9682  -10.2046   13.2485 H   0  0  0  0  0  0  0  0  0  0  0  0
   28.1159   -8.7854   15.2220 C   0  0  0  0  0  0  0  0  0  0  0  0
   29.0169   -8.1859   14.6563 O   0  0  0  0  0  0  0  0  0  0  0  0
   27.5053   -8.3066   16.2981 N   0  0  0  0  0  0  0  0  0  0  0  0
   27.9269   -7.0722   16.7996 O   0  0  0  0  0  0  0  0  0  0  0  0
   26.7761   -8.8067   16.7310 H   0  0  0  0  0  0  0  0  0  0  0  0
   28.6489   -6.7294   16.2499 H   0  0  0  0  0  0  0  0  0  0  0  0
   25.1595   -9.5923   14.5601 C   0  0  0  0  0  0  0  0  0  0  0  0
   24.3894   -8.6128   13.8682 O   0  0  0  0  0  0  0  0  0  0  0  0
   25.5150   -6.5791   14.6744 O   0  0  0  0  0  0  0  0  0  0  0  0
   24.1371   -7.1656   14.5192 P   0  0  0  0  0  0  0  0  0  0  0  0
   23.2584   -6.4679   13.5144 O   0  0  0  0  0  0  0  0  0  0  0  0
   23.4590   -7.4476   15.8379 O   0  0  0  0  0  0  0  0  0  0  0  0
   23.0529   -5.5740   13.8301 H   0  0  0  0  0  0  0  0  0  0  0  0
   23.2741   -6.6105   16.2919 H   0  0  0  0  0  0  0  0  0  0  0  0
 15 16  2  0  0  0
 16 17  1  0  0  0
 16 18  1  0  0  0
 16 14  1  0  0  0
 14 13  1  0  0  0
 13  1  1  0  0  0
  1  2  1  0  0  0
  1  4  1  0  0  0
  4  5  1  0  0  0
  4  7  1  0  0  0
  7  8  2  0  0  0
  7  9  1  0  0  0
  9 10  1  0  0  0
 17 19  1  0  0  0
 18 20  1  0  0  0
  2  3  1  0  0  0
  5  6  1  0  0  0
  9 11  1  0  0  0
 10 12  1  0  0  0
M  END
> <minimizedAffinity>
-8.18107

$$$$
2BES_RES_A_200


 20 19  0  0  0  0  0  0  0  0999 V2000
   27.0055   -8.8236   14.6297 C   0  0  0  0  0  0  0  0  0  0  0  0
   27.1064   -7.9136   13.5435 O   0  0  0  0  0  0  0  0  0  0  0  0
   27.1659   -8.4086   12.7114 H   0  0  0  0  0  0  0  0  0  0  0  0
   25.7344   -9.6500   14.4575 C   0  0  0  0  0  0  0  0  0  0  0  0
   25.6536  -10.6662   15.4476 O   0  0  0  0  0  0  0  0  0  0  0  0
   25.6469  -10.2598   16.3283 H   0  0  0  0  0  0  0  0  0  0  0  0
   24.5631   -8.7203   14.5702 C   0  0  0  0  0  0  0  0  0  0  0  0
   23.9765   -8.3420   13.5682 O   0  0  0  0  0  0  0  0  0  0  0  0
   24.1951   -8.3586   15.7924 N   0  0  0  0  0  0  0  0  0  0  0  0
   23.0983   -7.5023   15.9233 O   0  0  0  0  0  0  0  0  0  0  0  0
   24.6807   -8.6841   16.5846 H   0  0  0  0  0  0  0  0  0  0  0  0
   22.7490   -7.2877   15.0442 H   0  0  0  0  0  0  0  0  0  0  0  0
   28.2571   -9.6865   14.6803 C   0  0  0  0  0  0  0  0  0  0  0  0
   28.4484  -10.1325   16.0204 O   0  0  0  0  0  0  0  0  0  0  0  0
   28.1915  -11.9872   17.6163 O   0  0  0  0  0  0  0  0  0  0  0  0
   28.8796  -11.6511   16.3201 P   0  0  0  0  0  0  0  0  0  0  0  0
   28.3796  -12.4101   15.1191 O   0  0  0  0  0  0  0  0  0  0  0  0
   30.3838  -11.6099   16.4387 O   0  0  0  0  0  0  0  0  0  0  0  0
   28.5996  -13.3499   15.2160 H   0  0  0  0  0  0  0  0  0  0  0  0
   30.7182  -12.5019   16.6215 H   0  0  0  0  0  0  0  0  0  0  0  0
 15 16  2  0  0  0
 16 17  1  0  0  0
 16 18  1  0  0  0
 16 14  1  0  0  0
 14 13  1  0  0  0
 13  1  1  0  0  0
  1  2  1  0  0  0
  1  4  1  0  0  0
  4  5  1  0  0  0
  4  7  1  0  0  0
  7  8  2  0  0  0
  7  9  1  0  0  0
  9 10  1  0  0  0
 17 19  1  0  0  0
 18 20  1  0  0  0
  2  3  1  0  0  0
  5  6  1  0  0  0
  9 11  1  0  0  0
 10 12  1  0  0  0
M  END
> <minimizedAffinity>
-8.16464

$$$$
2BES_RES_A_200


 20 19  0  0  0  0  0  0  0  0999 V2000
   26.9108   -8.0050   14.0784 C   0  0  0  0  0  0  0  0  0  0  0  0
   26.5210   -9.0872   13.2445 O   0  0  0  0  0  0  0  0  0  0  0  0
   26.1482   -9.7975   13.7898 H   0  0  0  0  0  0  0  0  0  0  0  0
   25.6749   -7.4744   14.7988 C   0  0  0  0  0  0  0  0  0  0  0  0
   25.4048   -6.1321   14.4185 O   0  0  0  0  0  0  0  0  0  0  0  0
   25.2517   -6.0917   13.4615 H   0  0  0  0  0  0  0  0  0  0  0  0
   24.5183   -8.3590   14.4398 C   0  0  0  0  0  0  0  0  0  0  0  0
   23.9405   -8.2175   13.3733 O   0  0  0  0  0  0  0  0  0  0  0  0
   24.1809   -9.2965   15.3157 N   0  0  0  0  0  0  0  0  0  0  0  0
   23.1138  -10.1411   14.9976 O   0  0  0  0  0  0  0  0  0  0  0  0
   24.6682   -9.3944   16.1655 H   0  0  0  0  0  0  0  0  0  0  0  0
   22.7579   -9.8991   14.1284 H   0  0  0  0  0  0  0  0  0  0  0  0
   27.9880   -8.4767   15.0431 C   0  0  0  0  0  0  0  0  0  0  0  0
   28.4139   -9.7784   14.6485 O   0  0  0  0  0  0  0  0  0  0  0  0
   29.0330  -10.8781   16.7604 O   0  0  0  0  0  0  0  0  0  0  0  0
   28.1132  -11.0517   15.5812 P   0  0  0  0  0  0  0  0  0  0  0  0
   26.6454  -10.9279   15.8959 O   0  0  0  0  0  0  0  0  0  0  0  0
   28.4602  -12.2472   14.7275 O   0  0  0  0  0  0  0  0  0  0  0  0
   26.3730  -11.6661   16.4631 H   0  0  0  0  0  0  0  0  0  0  0  0
   28.3017  -13.0610   15.2310 H   0  0  0  0  0  0  0  0  0  0  0  0
 15 16  2  0  0  0
 16 17  1  0  0  0
 16 18  1  0  0  0
 16 14  1  0  0  0
 14 13  1  0  0  0
 13  1  1  0  0  0
  1  2  1  0  0  0
  1  4  1  0  0  0
  4  5  1  0  0  0
  4  7  1  0  0  0
  7  8  2  0  0  0
  7  9  1  0  0  0
  9 10  1  0  0  0
 17 19  1  0  0  0
 18 20  1  0  0  0
  2  3  1  0  0  0
  5  6  1  0  0  0
  9 11  1  0  0  0
 10 12  1  0  0  0
M  END
> <minimizedAffinity>
-8.14823

$$$$
2BES_RES_A_200


 20 19  0  0  0  0  0  0  0  0999 V2000
   26.4478   -9.6935   14.7920 C   0  0  0  0  0  0  0  0  0  0  0  0
   26.5000   -9.3499   16.1694 O   0  0  0  0  0  0  0  0  0  0  0  0
   27.2498   -8.7548   16.3261 H   0  0  0  0  0  0  0  0  0  0  0  0
   26.2419   -8.4191   13.9786 C   0  0  0  0  0  0  0  0  0  0  0  0
   26.5659   -8.6333   12.6117 O   0  0  0  0  0  0  0  0  0  0  0  0
   25.9977   -9.3315   12.2503 H   0  0  0  0  0  0  0  0  0  0  0  0
   24.8043   -8.0142   14.1148 C   0  0  0  0  0  0  0  0  0  0  0  0
   23.9370   -8.8595   14.2716 O   0  0  0  0  0  0  0  0  0  0  0  0
   24.5371   -6.7153   14.0786 N   0  0  0  0  0  0  0  0  0  0  0  0
   23.2057   -6.3130   14.2157 O   0  0  0  0  0  0  0  0  0  0  0  0
   25.2562   -6.0536   13.9586 H   0  0  0  0  0  0  0  0  0  0  0  0
   22.6414   -7.0945   14.3236 H   0  0  0  0  0  0  0  0  0  0  0  0
   27.7235  -10.4278   14.4085 C   0  0  0  0  0  0  0  0  0  0  0  0
   28.6137  -10.4050   15.5215 O   0  0  0  0  0  0  0  0  0  0  0  0
   28.2481  -11.7724   17.5337 O   0  0  0  0  0  0  0  0  0  0  0  0
   29.0390  -11.7710   16.2527 P   0  0  0  0  0  0  0  0  0  0  0  0
   28.6535  -12.8418   15.2661 O   0  0  0  0  0  0  0  0  0  0  0  0
   30.5270  -11.6449   16.4728 O   0  0  0  0  0  0  0  0  0  0  0  0
   28.8776  -13.7125   15.6300 H   0  0  0  0  0  0  0  0  0  0  0  0
   30.8572  -12.4425   16.9152 H   0  0  0  0  0  0  0  0  0  0  0  0
 15 16  2  0  0  0
 16 17  1  0  0  0
 16 18  1  0  0  0
 16 14  1  0  0  0
 14 13  1  0  0  0
 13  1  1  0  0  0
  1  2  1  0  0  0
  1  4  1  0  0  0
  4  5  1  0  0  0
  4  7  1  0  0  0
  7  8  2  0  0  0
  7  9  1  0  0  0
  9 10  1  0  0  0
 17 19  1  0  0  0
 18 20  1  0  0  0
  2  3  1  0  0  0
  5  6  1  0  0  0
  9 11  1  0  0  0
 10 12  1  0  0  0
M  END
> <minimizedAffinity>
-8.14592

$$$$
2BES_RES_A_200


 20 19  0  0  0  0  0  0  0  0999 V2000
   27.2465   -8.1784   16.0334 C   0  0  0  0  0  0  0  0  0  0  0  0
   26.6649   -9.3430   16.6024 O   0  0  0  0  0  0  0  0  0  0  0  0
   25.9074   -9.6218   16.0646 H   0  0  0  0  0  0  0  0  0  0  0  0
   27.7384   -8.5149   14.6289 C   0  0  0  0  0  0  0  0  0  0  0  0
   29.1187   -8.2073   14.4888 O   0  0  0  0  0  0  0  0  0  0  0  0
   29.6313   -8.7210   15.1323 H   0  0  0  0  0  0  0  0  0  0  0  0
   27.5062   -9.9786   14.3990 C   0  0  0  0  0  0  0  0  0  0  0  0
   26.4839  -10.3633   13.8530 O   0  0  0  0  0  0  0  0  0  0  0  0
   28.4618  -10.8103   14.7928 N   0  0  0  0  0  0  0  0  0  0  0  0
   28.2733  -12.1784   14.5780 O   0  0  0  0  0  0  0  0  0  0  0  0
   29.2802  -10.4735   15.2240 H   0  0  0  0  0  0  0  0  0  0  0  0
   27.4172  -12.3229   14.1456 H   0  0  0  0  0  0  0  0  0  0  0  0
   26.2234   -7.0528   16.0367 C   0  0  0  0  0  0  0  0  0  0  0  0
   25.7138   -6.8973   14.7148 O   0  0  0  0  0  0  0  0  0  0  0  0
   23.9241   -8.4153   15.4533 O   0  0  0  0  0  0  0  0  0  0  0  0
   24.2677   -7.4793   14.3253 P   0  0  0  0  0  0  0  0  0  0  0  0
   23.4000   -6.2518   14.2307 O   0  0  0  0  0  0  0  0  0  0  0  0
   24.4772   -8.1869   13.0085 O   0  0  0  0  0  0  0  0  0  0  0  0
   22.4956   -6.5124   13.9963 H   0  0  0  0  0  0  0  0  0  0  0  0
   23.6369   -8.5674   12.7086 H   0  0  0  0  0  0  0  0  0  0  0  0
 15 16  2  0  0  0
 16 17  1  0  0  0
 16 18  1  0  0  0
 16 14  1  0  0  0
 14 13  1  0  0  0
 13  1  1  0  0  0
  1  2  1  0  0  0
  1  4  1  0  0  0
  4  5  1  0  0  0
  4  7  1  0  0  0
  7  8  2  0  0  0
  7  9  1  0  0  0
  9 10  1  0  0  0
 17 19  1  0  0  0
 18 20  1  0  0  0
  2  3  1  0  0  0
  5  6  1  0  0  0
  9 11  1  0  0  0
 10 12  1  0  0  0
M  END
> <minimizedAffinity>
-7.83855

$$$$
2BES_RES_A_200


 20 19  0  0  0  0  0  0  0  0999 V2000
   27.4580   -9.1046   15.6830 C   0  0  0  0  0  0  0  0  0  0  0  0
   26.2971   -9.8096   16.0995 O   0  0  0  0  0  0  0  0  0  0  0  0
   25.7488  -10.0151   15.3262 H   0  0  0  0  0  0  0  0  0  0  0  0
   28.2570   -9.9959   14.7369 C   0  0  0  0  0  0  0  0  0  0  0  0
   29.5181   -9.4135   14.4372 O   0  0  0  0  0  0  0  0  0  0  0  0
   30.0224   -9.2946   15.2572 H   0  0  0  0  0  0  0  0  0  0  0  0
   28.4442  -11.3250   15.4059 C   0  0  0  0  0  0  0  0  0  0  0  0
   28.4419  -12.3535   14.7475 O   0  0  0  0  0  0  0  0  0  0  0  0
   28.6306  -11.3185   16.7194 N   0  0  0  0  0  0  0  0  0  0  0  0
   28.8196  -12.5444   17.3634 O   0  0  0  0  0  0  0  0  0  0  0  0
   28.6356  -10.4743   17.2259 H   0  0  0  0  0  0  0  0  0  0  0  0
   28.7837  -13.2613   16.7110 H   0  0  0  0  0  0  0  0  0  0  0  0
   27.0435   -7.7928   15.0342 C   0  0  0  0  0  0  0  0  0  0  0  0
   26.0342   -8.0635   14.0650 O   0  0  0  0  0  0  0  0  0  0  0  0
   24.0669   -8.0351   15.5421 O   0  0  0  0  0  0  0  0  0  0  0  0
   24.5550   -7.4606   14.2389 P   0  0  0  0  0  0  0  0  0  0  0  0
   24.7726   -5.9702   14.2426 O   0  0  0  0  0  0  0  0  0  0  0  0
   23.7877   -7.9668   13.0416 O   0  0  0  0  0  0  0  0  0  0  0  0
   23.9199   -5.5192   14.3447 H   0  0  0  0  0  0  0  0  0  0  0  0
   22.8756   -7.6389   13.0799 H   0  0  0  0  0  0  0  0  0  0  0  0
 15 16  2  0  0  0
 16 17  1  0  0  0
 16 18  1  0  0  0
 16 14  1  0  0  0
 14 13  1  0  0  0
 13  1  1  0  0  0
  1  2  1  0  0  0
  1  4  1  0  0  0
  4  5  1  0  0  0
  4  7  1  0  0  0
  7  8  2  0  0  0
  7  9  1  0  0  0
  9 10  1  0  0  0
 17 19  1  0  0  0
 18 20  1  0  0  0
  2  3  1  0  0  0
  5  6  1  0  0  0
  9 11  1  0  0  0
 10 12  1  0  0  0
M  END
> <minimizedAffinity>
-7.56935

$$$$
2BES_RES_A_200


 20 19  0  0  0  0  0  0  0  0999 V2000
   26.1019   -9.0594   15.3615 C   0  0  0  0  0  0  0  0  0  0  0  0
   26.6163   -8.4996   16.5616 O   0  0  0  0  0  0  0  0  0  0  0  0
   27.3650   -7.9193   16.3528 H   0  0  0  0  0  0  0  0  0  0  0  0
   25.6103   -7.9261   14.4660 C   0  0  0  0  0  0  0  0  0  0  0  0
   25.5126   -8.3550   13.1147 O   0  0  0  0  0  0  0  0  0  0  0  0
   24.8889   -9.0954   13.0548 H   0  0  0  0  0  0  0  0  0  0  0  0
   24.2672   -7.4906   14.9714 C   0  0  0  0  0  0  0  0  0  0  0  0
   23.7138   -6.5136   14.4911 O   0  0  0  0  0  0  0  0  0  0  0  0
   23.7172   -8.2226   15.9314 N   0  0  0  0  0  0  0  0  0  0  0  0
   22.4601   -7.8434   16.4101 O   0  0  0  0  0  0  0  0  0  0  0  0
   24.1814   -9.0104   16.2963 H   0  0  0  0  0  0  0  0  0  0  0  0
   22.1599   -7.0511   15.9378 H   0  0  0  0  0  0  0  0  0  0  0  0
   27.1811   -9.8996   14.6959 C   0  0  0  0  0  0  0  0  0  0  0  0
   28.2740  -10.0360   15.6005 O   0  0  0  0  0  0  0  0  0  0  0  0
   30.1914  -11.3366   16.4281 O   0  0  0  0  0  0  0  0  0  0  0  0
   28.7255  -11.4879   16.1199 P   0  0  0  0  0  0  0  0  0  0  0  0
   27.8455  -11.7306   17.3179 O   0  0  0  0  0  0  0  0  0  0  0  0
   28.4545  -12.4152   14.9601 O   0  0  0  0  0  0  0  0  0  0  0  0
   28.0524  -12.5975   17.7008 H   0  0  0  0  0  0  0  0  0  0  0  0
   28.7058  -13.3198   15.2038 H   0  0  0  0  0  0  0  0  0  0  0  0
 15 16  2  0  0  0
 16 17  1  0  0  0
 16 18  1  0  0  0
 16 14  1  0  0  0
 14 13  1  0  0  0
 13  1  1  0  0  0
  1  2  1  0  0  0
  1  4  1  0  0  0
  4  5  1  0  0  0
  4  7  1  0  0  0
  7  8  2  0  0  0
  7  9  1  0  0  0
  9 10  1  0  0  0
 17 19  1  0  0  0
 18 20  1  0  0  0
  2  3  1  0  0  0
  5  6  1  0  0  0
  9 11  1  0  0  0
 10 12  1  0  0  0
M  END
> <minimizedAffinity>
-7.54312

$$$$
2BES_RES_A_200


 20 19  0  0  0  0  0  0  0  0999 V2000
   26.4786   -9.8322   14.4316 C   0  0  0  0  0  0  0  0  0  0  0  0
   26.0173  -10.0800   15.7522 O   0  0  0  0  0  0  0  0  0  0  0  0
   26.5363   -9.5534   16.3801 H   0  0  0  0  0  0  0  0  0  0  0  0
   26.2796   -8.3530   14.1147 C   0  0  0  0  0  0  0  0  0  0  0  0
   25.1866   -8.1685   13.2254 O   0  0  0  0  0  0  0  0  0  0  0  0
   24.3768   -8.5140   13.6325 H   0  0  0  0  0  0  0  0  0  0  0  0
   26.0246   -7.6363   15.4072 C   0  0  0  0  0  0  0  0  0  0  0  0
   24.8854   -7.3473   15.7387 O   0  0  0  0  0  0  0  0  0  0  0  0
   27.0797   -7.3607   16.1627 N   0  0  0  0  0  0  0  0  0  0  0  0
   26.8658   -6.7040   17.3777 O   0  0  0  0  0  0  0  0  0  0  0  0
   27.9875   -7.6114   15.8757 H   0  0  0  0  0  0  0  0  0  0  0  0
   25.9170   -6.5382   17.4929 H   0  0  0  0  0  0  0  0  0  0  0  0
   27.9339  -10.2599   14.3191 C   0  0  0  0  0  0  0  0  0  0  0  0
   28.4969  -10.3065   15.6277 O   0  0  0  0  0  0  0  0  0  0  0  0
   28.1704  -11.8068   17.5500 O   0  0  0  0  0  0  0  0  0  0  0  0
   28.9542  -11.7072   16.2685 P   0  0  0  0  0  0  0  0  0  0  0  0
   28.5856  -12.7207   15.2171 O   0  0  0  0  0  0  0  0  0  0  0  0
   30.4405  -11.5643   16.4902 O   0  0  0  0  0  0  0  0  0  0  0  0
   28.8295  -13.6081   15.5237 H   0  0  0  0  0  0  0  0  0  0  0  0
   30.7893  -12.3814   16.8794 H   0  0  0  0  0  0  0  0  0  0  0  0
 15 16  2  0  0  0
 16 17  1  0  0  0
 16 18  1  0  0  0
 16 14  1  0  0  0
 14 13  1  0  0  0
 13  1  1  0  0  0
  1  2  1  0  0  0
  1  4  1  0  0  0
  4  5  1  0  0  0
  4  7  1  0  0  0
  7  8  2  0  0  0
  7  9  1  0  0  0
  9 10  1  0  0  0
 17 19  1  0  0  0
 18 20  1  0  0  0
  2  3  1  0  0  0
  5  6  1  0  0  0
  9 11  1  0  0  0
 10 12  1  0  0  0
M  END
> <minimizedAffinity>
-7.43137

$$$$
2BES_RES_A_200


 20 19  0  0  0  0  0  0  0  0999 V2000
   27.4439  -10.2703   14.7032 C   0  0  0  0  0  0  0  0  0  0  0  0
   26.3660  -10.9419   14.0665 O   0  0  0  0  0  0  0  0  0  0  0  0
   25.5615  -10.8389   14.5984 H   0  0  0  0  0  0  0  0  0  0  0  0
   27.1052   -8.7857   14.7996 C   0  0  0  0  0  0  0  0  0  0  0  0
   28.2739   -7.9898   14.6576 O   0  0  0  0  0  0  0  0  0  0  0  0
   28.6805   -8.1635   13.7943 H   0  0  0  0  0  0  0  0  0  0  0  0
   26.1238   -8.4667   13.7114 C   0  0  0  0  0  0  0  0  0  0  0  0
   26.4911   -8.4005   12.5486 O   0  0  0  0  0  0  0  0  0  0  0  0
   24.8599   -8.2868   14.0722 N   0  0  0  0  0  0  0  0  0  0  0  0
   23.9247   -8.0004   13.0739 O   0  0  0  0  0  0  0  0  0  0  0  0
   24.5885   -8.3532   15.0163 H   0  0  0  0  0  0  0  0  0  0  0  0
   24.3693   -7.9747   12.2122 H   0  0  0  0  0  0  0  0  0  0  0  0
   27.6932  -10.8991   16.0656 C   0  0  0  0  0  0  0  0  0  0  0  0
   27.9383  -12.2916   15.8860 O   0  0  0  0  0  0  0  0  0  0  0  0
   28.9680  -13.5070   17.7609 O   0  0  0  0  0  0  0  0  0  0  0  0
   29.3089  -12.9512   16.4039 P   0  0  0  0  0  0  0  0  0  0  0  0
   29.6291  -13.9842   15.3556 O   0  0  0  0  0  0  0  0  0  0  0  0
   30.2919  -11.8071   16.4598 O   0  0  0  0  0  0  0  0  0  0  0  0
   30.4533  -14.4385   15.5904 H   0  0  0  0  0  0  0  0  0  0  0  0
   31.1516  -12.1342   16.7678 H   0  0  0  0  0  0  0  0  0  0  0  0
 15 16  2  0  0  0
 16 17  1  0  0  0
 16 18  1  0  0  0
 16 14  1  0  0  0
 14 13  1  0  0  0
 13  1  1  0  0  0
  1  2  1  0  0  0
  1  4  1  0  0  0
  4  5  1  0  0  0
  4  7  1  0  0  0
  7  8  2  0  0  0
  7  9  1  0  0  0
  9 10  1  0  0  0
 17 19  1  0  0  0
 18 20  1  0  0  0
  2  3  1  0  0  0
  5  6  1  0  0  0
  9 11  1  0  0  0
 10 12  1  0  0  0
M  END
> <minimizedAffinity>
-7.32855

$$$$
