3LPP_KTL_B_5001


 34 34  0  0  0  0  0  0  0  0999 V2000
   40.1877   59.0648   77.2352 C   0  0  0  0  0  0  0  0  0  0  0  0
   38.1924   57.9501   77.9899 O   0  0  0  0  0  0  0  0  0  0  0  0
   39.5732   58.1422   78.3054 C   0  0  0  0  0  0  0  0  0  0  0  0
   37.7866   57.3707   78.6536 H   0  0  0  0  0  0  0  0  0  0  0  0
   39.7151   58.6495   79.7449 C   0  0  0  0  0  0  0  0  0  0  0  0
   36.4919   59.0516   83.3484 O   0  0  0  0  0  0  0  0  0  0  0  0
   39.1181   58.9116   84.4831 O   0  0  0  0  0  0  0  0  0  0  0  0
   37.5177   58.0949   81.2807 C   0  0  0  0  0  0  0  0  0  0  0  0
   37.6863   58.9078   82.5721 C   0  0  0  0  0  0  0  0  0  0  0  0
   38.7434   58.1544   83.3513 C   0  0  0  0  0  0  0  0  0  0  0  0
   39.8814   57.9384   82.3586 C   0  0  0  0  0  0  0  0  0  0  0  0
   39.0839   57.6373   80.9126 S   0  0  0  0  0  0  0  0  0  0  0  0
   35.8278   59.5358   82.8333 H   0  0  0  0  0  0  0  0  0  0  0  0
   38.3540   59.0126   85.0720 H   0  0  0  0  0  0  0  0  0  0  0  0
   40.8152   56.6203   84.1803 O   0  0  0  0  0  0  0  0  0  0  0  0
   40.8534   56.8319   82.7686 C   0  0  0  0  0  0  0  0  0  0  0  0
   41.4379   55.9157   84.4186 H   0  0  0  0  0  0  0  0  0  0  0  0
   39.5433   57.4819   75.4646 O   0  0  0  0  0  0  0  0  0  0  0  0
   39.5514   58.8765   75.8474 C   0  0  0  0  0  0  0  0  0  0  0  0
   39.1382   57.3896   74.5881 H   0  0  0  0  0  0  0  0  0  0  0  0
   40.3562   61.0927   75.2048 O   0  0  0  0  0  0  0  0  0  0  0  0
   40.2143   59.7258   74.7525 C   0  0  0  0  0  0  0  0  0  0  0  0
   40.7752   61.6219   74.5082 H   0  0  0  0  0  0  0  0  0  0  0  0
   38.0812   59.3603   73.5882 O   0  0  0  0  0  0  0  0  0  0  0  0
   39.4785   59.6715   73.4070 C   0  0  0  0  0  0  0  0  0  0  0  0
   37.6415   59.3324   72.7240 H   0  0  0  0  0  0  0  0  0  0  0  0
   38.4680   61.7668   72.7216 O   0  0  0  0  0  0  0  0  0  0  0  0
   39.6559   60.9700   72.6126 C   0  0  0  0  0  0  0  0  0  0  0  0
   38.5823   62.5881   72.2182 H   0  0  0  0  0  0  0  0  0  0  0  0
   41.5792   58.8164   77.1301 O   0  0  0  0  0  0  0  0  0  0  0  0
   43.8778   59.3706   78.0818 O   0  0  0  0  0  0  0  0  0  0  0  0
   43.0521   60.7064   76.2738 O   0  0  0  0  0  0  0  0  0  0  0  0
   42.0228   60.8781   78.4791 O   0  0  0  0  0  0  0  0  0  0  0  0
   42.6666   59.9700   77.5011 S   0  0  0  0  0  0  0  0  0  0  0  0
 27 28  1  0  0  0
 15 16  1  0  0  0
 24 25  1  0  0  0
  6  9  1  0  0  0
  2  3  1  0  0  0
 21 22  1  0  0  0
  7 10  1  0  0  0
 18 19  1  0  0  0
 31 34  2  0  0  0
 32 34  1  0  0  0
 33 34  2  0  0  0
 28 25  1  0  0  0
 16 11  1  0  0  0
  8  9  1  0  0  0
  8 12  1  0  0  0
  5  3  1  0  0  0
  5 12  1  0  0  0
 30  1  1  0  0  0
 30 34  1  0  0  0
 25 22  1  0  0  0
  9 10  1  0  0  0
  3  1  1  0  0  0
 22 19  1  0  0  0
 10 11  1  0  0  0
 19  1  1  0  0  0
 11 12  1  0  0  0
 27 29  1  0  0  0
 15 17  1  0  0  0
 24 26  1  0  0  0
  6 13  1  0  0  0
  2  4  1  0  0  0
 21 23  1  0  0  0
  7 14  1  0  0  0
 18 20  1  0  0  0
M  CHG 1  12   1
M  CHG 1  32  -1
M  END
> <minimizedAffinity>
-7.40234

$$$$
3LPP_KTL_B_5001


 34 34  0  0  0  0  0  0  0  0999 V2000
   40.8561   59.1309   77.8632 C   0  0  0  0  0  0  0  0  0  0  0  0
   38.6027   58.3503   78.1887 O   0  0  0  0  0  0  0  0  0  0  0  0
   39.9165   58.2896   78.7484 C   0  0  0  0  0  0  0  0  0  0  0  0
   37.9949   57.8256   78.7329 H   0  0  0  0  0  0  0  0  0  0  0  0
   39.8775   58.7118   80.2215 C   0  0  0  0  0  0  0  0  0  0  0  0
   36.1048   58.9364   83.2632 O   0  0  0  0  0  0  0  0  0  0  0  0
   38.5144   58.7950   84.8051 O   0  0  0  0  0  0  0  0  0  0  0  0
   37.4719   58.0698   81.3598 C   0  0  0  0  0  0  0  0  0  0  0  0
   37.4120   58.8383   82.6874 C   0  0  0  0  0  0  0  0  0  0  0  0
   38.3439   58.0734   83.6031 C   0  0  0  0  0  0  0  0  0  0  0  0
   39.6321   57.9100   82.8025 C   0  0  0  0  0  0  0  0  0  0  0  0
   39.0861   57.6491   81.2368 S   0  0  0  0  0  0  0  0  0  0  0  0
   35.5233   59.4288   82.6629 H   0  0  0  0  0  0  0  0  0  0  0  0
   37.6629   58.8634   85.2647 H   0  0  0  0  0  0  0  0  0  0  0  0
   40.0506   55.5168   82.9613 O   0  0  0  0  0  0  0  0  0  0  0  0
   40.5472   56.8042   83.3287 C   0  0  0  0  0  0  0  0  0  0  0  0
   40.6448   54.8311   83.3044 H   0  0  0  0  0  0  0  0  0  0  0  0
   39.7952   61.2672   78.4684 O   0  0  0  0  0  0  0  0  0  0  0  0
   41.0550   60.5611   78.3937 C   0  0  0  0  0  0  0  0  0  0  0  0
   39.9468   62.1643   78.8048 H   0  0  0  0  0  0  0  0  0  0  0  0
   42.9900   60.4850   76.9029 O   0  0  0  0  0  0  0  0  0  0  0  0
   42.0751   61.3753   77.5838 C   0  0  0  0  0  0  0  0  0  0  0  0
   43.6303   61.0067   76.3943 H   0  0  0  0  0  0  0  0  0  0  0  0
   42.1093   62.7545   79.6175 O   0  0  0  0  0  0  0  0  0  0  0  0
   42.8421   62.4045   78.4248 C   0  0  0  0  0  0  0  0  0  0  0  0
   42.6157   63.4048   80.1290 H   0  0  0  0  0  0  0  0  0  0  0  0
   45.1626   62.3013   77.7277 O   0  0  0  0  0  0  0  0  0  0  0  0
   44.2533   61.9155   78.7680 C   0  0  0  0  0  0  0  0  0  0  0  0
   46.0551   61.9909   77.9468 H   0  0  0  0  0  0  0  0  0  0  0  0
   40.3343   59.2071   76.5475 O   0  0  0  0  0  0  0  0  0  0  0  0
   42.1534   57.6860   75.6130 O   0  0  0  0  0  0  0  0  0  0  0  0
   39.8831   56.9323   75.5006 O   0  0  0  0  0  0  0  0  0  0  0  0
   40.6178   58.7869   74.0959 O   0  0  0  0  0  0  0  0  0  0  0  0
   40.7630   58.1219   75.4120 S   0  0  0  0  0  0  0  0  0  0  0  0
 27 28  1  0  0  0
 15 16  1  0  0  0
 24 25  1  0  0  0
  6  9  1  0  0  0
  2  3  1  0  0  0
 21 22  1  0  0  0
  7 10  1  0  0  0
 18 19  1  0  0  0
 31 34  2  0  0  0
 32 34  1  0  0  0
 33 34  2  0  0  0
 28 25  1  0  0  0
 16 11  1  0  0  0
  8  9  1  0  0  0
  8 12  1  0  0  0
  5  3  1  0  0  0
  5 12  1  0  0  0
 30  1  1  0  0  0
 30 34  1  0  0  0
 25 22  1  0  0  0
  9 10  1  0  0  0
  3  1  1  0  0  0
 22 19  1  0  0  0
 10 11  1  0  0  0
 19  1  1  0  0  0
 11 12  1  0  0  0
 27 29  1  0  0  0
 15 17  1  0  0  0
 24 26  1  0  0  0
  6 13  1  0  0  0
  2  4  1  0  0  0
 21 23  1  0  0  0
  7 14  1  0  0  0
 18 20  1  0  0  0
M  CHG 1  12   1
M  CHG 1  32  -1
M  END
> <minimizedAffinity>
-6.94538

$$$$
3LPP_KTL_B_5001


 34 34  0  0  0  0  0  0  0  0999 V2000
   39.9589   58.6234   78.7818 C   0  0  0  0  0  0  0  0  0  0  0  0
   38.0291   57.9077   77.5342 O   0  0  0  0  0  0  0  0  0  0  0  0
   39.3987   58.2887   77.3860 C   0  0  0  0  0  0  0  0  0  0  0  0
   37.6574   57.6925   76.6645 H   0  0  0  0  0  0  0  0  0  0  0  0
   40.1671   57.1963   76.6336 C   0  0  0  0  0  0  0  0  0  0  0  0
   43.7959   59.5454   74.4317 O   0  0  0  0  0  0  0  0  0  0  0  0
   41.4569   61.1966   74.3513 O   0  0  0  0  0  0  0  0  0  0  0  0
   42.2361   57.6504   74.8994 C   0  0  0  0  0  0  0  0  0  0  0  0
   42.5291   59.1556   74.9730 C   0  0  0  0  0  0  0  0  0  0  0  0
   41.3965   59.7940   74.1973 C   0  0  0  0  0  0  0  0  0  0  0  0
   40.1283   59.1717   74.7733 C   0  0  0  0  0  0  0  0  0  0  0  0
   40.5728   57.5787   75.0602 S   0  0  0  0  0  0  0  0  0  0  0  0
   44.5077   59.1272   74.9409 H   0  0  0  0  0  0  0  0  0  0  0  0
   42.2830   61.5288   73.9664 H   0  0  0  0  0  0  0  0  0  0  0  0
   37.9419   60.1936   74.4520 O   0  0  0  0  0  0  0  0  0  0  0  0
   38.9057   59.3171   73.8672 C   0  0  0  0  0  0  0  0  0  0  0  0
   37.1759   60.2716   73.8620 H   0  0  0  0  0  0  0  0  0  0  0  0
   37.7362   58.2654   79.7751 O   0  0  0  0  0  0  0  0  0  0  0  0
   39.1470   57.9832   79.9207 C   0  0  0  0  0  0  0  0  0  0  0  0
   37.2469   57.8520   80.5035 H   0  0  0  0  0  0  0  0  0  0  0  0
   40.6069   57.4418   81.8044 O   0  0  0  0  0  0  0  0  0  0  0  0
   39.6309   58.3935   81.3197 C   0  0  0  0  0  0  0  0  0  0  0  0
   40.9071   57.7079   82.6875 H   0  0  0  0  0  0  0  0  0  0  0  0
   37.5266   57.5027   82.2240 O   0  0  0  0  0  0  0  0  0  0  0  0
   38.4923   58.5693   82.3334 C   0  0  0  0  0  0  0  0  0  0  0  0
   36.8199   57.6385   82.8745 H   0  0  0  0  0  0  0  0  0  0  0  0
   39.4257   57.3939   84.2383 O   0  0  0  0  0  0  0  0  0  0  0  0
   39.0238   58.6874   83.7659 C   0  0  0  0  0  0  0  0  0  0  0  0
   39.7617   57.4708   85.1450 H   0  0  0  0  0  0  0  0  0  0  0  0
   39.9686   60.0283   78.9701 O   0  0  0  0  0  0  0  0  0  0  0  0
   40.8657   61.5687   77.1484 O   0  0  0  0  0  0  0  0  0  0  0  0
   41.5056   62.0069   79.4141 O   0  0  0  0  0  0  0  0  0  0  0  0
   42.3714   60.0351   78.2676 O   0  0  0  0  0  0  0  0  0  0  0  0
   41.2076   60.9373   78.4322 S   0  0  0  0  0  0  0  0  0  0  0  0
 27 28  1  0  0  0
 15 16  1  0  0  0
 24 25  1  0  0  0
  6  9  1  0  0  0
  2  3  1  0  0  0
 21 22  1  0  0  0
  7 10  1  0  0  0
 18 19  1  0  0  0
 31 34  2  0  0  0
 32 34  1  0  0  0
 33 34  2  0  0  0
 28 25  1  0  0  0
 16 11  1  0  0  0
  8  9  1  0  0  0
  8 12  1  0  0  0
  5  3  1  0  0  0
  5 12  1  0  0  0
 30  1  1  0  0  0
 30 34  1  0  0  0
 25 22  1  0  0  0
  9 10  1  0  0  0
  3  1  1  0  0  0
 22 19  1  0  0  0
 10 11  1  0  0  0
 19  1  1  0  0  0
 11 12  1  0  0  0
 27 29  1  0  0  0
 15 17  1  0  0  0
 24 26  1  0  0  0
  6 13  1  0  0  0
  2  4  1  0  0  0
 21 23  1  0  0  0
  7 14  1  0  0  0
 18 20  1  0  0  0
M  CHG 1  12   1
M  CHG 1  32  -1
M  END
> <minimizedAffinity>
-6.36947

$$$$
3LPP_KTL_B_5001


 34 34  0  0  0  0  0  0  0  0999 V2000
   40.8839   60.6028   78.1028 C   0  0  0  0  0  0  0  0  0  0  0  0
   39.1233   58.9685   77.9527 O   0  0  0  0  0  0  0  0  0  0  0  0
   40.3021   59.3020   78.6890 C   0  0  0  0  0  0  0  0  0  0  0  0
   38.7412   58.1505   78.3073 H   0  0  0  0  0  0  0  0  0  0  0  0
   39.9835   59.3621   80.1872 C   0  0  0  0  0  0  0  0  0  0  0  0
   36.1326   58.0588   82.8344 O   0  0  0  0  0  0  0  0  0  0  0  0
   38.4545   58.0036   84.5106 O   0  0  0  0  0  0  0  0  0  0  0  0
   37.7267   57.9922   80.9115 C   0  0  0  0  0  0  0  0  0  0  0  0
   37.4524   58.3691   82.3742 C   0  0  0  0  0  0  0  0  0  0  0  0
   38.4889   57.5938   83.1595 C   0  0  0  0  0  0  0  0  0  0  0  0
   39.8129   57.8960   82.4645 C   0  0  0  0  0  0  0  0  0  0  0  0
   39.3970   57.9416   80.8389 S   0  0  0  0  0  0  0  0  0  0  0  0
   35.4838   58.5642   82.3202 H   0  0  0  0  0  0  0  0  0  0  0  0
   37.5906   57.7841   84.8931 H   0  0  0  0  0  0  0  0  0  0  0  0
   40.9379   56.5913   84.1849 O   0  0  0  0  0  0  0  0  0  0  0  0
   40.9208   56.8941   82.7895 C   0  0  0  0  0  0  0  0  0  0  0  0
   41.6467   55.9552   84.3691 H   0  0  0  0  0  0  0  0  0  0  0  0
   40.1653   60.5454   75.7500 O   0  0  0  0  0  0  0  0  0  0  0  0
   41.3084   60.4576   76.6314 C   0  0  0  0  0  0  0  0  0  0  0  0
   40.4583   60.4512   74.8301 H   0  0  0  0  0  0  0  0  0  0  0  0
   43.5203   59.4344   76.4507 O   0  0  0  0  0  0  0  0  0  0  0  0
   42.1010   59.1724   76.3495 C   0  0  0  0  0  0  0  0  0  0  0  0
   44.0133   58.6185   76.2715 H   0  0  0  0  0  0  0  0  0  0  0  0
   42.9552   58.1039   74.3080 O   0  0  0  0  0  0  0  0  0  0  0  0
   41.7616   58.5283   74.9987 C   0  0  0  0  0  0  0  0  0  0  0  0
   42.7121   57.7015   73.4596 H   0  0  0  0  0  0  0  0  0  0  0  0
   39.4361   57.8797   75.2277 O   0  0  0  0  0  0  0  0  0  0  0  0
   40.7741   57.3673   75.1580 C   0  0  0  0  0  0  0  0  0  0  0  0
   38.8127   57.1434   75.3285 H   0  0  0  0  0  0  0  0  0  0  0  0
   42.0125   61.0066   78.8593 O   0  0  0  0  0  0  0  0  0  0  0  0
   41.3531   63.3697   79.5503 O   0  0  0  0  0  0  0  0  0  0  0  0
   43.6416   62.7140   79.8109 O   0  0  0  0  0  0  0  0  0  0  0  0
   42.7180   63.0371   77.5760 O   0  0  0  0  0  0  0  0  0  0  0  0
   42.4388   62.5750   78.9558 S   0  0  0  0  0  0  0  0  0  0  0  0
 27 28  1  0  0  0
 15 16  1  0  0  0
 24 25  1  0  0  0
  6  9  1  0  0  0
  2  3  1  0  0  0
 21 22  1  0  0  0
  7 10  1  0  0  0
 18 19  1  0  0  0
 31 34  2  0  0  0
 32 34  1  0  0  0
 33 34  2  0  0  0
 28 25  1  0  0  0
 16 11  1  0  0  0
  8  9  1  0  0  0
  8 12  1  0  0  0
  5  3  1  0  0  0
  5 12  1  0  0  0
 30  1  1  0  0  0
 30 34  1  0  0  0
 25 22  1  0  0  0
  9 10  1  0  0  0
  3  1  1  0  0  0
 22 19  1  0  0  0
 10 11  1  0  0  0
 19  1  1  0  0  0
 11 12  1  0  0  0
 27 29  1  0  0  0
 15 17  1  0  0  0
 24 26  1  0  0  0
  6 13  1  0  0  0
  2  4  1  0  0  0
 21 23  1  0  0  0
  7 14  1  0  0  0
 18 20  1  0  0  0
M  CHG 1  12   1
M  CHG 1  32  -1
M  END
> <minimizedAffinity>
-6.36829

$$$$
3LPP_KTL_B_5001


 34 34  0  0  0  0  0  0  0  0999 V2000
   40.2215   58.6383   77.5399 C   0  0  0  0  0  0  0  0  0  0  0  0
   39.7020   56.9672   75.8874 O   0  0  0  0  0  0  0  0  0  0  0  0
   40.1206   58.3260   76.0345 C   0  0  0  0  0  0  0  0  0  0  0  0
   39.6323   56.7506   74.9445 H   0  0  0  0  0  0  0  0  0  0  0  0
   41.4123   58.5638   75.2441 C   0  0  0  0  0  0  0  0  0  0  0  0
   38.2180   61.1124   72.6295 O   0  0  0  0  0  0  0  0  0  0  0  0
   40.0306   59.8065   70.8371 O   0  0  0  0  0  0  0  0  0  0  0  0
   39.9394   60.7096   74.3951 C   0  0  0  0  0  0  0  0  0  0  0  0
   39.3069   60.2891   73.0609 C   0  0  0  0  0  0  0  0  0  0  0  0
   40.4502   60.3519   72.0704 C   0  0  0  0  0  0  0  0  0  0  0  0
   41.5820   59.5695   72.7293 C   0  0  0  0  0  0  0  0  0  0  0  0
   41.4412   59.9745   74.3521 S   0  0  0  0  0  0  0  0  0  0  0  0
   37.4966   61.0591   73.2758 H   0  0  0  0  0  0  0  0  0  0  0  0
   39.3128   60.3473   70.4720 H   0  0  0  0  0  0  0  0  0  0  0  0
   43.5504   58.6780   71.6074 O   0  0  0  0  0  0  0  0  0  0  0  0
   42.9600   59.8653   72.1372 C   0  0  0  0  0  0  0  0  0  0  0  0
   44.4223   58.8877   71.2375 H   0  0  0  0  0  0  0  0  0  0  0  0
   37.8950   57.8603   77.7347 O   0  0  0  0  0  0  0  0  0  0  0  0
   39.1890   57.8678   78.3805 C   0  0  0  0  0  0  0  0  0  0  0  0
   37.2629   57.3697   78.2829 H   0  0  0  0  0  0  0  0  0  0  0  0
   40.3775   58.6204   80.3788 O   0  0  0  0  0  0  0  0  0  0  0  0
   39.0632   58.3893   79.8198 C   0  0  0  0  0  0  0  0  0  0  0  0
   40.2892   58.9493   81.2871 H   0  0  0  0  0  0  0  0  0  0  0  0
   39.0631   56.4551   81.3357 O   0  0  0  0  0  0  0  0  0  0  0  0
   38.2372   57.4729   80.7323 C   0  0  0  0  0  0  0  0  0  0  0  0
   38.5169   55.8915   81.9058 H   0  0  0  0  0  0  0  0  0  0  0  0
   36.0765   57.9802   81.7096 O   0  0  0  0  0  0  0  0  0  0  0  0
   37.4784   58.2710   81.7980 C   0  0  0  0  0  0  0  0  0  0  0  0
   35.5981   58.4862   82.3849 H   0  0  0  0  0  0  0  0  0  0  0  0
   40.0318   60.0264   77.7552 O   0  0  0  0  0  0  0  0  0  0  0  0
   42.5541   60.2577   78.0397 O   0  0  0  0  0  0  0  0  0  0  0  0
   41.3353   62.1393   77.1976 O   0  0  0  0  0  0  0  0  0  0  0  0
   41.0667   61.4620   79.5259 O   0  0  0  0  0  0  0  0  0  0  0  0
   41.2844   60.9939   78.1370 S   0  0  0  0  0  0  0  0  0  0  0  0
 27 28  1  0  0  0
 15 16  1  0  0  0
 24 25  1  0  0  0
  6  9  1  0  0  0
  2  3  1  0  0  0
 21 22  1  0  0  0
  7 10  1  0  0  0
 18 19  1  0  0  0
 31 34  2  0  0  0
 32 34  1  0  0  0
 33 34  2  0  0  0
 28 25  1  0  0  0
 16 11  1  0  0  0
  8  9  1  0  0  0
  8 12  1  0  0  0
  5  3  1  0  0  0
  5 12  1  0  0  0
 30  1  1  0  0  0
 30 34  1  0  0  0
 25 22  1  0  0  0
  9 10  1  0  0  0
  3  1  1  0  0  0
 22 19  1  0  0  0
 10 11  1  0  0  0
 19  1  1  0  0  0
 11 12  1  0  0  0
 27 29  1  0  0  0
 15 17  1  0  0  0
 24 26  1  0  0  0
  6 13  1  0  0  0
  2  4  1  0  0  0
 21 23  1  0  0  0
  7 14  1  0  0  0
 18 20  1  0  0  0
M  CHG 1  12   1
M  CHG 1  32  -1
M  END
> <minimizedAffinity>
-6.25284

$$$$
3LPP_KTL_B_5001


 34 34  0  0  0  0  0  0  0  0999 V2000
   40.9440   60.0529   76.6513 C   0  0  0  0  0  0  0  0  0  0  0  0
   41.9503   62.2207   76.3667 O   0  0  0  0  0  0  0  0  0  0  0  0
   41.6794   61.2151   77.3458 C   0  0  0  0  0  0  0  0  0  0  0  0
   42.4141   62.9628   76.7852 H   0  0  0  0  0  0  0  0  0  0  0  0
   42.9766   60.8163   78.0585 C   0  0  0  0  0  0  0  0  0  0  0  0
   46.9395   61.7383   80.7006 O   0  0  0  0  0  0  0  0  0  0  0  0
   44.8934   63.6003   81.4423 O   0  0  0  0  0  0  0  0  0  0  0  0
   45.6006   61.3517   78.6268 C   0  0  0  0  0  0  0  0  0  0  0  0
   45.6385   61.7685   80.1039 C   0  0  0  0  0  0  0  0  0  0  0  0
   45.0804   63.1759   80.1083 C   0  0  0  0  0  0  0  0  0  0  0  0
   43.7834   63.0849   79.3103 C   0  0  0  0  0  0  0  0  0  0  0  0
   44.1554   61.9978   78.0866 S   0  0  0  0  0  0  0  0  0  0  0  0
   47.2798   60.8300   80.6885 H   0  0  0  0  0  0  0  0  0  0  0  0
   45.7515   63.6372   81.8931 H   0  0  0  0  0  0  0  0  0  0  0  0
   43.0872   65.3458   79.8861 O   0  0  0  0  0  0  0  0  0  0  0  0
   43.2777   64.4353   78.8027 C   0  0  0  0  0  0  0  0  0  0  0  0
   42.7668   66.1945   79.5427 H   0  0  0  0  0  0  0  0  0  0  0  0
   41.6357   57.6984   76.4683 O   0  0  0  0  0  0  0  0  0  0  0  0
   41.1347   58.7084   77.3740 C   0  0  0  0  0  0  0  0  0  0  0  0
   41.7472   56.8619   76.9466 H   0  0  0  0  0  0  0  0  0  0  0  0
   38.6913   58.7360   77.4151 O   0  0  0  0  0  0  0  0  0  0  0  0
   39.8643   58.2094   78.0786 C   0  0  0  0  0  0  0  0  0  0  0  0
   37.8941   58.4165   77.8658 H   0  0  0  0  0  0  0  0  0  0  0  0
   39.5168   59.9198   79.8086 O   0  0  0  0  0  0  0  0  0  0  0  0
   39.8308   58.5303   79.5788 C   0  0  0  0  0  0  0  0  0  0  0  0
   39.5023   60.0944   80.7627 H   0  0  0  0  0  0  0  0  0  0  0  0
   37.5445   58.1837   80.3092 O   0  0  0  0  0  0  0  0  0  0  0  0
   38.8607   57.6136   80.3317 C   0  0  0  0  0  0  0  0  0  0  0  0
   36.9320   57.6021   80.7862 H   0  0  0  0  0  0  0  0  0  0  0  0
   41.4102   59.9183   75.3195 O   0  0  0  0  0  0  0  0  0  0  0  0
   41.1010   59.5271   72.8199 O   0  0  0  0  0  0  0  0  0  0  0  0
   39.5964   58.4340   74.3287 O   0  0  0  0  0  0  0  0  0  0  0  0
   39.4761   60.8529   74.0337 O   0  0  0  0  0  0  0  0  0  0  0  0
   40.3722   59.6741   74.0891 S   0  0  0  0  0  0  0  0  0  0  0  0
 27 28  1  0  0  0
 15 16  1  0  0  0
 24 25  1  0  0  0
  6  9  1  0  0  0
  2  3  1  0  0  0
 21 22  1  0  0  0
  7 10  1  0  0  0
 18 19  1  0  0  0
 31 34  2  0  0  0
 32 34  1  0  0  0
 33 34  2  0  0  0
 28 25  1  0  0  0
 16 11  1  0  0  0
  8  9  1  0  0  0
  8 12  1  0  0  0
  5  3  1  0  0  0
  5 12  1  0  0  0
 30  1  1  0  0  0
 30 34  1  0  0  0
 25 22  1  0  0  0
  9 10  1  0  0  0
  3  1  1  0  0  0
 22 19  1  0  0  0
 10 11  1  0  0  0
 19  1  1  0  0  0
 11 12  1  0  0  0
 27 29  1  0  0  0
 15 17  1  0  0  0
 24 26  1  0  0  0
  6 13  1  0  0  0
  2  4  1  0  0  0
 21 23  1  0  0  0
  7 14  1  0  0  0
 18 20  1  0  0  0
M  CHG 1  12   1
M  CHG 1  32  -1
M  END
> <minimizedAffinity>
-6.16761

$$$$
3LPP_KTL_B_5001


 34 34  0  0  0  0  0  0  0  0999 V2000
   40.8904   59.3193   76.6432 C   0  0  0  0  0  0  0  0  0  0  0  0
   42.9844   58.5410   75.7471 O   0  0  0  0  0  0  0  0  0  0  0  0
   41.7125   59.0690   75.3643 C   0  0  0  0  0  0  0  0  0  0  0  0
   43.5181   58.3763   74.9541 H   0  0  0  0  0  0  0  0  0  0  0  0
   41.9045   60.3033   74.4757 C   0  0  0  0  0  0  0  0  0  0  0  0
   41.3775   63.2431   70.6528 O   0  0  0  0  0  0  0  0  0  0  0  0
   38.8437   62.9853   71.9631 O   0  0  0  0  0  0  0  0  0  0  0  0
   42.0340   61.1692   71.8819 C   0  0  0  0  0  0  0  0  0  0  0  0
   41.1611   62.4301   71.8112 C   0  0  0  0  0  0  0  0  0  0  0  0
   39.7422   61.9029   71.8374 C   0  0  0  0  0  0  0  0  0  0  0  0
   39.7046   60.9393   73.0195 C   0  0  0  0  0  0  0  0  0  0  0  0
   41.2082   60.1954   72.9624 S   0  0  0  0  0  0  0  0  0  0  0  0
   42.2904   63.5709   70.6537 H   0  0  0  0  0  0  0  0  0  0  0  0
   38.9161   63.5578   71.1835 H   0  0  0  0  0  0  0  0  0  0  0  0
   38.1650   59.6634   71.6304 O   0  0  0  0  0  0  0  0  0  0  0  0
   38.5307   59.9609   72.9783 C   0  0  0  0  0  0  0  0  0  0  0  0
   37.4199   59.0423   71.6271 H   0  0  0  0  0  0  0  0  0  0  0  0
   38.4967   59.8557   76.4494 O   0  0  0  0  0  0  0  0  0  0  0  0
   39.4544   58.7765   76.5462 C   0  0  0  0  0  0  0  0  0  0  0  0
   37.6008   59.4887   76.3895 H   0  0  0  0  0  0  0  0  0  0  0  0
   37.6470   57.6352   77.7307 O   0  0  0  0  0  0  0  0  0  0  0  0
   39.0798   57.8335   77.6994 C   0  0  0  0  0  0  0  0  0  0  0  0
   37.4190   57.0390   78.4612 H   0  0  0  0  0  0  0  0  0  0  0  0
   39.4475   59.7326   79.2152 O   0  0  0  0  0  0  0  0  0  0  0  0
   39.5938   58.3048   79.0663 C   0  0  0  0  0  0  0  0  0  0  0  0
   39.7793   60.0026   80.0858 H   0  0  0  0  0  0  0  0  0  0  0  0
   37.6662   58.1976   80.5339 O   0  0  0  0  0  0  0  0  0  0  0  0
   38.9099   57.5573   80.2161 C   0  0  0  0  0  0  0  0  0  0  0  0
   37.2349   57.7231   81.2618 H   0  0  0  0  0  0  0  0  0  0  0  0
   40.8291   60.7102   76.9091 O   0  0  0  0  0  0  0  0  0  0  0  0
   41.3346   61.8447   79.1348 O   0  0  0  0  0  0  0  0  0  0  0  0
   43.0401   60.4835   78.1480 O   0  0  0  0  0  0  0  0  0  0  0  0
   42.4411   62.6139   77.1209 O   0  0  0  0  0  0  0  0  0  0  0  0
   41.9379   61.4314   77.8585 S   0  0  0  0  0  0  0  0  0  0  0  0
 27 28  1  0  0  0
 15 16  1  0  0  0
 24 25  1  0  0  0
  6  9  1  0  0  0
  2  3  1  0  0  0
 21 22  1  0  0  0
  7 10  1  0  0  0
 18 19  1  0  0  0
 31 34  2  0  0  0
 32 34  1  0  0  0
 33 34  2  0  0  0
 28 25  1  0  0  0
 16 11  1  0  0  0
  8  9  1  0  0  0
  8 12  1  0  0  0
  5  3  1  0  0  0
  5 12  1  0  0  0
 30  1  1  0  0  0
 30 34  1  0  0  0
 25 22  1  0  0  0
  9 10  1  0  0  0
  3  1  1  0  0  0
 22 19  1  0  0  0
 10 11  1  0  0  0
 19  1  1  0  0  0
 11 12  1  0  0  0
 27 29  1  0  0  0
 15 17  1  0  0  0
 24 26  1  0  0  0
  6 13  1  0  0  0
  2  4  1  0  0  0
 21 23  1  0  0  0
  7 14  1  0  0  0
 18 20  1  0  0  0
M  CHG 1  12   1
M  CHG 1  32  -1
M  END
> <minimizedAffinity>
-6.09796

$$$$
3LPP_KTL_B_5001


 34 34  0  0  0  0  0  0  0  0999 V2000
   40.2109   58.5547   77.5973 C   0  0  0  0  0  0  0  0  0  0  0  0
   39.6762   56.7815   76.0601 O   0  0  0  0  0  0  0  0  0  0  0  0
   40.1971   58.1111   76.1218 C   0  0  0  0  0  0  0  0  0  0  0  0
   39.6593   56.4833   75.1372 H   0  0  0  0  0  0  0  0  0  0  0  0
   41.5600   58.1719   75.4230 C   0  0  0  0  0  0  0  0  0  0  0  0
   43.7376   62.0833   73.5536 O   0  0  0  0  0  0  0  0  0  0  0  0
   40.9800   62.7057   74.0146 O   0  0  0  0  0  0  0  0  0  0  0  0
   43.0452   59.6866   73.6925 C   0  0  0  0  0  0  0  0  0  0  0  0
   42.7899   61.1494   74.0822 C   0  0  0  0  0  0  0  0  0  0  0  0
   41.4012   61.4390   73.5532 C   0  0  0  0  0  0  0  0  0  0  0  0
   40.5403   60.2875   74.0632 C   0  0  0  0  0  0  0  0  0  0  0  0
   41.5612   58.9598   73.9513 S   0  0  0  0  0  0  0  0  0  0  0  0
   44.6196   61.8819   73.9034 H   0  0  0  0  0  0  0  0  0  0  0  0
   41.5654   63.3912   73.6565 H   0  0  0  0  0  0  0  0  0  0  0  0
   38.1083   60.2783   74.1789 O   0  0  0  0  0  0  0  0  0  0  0  0
   39.2247   60.1196   73.3028 C   0  0  0  0  0  0  0  0  0  0  0  0
   37.2854   60.1681   73.6772 H   0  0  0  0  0  0  0  0  0  0  0  0
   37.8374   57.9394   77.8063 O   0  0  0  0  0  0  0  0  0  0  0  0
   39.1334   57.8534   78.4421 C   0  0  0  0  0  0  0  0  0  0  0  0
   37.1767   57.4910   78.3570 H   0  0  0  0  0  0  0  0  0  0  0  0
   40.3844   58.6515   80.3839 O   0  0  0  0  0  0  0  0  0  0  0  0
   39.0549   58.3747   79.8848 C   0  0  0  0  0  0  0  0  0  0  0  0
   40.3260   58.9800   81.2947 H   0  0  0  0  0  0  0  0  0  0  0  0
   39.2112   56.5480   81.5213 O   0  0  0  0  0  0  0  0  0  0  0  0
   38.3021   57.4338   80.8350 C   0  0  0  0  0  0  0  0  0  0  0  0
   38.7100   55.9659   82.1136 H   0  0  0  0  0  0  0  0  0  0  0  0
   36.0474   57.9569   81.5587 O   0  0  0  0  0  0  0  0  0  0  0  0
   37.4330   58.2111   81.8295 C   0  0  0  0  0  0  0  0  0  0  0  0
   35.4991   58.4497   82.1891 H   0  0  0  0  0  0  0  0  0  0  0  0
   40.0062   59.9549   77.6788 O   0  0  0  0  0  0  0  0  0  0  0  0
   42.5072   60.2256   78.0891 O   0  0  0  0  0  0  0  0  0  0  0  0
   41.3436   62.0074   76.9908 O   0  0  0  0  0  0  0  0  0  0  0  0
   40.9348   61.5658   79.3552 O   0  0  0  0  0  0  0  0  0  0  0  0
   41.2349   60.9618   78.0358 S   0  0  0  0  0  0  0  0  0  0  0  0
 27 28  1  0  0  0
 15 16  1  0  0  0
 24 25  1  0  0  0
  6  9  1  0  0  0
  2  3  1  0  0  0
 21 22  1  0  0  0
  7 10  1  0  0  0
 18 19  1  0  0  0
 31 34  2  0  0  0
 32 34  1  0  0  0
 33 34  2  0  0  0
 28 25  1  0  0  0
 16 11  1  0  0  0
  8  9  1  0  0  0
  8 12  1  0  0  0
  5  3  1  0  0  0
  5 12  1  0  0  0
 30  1  1  0  0  0
 30 34  1  0  0  0
 25 22  1  0  0  0
  9 10  1  0  0  0
  3  1  1  0  0  0
 22 19  1  0  0  0
 10 11  1  0  0  0
 19  1  1  0  0  0
 11 12  1  0  0  0
 27 29  1  0  0  0
 15 17  1  0  0  0
 24 26  1  0  0  0
  6 13  1  0  0  0
  2  4  1  0  0  0
 21 23  1  0  0  0
  7 14  1  0  0  0
 18 20  1  0  0  0
M  CHG 1  12   1
M  CHG 1  32  -1
M  END
> <minimizedAffinity>
-6.09075

$$$$
3LPP_KTL_B_5001


 34 34  0  0  0  0  0  0  0  0999 V2000
   40.5004   59.2317   75.7905 C   0  0  0  0  0  0  0  0  0  0  0  0
   42.5707   58.8631   76.9615 O   0  0  0  0  0  0  0  0  0  0  0  0
   41.9293   59.7502   76.0424 C   0  0  0  0  0  0  0  0  0  0  0  0
   43.4736   59.1731   77.1334 H   0  0  0  0  0  0  0  0  0  0  0  0
   42.0045   61.1892   76.5653 C   0  0  0  0  0  0  0  0  0  0  0  0
   42.4082   64.7889   79.7924 O   0  0  0  0  0  0  0  0  0  0  0  0
   45.0270   64.1021   78.8575 O   0  0  0  0  0  0  0  0  0  0  0  0
   41.6943   62.5616   78.9137 C   0  0  0  0  0  0  0  0  0  0  0  0
   42.6655   63.7485   78.8432 C   0  0  0  0  0  0  0  0  0  0  0  0
   44.0268   63.1307   79.0824 C   0  0  0  0  0  0  0  0  0  0  0  0
   44.0958   61.9505   78.1182 C   0  0  0  0  0  0  0  0  0  0  0  0
   42.5332   61.3377   78.1416 S   0  0  0  0  0  0  0  0  0  0  0  0
   41.5331   65.1718   79.6232 H   0  0  0  0  0  0  0  0  0  0  0  0
   44.9286   64.8222   79.5000 H   0  0  0  0  0  0  0  0  0  0  0  0
   45.9265   61.3564   79.6093 O   0  0  0  0  0  0  0  0  0  0  0  0
   45.1670   60.9219   78.4809 C   0  0  0  0  0  0  0  0  0  0  0  0
   46.5991   60.6906   79.8221 H   0  0  0  0  0  0  0  0  0  0  0  0
   39.9254   56.8627   75.4547 O   0  0  0  0  0  0  0  0  0  0  0  0
   40.2355   57.8666   76.4483 C   0  0  0  0  0  0  0  0  0  0  0  0
   39.7628   56.0130   75.8934 H   0  0  0  0  0  0  0  0  0  0  0  0
   38.0396   58.7379   77.0740 O   0  0  0  0  0  0  0  0  0  0  0  0
   39.1383   57.9101   77.5224 C   0  0  0  0  0  0  0  0  0  0  0  0
   37.3516   58.7601   77.7575 H   0  0  0  0  0  0  0  0  0  0  0  0
   39.5360   59.8060   79.0346 O   0  0  0  0  0  0  0  0  0  0  0  0
   39.6441   58.3739   78.8949 C   0  0  0  0  0  0  0  0  0  0  0  0
   39.8618   60.0711   79.9089 H   0  0  0  0  0  0  0  0  0  0  0  0
   37.5980   58.1862   80.1831 O   0  0  0  0  0  0  0  0  0  0  0  0
   38.9214   57.6522   80.0375 C   0  0  0  0  0  0  0  0  0  0  0  0
   37.1424   57.7282   80.9067 H   0  0  0  0  0  0  0  0  0  0  0  0
   40.2728   59.1116   74.3966 O   0  0  0  0  0  0  0  0  0  0  0  0
   38.0470   60.3510   74.3188 O   0  0  0  0  0  0  0  0  0  0  0  0
   40.0012   61.4884   73.5297 O   0  0  0  0  0  0  0  0  0  0  0  0
   39.0839   59.6224   72.2535 O   0  0  0  0  0  0  0  0  0  0  0  0
   39.3226   60.1729   73.6082 S   0  0  0  0  0  0  0  0  0  0  0  0
 27 28  1  0  0  0
 15 16  1  0  0  0
 24 25  1  0  0  0
  6  9  1  0  0  0
  2  3  1  0  0  0
 21 22  1  0  0  0
  7 10  1  0  0  0
 18 19  1  0  0  0
 31 34  2  0  0  0
 32 34  1  0  0  0
 33 34  2  0  0  0
 28 25  1  0  0  0
 16 11  1  0  0  0
  8  9  1  0  0  0
  8 12  1  0  0  0
  5  3  1  0  0  0
  5 12  1  0  0  0
 30  1  1  0  0  0
 30 34  1  0  0  0
 25 22  1  0  0  0
  9 10  1  0  0  0
  3  1  1  0  0  0
 22 19  1  0  0  0
 10 11  1  0  0  0
 19  1  1  0  0  0
 11 12  1  0  0  0
 27 29  1  0  0  0
 15 17  1  0  0  0
 24 26  1  0  0  0
  6 13  1  0  0  0
  2  4  1  0  0  0
 21 23  1  0  0  0
  7 14  1  0  0  0
 18 20  1  0  0  0
M  CHG 1  12   1
M  CHG 1  32  -1
M  END
> <minimizedAffinity>
-6.08464

$$$$
3LPP_KTL_B_5001


 34 34  0  0  0  0  0  0  0  0999 V2000
   40.5846   59.5437   75.7702 C   0  0  0  0  0  0  0  0  0  0  0  0
   42.0987   61.2410   74.9829 O   0  0  0  0  0  0  0  0  0  0  0  0
   41.1157   60.9740   75.9856 C   0  0  0  0  0  0  0  0  0  0  0  0
   42.4461   62.1389   75.1016 H   0  0  0  0  0  0  0  0  0  0  0  0
   41.7034   61.2352   77.3770 C   0  0  0  0  0  0  0  0  0  0  0  0
   46.2163   61.3188   79.1552 O   0  0  0  0  0  0  0  0  0  0  0  0
   44.5596   62.9892   80.7888 O   0  0  0  0  0  0  0  0  0  0  0  0
   44.4255   61.5231   77.4249 C   0  0  0  0  0  0  0  0  0  0  0  0
   44.8242   61.5429   78.9073 C   0  0  0  0  0  0  0  0  0  0  0  0
   44.4100   62.9181   79.3862 C   0  0  0  0  0  0  0  0  0  0  0  0
   42.9667   63.0771   78.9184 C   0  0  0  0  0  0  0  0  0  0  0  0
   42.9613   62.3318   77.4144 S   0  0  0  0  0  0  0  0  0  0  0  0
   46.4622   60.4343   78.8421 H   0  0  0  0  0  0  0  0  0  0  0  0
   45.4955   62.8815   81.0200 H   0  0  0  0  0  0  0  0  0  0  0  0
   43.5071   65.4105   79.3556 O   0  0  0  0  0  0  0  0  0  0  0  0
   42.4859   64.5279   78.8894 C   0  0  0  0  0  0  0  0  0  0  0  0
   43.1819   66.3239   79.3291 H   0  0  0  0  0  0  0  0  0  0  0  0
   41.3927   59.0727   73.4941 O   0  0  0  0  0  0  0  0  0  0  0  0
   40.2103   59.2596   74.3055 C   0  0  0  0  0  0  0  0  0  0  0  0
   41.1308   58.8954   72.5771 H   0  0  0  0  0  0  0  0  0  0  0  0
   37.9410   60.1500   74.1335 O   0  0  0  0  0  0  0  0  0  0  0  0
   39.3049   60.3358   73.6879 C   0  0  0  0  0  0  0  0  0  0  0  0
   37.3762   60.8331   73.7393 H   0  0  0  0  0  0  0  0  0  0  0  0
   38.2222   59.7568   71.5591 O   0  0  0  0  0  0  0  0  0  0  0  0
   39.3744   60.3880   72.1558 C   0  0  0  0  0  0  0  0  0  0  0  0
   38.2919   59.8039   70.5927 H   0  0  0  0  0  0  0  0  0  0  0  0
   38.5399   62.6636   72.2335 O   0  0  0  0  0  0  0  0  0  0  0  0
   39.5430   61.8232   71.6459 C   0  0  0  0  0  0  0  0  0  0  0  0
   38.6483   63.5715   71.9095 H   0  0  0  0  0  0  0  0  0  0  0  0
   39.4388   59.3313   76.5772 O   0  0  0  0  0  0  0  0  0  0  0  0
   37.8845   57.6723   77.7298 O   0  0  0  0  0  0  0  0  0  0  0  0
   39.9407   56.8485   76.8195 O   0  0  0  0  0  0  0  0  0  0  0  0
   39.9752   58.2882   78.7889 O   0  0  0  0  0  0  0  0  0  0  0  0
   39.3007   57.9983   77.5018 S   0  0  0  0  0  0  0  0  0  0  0  0
 27 28  1  0  0  0
 15 16  1  0  0  0
 24 25  1  0  0  0
  6  9  1  0  0  0
  2  3  1  0  0  0
 21 22  1  0  0  0
  7 10  1  0  0  0
 18 19  1  0  0  0
 31 34  2  0  0  0
 32 34  1  0  0  0
 33 34  2  0  0  0
 28 25  1  0  0  0
 16 11  1  0  0  0
  8  9  1  0  0  0
  8 12  1  0  0  0
  5  3  1  0  0  0
  5 12  1  0  0  0
 30  1  1  0  0  0
 30 34  1  0  0  0
 25 22  1  0  0  0
  9 10  1  0  0  0
  3  1  1  0  0  0
 22 19  1  0  0  0
 10 11  1  0  0  0
 19  1  1  0  0  0
 11 12  1  0  0  0
 27 29  1  0  0  0
 15 17  1  0  0  0
 24 26  1  0  0  0
  6 13  1  0  0  0
  2  4  1  0  0  0
 21 23  1  0  0  0
  7 14  1  0  0  0
 18 20  1  0  0  0
M  CHG 1  12   1
M  CHG 1  32  -1
M  END
> <minimizedAffinity>
-6.07808

$$$$
