4E9U_RWY_A_301


 19 20  0  0  0  0  0  0  0  0999 V2000
   24.9386  -14.7570    8.8252 C   0  0  0  0  0  0  0  0  0  0  0  0
   23.7337  -14.0311    6.8742 C   0  0  0  0  0  0  0  0  0  0  0  0
   25.0134  -16.0408    8.3001 C   0  0  0  0  0  0  0  0  0  0  0  0
   23.8091  -15.3142    6.3490 C   0  0  0  0  0  0  0  0  0  0  0  0
   24.2989  -13.7532    8.1111 C   0  0  0  0  0  0  0  0  0  0  0  0
   24.4492  -16.3184    7.0623 C   0  0  0  0  0  0  0  0  0  0  0  0
   24.2253  -12.4995    8.6265 O   0  0  0  0  0  0  0  0  0  0  0  0
   24.5071  -11.5557    7.5858 C   0  0  0  0  0  0  0  0  0  0  0  0
   25.6620  -10.6529    8.0203 C   0  0  0  0  0  0  0  0  0  0  0  0
   27.2829  -11.2180    7.3876 S   0  0  0  0  0  0  0  0  0  0  0  0
   28.0426  -12.9393    9.4293 N   0  0  0  0  0  0  0  0  0  0  0  0
   27.7305  -12.2339    8.5929 C   0  0  0  0  0  0  0  0  0  0  0  0
   24.5228  -17.5764    6.5553 O   0  0  0  0  0  0  0  0  0  0  0  0
   22.2704  -20.1876    8.8315 C   0  0  0  0  0  0  0  0  0  0  0  0
   21.7730  -18.9272    8.5258 C   0  0  0  0  0  0  0  0  0  0  0  0
   23.5242  -20.5720    8.3714 C   0  0  0  0  0  0  0  0  0  0  0  0
   22.5328  -18.0527    7.7613 C   0  0  0  0  0  0  0  0  0  0  0  0
   24.2852  -19.6964    7.6075 C   0  0  0  0  0  0  0  0  0  0  0  0
   23.7876  -18.4372    7.3029 C   0  0  0  0  0  0  0  0  0  0  0  0
 12 11  3  0  0  0
 10 12  1  0  0  0
 16 14  2  0  0  0
 14 15  1  0  0  0
 15 17  2  0  0  0
 16 18  1  0  0  0
 19 17  1  0  0  0
 18 19  2  0  0  0
  5  1  2  0  0  0
  1  3  1  0  0  0
  2  4  2  0  0  0
  2  5  1  0  0  0
  6  3  2  0  0  0
  4  6  1  0  0  0
  8  7  1  0  0  0
  8  9  1  0  0  0
 10  9  1  0  0  0
  7  5  1  0  0  0
 19 13  1  0  0  0
  6 13  1  0  0  0
M  END
> <minimizedAffinity>
-7.05826

$$$$
4E9U_RWY_A_301


 19 20  0  0  0  0  0  0  0  0999 V2000
   25.0958  -14.9070    8.8361 C   0  0  0  0  0  0  0  0  0  0  0  0
   24.7803  -14.1008    6.5921 C   0  0  0  0  0  0  0  0  0  0  0  0
   25.0645  -16.2150    8.3695 C   0  0  0  0  0  0  0  0  0  0  0  0
   24.7497  -15.4082    6.1256 C   0  0  0  0  0  0  0  0  0  0  0  0
   24.9541  -13.8511    7.9464 C   0  0  0  0  0  0  0  0  0  0  0  0
   24.8920  -16.4648    7.0147 C   0  0  0  0  0  0  0  0  0  0  0  0
   24.9833  -12.5735    8.4043 O   0  0  0  0  0  0  0  0  0  0  0  0
   26.3328  -12.0949    8.3502 C   0  0  0  0  0  0  0  0  0  0  0  0
   26.3322  -10.5682    8.4314 C   0  0  0  0  0  0  0  0  0  0  0  0
   25.5915   -9.7782    6.9568 S   0  0  0  0  0  0  0  0  0  0  0  0
   27.8611   -9.4027    5.4023 N   0  0  0  0  0  0  0  0  0  0  0  0
   26.9306   -9.5567    6.0387 C   0  0  0  0  0  0  0  0  0  0  0  0
   24.8590  -17.7459    6.5647 O   0  0  0  0  0  0  0  0  0  0  0  0
   22.1954  -20.0073    8.7702 C   0  0  0  0  0  0  0  0  0  0  0  0
   23.4333  -20.5344    8.4250 C   0  0  0  0  0  0  0  0  0  0  0  0
   21.8522  -18.7195    8.3759 C   0  0  0  0  0  0  0  0  0  0  0  0
   24.3251  -19.7718    7.6836 C   0  0  0  0  0  0  0  0  0  0  0  0
   22.7441  -17.9569    7.6329 C   0  0  0  0  0  0  0  0  0  0  0  0
   23.9805  -18.4845    7.2881 C   0  0  0  0  0  0  0  0  0  0  0  0
 12 11  3  0  0  0
 10 12  1  0  0  0
 16 14  2  0  0  0
 14 15  1  0  0  0
 15 17  2  0  0  0
 16 18  1  0  0  0
 19 17  1  0  0  0
 18 19  2  0  0  0
  5  1  2  0  0  0
  1  3  1  0  0  0
  2  4  2  0  0  0
  2  5  1  0  0  0
  6  3  2  0  0  0
  4  6  1  0  0  0
  8  7  1  0  0  0
  8  9  1  0  0  0
 10  9  1  0  0  0
  7  5  1  0  0  0
 19 13  1  0  0  0
  6 13  1  0  0  0
M  END
> <minimizedAffinity>
-7.04563

$$$$
4E9U_RWY_A_301


 19 20  0  0  0  0  0  0  0  0999 V2000
   24.9145  -14.2982    6.5604 C   0  0  0  0  0  0  0  0  0  0  0  0
   25.1366  -15.1282    8.8070 C   0  0  0  0  0  0  0  0  0  0  0  0
   24.7897  -15.6003    6.0929 C   0  0  0  0  0  0  0  0  0  0  0  0
   25.0111  -16.4297    8.3397 C   0  0  0  0  0  0  0  0  0  0  0  0
   25.0875  -14.0637    7.9176 C   0  0  0  0  0  0  0  0  0  0  0  0
   24.8375  -16.6650    6.9827 C   0  0  0  0  0  0  0  0  0  0  0  0
   25.2109  -12.7907    8.3726 O   0  0  0  0  0  0  0  0  0  0  0  0
   23.9022  -12.2526    8.5981 C   0  0  0  0  0  0  0  0  0  0  0  0
   23.8649  -10.7983    8.1279 C   0  0  0  0  0  0  0  0  0  0  0  0
   25.5300  -10.0532    7.9890 S   0  0  0  0  0  0  0  0  0  0  0  0
   25.1381   -8.3565    5.8265 N   0  0  0  0  0  0  0  0  0  0  0  0
   25.2981   -9.0524    6.7124 C   0  0  0  0  0  0  0  0  0  0  0  0
   24.7181  -17.9362    6.5192 O   0  0  0  0  0  0  0  0  0  0  0  0
   22.0655  -20.0831    8.8489 C   0  0  0  0  0  0  0  0  0  0  0  0
   21.7418  -18.7973    8.4346 C   0  0  0  0  0  0  0  0  0  0  0  0
   23.2800  -20.6488    8.4794 C   0  0  0  0  0  0  0  0  0  0  0  0
   22.6357  -18.0792    7.6525 C   0  0  0  0  0  0  0  0  0  0  0  0
   24.1751  -19.9296    7.6979 C   0  0  0  0  0  0  0  0  0  0  0  0
   23.8510  -18.6450    7.2848 C   0  0  0  0  0  0  0  0  0  0  0  0
 12 11  3  0  0  0
 10 12  1  0  0  0
 16 14  2  0  0  0
 14 15  1  0  0  0
 15 17  2  0  0  0
 16 18  1  0  0  0
 19 17  1  0  0  0
 18 19  2  0  0  0
  5  1  2  0  0  0
  1  3  1  0  0  0
  2  4  2  0  0  0
  2  5  1  0  0  0
  6  3  2  0  0  0
  4  6  1  0  0  0
  8  7  1  0  0  0
  8  9  1  0  0  0
 10  9  1  0  0  0
  7  5  1  0  0  0
 19 13  1  0  0  0
  6 13  1  0  0  0
M  END
> <minimizedAffinity>
-7.04266

$$$$
4E9U_RWY_A_301


 19 20  0  0  0  0  0  0  0  0999 V2000
   24.6274  -15.3519    8.3479 C   0  0  0  0  0  0  0  0  0  0  0  0
   25.0533  -14.8604    6.0323 C   0  0  0  0  0  0  0  0  0  0  0  0
   25.4731  -14.3155    8.7224 C   0  0  0  0  0  0  0  0  0  0  0  0
   25.8980  -13.8239    6.4066 C   0  0  0  0  0  0  0  0  0  0  0  0
   24.4181  -15.6229    7.0027 C   0  0  0  0  0  0  0  0  0  0  0  0
   26.1074  -13.5519    7.7516 C   0  0  0  0  0  0  0  0  0  0  0  0
   23.5926  -16.6372    6.6385 O   0  0  0  0  0  0  0  0  0  0  0  0
   24.1819  -17.8791    7.0428 C   0  0  0  0  0  0  0  0  0  0  0  0
   23.1928  -19.0162    6.7856 C   0  0  0  0  0  0  0  0  0  0  0  0
   22.8325  -19.9981    8.2867 S   0  0  0  0  0  0  0  0  0  0  0  0
   24.6811  -22.0488    7.9935 N   0  0  0  0  0  0  0  0  0  0  0  0
   23.9235  -21.2086    8.1144 C   0  0  0  0  0  0  0  0  0  0  0  0
   26.9356  -12.5418    8.1239 O   0  0  0  0  0  0  0  0  0  0  0  0
   25.5844   -8.9265    6.6488 C   0  0  0  0  0  0  0  0  0  0  0  0
   26.7384   -9.4998    6.1300 C   0  0  0  0  0  0  0  0  0  0  0  0
   24.8828   -9.5683    7.6623 C   0  0  0  0  0  0  0  0  0  0  0  0
   27.1894  -10.7141    6.6285 C   0  0  0  0  0  0  0  0  0  0  0  0
   25.3349  -10.7829    8.1622 C   0  0  0  0  0  0  0  0  0  0  0  0
   26.4882  -11.3546    7.6436 C   0  0  0  0  0  0  0  0  0  0  0  0
 12 11  3  0  0  0
 10 12  1  0  0  0
 16 14  2  0  0  0
 14 15  1  0  0  0
 15 17  2  0  0  0
 16 18  1  0  0  0
 19 17  1  0  0  0
 18 19  2  0  0  0
  5  1  2  0  0  0
  1  3  1  0  0  0
  2  4  2  0  0  0
  2  5  1  0  0  0
  6  3  2  0  0  0
  4  6  1  0  0  0
  8  7  1  0  0  0
  8  9  1  0  0  0
 10  9  1  0  0  0
  7  5  1  0  0  0
 19 13  1  0  0  0
  6 13  1  0  0  0
M  END
> <minimizedAffinity>
-6.65311

$$$$
4E9U_RWY_A_301


 19 20  0  0  0  0  0  0  0  0999 V2000
   25.7027  -10.0108    6.5707 C   0  0  0  0  0  0  0  0  0  0  0  0
   27.5801  -11.4423    7.0305 C   0  0  0  0  0  0  0  0  0  0  0  0
   24.8898  -10.8303    7.3435 C   0  0  0  0  0  0  0  0  0  0  0  0
   26.7677  -12.2610    7.8036 C   0  0  0  0  0  0  0  0  0  0  0  0
   27.0475  -10.3177    6.4155 C   0  0  0  0  0  0  0  0  0  0  0  0
   25.4229  -11.9545    7.9598 C   0  0  0  0  0  0  0  0  0  0  0  0
   27.8400   -9.5166    5.6586 O   0  0  0  0  0  0  0  0  0  0  0  0
   27.1834   -8.2559    5.4781 C   0  0  0  0  0  0  0  0  0  0  0  0
   27.4573   -7.7401    4.0652 C   0  0  0  0  0  0  0  0  0  0  0  0
   26.6294   -6.1462    3.7173 S   0  0  0  0  0  0  0  0  0  0  0  0
   24.1250   -6.6393    4.8098 N   0  0  0  0  0  0  0  0  0  0  0  0
   25.1510   -6.4366    4.3617 C   0  0  0  0  0  0  0  0  0  0  0  0
   24.6225  -12.7538    8.7117 O   0  0  0  0  0  0  0  0  0  0  0  0
   24.1934  -16.4685    6.9539 C   0  0  0  0  0  0  0  0  0  0  0  0
   24.8042  -16.3552    8.1964 C   0  0  0  0  0  0  0  0  0  0  0  0
   23.7251  -15.3340    6.3021 C   0  0  0  0  0  0  0  0  0  0  0  0
   24.9469  -15.1056    8.7833 C   0  0  0  0  0  0  0  0  0  0  0  0
   23.8691  -14.0833    6.8888 C   0  0  0  0  0  0  0  0  0  0  0  0
   24.4798  -13.9711    8.1299 C   0  0  0  0  0  0  0  0  0  0  0  0
 12 11  3  0  0  0
 10 12  1  0  0  0
 16 14  2  0  0  0
 14 15  1  0  0  0
 15 17  2  0  0  0
 16 18  1  0  0  0
 19 17  1  0  0  0
 18 19  2  0  0  0
  5  1  2  0  0  0
  1  3  1  0  0  0
  2  4  2  0  0  0
  2  5  1  0  0  0
  6  3  2  0  0  0
  4  6  1  0  0  0
  8  7  1  0  0  0
  8  9  1  0  0  0
 10  9  1  0  0  0
  7  5  1  0  0  0
 19 13  1  0  0  0
  6 13  1  0  0  0
M  END
> <minimizedAffinity>
-6.43555

$$$$
4E9U_RWY_A_301


 19 20  0  0  0  0  0  0  0  0999 V2000
   25.1474  -16.1528    8.5844 C   0  0  0  0  0  0  0  0  0  0  0  0
   23.6659  -15.7587    6.7310 C   0  0  0  0  0  0  0  0  0  0  0  0
   25.1287  -14.7971    8.8863 C   0  0  0  0  0  0  0  0  0  0  0  0
   23.6466  -14.4036    7.0333 C   0  0  0  0  0  0  0  0  0  0  0  0
   24.4153  -16.6322    7.5069 C   0  0  0  0  0  0  0  0  0  0  0  0
   24.3780  -13.9235    8.1110 C   0  0  0  0  0  0  0  0  0  0  0  0
   24.4360  -17.9572    7.2123 O   0  0  0  0  0  0  0  0  0  0  0  0
   23.0911  -18.4516    7.2163 C   0  0  0  0  0  0  0  0  0  0  0  0
   22.7191  -18.8953    8.6313 C   0  0  0  0  0  0  0  0  0  0  0  0
   22.3146  -20.6765    8.7345 S   0  0  0  0  0  0  0  0  0  0  0  0
   24.7009  -21.7821    7.8447 N   0  0  0  0  0  0  0  0  0  0  0  0
   23.7232  -21.3283    8.2090 C   0  0  0  0  0  0  0  0  0  0  0  0
   24.3661  -12.5985    8.4092 O   0  0  0  0  0  0  0  0  0  0  0  0
   27.6812  -10.7181    6.8132 C   0  0  0  0  0  0  0  0  0  0  0  0
   27.7355  -11.2505    8.0951 C   0  0  0  0  0  0  0  0  0  0  0  0
   26.5136  -10.8186    6.0663 C   0  0  0  0  0  0  0  0  0  0  0  0
   26.6197  -11.8809    8.6279 C   0  0  0  0  0  0  0  0  0  0  0  0
   25.3965  -11.4483    6.5999 C   0  0  0  0  0  0  0  0  0  0  0  0
   25.4516  -11.9795    7.8808 C   0  0  0  0  0  0  0  0  0  0  0  0
 12 11  3  0  0  0
 10 12  1  0  0  0
 16 14  2  0  0  0
 14 15  1  0  0  0
 15 17  2  0  0  0
 16 18  1  0  0  0
 19 17  1  0  0  0
 18 19  2  0  0  0
  5  1  2  0  0  0
  1  3  1  0  0  0
  2  4  2  0  0  0
  2  5  1  0  0  0
  6  3  2  0  0  0
  4  6  1  0  0  0
  8  7  1  0  0  0
  8  9  1  0  0  0
 10  9  1  0  0  0
  7  5  1  0  0  0
 19 13  1  0  0  0
  6 13  1  0  0  0
M  END
> <minimizedAffinity>
-6.36479

$$$$
4E9U_RWY_A_301


 19 20  0  0  0  0  0  0  0  0999 V2000
   23.6540  -15.3598    7.0650 C   0  0  0  0  0  0  0  0  0  0  0  0
   25.3393  -16.0578    8.6328 C   0  0  0  0  0  0  0  0  0  0  0  0
   23.6284  -16.6391    6.5246 C   0  0  0  0  0  0  0  0  0  0  0  0
   25.3130  -17.3369    8.0931 C   0  0  0  0  0  0  0  0  0  0  0  0
   24.5095  -15.0707    8.1193 C   0  0  0  0  0  0  0  0  0  0  0  0
   24.4574  -17.6269    7.0391 C   0  0  0  0  0  0  0  0  0  0  0  0
   24.5344  -13.8195    8.6452 O   0  0  0  0  0  0  0  0  0  0  0  0
   25.8717  -13.3114    8.5632 C   0  0  0  0  0  0  0  0  0  0  0  0
   25.8698  -12.0076    7.7647 C   0  0  0  0  0  0  0  0  0  0  0  0
   24.1992  -11.2821    7.5922 S   0  0  0  0  0  0  0  0  0  0  0  0
   23.5161  -12.1999    5.0624 N   0  0  0  0  0  0  0  0  0  0  0  0
   23.7964  -11.8245    6.0993 C   0  0  0  0  0  0  0  0  0  0  0  0
   24.4302  -18.8752    6.5045 O   0  0  0  0  0  0  0  0  0  0  0  0
   22.0379  -21.3865    8.7500 C   0  0  0  0  0  0  0  0  0  0  0  0
   22.8453  -21.9100    7.7481 C   0  0  0  0  0  0  0  0  0  0  0  0
   22.0349  -20.0192    8.9990 C   0  0  0  0  0  0  0  0  0  0  0  0
   23.6471  -21.0630    6.9957 C   0  0  0  0  0  0  0  0  0  0  0  0
   22.8363  -19.1715    8.2451 C   0  0  0  0  0  0  0  0  0  0  0  0
   23.6423  -19.6953    7.2441 C   0  0  0  0  0  0  0  0  0  0  0  0
 12 11  3  0  0  0
 10 12  1  0  0  0
 16 14  2  0  0  0
 14 15  1  0  0  0
 15 17  2  0  0  0
 16 18  1  0  0  0
 19 17  1  0  0  0
 18 19  2  0  0  0
  5  1  2  0  0  0
  1  3  1  0  0  0
  2  4  2  0  0  0
  2  5  1  0  0  0
  6  3  2  0  0  0
  4  6  1  0  0  0
  8  7  1  0  0  0
  8  9  1  0  0  0
 10  9  1  0  0  0
  7  5  1  0  0  0
 19 13  1  0  0  0
  6 13  1  0  0  0
M  END
> <minimizedAffinity>
-6.28750

$$$$
4E9U_RWY_A_301


 19 20  0  0  0  0  0  0  0  0999 V2000
   23.4018  -17.0185    6.2670 C   0  0  0  0  0  0  0  0  0  0  0  0
   25.1186  -16.5224    7.8769 C   0  0  0  0  0  0  0  0  0  0  0  0
   22.8594  -17.9565    7.1361 C   0  0  0  0  0  0  0  0  0  0  0  0
   24.5759  -17.4595    8.7460 C   0  0  0  0  0  0  0  0  0  0  0  0
   24.5311  -16.3020    6.6389 C   0  0  0  0  0  0  0  0  0  0  0  0
   23.4463  -18.1760    8.3751 C   0  0  0  0  0  0  0  0  0  0  0  0
   25.0609  -15.3868    5.7877 O   0  0  0  0  0  0  0  0  0  0  0  0
   24.8278  -14.0757    6.3166 C   0  0  0  0  0  0  0  0  0  0  0  0
   26.1668  -13.3664    6.5198 C   0  0  0  0  0  0  0  0  0  0  0  0
   26.1037  -11.5904    6.0851 S   0  0  0  0  0  0  0  0  0  0  0  0
   27.8371  -10.5499    7.9880 N   0  0  0  0  0  0  0  0  0  0  0  0
   27.1262  -10.9766    7.2088 C   0  0  0  0  0  0  0  0  0  0  0  0
   22.9132  -19.0968    9.2194 O   0  0  0  0  0  0  0  0  0  0  0  0
   23.4587  -22.9132    7.7327 C   0  0  0  0  0  0  0  0  0  0  0  0
   24.5404  -22.0480    7.8370 C   0  0  0  0  0  0  0  0  0  0  0  0
   22.1933  -22.4972    8.1293 C   0  0  0  0  0  0  0  0  0  0  0  0
   24.3530  -20.7667    8.3364 C   0  0  0  0  0  0  0  0  0  0  0  0
   22.0055  -21.2144    8.6279 C   0  0  0  0  0  0  0  0  0  0  0  0
   23.0868  -20.3506    8.7312 C   0  0  0  0  0  0  0  0  0  0  0  0
 12 11  3  0  0  0
 10 12  1  0  0  0
 16 14  2  0  0  0
 14 15  1  0  0  0
 15 17  2  0  0  0
 16 18  1  0  0  0
 19 17  1  0  0  0
 18 19  2  0  0  0
  5  1  2  0  0  0
  1  3  1  0  0  0
  2  4  2  0  0  0
  2  5  1  0  0  0
  6  3  2  0  0  0
  4  6  1  0  0  0
  8  7  1  0  0  0
  8  9  1  0  0  0
 10  9  1  0  0  0
  7  5  1  0  0  0
 19 13  1  0  0  0
  6 13  1  0  0  0
M  END
> <minimizedAffinity>
-6.19640

$$$$
4E9U_RWY_A_301


 19 20  0  0  0  0  0  0  0  0999 V2000
   24.4333  -16.1284    8.3639 C   0  0  0  0  0  0  0  0  0  0  0  0
   24.9577  -16.2746    6.0211 C   0  0  0  0  0  0  0  0  0  0  0  0
   24.4922  -14.7425    8.2895 C   0  0  0  0  0  0  0  0  0  0  0  0
   25.0158  -14.8893    5.9466 C   0  0  0  0  0  0  0  0  0  0  0  0
   24.6658  -16.8930    7.2290 C   0  0  0  0  0  0  0  0  0  0  0  0
   24.7829  -14.1239    7.0810 C   0  0  0  0  0  0  0  0  0  0  0  0
   24.6094  -18.2472    7.3037 O   0  0  0  0  0  0  0  0  0  0  0  0
   23.3758  -18.6902    6.7248 C   0  0  0  0  0  0  0  0  0  0  0  0
   23.3663  -20.2177    6.6607 C   0  0  0  0  0  0  0  0  0  0  0  0
   23.2173  -20.9973    8.3091 S   0  0  0  0  0  0  0  0  0  0  0  0
   25.0918  -23.0314    8.0699 N   0  0  0  0  0  0  0  0  0  0  0  0
   24.3237  -22.1977    8.1671 C   0  0  0  0  0  0  0  0  0  0  0  0
   24.8423  -12.7685    7.0152 O   0  0  0  0  0  0  0  0  0  0  0  0
   27.8804  -11.3112    9.4065 C   0  0  0  0  0  0  0  0  0  0  0  0
   26.8528  -10.4694    9.0002 C   0  0  0  0  0  0  0  0  0  0  0  0
   27.8870  -12.6434    9.0108 C   0  0  0  0  0  0  0  0  0  0  0  0
   25.8343  -10.9626    8.1965 C   0  0  0  0  0  0  0  0  0  0  0  0
   26.8685  -13.1367    8.2055 C   0  0  0  0  0  0  0  0  0  0  0  0
   25.8425  -12.2948    7.7997 C   0  0  0  0  0  0  0  0  0  0  0  0
 12 11  3  0  0  0
 10 12  1  0  0  0
 16 14  2  0  0  0
 14 15  1  0  0  0
 15 17  2  0  0  0
 16 18  1  0  0  0
 19 17  1  0  0  0
 18 19  2  0  0  0
  5  1  2  0  0  0
  1  3  1  0  0  0
  2  4  2  0  0  0
  2  5  1  0  0  0
  6  3  2  0  0  0
  4  6  1  0  0  0
  8  7  1  0  0  0
  8  9  1  0  0  0
 10  9  1  0  0  0
  7  5  1  0  0  0
 19 13  1  0  0  0
  6 13  1  0  0  0
M  END
> <minimizedAffinity>
-6.19605

$$$$
4E9U_RWY_A_301


 19 20  0  0  0  0  0  0  0  0999 V2000
   25.1786  -12.1343    8.3273 C   0  0  0  0  0  0  0  0  0  0  0  0
   25.7893  -12.7493    6.0837 C   0  0  0  0  0  0  0  0  0  0  0  0
   25.9583  -10.9893    8.2246 C   0  0  0  0  0  0  0  0  0  0  0  0
   26.5680  -11.6044    5.9807 C   0  0  0  0  0  0  0  0  0  0  0  0
   25.0947  -13.0130    7.2561 C   0  0  0  0  0  0  0  0  0  0  0  0
   26.6520  -10.7248    7.0513 C   0  0  0  0  0  0  0  0  0  0  0  0
   24.3336  -14.1324    7.3588 O   0  0  0  0  0  0  0  0  0  0  0  0
   24.4721  -14.8964    6.1545 C   0  0  0  0  0  0  0  0  0  0  0  0
   24.9836  -16.2955    6.4986 C   0  0  0  0  0  0  0  0  0  0  0  0
   23.9343  -17.1537    7.7272 S   0  0  0  0  0  0  0  0  0  0  0  0
   23.1713  -19.3839    6.2600 N   0  0  0  0  0  0  0  0  0  0  0  0
   23.4847  -18.4699    6.8608 C   0  0  0  0  0  0  0  0  0  0  0  0
   27.4153   -9.6052    6.9578 O   0  0  0  0  0  0  0  0  0  0  0  0
   25.6732   -6.8708    4.3964 C   0  0  0  0  0  0  0  0  0  0  0  0
   24.9995   -7.2754    5.5419 C   0  0  0  0  0  0  0  0  0  0  0  0
   26.9332   -7.3834    4.1117 C   0  0  0  0  0  0  0  0  0  0  0  0
   25.5879   -8.1945    6.3995 C   0  0  0  0  0  0  0  0  0  0  0  0
   27.5214   -8.3042    4.9693 C   0  0  0  0  0  0  0  0  0  0  0  0
   26.8474   -8.7082    6.1132 C   0  0  0  0  0  0  0  0  0  0  0  0
 12 11  3  0  0  0
 10 12  1  0  0  0
 16 14  2  0  0  0
 14 15  1  0  0  0
 15 17  2  0  0  0
 16 18  1  0  0  0
 19 17  1  0  0  0
 18 19  2  0  0  0
  5  1  2  0  0  0
  1  3  1  0  0  0
  2  4  2  0  0  0
  2  5  1  0  0  0
  6  3  2  0  0  0
  4  6  1  0  0  0
  8  7  1  0  0  0
  8  9  1  0  0  0
 10  9  1  0  0  0
  7  5  1  0  0  0
 19 13  1  0  0  0
  6 13  1  0  0  0
M  END
> <minimizedAffinity>
-6.07779

$$$$
