4N7U_2JA_A_501


 19 18  0  0  0  0  0  0  0  0999 V2000
   19.7576   -0.5305  147.3727 P   0  0  0  0  0  0  0  0  0  0  0  0
   19.6726   -2.1422  147.2551 O   0  0  0  0  0  0  0  0  0  0  0  0
   18.5394    0.1173  146.8198 O   0  0  0  0  0  0  0  0  0  0  0  0
   18.4676   -0.0835  145.8736 H   0  0  0  0  0  0  0  0  0  0  0  0
   21.1446   -0.0752  146.6590 O   0  0  0  0  0  0  0  0  0  0  0  0
   22.5856    1.5455  145.2277 O   0  0  0  0  0  0  0  0  0  0  0  0
   21.2246    0.6698  145.2348 P   0  0  0  0  0  0  0  0  0  0  0  0
   21.4911   -0.5131  144.1650 O   0  0  0  0  0  0  0  0  0  0  0  0
   20.0443    1.4921  144.8731 O   0  0  0  0  0  0  0  0  0  0  0  0
   22.6665    2.0102  144.3801 H   0  0  0  0  0  0  0  0  0  0  0  0
   20.1870    1.8975  144.0035 H   0  0  0  0  0  0  0  0  0  0  0  0
   19.9298   -0.2092  149.0293 C   0  0  0  0  0  0  0  0  0  0  0  0
   20.8838    0.9587  149.2097 C   0  0  0  0  0  0  0  0  0  0  0  0
   20.1111    1.8892  150.1131 C   0  0  0  0  0  0  0  0  0  0  0  0
   20.7541    1.8787  151.4941 C   0  0  0  0  0  0  0  0  0  0  0  0
   22.0378    1.0844  151.7177 C   0  0  0  0  0  0  0  0  0  0  0  0
   20.1961    2.7157  152.6188 C   0  0  0  0  0  0  0  0  0  0  0  0
   19.0403    3.3646  152.0975 O   0  0  0  0  0  0  0  0  0  0  0  0
   19.2899    3.9019  151.3295 H   0  0  0  0  0  0  0  0  0  0  0  0
  8  7  2  0  0  0
  7  6  1  0  0  0
  7  9  1  0  0  0
  7  5  1  0  0  0
  5  1  1  0  0  0
  1  2  2  0  0  0
  1  3  1  0  0  0
  1 12  1  0  0  0
 13 12  1  0  0  0
 13 14  1  0  0  0
 14 15  2  0  0  0
 15 16  1  0  0  0
 15 17  1  0  0  0
 17 18  1  0  0  0
  6 10  1  0  0  0
  9 11  1  0  0  0
  3  4  1  0  0  0
 18 19  1  0  0  0
M  END
> <minimizedAffinity>
-5.86186

$$$$
4N7U_2JA_A_501


 19 18  0  0  0  0  0  0  0  0999 V2000
   20.3304   -0.1102  147.9174 P   0  0  0  0  0  0  0  0  0  0  0  0
   20.1672   -1.5434  148.6508 O   0  0  0  0  0  0  0  0  0  0  0  0
   19.0077    0.4862  147.5950 O   0  0  0  0  0  0  0  0  0  0  0  0
   18.5378   -0.0878  146.9700 H   0  0  0  0  0  0  0  0  0  0  0  0
   21.2952   -0.3428  146.6308 O   0  0  0  0  0  0  0  0  0  0  0  0
   22.5464    1.5112  145.3083 O   0  0  0  0  0  0  0  0  0  0  0  0
   21.2452    0.5491  145.2922 P   0  0  0  0  0  0  0  0  0  0  0  0
   21.5215   -0.4961  144.0897 O   0  0  0  0  0  0  0  0  0  0  0  0
   19.9969    1.3222  145.0819 O   0  0  0  0  0  0  0  0  0  0  0  0
   22.5485    2.0655  144.5122 H   0  0  0  0  0  0  0  0  0  0  0  0
   20.0629    1.8240  144.2545 H   0  0  0  0  0  0  0  0  0  0  0  0
   21.1943    0.8580  149.0099 C   0  0  0  0  0  0  0  0  0  0  0  0
   20.2339    1.4066  150.0506 C   0  0  0  0  0  0  0  0  0  0  0  0
   20.5945    0.6228  151.2893 C   0  0  0  0  0  0  0  0  0  0  0  0
   20.2981    1.4778  152.5147 C   0  0  0  0  0  0  0  0  0  0  0  0
   19.6358    2.8409  152.3358 C   0  0  0  0  0  0  0  0  0  0  0  0
   20.5614    0.9598  153.9074 C   0  0  0  0  0  0  0  0  0  0  0  0
   19.4254    1.3191  154.6878 O   0  0  0  0  0  0  0  0  0  0  0  0
   19.3125    2.2823  154.6701 H   0  0  0  0  0  0  0  0  0  0  0  0
  8  7  2  0  0  0
  7  6  1  0  0  0
  7  9  1  0  0  0
  7  5  1  0  0  0
  5  1  1  0  0  0
  1  2  2  0  0  0
  1  3  1  0  0  0
  1 12  1  0  0  0
 13 12  1  0  0  0
 13 14  1  0  0  0
 14 15  2  0  0  0
 15 16  1  0  0  0
 15 17  1  0  0  0
 17 18  1  0  0  0
  6 10  1  0  0  0
  9 11  1  0  0  0
  3  4  1  0  0  0
 18 19  1  0  0  0
M  END
> <minimizedAffinity>
-5.74219

$$$$
4N7U_2JA_A_501


 19 18  0  0  0  0  0  0  0  0999 V2000
   21.4953    0.5162  146.8254 P   0  0  0  0  0  0  0  0  0  0  0  0
   22.1001    1.3596  145.5838 O   0  0  0  0  0  0  0  0  0  0  0  0
   22.0746   -0.8513  146.8837 O   0  0  0  0  0  0  0  0  0  0  0  0
   21.8343   -1.3388  146.0803 H   0  0  0  0  0  0  0  0  0  0  0  0
   19.8772    0.5560  146.6826 O   0  0  0  0  0  0  0  0  0  0  0  0
   19.6126   -1.7010  145.4227 O   0  0  0  0  0  0  0  0  0  0  0  0
   18.9500   -0.7530  146.5546 P   0  0  0  0  0  0  0  0  0  0  0  0
   19.1718   -1.5528  147.9423 O   0  0  0  0  0  0  0  0  0  0  0  0
   17.5143   -0.4988  146.2820 O   0  0  0  0  0  0  0  0  0  0  0  0
   19.0771   -2.5031  145.3188 H   0  0  0  0  0  0  0  0  0  0  0  0
   17.0419   -1.3439  146.2226 H   0  0  0  0  0  0  0  0  0  0  0  0
   21.8877    1.4124  148.2111 C   0  0  0  0  0  0  0  0  0  0  0  0
   21.2938    0.7256  149.4285 C   0  0  0  0  0  0  0  0  0  0  0  0
   20.3199    1.7525  149.9538 C   0  0  0  0  0  0  0  0  0  0  0  0
   20.4978    1.8711  151.4621 C   0  0  0  0  0  0  0  0  0  0  0  0
   21.6103    1.0853  152.1502 C   0  0  0  0  0  0  0  0  0  0  0  0
   19.6542    2.8241  152.2727 C   0  0  0  0  0  0  0  0  0  0  0  0
   18.8142    3.5022  151.3436 O   0  0  0  0  0  0  0  0  0  0  0  0
   19.3620    3.9632  150.6891 H   0  0  0  0  0  0  0  0  0  0  0  0
  8  7  2  0  0  0
  7  6  1  0  0  0
  7  9  1  0  0  0
  7  5  1  0  0  0
  5  1  1  0  0  0
  1  2  2  0  0  0
  1  3  1  0  0  0
  1 12  1  0  0  0
 13 12  1  0  0  0
 13 14  1  0  0  0
 14 15  2  0  0  0
 15 16  1  0  0  0
 15 17  1  0  0  0
 17 18  1  0  0  0
  6 10  1  0  0  0
  9 11  1  0  0  0
  3  4  1  0  0  0
 18 19  1  0  0  0
M  END
> <minimizedAffinity>
-5.36842

$$$$
4N7U_2JA_A_501


 19 18  0  0  0  0  0  0  0  0999 V2000
   21.3050    0.2324  145.5157 P   0  0  0  0  0  0  0  0  0  0  0  0
   21.6653    1.6902  144.9128 O   0  0  0  0  0  0  0  0  0  0  0  0
   21.2180   -0.7909  144.4413 O   0  0  0  0  0  0  0  0  0  0  0  0
   20.4973   -0.5615  143.8339 H   0  0  0  0  0  0  0  0  0  0  0  0
   19.9482    0.4039  146.3932 O   0  0  0  0  0  0  0  0  0  0  0  0
   19.5236   -2.1355  146.0427 O   0  0  0  0  0  0  0  0  0  0  0  0
   18.8952   -0.7816  146.6681 P   0  0  0  0  0  0  0  0  0  0  0  0
   18.9388   -1.0090  148.2684 O   0  0  0  0  0  0  0  0  0  0  0  0
   17.5162   -0.5422  146.1772 O   0  0  0  0  0  0  0  0  0  0  0  0
   18.9125   -2.8741  146.1910 H   0  0  0  0  0  0  0  0  0  0  0  0
   16.9601   -1.3083  146.3888 H   0  0  0  0  0  0  0  0  0  0  0  0
   22.5535   -0.1236  146.6075 C   0  0  0  0  0  0  0  0  0  0  0  0
   22.4476    0.8097  147.8009 C   0  0  0  0  0  0  0  0  0  0  0  0
   22.3448   -0.1436  148.9668 C   0  0  0  0  0  0  0  0  0  0  0  0
   21.3723    0.4328  149.9879 C   0  0  0  0  0  0  0  0  0  0  0  0
   20.6242    1.7233  149.6657 C   0  0  0  0  0  0  0  0  0  0  0  0
   21.0656   -0.3001  151.2708 C   0  0  0  0  0  0  0  0  0  0  0  0
   19.7720   -0.8723  151.1036 O   0  0  0  0  0  0  0  0  0  0  0  0
   19.1289   -0.1697  150.9199 H   0  0  0  0  0  0  0  0  0  0  0  0
  8  7  2  0  0  0
  7  6  1  0  0  0
  7  9  1  0  0  0
  7  5  1  0  0  0
  5  1  1  0  0  0
  1  2  2  0  0  0
  1  3  1  0  0  0
  1 12  1  0  0  0
 13 12  1  0  0  0
 13 14  1  0  0  0
 14 15  2  0  0  0
 15 16  1  0  0  0
 15 17  1  0  0  0
 17 18  1  0  0  0
  6 10  1  0  0  0
  9 11  1  0  0  0
  3  4  1  0  0  0
 18 19  1  0  0  0
M  END
> <minimizedAffinity>
-5.33821

$$$$
4N7U_2JA_A_501


 19 18  0  0  0  0  0  0  0  0999 V2000
   20.9522   -0.0392  151.4902 P   0  0  0  0  0  0  0  0  0  0  0  0
   19.9661   -1.0427  152.2896 O   0  0  0  0  0  0  0  0  0  0  0  0
   22.2530    0.1144  152.1927 O   0  0  0  0  0  0  0  0  0  0  0  0
   22.1048    0.5146  153.0637 H   0  0  0  0  0  0  0  0  0  0  0  0
   20.1384    1.3498  151.2695 O   0  0  0  0  0  0  0  0  0  0  0  0
   18.9760    1.4932  153.5889 O   0  0  0  0  0  0  0  0  0  0  0  0
   19.7400    2.3608  152.4565 P   0  0  0  0  0  0  0  0  0  0  0  0
   21.1479    2.7746  153.1357 O   0  0  0  0  0  0  0  0  0  0  0  0
   18.9478    3.5473  152.0506 O   0  0  0  0  0  0  0  0  0  0  0  0
   18.7202    2.0735  154.3230 H   0  0  0  0  0  0  0  0  0  0  0  0
   18.7586    4.0919  152.8307 H   0  0  0  0  0  0  0  0  0  0  0  0
   21.1570   -0.7366  149.9575 C   0  0  0  0  0  0  0  0  0  0  0  0
   20.2509   -0.0270  148.9665 C   0  0  0  0  0  0  0  0  0  0  0  0
   21.2303    0.6511  148.0393 C   0  0  0  0  0  0  0  0  0  0  0  0
   20.9632    0.1819  146.6149 C   0  0  0  0  0  0  0  0  0  0  0  0
   19.7791   -0.7403  146.3386 C   0  0  0  0  0  0  0  0  0  0  0  0
   21.7918    0.6888  145.4601 C   0  0  0  0  0  0  0  0  0  0  0  0
   21.2527    0.0860  144.2876 O   0  0  0  0  0  0  0  0  0  0  0  0
   21.2935   -0.8794  144.3724 H   0  0  0  0  0  0  0  0  0  0  0  0
  8  7  2  0  0  0
  7  6  1  0  0  0
  7  9  1  0  0  0
  7  5  1  0  0  0
  5  1  1  0  0  0
  1  2  2  0  0  0
  1  3  1  0  0  0
  1 12  1  0  0  0
 13 12  1  0  0  0
 13 14  1  0  0  0
 14 15  2  0  0  0
 15 16  1  0  0  0
 15 17  1  0  0  0
 17 18  1  0  0  0
  6 10  1  0  0  0
  9 11  1  0  0  0
  3  4  1  0  0  0
 18 19  1  0  0  0
M  END
> <minimizedAffinity>
-5.12551

$$$$
4N7U_2JA_A_501


 19 18  0  0  0  0  0  0  0  0999 V2000
   21.8573    0.2976  145.5432 P   0  0  0  0  0  0  0  0  0  0  0  0
   23.0484   -0.6965  146.0033 O   0  0  0  0  0  0  0  0  0  0  0  0
   21.3282   -0.0751  144.2051 O   0  0  0  0  0  0  0  0  0  0  0  0
   22.0308    0.0166  143.5426 H   0  0  0  0  0  0  0  0  0  0  0  0
   22.4393    1.8116  145.6389 O   0  0  0  0  0  0  0  0  0  0  0  0
   24.9102    1.5115  144.8930 O   0  0  0  0  0  0  0  0  0  0  0  0
   23.9597    2.1714  146.0244 P   0  0  0  0  0  0  0  0  0  0  0  0
   24.0800    3.7659  145.7836 O   0  0  0  0  0  0  0  0  0  0  0  0
   24.3853    1.7812  147.3907 O   0  0  0  0  0  0  0  0  0  0  0  0
   25.8382    1.7094  145.0947 H   0  0  0  0  0  0  0  0  0  0  0  0
   25.3106    2.0385  147.5270 H   0  0  0  0  0  0  0  0  0  0  0  0
   20.6644    0.1540  146.7405 C   0  0  0  0  0  0  0  0  0  0  0  0
   21.3280    0.1888  148.1062 C   0  0  0  0  0  0  0  0  0  0  0  0
   20.1552    0.1111  149.0535 C   0  0  0  0  0  0  0  0  0  0  0  0
   20.6573    0.3289  150.4751 C   0  0  0  0  0  0  0  0  0  0  0  0
   22.1258    0.6726  150.7074 C   0  0  0  0  0  0  0  0  0  0  0  0
   19.7083    0.3040  151.6481 C   0  0  0  0  0  0  0  0  0  0  0  0
   19.8117   -0.9977  152.2170 O   0  0  0  0  0  0  0  0  0  0  0  0
   19.5849   -1.6620  151.5476 H   0  0  0  0  0  0  0  0  0  0  0  0
  8  7  2  0  0  0
  7  6  1  0  0  0
  7  9  1  0  0  0
  7  5  1  0  0  0
  5  1  1  0  0  0
  1  2  2  0  0  0
  1  3  1  0  0  0
  1 12  1  0  0  0
 13 12  1  0  0  0
 13 14  1  0  0  0
 14 15  2  0  0  0
 15 16  1  0  0  0
 15 17  1  0  0  0
 17 18  1  0  0  0
  6 10  1  0  0  0
  9 11  1  0  0  0
  3  4  1  0  0  0
 18 19  1  0  0  0
M  END
> <minimizedAffinity>
-4.98274

$$$$
4N7U_2JA_A_501


 19 18  0  0  0  0  0  0  0  0999 V2000
   20.3465    0.9515  150.4428 P   0  0  0  0  0  0  0  0  0  0  0  0
   21.9596    1.0307  150.5444 O   0  0  0  0  0  0  0  0  0  0  0  0
   19.7878    2.1495  149.7632 O   0  0  0  0  0  0  0  0  0  0  0  0
   19.9893    2.9412  150.2861 H   0  0  0  0  0  0  0  0  0  0  0  0
   19.7874    0.7104  151.9493 O   0  0  0  0  0  0  0  0  0  0  0  0
   21.5119    2.1272  153.2798 O   0  0  0  0  0  0  0  0  0  0  0  0
   19.9384    1.7725  153.1488 P   0  0  0  0  0  0  0  0  0  0  0  0
   19.2567    3.1274  152.5881 O   0  0  0  0  0  0  0  0  0  0  0  0
   19.3621    1.3570  154.4508 O   0  0  0  0  0  0  0  0  0  0  0  0
   21.6404    2.7679  153.9967 H   0  0  0  0  0  0  0  0  0  0  0  0
   19.5023    2.0591  155.1053 H   0  0  0  0  0  0  0  0  0  0  0  0
   20.0205   -0.4637  149.5662 C   0  0  0  0  0  0  0  0  0  0  0  0
   19.5954   -0.0859  148.1579 C   0  0  0  0  0  0  0  0  0  0  0  0
   20.0308   -1.2792  147.3423 C   0  0  0  0  0  0  0  0  0  0  0  0
   21.0184   -0.8137  146.2800 C   0  0  0  0  0  0  0  0  0  0  0  0
   21.4701    0.6439  146.2632 C   0  0  0  0  0  0  0  0  0  0  0  0
   21.6293   -1.7893  145.3043 C   0  0  0  0  0  0  0  0  0  0  0  0
   21.7034   -1.1098  144.0547 O   0  0  0  0  0  0  0  0  0  0  0  0
   20.8144   -0.8301  143.7855 H   0  0  0  0  0  0  0  0  0  0  0  0
  8  7  2  0  0  0
  7  6  1  0  0  0
  7  9  1  0  0  0
  7  5  1  0  0  0
  5  1  1  0  0  0
  1  2  2  0  0  0
  1  3  1  0  0  0
  1 12  1  0  0  0
 13 12  1  0  0  0
 13 14  1  0  0  0
 14 15  2  0  0  0
 15 16  1  0  0  0
 15 17  1  0  0  0
 17 18  1  0  0  0
  6 10  1  0  0  0
  9 11  1  0  0  0
  3  4  1  0  0  0
 18 19  1  0  0  0
M  END
> <minimizedAffinity>
-4.85184

$$$$
4N7U_2JA_A_501


 19 18  0  0  0  0  0  0  0  0999 V2000
   20.6466   -0.0819  151.1736 P   0  0  0  0  0  0  0  0  0  0  0  0
   19.9736   -1.1121  152.2245 O   0  0  0  0  0  0  0  0  0  0  0  0
   22.1215   -0.0192  151.3467 O   0  0  0  0  0  0  0  0  0  0  0  0
   22.3292    0.3197  152.2315 H   0  0  0  0  0  0  0  0  0  0  0  0
   19.8869    1.3432  151.3534 O   0  0  0  0  0  0  0  0  0  0  0  0
   21.3357    2.5045  153.1711 O   0  0  0  0  0  0  0  0  0  0  0  0
   19.8150    2.1592  152.7385 P   0  0  0  0  0  0  0  0  0  0  0  0
   19.1659    3.5865  152.3431 O   0  0  0  0  0  0  0  0  0  0  0  0
   19.0721    1.4951  153.8373 O   0  0  0  0  0  0  0  0  0  0  0  0
   21.3302    2.9985  154.0059 H   0  0  0  0  0  0  0  0  0  0  0  0
   19.0848    2.0615  154.6246 H   0  0  0  0  0  0  0  0  0  0  0  0
   20.2297   -0.6698  149.6381 C   0  0  0  0  0  0  0  0  0  0  0  0
   21.4976   -0.8851  148.8302 C   0  0  0  0  0  0  0  0  0  0  0  0
   21.0141   -0.7660  147.4052 C   0  0  0  0  0  0  0  0  0  0  0  0
   21.7512    0.3842  146.7313 C   0  0  0  0  0  0  0  0  0  0  0  0
   22.8533    1.1166  147.4914 C   0  0  0  0  0  0  0  0  0  0  0  0
   21.4753    0.7494  145.2934 C   0  0  0  0  0  0  0  0  0  0  0  0
   20.1194    1.1828  145.2451 O   0  0  0  0  0  0  0  0  0  0  0  0
   19.5410    0.4707  145.5601 H   0  0  0  0  0  0  0  0  0  0  0  0
  8  7  2  0  0  0
  7  6  1  0  0  0
  7  9  1  0  0  0
  7  5  1  0  0  0
  5  1  1  0  0  0
  1  2  2  0  0  0
  1  3  1  0  0  0
  1 12  1  0  0  0
 13 12  1  0  0  0
 13 14  1  0  0  0
 14 15  2  0  0  0
 15 16  1  0  0  0
 15 17  1  0  0  0
 17 18  1  0  0  0
  6 10  1  0  0  0
  9 11  1  0  0  0
  3  4  1  0  0  0
 18 19  1  0  0  0
M  END
> <minimizedAffinity>
-4.82232

$$$$
4N7U_2JA_A_501


 19 18  0  0  0  0  0  0  0  0999 V2000
   24.1155    1.3854  145.9488 P   0  0  0  0  0  0  0  0  0  0  0  0
   23.4352    2.8435  145.7770 O   0  0  0  0  0  0  0  0  0  0  0  0
   25.1413    1.1402  144.9015 O   0  0  0  0  0  0  0  0  0  0  0  0
   24.7188    1.1426  144.0283 H   0  0  0  0  0  0  0  0  0  0  0  0
   22.9080    0.2984  145.9755 O   0  0  0  0  0  0  0  0  0  0  0  0
   20.8742   -0.7966  144.7854 O   0  0  0  0  0  0  0  0  0  0  0  0
   21.4234    0.5850  145.4246 P   0  0  0  0  0  0  0  0  0  0  0  0
   20.5271    0.8090  146.7518 O   0  0  0  0  0  0  0  0  0  0  0  0
   21.2990    1.7149  144.4717 O   0  0  0  0  0  0  0  0  0  0  0  0
   19.9774   -0.6599  144.4419 H   0  0  0  0  0  0  0  0  0  0  0  0
   20.3728    1.8073  144.1989 H   0  0  0  0  0  0  0  0  0  0  0  0
   24.8049    1.3909  147.4987 C   0  0  0  0  0  0  0  0  0  0  0  0
   25.9612    2.3753  147.5218 C   0  0  0  0  0  0  0  0  0  0  0  0
   26.4029    2.3434  148.9650 C   0  0  0  0  0  0  0  0  0  0  0  0
   26.8355    3.7447  149.3770 C   0  0  0  0  0  0  0  0  0  0  0  0
   26.6721    4.8997  148.3931 C   0  0  0  0  0  0  0  0  0  0  0  0
   27.3340    4.0264  150.7731 C   0  0  0  0  0  0  0  0  0  0  0  0
   26.2642    3.6948  151.6530 O   0  0  0  0  0  0  0  0  0  0  0  0
   25.4841    4.2257  151.4280 H   0  0  0  0  0  0  0  0  0  0  0  0
  8  7  2  0  0  0
  7  6  1  0  0  0
  7  9  1  0  0  0
  7  5  1  0  0  0
  5  1  1  0  0  0
  1  2  2  0  0  0
  1  3  1  0  0  0
  1 12  1  0  0  0
 13 12  1  0  0  0
 13 14  1  0  0  0
 14 15  2  0  0  0
 15 16  1  0  0  0
 15 17  1  0  0  0
 17 18  1  0  0  0
  6 10  1  0  0  0
  9 11  1  0  0  0
  3  4  1  0  0  0
 18 19  1  0  0  0
M  END
> <minimizedAffinity>
-4.80176

$$$$
4N7U_2JA_A_501


 19 18  0  0  0  0  0  0  0  0999 V2000
   20.5128   -1.3637  149.4632 P   0  0  0  0  0  0  0  0  0  0  0  0
   21.9480   -0.9894  148.8163 O   0  0  0  0  0  0  0  0  0  0  0  0
   20.2955   -2.8339  149.4837 O   0  0  0  0  0  0  0  0  0  0  0  0
   20.2809   -3.1713  148.5743 H   0  0  0  0  0  0  0  0  0  0  0  0
   19.3885   -0.5287  148.6390 O   0  0  0  0  0  0  0  0  0  0  0  0
   19.8196   -2.1300  146.6386 O   0  0  0  0  0  0  0  0  0  0  0  0
   18.9785   -0.8312  147.1125 P   0  0  0  0  0  0  0  0  0  0  0  0
   17.4456   -1.3398  147.1903 O   0  0  0  0  0  0  0  0  0  0  0  0
   19.1424    0.3002  146.1674 O   0  0  0  0  0  0  0  0  0  0  0  0
   19.5963   -2.3418  145.7187 H   0  0  0  0  0  0  0  0  0  0  0  0
   18.8711    0.0211  145.2789 H   0  0  0  0  0  0  0  0  0  0  0  0
   20.5466   -0.7228  151.0334 C   0  0  0  0  0  0  0  0  0  0  0  0
   20.4026    0.7870  150.9543 C   0  0  0  0  0  0  0  0  0  0  0  0
   21.6890    1.2816  151.5701 C   0  0  0  0  0  0  0  0  0  0  0  0
   21.3650    2.4012  152.5510 C   0  0  0  0  0  0  0  0  0  0  0  0
   19.9071    2.7571  152.8278 C   0  0  0  0  0  0  0  0  0  0  0  0
   22.4570    3.0993  153.3237 C   0  0  0  0  0  0  0  0  0  0  0  0
   23.5991    2.2511  153.2547 O   0  0  0  0  0  0  0  0  0  0  0  0
   23.3810    1.3838  153.6304 H   0  0  0  0  0  0  0  0  0  0  0  0
  8  7  2  0  0  0
  7  6  1  0  0  0
  7  9  1  0  0  0
  7  5  1  0  0  0
  5  1  1  0  0  0
  1  2  2  0  0  0
  1  3  1  0  0  0
  1 12  1  0  0  0
 13 12  1  0  0  0
 13 14  1  0  0  0
 14 15  2  0  0  0
 15 16  1  0  0  0
 15 17  1  0  0  0
 17 18  1  0  0  0
  6 10  1  0  0  0
  9 11  1  0  0  0
  3  4  1  0  0  0
 18 19  1  0  0  0
M  END
> <minimizedAffinity>
-4.75687

$$$$
