2I4V_DJR_B_300


 41 44  0  0  0  0  0  0  0  0999 V2000
   13.9292   22.4873   17.0014 C   0  0  0  0  0  0  0  0  0  0  0  0
   13.5928   20.4711   18.2731 C   0  0  0  0  0  0  0  0  0  0  0  0
   14.7229   20.0355   18.0595 O   0  0  0  0  0  0  0  0  0  0  0  0
   13.1050   21.6329   17.8137 N   0  0  0  0  0  0  0  0  0  0  0  0
   12.1833   21.9009   18.0323 H   0  0  0  0  0  0  0  0  0  0  0  0
   12.6466   19.8627   18.9872 O   0  0  0  0  0  0  0  0  0  0  0  0
   11.6280   17.8201   18.4840 C   0  0  0  0  0  0  0  0  0  0  0  0
   10.9526   18.0634   20.6586 O   0  0  0  0  0  0  0  0  0  0  0  0
   10.4208   17.7144   19.3718 C   0  0  0  0  0  0  0  0  0  0  0  0
    9.6059   18.7217   18.7740 O   0  0  0  0  0  0  0  0  0  0  0  0
    9.7762   18.6014   17.3692 C   0  0  0  0  0  0  0  0  0  0  0  0
   11.2699   18.3834   17.1196 C   0  0  0  0  0  0  0  0  0  0  0  0
   12.3851   18.0600   20.5547 C   0  0  0  0  0  0  0  0  0  0  0  0
   12.7988   18.4596   19.1396 C   0  0  0  0  0  0  0  0  0  0  0  0
   14.4062   23.6468   17.8879 C   0  0  0  0  0  0  0  0  0  0  0  0
   13.2792   24.3997   18.3153 O   0  0  0  0  0  0  0  0  0  0  0  0
   12.8151   24.7549   17.5411 H   0  0  0  0  0  0  0  0  0  0  0  0
   15.3228   24.5579   17.1082 C   0  0  0  0  0  0  0  0  0  0  0  0
   16.7431   24.1934   17.2134 N   0  0  0  0  0  0  0  0  0  0  0  0
   17.4740   23.6147   15.8169 S   0  0  0  0  0  0  0  0  0  0  0  0
   18.0608   22.2464   16.0531 O   0  0  0  0  0  0  0  0  0  0  0  0
   16.3753   23.3722   14.8093 O   0  0  0  0  0  0  0  0  0  0  0  0
   18.5328   24.8692   15.2355 C   0  0  0  0  0  0  0  0  0  0  0  0
   19.9234   24.7169   15.2177 C   0  0  0  0  0  0  0  0  0  0  0  0
   20.7350   25.7793   14.7669 C   0  0  0  0  0  0  0  0  0  0  0  0
   20.1517   26.9984   14.3393 C   0  0  0  0  0  0  0  0  0  0  0  0
   18.7582   27.1315   14.3632 C   0  0  0  0  0  0  0  0  0  0  0  0
   17.9548   26.0773   14.8069 C   0  0  0  0  0  0  0  0  0  0  0  0
   20.9435   28.0759   13.9002 O   0  0  0  0  0  0  0  0  0  0  0  0
   21.4847   28.9360   14.9163 C   0  0  0  0  0  0  0  0  0  0  0  0
   17.6122   24.6862   18.3090 C   0  0  0  0  0  0  0  0  0  0  0  0
   17.3898   23.9229   19.6405 C   0  0  0  0  0  0  0  0  0  0  0  0
   18.3833   24.4577   20.6882 C   0  0  0  0  0  0  0  0  0  0  0  0
   17.6279   22.4098   19.4616 C   0  0  0  0  0  0  0  0  0  0  0  0
   13.1326   22.9889   15.7693 C   0  0  0  0  0  0  0  0  0  0  0  0
   12.6549   21.7888   14.9555 C   0  0  0  0  0  0  0  0  0  0  0  0
   11.2808   21.5006   14.8790 C   0  0  0  0  0  0  0  0  0  0  0  0
   10.8394   20.4008   14.1183 C   0  0  0  0  0  0  0  0  0  0  0  0
   11.7732   19.5897   13.4368 C   0  0  0  0  0  0  0  0  0  0  0  0
   13.1486   19.8750   13.5167 C   0  0  0  0  0  0  0  0  0  0  0  0
   13.5920   20.9770   14.2738 C   0  0  0  0  0  0  0  0  0  0  0  0
  7 12  1  0  0  0
  7 14  1  0  0  0
  7  9  1  0  0  0
  8  9  1  0  0  0
  8 13  1  0  0  0
  9 10  1  0  0  0
 10 11  1  0  0  0
 11 12  1  0  0  0
 13 14  1  0  0  0
 14  6  1  0  0  0
  6  2  1  0  0  0
  2  4  1  0  0  0
  2  3  2  0  0  0
  4  1  1  0  0  0
  1 35  1  0  0  0
  1 15  1  0  0  0
 35 36  1  0  0  0
 36 37  2  0  0  0
 36 41  1  0  0  0
 37 38  1  0  0  0
 38 39  2  0  0  0
 39 40  1  0  0  0
 40 41  2  0  0  0
 15 18  1  0  0  0
 15 16  1  0  0  0
 18 19  1  0  0  0
 19 20  1  0  0  0
 19 31  1  0  0  0
 20 22  2  0  0  0
 20 23  1  0  0  0
 20 21  2  0  0  0
 23 28  2  0  0  0
 23 24  1  0  0  0
 24 25  2  0  0  0
 25 26  1  0  0  0
 26 29  1  0  0  0
 26 27  2  0  0  0
 29 30  1  0  0  0
 27 28  1  0  0  0
 31 32  1  0  0  0
 32 34  1  0  0  0
 32 33  1  0  0  0
  4  5  1  0  0  0
 16 17  1  0  0  0
M  END
> <minimizedAffinity>
-9.38924

$$$$
2I4V_DJR_B_300


 41 44  0  0  0  0  0  0  0  0999 V2000
   13.8635   22.4331   16.6613 C   0  0  0  0  0  0  0  0  0  0  0  0
   13.5899   20.6127   18.2127 C   0  0  0  0  0  0  0  0  0  0  0  0
   14.6533   20.0726   17.9124 O   0  0  0  0  0  0  0  0  0  0  0  0
   13.1111   21.7445   17.6755 N   0  0  0  0  0  0  0  0  0  0  0  0
   12.2449   22.1038   17.9752 H   0  0  0  0  0  0  0  0  0  0  0  0
   12.7174   20.1650   19.1147 O   0  0  0  0  0  0  0  0  0  0  0  0
   11.6794   18.1253   18.6402 C   0  0  0  0  0  0  0  0  0  0  0  0
   10.7369   18.5737   20.6786 O   0  0  0  0  0  0  0  0  0  0  0  0
   10.3626   18.1377   19.3632 C   0  0  0  0  0  0  0  0  0  0  0  0
    9.6810   19.1200   18.5844 O   0  0  0  0  0  0  0  0  0  0  0  0
   10.0282   18.8766   17.2290 C   0  0  0  0  0  0  0  0  0  0  0  0
   11.5299   18.5851   17.2002 C   0  0  0  0  0  0  0  0  0  0  0  0
   12.1689   18.5102   20.7688 C   0  0  0  0  0  0  0  0  0  0  0  0
   12.7827   18.7750   19.3953 C   0  0  0  0  0  0  0  0  0  0  0  0
   14.6133   23.5853   17.3453 C   0  0  0  0  0  0  0  0  0  0  0  0
   13.7532   24.2016   18.2941 O   0  0  0  0  0  0  0  0  0  0  0  0
   12.9693   24.5502   17.8414 H   0  0  0  0  0  0  0  0  0  0  0  0
   15.0221   24.6209   16.3262 C   0  0  0  0  0  0  0  0  0  0  0  0
   16.2839   24.3057   15.6411 N   0  0  0  0  0  0  0  0  0  0  0  0
   17.6936   24.5302   16.5253 S   0  0  0  0  0  0  0  0  0  0  0  0
   17.4194   24.4033   18.0022 O   0  0  0  0  0  0  0  0  0  0  0  0
   18.5994   23.3608   16.2200 O   0  0  0  0  0  0  0  0  0  0  0  0
   18.4279   26.0022   15.9536 C   0  0  0  0  0  0  0  0  0  0  0  0
   18.1051   26.5581   14.7110 C   0  0  0  0  0  0  0  0  0  0  0  0
   18.7558   27.7347   14.2839 C   0  0  0  0  0  0  0  0  0  0  0  0
   19.7361   28.3515   15.1012 C   0  0  0  0  0  0  0  0  0  0  0  0
   20.0448   27.7811   16.3419 C   0  0  0  0  0  0  0  0  0  0  0  0
   19.3972   26.6171   16.7658 C   0  0  0  0  0  0  0  0  0  0  0  0
   20.4079   29.5171   14.6878 O   0  0  0  0  0  0  0  0  0  0  0  0
   21.8018   29.3796   14.3661 C   0  0  0  0  0  0  0  0  0  0  0  0
   16.3411   23.4469   14.4336 C   0  0  0  0  0  0  0  0  0  0  0  0
   15.3505   23.8982   13.3291 C   0  0  0  0  0  0  0  0  0  0  0  0
   14.9559   22.6705   12.4879 C   0  0  0  0  0  0  0  0  0  0  0  0
   15.9931   24.9477   12.3996 C   0  0  0  0  0  0  0  0  0  0  0  0
   12.9179   22.9401   15.5419 C   0  0  0  0  0  0  0  0  0  0  0  0
   12.2634   21.7439   14.8551 C   0  0  0  0  0  0  0  0  0  0  0  0
   10.8634   21.6886   14.7356 C   0  0  0  0  0  0  0  0  0  0  0  0
   10.2605   20.5911   14.0913 C   0  0  0  0  0  0  0  0  0  0  0  0
   11.0587   19.5497   13.5692 C   0  0  0  0  0  0  0  0  0  0  0  0
   12.4592   19.6023   13.6926 C   0  0  0  0  0  0  0  0  0  0  0  0
   13.0646   20.7011   14.3332 C   0  0  0  0  0  0  0  0  0  0  0  0
  7 12  1  0  0  0
  7 14  1  0  0  0
  7  9  1  0  0  0
  8  9  1  0  0  0
  8 13  1  0  0  0
  9 10  1  0  0  0
 10 11  1  0  0  0
 11 12  1  0  0  0
 13 14  1  0  0  0
 14  6  1  0  0  0
  6  2  1  0  0  0
  2  4  1  0  0  0
  2  3  2  0  0  0
  4  1  1  0  0  0
  1 35  1  0  0  0
  1 15  1  0  0  0
 35 36  1  0  0  0
 36 37  2  0  0  0
 36 41  1  0  0  0
 37 38  1  0  0  0
 38 39  2  0  0  0
 39 40  1  0  0  0
 40 41  2  0  0  0
 15 18  1  0  0  0
 15 16  1  0  0  0
 18 19  1  0  0  0
 19 20  1  0  0  0
 19 31  1  0  0  0
 20 22  2  0  0  0
 20 23  1  0  0  0
 20 21  2  0  0  0
 23 28  2  0  0  0
 23 24  1  0  0  0
 24 25  2  0  0  0
 25 26  1  0  0  0
 26 29  1  0  0  0
 26 27  2  0  0  0
 29 30  1  0  0  0
 27 28  1  0  0  0
 31 32  1  0  0  0
 32 34  1  0  0  0
 32 33  1  0  0  0
  4  5  1  0  0  0
 16 17  1  0  0  0
M  END
> <minimizedAffinity>
-9.16186

$$$$
2I4V_DJR_B_300


 41 44  0  0  0  0  0  0  0  0999 V2000
   20.4782   26.1106   19.9900 C   0  0  0  0  0  0  0  0  0  0  0  0
   21.3755   27.2285   18.0559 C   0  0  0  0  0  0  0  0  0  0  0  0
   22.5346   26.8812   18.2758 O   0  0  0  0  0  0  0  0  0  0  0  0
   20.3119   26.9193   18.8121 N   0  0  0  0  0  0  0  0  0  0  0  0
   19.4176   27.2457   18.5611 H   0  0  0  0  0  0  0  0  0  0  0  0
   20.9699   27.9840   17.0361 O   0  0  0  0  0  0  0  0  0  0  0  0
   21.5548   27.9637   14.7732 C   0  0  0  0  0  0  0  0  0  0  0  0
   19.5419   29.0479   14.6424 O   0  0  0  0  0  0  0  0  0  0  0  0
   20.8854   29.1545   14.1481 C   0  0  0  0  0  0  0  0  0  0  0  0
   21.6571   30.1941   14.7477 O   0  0  0  0  0  0  0  0  0  0  0  0
   23.0049   29.7467   14.7558 C   0  0  0  0  0  0  0  0  0  0  0  0
   22.9832   28.2779   15.1834 C   0  0  0  0  0  0  0  0  0  0  0  0
   19.3964   27.7478   15.2351 C   0  0  0  0  0  0  0  0  0  0  0  0
   20.7343   27.2956   15.8172 C   0  0  0  0  0  0  0  0  0  0  0  0
   19.3011   25.1260   20.0438 C   0  0  0  0  0  0  0  0  0  0  0  0
   19.4910   24.2332   21.1331 O   0  0  0  0  0  0  0  0  0  0  0  0
   20.3177   23.7416   21.0080 H   0  0  0  0  0  0  0  0  0  0  0  0
   19.2357   24.3195   18.7696 C   0  0  0  0  0  0  0  0  0  0  0  0
   17.8737   23.9018   18.4073 N   0  0  0  0  0  0  0  0  0  0  0  0
   17.2522   22.5762   19.2294 S   0  0  0  0  0  0  0  0  0  0  0  0
   18.3569   21.6260   19.6159 O   0  0  0  0  0  0  0  0  0  0  0  0
   16.7257   23.0816   20.5517 O   0  0  0  0  0  0  0  0  0  0  0  0
   15.9346   21.9537   18.2758 C   0  0  0  0  0  0  0  0  0  0  0  0
   16.1465   21.2815   17.0674 C   0  0  0  0  0  0  0  0  0  0  0  0
   15.0398   20.8276   16.3193 C   0  0  0  0  0  0  0  0  0  0  0  0
   13.7186   21.0536   16.7804 C   0  0  0  0  0  0  0  0  0  0  0  0
   13.5267   21.7271   17.9927 C   0  0  0  0  0  0  0  0  0  0  0  0
   14.6238   22.1736   18.7349 C   0  0  0  0  0  0  0  0  0  0  0  0
   12.6005   20.6225   16.0424 O   0  0  0  0  0  0  0  0  0  0  0  0
   12.8099   20.3639   14.6444 C   0  0  0  0  0  0  0  0  0  0  0  0
   16.9262   24.8002   17.7044 C   0  0  0  0  0  0  0  0  0  0  0  0
   17.2022   24.8894   16.1810 C   0  0  0  0  0  0  0  0  0  0  0  0
   15.8943   24.5942   15.4240 C   0  0  0  0  0  0  0  0  0  0  0  0
   18.2667   23.8616   15.7466 C   0  0  0  0  0  0  0  0  0  0  0  0
   20.5422   27.0078   21.2531 C   0  0  0  0  0  0  0  0  0  0  0  0
   21.7749   26.6358   22.0734 C   0  0  0  0  0  0  0  0  0  0  0  0
   22.0232   27.2885   23.2938 C   0  0  0  0  0  0  0  0  0  0  0  0
   23.1536   26.9368   24.0563 C   0  0  0  0  0  0  0  0  0  0  0  0
   24.0350   25.9340   23.5961 C   0  0  0  0  0  0  0  0  0  0  0  0
   23.7894   25.2838   22.3728 C   0  0  0  0  0  0  0  0  0  0  0  0
   22.6571   25.6313   21.6104 C   0  0  0  0  0  0  0  0  0  0  0  0
  7 12  1  0  0  0
  7 14  1  0  0  0
  7  9  1  0  0  0
  8  9  1  0  0  0
  8 13  1  0  0  0
  9 10  1  0  0  0
 10 11  1  0  0  0
 11 12  1  0  0  0
 13 14  1  0  0  0
 14  6  1  0  0  0
  6  2  1  0  0  0
  2  4  1  0  0  0
  2  3  2  0  0  0
  4  1  1  0  0  0
  1 35  1  0  0  0
  1 15  1  0  0  0
 35 36  1  0  0  0
 36 37  2  0  0  0
 36 41  1  0  0  0
 37 38  1  0  0  0
 38 39  2  0  0  0
 39 40  1  0  0  0
 40 41  2  0  0  0
 15 18  1  0  0  0
 15 16  1  0  0  0
 18 19  1  0  0  0
 19 20  1  0  0  0
 19 31  1  0  0  0
 20 22  2  0  0  0
 20 23  1  0  0  0
 20 21  2  0  0  0
 23 28  2  0  0  0
 23 24  1  0  0  0
 24 25  2  0  0  0
 25 26  1  0  0  0
 26 29  1  0  0  0
 26 27  2  0  0  0
 29 30  1  0  0  0
 27 28  1  0  0  0
 31 32  1  0  0  0
 32 34  1  0  0  0
 32 33  1  0  0  0
  4  5  1  0  0  0
 16 17  1  0  0  0
M  END
> <minimizedAffinity>
-9.12271

$$$$
2I4V_DJR_B_300


 41 44  0  0  0  0  0  0  0  0999 V2000
   14.9802   22.2765   17.4622 C   0  0  0  0  0  0  0  0  0  0  0  0
   13.3878   20.4779   17.6192 C   0  0  0  0  0  0  0  0  0  0  0  0
   13.5851   20.0772   16.4733 O   0  0  0  0  0  0  0  0  0  0  0  0
   13.9980   21.5240   18.1955 N   0  0  0  0  0  0  0  0  0  0  0  0
   13.7736   21.7767   19.1202 H   0  0  0  0  0  0  0  0  0  0  0  0
   12.5246   19.9542   18.4886 O   0  0  0  0  0  0  0  0  0  0  0  0
   11.8746   17.7921   19.0937 C   0  0  0  0  0  0  0  0  0  0  0  0
   11.4525   18.8873   21.0602 O   0  0  0  0  0  0  0  0  0  0  0  0
   10.8379   17.9432   20.1704 C   0  0  0  0  0  0  0  0  0  0  0  0
    9.7690   18.4743   19.3886 O   0  0  0  0  0  0  0  0  0  0  0  0
    9.7760   17.7671   18.1570 C   0  0  0  0  0  0  0  0  0  0  0  0
   11.2379   17.6457   17.7225 C   0  0  0  0  0  0  0  0  0  0  0  0
   12.8313   19.0134   20.6786 C   0  0  0  0  0  0  0  0  0  0  0  0
   12.9704   18.7934   19.1734 C   0  0  0  0  0  0  0  0  0  0  0  0
   16.1159   22.6245   18.4353 C   0  0  0  0  0  0  0  0  0  0  0  0
   15.7021   22.3214   19.7607 O   0  0  0  0  0  0  0  0  0  0  0  0
   14.9159   22.8448   19.9816 H   0  0  0  0  0  0  0  0  0  0  0  0
   16.4367   24.0974   18.3589 C   0  0  0  0  0  0  0  0  0  0  0  0
   17.8600   24.4009   18.5662 N   0  0  0  0  0  0  0  0  0  0  0  0
   18.4133   24.3554   20.1509 S   0  0  0  0  0  0  0  0  0  0  0  0
   17.3007   24.6907   21.1111 O   0  0  0  0  0  0  0  0  0  0  0  0
   18.7443   22.9153   20.4637 O   0  0  0  0  0  0  0  0  0  0  0  0
   19.8651   25.3151   20.2142 C   0  0  0  0  0  0  0  0  0  0  0  0
   21.1217   24.7801   19.9112 C   0  0  0  0  0  0  0  0  0  0  0  0
   22.2687   25.5954   20.0115 C   0  0  0  0  0  0  0  0  0  0  0  0
   22.1563   26.9474   20.4223 C   0  0  0  0  0  0  0  0  0  0  0  0
   20.8901   27.4653   20.7201 C   0  0  0  0  0  0  0  0  0  0  0  0
   19.7539   26.6577   20.6173 C   0  0  0  0  0  0  0  0  0  0  0  0
   23.2891   27.7737   20.5433 O   0  0  0  0  0  0  0  0  0  0  0  0
   24.5401   27.1195   20.8122 C   0  0  0  0  0  0  0  0  0  0  0  0
   18.8572   24.3269   17.4713 C   0  0  0  0  0  0  0  0  0  0  0  0
   18.7129   25.4843   16.4493 C   0  0  0  0  0  0  0  0  0  0  0  0
   19.2571   25.0123   15.0885 C   0  0  0  0  0  0  0  0  0  0  0  0
   19.5117   26.7253   16.8968 C   0  0  0  0  0  0  0  0  0  0  0  0
   14.3354   23.5448   16.8459 C   0  0  0  0  0  0  0  0  0  0  0  0
   14.7183   23.6389   15.3710 C   0  0  0  0  0  0  0  0  0  0  0  0
   15.4516   24.7466   14.9104 C   0  0  0  0  0  0  0  0  0  0  0  0
   15.8153   24.8273   13.5523 C   0  0  0  0  0  0  0  0  0  0  0  0
   15.4433   23.8008   12.6567 C   0  0  0  0  0  0  0  0  0  0  0  0
   14.7056   22.6944   13.1163 C   0  0  0  0  0  0  0  0  0  0  0  0
   14.3442   22.6097   14.4751 C   0  0  0  0  0  0  0  0  0  0  0  0
  7 12  1  0  0  0
  7 14  1  0  0  0
  7  9  1  0  0  0
  8  9  1  0  0  0
  8 13  1  0  0  0
  9 10  1  0  0  0
 10 11  1  0  0  0
 11 12  1  0  0  0
 13 14  1  0  0  0
 14  6  1  0  0  0
  6  2  1  0  0  0
  2  4  1  0  0  0
  2  3  2  0  0  0
  4  1  1  0  0  0
  1 35  1  0  0  0
  1 15  1  0  0  0
 35 36  1  0  0  0
 36 37  2  0  0  0
 36 41  1  0  0  0
 37 38  1  0  0  0
 38 39  2  0  0  0
 39 40  1  0  0  0
 40 41  2  0  0  0
 15 18  1  0  0  0
 15 16  1  0  0  0
 18 19  1  0  0  0
 19 20  1  0  0  0
 19 31  1  0  0  0
 20 22  2  0  0  0
 20 23  1  0  0  0
 20 21  2  0  0  0
 23 28  2  0  0  0
 23 24  1  0  0  0
 24 25  2  0  0  0
 25 26  1  0  0  0
 26 29  1  0  0  0
 26 27  2  0  0  0
 29 30  1  0  0  0
 27 28  1  0  0  0
 31 32  1  0  0  0
 32 34  1  0  0  0
 32 33  1  0  0  0
  4  5  1  0  0  0
 16 17  1  0  0  0
M  END
> <minimizedAffinity>
-9.11615

$$$$
2I4V_DJR_B_300


 41 44  0  0  0  0  0  0  0  0999 V2000
   18.4474   24.3361   18.2898 C   0  0  0  0  0  0  0  0  0  0  0  0
   19.4109   25.5708   16.4616 C   0  0  0  0  0  0  0  0  0  0  0  0
   19.6191   24.5729   15.7734 O   0  0  0  0  0  0  0  0  0  0  0  0
   18.8576   25.5741   17.6832 N   0  0  0  0  0  0  0  0  0  0  0  0
   18.7322   26.4236   18.1647 H   0  0  0  0  0  0  0  0  0  0  0  0
   19.7086   26.8248   16.1236 O   0  0  0  0  0  0  0  0  0  0  0  0
   21.3617   27.4827   14.6078 C   0  0  0  0  0  0  0  0  0  0  0  0
   20.2175   29.4558   14.8125 O   0  0  0  0  0  0  0  0  0  0  0  0
   21.5637   28.9576   14.8094 C   0  0  0  0  0  0  0  0  0  0  0  0
   22.1893   28.9316   16.0915 O   0  0  0  0  0  0  0  0  0  0  0  0
   23.0894   27.8331   16.0823 C   0  0  0  0  0  0  0  0  0  0  0  0
   22.3615   26.6675   15.4097 C   0  0  0  0  0  0  0  0  0  0  0  0
   19.3608   28.4024   14.3444 C   0  0  0  0  0  0  0  0  0  0  0  0
   19.9463   27.0487   14.7421 C   0  0  0  0  0  0  0  0  0  0  0  0
   17.0325   24.5428   18.8494 C   0  0  0  0  0  0  0  0  0  0  0  0
   16.9163   23.8533   20.0867 O   0  0  0  0  0  0  0  0  0  0  0  0
   17.0724   22.9065   19.9452 H   0  0  0  0  0  0  0  0  0  0  0  0
   16.0058   23.9864   17.8930 C   0  0  0  0  0  0  0  0  0  0  0  0
   16.5637   23.0394   16.9169 N   0  0  0  0  0  0  0  0  0  0  0  0
   16.5015   21.4131   17.3300 S   0  0  0  0  0  0  0  0  0  0  0  0
   17.3951   20.6017   16.4271 O   0  0  0  0  0  0  0  0  0  0  0  0
   17.1385   21.2772   18.6927 O   0  0  0  0  0  0  0  0  0  0  0  0
   14.8192   20.9729   17.4255 C   0  0  0  0  0  0  0  0  0  0  0  0
   14.2137   20.6148   18.6348 C   0  0  0  0  0  0  0  0  0  0  0  0
   12.8551   20.2349   18.6481 C   0  0  0  0  0  0  0  0  0  0  0  0
   12.1042   20.2078   17.4462 C   0  0  0  0  0  0  0  0  0  0  0  0
   12.7271   20.5706   16.2461 C   0  0  0  0  0  0  0  0  0  0  0  0
   14.0724   20.9501   16.2343 C   0  0  0  0  0  0  0  0  0  0  0  0
   10.7520   19.8175   17.4349 O   0  0  0  0  0  0  0  0  0  0  0  0
   10.1442   19.6313   16.1460 C   0  0  0  0  0  0  0  0  0  0  0  0
   16.7727   23.3951   15.4927 C   0  0  0  0  0  0  0  0  0  0  0  0
   15.7005   24.3788   14.9565 C   0  0  0  0  0  0  0  0  0  0  0  0
   14.9703   23.7166   13.7736 C   0  0  0  0  0  0  0  0  0  0  0  0
   16.3443   25.6917   14.4666 C   0  0  0  0  0  0  0  0  0  0  0  0
   19.4529   23.9198   19.3944 C   0  0  0  0  0  0  0  0  0  0  0  0
   20.3118   25.1237   19.7735 C   0  0  0  0  0  0  0  0  0  0  0  0
   19.8220   26.0677   20.6933 C   0  0  0  0  0  0  0  0  0  0  0  0
   20.6192   27.1716   21.0522 C   0  0  0  0  0  0  0  0  0  0  0  0
   21.9045   27.3307   20.4891 C   0  0  0  0  0  0  0  0  0  0  0  0
   22.3932   26.3888   19.5652 C   0  0  0  0  0  0  0  0  0  0  0  0
   21.5990   25.2818   19.2078 C   0  0  0  0  0  0  0  0  0  0  0  0
  7 12  1  0  0  0
  7 14  1  0  0  0
  7  9  1  0  0  0
  8  9  1  0  0  0
  8 13  1  0  0  0
  9 10  1  0  0  0
 10 11  1  0  0  0
 11 12  1  0  0  0
 13 14  1  0  0  0
 14  6  1  0  0  0
  6  2  1  0  0  0
  2  4  1  0  0  0
  2  3  2  0  0  0
  4  1  1  0  0  0
  1 35  1  0  0  0
  1 15  1  0  0  0
 35 36  1  0  0  0
 36 37  2  0  0  0
 36 41  1  0  0  0
 37 38  1  0  0  0
 38 39  2  0  0  0
 39 40  1  0  0  0
 40 41  2  0  0  0
 15 18  1  0  0  0
 15 16  1  0  0  0
 18 19  1  0  0  0
 19 20  1  0  0  0
 19 31  1  0  0  0
 20 22  2  0  0  0
 20 23  1  0  0  0
 20 21  2  0  0  0
 23 28  2  0  0  0
 23 24  1  0  0  0
 24 25  2  0  0  0
 25 26  1  0  0  0
 26 29  1  0  0  0
 26 27  2  0  0  0
 29 30  1  0  0  0
 27 28  1  0  0  0
 31 32  1  0  0  0
 32 34  1  0  0  0
 32 33  1  0  0  0
  4  5  1  0  0  0
 16 17  1  0  0  0
M  END
> <minimizedAffinity>
-9.07209

$$$$
2I4V_DJR_B_300


 41 44  0  0  0  0  0  0  0  0999 V2000
   12.4435   20.0240   16.5665 C   0  0  0  0  0  0  0  0  0  0  0  0
   10.1540   19.3158   16.3392 C   0  0  0  0  0  0  0  0  0  0  0  0
    9.7132   20.1769   17.0986 O   0  0  0  0  0  0  0  0  0  0  0  0
   11.4445   19.1485   16.0148 N   0  0  0  0  0  0  0  0  0  0  0  0
   11.7080   18.4268   15.3992 H   0  0  0  0  0  0  0  0  0  0  0  0
    9.4319   18.3873   15.7131 O   0  0  0  0  0  0  0  0  0  0  0  0
    9.5752   16.2956   14.6801 C   0  0  0  0  0  0  0  0  0  0  0  0
    7.6410   16.0065   15.8717 O   0  0  0  0  0  0  0  0  0  0  0  0
    8.1684   15.7833   14.5554 C   0  0  0  0  0  0  0  0  0  0  0  0
    7.6823   16.6840   13.5612 O   0  0  0  0  0  0  0  0  0  0  0  0
    8.7294   16.8499   12.6163 C   0  0  0  0  0  0  0  0  0  0  0  0
   10.0271   17.0000   13.4125 C   0  0  0  0  0  0  0  0  0  0  0  0
    8.7433   16.3245   16.7358 C   0  0  0  0  0  0  0  0  0  0  0  0
    9.8302   17.0437   15.9391 C   0  0  0  0  0  0  0  0  0  0  0  0
   13.0937   20.7774   15.3971 C   0  0  0  0  0  0  0  0  0  0  0  0
   13.2375   19.8911   14.2954 O   0  0  0  0  0  0  0  0  0  0  0  0
   13.8015   19.1449   14.5522 H   0  0  0  0  0  0  0  0  0  0  0  0
   14.4624   21.2755   15.7926 C   0  0  0  0  0  0  0  0  0  0  0  0
   14.5246   22.7311   15.9886 N   0  0  0  0  0  0  0  0  0  0  0  0
   15.2672   23.2671   17.3960 S   0  0  0  0  0  0  0  0  0  0  0  0
   14.2881   24.0226   18.2579 O   0  0  0  0  0  0  0  0  0  0  0  0
   15.6045   22.0426   18.2133 O   0  0  0  0  0  0  0  0  0  0  0  0
   16.7352   24.0766   16.9241 C   0  0  0  0  0  0  0  0  0  0  0  0
   16.8754   25.4661   17.0065 C   0  0  0  0  0  0  0  0  0  0  0  0
   18.0757   26.0719   16.5790 C   0  0  0  0  0  0  0  0  0  0  0  0
   19.1345   25.2838   16.0621 C   0  0  0  0  0  0  0  0  0  0  0  0
   18.9760   23.8948   15.9885 C   0  0  0  0  0  0  0  0  0  0  0  0
   17.7877   23.2951   16.4154 C   0  0  0  0  0  0  0  0  0  0  0  0
   20.3342   25.8691   15.6162 O   0  0  0  0  0  0  0  0  0  0  0  0
   20.3768   27.3051   15.5768 C   0  0  0  0  0  0  0  0  0  0  0  0
   14.3580   23.6923   14.8719 C   0  0  0  0  0  0  0  0  0  0  0  0
   15.4284   23.5158   13.7638 C   0  0  0  0  0  0  0  0  0  0  0  0
   15.9701   24.9036   13.3748 C   0  0  0  0  0  0  0  0  0  0  0  0
   14.8267   22.8512   12.5090 C   0  0  0  0  0  0  0  0  0  0  0  0
   13.4818   19.2092   17.3804 C   0  0  0  0  0  0  0  0  0  0  0  0
   12.8282   18.6974   18.6617 C   0  0  0  0  0  0  0  0  0  0  0  0
   12.8411   19.4970   19.8183 C   0  0  0  0  0  0  0  0  0  0  0  0
   12.2276   19.0300   20.9967 C   0  0  0  0  0  0  0  0  0  0  0  0
   11.6037   17.7632   21.0170 C   0  0  0  0  0  0  0  0  0  0  0  0
   11.5945   16.9610   19.8612 C   0  0  0  0  0  0  0  0  0  0  0  0
   12.2042   17.4278   18.6803 C   0  0  0  0  0  0  0  0  0  0  0  0
  7 12  1  0  0  0
  7 14  1  0  0  0
  7  9  1  0  0  0
  8  9  1  0  0  0
  8 13  1  0  0  0
  9 10  1  0  0  0
 10 11  1  0  0  0
 11 12  1  0  0  0
 13 14  1  0  0  0
 14  6  1  0  0  0
  6  2  1  0  0  0
  2  4  1  0  0  0
  2  3  2  0  0  0
  4  1  1  0  0  0
  1 35  1  0  0  0
  1 15  1  0  0  0
 35 36  1  0  0  0
 36 37  2  0  0  0
 36 41  1  0  0  0
 37 38  1  0  0  0
 38 39  2  0  0  0
 39 40  1  0  0  0
 40 41  2  0  0  0
 15 18  1  0  0  0
 15 16  1  0  0  0
 18 19  1  0  0  0
 19 20  1  0  0  0
 19 31  1  0  0  0
 20 22  2  0  0  0
 20 23  1  0  0  0
 20 21  2  0  0  0
 23 28  2  0  0  0
 23 24  1  0  0  0
 24 25  2  0  0  0
 25 26  1  0  0  0
 26 29  1  0  0  0
 26 27  2  0  0  0
 29 30  1  0  0  0
 27 28  1  0  0  0
 31 32  1  0  0  0
 32 34  1  0  0  0
 32 33  1  0  0  0
  4  5  1  0  0  0
 16 17  1  0  0  0
M  END
> <minimizedAffinity>
-9.03459

$$$$
2I4V_DJR_B_300


 41 44  0  0  0  0  0  0  0  0999 V2000
   12.3764   20.4316   16.8601 C   0  0  0  0  0  0  0  0  0  0  0  0
   10.1722   19.6845   16.2447 C   0  0  0  0  0  0  0  0  0  0  0  0
    9.6605   20.0092   17.3150 O   0  0  0  0  0  0  0  0  0  0  0  0
   11.4643   19.8378   15.9197 N   0  0  0  0  0  0  0  0  0  0  0  0
   11.7884   19.5440   15.0377 H   0  0  0  0  0  0  0  0  0  0  0  0
    9.5391   19.1111   15.2221 O   0  0  0  0  0  0  0  0  0  0  0  0
    9.9335   18.1247   13.1401 C   0  0  0  0  0  0  0  0  0  0  0  0
    8.3096   16.7180   13.9330 O   0  0  0  0  0  0  0  0  0  0  0  0
    8.6563   17.4411   12.7423 C   0  0  0  0  0  0  0  0  0  0  0  0
    7.8486   18.5900   12.4900 O   0  0  0  0  0  0  0  0  0  0  0  0
    8.6785   19.5323   11.8265 C   0  0  0  0  0  0  0  0  0  0  0  0
   10.0290   19.5190   12.5452 C   0  0  0  0  0  0  0  0  0  0  0  0
    9.4482   16.7457   14.8079 C   0  0  0  0  0  0  0  0  0  0  0  0
   10.2291   18.0410   14.5945 C   0  0  0  0  0  0  0  0  0  0  0  0
   13.1282   21.5531   16.1287 C   0  0  0  0  0  0  0  0  0  0  0  0
   12.6416   21.6475   14.7967 O   0  0  0  0  0  0  0  0  0  0  0  0
   12.7905   20.8061   14.3376 H   0  0  0  0  0  0  0  0  0  0  0  0
   14.6050   21.2456   16.0781 C   0  0  0  0  0  0  0  0  0  0  0  0
   15.4579   22.4390   16.1753 N   0  0  0  0  0  0  0  0  0  0  0  0
   15.5461   23.4109   14.8089 S   0  0  0  0  0  0  0  0  0  0  0  0
   15.2908   22.6002   13.5639 O   0  0  0  0  0  0  0  0  0  0  0  0
   14.3781   24.3666   14.8685 O   0  0  0  0  0  0  0  0  0  0  0  0
   17.0374   24.3044   14.9113 C   0  0  0  0  0  0  0  0  0  0  0  0
   18.1803   23.7729   15.5182 C   0  0  0  0  0  0  0  0  0  0  0  0
   19.3518   24.5544   15.6026 C   0  0  0  0  0  0  0  0  0  0  0  0
   19.3754   25.8732   15.0834 C   0  0  0  0  0  0  0  0  0  0  0  0
   18.2222   26.3874   14.4786 C   0  0  0  0  0  0  0  0  0  0  0  0
   17.0629   25.6111   14.3924 C   0  0  0  0  0  0  0  0  0  0  0  0
   20.5287   26.6752   15.1705 O   0  0  0  0  0  0  0  0  0  0  0  0
   20.6114   27.7882   14.2651 C   0  0  0  0  0  0  0  0  0  0  0  0
   15.8735   23.0163   17.4763 C   0  0  0  0  0  0  0  0  0  0  0  0
   16.4279   21.9498   18.4562 C   0  0  0  0  0  0  0  0  0  0  0  0
   15.4572   21.8185   19.6441 C   0  0  0  0  0  0  0  0  0  0  0  0
   17.8149   22.3555   18.9945 C   0  0  0  0  0  0  0  0  0  0  0  0
   13.3422   19.3574   17.4235 C   0  0  0  0  0  0  0  0  0  0  0  0
   12.7212   18.7235   18.6658 C   0  0  0  0  0  0  0  0  0  0  0  0
   12.0559   17.4892   18.5602 C   0  0  0  0  0  0  0  0  0  0  0  0
   11.4938   16.8986   19.7084 C   0  0  0  0  0  0  0  0  0  0  0  0
   11.5963   17.5443   20.9601 C   0  0  0  0  0  0  0  0  0  0  0  0
   12.2580   18.7815   21.0654 C   0  0  0  0  0  0  0  0  0  0  0  0
   12.8244   19.3722   19.9189 C   0  0  0  0  0  0  0  0  0  0  0  0
  7 12  1  0  0  0
  7 14  1  0  0  0
  7  9  1  0  0  0
  8  9  1  0  0  0
  8 13  1  0  0  0
  9 10  1  0  0  0
 10 11  1  0  0  0
 11 12  1  0  0  0
 13 14  1  0  0  0
 14  6  1  0  0  0
  6  2  1  0  0  0
  2  4  1  0  0  0
  2  3  2  0  0  0
  4  1  1  0  0  0
  1 35  1  0  0  0
  1 15  1  0  0  0
 35 36  1  0  0  0
 36 37  2  0  0  0
 36 41  1  0  0  0
 37 38  1  0  0  0
 38 39  2  0  0  0
 39 40  1  0  0  0
 40 41  2  0  0  0
 15 18  1  0  0  0
 15 16  1  0  0  0
 18 19  1  0  0  0
 19 20  1  0  0  0
 19 31  1  0  0  0
 20 22  2  0  0  0
 20 23  1  0  0  0
 20 21  2  0  0  0
 23 28  2  0  0  0
 23 24  1  0  0  0
 24 25  2  0  0  0
 25 26  1  0  0  0
 26 29  1  0  0  0
 26 27  2  0  0  0
 29 30  1  0  0  0
 27 28  1  0  0  0
 31 32  1  0  0  0
 32 34  1  0  0  0
 32 33  1  0  0  0
  4  5  1  0  0  0
 16 17  1  0  0  0
M  END
> <minimizedAffinity>
-8.94131

$$$$
2I4V_DJR_B_300


 41 44  0  0  0  0  0  0  0  0999 V2000
   15.9775   24.7799   16.1563 C   0  0  0  0  0  0  0  0  0  0  0  0
   17.5619   26.2085   15.0409 C   0  0  0  0  0  0  0  0  0  0  0  0
   17.0255   26.1019   13.9393 O   0  0  0  0  0  0  0  0  0  0  0  0
   17.1469   25.6173   16.1709 N   0  0  0  0  0  0  0  0  0  0  0  0
   17.6425   25.7563   17.0101 H   0  0  0  0  0  0  0  0  0  0  0  0
   18.6573   26.9187   15.3073 O   0  0  0  0  0  0  0  0  0  0  0  0
   20.8856   27.2152   14.6670 C   0  0  0  0  0  0  0  0  0  0  0  0
   20.2578   29.4044   14.9067 O   0  0  0  0  0  0  0  0  0  0  0  0
   21.3313   28.5203   15.2626 C   0  0  0  0  0  0  0  0  0  0  0  0
   21.3607   28.1475   16.6395 O   0  0  0  0  0  0  0  0  0  0  0  0
   21.9005   26.8351   16.6937 C   0  0  0  0  0  0  0  0  0  0  0  0
   21.2532   26.0408   15.5576 C   0  0  0  0  0  0  0  0  0  0  0  0
   19.4405   28.7307   13.9367 C   0  0  0  0  0  0  0  0  0  0  0  0
   19.4778   27.2248   14.1900 C   0  0  0  0  0  0  0  0  0  0  0  0
   15.7637   24.2607   17.5854 C   0  0  0  0  0  0  0  0  0  0  0  0
   14.4846   24.6763   18.0448 O   0  0  0  0  0  0  0  0  0  0  0  0
   14.4395   25.6452   18.0431 H   0  0  0  0  0  0  0  0  0  0  0  0
   16.8124   24.8291   18.5103 C   0  0  0  0  0  0  0  0  0  0  0  0
   17.4263   23.8250   19.3911 N   0  0  0  0  0  0  0  0  0  0  0  0
   17.5359   22.2629   18.7851 S   0  0  0  0  0  0  0  0  0  0  0  0
   18.1814   22.2662   17.4229 O   0  0  0  0  0  0  0  0  0  0  0  0
   18.5212   21.5183   19.6546 O   0  0  0  0  0  0  0  0  0  0  0  0
   15.9586   21.5414   18.9407 C   0  0  0  0  0  0  0  0  0  0  0  0
   15.1755   21.7104   20.0876 C   0  0  0  0  0  0  0  0  0  0  0  0
   13.9187   21.0751   20.1730 C   0  0  0  0  0  0  0  0  0  0  0  0
   13.4491   20.2641   19.1096 C   0  0  0  0  0  0  0  0  0  0  0  0
   14.2465   20.1078   17.9694 C   0  0  0  0  0  0  0  0  0  0  0  0
   15.4901   20.7403   17.8843 C   0  0  0  0  0  0  0  0  0  0  0  0
   12.2053   19.6093   19.1805 O   0  0  0  0  0  0  0  0  0  0  0  0
   11.9326   18.8692   20.3818 C   0  0  0  0  0  0  0  0  0  0  0  0
   18.2859   24.1945   20.5415 C   0  0  0  0  0  0  0  0  0  0  0  0
   19.4193   25.1786   20.1518 C   0  0  0  0  0  0  0  0  0  0  0  0
   20.3906   24.4602   19.1972 C   0  0  0  0  0  0  0  0  0  0  0  0
   20.2036   25.6452   21.3948 C   0  0  0  0  0  0  0  0  0  0  0  0
   16.1577   23.6229   15.1398 C   0  0  0  0  0  0  0  0  0  0  0  0
   14.8218   22.9098   14.9459 C   0  0  0  0  0  0  0  0  0  0  0  0
   14.8027   21.5554   14.5686 C   0  0  0  0  0  0  0  0  0  0  0  0
   13.5705   20.8944   14.4017 C   0  0  0  0  0  0  0  0  0  0  0  0
   12.3592   21.5897   14.6107 C   0  0  0  0  0  0  0  0  0  0  0  0
   12.3777   22.9462   14.9838 C   0  0  0  0  0  0  0  0  0  0  0  0
   13.6092   23.6082   15.1551 C   0  0  0  0  0  0  0  0  0  0  0  0
  7 12  1  0  0  0
  7 14  1  0  0  0
  7  9  1  0  0  0
  8  9  1  0  0  0
  8 13  1  0  0  0
  9 10  1  0  0  0
 10 11  1  0  0  0
 11 12  1  0  0  0
 13 14  1  0  0  0
 14  6  1  0  0  0
  6  2  1  0  0  0
  2  4  1  0  0  0
  2  3  2  0  0  0
  4  1  1  0  0  0
  1 35  1  0  0  0
  1 15  1  0  0  0
 35 36  1  0  0  0
 36 37  2  0  0  0
 36 41  1  0  0  0
 37 38  1  0  0  0
 38 39  2  0  0  0
 39 40  1  0  0  0
 40 41  2  0  0  0
 15 18  1  0  0  0
 15 16  1  0  0  0
 18 19  1  0  0  0
 19 20  1  0  0  0
 19 31  1  0  0  0
 20 22  2  0  0  0
 20 23  1  0  0  0
 20 21  2  0  0  0
 23 28  2  0  0  0
 23 24  1  0  0  0
 24 25  2  0  0  0
 25 26  1  0  0  0
 26 29  1  0  0  0
 26 27  2  0  0  0
 29 30  1  0  0  0
 27 28  1  0  0  0
 31 32  1  0  0  0
 32 34  1  0  0  0
 32 33  1  0  0  0
  4  5  1  0  0  0
 16 17  1  0  0  0
M  END
> <minimizedAffinity>
-8.82761

$$$$
2I4V_DJR_B_300


 41 44  0  0  0  0  0  0  0  0999 V2000
   12.3968   20.3301   16.6829 C   0  0  0  0  0  0  0  0  0  0  0  0
   10.1705   19.6284   16.0940 C   0  0  0  0  0  0  0  0  0  0  0  0
    9.6728   19.9911   17.1585 O   0  0  0  0  0  0  0  0  0  0  0  0
   11.4647   19.7395   15.7602 N   0  0  0  0  0  0  0  0  0  0  0  0
   11.7767   19.4170   14.8839 H   0  0  0  0  0  0  0  0  0  0  0  0
    9.5176   19.0489   15.0874 O   0  0  0  0  0  0  0  0  0  0  0  0
    9.8484   17.9993   13.0253 C   0  0  0  0  0  0  0  0  0  0  0  0
    8.2342   16.6310   13.9009 O   0  0  0  0  0  0  0  0  0  0  0  0
    8.5554   17.3163   12.6812 C   0  0  0  0  0  0  0  0  0  0  0  0
    7.7511   18.4649   12.4169 O   0  0  0  0  0  0  0  0  0  0  0  0
    8.5710   19.3800   11.7048 C   0  0  0  0  0  0  0  0  0  0  0  0
    9.9400   19.3750   12.3879 C   0  0  0  0  0  0  0  0  0  0  0  0
    9.3958   16.6734   14.7445 C   0  0  0  0  0  0  0  0  0  0  0  0
   10.1817   17.9548   14.4733 C   0  0  0  0  0  0  0  0  0  0  0  0
   13.1802   21.4086   15.9207 C   0  0  0  0  0  0  0  0  0  0  0  0
   13.0355   21.1889   14.5241 O   0  0  0  0  0  0  0  0  0  0  0  0
   13.3861   20.3136   14.2964 H   0  0  0  0  0  0  0  0  0  0  0  0
   14.6471   21.3326   16.2679 C   0  0  0  0  0  0  0  0  0  0  0  0
   15.2790   22.6483   16.4429 N   0  0  0  0  0  0  0  0  0  0  0  0
   15.2546   23.2914   17.9937 S   0  0  0  0  0  0  0  0  0  0  0  0
   14.2805   24.4388   18.0770 O   0  0  0  0  0  0  0  0  0  0  0  0
   14.6594   22.2402   18.9003 O   0  0  0  0  0  0  0  0  0  0  0  0
   16.9086   23.5882   18.4512 C   0  0  0  0  0  0  0  0  0  0  0  0
   17.6310   22.6910   19.2450 C   0  0  0  0  0  0  0  0  0  0  0  0
   18.9578   22.9984   19.6130 C   0  0  0  0  0  0  0  0  0  0  0  0
   19.5590   24.2103   19.1896 C   0  0  0  0  0  0  0  0  0  0  0  0
   18.8207   25.0950   18.3947 C   0  0  0  0  0  0  0  0  0  0  0  0
   17.5072   24.7881   18.0278 C   0  0  0  0  0  0  0  0  0  0  0  0
   20.8760   24.5433   19.5578 O   0  0  0  0  0  0  0  0  0  0  0  0
   21.0488   25.1763   20.8364 C   0  0  0  0  0  0  0  0  0  0  0  0
   16.2505   23.2005   15.4683 C   0  0  0  0  0  0  0  0  0  0  0  0
   15.6348   24.3004   14.5650 C   0  0  0  0  0  0  0  0  0  0  0  0
   15.2506   23.6715   13.2131 C   0  0  0  0  0  0  0  0  0  0  0  0
   16.6416   25.4405   14.3107 C   0  0  0  0  0  0  0  0  0  0  0  0
   13.3313   19.2424   17.2728 C   0  0  0  0  0  0  0  0  0  0  0  0
   12.7177   18.6946   18.5590 C   0  0  0  0  0  0  0  0  0  0  0  0
   12.0194   17.4744   18.5338 C   0  0  0  0  0  0  0  0  0  0  0  0
   11.4640   16.9632   19.7226 C   0  0  0  0  0  0  0  0  0  0  0  0
   11.6064   17.6741   20.9345 C   0  0  0  0  0  0  0  0  0  0  0  0
   12.3011   18.8973   20.9593 C   0  0  0  0  0  0  0  0  0  0  0  0
   12.8608   19.4086   19.7721 C   0  0  0  0  0  0  0  0  0  0  0  0
  7 12  1  0  0  0
  7 14  1  0  0  0
  7  9  1  0  0  0
  8  9  1  0  0  0
  8 13  1  0  0  0
  9 10  1  0  0  0
 10 11  1  0  0  0
 11 12  1  0  0  0
 13 14  1  0  0  0
 14  6  1  0  0  0
  6  2  1  0  0  0
  2  4  1  0  0  0
  2  3  2  0  0  0
  4  1  1  0  0  0
  1 35  1  0  0  0
  1 15  1  0  0  0
 35 36  1  0  0  0
 36 37  2  0  0  0
 36 41  1  0  0  0
 37 38  1  0  0  0
 38 39  2  0  0  0
 39 40  1  0  0  0
 40 41  2  0  0  0
 15 18  1  0  0  0
 15 16  1  0  0  0
 18 19  1  0  0  0
 19 20  1  0  0  0
 19 31  1  0  0  0
 20 22  2  0  0  0
 20 23  1  0  0  0
 20 21  2  0  0  0
 23 28  2  0  0  0
 23 24  1  0  0  0
 24 25  2  0  0  0
 25 26  1  0  0  0
 26 29  1  0  0  0
 26 27  2  0  0  0
 29 30  1  0  0  0
 27 28  1  0  0  0
 31 32  1  0  0  0
 32 34  1  0  0  0
 32 33  1  0  0  0
  4  5  1  0  0  0
 16 17  1  0  0  0
M  END
> <minimizedAffinity>
-8.80585

$$$$
2I4V_DJR_B_300


 41 44  0  0  0  0  0  0  0  0999 V2000
   18.2451   24.2563   18.4953 C   0  0  0  0  0  0  0  0  0  0  0  0
   19.2176   25.4301   16.6321 C   0  0  0  0  0  0  0  0  0  0  0  0
   19.5173   24.4055   16.0214 O   0  0  0  0  0  0  0  0  0  0  0  0
   18.6084   25.4765   17.8259 N   0  0  0  0  0  0  0  0  0  0  0  0
   18.4099   26.3454   18.2440 H   0  0  0  0  0  0  0  0  0  0  0  0
   19.4553   26.6762   16.2246 O   0  0  0  0  0  0  0  0  0  0  0  0
   21.0168   27.3181   14.6082 C   0  0  0  0  0  0  0  0  0  0  0  0
   19.8121   29.2587   14.7740 O   0  0  0  0  0  0  0  0  0  0  0  0
   21.1741   28.8069   14.7334 C   0  0  0  0  0  0  0  0  0  0  0  0
   21.8547   28.8624   15.9862 O   0  0  0  0  0  0  0  0  0  0  0  0
   22.7926   27.7960   15.9868 C   0  0  0  0  0  0  0  0  0  0  0  0
   22.0789   26.5760   15.4009 C   0  0  0  0  0  0  0  0  0  0  0  0
   18.9747   28.1558   14.3929 C   0  0  0  0  0  0  0  0  0  0  0  0
   19.6251   26.8431   14.8251 C   0  0  0  0  0  0  0  0  0  0  0  0
   16.7869   23.9450   18.1282 C   0  0  0  0  0  0  0  0  0  0  0  0
   16.1020   23.4912   19.2879 O   0  0  0  0  0  0  0  0  0  0  0  0
   16.5296   22.6872   19.6220 H   0  0  0  0  0  0  0  0  0  0  0  0
   16.7318   22.8573   17.0833 C   0  0  0  0  0  0  0  0  0  0  0  0
   15.4153   22.7228   16.4432 N   0  0  0  0  0  0  0  0  0  0  0  0
   14.3350   21.6602   17.1665 S   0  0  0  0  0  0  0  0  0  0  0  0
   15.0605   20.7073   18.0819 O   0  0  0  0  0  0  0  0  0  0  0  0
   13.4691   22.4743   18.0984 O   0  0  0  0  0  0  0  0  0  0  0  0
   13.3524   20.9856   15.8967 C   0  0  0  0  0  0  0  0  0  0  0  0
   12.0059   20.6613   16.0936 C   0  0  0  0  0  0  0  0  0  0  0  0
   11.2661   20.0861   15.0389 C   0  0  0  0  0  0  0  0  0  0  0  0
   11.8792   19.8299   13.7868 C   0  0  0  0  0  0  0  0  0  0  0  0
   13.2274   20.1624   13.6083 C   0  0  0  0  0  0  0  0  0  0  0  0
   13.9586   20.7353   14.6528 C   0  0  0  0  0  0  0  0  0  0  0  0
   11.1638   19.2432   12.7263 O   0  0  0  0  0  0  0  0  0  0  0  0
   11.5975   17.9424   12.2962 C   0  0  0  0  0  0  0  0  0  0  0  0
   14.8805   23.7365   15.5023 C   0  0  0  0  0  0  0  0  0  0  0  0
   15.8438   24.0266   14.3221 C   0  0  0  0  0  0  0  0  0  0  0  0
   16.2626   25.5072   14.3790 C   0  0  0  0  0  0  0  0  0  0  0  0
   15.1599   23.7588   12.9661 C   0  0  0  0  0  0  0  0  0  0  0  0
   18.4386   24.4052   20.0265 C   0  0  0  0  0  0  0  0  0  0  0  0
   19.8029   25.0321   20.3033 C   0  0  0  0  0  0  0  0  0  0  0  0
   19.8958   26.1587   21.1395 C   0  0  0  0  0  0  0  0  0  0  0  0
   21.1556   26.7295   21.4046 C   0  0  0  0  0  0  0  0  0  0  0  0
   22.3204   26.1736   20.8314 C   0  0  0  0  0  0  0  0  0  0  0  0
   22.2274   25.0491   19.9910 C   0  0  0  0  0  0  0  0  0  0  0  0
   20.9687   24.4742   19.7277 C   0  0  0  0  0  0  0  0  0  0  0  0
  7 12  1  0  0  0
  7 14  1  0  0  0
  7  9  1  0  0  0
  8  9  1  0  0  0
  8 13  1  0  0  0
  9 10  1  0  0  0
 10 11  1  0  0  0
 11 12  1  0  0  0
 13 14  1  0  0  0
 14  6  1  0  0  0
  6  2  1  0  0  0
  2  4  1  0  0  0
  2  3  2  0  0  0
  4  1  1  0  0  0
  1 35  1  0  0  0
  1 15  1  0  0  0
 35 36  1  0  0  0
 36 37  2  0  0  0
 36 41  1  0  0  0
 37 38  1  0  0  0
 38 39  2  0  0  0
 39 40  1  0  0  0
 40 41  2  0  0  0
 15 18  1  0  0  0
 15 16  1  0  0  0
 18 19  1  0  0  0
 19 20  1  0  0  0
 19 31  1  0  0  0
 20 22  2  0  0  0
 20 23  1  0  0  0
 20 21  2  0  0  0
 23 28  2  0  0  0
 23 24  1  0  0  0
 24 25  2  0  0  0
 25 26  1  0  0  0
 26 29  1  0  0  0
 26 27  2  0  0  0
 29 30  1  0  0  0
 27 28  1  0  0  0
 31 32  1  0  0  0
 32 34  1  0  0  0
 32 33  1  0  0  0
  4  5  1  0  0  0
 16 17  1  0  0  0
M  END
> <minimizedAffinity>
-8.73063

$$$$
