2WYJ_898_A_1244


 31 33  0  0  0  0  0  0  0  0999 V2000
    5.5224    6.9224   22.1574 C   0  0  0  0  0  0  0  0  0  0  0  0
    4.3670    6.7061   21.1854 C   0  0  0  0  0  0  0  0  0  0  0  0
    4.6707    5.3486   20.5305 C   0  0  0  0  0  0  0  0  0  0  0  0
    6.6485    6.1113   21.5373 C   0  0  0  0  0  0  0  0  0  0  0  0
    7.8463    6.2389   21.7231 O   0  0  0  0  0  0  0  0  0  0  0  0
    6.1117    5.1873   20.7229 N   0  0  0  0  0  0  0  0  0  0  0  0
    6.8659    4.1389   20.1254 C   0  0  0  0  0  0  0  0  0  0  0  0
    6.7294    2.8073   20.5420 C   0  0  0  0  0  0  0  0  0  0  0  0
    5.8747    2.4922   21.5122 F   0  0  0  0  0  0  0  0  0  0  0  0
    7.7672    4.4787   19.0979 C   0  0  0  0  0  0  0  0  0  0  0  0
    8.5107    3.4432   18.5114 C   0  0  0  0  0  0  0  0  0  0  0  0
    8.3661    2.1074   18.9527 C   0  0  0  0  0  0  0  0  0  0  0  0
    7.4645    1.7827   19.9773 C   0  0  0  0  0  0  0  0  0  0  0  0
    9.1737    1.0083   18.3366 C   0  0  0  0  0  0  0  0  0  0  0  0
   10.4661    1.5586   17.7105 C   0  0  0  0  0  0  0  0  0  0  0  0
    8.3669    0.2158   17.3432 N   0  0  0  0  0  0  0  0  0  0  0  0
    7.6719    1.0549   16.3480 C   0  0  0  0  0  0  0  0  0  0  0  0
    9.0477   -0.9196   16.6633 C   0  0  0  0  0  0  0  0  0  0  0  0
    5.8762    8.3219   22.3139 N   0  0  0  0  0  0  0  0  0  0  0  0
    6.6522    8.4799   21.6711 H   0  0  0  0  0  0  0  0  0  0  0  0
    6.3227    9.0182   23.7116 S   0  0  0  0  0  0  0  0  0  0  0  0
    6.8871   10.2435   23.2513 O   0  0  0  0  0  0  0  0  0  0  0  0
    5.2077    9.0306   24.6307 O   0  0  0  0  0  0  0  0  0  0  0  0
    8.6597    8.8050   24.9350 C   0  0  0  0  0  0  0  0  0  0  0  0
    7.5770    8.1314   24.5172 C   0  0  0  0  0  0  0  0  0  0  0  0
   13.7837    7.2730   26.4174 Cl  0  0  0  0  0  0  0  0  0  0  0  0
   12.0619    7.5386   26.3410 C   0  0  0  0  0  0  0  0  0  0  0  0
   11.1186    7.1321   27.2305 C   0  0  0  0  0  0  0  0  0  0  0  0
    9.8012    7.5234   26.8398 C   0  0  0  0  0  0  0  0  0  0  0  0
   11.4234    8.3988   25.0203 S   0  0  0  0  0  0  0  0  0  0  0  0
    9.8242    8.2491   25.6027 C   0  0  0  0  0  0  0  0  0  0  0  0
 26 27  1  0  0  0
 27 28  2  0  0  0
 27 30  1  0  0  0
 28 29  1  0  0  0
 29 31  2  0  0  0
 30 31  1  0  0  0
 31 24  1  0  0  0
 24 25  2  0  0  0
 25 21  1  0  0  0
 21 22  2  0  0  0
 21 23  2  0  0  0
 21 19  1  0  0  0
 19  1  1  0  0  0
  1  2  1  0  0  0
  1  4  1  0  0  0
  2  3  1  0  0  0
  3  6  1  0  0  0
  4  5  2  0  0  0
  4  6  1  0  0  0
  6  7  1  0  0  0
  7  8  1  0  0  0
  7 10  2  0  0  0
  8  9  1  0  0  0
  8 13  2  0  0  0
 10 11  1  0  0  0
 11 12  2  0  0  0
 12 13  1  0  0  0
 12 14  1  0  0  0
 14 15  1  0  0  0
 14 16  1  0  0  0
 16 17  1  0  0  0
 16 18  1  0  0  0
 19 20  1  0  0  0
M  END
> <minimizedAffinity>
-8.95739

$$$$
2WYJ_898_A_1244


 31 33  0  0  0  0  0  0  0  0999 V2000
    5.9533    6.9852   19.0350 C   0  0  0  0  0  0  0  0  0  0  0  0
    4.8756    7.9013   19.6057 C   0  0  0  0  0  0  0  0  0  0  0  0
    5.5698    8.6233   20.7723 C   0  0  0  0  0  0  0  0  0  0  0  0
    6.8648    6.7437   20.2272 C   0  0  0  0  0  0  0  0  0  0  0  0
    7.6461    5.8228   20.3912 O   0  0  0  0  0  0  0  0  0  0  0  0
    6.6834    7.7380   21.1124 N   0  0  0  0  0  0  0  0  0  0  0  0
    7.5091    7.9271   22.2558 C   0  0  0  0  0  0  0  0  0  0  0  0
    7.0996    7.5179   23.5325 C   0  0  0  0  0  0  0  0  0  0  0  0
    5.9179    6.9296   23.7014 F   0  0  0  0  0  0  0  0  0  0  0  0
    8.7594    8.5485   22.0700 C   0  0  0  0  0  0  0  0  0  0  0  0
    9.5710    8.7351   23.1993 C   0  0  0  0  0  0  0  0  0  0  0  0
    9.1356    8.3244   24.4806 C   0  0  0  0  0  0  0  0  0  0  0  0
    7.8877    7.7065   24.6516 C   0  0  0  0  0  0  0  0  0  0  0  0
    9.9968    8.5410   25.6853 C   0  0  0  0  0  0  0  0  0  0  0  0
   10.9340    9.7435   25.4836 C   0  0  0  0  0  0  0  0  0  0  0  0
   10.7587    7.2964   26.0546 N   0  0  0  0  0  0  0  0  0  0  0  0
   12.2228    7.4804   26.0484 C   0  0  0  0  0  0  0  0  0  0  0  0
   10.3417    6.5843   27.2930 C   0  0  0  0  0  0  0  0  0  0  0  0
    5.4173    5.7485   18.4949 N   0  0  0  0  0  0  0  0  0  0  0  0
    5.9131    5.0017   18.9814 H   0  0  0  0  0  0  0  0  0  0  0  0
    5.4389    5.3320   16.9252 S   0  0  0  0  0  0  0  0  0  0  0  0
    4.1297    4.7944   16.7557 O   0  0  0  0  0  0  0  0  0  0  0  0
    5.8736    6.4549   16.1264 O   0  0  0  0  0  0  0  0  0  0  0  0
    7.2004    3.4893   17.6363 C   0  0  0  0  0  0  0  0  0  0  0  0
    6.5749    4.0629   16.5969 C   0  0  0  0  0  0  0  0  0  0  0  0
    9.9959   -1.2187   16.7309 Cl  0  0  0  0  0  0  0  0  0  0  0  0
    9.5152    0.3890   17.2053 C   0  0  0  0  0  0  0  0  0  0  0  0
   10.2651    1.3260   17.8426 C   0  0  0  0  0  0  0  0  0  0  0  0
    9.5377    2.5329   18.0788 C   0  0  0  0  0  0  0  0  0  0  0  0
    7.9319    0.9057   16.8615 S   0  0  0  0  0  0  0  0  0  0  0  0
    8.1983    2.4351   17.5751 C   0  0  0  0  0  0  0  0  0  0  0  0
 26 27  1  0  0  0
 27 28  2  0  0  0
 27 30  1  0  0  0
 28 29  1  0  0  0
 29 31  2  0  0  0
 30 31  1  0  0  0
 31 24  1  0  0  0
 24 25  2  0  0  0
 25 21  1  0  0  0
 21 22  2  0  0  0
 21 23  2  0  0  0
 21 19  1  0  0  0
 19  1  1  0  0  0
  1  2  1  0  0  0
  1  4  1  0  0  0
  2  3  1  0  0  0
  3  6  1  0  0  0
  4  5  2  0  0  0
  4  6  1  0  0  0
  6  7  1  0  0  0
  7  8  1  0  0  0
  7 10  2  0  0  0
  8  9  1  0  0  0
  8 13  2  0  0  0
 10 11  1  0  0  0
 11 12  2  0  0  0
 12 13  1  0  0  0
 12 14  1  0  0  0
 14 15  1  0  0  0
 14 16  1  0  0  0
 16 17  1  0  0  0
 16 18  1  0  0  0
 19 20  1  0  0  0
M  END
> <minimizedAffinity>
-8.34869

$$$$
2WYJ_898_A_1244


 31 33  0  0  0  0  0  0  0  0999 V2000
    6.4900    9.0128   21.7991 C   0  0  0  0  0  0  0  0  0  0  0  0
    8.0049    8.9945   21.9763 C   0  0  0  0  0  0  0  0  0  0  0  0
    8.4876    7.9044   21.0054 C   0  0  0  0  0  0  0  0  0  0  0  0
    6.1829    7.6009   21.3270 C   0  0  0  0  0  0  0  0  0  0  0  0
    5.1177    7.0118   21.3878 O   0  0  0  0  0  0  0  0  0  0  0  0
    7.3017    7.0724   20.8034 N   0  0  0  0  0  0  0  0  0  0  0  0
    7.3269    5.8361   20.0991 C   0  0  0  0  0  0  0  0  0  0  0  0
    6.9138    5.7444   18.7626 C   0  0  0  0  0  0  0  0  0  0  0  0
    6.4915    6.8277   18.1152 F   0  0  0  0  0  0  0  0  0  0  0  0
    7.7767    4.6938   20.7893 C   0  0  0  0  0  0  0  0  0  0  0  0
    7.7993    3.4758   20.0930 C   0  0  0  0  0  0  0  0  0  0  0  0
    7.3688    3.4019   18.7479 C   0  0  0  0  0  0  0  0  0  0  0  0
    6.9231    4.5476   18.0721 C   0  0  0  0  0  0  0  0  0  0  0  0
    7.3778    2.0976   18.0141 C   0  0  0  0  0  0  0  0  0  0  0  0
    6.5871    1.0267   18.7841 C   0  0  0  0  0  0  0  0  0  0  0  0
    8.7795    1.6423   17.7075 N   0  0  0  0  0  0  0  0  0  0  0  0
    9.1851    0.4406   18.4618 C   0  0  0  0  0  0  0  0  0  0  0  0
    9.1484    1.4904   16.2737 C   0  0  0  0  0  0  0  0  0  0  0  0
    5.7811    9.3490   23.0209 N   0  0  0  0  0  0  0  0  0  0  0  0
    6.0222   10.3205   23.2168 H   0  0  0  0  0  0  0  0  0  0  0  0
    5.9433    8.5685   24.4359 S   0  0  0  0  0  0  0  0  0  0  0  0
    5.7928    9.6361   25.3684 O   0  0  0  0  0  0  0  0  0  0  0  0
    5.0472    7.4356   24.4759 O   0  0  0  0  0  0  0  0  0  0  0  0
    8.2598    8.3267   25.6927 C   0  0  0  0  0  0  0  0  0  0  0  0
    7.5338    7.9084   24.6446 C   0  0  0  0  0  0  0  0  0  0  0  0
   13.7454    7.4967   25.8304 Cl  0  0  0  0  0  0  0  0  0  0  0  0
   12.0360    7.5123   26.1749 C   0  0  0  0  0  0  0  0  0  0  0  0
   11.3954    6.9378   27.2266 C   0  0  0  0  0  0  0  0  0  0  0  0
    9.9831    7.1491   27.1816 C   0  0  0  0  0  0  0  0  0  0  0  0
   10.9919    8.3229   25.1050 S   0  0  0  0  0  0  0  0  0  0  0  0
    9.6130    7.9194   26.0296 C   0  0  0  0  0  0  0  0  0  0  0  0
 26 27  1  0  0  0
 27 28  2  0  0  0
 27 30  1  0  0  0
 28 29  1  0  0  0
 29 31  2  0  0  0
 30 31  1  0  0  0
 31 24  1  0  0  0
 24 25  2  0  0  0
 25 21  1  0  0  0
 21 22  2  0  0  0
 21 23  2  0  0  0
 21 19  1  0  0  0
 19  1  1  0  0  0
  1  2  1  0  0  0
  1  4  1  0  0  0
  2  3  1  0  0  0
  3  6  1  0  0  0
  4  5  2  0  0  0
  4  6  1  0  0  0
  6  7  1  0  0  0
  7  8  1  0  0  0
  7 10  2  0  0  0
  8  9  1  0  0  0
  8 13  2  0  0  0
 10 11  1  0  0  0
 11 12  2  0  0  0
 12 13  1  0  0  0
 12 14  1  0  0  0
 14 15  1  0  0  0
 14 16  1  0  0  0
 16 17  1  0  0  0
 16 18  1  0  0  0
 19 20  1  0  0  0
M  END
> <minimizedAffinity>
-8.22562

$$$$
2WYJ_898_A_1244


 31 33  0  0  0  0  0  0  0  0999 V2000
    6.4620    8.3007   20.1219 C   0  0  0  0  0  0  0  0  0  0  0  0
    5.1323    8.1298   19.3945 C   0  0  0  0  0  0  0  0  0  0  0  0
    4.9804    6.6082   19.2334 C   0  0  0  0  0  0  0  0  0  0  0  0
    7.2313    7.0501   19.7284 C   0  0  0  0  0  0  0  0  0  0  0  0
    8.4383    6.8821   19.7504 O   0  0  0  0  0  0  0  0  0  0  0  0
    6.3518    6.1112   19.3413 N   0  0  0  0  0  0  0  0  0  0  0  0
    6.7138    4.7590   19.0853 C   0  0  0  0  0  0  0  0  0  0  0  0
    6.5914    3.7677   20.0690 C   0  0  0  0  0  0  0  0  0  0  0  0
    6.1208    4.0743   21.2754 F   0  0  0  0  0  0  0  0  0  0  0  0
    7.2093    4.4406   17.8059 C   0  0  0  0  0  0  0  0  0  0  0  0
    7.5669    3.1069   17.5565 C   0  0  0  0  0  0  0  0  0  0  0  0
    7.4456    2.1232   18.5654 C   0  0  0  0  0  0  0  0  0  0  0  0
    6.9504    2.4540   19.8356 C   0  0  0  0  0  0  0  0  0  0  0  0
    7.8446    0.7052   18.3009 C   0  0  0  0  0  0  0  0  0  0  0  0
    9.3186    0.4695   18.6702 C   0  0  0  0  0  0  0  0  0  0  0  0
    7.5549    0.3025   16.8796 N   0  0  0  0  0  0  0  0  0  0  0  0
    8.4803   -0.7223   16.3592 C   0  0  0  0  0  0  0  0  0  0  0  0
    6.1515   -0.0652   16.5481 C   0  0  0  0  0  0  0  0  0  0  0  0
    7.1612    9.5162   19.7453 N   0  0  0  0  0  0  0  0  0  0  0  0
    8.0870    9.2144   19.4413 H   0  0  0  0  0  0  0  0  0  0  0  0
    7.4195   10.7837   20.7273 S   0  0  0  0  0  0  0  0  0  0  0  0
    8.6570   11.2836   20.2269 O   0  0  0  0  0  0  0  0  0  0  0  0
    6.2490   11.6307   20.7519 O   0  0  0  0  0  0  0  0  0  0  0  0
    8.6659    9.4318   22.6307 C   0  0  0  0  0  0  0  0  0  0  0  0
    7.6752   10.2993   22.3732 C   0  0  0  0  0  0  0  0  0  0  0  0
   11.3396    7.5582   27.1186 Cl  0  0  0  0  0  0  0  0  0  0  0  0
   10.1299    8.0485   25.9622 C   0  0  0  0  0  0  0  0  0  0  0  0
    8.7793    8.0076   26.1054 C   0  0  0  0  0  0  0  0  0  0  0  0
    8.0968    8.4846   24.9443 C   0  0  0  0  0  0  0  0  0  0  0  0
   10.6346    8.6554   24.4559 S   0  0  0  0  0  0  0  0  0  0  0  0
    9.0261    8.8849   23.9276 C   0  0  0  0  0  0  0  0  0  0  0  0
 26 27  1  0  0  0
 27 28  2  0  0  0
 27 30  1  0  0  0
 28 29  1  0  0  0
 29 31  2  0  0  0
 30 31  1  0  0  0
 31 24  1  0  0  0
 24 25  2  0  0  0
 25 21  1  0  0  0
 21 22  2  0  0  0
 21 23  2  0  0  0
 21 19  1  0  0  0
 19  1  1  0  0  0
  1  2  1  0  0  0
  1  4  1  0  0  0
  2  3  1  0  0  0
  3  6  1  0  0  0
  4  5  2  0  0  0
  4  6  1  0  0  0
  6  7  1  0  0  0
  7  8  1  0  0  0
  7 10  2  0  0  0
  8  9  1  0  0  0
  8 13  2  0  0  0
 10 11  1  0  0  0
 11 12  2  0  0  0
 12 13  1  0  0  0
 12 14  1  0  0  0
 14 15  1  0  0  0
 14 16  1  0  0  0
 16 17  1  0  0  0
 16 18  1  0  0  0
 19 20  1  0  0  0
M  END
> <minimizedAffinity>
-7.84264

$$$$
2WYJ_898_A_1244


 31 33  0  0  0  0  0  0  0  0999 V2000
    4.1819    3.9720   22.7238 C   0  0  0  0  0  0  0  0  0  0  0  0
    3.5614    2.6148   23.0388 C   0  0  0  0  0  0  0  0  0  0  0  0
    4.4161    1.6130   22.2450 C   0  0  0  0  0  0  0  0  0  0  0  0
    4.8204    3.7495   21.3623 C   0  0  0  0  0  0  0  0  0  0  0  0
    5.1217    4.5929   20.5357 O   0  0  0  0  0  0  0  0  0  0  0  0
    5.0204    2.4316   21.1942 N   0  0  0  0  0  0  0  0  0  0  0  0
    5.7683    1.8860   20.1135 C   0  0  0  0  0  0  0  0  0  0  0  0
    5.1703    1.5986   18.8786 C   0  0  0  0  0  0  0  0  0  0  0  0
    3.8757    1.8408   18.6875 F   0  0  0  0  0  0  0  0  0  0  0  0
    7.1382    1.6338   20.3214 C   0  0  0  0  0  0  0  0  0  0  0  0
    7.8730    1.0944   19.2547 C   0  0  0  0  0  0  0  0  0  0  0  0
    7.2493    0.8019   18.0196 C   0  0  0  0  0  0  0  0  0  0  0  0
    5.8836    1.0582   17.8258 C   0  0  0  0  0  0  0  0  0  0  0  0
    8.0327    0.2104   16.8899 C   0  0  0  0  0  0  0  0  0  0  0  0
    7.1483   -0.7032   16.0250 C   0  0  0  0  0  0  0  0  0  0  0  0
    9.2615   -0.5067   17.3817 N   0  0  0  0  0  0  0  0  0  0  0  0
    9.7251   -1.5705   16.4701 C   0  0  0  0  0  0  0  0  0  0  0  0
   10.4136    0.3316   17.8113 C   0  0  0  0  0  0  0  0  0  0  0  0
    3.2082    5.0489   22.7036 N   0  0  0  0  0  0  0  0  0  0  0  0
    2.8373    5.0626   21.7535 H   0  0  0  0  0  0  0  0  0  0  0  0
    3.5275    6.5994   23.0664 S   0  0  0  0  0  0  0  0  0  0  0  0
    3.4497    7.2137   21.7825 O   0  0  0  0  0  0  0  0  0  0  0  0
    2.6632    7.0398   24.1374 O   0  0  0  0  0  0  0  0  0  0  0  0
    5.8740    7.8208   23.1455 C   0  0  0  0  0  0  0  0  0  0  0  0
    5.1441    6.8175   23.6564 C   0  0  0  0  0  0  0  0  0  0  0  0
   10.6455    8.9595   25.7408 Cl  0  0  0  0  0  0  0  0  0  0  0  0
    9.4062    8.6588   24.5514 C   0  0  0  0  0  0  0  0  0  0  0  0
    9.5317    8.6768   23.1985 C   0  0  0  0  0  0  0  0  0  0  0  0
    8.2986    8.3898   22.5363 C   0  0  0  0  0  0  0  0  0  0  0  0
    7.8315    8.2980   25.0822 S   0  0  0  0  0  0  0  0  0  0  0  0
    7.2469    8.1553   23.4831 C   0  0  0  0  0  0  0  0  0  0  0  0
 26 27  1  0  0  0
 27 28  2  0  0  0
 27 30  1  0  0  0
 28 29  1  0  0  0
 29 31  2  0  0  0
 30 31  1  0  0  0
 31 24  1  0  0  0
 24 25  2  0  0  0
 25 21  1  0  0  0
 21 22  2  0  0  0
 21 23  2  0  0  0
 21 19  1  0  0  0
 19  1  1  0  0  0
  1  2  1  0  0  0
  1  4  1  0  0  0
  2  3  1  0  0  0
  3  6  1  0  0  0
  4  5  2  0  0  0
  4  6  1  0  0  0
  6  7  1  0  0  0
  7  8  1  0  0  0
  7 10  2  0  0  0
  8  9  1  0  0  0
  8 13  2  0  0  0
 10 11  1  0  0  0
 11 12  2  0  0  0
 12 13  1  0  0  0
 12 14  1  0  0  0
 14 15  1  0  0  0
 14 16  1  0  0  0
 16 17  1  0  0  0
 16 18  1  0  0  0
 19 20  1  0  0  0
M  END
> <minimizedAffinity>
-7.29752

$$$$
2WYJ_898_A_1244


 31 33  0  0  0  0  0  0  0  0999 V2000
    6.4940    6.4484   19.0311 C   0  0  0  0  0  0  0  0  0  0  0  0
    5.3607    6.5388   18.0144 C   0  0  0  0  0  0  0  0  0  0  0  0
    5.1098    5.0810   17.5947 C   0  0  0  0  0  0  0  0  0  0  0  0
    7.2143    5.1716   18.6291 C   0  0  0  0  0  0  0  0  0  0  0  0
    8.3618    4.8525   18.8875 O   0  0  0  0  0  0  0  0  0  0  0  0
    6.3660    4.4068   17.9217 N   0  0  0  0  0  0  0  0  0  0  0  0
    6.6504    3.0635   17.5481 C   0  0  0  0  0  0  0  0  0  0  0  0
    7.0720    2.7359   16.2518 C   0  0  0  0  0  0  0  0  0  0  0  0
    7.2239    3.6885   15.3350 F   0  0  0  0  0  0  0  0  0  0  0  0
    6.4897    2.0603   18.5235 C   0  0  0  0  0  0  0  0  0  0  0  0
    6.7694    0.7364   18.1521 C   0  0  0  0  0  0  0  0  0  0  0  0
    7.1839    0.4249   16.8363 C   0  0  0  0  0  0  0  0  0  0  0  0
    7.3401    1.4340   15.8744 C   0  0  0  0  0  0  0  0  0  0  0  0
    7.4644   -0.9905   16.4393 C   0  0  0  0  0  0  0  0  0  0  0  0
    8.9714   -1.2163   16.2319 C   0  0  0  0  0  0  0  0  0  0  0  0
    6.6683   -1.3958   15.2277 N   0  0  0  0  0  0  0  0  0  0  0  0
    7.1222   -2.6633   14.6235 C   0  0  0  0  0  0  0  0  0  0  0  0
    5.1856   -1.3965   15.3555 C   0  0  0  0  0  0  0  0  0  0  0  0
    7.3717    7.6048   19.0050 N   0  0  0  0  0  0  0  0  0  0  0  0
    8.3104    7.2308   18.8660 H   0  0  0  0  0  0  0  0  0  0  0  0
    7.5120    8.6939   20.2016 S   0  0  0  0  0  0  0  0  0  0  0  0
    8.3329    9.6852   19.5891 O   0  0  0  0  0  0  0  0  0  0  0  0
    6.2022    9.0420   20.7030 O   0  0  0  0  0  0  0  0  0  0  0  0
    8.6681    8.9023   22.5731 C   0  0  0  0  0  0  0  0  0  0  0  0
    8.3779    8.0640   21.5663 C   0  0  0  0  0  0  0  0  0  0  0  0
   10.2628    7.0877   27.5695 Cl  0  0  0  0  0  0  0  0  0  0  0  0
   10.1969    7.8024   25.9802 C   0  0  0  0  0  0  0  0  0  0  0  0
   11.1992    8.4273   25.3084 C   0  0  0  0  0  0  0  0  0  0  0  0
   10.7805    8.8981   24.0261 C   0  0  0  0  0  0  0  0  0  0  0  0
    8.7327    7.7473   25.1171 S   0  0  0  0  0  0  0  0  0  0  0  0
    9.4022    8.5822   23.7853 C   0  0  0  0  0  0  0  0  0  0  0  0
 26 27  1  0  0  0
 27 28  2  0  0  0
 27 30  1  0  0  0
 28 29  1  0  0  0
 29 31  2  0  0  0
 30 31  1  0  0  0
 31 24  1  0  0  0
 24 25  2  0  0  0
 25 21  1  0  0  0
 21 22  2  0  0  0
 21 23  2  0  0  0
 21 19  1  0  0  0
 19  1  1  0  0  0
  1  2  1  0  0  0
  1  4  1  0  0  0
  2  3  1  0  0  0
  3  6  1  0  0  0
  4  5  2  0  0  0
  4  6  1  0  0  0
  6  7  1  0  0  0
  7  8  1  0  0  0
  7 10  2  0  0  0
  8  9  1  0  0  0
  8 13  2  0  0  0
 10 11  1  0  0  0
 11 12  2  0  0  0
 12 13  1  0  0  0
 12 14  1  0  0  0
 14 15  1  0  0  0
 14 16  1  0  0  0
 16 17  1  0  0  0
 16 18  1  0  0  0
 19 20  1  0  0  0
M  END
> <minimizedAffinity>
-7.26137

$$$$
2WYJ_898_A_1244


 31 33  0  0  0  0  0  0  0  0999 V2000
    2.5645    4.3224   22.2960 C   0  0  0  0  0  0  0  0  0  0  0  0
    2.3765    5.1912   21.0566 C   0  0  0  0  0  0  0  0  0  0  0  0
    3.2822    4.5422   19.9970 C   0  0  0  0  0  0  0  0  0  0  0  0
    3.9526    3.7359   22.0964 C   0  0  0  0  0  0  0  0  0  0  0  0
    4.6954    3.2776   22.9471 O   0  0  0  0  0  0  0  0  0  0  0  0
    4.2559    3.7909   20.7887 N   0  0  0  0  0  0  0  0  0  0  0  0
    5.3992    3.1592   20.2241 C   0  0  0  0  0  0  0  0  0  0  0  0
    6.6151    3.8407   20.0741 C   0  0  0  0  0  0  0  0  0  0  0  0
    6.7278    5.1065   20.4691 F   0  0  0  0  0  0  0  0  0  0  0  0
    5.2740    1.8189   19.8099 C   0  0  0  0  0  0  0  0  0  0  0  0
    6.4024    1.1987   19.2522 C   0  0  0  0  0  0  0  0  0  0  0  0
    7.6174    1.9065   19.1000 C   0  0  0  0  0  0  0  0  0  0  0  0
    7.7284    3.2413   19.5170 C   0  0  0  0  0  0  0  0  0  0  0  0
    8.8136    1.2468   18.4886 C   0  0  0  0  0  0  0  0  0  0  0  0
    9.8776    2.2868   18.0996 C   0  0  0  0  0  0  0  0  0  0  0  0
    8.4319    0.3766   17.3211 N   0  0  0  0  0  0  0  0  0  0  0  0
    7.9987    1.1409   16.1356 C   0  0  0  0  0  0  0  0  0  0  0  0
    9.3955   -0.6835   16.9177 C   0  0  0  0  0  0  0  0  0  0  0  0
    2.4589    5.0726   23.5347 N   0  0  0  0  0  0  0  0  0  0  0  0
    1.5028    4.9284   23.8595 H   0  0  0  0  0  0  0  0  0  0  0  0
    2.7311    6.6668   23.6833 S   0  0  0  0  0  0  0  0  0  0  0  0
    1.7474    7.2065   22.8042 O   0  0  0  0  0  0  0  0  0  0  0  0
    2.7382    7.0343   25.0808 O   0  0  0  0  0  0  0  0  0  0  0  0
    5.2992    7.2479   23.9504 C   0  0  0  0  0  0  0  0  0  0  0  0
    4.2890    7.1277   23.0754 C   0  0  0  0  0  0  0  0  0  0  0  0
   10.6159    8.8199   24.1991 Cl  0  0  0  0  0  0  0  0  0  0  0  0
    9.0287    8.3286   23.6696 C   0  0  0  0  0  0  0  0  0  0  0  0
    8.5993    8.1427   22.3938 C   0  0  0  0  0  0  0  0  0  0  0  0
    7.2282    7.7450   22.3363 C   0  0  0  0  0  0  0  0  0  0  0  0
    7.8293    8.0348   24.8388 S   0  0  0  0  0  0  0  0  0  0  0  0
    6.6644    7.6450   23.6514 C   0  0  0  0  0  0  0  0  0  0  0  0
 26 27  1  0  0  0
 27 28  2  0  0  0
 27 30  1  0  0  0
 28 29  1  0  0  0
 29 31  2  0  0  0
 30 31  1  0  0  0
 31 24  1  0  0  0
 24 25  2  0  0  0
 25 21  1  0  0  0
 21 22  2  0  0  0
 21 23  2  0  0  0
 21 19  1  0  0  0
 19  1  1  0  0  0
  1  2  1  0  0  0
  1  4  1  0  0  0
  2  3  1  0  0  0
  3  6  1  0  0  0
  4  5  2  0  0  0
  4  6  1  0  0  0
  6  7  1  0  0  0
  7  8  1  0  0  0
  7 10  2  0  0  0
  8  9  1  0  0  0
  8 13  2  0  0  0
 10 11  1  0  0  0
 11 12  2  0  0  0
 12 13  1  0  0  0
 12 14  1  0  0  0
 14 15  1  0  0  0
 14 16  1  0  0  0
 16 17  1  0  0  0
 16 18  1  0  0  0
 19 20  1  0  0  0
M  END
> <minimizedAffinity>
-6.68783

$$$$
2WYJ_898_A_1244


 31 33  0  0  0  0  0  0  0  0999 V2000
    4.8625    4.0030   16.9543 C   0  0  0  0  0  0  0  0  0  0  0  0
    4.3645    5.3668   16.4870 C   0  0  0  0  0  0  0  0  0  0  0  0
    5.0614    6.3671   17.4240 C   0  0  0  0  0  0  0  0  0  0  0  0
    5.2042    4.2449   18.4156 C   0  0  0  0  0  0  0  0  0  0  0  0
    5.2976    3.4162   19.3043 O   0  0  0  0  0  0  0  0  0  0  0  0
    5.4039    5.5613   18.5956 N   0  0  0  0  0  0  0  0  0  0  0  0
    5.9218    6.1160   19.7994 C   0  0  0  0  0  0  0  0  0  0  0  0
    7.2966    6.1203   20.0734 C   0  0  0  0  0  0  0  0  0  0  0  0
    8.1568    5.6058   19.1979 F   0  0  0  0  0  0  0  0  0  0  0  0
    5.0066    6.6607   20.7210 C   0  0  0  0  0  0  0  0  0  0  0  0
    5.5197    7.2057   21.9078 C   0  0  0  0  0  0  0  0  0  0  0  0
    6.9093    7.1915   22.1704 C   0  0  0  0  0  0  0  0  0  0  0  0
    7.8101    6.6457   21.2437 C   0  0  0  0  0  0  0  0  0  0  0  0
    7.4510    7.7579   23.4453 C   0  0  0  0  0  0  0  0  0  0  0  0
    6.3248    8.3556   24.3051 C   0  0  0  0  0  0  0  0  0  0  0  0
    8.5461    8.7582   23.1876 N   0  0  0  0  0  0  0  0  0  0  0  0
    8.0767   10.1571   23.1916 C   0  0  0  0  0  0  0  0  0  0  0  0
    9.7859    8.6362   24.0018 C   0  0  0  0  0  0  0  0  0  0  0  0
    3.8743    2.9521   16.7887 N   0  0  0  0  0  0  0  0  0  0  0  0
    3.5362    2.7460   17.7287 H   0  0  0  0  0  0  0  0  0  0  0  0
    4.1582    1.5071   16.1039 S   0  0  0  0  0  0  0  0  0  0  0  0
    3.5072    0.6270   17.0168 O   0  0  0  0  0  0  0  0  0  0  0  0
    3.7625    1.5374   14.7145 O   0  0  0  0  0  0  0  0  0  0  0  0
    6.3777    0.5895   17.2158 C   0  0  0  0  0  0  0  0  0  0  0  0
    5.8451    1.1027   16.0962 C   0  0  0  0  0  0  0  0  0  0  0  0
   11.4289   -1.6897   16.9155 Cl  0  0  0  0  0  0  0  0  0  0  0  0
   10.0344   -0.7389   17.3540 C   0  0  0  0  0  0  0  0  0  0  0  0
    9.9396    0.1897   18.3416 C   0  0  0  0  0  0  0  0  0  0  0  0
    8.6351    0.7676   18.4182 C   0  0  0  0  0  0  0  0  0  0  0  0
    8.5894   -0.9539   16.4837 S   0  0  0  0  0  0  0  0  0  0  0  0
    7.7649    0.2109   17.4231 C   0  0  0  0  0  0  0  0  0  0  0  0
 26 27  1  0  0  0
 27 28  2  0  0  0
 27 30  1  0  0  0
 28 29  1  0  0  0
 29 31  2  0  0  0
 30 31  1  0  0  0
 31 24  1  0  0  0
 24 25  2  0  0  0
 25 21  1  0  0  0
 21 22  2  0  0  0
 21 23  2  0  0  0
 21 19  1  0  0  0
 19  1  1  0  0  0
  1  2  1  0  0  0
  1  4  1  0  0  0
  2  3  1  0  0  0
  3  6  1  0  0  0
  4  5  2  0  0  0
  4  6  1  0  0  0
  6  7  1  0  0  0
  7  8  1  0  0  0
  7 10  2  0  0  0
  8  9  1  0  0  0
  8 13  2  0  0  0
 10 11  1  0  0  0
 11 12  2  0  0  0
 12 13  1  0  0  0
 12 14  1  0  0  0
 14 15  1  0  0  0
 14 16  1  0  0  0
 16 17  1  0  0  0
 16 18  1  0  0  0
 19 20  1  0  0  0
M  END
> <minimizedAffinity>
-6.59817

$$$$
2WYJ_898_A_1244


 31 33  0  0  0  0  0  0  0  0999 V2000
    7.3365    3.5076   16.9059 C   0  0  0  0  0  0  0  0  0  0  0  0
    5.8297    3.7235   17.0021 C   0  0  0  0  0  0  0  0  0  0  0  0
    5.6788    4.9392   17.9314 C   0  0  0  0  0  0  0  0  0  0  0  0
    7.8512    4.0962   18.2095 C   0  0  0  0  0  0  0  0  0  0  0  0
    8.9093    3.8588   18.7658 O   0  0  0  0  0  0  0  0  0  0  0  0
    6.9354    4.9595   18.6798 N   0  0  0  0  0  0  0  0  0  0  0  0
    7.1726    5.8271   19.7825 C   0  0  0  0  0  0  0  0  0  0  0  0
    6.6024    5.5875   21.0406 C   0  0  0  0  0  0  0  0  0  0  0  0
    5.8238    4.5255   21.2330 F   0  0  0  0  0  0  0  0  0  0  0  0
    7.9990    6.9481   19.5729 C   0  0  0  0  0  0  0  0  0  0  0  0
    8.2301    7.8027   20.6614 C   0  0  0  0  0  0  0  0  0  0  0  0
    7.6375    7.5495   21.9203 C   0  0  0  0  0  0  0  0  0  0  0  0
    6.8163    6.4290   22.1155 C   0  0  0  0  0  0  0  0  0  0  0  0
    7.8723    8.4731   23.0742 C   0  0  0  0  0  0  0  0  0  0  0  0
    8.0783    9.9182   22.5903 C   0  0  0  0  0  0  0  0  0  0  0  0
    9.0146    8.0059   23.9362 N   0  0  0  0  0  0  0  0  0  0  0  0
   10.2281    8.8350   23.8034 C   0  0  0  0  0  0  0  0  0  0  0  0
    8.7252    7.7562   25.3745 C   0  0  0  0  0  0  0  0  0  0  0  0
    7.6997    2.1100   16.7540 N   0  0  0  0  0  0  0  0  0  0  0  0
    7.3736    1.8436   15.8249 H   0  0  0  0  0  0  0  0  0  0  0  0
    7.2221    0.9117   17.7408 S   0  0  0  0  0  0  0  0  0  0  0  0
    6.9478   -0.1317   16.8092 O   0  0  0  0  0  0  0  0  0  0  0  0
    8.2026    0.7165   18.7842 O   0  0  0  0  0  0  0  0  0  0  0  0
    5.7696    1.4013   19.8983 C   0  0  0  0  0  0  0  0  0  0  0  0
    5.7407    1.2864   18.5617 C   0  0  0  0  0  0  0  0  0  0  0  0
    0.9467    3.0721   22.0771 Cl  0  0  0  0  0  0  0  0  0  0  0  0
    2.5237    2.3759   21.8139 C   0  0  0  0  0  0  0  0  0  0  0  0
    3.2917    1.6979   22.7065 C   0  0  0  0  0  0  0  0  0  0  0  0
    4.5346    1.2766   22.1416 C   0  0  0  0  0  0  0  0  0  0  0  0
    3.2427    2.5320   20.2807 S   0  0  0  0  0  0  0  0  0  0  0  0
    4.6422    1.6831   20.7703 C   0  0  0  0  0  0  0  0  0  0  0  0
 26 27  1  0  0  0
 27 28  2  0  0  0
 27 30  1  0  0  0
 28 29  1  0  0  0
 29 31  2  0  0  0
 30 31  1  0  0  0
 31 24  1  0  0  0
 24 25  2  0  0  0
 25 21  1  0  0  0
 21 22  2  0  0  0
 21 23  2  0  0  0
 21 19  1  0  0  0
 19  1  1  0  0  0
  1  2  1  0  0  0
  1  4  1  0  0  0
  2  3  1  0  0  0
  3  6  1  0  0  0
  4  5  2  0  0  0
  4  6  1  0  0  0
  6  7  1  0  0  0
  7  8  1  0  0  0
  7 10  2  0  0  0
  8  9  1  0  0  0
  8 13  2  0  0  0
 10 11  1  0  0  0
 11 12  2  0  0  0
 12 13  1  0  0  0
 12 14  1  0  0  0
 14 15  1  0  0  0
 14 16  1  0  0  0
 16 17  1  0  0  0
 16 18  1  0  0  0
 19 20  1  0  0  0
M  END
> <minimizedAffinity>
-6.58133

$$$$
2WYJ_898_A_1244


 31 33  0  0  0  0  0  0  0  0999 V2000
    6.0575    5.9098   18.9741 C   0  0  0  0  0  0  0  0  0  0  0  0
    7.3541    5.9661   19.7753 C   0  0  0  0  0  0  0  0  0  0  0  0
    6.9205    6.4605   21.1652 C   0  0  0  0  0  0  0  0  0  0  0  0
    5.1830    6.9443   19.6639 C   0  0  0  0  0  0  0  0  0  0  0  0
    4.2135    7.5231   19.2051 O   0  0  0  0  0  0  0  0  0  0  0  0
    5.6476    7.1342   20.9102 N   0  0  0  0  0  0  0  0  0  0  0  0
    4.9570    7.8955   21.8944 C   0  0  0  0  0  0  0  0  0  0  0  0
    5.1912    9.2679   22.0581 C   0  0  0  0  0  0  0  0  0  0  0  0
    6.0701    9.8959   21.2808 F   0  0  0  0  0  0  0  0  0  0  0  0
    4.0267    7.2254   22.7125 C   0  0  0  0  0  0  0  0  0  0  0  0
    3.3483    7.9780   23.6830 C   0  0  0  0  0  0  0  0  0  0  0  0
    3.6059    9.3598   23.8394 C   0  0  0  0  0  0  0  0  0  0  0  0
    4.5352   10.0150   23.0177 C   0  0  0  0  0  0  0  0  0  0  0  0
    2.8930   10.1554   24.8876 C   0  0  0  0  0  0  0  0  0  0  0  0
    2.7696    9.3573   26.1963 C   0  0  0  0  0  0  0  0  0  0  0  0
    1.5531   10.6397   24.4017 N   0  0  0  0  0  0  0  0  0  0  0  0
    1.5668   11.0959   22.9984 C   0  0  0  0  0  0  0  0  0  0  0  0
    0.3818    9.7519   24.6356 C   0  0  0  0  0  0  0  0  0  0  0  0
    6.2491    6.2050   17.5655 N   0  0  0  0  0  0  0  0  0  0  0  0
    5.7995    7.1078   17.4130 H   0  0  0  0  0  0  0  0  0  0  0  0
    5.7520    5.2612   16.3408 S   0  0  0  0  0  0  0  0  0  0  0  0
    4.3828    5.0541   16.6789 O   0  0  0  0  0  0  0  0  0  0  0  0
    6.1059    5.8696   15.0788 O   0  0  0  0  0  0  0  0  0  0  0  0
    7.6431    3.5660   17.0851 C   0  0  0  0  0  0  0  0  0  0  0  0
    6.5343    3.7130   16.3439 C   0  0  0  0  0  0  0  0  0  0  0  0
    9.8299   -1.5130   16.6139 Cl  0  0  0  0  0  0  0  0  0  0  0  0
    9.4984    0.1437   17.0456 C   0  0  0  0  0  0  0  0  0  0  0  0
   10.2075    0.9403   17.8877 C   0  0  0  0  0  0  0  0  0  0  0  0
    9.6357    2.2440   18.0100 C   0  0  0  0  0  0  0  0  0  0  0  0
    8.1394    0.9104   16.3696 S   0  0  0  0  0  0  0  0  0  0  0  0
    8.4558    2.3676   17.2037 C   0  0  0  0  0  0  0  0  0  0  0  0
 26 27  1  0  0  0
 27 28  2  0  0  0
 27 30  1  0  0  0
 28 29  1  0  0  0
 29 31  2  0  0  0
 30 31  1  0  0  0
 31 24  1  0  0  0
 24 25  2  0  0  0
 25 21  1  0  0  0
 21 22  2  0  0  0
 21 23  2  0  0  0
 21 19  1  0  0  0
 19  1  1  0  0  0
  1  2  1  0  0  0
  1  4  1  0  0  0
  2  3  1  0  0  0
  3  6  1  0  0  0
  4  5  2  0  0  0
  4  6  1  0  0  0
  6  7  1  0  0  0
  7  8  1  0  0  0
  7 10  2  0  0  0
  8  9  1  0  0  0
  8 13  2  0  0  0
 10 11  1  0  0  0
 11 12  2  0  0  0
 12 13  1  0  0  0
 12 14  1  0  0  0
 14 15  1  0  0  0
 14 16  1  0  0  0
 16 17  1  0  0  0
 16 18  1  0  0  0
 19 20  1  0  0  0
M  END
> <minimizedAffinity>
-6.57525

$$$$
