5LVR_78Y_A_904


 17 18  0  0  0  0  0  0  0  0999 V2000
   -8.6356   17.6364   80.0156 N   0  0  0  0  0  0  0  0  0  0  0  0
   -9.7621   18.2649   79.6740 N   0  0  0  0  0  0  0  0  0  0  0  0
  -10.5602   18.6319   80.6911 N   0  0  0  0  0  0  0  0  0  0  0  0
   -8.6785   17.5858   81.3492 C   0  0  0  0  0  0  0  0  0  0  0  0
   -9.8921   18.2072   81.7516 C   0  0  0  0  0  0  0  0  0  0  0  0
  -10.4219   18.4285   83.1295 C   0  0  0  0  0  0  0  0  0  0  0  0
  -10.1231   18.4780   78.3092 C   0  0  0  0  0  0  0  0  0  0  0  0
  -10.3595   17.3871   77.4776 C   0  0  0  0  0  0  0  0  0  0  0  0
  -10.5878   17.5972   76.1264 C   0  0  0  0  0  0  0  0  0  0  0  0
  -10.5788   18.8790   75.6051 C   0  0  0  0  0  0  0  0  0  0  0  0
  -10.3560   19.9620   76.4373 C   0  0  0  0  0  0  0  0  0  0  0  0
  -10.1355   19.7712   77.7915 C   0  0  0  0  0  0  0  0  0  0  0  0
   -7.0924   17.7065   83.0254 O   0  0  0  0  0  0  0  0  0  0  0  0
   -7.6332   17.0300   82.1596 C   0  0  0  0  0  0  0  0  0  0  0  0
   -7.2953   15.7846   81.8845 N   0  0  0  0  0  0  0  0  0  0  0  0
   -6.5848   15.3414   82.4023 H   0  0  0  0  0  0  0  0  0  0  0  0
   -7.7536   15.2985   81.1614 H   0  0  0  0  0  0  0  0  0  0  0  0
  6  5  1  0  0  0
 13 14  2  0  0  0
 14  4  1  0  0  0
 14 15  1  0  0  0
  5  4  1  0  0  0
  5  3  2  0  0  0
  4  1  2  0  0  0
  3  2  1  0  0  0
  1  2  1  0  0  0
  2  7  1  0  0  0
  7  8  2  0  0  0
  7 12  1  0  0  0
  8  9  1  0  0  0
 12 11  2  0  0  0
  9 10  2  0  0  0
 11 10  1  0  0  0
 15 16  1  0  0  0
 15 17  1  0  0  0
M  END
> <minimizedAffinity>
-6.79393

$$$$
5LVR_78Y_A_904


 17 18  0  0  0  0  0  0  0  0999 V2000
   -8.5113   17.5738   80.0256 N   0  0  0  0  0  0  0  0  0  0  0  0
   -9.6151   18.2152   79.6370 N   0  0  0  0  0  0  0  0  0  0  0  0
  -10.4455   18.6019   80.6204 N   0  0  0  0  0  0  0  0  0  0  0  0
   -8.6050   17.5349   81.3570 C   0  0  0  0  0  0  0  0  0  0  0  0
   -9.8238   18.1767   81.7086 C   0  0  0  0  0  0  0  0  0  0  0  0
  -10.4016   18.4169   83.0638 C   0  0  0  0  0  0  0  0  0  0  0  0
   -9.9215   18.4219   78.2580 C   0  0  0  0  0  0  0  0  0  0  0  0
   -9.9756   19.7158   77.7476 C   0  0  0  0  0  0  0  0  0  0  0  0
  -10.3939   19.9160   76.4411 C   0  0  0  0  0  0  0  0  0  0  0  0
  -10.7576   18.8410   75.6491 C   0  0  0  0  0  0  0  0  0  0  0  0
  -10.6903   17.5551   76.1560 C   0  0  0  0  0  0  0  0  0  0  0  0
  -10.2657   17.3359   77.4562 C   0  0  0  0  0  0  0  0  0  0  0  0
   -7.0848   17.6459   83.0940 O   0  0  0  0  0  0  0  0  0  0  0  0
   -7.5989   16.9713   82.2105 C   0  0  0  0  0  0  0  0  0  0  0  0
   -7.2648   15.7208   81.9545 N   0  0  0  0  0  0  0  0  0  0  0  0
   -6.5804   15.2722   82.5019 H   0  0  0  0  0  0  0  0  0  0  0  0
   -7.6998   15.2364   81.2161 H   0  0  0  0  0  0  0  0  0  0  0  0
  6  5  1  0  0  0
 13 14  2  0  0  0
 14  4  1  0  0  0
 14 15  1  0  0  0
  5  4  1  0  0  0
  5  3  2  0  0  0
  4  1  2  0  0  0
  3  2  1  0  0  0
  1  2  1  0  0  0
  2  7  1  0  0  0
  7  8  2  0  0  0
  7 12  1  0  0  0
  8  9  1  0  0  0
 12 11  2  0  0  0
  9 10  2  0  0  0
 11 10  1  0  0  0
 15 16  1  0  0  0
 15 17  1  0  0  0
M  END
> <minimizedAffinity>
-6.74985

$$$$
5LVR_78Y_A_904


 17 18  0  0  0  0  0  0  0  0999 V2000
   -9.8354   18.3862   80.3431 N   0  0  0  0  0  0  0  0  0  0  0  0
   -9.7084   17.6672   79.2260 N   0  0  0  0  0  0  0  0  0  0  0  0
   -9.1350   16.4601   79.3677 N   0  0  0  0  0  0  0  0  0  0  0  0
   -9.3199   17.6063   81.2966 C   0  0  0  0  0  0  0  0  0  0  0  0
   -8.8818   16.4101   80.6658 C   0  0  0  0  0  0  0  0  0  0  0  0
   -8.2465   15.2050   81.2760 C   0  0  0  0  0  0  0  0  0  0  0  0
  -10.1026   18.1769   77.9520 C   0  0  0  0  0  0  0  0  0  0  0  0
  -10.4420   17.2959   76.9291 C   0  0  0  0  0  0  0  0  0  0  0  0
  -10.7035   17.7920   75.6613 C   0  0  0  0  0  0  0  0  0  0  0  0
  -10.6262   19.1508   75.4107 C   0  0  0  0  0  0  0  0  0  0  0  0
  -10.3009   20.0247   76.4332 C   0  0  0  0  0  0  0  0  0  0  0  0
  -10.0457   19.5473   77.7082 C   0  0  0  0  0  0  0  0  0  0  0  0
  -10.3094   17.9110   83.3625 O   0  0  0  0  0  0  0  0  0  0  0  0
   -9.2896   17.9611   82.6864 C   0  0  0  0  0  0  0  0  0  0  0  0
   -8.1207   18.3597   83.1509 N   0  0  0  0  0  0  0  0  0  0  0  0
   -8.0289   18.6183   84.0964 H   0  0  0  0  0  0  0  0  0  0  0  0
   -7.3403   18.3985   82.5519 H   0  0  0  0  0  0  0  0  0  0  0  0
  6  5  1  0  0  0
 13 14  2  0  0  0
 14  4  1  0  0  0
 14 15  1  0  0  0
  5  4  1  0  0  0
  5  3  2  0  0  0
  4  1  2  0  0  0
  3  2  1  0  0  0
  1  2  1  0  0  0
  2  7  1  0  0  0
  7  8  2  0  0  0
  7 12  1  0  0  0
  8  9  1  0  0  0
 12 11  2  0  0  0
  9 10  2  0  0  0
 11 10  1  0  0  0
 15 16  1  0  0  0
 15 17  1  0  0  0
M  END
> <minimizedAffinity>
-6.45839

$$$$
5LVR_78Y_A_904


 17 18  0  0  0  0  0  0  0  0999 V2000
  -11.2703   18.2267   77.4016 N   0  0  0  0  0  0  0  0  0  0  0  0
  -10.8863   18.9409   76.3417 N   0  0  0  0  0  0  0  0  0  0  0  0
  -11.5552   18.7025   75.2007 N   0  0  0  0  0  0  0  0  0  0  0  0
  -12.2664   17.4655   76.9420 C   0  0  0  0  0  0  0  0  0  0  0  0
  -12.4246   17.7729   75.5631 C   0  0  0  0  0  0  0  0  0  0  0  0
  -13.4044   17.2173   74.5836 C   0  0  0  0  0  0  0  0  0  0  0  0
   -9.7922   19.8559   76.4047 C   0  0  0  0  0  0  0  0  0  0  0  0
   -8.7736   19.7827   75.4588 C   0  0  0  0  0  0  0  0  0  0  0  0
   -7.6555   20.5905   75.5977 C   0  0  0  0  0  0  0  0  0  0  0  0
   -7.5486   21.4615   76.6677 C   0  0  0  0  0  0  0  0  0  0  0  0
   -8.5691   21.5406   77.5990 C   0  0  0  0  0  0  0  0  0  0  0  0
   -9.6976   20.7477   77.4707 C   0  0  0  0  0  0  0  0  0  0  0  0
  -14.0912   16.1134   77.3688 O   0  0  0  0  0  0  0  0  0  0  0  0
  -13.0204   16.5601   77.7606 C   0  0  0  0  0  0  0  0  0  0  0  0
  -12.4974   16.2824   78.9398 N   0  0  0  0  0  0  0  0  0  0  0  0
  -12.9628   15.6680   79.5523 H   0  0  0  0  0  0  0  0  0  0  0  0
  -11.6419   16.6897   79.2071 H   0  0  0  0  0  0  0  0  0  0  0  0
  6  5  1  0  0  0
 13 14  2  0  0  0
 14  4  1  0  0  0
 14 15  1  0  0  0
  5  4  1  0  0  0
  5  3  2  0  0  0
  4  1  2  0  0  0
  3  2  1  0  0  0
  1  2  1  0  0  0
  2  7  1  0  0  0
  7  8  2  0  0  0
  7 12  1  0  0  0
  8  9  1  0  0  0
 12 11  2  0  0  0
  9 10  2  0  0  0
 11 10  1  0  0  0
 15 16  1  0  0  0
 15 17  1  0  0  0
M  END
> <minimizedAffinity>
-6.42557

$$$$
5LVR_78Y_A_904


 17 18  0  0  0  0  0  0  0  0999 V2000
   -8.7358   19.0026   78.2053 N   0  0  0  0  0  0  0  0  0  0  0  0
   -8.3506   19.7554   77.1730 N   0  0  0  0  0  0  0  0  0  0  0  0
   -9.2001   19.8028   76.1327 N   0  0  0  0  0  0  0  0  0  0  0  0
   -9.9246   18.5201   77.8351 C   0  0  0  0  0  0  0  0  0  0  0  0
  -10.1938   19.0264   76.5343 C   0  0  0  0  0  0  0  0  0  0  0  0
  -11.3911   18.8068   75.6704 C   0  0  0  0  0  0  0  0  0  0  0  0
   -7.0865   20.4186   77.1531 C   0  0  0  0  0  0  0  0  0  0  0  0
   -6.7315   21.1987   76.0562 C   0  0  0  0  0  0  0  0  0  0  0  0
   -5.4562   21.7381   75.9879 C   0  0  0  0  0  0  0  0  0  0  0  0
   -4.5406   21.5028   76.9985 C   0  0  0  0  0  0  0  0  0  0  0  0
   -4.9013   20.7373   78.0934 C   0  0  0  0  0  0  0  0  0  0  0  0
   -6.1743   20.1984   78.1827 C   0  0  0  0  0  0  0  0  0  0  0  0
  -11.3317   18.1588   79.6322 O   0  0  0  0  0  0  0  0  0  0  0  0
  -10.7409   17.6859   78.6694 C   0  0  0  0  0  0  0  0  0  0  0  0
  -10.7769   16.4081   78.3423 N   0  0  0  0  0  0  0  0  0  0  0  0
  -11.3177   15.7793   78.8727 H   0  0  0  0  0  0  0  0  0  0  0  0
  -10.2630   16.0836   77.5678 H   0  0  0  0  0  0  0  0  0  0  0  0
  6  5  1  0  0  0
 13 14  2  0  0  0
 14  4  1  0  0  0
 14 15  1  0  0  0
  5  4  1  0  0  0
  5  3  2  0  0  0
  4  1  2  0  0  0
  3  2  1  0  0  0
  1  2  1  0  0  0
  2  7  1  0  0  0
  7  8  2  0  0  0
  7 12  1  0  0  0
  8  9  1  0  0  0
 12 11  2  0  0  0
  9 10  2  0  0  0
 11 10  1  0  0  0
 15 16  1  0  0  0
 15 17  1  0  0  0
M  END
> <minimizedAffinity>
-6.40919

$$$$
5LVR_78Y_A_904


 17 18  0  0  0  0  0  0  0  0999 V2000
   -9.9397   18.2764   80.3121 N   0  0  0  0  0  0  0  0  0  0  0  0
  -10.8297   17.9943   79.3587 N   0  0  0  0  0  0  0  0  0  0  0  0
  -11.9084   17.2957   79.7518 N   0  0  0  0  0  0  0  0  0  0  0  0
  -10.4600   17.7379   81.4176 C   0  0  0  0  0  0  0  0  0  0  0  0
  -11.6869   17.1240   81.0452 C   0  0  0  0  0  0  0  0  0  0  0  0
  -12.6697   16.3951   81.9002 C   0  0  0  0  0  0  0  0  0  0  0  0
  -10.6163   18.3603   77.9953 C   0  0  0  0  0  0  0  0  0  0  0  0
  -10.2338   19.6609   77.6797 C   0  0  0  0  0  0  0  0  0  0  0  0
  -10.1487   20.0424   76.3496 C   0  0  0  0  0  0  0  0  0  0  0  0
  -10.4433   19.1411   75.3418 C   0  0  0  0  0  0  0  0  0  0  0  0
  -10.8109   17.8452   75.6592 C   0  0  0  0  0  0  0  0  0  0  0  0
  -10.8919   17.4443   76.9825 C   0  0  0  0  0  0  0  0  0  0  0  0
   -9.0490   16.9990   83.0918 O   0  0  0  0  0  0  0  0  0  0  0  0
   -9.8551   17.8401   82.7146 C   0  0  0  0  0  0  0  0  0  0  0  0
  -10.2478   18.8619   83.4513 N   0  0  0  0  0  0  0  0  0  0  0  0
   -9.8728   18.9920   84.3523 H   0  0  0  0  0  0  0  0  0  0  0  0
  -10.9157   19.4941   83.1001 H   0  0  0  0  0  0  0  0  0  0  0  0
  6  5  1  0  0  0
 13 14  2  0  0  0
 14  4  1  0  0  0
 14 15  1  0  0  0
  5  4  1  0  0  0
  5  3  2  0  0  0
  4  1  2  0  0  0
  3  2  1  0  0  0
  1  2  1  0  0  0
  2  7  1  0  0  0
  7  8  2  0  0  0
  7 12  1  0  0  0
  8  9  1  0  0  0
 12 11  2  0  0  0
  9 10  2  0  0  0
 11 10  1  0  0  0
 15 16  1  0  0  0
 15 17  1  0  0  0
M  END
> <minimizedAffinity>
-6.32946

$$$$
5LVR_78Y_A_904


 17 18  0  0  0  0  0  0  0  0999 V2000
  -10.4361   18.6218   79.2345 N   0  0  0  0  0  0  0  0  0  0  0  0
  -10.4609   18.6879   77.9019 N   0  0  0  0  0  0  0  0  0  0  0  0
  -11.2914   17.8282   77.2876 N   0  0  0  0  0  0  0  0  0  0  0  0
  -11.3129   17.6598   79.5325 C   0  0  0  0  0  0  0  0  0  0  0  0
  -11.8315   17.1720   78.3021 C   0  0  0  0  0  0  0  0  0  0  0  0
  -12.8515   16.1074   78.0692 C   0  0  0  0  0  0  0  0  0  0  0  0
   -9.6116   19.5756   77.1746 C   0  0  0  0  0  0  0  0  0  0  0  0
   -9.2539   19.2726   75.8639 C   0  0  0  0  0  0  0  0  0  0  0  0
   -8.3322   20.0728   75.2068 C   0  0  0  0  0  0  0  0  0  0  0  0
   -7.7686   21.1629   75.8463 C   0  0  0  0  0  0  0  0  0  0  0  0
   -8.1362   21.4685   77.1450 C   0  0  0  0  0  0  0  0  0  0  0  0
   -9.0627   20.6853   77.8134 C   0  0  0  0  0  0  0  0  0  0  0  0
  -12.5841   17.8107   81.4564 O   0  0  0  0  0  0  0  0  0  0  0  0
  -11.6494   17.2758   80.8733 C   0  0  0  0  0  0  0  0  0  0  0  0
  -10.8778   16.3534   81.4162 N   0  0  0  0  0  0  0  0  0  0  0  0
  -11.0524   16.0435   82.3341 H   0  0  0  0  0  0  0  0  0  0  0  0
  -10.1273   15.9752   80.9033 H   0  0  0  0  0  0  0  0  0  0  0  0
  6  5  1  0  0  0
 13 14  2  0  0  0
 14  4  1  0  0  0
 14 15  1  0  0  0
  5  4  1  0  0  0
  5  3  2  0  0  0
  4  1  2  0  0  0
  3  2  1  0  0  0
  1  2  1  0  0  0
  2  7  1  0  0  0
  7  8  2  0  0  0
  7 12  1  0  0  0
  8  9  1  0  0  0
 12 11  2  0  0  0
  9 10  2  0  0  0
 11 10  1  0  0  0
 15 16  1  0  0  0
 15 17  1  0  0  0
M  END
> <minimizedAffinity>
-6.17668

$$$$
5LVR_78Y_A_904


 17 18  0  0  0  0  0  0  0  0999 V2000
   -9.6545   16.5805   78.7719 N   0  0  0  0  0  0  0  0  0  0  0  0
  -10.6378   17.4611   78.5755 N   0  0  0  0  0  0  0  0  0  0  0  0
  -11.0138   18.1701   79.6535 N   0  0  0  0  0  0  0  0  0  0  0  0
   -9.3468   16.7137   80.0643 C   0  0  0  0  0  0  0  0  0  0  0  0
  -10.2118   17.7071   80.5990 C   0  0  0  0  0  0  0  0  0  0  0  0
  -10.2771   18.2455   81.9897 C   0  0  0  0  0  0  0  0  0  0  0  0
  -11.2890   17.5955   77.3122 C   0  0  0  0  0  0  0  0  0  0  0  0
  -10.7047   18.3661   76.3110 C   0  0  0  0  0  0  0  0  0  0  0  0
  -11.3994   18.5933   75.1330 C   0  0  0  0  0  0  0  0  0  0  0  0
  -12.6643   18.0621   74.9518 C   0  0  0  0  0  0  0  0  0  0  0  0
  -13.2367   17.2859   75.9443 C   0  0  0  0  0  0  0  0  0  0  0  0
  -12.5530   17.0409   77.1237 C   0  0  0  0  0  0  0  0  0  0  0  0
   -8.4150   14.7872   80.9363 O   0  0  0  0  0  0  0  0  0  0  0  0
   -8.2943   15.9851   80.7121 C   0  0  0  0  0  0  0  0  0  0  0  0
   -7.2368   16.6933   81.0601 N   0  0  0  0  0  0  0  0  0  0  0  0
   -6.4774   16.2560   81.5089 H   0  0  0  0  0  0  0  0  0  0  0  0
   -7.2071   17.6590   80.8709 H   0  0  0  0  0  0  0  0  0  0  0  0
  6  5  1  0  0  0
 13 14  2  0  0  0
 14  4  1  0  0  0
 14 15  1  0  0  0
  5  4  1  0  0  0
  5  3  2  0  0  0
  4  1  2  0  0  0
  3  2  1  0  0  0
  1  2  1  0  0  0
  2  7  1  0  0  0
  7  8  2  0  0  0
  7 12  1  0  0  0
  8  9  1  0  0  0
 12 11  2  0  0  0
  9 10  2  0  0  0
 11 10  1  0  0  0
 15 16  1  0  0  0
 15 17  1  0  0  0
M  END
> <minimizedAffinity>
-6.09350

$$$$
5LVR_78Y_A_904


 17 18  0  0  0  0  0  0  0  0999 V2000
  -10.7862   18.1016   78.0332 N   0  0  0  0  0  0  0  0  0  0  0  0
  -10.4588   18.8038   79.1198 N   0  0  0  0  0  0  0  0  0  0  0  0
   -9.9488   20.0269   78.8958 N   0  0  0  0  0  0  0  0  0  0  0  0
  -10.4824   18.9103   77.0151 C   0  0  0  0  0  0  0  0  0  0  0  0
   -9.9544   20.1057   77.5747 C   0  0  0  0  0  0  0  0  0  0  0  0
   -9.4750   21.3363   76.8791 C   0  0  0  0  0  0  0  0  0  0  0  0
  -10.5867   18.2625   80.4347 C   0  0  0  0  0  0  0  0  0  0  0  0
  -11.0804   19.0574   81.4653 C   0  0  0  0  0  0  0  0  0  0  0  0
  -11.0860   18.5663   82.7617 C   0  0  0  0  0  0  0  0  0  0  0  0
  -10.6033   17.2981   83.0328 C   0  0  0  0  0  0  0  0  0  0  0  0
  -10.1251   16.5060   82.0038 C   0  0  0  0  0  0  0  0  0  0  0  0
  -10.1207   16.9770   80.7012 C   0  0  0  0  0  0  0  0  0  0  0  0
   -9.8472   18.0276   74.9761 O   0  0  0  0  0  0  0  0  0  0  0  0
  -10.7162   18.5807   75.6385 C   0  0  0  0  0  0  0  0  0  0  0  0
  -11.8912   18.9368   75.1553 N   0  0  0  0  0  0  0  0  0  0  0  0
  -12.1176   18.7412   74.2174 H   0  0  0  0  0  0  0  0  0  0  0  0
  -12.5416   19.3981   75.7328 H   0  0  0  0  0  0  0  0  0  0  0  0
  6  5  1  0  0  0
 13 14  2  0  0  0
 14  4  1  0  0  0
 14 15  1  0  0  0
  5  4  1  0  0  0
  5  3  2  0  0  0
  4  1  2  0  0  0
  3  2  1  0  0  0
  1  2  1  0  0  0
  2  7  1  0  0  0
  7  8  2  0  0  0
  7 12  1  0  0  0
  8  9  1  0  0  0
 12 11  2  0  0  0
  9 10  2  0  0  0
 11 10  1  0  0  0
 15 16  1  0  0  0
 15 17  1  0  0  0
M  END
> <minimizedAffinity>
-6.04126

$$$$
5LVR_78Y_A_904


 17 18  0  0  0  0  0  0  0  0999 V2000
   -9.4858   19.1997   75.7349 N   0  0  0  0  0  0  0  0  0  0  0  0
  -10.3880   19.1939   76.7183 N   0  0  0  0  0  0  0  0  0  0  0  0
  -10.2800   20.1855   77.6189 N   0  0  0  0  0  0  0  0  0  0  0  0
   -8.7287   20.2696   75.9895 C   0  0  0  0  0  0  0  0  0  0  0  0
   -9.2370   20.8683   77.1745 C   0  0  0  0  0  0  0  0  0  0  0  0
   -8.7658   22.0943   77.8838 C   0  0  0  0  0  0  0  0  0  0  0  0
  -11.3675   18.1620   76.8373 C   0  0  0  0  0  0  0  0  0  0  0  0
  -12.3448   18.0192   75.8565 C   0  0  0  0  0  0  0  0  0  0  0  0
  -13.3641   17.0975   76.0393 C   0  0  0  0  0  0  0  0  0  0  0  0
  -13.4140   16.3262   77.1872 C   0  0  0  0  0  0  0  0  0  0  0  0
  -12.4334   16.4620   78.1543 C   0  0  0  0  0  0  0  0  0  0  0  0
  -11.4025   17.3713   77.9837 C   0  0  0  0  0  0  0  0  0  0  0  0
   -7.8456   20.9800   73.9757 O   0  0  0  0  0  0  0  0  0  0  0  0
   -7.6465   20.6979   75.1506 C   0  0  0  0  0  0  0  0  0  0  0  0
   -6.4575   20.7327   75.7218 N   0  0  0  0  0  0  0  0  0  0  0  0
   -5.6705   21.0174   75.2033 H   0  0  0  0  0  0  0  0  0  0  0  0
   -6.3575   20.4740   76.6664 H   0  0  0  0  0  0  0  0  0  0  0  0
  6  5  1  0  0  0
 13 14  2  0  0  0
 14  4  1  0  0  0
 14 15  1  0  0  0
  5  4  1  0  0  0
  5  3  2  0  0  0
  4  1  2  0  0  0
  3  2  1  0  0  0
  1  2  1  0  0  0
  2  7  1  0  0  0
  7  8  2  0  0  0
  7 12  1  0  0  0
  8  9  1  0  0  0
 12 11  2  0  0  0
  9 10  2  0  0  0
 11 10  1  0  0  0
 15 16  1  0  0  0
 15 17  1  0  0  0
M  END
> <minimizedAffinity>
-6.00012

$$$$
