3G1V_5FU_A_501


 27 28  0  0  0  0  0  0  0  0999 V2000
   10.3117   -0.0726    4.0265 C   0  0  0  0  0  0  0  0  0  0  0  0
    9.3610   -0.9855    3.4243 O   0  0  0  0  0  0  0  0  0  0  0  0
   10.0195   -0.1195    5.5123 C   0  0  0  0  0  0  0  0  0  0  0  0
   11.1501    0.1660    6.3286 O   0  0  0  0  0  0  0  0  0  0  0  0
    9.4916   -1.5004    5.7064 C   0  0  0  0  0  0  0  0  0  0  0  0
   10.5877   -2.4169    5.8562 O   0  0  0  0  0  0  0  0  0  0  0  0
    8.7251   -1.7697    4.4542 C   0  0  0  0  0  0  0  0  0  0  0  0
   11.8560   -0.4712    6.1376 H   0  0  0  0  0  0  0  0  0  0  0  0
   11.1705   -2.3531    5.0834 H   0  0  0  0  0  0  0  0  0  0  0  0
    7.5611    3.7255    3.0810 F   0  0  0  0  0  0  0  0  0  0  0  0
    8.7989    3.1176    2.9347 C   0  0  0  0  0  0  0  0  0  0  0  0
    9.8720    3.8018    2.4188 C   0  0  0  0  0  0  0  0  0  0  0  0
    9.8004    5.0037    2.0099 O   0  0  0  0  0  0  0  0  0  0  0  0
   11.0801    3.1953    2.3347 N   0  0  0  0  0  0  0  0  0  0  0  0
   11.2786    1.9245    2.8114 C   0  0  0  0  0  0  0  0  0  0  0  0
   12.4088    1.4241    2.7492 O   0  0  0  0  0  0  0  0  0  0  0  0
    8.9475    1.7953    3.3238 C   0  0  0  0  0  0  0  0  0  0  0  0
   10.1853    1.2423    3.3610 N   0  0  0  0  0  0  0  0  0  0  0  0
   11.8328    3.6775    1.9221 H   0  0  0  0  0  0  0  0  0  0  0  0
    7.2620   -1.3518    4.5273 C   0  0  0  0  0  0  0  0  0  0  0  0
    6.5107   -2.5415    4.7394 O   0  0  0  0  0  0  0  0  0  0  0  0
    5.8414   -2.8911    6.1617 P   0  0  0  0  0  0  0  0  0  0  0  0
    6.9852   -2.6379    7.0889 O   0  0  0  0  0  0  0  0  0  0  0  0
    4.6819   -1.9597    6.3893 O   0  0  0  0  0  0  0  0  0  0  0  0
    5.4549   -4.3357    6.1127 O   0  0  0  0  0  0  0  0  0  0  0  0
    5.0018   -1.0442    6.4100 H   0  0  0  0  0  0  0  0  0  0  0  0
    6.2459   -4.8771    5.9641 H   0  0  0  0  0  0  0  0  0  0  0  0
 10 11  1  0  0  0
 11 17  2  0  0  0
 11 12  1  0  0  0
 12 13  2  0  0  0
 12 14  1  0  0  0
 14 15  1  0  0  0
 15 18  1  0  0  0
 15 16  2  0  0  0
 17 18  1  0  0  0
 18  1  1  0  0  0
  1  3  1  0  0  0
  1  2  1  0  0  0
  2  7  1  0  0  0
  3  4  1  0  0  0
  3  5  1  0  0  0
  5  7  1  0  0  0
  5  6  1  0  0  0
  7 20  1  0  0  0
 20 21  1  0  0  0
 21 22  1  0  0  0
 22 23  2  0  0  0
 22 24  1  0  0  0
 22 25  1  0  0  0
 14 19  1  0  0  0
  4  8  1  0  0  0
  6  9  1  0  0  0
 24 26  1  0  0  0
 25 27  1  0  0  0
M  END
> <minimizedAffinity>
-10.10109

$$$$
3G1V_5FU_A_501


 27 28  0  0  0  0  0  0  0  0999 V2000
    9.7589    2.0951    2.2234 C   0  0  0  0  0  0  0  0  0  0  0  0
    8.9075    0.9941    1.8199 O   0  0  0  0  0  0  0  0  0  0  0  0
   10.1622    1.7820    3.6498 C   0  0  0  0  0  0  0  0  0  0  0  0
   11.4212    2.3308    4.0236 O   0  0  0  0  0  0  0  0  0  0  0  0
   10.1404    0.2914    3.6845 C   0  0  0  0  0  0  0  0  0  0  0  0
   11.3857   -0.2190    3.1819 O   0  0  0  0  0  0  0  0  0  0  0  0
    9.0031   -0.0707    2.7880 C   0  0  0  0  0  0  0  0  0  0  0  0
   12.1105    1.9915    3.4315 H   0  0  0  0  0  0  0  0  0  0  0  0
   11.5384    0.1242    2.2875 H   0  0  0  0  0  0  0  0  0  0  0  0
    8.9323    5.8206   -0.6615 F   0  0  0  0  0  0  0  0  0  0  0  0
    8.6277    5.1788    0.5295 C   0  0  0  0  0  0  0  0  0  0  0  0
    7.5633    5.5761    1.3009 C   0  0  0  0  0  0  0  0  0  0  0  0
    6.8199    6.5647    1.0059 O   0  0  0  0  0  0  0  0  0  0  0  0
    7.2619    4.8974    2.4335 N   0  0  0  0  0  0  0  0  0  0  0  0
    7.9595    3.7759    2.8039 C   0  0  0  0  0  0  0  0  0  0  0  0
    7.6244    3.1645    3.8264 O   0  0  0  0  0  0  0  0  0  0  0  0
    9.4153    4.1137    0.9385 C   0  0  0  0  0  0  0  0  0  0  0  0
    9.0273    3.3606    1.9976 N   0  0  0  0  0  0  0  0  0  0  0  0
    6.5256    5.2162    3.0040 H   0  0  0  0  0  0  0  0  0  0  0  0
    7.6636   -0.1749    3.5060 C   0  0  0  0  0  0  0  0  0  0  0  0
    7.9554   -0.4629    4.8686 O   0  0  0  0  0  0  0  0  0  0  0  0
    7.2767   -1.6974    5.6487 P   0  0  0  0  0  0  0  0  0  0  0  0
    6.6365   -2.4359    4.5188 O   0  0  0  0  0  0  0  0  0  0  0  0
    8.3593   -2.4887    6.3308 O   0  0  0  0  0  0  0  0  0  0  0  0
    6.2721   -1.1121    6.5905 O   0  0  0  0  0  0  0  0  0  0  0  0
    8.9728   -2.8377    5.6654 H   0  0  0  0  0  0  0  0  0  0  0  0
    5.6066   -0.6177    6.0870 H   0  0  0  0  0  0  0  0  0  0  0  0
 10 11  1  0  0  0
 11 17  2  0  0  0
 11 12  1  0  0  0
 12 13  2  0  0  0
 12 14  1  0  0  0
 14 15  1  0  0  0
 15 18  1  0  0  0
 15 16  2  0  0  0
 17 18  1  0  0  0
 18  1  1  0  0  0
  1  3  1  0  0  0
  1  2  1  0  0  0
  2  7  1  0  0  0
  3  4  1  0  0  0
  3  5  1  0  0  0
  5  7  1  0  0  0
  5  6  1  0  0  0
  7 20  1  0  0  0
 20 21  1  0  0  0
 21 22  1  0  0  0
 22 23  2  0  0  0
 22 24  1  0  0  0
 22 25  1  0  0  0
 14 19  1  0  0  0
  4  8  1  0  0  0
  6  9  1  0  0  0
 24 26  1  0  0  0
 25 27  1  0  0  0
M  END
> <minimizedAffinity>
-9.88113

$$$$
3G1V_5FU_A_501


 27 28  0  0  0  0  0  0  0  0999 V2000
    7.7949    0.1582    4.3199 C   0  0  0  0  0  0  0  0  0  0  0  0
    8.4899   -0.1779    5.5462 O   0  0  0  0  0  0  0  0  0  0  0  0
    7.3989   -1.1717    3.7117 C   0  0  0  0  0  0  0  0  0  0  0  0
    6.2300   -1.1070    2.9021 O   0  0  0  0  0  0  0  0  0  0  0  0
    7.2360   -2.0506    4.9052 C   0  0  0  0  0  0  0  0  0  0  0  0
    5.9221   -1.8711    5.4580 O   0  0  0  0  0  0  0  0  0  0  0  0
    8.2917   -1.5744    5.8469 C   0  0  0  0  0  0  0  0  0  0  0  0
    5.4862   -0.7825    3.4335 H   0  0  0  0  0  0  0  0  0  0  0  0
    5.7864   -0.9347    5.6717 H   0  0  0  0  0  0  0  0  0  0  0  0
    8.6898    4.5514    2.6514 F   0  0  0  0  0  0  0  0  0  0  0  0
    9.0935    3.2266    2.7209 C   0  0  0  0  0  0  0  0  0  0  0  0
   10.3292    2.8337    2.2687 C   0  0  0  0  0  0  0  0  0  0  0  0
   11.1594    3.6315    1.7290 O   0  0  0  0  0  0  0  0  0  0  0  0
   10.7134    1.5412    2.3960 N   0  0  0  0  0  0  0  0  0  0  0  0
    9.9194    0.6164    3.0254 C   0  0  0  0  0  0  0  0  0  0  0  0
   10.3276   -0.5449    3.1537 O   0  0  0  0  0  0  0  0  0  0  0  0
    8.2284    2.2887    3.2633 C   0  0  0  0  0  0  0  0  0  0  0  0
    8.6712    1.0305    3.5082 N   0  0  0  0  0  0  0  0  0  0  0  0
   11.5821    1.2590    2.0286 H   0  0  0  0  0  0  0  0  0  0  0  0
    9.6288   -2.2853    5.6816 C   0  0  0  0  0  0  0  0  0  0  0  0
   10.3443   -2.0906    6.8961 O   0  0  0  0  0  0  0  0  0  0  0  0
   11.2476   -0.7837    7.1594 P   0  0  0  0  0  0  0  0  0  0  0  0
   12.3897   -1.3713    7.9226 O   0  0  0  0  0  0  0  0  0  0  0  0
   11.6604   -0.2092    5.8316 O   0  0  0  0  0  0  0  0  0  0  0  0
   10.4244    0.1487    7.9911 O   0  0  0  0  0  0  0  0  0  0  0  0
   12.1884   -0.8626    5.3466 H   0  0  0  0  0  0  0  0  0  0  0  0
   10.1942   -0.2829    8.8287 H   0  0  0  0  0  0  0  0  0  0  0  0
 10 11  1  0  0  0
 11 17  2  0  0  0
 11 12  1  0  0  0
 12 13  2  0  0  0
 12 14  1  0  0  0
 14 15  1  0  0  0
 15 18  1  0  0  0
 15 16  2  0  0  0
 17 18  1  0  0  0
 18  1  1  0  0  0
  1  3  1  0  0  0
  1  2  1  0  0  0
  2  7  1  0  0  0
  3  4  1  0  0  0
  3  5  1  0  0  0
  5  7  1  0  0  0
  5  6  1  0  0  0
  7 20  1  0  0  0
 20 21  1  0  0  0
 21 22  1  0  0  0
 22 23  2  0  0  0
 22 24  1  0  0  0
 22 25  1  0  0  0
 14 19  1  0  0  0
  4  8  1  0  0  0
  6  9  1  0  0  0
 24 26  1  0  0  0
 25 27  1  0  0  0
M  END
> <minimizedAffinity>
-9.60826

$$$$
3G1V_5FU_A_501


 27 28  0  0  0  0  0  0  0  0999 V2000
    9.7915    1.7219    2.4074 C   0  0  0  0  0  0  0  0  0  0  0  0
    8.9235    0.6430    1.9804 O   0  0  0  0  0  0  0  0  0  0  0  0
    9.7660    1.6754    3.9215 C   0  0  0  0  0  0  0  0  0  0  0  0
   10.9521    2.1734    4.5308 O   0  0  0  0  0  0  0  0  0  0  0  0
    9.5225    0.2325    4.2082 C   0  0  0  0  0  0  0  0  0  0  0  0
   10.7687   -0.4814    4.1711 O   0  0  0  0  0  0  0  0  0  0  0  0
    8.6137   -0.2027    3.1070 C   0  0  0  0  0  0  0  0  0  0  0  0
   11.7143    1.6579    4.2238 H   0  0  0  0  0  0  0  0  0  0  0  0
   11.1934   -0.3460    3.3096 H   0  0  0  0  0  0  0  0  0  0  0  0
    7.3520    5.8143    2.8393 F   0  0  0  0  0  0  0  0  0  0  0  0
    8.1333    5.0031    2.0303 C   0  0  0  0  0  0  0  0  0  0  0  0
    8.6235    5.4548    0.8296 C   0  0  0  0  0  0  0  0  0  0  0  0
    8.3693    6.6106    0.3641 O   0  0  0  0  0  0  0  0  0  0  0  0
    9.4246    4.6556    0.0856 N   0  0  0  0  0  0  0  0  0  0  0  0
    9.8140    3.4177    0.5304 C   0  0  0  0  0  0  0  0  0  0  0  0
   10.5787    2.7373   -0.1653 O   0  0  0  0  0  0  0  0  0  0  0  0
    8.4241    3.7148    2.4521 C   0  0  0  0  0  0  0  0  0  0  0  0
    9.3317    2.9742    1.7687 N   0  0  0  0  0  0  0  0  0  0  0  0
    9.7346    4.9701   -0.7943 H   0  0  0  0  0  0  0  0  0  0  0  0
    7.1342   -0.0344    3.4283 C   0  0  0  0  0  0  0  0  0  0  0  0
    6.9227   -0.6450    4.6960 O   0  0  0  0  0  0  0  0  0  0  0  0
    5.7239   -1.6884    4.9561 P   0  0  0  0  0  0  0  0  0  0  0  0
    6.4854   -2.9057    5.3691 O   0  0  0  0  0  0  0  0  0  0  0  0
    4.8432   -1.1461    6.0488 O   0  0  0  0  0  0  0  0  0  0  0  0
    5.0204   -1.8712    3.6483 O   0  0  0  0  0  0  0  0  0  0  0  0
    5.3601   -1.0529    6.8643 H   0  0  0  0  0  0  0  0  0  0  0  0
    5.6432   -2.2217    2.9924 H   0  0  0  0  0  0  0  0  0  0  0  0
 10 11  1  0  0  0
 11 17  2  0  0  0
 11 12  1  0  0  0
 12 13  2  0  0  0
 12 14  1  0  0  0
 14 15  1  0  0  0
 15 18  1  0  0  0
 15 16  2  0  0  0
 17 18  1  0  0  0
 18  1  1  0  0  0
  1  3  1  0  0  0
  1  2  1  0  0  0
  2  7  1  0  0  0
  3  4  1  0  0  0
  3  5  1  0  0  0
  5  7  1  0  0  0
  5  6  1  0  0  0
  7 20  1  0  0  0
 20 21  1  0  0  0
 21 22  1  0  0  0
 22 23  2  0  0  0
 22 24  1  0  0  0
 22 25  1  0  0  0
 14 19  1  0  0  0
  4  8  1  0  0  0
  6  9  1  0  0  0
 24 26  1  0  0  0
 25 27  1  0  0  0
M  END
> <minimizedAffinity>
-9.52891

$$$$
3G1V_5FU_A_501


 27 28  0  0  0  0  0  0  0  0999 V2000
    8.5934    1.1405    2.8783 C   0  0  0  0  0  0  0  0  0  0  0  0
    9.8086    0.9247    2.1190 O   0  0  0  0  0  0  0  0  0  0  0  0
    8.7426    2.5226    3.4806 C   0  0  0  0  0  0  0  0  0  0  0  0
    7.5037    3.1825    3.7164 O   0  0  0  0  0  0  0  0  0  0  0  0
    9.6022    3.2294    2.4881 C   0  0  0  0  0  0  0  0  0  0  0  0
    8.7848    3.7419    1.4236 O   0  0  0  0  0  0  0  0  0  0  0  0
   10.5301    2.1677    1.9982 C   0  0  0  0  0  0  0  0  0  0  0  0
    7.0177    3.2659    2.8811 H   0  0  0  0  0  0  0  0  0  0  0  0
    8.2838    3.0148    1.0219 H   0  0  0  0  0  0  0  0  0  0  0  0
   10.0852   -1.0465    6.8629 F   0  0  0  0  0  0  0  0  0  0  0  0
    9.1779   -1.0266    5.8144 C   0  0  0  0  0  0  0  0  0  0  0  0
    8.0794   -1.8507    5.8071 C   0  0  0  0  0  0  0  0  0  0  0  0
    7.8408   -2.7013    6.7217 O   0  0  0  0  0  0  0  0  0  0  0  0
    7.1854   -1.7723    4.7928 N   0  0  0  0  0  0  0  0  0  0  0  0
    7.3151   -0.8414    3.7937 C   0  0  0  0  0  0  0  0  0  0  0  0
    6.4531   -0.7798    2.9077 O   0  0  0  0  0  0  0  0  0  0  0  0
    9.3893   -0.1512    4.7602 C   0  0  0  0  0  0  0  0  0  0  0  0
    8.4241    0.0143    3.8221 N   0  0  0  0  0  0  0  0  0  0  0  0
    6.4252   -2.3976    4.7720 H   0  0  0  0  0  0  0  0  0  0  0  0
   11.8120    2.0482    2.8123 C   0  0  0  0  0  0  0  0  0  0  0  0
   12.8883    2.0935    1.8826 O   0  0  0  0  0  0  0  0  0  0  0  0
   14.3340    1.4657    2.2130 P   0  0  0  0  0  0  0  0  0  0  0  0
   14.2069    1.2038    3.6783 O   0  0  0  0  0  0  0  0  0  0  0  0
   14.5091    0.2096    1.4035 O   0  0  0  0  0  0  0  0  0  0  0  0
   15.3443    2.5264    1.9079 O   0  0  0  0  0  0  0  0  0  0  0  0
   13.8249   -0.4321    1.6504 H   0  0  0  0  0  0  0  0  0  0  0  0
   15.1739    3.3041    2.4620 H   0  0  0  0  0  0  0  0  0  0  0  0
 10 11  1  0  0  0
 11 17  2  0  0  0
 11 12  1  0  0  0
 12 13  2  0  0  0
 12 14  1  0  0  0
 14 15  1  0  0  0
 15 18  1  0  0  0
 15 16  2  0  0  0
 17 18  1  0  0  0
 18  1  1  0  0  0
  1  3  1  0  0  0
  1  2  1  0  0  0
  2  7  1  0  0  0
  3  4  1  0  0  0
  3  5  1  0  0  0
  5  7  1  0  0  0
  5  6  1  0  0  0
  7 20  1  0  0  0
 20 21  1  0  0  0
 21 22  1  0  0  0
 22 23  2  0  0  0
 22 24  1  0  0  0
 22 25  1  0  0  0
 14 19  1  0  0  0
  4  8  1  0  0  0
  6  9  1  0  0  0
 24 26  1  0  0  0
 25 27  1  0  0  0
M  END
> <minimizedAffinity>
-9.36959

$$$$
3G1V_5FU_A_501


 27 28  0  0  0  0  0  0  0  0999 V2000
    9.8874    1.0454    4.1700 C   0  0  0  0  0  0  0  0  0  0  0  0
    9.3753    2.3938    4.0309 O   0  0  0  0  0  0  0  0  0  0  0  0
   10.6801    0.7902    2.9044 C   0  0  0  0  0  0  0  0  0  0  0  0
   11.7403   -0.1450    3.0703 O   0  0  0  0  0  0  0  0  0  0  0  0
   11.1552    2.1521    2.5263 C   0  0  0  0  0  0  0  0  0  0  0  0
   12.3525    2.4630    3.2569 O   0  0  0  0  0  0  0  0  0  0  0  0
   10.0284    3.0470    2.9233 C   0  0  0  0  0  0  0  0  0  0  0  0
   12.3512    0.1763    3.7518 H   0  0  0  0  0  0  0  0  0  0  0  0
   12.1798    2.3866    4.2083 H   0  0  0  0  0  0  0  0  0  0  0  0
    6.0995   -1.3113    2.4429 F   0  0  0  0  0  0  0  0  0  0  0  0
    6.8963   -1.0327    3.5431 C   0  0  0  0  0  0  0  0  0  0  0  0
    6.7652   -1.7375    4.7144 C   0  0  0  0  0  0  0  0  0  0  0  0
    5.8960   -2.6499    4.8847 O   0  0  0  0  0  0  0  0  0  0  0  0
    7.5919   -1.4749    5.7545 N   0  0  0  0  0  0  0  0  0  0  0  0
    8.6067   -0.5579    5.6495 C   0  0  0  0  0  0  0  0  0  0  0  0
    9.3626   -0.3783    6.6128 O   0  0  0  0  0  0  0  0  0  0  0  0
    7.8439   -0.0251    3.4478 C   0  0  0  0  0  0  0  0  0  0  0  0
    8.7514    0.1382    4.4423 N   0  0  0  0  0  0  0  0  0  0  0  0
    7.4617   -1.9530    6.6052 H   0  0  0  0  0  0  0  0  0  0  0  0
    8.9939    3.2568    1.8249 C   0  0  0  0  0  0  0  0  0  0  0  0
    9.6003    4.1004    0.8527 O   0  0  0  0  0  0  0  0  0  0  0  0
    9.9268    3.5920   -0.6401 P   0  0  0  0  0  0  0  0  0  0  0  0
    9.0207    2.4090   -0.7466 O   0  0  0  0  0  0  0  0  0  0  0  0
    9.5785    4.6894   -1.6086 O   0  0  0  0  0  0  0  0  0  0  0  0
   11.3726    3.2075   -0.6578 O   0  0  0  0  0  0  0  0  0  0  0  0
    8.6311    4.8879   -1.5452 H   0  0  0  0  0  0  0  0  0  0  0  0
   11.5267    2.4990   -0.0134 H   0  0  0  0  0  0  0  0  0  0  0  0
 10 11  1  0  0  0
 11 17  2  0  0  0
 11 12  1  0  0  0
 12 13  2  0  0  0
 12 14  1  0  0  0
 14 15  1  0  0  0
 15 18  1  0  0  0
 15 16  2  0  0  0
 17 18  1  0  0  0
 18  1  1  0  0  0
  1  3  1  0  0  0
  1  2  1  0  0  0
  2  7  1  0  0  0
  3  4  1  0  0  0
  3  5  1  0  0  0
  5  7  1  0  0  0
  5  6  1  0  0  0
  7 20  1  0  0  0
 20 21  1  0  0  0
 21 22  1  0  0  0
 22 23  2  0  0  0
 22 24  1  0  0  0
 22 25  1  0  0  0
 14 19  1  0  0  0
  4  8  1  0  0  0
  6  9  1  0  0  0
 24 26  1  0  0  0
 25 27  1  0  0  0
M  END
> <minimizedAffinity>
-8.90223

$$$$
3G1V_5FU_A_501


 27 28  0  0  0  0  0  0  0  0999 V2000
    9.6845    0.6246    4.4742 C   0  0  0  0  0  0  0  0  0  0  0  0
    9.1519    1.9502    4.7171 O   0  0  0  0  0  0  0  0  0  0  0  0
   10.1068    0.6277    3.0193 C   0  0  0  0  0  0  0  0  0  0  0  0
   11.1738   -0.2689    2.7297 O   0  0  0  0  0  0  0  0  0  0  0  0
   10.4604    2.0557    2.7761 C   0  0  0  0  0  0  0  0  0  0  0  0
   11.8100    2.2962    3.2060 O   0  0  0  0  0  0  0  0  0  0  0  0
    9.4811    2.8136    3.6097 C   0  0  0  0  0  0  0  0  0  0  0  0
   11.9454   -0.0385    3.2705 H   0  0  0  0  0  0  0  0  0  0  0  0
   11.9004    2.0506    4.1400 H   0  0  0  0  0  0  0  0  0  0  0  0
    5.7510   -1.8241    3.2839 F   0  0  0  0  0  0  0  0  0  0  0  0
    6.7295   -1.5821    4.2363 C   0  0  0  0  0  0  0  0  0  0  0  0
    6.8580   -2.3823    5.3449 C   0  0  0  0  0  0  0  0  0  0  0  0
    6.0811   -3.3578    5.5936 O   0  0  0  0  0  0  0  0  0  0  0  0
    7.8551   -2.1497    6.2315 N   0  0  0  0  0  0  0  0  0  0  0  0
    8.7869   -1.1655    6.0199 C   0  0  0  0  0  0  0  0  0  0  0  0
    9.7038   -1.0140    6.8373 O   0  0  0  0  0  0  0  0  0  0  0  0
    7.5931   -0.5128    4.0548 C   0  0  0  0  0  0  0  0  0  0  0  0
    8.6653   -0.3704    4.8729 N   0  0  0  0  0  0  0  0  0  0  0  0
    7.9124   -2.6995    7.0462 H   0  0  0  0  0  0  0  0  0  0  0  0
    8.1885    3.1562    2.8803 C   0  0  0  0  0  0  0  0  0  0  0  0
    8.5642    3.8257    1.6822 O   0  0  0  0  0  0  0  0  0  0  0  0
    8.5103    5.4291    1.5426 P   0  0  0  0  0  0  0  0  0  0  0  0
    9.8081    5.8174    2.1727 O   0  0  0  0  0  0  0  0  0  0  0  0
    8.4361    5.7822    0.0820 O   0  0  0  0  0  0  0  0  0  0  0  0
    7.3291    5.8913    2.3363 O   0  0  0  0  0  0  0  0  0  0  0  0
    9.2291    5.4547   -0.3706 H   0  0  0  0  0  0  0  0  0  0  0  0
    7.4416    5.6319    3.2642 H   0  0  0  0  0  0  0  0  0  0  0  0
 10 11  1  0  0  0
 11 17  2  0  0  0
 11 12  1  0  0  0
 12 13  2  0  0  0
 12 14  1  0  0  0
 14 15  1  0  0  0
 15 18  1  0  0  0
 15 16  2  0  0  0
 17 18  1  0  0  0
 18  1  1  0  0  0
  1  3  1  0  0  0
  1  2  1  0  0  0
  2  7  1  0  0  0
  3  4  1  0  0  0
  3  5  1  0  0  0
  5  7  1  0  0  0
  5  6  1  0  0  0
  7 20  1  0  0  0
 20 21  1  0  0  0
 21 22  1  0  0  0
 22 23  2  0  0  0
 22 24  1  0  0  0
 22 25  1  0  0  0
 14 19  1  0  0  0
  4  8  1  0  0  0
  6  9  1  0  0  0
 24 26  1  0  0  0
 25 27  1  0  0  0
M  END
> <minimizedAffinity>
-8.88722

$$$$
3G1V_5FU_A_501


 27 28  0  0  0  0  0  0  0  0999 V2000
    9.9600    2.0094    1.7161 C   0  0  0  0  0  0  0  0  0  0  0  0
    9.0905    0.8624    1.5473 O   0  0  0  0  0  0  0  0  0  0  0  0
   10.4241    1.9461    3.1568 C   0  0  0  0  0  0  0  0  0  0  0  0
   11.6988    2.5407    3.3755 O   0  0  0  0  0  0  0  0  0  0  0  0
   10.4019    0.4847    3.4520 C   0  0  0  0  0  0  0  0  0  0  0  0
   11.6237   -0.1164    2.9940 O   0  0  0  0  0  0  0  0  0  0  0  0
    9.2265   -0.0181    2.6815 C   0  0  0  0  0  0  0  0  0  0  0  0
   12.3614    2.0972    2.8231 H   0  0  0  0  0  0  0  0  0  0  0  0
   11.7381    0.0642    2.0478 H   0  0  0  0  0  0  0  0  0  0  0  0
    7.4349    5.8467    3.0518 F   0  0  0  0  0  0  0  0  0  0  0  0
    7.9942    5.1253    2.0079 C   0  0  0  0  0  0  0  0  0  0  0  0
    8.0496    5.6396    0.7358 C   0  0  0  0  0  0  0  0  0  0  0  0
    7.5671    6.7733    0.4213 O   0  0  0  0  0  0  0  0  0  0  0  0
    8.6468    4.9308   -0.2518 N   0  0  0  0  0  0  0  0  0  0  0  0
    9.2580    3.7285   -0.0019 C   0  0  0  0  0  0  0  0  0  0  0  0
    9.8254    3.1338   -0.9272 O   0  0  0  0  0  0  0  0  0  0  0  0
    8.5092    3.8638    2.2639 C   0  0  0  0  0  0  0  0  0  0  0  0
    9.2210    3.2226    1.3040 N   0  0  0  0  0  0  0  0  0  0  0  0
    8.6421    5.2866   -1.1698 H   0  0  0  0  0  0  0  0  0  0  0  0
    7.9192    0.0162    3.4626 C   0  0  0  0  0  0  0  0  0  0  0  0
    7.7199   -1.2954    3.9772 O   0  0  0  0  0  0  0  0  0  0  0  0
    8.0530   -1.6767    5.5059 P   0  0  0  0  0  0  0  0  0  0  0  0
    7.0271   -2.7301    5.7706 O   0  0  0  0  0  0  0  0  0  0  0  0
    9.4628   -2.1974    5.5752 O   0  0  0  0  0  0  0  0  0  0  0  0
    7.8252   -0.4408    6.3178 O   0  0  0  0  0  0  0  0  0  0  0  0
    9.5400   -2.9954    5.0291 H   0  0  0  0  0  0  0  0  0  0  0  0
    6.9007   -0.1609    6.2283 H   0  0  0  0  0  0  0  0  0  0  0  0
 10 11  1  0  0  0
 11 17  2  0  0  0
 11 12  1  0  0  0
 12 13  2  0  0  0
 12 14  1  0  0  0
 14 15  1  0  0  0
 15 18  1  0  0  0
 15 16  2  0  0  0
 17 18  1  0  0  0
 18  1  1  0  0  0
  1  3  1  0  0  0
  1  2  1  0  0  0
  2  7  1  0  0  0
  3  4  1  0  0  0
  3  5  1  0  0  0
  5  7  1  0  0  0
  5  6  1  0  0  0
  7 20  1  0  0  0
 20 21  1  0  0  0
 21 22  1  0  0  0
 22 23  2  0  0  0
 22 24  1  0  0  0
 22 25  1  0  0  0
 14 19  1  0  0  0
  4  8  1  0  0  0
  6  9  1  0  0  0
 24 26  1  0  0  0
 25 27  1  0  0  0
M  END
> <minimizedAffinity>
-8.86106

$$$$
3G1V_5FU_A_501


 27 28  0  0  0  0  0  0  0  0999 V2000
    9.7827    0.3567    3.0625 C   0  0  0  0  0  0  0  0  0  0  0  0
    8.7122   -0.4701    2.5425 O   0  0  0  0  0  0  0  0  0  0  0  0
    9.7520    0.1474    4.5626 C   0  0  0  0  0  0  0  0  0  0  0  0
   11.0161    0.3244    5.1925 O   0  0  0  0  0  0  0  0  0  0  0  0
    9.2208   -1.2394    4.6965 C   0  0  0  0  0  0  0  0  0  0  0  0
   10.2956   -2.1815    4.5505 O   0  0  0  0  0  0  0  0  0  0  0  0
    8.2397   -1.3563    3.5776 C   0  0  0  0  0  0  0  0  0  0  0  0
   11.6567   -0.2967    4.8121 H   0  0  0  0  0  0  0  0  0  0  0  0
   10.7368   -2.0392    3.6985 H   0  0  0  0  0  0  0  0  0  0  0  0
   10.9022    3.6943   -0.1768 F   0  0  0  0  0  0  0  0  0  0  0  0
   10.1486    3.3584    0.9378 C   0  0  0  0  0  0  0  0  0  0  0  0
    9.1383    4.1731    1.3866 C   0  0  0  0  0  0  0  0  0  0  0  0
    8.8526    5.2892    0.8484 O   0  0  0  0  0  0  0  0  0  0  0  0
    8.3880    3.7932    2.4481 N   0  0  0  0  0  0  0  0  0  0  0  0
    8.5707    2.5772    3.0562 C   0  0  0  0  0  0  0  0  0  0  0  0
    7.8359    2.2549    3.9985 O   0  0  0  0  0  0  0  0  0  0  0  0
   10.4243    2.1733    1.6023 C   0  0  0  0  0  0  0  0  0  0  0  0
    9.5857    1.7395    2.5758 N   0  0  0  0  0  0  0  0  0  0  0  0
    7.6958    4.4035    2.7912 H   0  0  0  0  0  0  0  0  0  0  0  0
    6.8262   -0.9298    3.9525 C   0  0  0  0  0  0  0  0  0  0  0  0
    6.1766   -2.0867    4.4666 O   0  0  0  0  0  0  0  0  0  0  0  0
    5.7776   -2.2271    6.0204 P   0  0  0  0  0  0  0  0  0  0  0  0
    4.7779   -1.1260    6.1623 O   0  0  0  0  0  0  0  0  0  0  0  0
    5.1855   -3.5922    6.2432 O   0  0  0  0  0  0  0  0  0  0  0  0
    7.0231   -1.9730    6.8098 O   0  0  0  0  0  0  0  0  0  0  0  0
    4.3850   -3.6893    5.7041 H   0  0  0  0  0  0  0  0  0  0  0  0
    7.3498   -1.0797    6.6195 H   0  0  0  0  0  0  0  0  0  0  0  0
 10 11  1  0  0  0
 11 17  2  0  0  0
 11 12  1  0  0  0
 12 13  2  0  0  0
 12 14  1  0  0  0
 14 15  1  0  0  0
 15 18  1  0  0  0
 15 16  2  0  0  0
 17 18  1  0  0  0
 18  1  1  0  0  0
  1  3  1  0  0  0
  1  2  1  0  0  0
  2  7  1  0  0  0
  3  4  1  0  0  0
  3  5  1  0  0  0
  5  7  1  0  0  0
  5  6  1  0  0  0
  7 20  1  0  0  0
 20 21  1  0  0  0
 21 22  1  0  0  0
 22 23  2  0  0  0
 22 24  1  0  0  0
 22 25  1  0  0  0
 14 19  1  0  0  0
  4  8  1  0  0  0
  6  9  1  0  0  0
 24 26  1  0  0  0
 25 27  1  0  0  0
M  END
> <minimizedAffinity>
-8.71319

$$$$
3G1V_5FU_A_501


 27 28  0  0  0  0  0  0  0  0999 V2000
    8.6547    1.2633    2.9313 C   0  0  0  0  0  0  0  0  0  0  0  0
    9.8623    0.9173    2.2090 O   0  0  0  0  0  0  0  0  0  0  0  0
    8.8519    2.7008    3.3674 C   0  0  0  0  0  0  0  0  0  0  0  0
    7.6368    3.4266    3.5174 O   0  0  0  0  0  0  0  0  0  0  0  0
    9.7370    3.2552    2.3032 C   0  0  0  0  0  0  0  0  0  0  0  0
    8.9393    3.6669    1.1815 O   0  0  0  0  0  0  0  0  0  0  0  0
   10.6273    2.1115    1.9465 C   0  0  0  0  0  0  0  0  0  0  0  0
    7.1549    3.4280    2.6756 H   0  0  0  0  0  0  0  0  0  0  0  0
    8.4134    2.9156    0.8655 H   0  0  0  0  0  0  0  0  0  0  0  0
    6.0600   -2.4046    4.5743 F   0  0  0  0  0  0  0  0  0  0  0  0
    7.1484   -1.5675    4.7686 C   0  0  0  0  0  0  0  0  0  0  0  0
    8.0751   -1.8201    5.7501 C   0  0  0  0  0  0  0  0  0  0  0  0
    7.9834   -2.7960    6.5600 O   0  0  0  0  0  0  0  0  0  0  0  0
    9.1535   -1.0115    5.8823 N   0  0  0  0  0  0  0  0  0  0  0  0
    9.3805    0.0275    5.0158 C   0  0  0  0  0  0  0  0  0  0  0  0
   10.3997    0.7166    5.1506 O   0  0  0  0  0  0  0  0  0  0  0  0
    7.2983   -0.4599    3.9483 C   0  0  0  0  0  0  0  0  0  0  0  0
    8.4447    0.2628    4.0002 N   0  0  0  0  0  0  0  0  0  0  0  0
    9.7889   -1.1730    6.6167 H   0  0  0  0  0  0  0  0  0  0  0  0
   11.9034    2.0441    2.7757 C   0  0  0  0  0  0  0  0  0  0  0  0
   12.9877    2.1506    1.8604 O   0  0  0  0  0  0  0  0  0  0  0  0
   14.4490    1.5592    2.1893 P   0  0  0  0  0  0  0  0  0  0  0  0
   14.5615    0.4803    1.1620 O   0  0  0  0  0  0  0  0  0  0  0  0
   15.4635    2.6549    2.0059 O   0  0  0  0  0  0  0  0  0  0  0  0
   14.3909    1.0171    3.5827 O   0  0  0  0  0  0  0  0  0  0  0  0
   15.4484    2.9587    1.0848 H   0  0  0  0  0  0  0  0  0  0  0  0
   13.7200    0.3182    3.6300 H   0  0  0  0  0  0  0  0  0  0  0  0
 10 11  1  0  0  0
 11 17  2  0  0  0
 11 12  1  0  0  0
 12 13  2  0  0  0
 12 14  1  0  0  0
 14 15  1  0  0  0
 15 18  1  0  0  0
 15 16  2  0  0  0
 17 18  1  0  0  0
 18  1  1  0  0  0
  1  3  1  0  0  0
  1  2  1  0  0  0
  2  7  1  0  0  0
  3  4  1  0  0  0
  3  5  1  0  0  0
  5  7  1  0  0  0
  5  6  1  0  0  0
  7 20  1  0  0  0
 20 21  1  0  0  0
 21 22  1  0  0  0
 22 23  2  0  0  0
 22 24  1  0  0  0
 22 25  1  0  0  0
 14 19  1  0  0  0
  4  8  1  0  0  0
  6  9  1  0  0  0
 24 26  1  0  0  0
 25 27  1  0  0  0
M  END
> <minimizedAffinity>
-8.50154

$$$$
