3S72_EVE_B_1


 16 17  0  0  0  0  0  0  0  0999 V2000
   16.6523    1.4253   14.2139 N   0  0  0  0  0  0  0  0  0  0  0  0
   16.2396    2.5407   13.4989 C   0  0  0  0  0  0  0  0  0  0  0  0
   15.3030    3.2920   14.1913 N   0  0  0  0  0  0  0  0  0  0  0  0
   15.9643    0.6658   16.4650 C   0  0  0  0  0  0  0  0  0  0  0  0
   15.0985    1.0614   17.5022 C   0  0  0  0  0  0  0  0  0  0  0  0
   14.2872    2.2014   17.5231 C   0  0  0  0  0  0  0  0  0  0  0  0
   14.3083    3.0916   16.4655 C   0  0  0  0  0  0  0  0  0  0  0  0
   15.1235    2.6494   15.3768 C   0  0  0  0  0  0  0  0  0  0  0  0
   15.9478    1.5315   15.3639 C   0  0  0  0  0  0  0  0  0  0  0  0
   17.2973    0.7299   13.9501 H   0  0  0  0  0  0  0  0  0  0  0  0
   15.9401    2.2366   10.8750 N   0  0  0  0  0  0  0  0  0  0  0  0
   16.8124    2.9830   11.9479 S   0  0  0  0  0  0  0  0  0  0  0  0
   16.5884    4.3826   11.8453 O   0  0  0  0  0  0  0  0  0  0  0  0
   18.1788    2.5406   11.9116 O   0  0  0  0  0  0  0  0  0  0  0  0
   16.0993    1.2317   10.9467 H   0  0  0  0  0  0  0  0  0  0  0  0
   16.2011    2.5565    9.9423 H   0  0  0  0  0  0  0  0  0  0  0  0
 11 12  1  0  0  0
  2 12  1  0  0  0
 14 12  2  0  0  0
 12 13  2  0  0  0
  9  1  1  0  0  0
  1  2  1  0  0  0
  3  2  2  0  0  0
  8  3  1  0  0  0
  5  4  1  0  0  0
  4  9  2  0  0  0
  5  6  2  0  0  0
  6  7  1  0  0  0
  7  8  2  0  0  0
  9  8  1  0  0  0
 11 15  1  0  0  0
 11 16  1  0  0  0
  1 10  1  0  0  0
M  END
> <minimizedAffinity>
-6.67051

$$$$
3S72_EVE_B_1


 16 17  0  0  0  0  0  0  0  0999 V2000
   15.2798    3.4013   14.3634 N   0  0  0  0  0  0  0  0  0  0  0  0
   16.1698    2.6121   13.6486 C   0  0  0  0  0  0  0  0  0  0  0  0
   16.5393    1.4727   14.3460 N   0  0  0  0  0  0  0  0  0  0  0  0
   14.3124    3.0296   16.6092 C   0  0  0  0  0  0  0  0  0  0  0  0
   14.3717    2.0823   17.6490 C   0  0  0  0  0  0  0  0  0  0  0  0
   15.1092    0.8931   17.6538 C   0  0  0  0  0  0  0  0  0  0  0  0
   15.8552    0.5310   16.5475 C   0  0  0  0  0  0  0  0  0  0  0  0
   15.8622    1.5303   15.5245 C   0  0  0  0  0  0  0  0  0  0  0  0
   15.1121    2.6993   15.5075 C   0  0  0  0  0  0  0  0  0  0  0  0
   14.8720    4.2586   14.1027 H   0  0  0  0  0  0  0  0  0  0  0  0
   15.8380    2.2098   11.0419 N   0  0  0  0  0  0  0  0  0  0  0  0
   16.7513    2.9604   12.0770 S   0  0  0  0  0  0  0  0  0  0  0  0
   16.5911    4.3633   11.9152 O   0  0  0  0  0  0  0  0  0  0  0  0
   18.0956    2.4543   12.0530 O   0  0  0  0  0  0  0  0  0  0  0  0
   15.9514    1.2026   11.1562 H   0  0  0  0  0  0  0  0  0  0  0  0
   16.1069    2.4769   10.0949 H   0  0  0  0  0  0  0  0  0  0  0  0
 11 12  1  0  0  0
  2 12  1  0  0  0
 14 12  2  0  0  0
 12 13  2  0  0  0
  9  1  1  0  0  0
  1  2  1  0  0  0
  3  2  2  0  0  0
  8  3  1  0  0  0
  5  4  1  0  0  0
  4  9  2  0  0  0
  5  6  2  0  0  0
  6  7  1  0  0  0
  7  8  2  0  0  0
  9  8  1  0  0  0
 11 15  1  0  0  0
 11 16  1  0  0  0
  1 10  1  0  0  0
M  END
> <minimizedAffinity>
-6.51141

$$$$
3S72_EVE_B_1


 16 17  0  0  0  0  0  0  0  0999 V2000
   14.8497    3.2162   15.4831 N   0  0  0  0  0  0  0  0  0  0  0  0
   15.6653    2.2380   16.0341 C   0  0  0  0  0  0  0  0  0  0  0  0
   17.0111    2.4988   15.8290 N   0  0  0  0  0  0  0  0  0  0  0  0
   15.4778    5.2702   14.2564 C   0  0  0  0  0  0  0  0  0  0  0  0
   16.6396    5.9357   13.8216 C   0  0  0  0  0  0  0  0  0  0  0  0
   17.9624    5.5340   14.0387 C   0  0  0  0  0  0  0  0  0  0  0  0
   18.2333    4.3939   14.7725 C   0  0  0  0  0  0  0  0  0  0  0  0
   17.0552    3.6731   15.1436 C   0  0  0  0  0  0  0  0  0  0  0  0
   15.7420    4.0823   14.9504 C   0  0  0  0  0  0  0  0  0  0  0  0
   13.8666    3.2672   15.4804 H   0  0  0  0  0  0  0  0  0  0  0  0
   15.4408    1.0768   18.4149 N   0  0  0  0  0  0  0  0  0  0  0  0
   15.1127    0.8646   16.8929 S   0  0  0  0  0  0  0  0  0  0  0  0
   13.7029    0.8466   16.7136 O   0  0  0  0  0  0  0  0  0  0  0  0
   15.8498   -0.2414   16.3475 O   0  0  0  0  0  0  0  0  0  0  0  0
   16.4522    1.0900   18.5460 H   0  0  0  0  0  0  0  0  0  0  0  0
   15.0373    0.3143   18.9592 H   0  0  0  0  0  0  0  0  0  0  0  0
 11 12  1  0  0  0
  2 12  1  0  0  0
 14 12  2  0  0  0
 12 13  2  0  0  0
  9  1  1  0  0  0
  1  2  1  0  0  0
  3  2  2  0  0  0
  8  3  1  0  0  0
  5  4  1  0  0  0
  4  9  2  0  0  0
  5  6  2  0  0  0
  6  7  1  0  0  0
  7  8  2  0  0  0
  9  8  1  0  0  0
 11 15  1  0  0  0
 11 16  1  0  0  0
  1 10  1  0  0  0
M  END
> <minimizedAffinity>
-6.42776

$$$$
3S72_EVE_B_1


 16 17  0  0  0  0  0  0  0  0999 V2000
   16.8764    0.6175   13.7415 N   0  0  0  0  0  0  0  0  0  0  0  0
   16.7055    1.3990   12.6075 C   0  0  0  0  0  0  0  0  0  0  0  0
   15.9608    2.5398   12.8626 N   0  0  0  0  0  0  0  0  0  0  0  0
   16.0664    1.0043   16.0463 C   0  0  0  0  0  0  0  0  0  0  0  0
   15.3180    1.9561   16.7646 C   0  0  0  0  0  0  0  0  0  0  0  0
   14.7717    3.1417   16.2606 C   0  0  0  0  0  0  0  0  0  0  0  0
   14.9721    3.4950   14.9391 C   0  0  0  0  0  0  0  0  0  0  0  0
   15.6605    2.4909   14.1885 C   0  0  0  0  0  0  0  0  0  0  0  0
   16.2243    1.3256   14.6920 C   0  0  0  0  0  0  0  0  0  0  0  0
   17.3533   -0.2390   13.8317 H   0  0  0  0  0  0  0  0  0  0  0  0
   16.1519    0.6054   10.1316 N   0  0  0  0  0  0  0  0  0  0  0  0
   17.3426    1.0406   11.0599 S   0  0  0  0  0  0  0  0  0  0  0  0
   17.8893    2.2623   10.5822 O   0  0  0  0  0  0  0  0  0  0  0  0
   18.2626   -0.0419   11.2737 O   0  0  0  0  0  0  0  0  0  0  0  0
   15.7578   -0.2714   10.4726 H   0  0  0  0  0  0  0  0  0  0  0  0
   16.4929    0.4771    9.1789 H   0  0  0  0  0  0  0  0  0  0  0  0
 11 12  1  0  0  0
  2 12  1  0  0  0
 14 12  2  0  0  0
 12 13  2  0  0  0
  9  1  1  0  0  0
  1  2  1  0  0  0
  3  2  2  0  0  0
  8  3  1  0  0  0
  5  4  1  0  0  0
  4  9  2  0  0  0
  5  6  2  0  0  0
  6  7  1  0  0  0
  7  8  2  0  0  0
  9  8  1  0  0  0
 11 15  1  0  0  0
 11 16  1  0  0  0
  1 10  1  0  0  0
M  END
> <minimizedAffinity>
-6.26414

$$$$
3S72_EVE_B_1


 16 17  0  0  0  0  0  0  0  0999 V2000
   16.0656    2.0327   15.0942 N   0  0  0  0  0  0  0  0  0  0  0  0
   15.1429    2.3626   16.0767 C   0  0  0  0  0  0  0  0  0  0  0  0
   14.7028    3.6723   15.9661 N   0  0  0  0  0  0  0  0  0  0  0  0
   16.9606    3.4246   13.2559 C   0  0  0  0  0  0  0  0  0  0  0  0
   16.8313    4.7332   12.7532 C   0  0  0  0  0  0  0  0  0  0  0  0
   15.9945    5.7392   13.2492 C   0  0  0  0  0  0  0  0  0  0  0  0
   15.1590    5.4853   14.3211 C   0  0  0  0  0  0  0  0  0  0  0  0
   15.3489    4.1845   14.8841 C   0  0  0  0  0  0  0  0  0  0  0  0
   16.1606    3.1769   14.3789 C   0  0  0  0  0  0  0  0  0  0  0  0
   16.5345    1.1786   14.9530 H   0  0  0  0  0  0  0  0  0  0  0  0
   15.4381   -0.0129   17.2329 N   0  0  0  0  0  0  0  0  0  0  0  0
   14.5731    1.2977   17.2895 S   0  0  0  0  0  0  0  0  0  0  0  0
   14.8096    1.9646   18.5220 O   0  0  0  0  0  0  0  0  0  0  0  0
   13.2029    1.0360   16.9463 O   0  0  0  0  0  0  0  0  0  0  0  0
   15.2700   -0.4933   16.3490 H   0  0  0  0  0  0  0  0  0  0  0  0
   15.1794   -0.6247   18.0070 H   0  0  0  0  0  0  0  0  0  0  0  0
 11 12  1  0  0  0
  2 12  1  0  0  0
 14 12  2  0  0  0
 12 13  2  0  0  0
  9  1  1  0  0  0
  1  2  1  0  0  0
  3  2  2  0  0  0
  8  3  1  0  0  0
  5  4  1  0  0  0
  4  9  2  0  0  0
  5  6  2  0  0  0
  6  7  1  0  0  0
  7  8  2  0  0  0
  9  8  1  0  0  0
 11 15  1  0  0  0
 11 16  1  0  0  0
  1 10  1  0  0  0
M  END
> <minimizedAffinity>
-6.05108

$$$$
3S72_EVE_B_1


 16 17  0  0  0  0  0  0  0  0999 V2000
   16.3963    1.1176   12.8693 N   0  0  0  0  0  0  0  0  0  0  0  0
   16.9766    2.3753   12.7840 C   0  0  0  0  0  0  0  0  0  0  0  0
   18.0935    2.3843   11.9634 N   0  0  0  0  0  0  0  0  0  0  0  0
   17.0724   -0.9960   11.7769 C   0  0  0  0  0  0  0  0  0  0  0  0
   18.0720   -1.4709   10.9068 C   0  0  0  0  0  0  0  0  0  0  0  0
   19.0985   -0.7185   10.3249 C   0  0  0  0  0  0  0  0  0  0  0  0
   19.1848    0.6413   10.5589 C   0  0  0  0  0  0  0  0  0  0  0  0
   18.2214    1.1093   11.5067 C   0  0  0  0  0  0  0  0  0  0  0  0
   17.1874    0.3698   12.0662 C   0  0  0  0  0  0  0  0  0  0  0  0
   15.6058    0.8390   13.3857 H   0  0  0  0  0  0  0  0  0  0  0  0
   16.3165    4.9353   12.5055 N   0  0  0  0  0  0  0  0  0  0  0  0
   16.3978    3.7817   13.5692 S   0  0  0  0  0  0  0  0  0  0  0  0
   15.0871    3.4570   14.0122 O   0  0  0  0  0  0  0  0  0  0  0  0
   17.3718    4.0731   14.5843 O   0  0  0  0  0  0  0  0  0  0  0  0
   17.2563    5.1701   12.1860 H   0  0  0  0  0  0  0  0  0  0  0  0
   15.8857    5.7577   12.9280 H   0  0  0  0  0  0  0  0  0  0  0  0
 11 12  1  0  0  0
  2 12  1  0  0  0
 14 12  2  0  0  0
 12 13  2  0  0  0
  9  1  1  0  0  0
  1  2  1  0  0  0
  3  2  2  0  0  0
  8  3  1  0  0  0
  5  4  1  0  0  0
  4  9  2  0  0  0
  5  6  2  0  0  0
  6  7  1  0  0  0
  7  8  2  0  0  0
  9  8  1  0  0  0
 11 15  1  0  0  0
 11 16  1  0  0  0
  1 10  1  0  0  0
M  END
> <minimizedAffinity>
-5.92367

$$$$
3S72_EVE_B_1


 16 17  0  0  0  0  0  0  0  0999 V2000
   18.1018    2.5156   11.9324 N   0  0  0  0  0  0  0  0  0  0  0  0
   16.9687    2.4737   12.7324 C   0  0  0  0  0  0  0  0  0  0  0  0
   16.4078    1.2073   12.7833 N   0  0  0  0  0  0  0  0  0  0  0  0
   19.1922    0.6926   10.6652 C   0  0  0  0  0  0  0  0  0  0  0  0
   19.0160   -0.6815   10.4150 C   0  0  0  0  0  0  0  0  0  0  0  0
   18.0107   -1.5030   10.9374 C   0  0  0  0  0  0  0  0  0  0  0  0
   17.0785   -0.9887   11.8194 C   0  0  0  0  0  0  0  0  0  0  0  0
   17.2059    0.4230   12.0097 C   0  0  0  0  0  0  0  0  0  0  0  0
   18.2168    1.2350   11.5118 C   0  0  0  0  0  0  0  0  0  0  0  0
   18.6785    3.2856   11.7230 H   0  0  0  0  0  0  0  0  0  0  0  0
   17.3189    4.1752   14.7446 N   0  0  0  0  0  0  0  0  0  0  0  0
   16.3195    3.8050   13.5900 S   0  0  0  0  0  0  0  0  0  0  0  0
   16.2678    4.8718   12.6525 O   0  0  0  0  0  0  0  0  0  0  0  0
   15.0648    3.3396   14.1126 O   0  0  0  0  0  0  0  0  0  0  0  0
   17.3577    3.4109   15.4188 H   0  0  0  0  0  0  0  0  0  0  0  0
   16.9999    5.0243   15.2112 H   0  0  0  0  0  0  0  0  0  0  0  0
 11 12  1  0  0  0
  2 12  1  0  0  0
 14 12  2  0  0  0
 12 13  2  0  0  0
  9  1  1  0  0  0
  1  2  1  0  0  0
  3  2  2  0  0  0
  8  3  1  0  0  0
  5  4  1  0  0  0
  4  9  2  0  0  0
  5  6  2  0  0  0
  6  7  1  0  0  0
  7  8  2  0  0  0
  9  8  1  0  0  0
 11 15  1  0  0  0
 11 16  1  0  0  0
  1 10  1  0  0  0
M  END
> <minimizedAffinity>
-5.87670

$$$$
3S72_EVE_B_1


 16 17  0  0  0  0  0  0  0  0999 V2000
   16.5201    1.6309   11.9375 N   0  0  0  0  0  0  0  0  0  0  0  0
   17.3182    2.6030   11.3514 C   0  0  0  0  0  0  0  0  0  0  0  0
   18.4296    2.0626   10.7238 N   0  0  0  0  0  0  0  0  0  0  0  0
   16.8195   -0.8240   11.9806 C   0  0  0  0  0  0  0  0  0  0  0  0
   17.7290   -1.7926   11.5152 C   0  0  0  0  0  0  0  0  0  0  0  0
   18.8819   -1.5591   10.7571 C   0  0  0  0  0  0  0  0  0  0  0  0
   19.2083   -0.2750   10.3622 C   0  0  0  0  0  0  0  0  0  0  0  0
   18.3322    0.7176   10.9030 C   0  0  0  0  0  0  0  0  0  0  0  0
   17.1744    0.4862   11.6347 C   0  0  0  0  0  0  0  0  0  0  0  0
   15.6855    1.7456   12.4469 H   0  0  0  0  0  0  0  0  0  0  0  0
   16.2359    4.6239   12.6974 N   0  0  0  0  0  0  0  0  0  0  0  0
   16.9914    4.2830   11.3625 S   0  0  0  0  0  0  0  0  0  0  0  0
   18.2633    4.9172   11.3666 O   0  0  0  0  0  0  0  0  0  0  0  0
   16.1569    4.5112   10.2156 O   0  0  0  0  0  0  0  0  0  0  0  0
   15.3226    4.1697   12.6967 H   0  0  0  0  0  0  0  0  0  0  0  0
   16.1133    5.6338   12.7704 H   0  0  0  0  0  0  0  0  0  0  0  0
 11 12  1  0  0  0
  2 12  1  0  0  0
 14 12  2  0  0  0
 12 13  2  0  0  0
  9  1  1  0  0  0
  1  2  1  0  0  0
  3  2  2  0  0  0
  8  3  1  0  0  0
  5  4  1  0  0  0
  4  9  2  0  0  0
  5  6  2  0  0  0
  6  7  1  0  0  0
  7  8  2  0  0  0
  9  8  1  0  0  0
 11 15  1  0  0  0
 11 16  1  0  0  0
  1 10  1  0  0  0
M  END
> <minimizedAffinity>
-5.76698

$$$$
3S72_EVE_B_1


 16 17  0  0  0  0  0  0  0  0999 V2000
   18.0218    3.0231   12.6387 N   0  0  0  0  0  0  0  0  0  0  0  0
   17.0160    2.0812   12.4748 C   0  0  0  0  0  0  0  0  0  0  0  0
   15.8627    2.4180   13.1660 N   0  0  0  0  0  0  0  0  0  0  0  0
   17.9988    5.1289   13.9360 C   0  0  0  0  0  0  0  0  0  0  0  0
   17.1206    5.8637   14.7549 C   0  0  0  0  0  0  0  0  0  0  0  0
   15.7987    5.5306   15.0713 C   0  0  0  0  0  0  0  0  0  0  0  0
   15.2193    4.3945   14.5375 C   0  0  0  0  0  0  0  0  0  0  0  0
   16.1344    3.6046   13.7733 C   0  0  0  0  0  0  0  0  0  0  0  0
   17.4386    3.9454   13.4383 C   0  0  0  0  0  0  0  0  0  0  0  0
   18.9329    3.0208   12.2658 H   0  0  0  0  0  0  0  0  0  0  0  0
   16.1795    0.8237   10.2872 N   0  0  0  0  0  0  0  0  0  0  0  0
   17.1392    0.6653   11.5213 S   0  0  0  0  0  0  0  0  0  0  0  0
   18.4858    0.6285   11.0684 O   0  0  0  0  0  0  0  0  0  0  0  0
   16.7147   -0.4048   12.3808 O   0  0  0  0  0  0  0  0  0  0  0  0
   15.2123    0.8503   10.6099 H   0  0  0  0  0  0  0  0  0  0  0  0
   16.3054    0.0332    9.6549 H   0  0  0  0  0  0  0  0  0  0  0  0
 11 12  1  0  0  0
  2 12  1  0  0  0
 14 12  2  0  0  0
 12 13  2  0  0  0
  9  1  1  0  0  0
  1  2  1  0  0  0
  3  2  2  0  0  0
  8  3  1  0  0  0
  5  4  1  0  0  0
  4  9  2  0  0  0
  5  6  2  0  0  0
  6  7  1  0  0  0
  7  8  2  0  0  0
  9  8  1  0  0  0
 11 15  1  0  0  0
 11 16  1  0  0  0
  1 10  1  0  0  0
M  END
> <minimizedAffinity>
-5.76239

$$$$
3S72_EVE_B_1


 16 17  0  0  0  0  0  0  0  0999 V2000
   17.9563    3.9927   15.1420 N   0  0  0  0  0  0  0  0  0  0  0  0
   16.8305    3.2392   14.8412 C   0  0  0  0  0  0  0  0  0  0  0  0
   16.0349    3.8434   13.8804 N   0  0  0  0  0  0  0  0  0  0  0  0
   18.6831    6.1639   14.2063 C   0  0  0  0  0  0  0  0  0  0  0  0
   18.2465    7.1160   13.2657 C   0  0  0  0  0  0  0  0  0  0  0  0
   17.0975    7.0380   12.4708 C   0  0  0  0  0  0  0  0  0  0  0  0
   16.2757    5.9285   12.5403 C   0  0  0  0  0  0  0  0  0  0  0  0
   16.6721    4.9998   13.5531 C   0  0  0  0  0  0  0  0  0  0  0  0
   17.8247    5.0634   14.3257 C   0  0  0  0  0  0  0  0  0  0  0  0
   18.6724    3.7969   15.7886 H   0  0  0  0  0  0  0  0  0  0  0  0
   16.5892    0.6245   14.4263 N   0  0  0  0  0  0  0  0  0  0  0  0
   16.4444    1.7247   15.5388 S   0  0  0  0  0  0  0  0  0  0  0  0
   17.4252    1.5088   16.5444 O   0  0  0  0  0  0  0  0  0  0  0  0
   15.0822    1.8494   15.9778 O   0  0  0  0  0  0  0  0  0  0  0  0
   15.8861    0.7775   13.7033 H   0  0  0  0  0  0  0  0  0  0  0  0
   16.4556   -0.2978   14.8408 H   0  0  0  0  0  0  0  0  0  0  0  0
 11 12  1  0  0  0
  2 12  1  0  0  0
 14 12  2  0  0  0
 12 13  2  0  0  0
  9  1  1  0  0  0
  1  2  1  0  0  0
  3  2  2  0  0  0
  8  3  1  0  0  0
  5  4  1  0  0  0
  4  9  2  0  0  0
  5  6  2  0  0  0
  6  7  1  0  0  0
  7  8  2  0  0  0
  9  8  1  0  0  0
 11 15  1  0  0  0
 11 16  1  0  0  0
  1 10  1  0  0  0
M  END
> <minimizedAffinity>
-5.71209

$$$$
