4AQ6_OMD_A_838


 15 15  0  0  0  0  0  0  0  0999 V2000
   17.4737   42.6406   -2.2704 C   0  0  0  0  0  0  0  0  0  0  0  0
   17.6244   41.5880   -3.1601 C   0  0  0  0  0  0  0  0  0  0  0  0
   18.2776   41.8056   -4.3700 C   0  0  0  0  0  0  0  0  0  0  0  0
   18.4752   40.7956   -5.2788 O   0  0  0  0  0  0  0  0  0  0  0  0
   18.7644   43.0660   -4.6849 C   0  0  0  0  0  0  0  0  0  0  0  0
   18.5992   44.1106   -3.7929 C   0  0  0  0  0  0  0  0  0  0  0  0
   17.9617   43.9009   -2.5794 C   0  0  0  0  0  0  0  0  0  0  0  0
   17.8042   44.9559   -1.6906 O   0  0  0  0  0  0  0  0  0  0  0  0
   18.1587   39.9327   -5.0964 H   0  0  0  0  0  0  0  0  0  0  0  0
   17.3738   44.8170   -0.8700 H   0  0  0  0  0  0  0  0  0  0  0  0
   16.7812   42.4454   -0.9697 C   0  0  0  0  0  0  0  0  0  0  0  0
   17.6827   42.6153    0.2161 C   0  0  0  0  0  0  0  0  0  0  0  0
   17.3339   43.4074    1.1330 O   0  0  0  0  0  0  0  0  0  0  0  0
   18.7595   41.9624    0.3176 O   0  0  0  0  0  0  0  0  0  0  0  0
   19.0169   41.3743   -0.3649 H   0  0  0  0  0  0  0  0  0  0  0  0
 12 11  1  0  0  0
 12 13  2  0  0  0
 12 14  1  0  0  0
 11  1  1  0  0  0
  1  2  2  0  0  0
  1  7  1  0  0  0
  2  3  1  0  0  0
  3  4  1  0  0  0
  3  5  2  0  0  0
  5  6  1  0  0  0
  6  7  2  0  0  0
  7  8  1  0  0  0
  4  9  1  0  0  0
  8 10  1  0  0  0
 14 15  1  0  0  0
M  END
> <minimizedAffinity>
-6.91655

$$$$
4AQ6_OMD_A_838


 15 15  0  0  0  0  0  0  0  0999 V2000
   18.8285   43.4247   -0.4168 C   0  0  0  0  0  0  0  0  0  0  0  0
   17.9229   42.5071   -0.9266 C   0  0  0  0  0  0  0  0  0  0  0  0
   17.2782   42.7809   -2.1296 C   0  0  0  0  0  0  0  0  0  0  0  0
   16.3892   41.8989   -2.6925 O   0  0  0  0  0  0  0  0  0  0  0  0
   17.5337   43.9649   -2.8060 C   0  0  0  0  0  0  0  0  0  0  0  0
   18.4323   44.8772   -2.2820 C   0  0  0  0  0  0  0  0  0  0  0  0
   19.0895   44.6076   -1.0911 C   0  0  0  0  0  0  0  0  0  0  0  0
   19.9915   45.5291   -0.5762 O   0  0  0  0  0  0  0  0  0  0  0  0
   16.1947   41.0902   -2.2611 H   0  0  0  0  0  0  0  0  0  0  0  0
   20.4370   45.3494    0.2284 H   0  0  0  0  0  0  0  0  0  0  0  0
   19.5349   43.1663    0.8653 C   0  0  0  0  0  0  0  0  0  0  0  0
   18.7540   43.5930    2.0718 C   0  0  0  0  0  0  0  0  0  0  0  0
   17.5440   43.2500    2.1620 O   0  0  0  0  0  0  0  0  0  0  0  0
   19.2948   44.2600    2.9985 O   0  0  0  0  0  0  0  0  0  0  0  0
   20.1941   44.5140    2.9295 H   0  0  0  0  0  0  0  0  0  0  0  0
 12 11  1  0  0  0
 12 13  2  0  0  0
 12 14  1  0  0  0
 11  1  1  0  0  0
  1  2  2  0  0  0
  1  7  1  0  0  0
  2  3  1  0  0  0
  3  4  1  0  0  0
  3  5  2  0  0  0
  5  6  1  0  0  0
  6  7  2  0  0  0
  7  8  1  0  0  0
  4  9  1  0  0  0
  8 10  1  0  0  0
 14 15  1  0  0  0
M  END
> <minimizedAffinity>
-6.49382

$$$$
4AQ6_OMD_A_838


 15 15  0  0  0  0  0  0  0  0999 V2000
   18.1205   43.5728   -2.1452 C   0  0  0  0  0  0  0  0  0  0  0  0
   17.7337   42.6427   -1.1927 C   0  0  0  0  0  0  0  0  0  0  0  0
   18.2139   42.7589    0.1087 C   0  0  0  0  0  0  0  0  0  0  0  0
   17.8467   41.8802    1.0978 O   0  0  0  0  0  0  0  0  0  0  0  0
   19.0781   43.7906    0.4456 C   0  0  0  0  0  0  0  0  0  0  0  0
   19.4645   44.7069   -0.5163 C   0  0  0  0  0  0  0  0  0  0  0  0
   18.9812   44.6074   -1.8122 C   0  0  0  0  0  0  0  0  0  0  0  0
   19.3734   45.5345   -2.7686 O   0  0  0  0  0  0  0  0  0  0  0  0
   17.2643   41.1724    0.9032 H   0  0  0  0  0  0  0  0  0  0  0  0
   19.0483   45.4696   -3.6450 H   0  0  0  0  0  0  0  0  0  0  0  0
   17.6284   43.4799   -3.5447 C   0  0  0  0  0  0  0  0  0  0  0  0
   18.5738   42.7639   -4.4619 C   0  0  0  0  0  0  0  0  0  0  0  0
   19.4582   43.4329   -5.0619 O   0  0  0  0  0  0  0  0  0  0  0  0
   18.5119   41.5116   -4.6168 O   0  0  0  0  0  0  0  0  0  0  0  0
   17.8540   41.0161   -4.1700 H   0  0  0  0  0  0  0  0  0  0  0  0
 12 11  1  0  0  0
 12 13  2  0  0  0
 12 14  1  0  0  0
 11  1  1  0  0  0
  1  2  2  0  0  0
  1  7  1  0  0  0
  2  3  1  0  0  0
  3  4  1  0  0  0
  3  5  2  0  0  0
  5  6  1  0  0  0
  6  7  2  0  0  0
  7  8  1  0  0  0
  4  9  1  0  0  0
  8 10  1  0  0  0
 14 15  1  0  0  0
M  END
> <minimizedAffinity>
-6.33900

$$$$
4AQ6_OMD_A_838


 15 15  0  0  0  0  0  0  0  0999 V2000
   17.9225   43.3628   -0.4702 C   0  0  0  0  0  0  0  0  0  0  0  0
   18.6698   44.3946   -1.0169 C   0  0  0  0  0  0  0  0  0  0  0  0
   18.7015   44.5558   -2.3992 C   0  0  0  0  0  0  0  0  0  0  0  0
   19.4060   45.5730   -2.9943 O   0  0  0  0  0  0  0  0  0  0  0  0
   17.9990   43.6862   -3.2208 C   0  0  0  0  0  0  0  0  0  0  0  0
   17.2648   42.6543   -2.6636 C   0  0  0  0  0  0  0  0  0  0  0  0
   17.2162   42.4935   -1.2871 C   0  0  0  0  0  0  0  0  0  0  0  0
   16.4736   41.4563   -0.7388 O   0  0  0  0  0  0  0  0  0  0  0  0
   19.8910   46.1775   -2.4676 H   0  0  0  0  0  0  0  0  0  0  0  0
   16.4390   41.3453    0.1909 H   0  0  0  0  0  0  0  0  0  0  0  0
   17.8659   43.1598    1.0013 C   0  0  0  0  0  0  0  0  0  0  0  0
   19.1727   43.4194    1.6887 C   0  0  0  0  0  0  0  0  0  0  0  0
   20.2166   42.8841    1.2265 O   0  0  0  0  0  0  0  0  0  0  0  0
   19.2423   44.1795    2.6955 O   0  0  0  0  0  0  0  0  0  0  0  0
   18.4655   44.5763    3.0374 H   0  0  0  0  0  0  0  0  0  0  0  0
 12 11  1  0  0  0
 12 13  2  0  0  0
 12 14  1  0  0  0
 11  1  1  0  0  0
  1  2  2  0  0  0
  1  7  1  0  0  0
  2  3  1  0  0  0
  3  4  1  0  0  0
  3  5  2  0  0  0
  5  6  1  0  0  0
  6  7  2  0  0  0
  7  8  1  0  0  0
  4  9  1  0  0  0
  8 10  1  0  0  0
 14 15  1  0  0  0
M  END
> <minimizedAffinity>
-6.29867

$$$$
4AQ6_OMD_A_838


 15 15  0  0  0  0  0  0  0  0999 V2000
   17.8513   43.5524   -2.2383 C   0  0  0  0  0  0  0  0  0  0  0  0
   18.7038   44.1112   -1.2986 C   0  0  0  0  0  0  0  0  0  0  0  0
   18.6241   43.6951    0.0274 C   0  0  0  0  0  0  0  0  0  0  0  0
   19.4578   44.1973    0.9959 O   0  0  0  0  0  0  0  0  0  0  0  0
   17.6943   42.7373    0.4050 C   0  0  0  0  0  0  0  0  0  0  0  0
   16.8425   42.1943   -0.5404 C   0  0  0  0  0  0  0  0  0  0  0  0
   16.9230   42.5924   -1.8663 C   0  0  0  0  0  0  0  0  0  0  0  0
   16.0651   42.0384   -2.8070 O   0  0  0  0  0  0  0  0  0  0  0  0
   20.0969   44.8455    0.7738 H   0  0  0  0  0  0  0  0  0  0  0  0
   16.1174   42.3057   -3.7036 H   0  0  0  0  0  0  0  0  0  0  0  0
   17.9074   43.9728   -3.6630 C   0  0  0  0  0  0  0  0  0  0  0  0
   18.7576   43.0785   -4.5146 C   0  0  0  0  0  0  0  0  0  0  0  0
   19.7844   43.5625   -5.0633 O   0  0  0  0  0  0  0  0  0  0  0  0
   18.4751   41.8563   -4.6641 O   0  0  0  0  0  0  0  0  0  0  0  0
   17.7115   41.4985   -4.2555 H   0  0  0  0  0  0  0  0  0  0  0  0
 12 11  1  0  0  0
 12 13  2  0  0  0
 12 14  1  0  0  0
 11  1  1  0  0  0
  1  2  2  0  0  0
  1  7  1  0  0  0
  2  3  1  0  0  0
  3  4  1  0  0  0
  3  5  2  0  0  0
  5  6  1  0  0  0
  6  7  2  0  0  0
  7  8  1  0  0  0
  4  9  1  0  0  0
  8 10  1  0  0  0
 14 15  1  0  0  0
M  END
> <minimizedAffinity>
-6.18180

$$$$
4AQ6_OMD_A_838


 15 15  0  0  0  0  0  0  0  0999 V2000
   17.8559   43.1674   -1.4996 C   0  0  0  0  0  0  0  0  0  0  0  0
   17.6719   42.4235   -0.3442 C   0  0  0  0  0  0  0  0  0  0  0  0
   18.3475   42.7885    0.8169 C   0  0  0  0  0  0  0  0  0  0  0  0
   18.1862   42.1024    1.9953 O   0  0  0  0  0  0  0  0  0  0  0  0
   19.2029   43.8807    0.8141 C   0  0  0  0  0  0  0  0  0  0  0  0
   19.3857   44.6092   -0.3478 C   0  0  0  0  0  0  0  0  0  0  0  0
   18.7071   44.2616   -1.5061 C   0  0  0  0  0  0  0  0  0  0  0  0
   18.8959   45.0018   -2.6656 O   0  0  0  0  0  0  0  0  0  0  0  0
   17.6156   41.3601    2.0308 H   0  0  0  0  0  0  0  0  0  0  0  0
   18.4386   44.7691   -3.4497 H   0  0  0  0  0  0  0  0  0  0  0  0
   17.1518   42.8067   -2.7581 C   0  0  0  0  0  0  0  0  0  0  0  0
   17.9705   41.9457   -3.6725 C   0  0  0  0  0  0  0  0  0  0  0  0
   17.9631   40.6973   -3.4960 O   0  0  0  0  0  0  0  0  0  0  0  0
   18.6366   42.4482   -4.6211 O   0  0  0  0  0  0  0  0  0  0  0  0
   18.6408   43.3762   -4.7506 H   0  0  0  0  0  0  0  0  0  0  0  0
 12 11  1  0  0  0
 12 13  2  0  0  0
 12 14  1  0  0  0
 11  1  1  0  0  0
  1  2  2  0  0  0
  1  7  1  0  0  0
  2  3  1  0  0  0
  3  4  1  0  0  0
  3  5  2  0  0  0
  5  6  1  0  0  0
  6  7  2  0  0  0
  7  8  1  0  0  0
  4  9  1  0  0  0
  8 10  1  0  0  0
 14 15  1  0  0  0
M  END
> <minimizedAffinity>
-6.06547

$$$$
4AQ6_OMD_A_838


 15 15  0  0  0  0  0  0  0  0999 V2000
   18.4786   44.1212   -0.8450 C   0  0  0  0  0  0  0  0  0  0  0  0
   19.4497   43.9750    0.1336 C   0  0  0  0  0  0  0  0  0  0  0  0
   19.1541   43.2509    1.2852 C   0  0  0  0  0  0  0  0  0  0  0  0
   20.0836   43.0549    2.2766 O   0  0  0  0  0  0  0  0  0  0  0  0
   17.8969   42.6892    1.4545 C   0  0  0  0  0  0  0  0  0  0  0  0
   16.9332   42.8504    0.4750 C   0  0  0  0  0  0  0  0  0  0  0  0
   17.2221   43.5587   -0.6817 C   0  0  0  0  0  0  0  0  0  0  0  0
   16.2481   43.7115   -1.6593 O   0  0  0  0  0  0  0  0  0  0  0  0
   20.9420   43.4210    2.1930 H   0  0  0  0  0  0  0  0  0  0  0  0
   16.4407   44.1896   -2.4418 H   0  0  0  0  0  0  0  0  0  0  0  0
   18.7583   44.8882   -2.0872 C   0  0  0  0  0  0  0  0  0  0  0  0
   18.1941   44.2498   -3.3208 C   0  0  0  0  0  0  0  0  0  0  0  0
   17.3345   44.8834   -3.9911 O   0  0  0  0  0  0  0  0  0  0  0  0
   18.5851   43.1116   -3.7052 O   0  0  0  0  0  0  0  0  0  0  0  0
   19.2240   42.6423   -3.2056 H   0  0  0  0  0  0  0  0  0  0  0  0
 12 11  1  0  0  0
 12 13  2  0  0  0
 12 14  1  0  0  0
 11  1  1  0  0  0
  1  2  2  0  0  0
  1  7  1  0  0  0
  2  3  1  0  0  0
  3  4  1  0  0  0
  3  5  2  0  0  0
  5  6  1  0  0  0
  6  7  2  0  0  0
  7  8  1  0  0  0
  4  9  1  0  0  0
  8 10  1  0  0  0
 14 15  1  0  0  0
M  END
> <minimizedAffinity>
-5.86030

$$$$
4AQ6_OMD_A_838


 15 15  0  0  0  0  0  0  0  0999 V2000
   17.7631   43.1186   -2.1566 C   0  0  0  0  0  0  0  0  0  0  0  0
   18.5424   43.6882   -3.1517 C   0  0  0  0  0  0  0  0  0  0  0  0
   18.7933   42.9694   -4.3171 C   0  0  0  0  0  0  0  0  0  0  0  0
   19.5391   43.4921   -5.3446 O   0  0  0  0  0  0  0  0  0  0  0  0
   18.2754   41.6922   -4.4760 C   0  0  0  0  0  0  0  0  0  0  0  0
   17.5072   41.1309   -3.4715 C   0  0  0  0  0  0  0  0  0  0  0  0
   17.2406   41.8440   -2.3125 C   0  0  0  0  0  0  0  0  0  0  0  0
   16.4659   41.2718   -1.3124 O   0  0  0  0  0  0  0  0  0  0  0  0
   19.9032   44.3522   -5.2689 H   0  0  0  0  0  0  0  0  0  0  0  0
   16.2842   41.7515   -0.5282 H   0  0  0  0  0  0  0  0  0  0  0  0
   17.4749   43.8562   -0.8986 C   0  0  0  0  0  0  0  0  0  0  0  0
   18.3808   43.4776    0.2343 C   0  0  0  0  0  0  0  0  0  0  0  0
   18.0234   42.5513    1.0114 O   0  0  0  0  0  0  0  0  0  0  0  0
   19.4948   44.0501    0.4002 O   0  0  0  0  0  0  0  0  0  0  0  0
   19.7586   44.7383   -0.1784 H   0  0  0  0  0  0  0  0  0  0  0  0
 12 11  1  0  0  0
 12 13  2  0  0  0
 12 14  1  0  0  0
 11  1  1  0  0  0
  1  2  2  0  0  0
  1  7  1  0  0  0
  2  3  1  0  0  0
  3  4  1  0  0  0
  3  5  2  0  0  0
  5  6  1  0  0  0
  6  7  2  0  0  0
  7  8  1  0  0  0
  4  9  1  0  0  0
  8 10  1  0  0  0
 14 15  1  0  0  0
M  END
> <minimizedAffinity>
-5.70354

$$$$
4AQ6_OMD_A_838


 15 15  0  0  0  0  0  0  0  0999 V2000
   17.9718   43.2519   -0.5515 C   0  0  0  0  0  0  0  0  0  0  0  0
   17.3940   43.3796   -1.8052 C   0  0  0  0  0  0  0  0  0  0  0  0
   17.8887   44.3334   -2.6903 C   0  0  0  0  0  0  0  0  0  0  0  0
   17.3704   44.4888   -3.9522 O   0  0  0  0  0  0  0  0  0  0  0  0
   18.9436   45.1533   -2.3168 C   0  0  0  0  0  0  0  0  0  0  0  0
   19.5053   45.0227   -1.0592 C   0  0  0  0  0  0  0  0  0  0  0  0
   19.0284   44.0667   -0.1752 C   0  0  0  0  0  0  0  0  0  0  0  0
   19.6019   43.9425    1.0832 O   0  0  0  0  0  0  0  0  0  0  0  0
   16.6575   43.9507   -4.2355 H   0  0  0  0  0  0  0  0  0  0  0  0
   19.2815   43.2973    1.6825 H   0  0  0  0  0  0  0  0  0  0  0  0
   17.4694   42.2450    0.4199 C   0  0  0  0  0  0  0  0  0  0  0  0
   16.9134   42.8523    1.6728 C   0  0  0  0  0  0  0  0  0  0  0  0
   17.4731   42.5911    2.7720 O   0  0  0  0  0  0  0  0  0  0  0  0
   15.9211   43.6333    1.6363 O   0  0  0  0  0  0  0  0  0  0  0  0
   15.5066   43.8262    0.8184 H   0  0  0  0  0  0  0  0  0  0  0  0
 12 11  1  0  0  0
 12 13  2  0  0  0
 12 14  1  0  0  0
 11  1  1  0  0  0
  1  2  2  0  0  0
  1  7  1  0  0  0
  2  3  1  0  0  0
  3  4  1  0  0  0
  3  5  2  0  0  0
  5  6  1  0  0  0
  6  7  2  0  0  0
  7  8  1  0  0  0
  4  9  1  0  0  0
  8 10  1  0  0  0
 14 15  1  0  0  0
M  END
> <minimizedAffinity>
-5.69124

$$$$
4AQ6_OMD_A_838


 15 15  0  0  0  0  0  0  0  0999 V2000
   17.6569   42.4924   -2.7510 C   0  0  0  0  0  0  0  0  0  0  0  0
   18.3695   43.5227   -3.3448 C   0  0  0  0  0  0  0  0  0  0  0  0
   18.8194   44.5813   -2.5607 C   0  0  0  0  0  0  0  0  0  0  0  0
   19.5486   45.6170   -3.0907 O   0  0  0  0  0  0  0  0  0  0  0  0
   18.5488   44.6081   -1.2003 C   0  0  0  0  0  0  0  0  0  0  0  0
   17.8282   43.5787   -0.6212 C   0  0  0  0  0  0  0  0  0  0  0  0
   17.3872   42.5132   -1.3913 C   0  0  0  0  0  0  0  0  0  0  0  0
   16.6675   41.4841   -0.7989 O   0  0  0  0  0  0  0  0  0  0  0  0
   19.7486   45.6289   -4.0060 H   0  0  0  0  0  0  0  0  0  0  0  0
   16.3683   40.7629   -1.3170 H   0  0  0  0  0  0  0  0  0  0  0  0
   17.1603   41.3463   -3.5570 C   0  0  0  0  0  0  0  0  0  0  0  0
   18.2306   40.6820   -4.3698 C   0  0  0  0  0  0  0  0  0  0  0  0
   18.3778   41.0263   -5.5738 O   0  0  0  0  0  0  0  0  0  0  0  0
   18.9934   39.8129   -3.8610 O   0  0  0  0  0  0  0  0  0  0  0  0
   18.8825   39.5584   -2.9660 H   0  0  0  0  0  0  0  0  0  0  0  0
 12 11  1  0  0  0
 12 13  2  0  0  0
 12 14  1  0  0  0
 11  1  1  0  0  0
  1  2  2  0  0  0
  1  7  1  0  0  0
  2  3  1  0  0  0
  3  4  1  0  0  0
  3  5  2  0  0  0
  5  6  1  0  0  0
  6  7  2  0  0  0
  7  8  1  0  0  0
  4  9  1  0  0  0
  8 10  1  0  0  0
 14 15  1  0  0  0
M  END
> <minimizedAffinity>
-5.43658

$$$$
