4JX9_URI_A_201


 21 22  0  0  0  0  0  0  0  0999 V2000
    2.2939   14.5755   28.8080 C   0  0  0  0  0  0  0  0  0  0  0  0
    1.5361   15.8039   28.9452 C   0  0  0  0  0  0  0  0  0  0  0  0
    1.8422   15.9311   30.3095 C   0  0  0  0  0  0  0  0  0  0  0  0
    3.3048   16.0139   30.3190 C   0  0  0  0  0  0  0  0  0  0  0  0
    2.1625   16.5936   27.9577 O   0  0  0  0  0  0  0  0  0  0  0  0
    1.1542   16.6986   31.0538 O   0  0  0  0  0  0  0  0  0  0  0  0
    3.3186   14.7026   29.8279 O   0  0  0  0  0  0  0  0  0  0  0  0
    3.1250   16.4950   28.0274 H   0  0  0  0  0  0  0  0  0  0  0  0
    1.2755   17.6182   30.7699 H   0  0  0  0  0  0  0  0  0  0  0  0
    1.2978   13.4718   28.8401 N   0  0  0  0  0  0  0  0  0  0  0  0
    0.3531   13.4202   27.8183 C   0  0  0  0  0  0  0  0  0  0  0  0
   -0.5361   12.4666   27.7514 N   0  0  0  0  0  0  0  0  0  0  0  0
   -0.6061   11.5323   28.7103 C   0  0  0  0  0  0  0  0  0  0  0  0
    0.3145   11.5486   29.7495 C   0  0  0  0  0  0  0  0  0  0  0  0
    1.2413   12.5909   29.8144 C   0  0  0  0  0  0  0  0  0  0  0  0
    0.3961   14.2939   26.9088 O   0  0  0  0  0  0  0  0  0  0  0  0
   -1.4585   10.5783   28.6843 O   0  0  0  0  0  0  0  0  0  0  0  0
   -1.1602   12.4334   26.9907 H   0  0  0  0  0  0  0  0  0  0  0  0
    3.7804   16.5577   31.6776 C   0  0  0  0  0  0  0  0  0  0  0  0
    3.6885   15.3699   32.4865 O   0  0  0  0  0  0  0  0  0  0  0  0
    2.7835   15.0227   32.4495 H   0  0  0  0  0  0  0  0  0  0  0  0
 10 11  1  0  0  0
 10 15  1  0  0  0
 10  1  1  0  0  0
 11 12  1  0  0  0
 11 16  2  0  0  0
 12 13  1  0  0  0
 13 14  1  0  0  0
 13 17  2  0  0  0
 14 15  2  0  0  0
  1  2  1  0  0  0
  1  7  1  0  0  0
  2  3  1  0  0  0
  2  5  1  0  0  0
  3  4  1  0  0  0
  3  6  1  0  0  0
  4  7  1  0  0  0
  4 19  1  0  0  0
 19 20  1  0  0  0
 12 18  1  0  0  0
  5  8  1  0  0  0
  6  9  1  0  0  0
 20 21  1  0  0  0
M  END
> <minimizedAffinity>
-5.82041

$$$$
4JX9_URI_A_201


 21 22  0  0  0  0  0  0  0  0999 V2000
    2.4382   15.3542   29.6521 C   0  0  0  0  0  0  0  0  0  0  0  0
    1.5849   16.2076   28.8486 C   0  0  0  0  0  0  0  0  0  0  0  0
    1.3632   17.1086   29.9024 C   0  0  0  0  0  0  0  0  0  0  0  0
    2.7105   17.5833   30.2271 C   0  0  0  0  0  0  0  0  0  0  0  0
    2.4607   16.5001   27.7815 O   0  0  0  0  0  0  0  0  0  0  0  0
    0.3918   17.9273   29.8543 O   0  0  0  0  0  0  0  0  0  0  0  0
    3.0085   16.2727   30.6202 O   0  0  0  0  0  0  0  0  0  0  0  0
    3.3367   16.7223   28.1338 H   0  0  0  0  0  0  0  0  0  0  0  0
    0.5325   18.5536   29.1270 H   0  0  0  0  0  0  0  0  0  0  0  0
    1.5919   14.2065   30.0743 N   0  0  0  0  0  0  0  0  0  0  0  0
    1.6270   13.0529   29.2949 C   0  0  0  0  0  0  0  0  0  0  0  0
    0.9414   11.9879   29.6116 N   0  0  0  0  0  0  0  0  0  0  0  0
    0.1254   11.9948   30.6753 C   0  0  0  0  0  0  0  0  0  0  0  0
    0.0574   13.1258   31.4778 C   0  0  0  0  0  0  0  0  0  0  0  0
    0.7804   14.2612   31.1072 C   0  0  0  0  0  0  0  0  0  0  0  0
    2.3830   13.0270   28.2849 O   0  0  0  0  0  0  0  0  0  0  0  0
   -0.5625   10.9740   31.0247 O   0  0  0  0  0  0  0  0  0  0  0  0
    1.0244   11.1734   29.0650 H   0  0  0  0  0  0  0  0  0  0  0  0
    2.6142   18.8638   31.0747 C   0  0  0  0  0  0  0  0  0  0  0  0
    2.6404   19.8683   30.0432 O   0  0  0  0  0  0  0  0  0  0  0  0
    3.4417   19.7606   29.5073 H   0  0  0  0  0  0  0  0  0  0  0  0
 10 11  1  0  0  0
 10 15  1  0  0  0
 10  1  1  0  0  0
 11 12  1  0  0  0
 11 16  2  0  0  0
 12 13  1  0  0  0
 13 14  1  0  0  0
 13 17  2  0  0  0
 14 15  2  0  0  0
  1  2  1  0  0  0
  1  7  1  0  0  0
  2  3  1  0  0  0
  2  5  1  0  0  0
  3  4  1  0  0  0
  3  6  1  0  0  0
  4  7  1  0  0  0
  4 19  1  0  0  0
 19 20  1  0  0  0
 12 18  1  0  0  0
  5  8  1  0  0  0
  6  9  1  0  0  0
 20 21  1  0  0  0
M  END
> <minimizedAffinity>
-5.82036

$$$$
4JX9_URI_A_201


 21 22  0  0  0  0  0  0  0  0999 V2000
    0.2319   14.0498   29.0867 C   0  0  0  0  0  0  0  0  0  0  0  0
    0.4607   12.7099   28.5824 C   0  0  0  0  0  0  0  0  0  0  0  0
   -0.2213   12.1077   29.6518 C   0  0  0  0  0  0  0  0  0  0  0  0
   -1.5711   12.6672   29.5466 C   0  0  0  0  0  0  0  0  0  0  0  0
   -0.1108   12.8274   27.2976 O   0  0  0  0  0  0  0  0  0  0  0  0
   -0.0599   10.8719   29.9028 O   0  0  0  0  0  0  0  0  0  0  0  0
   -1.0066   13.9166   29.8316 O   0  0  0  0  0  0  0  0  0  0  0  0
   -0.9638   13.2845   27.3637 H   0  0  0  0  0  0  0  0  0  0  0  0
   -0.4069   10.3444   29.1664 H   0  0  0  0  0  0  0  0  0  0  0  0
    1.4976   14.4614   29.7502 N   0  0  0  0  0  0  0  0  0  0  0  0
    2.3303   15.3451   29.0683 C   0  0  0  0  0  0  0  0  0  0  0  0
    3.4432   15.7836   29.5912 N   0  0  0  0  0  0  0  0  0  0  0  0
    3.8530   15.3425   30.7891 C   0  0  0  0  0  0  0  0  0  0  0  0
    3.0547   14.4578   31.5017 C   0  0  0  0  0  0  0  0  0  0  0  0
    1.8807   13.9835   30.9134 C   0  0  0  0  0  0  0  0  0  0  0  0
    1.9675   15.7677   27.9359 O   0  0  0  0  0  0  0  0  0  0  0  0
    4.9342   15.7468   31.3411 O   0  0  0  0  0  0  0  0  0  0  0  0
    3.9859   16.4435   29.1020 H   0  0  0  0  0  0  0  0  0  0  0  0
   -2.5462   11.8181   30.3807 C   0  0  0  0  0  0  0  0  0  0  0  0
   -2.9939   10.8754   29.3885 O   0  0  0  0  0  0  0  0  0  0  0  0
   -3.3703   11.3546   28.6338 H   0  0  0  0  0  0  0  0  0  0  0  0
 10 11  1  0  0  0
 10 15  1  0  0  0
 10  1  1  0  0  0
 11 12  1  0  0  0
 11 16  2  0  0  0
 12 13  1  0  0  0
 13 14  1  0  0  0
 13 17  2  0  0  0
 14 15  2  0  0  0
  1  2  1  0  0  0
  1  7  1  0  0  0
  2  3  1  0  0  0
  2  5  1  0  0  0
  3  4  1  0  0  0
  3  6  1  0  0  0
  4  7  1  0  0  0
  4 19  1  0  0  0
 19 20  1  0  0  0
 12 18  1  0  0  0
  5  8  1  0  0  0
  6  9  1  0  0  0
 20 21  1  0  0  0
M  END
> <minimizedAffinity>
-5.59532

$$$$
4JX9_URI_A_201


 21 22  0  0  0  0  0  0  0  0999 V2000
    1.5101   16.1408   29.7424 C   0  0  0  0  0  0  0  0  0  0  0  0
    2.3366   15.5147   28.7289 C   0  0  0  0  0  0  0  0  0  0  0  0
    1.8236   14.2345   28.9916 C   0  0  0  0  0  0  0  0  0  0  0  0
    0.3914   14.3851   28.7226 C   0  0  0  0  0  0  0  0  0  0  0  0
    1.9490   16.2618   27.5963 O   0  0  0  0  0  0  0  0  0  0  0  0
    2.4432   13.1991   28.5910 O   0  0  0  0  0  0  0  0  0  0  0  0
    0.3470   15.2749   29.8030 O   0  0  0  0  0  0  0  0  0  0  0  0
    0.9833   16.3515   27.5831 H   0  0  0  0  0  0  0  0  0  0  0  0
    2.4483   13.1804   27.6212 H   0  0  0  0  0  0  0  0  0  0  0  0
    2.3905   16.3439   30.9235 N   0  0  0  0  0  0  0  0  0  0  0  0
    2.9856   17.5929   31.0824 C   0  0  0  0  0  0  0  0  0  0  0  0
    3.7456   17.8672   32.1079 N   0  0  0  0  0  0  0  0  0  0  0  0
    4.0290   16.9236   33.0171 C   0  0  0  0  0  0  0  0  0  0  0  0
    3.4595   15.6632   32.8949 C   0  0  0  0  0  0  0  0  0  0  0  0
    2.6694   15.3846   31.7780 C   0  0  0  0  0  0  0  0  0  0  0  0
    2.7382   18.4941   30.2343 O   0  0  0  0  0  0  0  0  0  0  0  0
    4.7658   17.1480   34.0388 O   0  0  0  0  0  0  0  0  0  0  0  0
    4.1134   18.7741   32.2144 H   0  0  0  0  0  0  0  0  0  0  0  0
   -0.2519   12.9959   28.5688 C   0  0  0  0  0  0  0  0  0  0  0  0
   -0.0974   12.7865   27.1525 O   0  0  0  0  0  0  0  0  0  0  0  0
   -0.5169   13.5160   26.6701 H   0  0  0  0  0  0  0  0  0  0  0  0
 10 11  1  0  0  0
 10 15  1  0  0  0
 10  1  1  0  0  0
 11 12  1  0  0  0
 11 16  2  0  0  0
 12 13  1  0  0  0
 13 14  1  0  0  0
 13 17  2  0  0  0
 14 15  2  0  0  0
  1  2  1  0  0  0
  1  7  1  0  0  0
  2  3  1  0  0  0
  2  5  1  0  0  0
  3  4  1  0  0  0
  3  6  1  0  0  0
  4  7  1  0  0  0
  4 19  1  0  0  0
 19 20  1  0  0  0
 12 18  1  0  0  0
  5  8  1  0  0  0
  6  9  1  0  0  0
 20 21  1  0  0  0
M  END
> <minimizedAffinity>
-5.50063

$$$$
4JX9_URI_A_201


 21 22  0  0  0  0  0  0  0  0999 V2000
    1.6523   13.8185   30.9331 C   0  0  0  0  0  0  0  0  0  0  0  0
    2.6946   13.8858   29.9275 C   0  0  0  0  0  0  0  0  0  0  0  0
    2.1734   15.0569   29.3547 C   0  0  0  0  0  0  0  0  0  0  0  0
    2.2132   16.0175   30.4600 C   0  0  0  0  0  0  0  0  0  0  0  0
    3.8375   13.8983   30.7551 O   0  0  0  0  0  0  0  0  0  0  0  0
    2.5258   15.4128   28.1862 O   0  0  0  0  0  0  0  0  0  0  0  0
    1.2751   15.2084   31.1129 O   0  0  0  0  0  0  0  0  0  0  0  0
    3.6985   14.5174   31.4888 H   0  0  0  0  0  0  0  0  0  0  0  0
    3.4702   15.6342   28.1867 H   0  0  0  0  0  0  0  0  0  0  0  0
    0.6779   12.8050   30.4485 N   0  0  0  0  0  0  0  0  0  0  0  0
   -0.2386   12.2956   31.3649 C   0  0  0  0  0  0  0  0  0  0  0  0
   -1.1496   11.4279   31.0165 N   0  0  0  0  0  0  0  0  0  0  0  0
   -1.1908   10.9491   29.7649 C   0  0  0  0  0  0  0  0  0  0  0  0
   -0.2929   11.4274   28.8199 C   0  0  0  0  0  0  0  0  0  0  0  0
    0.6879   12.3369   29.2200 C   0  0  0  0  0  0  0  0  0  0  0  0
   -0.2133   12.7271   32.5506 O   0  0  0  0  0  0  0  0  0  0  0  0
   -2.0672   10.1007   29.3783 O   0  0  0  0  0  0  0  0  0  0  0  0
   -1.8117   11.1226   31.6781 H   0  0  0  0  0  0  0  0  0  0  0  0
    2.0609   17.4451   29.9065 C   0  0  0  0  0  0  0  0  0  0  0  0
    0.6752   17.4322   29.5149 O   0  0  0  0  0  0  0  0  0  0  0  0
    0.5221   16.7052   28.8913 H   0  0  0  0  0  0  0  0  0  0  0  0
 10 11  1  0  0  0
 10 15  1  0  0  0
 10  1  1  0  0  0
 11 12  1  0  0  0
 11 16  2  0  0  0
 12 13  1  0  0  0
 13 14  1  0  0  0
 13 17  2  0  0  0
 14 15  2  0  0  0
  1  2  1  0  0  0
  1  7  1  0  0  0
  2  3  1  0  0  0
  2  5  1  0  0  0
  3  4  1  0  0  0
  3  6  1  0  0  0
  4  7  1  0  0  0
  4 19  1  0  0  0
 19 20  1  0  0  0
 12 18  1  0  0  0
  5  8  1  0  0  0
  6  9  1  0  0  0
 20 21  1  0  0  0
M  END
> <minimizedAffinity>
-5.48405

$$$$
4JX9_URI_A_201


 21 22  0  0  0  0  0  0  0  0999 V2000
    0.8300   13.0153   30.5674 C   0  0  0  0  0  0  0  0  0  0  0  0
   -0.5471   12.9847   31.0200 C   0  0  0  0  0  0  0  0  0  0  0  0
   -1.0305   12.5737   29.7675 C   0  0  0  0  0  0  0  0  0  0  0  0
   -0.3451   11.2982   29.5453 C   0  0  0  0  0  0  0  0  0  0  0  0
   -0.4306   12.0953   32.1092 O   0  0  0  0  0  0  0  0  0  0  0  0
   -2.2639   12.6939   29.4837 O   0  0  0  0  0  0  0  0  0  0  0  0
    0.8535   12.0214   29.5101 O   0  0  0  0  0  0  0  0  0  0  0  0
    0.1114   11.3342   31.8486 H   0  0  0  0  0  0  0  0  0  0  0  0
   -2.7865   12.1159   30.0613 H   0  0  0  0  0  0  0  0  0  0  0  0
    1.1430   14.4440   30.2983 N   0  0  0  0  0  0  0  0  0  0  0  0
    2.4801   14.7950   30.1299 C   0  0  0  0  0  0  0  0  0  0  0  0
    2.8405   16.0199   29.8575 N   0  0  0  0  0  0  0  0  0  0  0  0
    1.9278   16.9998   29.7926 C   0  0  0  0  0  0  0  0  0  0  0  0
    0.5835   16.6942   29.9580 C   0  0  0  0  0  0  0  0  0  0  0  0
    0.2228   15.3826   30.2721 C   0  0  0  0  0  0  0  0  0  0  0  0
    3.3567   13.8895   30.1940 O   0  0  0  0  0  0  0  0  0  0  0  0
    2.2347   18.2129   29.5257 O   0  0  0  0  0  0  0  0  0  0  0  0
    3.7900   16.2256   29.6986 H   0  0  0  0  0  0  0  0  0  0  0  0
   -1.0554   10.5214   28.4230 C   0  0  0  0  0  0  0  0  0  0  0  0
   -0.7911   11.3794   27.2971 O   0  0  0  0  0  0  0  0  0  0  0  0
   -1.1222   12.2714   27.4856 H   0  0  0  0  0  0  0  0  0  0  0  0
 10 11  1  0  0  0
 10 15  1  0  0  0
 10  1  1  0  0  0
 11 12  1  0  0  0
 11 16  2  0  0  0
 12 13  1  0  0  0
 13 14  1  0  0  0
 13 17  2  0  0  0
 14 15  2  0  0  0
  1  2  1  0  0  0
  1  7  1  0  0  0
  2  3  1  0  0  0
  2  5  1  0  0  0
  3  4  1  0  0  0
  3  6  1  0  0  0
  4  7  1  0  0  0
  4 19  1  0  0  0
 19 20  1  0  0  0
 12 18  1  0  0  0
  5  8  1  0  0  0
  6  9  1  0  0  0
 20 21  1  0  0  0
M  END
> <minimizedAffinity>
-5.31657

$$$$
4JX9_URI_A_201


 21 22  0  0  0  0  0  0  0  0999 V2000
    1.7941   14.9283   30.5796 C   0  0  0  0  0  0  0  0  0  0  0  0
    2.6608   15.1426   29.4372 C   0  0  0  0  0  0  0  0  0  0  0  0
    2.0339   16.3501   29.0906 C   0  0  0  0  0  0  0  0  0  0  0  0
    2.2327   17.1845   30.2782 C   0  0  0  0  0  0  0  0  0  0  0  0
    3.9209   15.1051   30.0713 O   0  0  0  0  0  0  0  0  0  0  0  0
    2.1885   16.8444   27.9295 O   0  0  0  0  0  0  0  0  0  0  0  0
    1.4257   16.2756   30.9736 O   0  0  0  0  0  0  0  0  0  0  0  0
    3.8900   15.6346   30.8835 H   0  0  0  0  0  0  0  0  0  0  0  0
    3.1167   17.0980   27.8071 H   0  0  0  0  0  0  0  0  0  0  0  0
    0.7730   13.9398   30.1415 N   0  0  0  0  0  0  0  0  0  0  0  0
    1.2223   12.7558   29.5623 C   0  0  0  0  0  0  0  0  0  0  0  0
    0.3959   11.8202   29.1803 N   0  0  0  0  0  0  0  0  0  0  0  0
   -0.9290   12.0001   29.2788 C   0  0  0  0  0  0  0  0  0  0  0  0
   -1.4201   13.1679   29.8472 C   0  0  0  0  0  0  0  0  0  0  0  0
   -0.5195   14.1649   30.2267 C   0  0  0  0  0  0  0  0  0  0  0  0
    2.4655   12.5685   29.4532 O   0  0  0  0  0  0  0  0  0  0  0  0
   -1.7755   11.1101   28.9202 O   0  0  0  0  0  0  0  0  0  0  0  0
    0.7483   10.9758   28.8170 H   0  0  0  0  0  0  0  0  0  0  0  0
    1.9684   18.6578   29.9217 C   0  0  0  0  0  0  0  0  0  0  0  0
    0.5310   18.6567   29.8345 O   0  0  0  0  0  0  0  0  0  0  0  0
    0.2470   17.9943   29.1853 H   0  0  0  0  0  0  0  0  0  0  0  0
 10 11  1  0  0  0
 10 15  1  0  0  0
 10  1  1  0  0  0
 11 12  1  0  0  0
 11 16  2  0  0  0
 12 13  1  0  0  0
 13 14  1  0  0  0
 13 17  2  0  0  0
 14 15  2  0  0  0
  1  2  1  0  0  0
  1  7  1  0  0  0
  2  3  1  0  0  0
  2  5  1  0  0  0
  3  4  1  0  0  0
  3  6  1  0  0  0
  4  7  1  0  0  0
  4 19  1  0  0  0
 19 20  1  0  0  0
 12 18  1  0  0  0
  5  8  1  0  0  0
  6  9  1  0  0  0
 20 21  1  0  0  0
M  END
> <minimizedAffinity>
-5.29919

$$$$
4JX9_URI_A_201


 21 22  0  0  0  0  0  0  0  0999 V2000
   -0.4047   14.1891   28.4174 C   0  0  0  0  0  0  0  0  0  0  0  0
    0.4733   13.0958   28.0487 C   0  0  0  0  0  0  0  0  0  0  0  0
    0.2565   12.4127   29.2561 C   0  0  0  0  0  0  0  0  0  0  0  0
   -1.1887   12.1732   29.2514 C   0  0  0  0  0  0  0  0  0  0  0  0
   -0.1285   12.6916   26.8381 O   0  0  0  0  0  0  0  0  0  0  0  0
    1.0547   11.4956   29.6279 O   0  0  0  0  0  0  0  0  0  0  0  0
   -1.3547   13.5621   29.3178 O   0  0  0  0  0  0  0  0  0  0  0  0
   -1.0906   12.6491   26.9537 H   0  0  0  0  0  0  0  0  0  0  0  0
    1.0063   10.7530   29.0058 H   0  0  0  0  0  0  0  0  0  0  0  0
    0.4818   15.2942   28.8693 N   0  0  0  0  0  0  0  0  0  0  0  0
   -0.1010   16.3507   29.5648 C   0  0  0  0  0  0  0  0  0  0  0  0
    0.6085   17.3446   30.0264 N   0  0  0  0  0  0  0  0  0  0  0  0
    1.9261   17.4094   29.7878 C   0  0  0  0  0  0  0  0  0  0  0  0
    2.5470   16.3787   29.0949 C   0  0  0  0  0  0  0  0  0  0  0  0
    1.7656   15.3378   28.5898 C   0  0  0  0  0  0  0  0  0  0  0  0
   -1.3413   16.3137   29.7946 O   0  0  0  0  0  0  0  0  0  0  0  0
    2.6609   18.3623   30.2229 O   0  0  0  0  0  0  0  0  0  0  0  0
    0.1724   18.0523   30.5540 H   0  0  0  0  0  0  0  0  0  0  0  0
   -1.5344   11.0931   30.2912 C   0  0  0  0  0  0  0  0  0  0  0  0
   -1.0644   11.7246   31.4971 O   0  0  0  0  0  0  0  0  0  0  0  0
   -0.1261   11.9499   31.3994 H   0  0  0  0  0  0  0  0  0  0  0  0
 10 11  1  0  0  0
 10 15  1  0  0  0
 10  1  1  0  0  0
 11 12  1  0  0  0
 11 16  2  0  0  0
 12 13  1  0  0  0
 13 14  1  0  0  0
 13 17  2  0  0  0
 14 15  2  0  0  0
  1  2  1  0  0  0
  1  7  1  0  0  0
  2  3  1  0  0  0
  2  5  1  0  0  0
  3  4  1  0  0  0
  3  6  1  0  0  0
  4  7  1  0  0  0
  4 19  1  0  0  0
 19 20  1  0  0  0
 12 18  1  0  0  0
  5  8  1  0  0  0
  6  9  1  0  0  0
 20 21  1  0  0  0
M  END
> <minimizedAffinity>
-5.24117

$$$$
4JX9_URI_A_201


 21 22  0  0  0  0  0  0  0  0999 V2000
    3.1490   16.1838   30.1484 C   0  0  0  0  0  0  0  0  0  0  0  0
    2.1990   17.1622   30.6407 C   0  0  0  0  0  0  0  0  0  0  0  0
    2.4374   16.8315   31.9843 C   0  0  0  0  0  0  0  0  0  0  0  0
    3.8664   17.1082   32.1496 C   0  0  0  0  0  0  0  0  0  0  0  0
    2.7208   18.3332   30.0511 O   0  0  0  0  0  0  0  0  0  0  0  0
    1.6115   17.1761   32.8873 O   0  0  0  0  0  0  0  0  0  0  0  0
    4.1071   16.0769   31.2333 O   0  0  0  0  0  0  0  0  0  0  0  0
    3.6839   18.3512   30.1654 H   0  0  0  0  0  0  0  0  0  0  0  0
    1.5918   18.1435   32.9553 H   0  0  0  0  0  0  0  0  0  0  0  0
    2.3434   15.0151   29.7049 N   0  0  0  0  0  0  0  0  0  0  0  0
    1.7807   15.0602   28.4318 C   0  0  0  0  0  0  0  0  0  0  0  0
    1.0874   14.0641   27.9507 N   0  0  0  0  0  0  0  0  0  0  0  0
    0.8415   12.9805   28.7008 C   0  0  0  0  0  0  0  0  0  0  0  0
    1.3807   12.8959   29.9775 C   0  0  0  0  0  0  0  0  0  0  0  0
    2.0985   13.9824   30.4808 C   0  0  0  0  0  0  0  0  0  0  0  0
    1.9935   16.0740   27.7110 O   0  0  0  0  0  0  0  0  0  0  0  0
    0.1702   11.9800   28.2699 O   0  0  0  0  0  0  0  0  0  0  0  0
    0.7425   14.1091   27.0297 H   0  0  0  0  0  0  0  0  0  0  0  0
    4.2050   17.1876   33.6484 C   0  0  0  0  0  0  0  0  0  0  0  0
    5.6405   17.2863   33.5921 O   0  0  0  0  0  0  0  0  0  0  0  0
    5.9979   16.5274   33.1049 H   0  0  0  0  0  0  0  0  0  0  0  0
 10 11  1  0  0  0
 10 15  1  0  0  0
 10  1  1  0  0  0
 11 12  1  0  0  0
 11 16  2  0  0  0
 12 13  1  0  0  0
 13 14  1  0  0  0
 13 17  2  0  0  0
 14 15  2  0  0  0
  1  2  1  0  0  0
  1  7  1  0  0  0
  2  3  1  0  0  0
  2  5  1  0  0  0
  3  4  1  0  0  0
  3  6  1  0  0  0
  4  7  1  0  0  0
  4 19  1  0  0  0
 19 20  1  0  0  0
 12 18  1  0  0  0
  5  8  1  0  0  0
  6  9  1  0  0  0
 20 21  1  0  0  0
M  END
> <minimizedAffinity>
-5.14935

$$$$
4JX9_URI_A_201


 21 22  0  0  0  0  0  0  0  0999 V2000
    1.2158   16.1383   31.0067 C   0  0  0  0  0  0  0  0  0  0  0  0
    1.0719   16.9827   29.8369 C   0  0  0  0  0  0  0  0  0  0  0  0
    1.6146   16.0151   28.9764 C   0  0  0  0  0  0  0  0  0  0  0  0
    0.7012   14.8801   29.1289 C   0  0  0  0  0  0  0  0  0  0  0  0
   -0.3130   17.2479   29.8912 O   0  0  0  0  0  0  0  0  0  0  0  0
    2.0368   16.3447   27.8234 O   0  0  0  0  0  0  0  0  0  0  0  0
    1.1287   14.7968   30.4598 O   0  0  0  0  0  0  0  0  0  0  0  0
   -0.7928   16.4253   30.0753 H   0  0  0  0  0  0  0  0  0  0  0  0
    1.2924   16.6500   27.2816 H   0  0  0  0  0  0  0  0  0  0  0  0
    2.4372   16.6135   31.7093 N   0  0  0  0  0  0  0  0  0  0  0  0
    3.0193   15.7634   32.6463 C   0  0  0  0  0  0  0  0  0  0  0  0
    4.1113   16.0874   33.2841 N   0  0  0  0  0  0  0  0  0  0  0  0
    4.6770   17.2887   33.0990 C   0  0  0  0  0  0  0  0  0  0  0  0
    4.1271   18.1687   32.1765 C   0  0  0  0  0  0  0  0  0  0  0  0
    2.9459   17.8115   31.5235 C   0  0  0  0  0  0  0  0  0  0  0  0
    2.4992   14.6302   32.8415 O   0  0  0  0  0  0  0  0  0  0  0  0
    5.7483   17.6476   33.6997 O   0  0  0  0  0  0  0  0  0  0  0  0
    4.5227   15.4445   33.9059 H   0  0  0  0  0  0  0  0  0  0  0  0
    0.9100   13.8922   27.9679 C   0  0  0  0  0  0  0  0  0  0  0  0
    2.2402   13.4214   28.2551 O   0  0  0  0  0  0  0  0  0  0  0  0
    2.8479   14.1761   28.2988 H   0  0  0  0  0  0  0  0  0  0  0  0
 10 11  1  0  0  0
 10 15  1  0  0  0
 10  1  1  0  0  0
 11 12  1  0  0  0
 11 16  2  0  0  0
 12 13  1  0  0  0
 13 14  1  0  0  0
 13 17  2  0  0  0
 14 15  2  0  0  0
  1  2  1  0  0  0
  1  7  1  0  0  0
  2  3  1  0  0  0
  2  5  1  0  0  0
  3  4  1  0  0  0
  3  6  1  0  0  0
  4  7  1  0  0  0
  4 19  1  0  0  0
 19 20  1  0  0  0
 12 18  1  0  0  0
  5  8  1  0  0  0
  6  9  1  0  0  0
 20 21  1  0  0  0
M  END
> <minimizedAffinity>
-5.12549

$$$$
