3IAE_D7K_A_571


 46 48  0  0  0  0  0  0  0  0999 V2000
   -0.0285  -46.1495  -28.0553 C   0  0  0  0  0  0  0  0  0  0  0  0
    1.4919  -46.0015  -28.4159 C   0  0  0  0  0  0  0  0  0  0  0  0
    2.1351  -46.4126  -29.7452 C   0  0  0  0  0  0  0  0  0  0  0  0
   -0.3019  -45.5928  -26.5188 S   0  0  0  0  0  0  0  0  0  0  0  0
    1.3431  -45.1336  -26.0865 C   0  0  0  0  0  0  0  0  0  0  0  0
    2.2987  -45.3785  -27.2417 N   0  0  0  0  0  0  0  0  0  0  0  0
    1.5933  -44.3102  -24.7906 C   0  0  0  0  0  0  0  0  0  0  0  0
    2.8657  -44.6538  -24.2482 O   0  0  0  0  0  0  0  0  0  0  0  0
    3.5583  -44.4556  -24.8977 H   0  0  0  0  0  0  0  0  0  0  0  0
    0.4138  -44.6032  -23.7934 C   0  0  0  0  0  0  0  0  0  0  0  0
    0.6104  -45.5720  -22.5864 C   0  0  0  0  0  0  0  0  0  0  0  0
   -0.5204  -45.8637  -21.5979 C   0  0  0  0  0  0  0  0  0  0  0  0
   -1.9110  -45.2026  -21.7890 C   0  0  0  0  0  0  0  0  0  0  0  0
   -2.1290  -44.2410  -22.9696 C   0  0  0  0  0  0  0  0  0  0  0  0
   -0.9785  -43.9504  -23.9677 C   0  0  0  0  0  0  0  0  0  0  0  0
    3.1039  -42.3667  -26.0471 O   0  0  0  0  0  0  0  0  0  0  0  0
    1.7193  -42.4709  -25.1865 P   0  0  0  0  0  0  0  0  0  0  0  0
    0.5748  -41.9766  -25.9838 O   0  0  0  0  0  0  0  0  0  0  0  0
    0.5360  -42.4565  -26.8259 H   0  0  0  0  0  0  0  0  0  0  0  0
    1.7875  -41.6364  -23.7211 O   0  0  0  0  0  0  0  0  0  0  0  0
    0.7428  -40.7926  -23.2926 C   0  0  0  0  0  0  0  0  0  0  0  0
   -1.1032  -46.7136  -28.9924 C   0  0  0  0  0  0  0  0  0  0  0  0
   -1.3154  -48.2138  -28.8154 C   0  0  0  0  0  0  0  0  0  0  0  0
   -2.3302  -48.5149  -29.7297 O   0  0  0  0  0  0  0  0  0  0  0  0
   -3.0811  -49.9690  -29.6806 P   0  0  0  0  0  0  0  0  0  0  0  0
   -3.5544  -50.3861  -31.2024 O   0  0  0  0  0  0  0  0  0  0  0  0
   -2.2732  -51.1333  -29.2331 O   0  0  0  0  0  0  0  0  0  0  0  0
   -2.8230  -51.9323  -29.2458 H   0  0  0  0  0  0  0  0  0  0  0  0
   -4.2742  -49.8103  -28.5731 O   0  0  0  0  0  0  0  0  0  0  0  0
   -5.6304  -48.5878  -30.3630 O   0  0  0  0  0  0  0  0  0  0  0  0
   -5.4759  -48.6842  -28.7182 P   0  0  0  0  0  0  0  0  0  0  0  0
   -4.9610  -47.3155  -27.9366 O   0  0  0  0  0  0  0  0  0  0  0  0
   -6.7213  -49.1588  -28.0521 O   0  0  0  0  0  0  0  0  0  0  0  0
   -5.9355  -49.4408  -30.7097 H   0  0  0  0  0  0  0  0  0  0  0  0
   -7.0396  -49.9607  -28.4954 H   0  0  0  0  0  0  0  0  0  0  0  0
    3.7382  -45.1226  -27.2910 C   0  0  0  0  0  0  0  0  0  0  0  0
    4.5471  -46.4219  -27.3032 C   0  0  0  0  0  0  0  0  0  0  0  0
    5.0627  -46.9689  -28.5862 C   0  0  0  0  0  0  0  0  0  0  0  0
    4.8714  -47.1170  -26.0086 C   0  0  0  0  0  0  0  0  0  0  0  0
    4.4142  -46.6280  -24.7484 N   0  0  0  0  0  0  0  0  0  0  0  0
    5.6607  -48.3182  -25.9802 N   0  0  0  0  0  0  0  0  0  0  0  0
    6.1867  -48.8861  -27.2310 C   0  0  0  0  0  0  0  0  0  0  0  0
    5.8644  -48.1955  -28.5286 N   0  0  0  0  0  0  0  0  0  0  0  0
    6.9968  -50.1701  -27.1652 C   0  0  0  0  0  0  0  0  0  0  0  0
    3.8696  -45.8090  -24.7064 H   0  0  0  0  0  0  0  0  0  0  0  0
    4.6435  -47.1096  -23.9209 H   0  0  0  0  0  0  0  0  0  0  0  0
 25 27  1  0  0  0
 25 29  1  0  0  0
 26 25  2  0  0  0
 31 30  1  0  0  0
 31 29  1  0  0  0
 31 33  1  0  0  0
 32 31  2  0  0  0
 24 25  1  0  0  0
 24 23  1  0  0  0
 22 23  1  0  0  0
 22  1  1  0  0  0
  1  4  1  0  0  0
  2  1  2  0  0  0
  2  6  1  0  0  0
  3  2  1  0  0  0
  4  5  1  0  0  0
  5  7  1  0  0  0
  6  5  2  0  0  0
  6 36  1  0  0  0
 37 36  1  0  0  0
 37 39  1  0  0  0
 38 37  2  0  0  0
 38 43  1  0  0  0
 39 40  1  0  0  0
 41 39  2  0  0  0
 42 41  1  0  0  0
 42 44  1  0  0  0
 43 42  2  0  0  0
 16 17  2  0  0  0
 17  7  1  0  0  0
 17 20  1  0  0  0
 18 17  1  0  0  0
 20 21  1  0  0  0
  7  8  1  0  0  0
  7 10  1  0  0  0
 10 11  1  0  0  0
 11 12  2  0  0  0
 13 12  1  0  0  0
 14 13  2  0  0  0
 15 10  2  0  0  0
 15 14  1  0  0  0
 27 28  1  0  0  0
 30 34  1  0  0  0
 33 35  1  0  0  0
 40 45  1  0  0  0
 40 46  1  0  0  0
 18 19  1  0  0  0
  8  9  1  0  0  0
M  CHG 1   6   1
M  END
> <minimizedAffinity>
-13.28406

$$$$
