1O2W_847_A_246


 33 35  0  0  0  0  0  0  0  0999 V2000
   44.0477   -2.5185   26.3300 C   0  0  0  0  0  0  0  0  0  0  0  0
   43.9549   -3.8678   26.7943 C   0  0  0  0  0  0  0  0  0  0  0  0
   43.7141   -4.1860   28.1327 C   0  0  0  0  0  0  0  0  0  0  0  0
   43.5613   -3.1307   28.9913 C   0  0  0  0  0  0  0  0  0  0  0  0
   43.6400   -1.8474   28.6078 C   0  0  0  0  0  0  0  0  0  0  0  0
   43.8826   -1.4790   27.2903 C   0  0  0  0  0  0  0  0  0  0  0  0
   43.3269   -3.1149   30.2537 N   0  0  0  0  0  0  0  0  0  0  0  0
   43.4599   -1.0038   29.6037 N   0  0  0  0  0  0  0  0  0  0  0  0
   43.2693   -1.8671   30.5890 C   0  0  0  0  0  0  0  0  0  0  0  0
   43.2140   -3.8936   30.8454 H   0  0  0  0  0  0  0  0  0  0  0  0
   42.9867   -1.4653   31.9170 C   0  0  0  0  0  0  0  0  0  0  0  0
   43.5993   -0.3331   32.4929 C   0  0  0  0  0  0  0  0  0  0  0  0
   43.3381    0.0861   33.8050 C   0  0  0  0  0  0  0  0  0  0  0  0
   42.4196   -0.6633   34.5649 C   0  0  0  0  0  0  0  0  0  0  0  0
   41.7789   -1.7976   34.0457 C   0  0  0  0  0  0  0  0  0  0  0  0
   42.0753   -2.1828   32.7293 C   0  0  0  0  0  0  0  0  0  0  0  0
   41.4607   -3.3070   32.2298 O   0  0  0  0  0  0  0  0  0  0  0  0
   40.4837   -2.8224   35.1369 Br  0  0  0  0  0  0  0  0  0  0  0  0
   44.1260    1.3444   34.3425 C   0  0  0  0  0  0  0  0  0  0  0  0
   45.6490    0.9512   34.1906 C   0  0  0  0  0  0  0  0  0  0  0  0
   46.1764    0.3368   35.1000 O   0  0  0  0  0  0  0  0  0  0  0  0
   46.2704    1.2764   33.1964 O   0  0  0  0  0  0  0  0  0  0  0  0
   43.6799    1.8240   35.8416 C   0  0  0  0  0  0  0  0  0  0  0  0
   44.4300    3.0887   36.4630 C   0  0  0  0  0  0  0  0  0  0  0  0
   45.4665    2.9845   37.0921 O   0  0  0  0  0  0  0  0  0  0  0  0
   43.9491    4.2000   36.2951 O   0  0  0  0  0  0  0  0  0  0  0  0
   44.2805   -2.2456   24.9812 C   0  0  0  0  0  0  0  0  0  0  0  0
   44.6323   -3.2232   24.1852 N   0  0  0  0  0  0  0  0  0  0  0  0
   44.1357   -1.0125   24.5416 N   0  0  0  0  0  0  0  0  0  0  0  0
   44.7332   -4.1357   24.5409 H   0  0  0  0  0  0  0  0  0  0  0  0
   44.7962   -3.0462   23.2307 H   0  0  0  0  0  0  0  0  0  0  0  0
   43.8700   -0.2965   25.1629 H   0  0  0  0  0  0  0  0  0  0  0  0
   44.2931   -0.8069   23.5918 H   0  0  0  0  0  0  0  0  0  0  0  0
  1  2  2  0  0  0
  1  6  1  0  0  0
  1 27  1  0  0  0
  2  3  1  0  0  0
  3  4  2  0  0  0
  4  5  1  0  0  0
  4  7  1  0  0  0
  5  6  2  0  0  0
  5  8  1  0  0  0
 27 28  1  0  0  0
 27 29  2  0  0  0
  7  9  1  0  0  0
  8  9  2  0  0  0
  9 11  1  0  0  0
 11 12  2  0  0  0
 11 16  1  0  0  0
 12 13  1  0  0  0
 13 19  1  0  0  0
 13 14  2  0  0  0
 19 20  1  0  0  0
 19 23  1  0  0  0
 20 21  2  0  0  0
 20 22  1  0  0  0
 23 24  1  0  0  0
 24 25  2  0  0  0
 24 26  1  0  0  0
 14 15  1  0  0  0
 15 16  2  0  0  0
 15 18  1  0  0  0
 16 17  1  0  0  0
 28 30  1  0  0  0
 28 31  1  0  0  0
 29 32  1  0  0  0
 29 33  1  0  0  0
  7 10  1  0  0  0
M  CHG 1  17  -1
M  CHG 1  22  -1
M  CHG 1  26  -1
M  CHG 1  29   1
M  END
> <minimizedAffinity>
-8.60421

$$$$
1O2W_847_A_246


 33 35  0  0  0  0  0  0  0  0999 V2000
   44.0530   -2.8757   26.0925 C   0  0  0  0  0  0  0  0  0  0  0  0
   44.5719   -1.5434   26.0812 C   0  0  0  0  0  0  0  0  0  0  0  0
   44.3503   -0.6428   27.1254 C   0  0  0  0  0  0  0  0  0  0  0  0
   43.6082   -1.1037   28.1795 C   0  0  0  0  0  0  0  0  0  0  0  0
   43.0978   -2.3430   28.2393 C   0  0  0  0  0  0  0  0  0  0  0  0
   43.2856   -3.2738   27.2250 C   0  0  0  0  0  0  0  0  0  0  0  0
   43.2547   -0.5165   29.2654 N   0  0  0  0  0  0  0  0  0  0  0  0
   42.4201   -2.5644   29.3473 N   0  0  0  0  0  0  0  0  0  0  0  0
   42.5662   -1.3855   29.9315 C   0  0  0  0  0  0  0  0  0  0  0  0
   43.4647    0.4065   29.5356 H   0  0  0  0  0  0  0  0  0  0  0  0
   42.0390   -1.0938   31.2128 C   0  0  0  0  0  0  0  0  0  0  0  0
   42.8709   -0.9782   32.3456 C   0  0  0  0  0  0  0  0  0  0  0  0
   42.3751   -0.6908   33.6251 C   0  0  0  0  0  0  0  0  0  0  0  0
   40.9862   -0.5086   33.7673 C   0  0  0  0  0  0  0  0  0  0  0  0
   40.1096   -0.6106   32.6774 C   0  0  0  0  0  0  0  0  0  0  0  0
   40.6503   -0.9049   31.4163 C   0  0  0  0  0  0  0  0  0  0  0  0
   39.7863   -1.0241   30.3533 O   0  0  0  0  0  0  0  0  0  0  0  0
   38.1630   -0.3370   32.9093 Br  0  0  0  0  0  0  0  0  0  0  0  0
   43.4104   -0.6339   34.8160 C   0  0  0  0  0  0  0  0  0  0  0  0
   42.5419   -0.9059   36.1078 C   0  0  0  0  0  0  0  0  0  0  0  0
   42.1490    0.0529   36.7473 O   0  0  0  0  0  0  0  0  0  0  0  0
   42.2965   -2.0464   36.4531 O   0  0  0  0  0  0  0  0  0  0  0  0
   44.3075    0.7335   34.8589 C   0  0  0  0  0  0  0  0  0  0  0  0
   45.7087    0.7183   34.0942 C   0  0  0  0  0  0  0  0  0  0  0  0
   46.7536    0.4522   34.6584 O   0  0  0  0  0  0  0  0  0  0  0  0
   45.7307    0.9769   32.8996 O   0  0  0  0  0  0  0  0  0  0  0  0
   44.3068   -3.7463   25.0314 C   0  0  0  0  0  0  0  0  0  0  0  0
   44.0891   -5.0269   25.1924 N   0  0  0  0  0  0  0  0  0  0  0  0
   44.7542   -3.2575   23.8933 N   0  0  0  0  0  0  0  0  0  0  0  0
   43.7543   -5.3648   26.0544 H   0  0  0  0  0  0  0  0  0  0  0  0
   44.2601   -5.6523   24.4515 H   0  0  0  0  0  0  0  0  0  0  0  0
   44.9091   -2.2898   23.8001 H   0  0  0  0  0  0  0  0  0  0  0  0
   44.9338   -3.8600   23.1356 H   0  0  0  0  0  0  0  0  0  0  0  0
  1  2  2  0  0  0
  1  6  1  0  0  0
  1 27  1  0  0  0
  2  3  1  0  0  0
  3  4  2  0  0  0
  4  5  1  0  0  0
  4  7  1  0  0  0
  5  6  2  0  0  0
  5  8  1  0  0  0
 27 28  1  0  0  0
 27 29  2  0  0  0
  7  9  1  0  0  0
  8  9  2  0  0  0
  9 11  1  0  0  0
 11 12  2  0  0  0
 11 16  1  0  0  0
 12 13  1  0  0  0
 13 19  1  0  0  0
 13 14  2  0  0  0
 19 20  1  0  0  0
 19 23  1  0  0  0
 20 21  2  0  0  0
 20 22  1  0  0  0
 23 24  1  0  0  0
 24 25  2  0  0  0
 24 26  1  0  0  0
 14 15  1  0  0  0
 15 16  2  0  0  0
 15 18  1  0  0  0
 16 17  1  0  0  0
 28 30  1  0  0  0
 28 31  1  0  0  0
 29 32  1  0  0  0
 29 33  1  0  0  0
  7 10  1  0  0  0
M  CHG 1  17  -1
M  CHG 1  22  -1
M  CHG 1  26  -1
M  CHG 1  29   1
M  END
> <minimizedAffinity>
-8.30842

$$$$
1O2W_847_A_246


 33 35  0  0  0  0  0  0  0  0999 V2000
   44.0877   -2.8437   26.1479 C   0  0  0  0  0  0  0  0  0  0  0  0
   44.5581   -1.4944   26.2013 C   0  0  0  0  0  0  0  0  0  0  0  0
   44.3018   -0.6526   27.2858 C   0  0  0  0  0  0  0  0  0  0  0  0
   43.5748   -1.1892   28.3143 C   0  0  0  0  0  0  0  0  0  0  0  0
   43.1095   -2.4476   28.3138 C   0  0  0  0  0  0  0  0  0  0  0  0
   43.3329   -3.3221   27.2575 C   0  0  0  0  0  0  0  0  0  0  0  0
   43.1979   -0.6670   29.4252 N   0  0  0  0  0  0  0  0  0  0  0  0
   42.4380   -2.7453   29.4076 N   0  0  0  0  0  0  0  0  0  0  0  0
   42.5400   -1.5908   30.0471 C   0  0  0  0  0  0  0  0  0  0  0  0
   43.3739    0.2492   29.7394 H   0  0  0  0  0  0  0  0  0  0  0  0
   42.0000   -1.3790   31.3388 C   0  0  0  0  0  0  0  0  0  0  0  0
   40.6681   -1.7237   31.6487 C   0  0  0  0  0  0  0  0  0  0  0  0
   40.1085   -1.5242   32.9186 C   0  0  0  0  0  0  0  0  0  0  0  0
   40.9253   -0.9589   33.9166 C   0  0  0  0  0  0  0  0  0  0  0  0
   42.2571   -0.5968   33.6675 C   0  0  0  0  0  0  0  0  0  0  0  0
   42.7730   -0.8101   32.3801 C   0  0  0  0  0  0  0  0  0  0  0  0
   44.0729   -0.4356   32.1333 O   0  0  0  0  0  0  0  0  0  0  0  0
   43.3822    0.1851   35.0961 Br  0  0  0  0  0  0  0  0  0  0  0  0
   38.5913   -1.9125   33.1196 C   0  0  0  0  0  0  0  0  0  0  0  0
   38.5568   -3.4812   32.9325 C   0  0  0  0  0  0  0  0  0  0  0  0
   37.9586   -3.9315   31.9722 O   0  0  0  0  0  0  0  0  0  0  0  0
   39.1004   -4.2078   33.7429 O   0  0  0  0  0  0  0  0  0  0  0  0
   37.5546   -1.0778   32.1683 C   0  0  0  0  0  0  0  0  0  0  0  0
   37.4611    0.5003   32.3898 C   0  0  0  0  0  0  0  0  0  0  0  0
   38.3302    1.2621   32.0088 O   0  0  0  0  0  0  0  0  0  0  0  0
   36.4793    0.9585   32.9561 O   0  0  0  0  0  0  0  0  0  0  0  0
   44.3751   -3.6534   25.0480 C   0  0  0  0  0  0  0  0  0  0  0  0
   44.3145   -4.9541   25.1818 N   0  0  0  0  0  0  0  0  0  0  0  0
   44.6952   -3.0893   23.9018 N   0  0  0  0  0  0  0  0  0  0  0  0
   44.0725   -5.3489   26.0506 H   0  0  0  0  0  0  0  0  0  0  0  0
   44.5110   -5.5377   24.4136 H   0  0  0  0  0  0  0  0  0  0  0  0
   44.7331   -2.1081   23.8298 H   0  0  0  0  0  0  0  0  0  0  0  0
   44.8966   -3.6486   23.1171 H   0  0  0  0  0  0  0  0  0  0  0  0
  1  2  2  0  0  0
  1  6  1  0  0  0
  1 27  1  0  0  0
  2  3  1  0  0  0
  3  4  2  0  0  0
  4  5  1  0  0  0
  4  7  1  0  0  0
  5  6  2  0  0  0
  5  8  1  0  0  0
 27 28  1  0  0  0
 27 29  2  0  0  0
  7  9  1  0  0  0
  8  9  2  0  0  0
  9 11  1  0  0  0
 11 12  2  0  0  0
 11 16  1  0  0  0
 12 13  1  0  0  0
 13 19  1  0  0  0
 13 14  2  0  0  0
 19 20  1  0  0  0
 19 23  1  0  0  0
 20 21  2  0  0  0
 20 22  1  0  0  0
 23 24  1  0  0  0
 24 25  2  0  0  0
 24 26  1  0  0  0
 14 15  1  0  0  0
 15 16  2  0  0  0
 15 18  1  0  0  0
 16 17  1  0  0  0
 28 30  1  0  0  0
 28 31  1  0  0  0
 29 32  1  0  0  0
 29 33  1  0  0  0
  7 10  1  0  0  0
M  CHG 1  17  -1
M  CHG 1  22  -1
M  CHG 1  26  -1
M  CHG 1  29   1
M  END
> <minimizedAffinity>
-8.25319

$$$$
1O2W_847_A_246


 33 35  0  0  0  0  0  0  0  0999 V2000
   44.0016   -2.4252   26.6808 C   0  0  0  0  0  0  0  0  0  0  0  0
   43.8405   -3.7876   27.0842 C   0  0  0  0  0  0  0  0  0  0  0  0
   43.5577   -4.1514   28.4025 C   0  0  0  0  0  0  0  0  0  0  0  0
   43.4326   -3.1278   29.3030 C   0  0  0  0  0  0  0  0  0  0  0  0
   43.5750   -1.8342   28.9771 C   0  0  0  0  0  0  0  0  0  0  0  0
   43.8613   -1.4212   27.6818 C   0  0  0  0  0  0  0  0  0  0  0  0
   43.1722   -3.1554   30.5601 N   0  0  0  0  0  0  0  0  0  0  0  0
   43.4106   -1.0265   30.0051 N   0  0  0  0  0  0  0  0  0  0  0  0
   43.1617   -1.9217   30.9481 C   0  0  0  0  0  0  0  0  0  0  0  0
   43.0131   -3.9528   31.1152 H   0  0  0  0  0  0  0  0  0  0  0  0
   42.8686   -1.5646   32.2866 C   0  0  0  0  0  0  0  0  0  0  0  0
   43.6724   -0.6525   33.0012 C   0  0  0  0  0  0  0  0  0  0  0  0
   43.4053   -0.2823   34.3268 C   0  0  0  0  0  0  0  0  0  0  0  0
   42.2808   -0.8510   34.9552 C   0  0  0  0  0  0  0  0  0  0  0  0
   41.4446   -1.7628   34.2949 C   0  0  0  0  0  0  0  0  0  0  0  0
   41.7538   -2.1079   32.9704 C   0  0  0  0  0  0  0  0  0  0  0  0
   40.9437   -3.0174   32.3323 O   0  0  0  0  0  0  0  0  0  0  0  0
   39.8646   -2.5351   35.2034 Br  0  0  0  0  0  0  0  0  0  0  0  0
   44.4111    0.7141   35.0258 C   0  0  0  0  0  0  0  0  0  0  0  0
   43.8321    2.1491   34.7057 C   0  0  0  0  0  0  0  0  0  0  0  0
   44.0237    2.6104   33.5952 O   0  0  0  0  0  0  0  0  0  0  0  0
   43.2306    2.7725   35.5600 O   0  0  0  0  0  0  0  0  0  0  0  0
   45.9765    0.4888   34.6075 C   0  0  0  0  0  0  0  0  0  0  0  0
   46.9380   -0.1831   35.6903 C   0  0  0  0  0  0  0  0  0  0  0  0
   48.1418   -0.0049   35.6893 O   0  0  0  0  0  0  0  0  0  0  0  0
   46.4461   -0.8959   36.5532 O   0  0  0  0  0  0  0  0  0  0  0  0
   44.2747   -2.1057   25.3498 C   0  0  0  0  0  0  0  0  0  0  0  0
   44.1276   -0.8684   24.9489 N   0  0  0  0  0  0  0  0  0  0  0  0
   44.6782   -3.0555   24.5315 N   0  0  0  0  0  0  0  0  0  0  0  0
   43.8244   -0.1784   25.5824 H   0  0  0  0  0  0  0  0  0  0  0  0
   44.3201   -0.6277   24.0139 H   0  0  0  0  0  0  0  0  0  0  0  0
   44.7801   -3.9779   24.8602 H   0  0  0  0  0  0  0  0  0  0  0  0
   44.8778   -2.8431   23.5912 H   0  0  0  0  0  0  0  0  0  0  0  0
  1  2  2  0  0  0
  1  6  1  0  0  0
  1 27  1  0  0  0
  2  3  1  0  0  0
  3  4  2  0  0  0
  4  5  1  0  0  0
  4  7  1  0  0  0
  5  6  2  0  0  0
  5  8  1  0  0  0
 27 28  1  0  0  0
 27 29  2  0  0  0
  7  9  1  0  0  0
  8  9  2  0  0  0
  9 11  1  0  0  0
 11 12  2  0  0  0
 11 16  1  0  0  0
 12 13  1  0  0  0
 13 19  1  0  0  0
 13 14  2  0  0  0
 19 20  1  0  0  0
 19 23  1  0  0  0
 20 21  2  0  0  0
 20 22  1  0  0  0
 23 24  1  0  0  0
 24 25  2  0  0  0
 24 26  1  0  0  0
 14 15  1  0  0  0
 15 16  2  0  0  0
 15 18  1  0  0  0
 16 17  1  0  0  0
 28 30  1  0  0  0
 28 31  1  0  0  0
 29 32  1  0  0  0
 29 33  1  0  0  0
  7 10  1  0  0  0
M  CHG 1  17  -1
M  CHG 1  22  -1
M  CHG 1  26  -1
M  CHG 1  29   1
M  END
> <minimizedAffinity>
-8.05563

$$$$
1O2W_847_A_246


 33 35  0  0  0  0  0  0  0  0999 V2000
   43.9145   -2.8353   26.9548 C   0  0  0  0  0  0  0  0  0  0  0  0
   43.8072   -4.0757   27.6580 C   0  0  0  0  0  0  0  0  0  0  0  0
   43.5512   -4.1411   29.0294 C   0  0  0  0  0  0  0  0  0  0  0  0
   43.3980   -2.9451   29.6778 C   0  0  0  0  0  0  0  0  0  0  0  0
   43.4899   -1.7547   29.0659 C   0  0  0  0  0  0  0  0  0  0  0  0
   43.7478   -1.6361   27.7058 C   0  0  0  0  0  0  0  0  0  0  0  0
   43.1516   -2.6963   30.9132 N   0  0  0  0  0  0  0  0  0  0  0  0
   43.3065   -0.7414   29.8878 N   0  0  0  0  0  0  0  0  0  0  0  0
   43.1000   -1.4078   31.0128 C   0  0  0  0  0  0  0  0  0  0  0  0
   43.0273   -3.3523   31.6367 H   0  0  0  0  0  0  0  0  0  0  0  0
   42.8078   -0.7671   32.2413 C   0  0  0  0  0  0  0  0  0  0  0  0
   41.5299   -0.8494   32.8321 C   0  0  0  0  0  0  0  0  0  0  0  0
   41.2138   -0.2245   34.0467 C   0  0  0  0  0  0  0  0  0  0  0  0
   42.2273    0.5085   34.6932 C   0  0  0  0  0  0  0  0  0  0  0  0
   43.5168    0.6250   34.1543 C   0  0  0  0  0  0  0  0  0  0  0  0
   43.7861   -0.0130   32.9339 C   0  0  0  0  0  0  0  0  0  0  0  0
   45.0455    0.1196   32.3980 O   0  0  0  0  0  0  0  0  0  0  0  0
   44.9225    1.6535   35.0948 Br  0  0  0  0  0  0  0  0  0  0  0  0
   39.7320   -0.3584   34.5753 C   0  0  0  0  0  0  0  0  0  0  0  0
   39.7789   -1.5788   35.5779 C   0  0  0  0  0  0  0  0  0  0  0  0
   39.7229   -2.7038   35.1153 O   0  0  0  0  0  0  0  0  0  0  0  0
   39.8496   -1.3854   36.7770 O   0  0  0  0  0  0  0  0  0  0  0  0
   38.6071   -0.4750   33.3932 C   0  0  0  0  0  0  0  0  0  0  0  0
   38.2955    0.8390   32.5420 C   0  0  0  0  0  0  0  0  0  0  0  0
   38.7837    1.0325   31.4442 O   0  0  0  0  0  0  0  0  0  0  0  0
   37.5353    1.6758   33.0072 O   0  0  0  0  0  0  0  0  0  0  0  0
   44.1621   -2.8162   25.5813 C   0  0  0  0  0  0  0  0  0  0  0  0
   44.1694   -1.6687   24.9515 N   0  0  0  0  0  0  0  0  0  0  0  0
   44.3873   -3.9520   24.9539 N   0  0  0  0  0  0  0  0  0  0  0  0
   43.9978   -0.8348   25.4458 H   0  0  0  0  0  0  0  0  0  0  0  0
   44.3463   -1.6396   23.9834 H   0  0  0  0  0  0  0  0  0  0  0  0
   44.3758   -4.8007   25.4528 H   0  0  0  0  0  0  0  0  0  0  0  0
   44.5670   -3.9525   23.9859 H   0  0  0  0  0  0  0  0  0  0  0  0
  1  2  2  0  0  0
  1  6  1  0  0  0
  1 27  1  0  0  0
  2  3  1  0  0  0
  3  4  2  0  0  0
  4  5  1  0  0  0
  4  7  1  0  0  0
  5  6  2  0  0  0
  5  8  1  0  0  0
 27 28  1  0  0  0
 27 29  2  0  0  0
  7  9  1  0  0  0
  8  9  2  0  0  0
  9 11  1  0  0  0
 11 12  2  0  0  0
 11 16  1  0  0  0
 12 13  1  0  0  0
 13 19  1  0  0  0
 13 14  2  0  0  0
 19 20  1  0  0  0
 19 23  1  0  0  0
 20 21  2  0  0  0
 20 22  1  0  0  0
 23 24  1  0  0  0
 24 25  2  0  0  0
 24 26  1  0  0  0
 14 15  1  0  0  0
 15 16  2  0  0  0
 15 18  1  0  0  0
 16 17  1  0  0  0
 28 30  1  0  0  0
 28 31  1  0  0  0
 29 32  1  0  0  0
 29 33  1  0  0  0
  7 10  1  0  0  0
M  CHG 1  17  -1
M  CHG 1  22  -1
M  CHG 1  26  -1
M  CHG 1  29   1
M  END
> <minimizedAffinity>
-7.75785

$$$$
1O2W_847_A_246


 33 35  0  0  0  0  0  0  0  0999 V2000
   44.0977   -2.8411   26.1808 C   0  0  0  0  0  0  0  0  0  0  0  0
   44.6863   -1.5442   26.3090 C   0  0  0  0  0  0  0  0  0  0  0  0
   44.4340   -0.7102   27.4003 C   0  0  0  0  0  0  0  0  0  0  0  0
   43.5902   -1.2017   28.3599 C   0  0  0  0  0  0  0  0  0  0  0  0
   43.0115   -2.4099   28.2876 C   0  0  0  0  0  0  0  0  0  0  0  0
   43.2261   -3.2743   27.2212 C   0  0  0  0  0  0  0  0  0  0  0  0
   43.1867   -0.6749   29.4592 N   0  0  0  0  0  0  0  0  0  0  0  0
   42.2404   -2.6707   29.3237 N   0  0  0  0  0  0  0  0  0  0  0  0
   42.4041   -1.5478   30.0055 C   0  0  0  0  0  0  0  0  0  0  0  0
   43.4245    0.2122   29.8138 H   0  0  0  0  0  0  0  0  0  0  0  0
   41.7971   -1.3191   31.2641 C   0  0  0  0  0  0  0  0  0  0  0  0
   40.4350   -1.6055   31.4907 C   0  0  0  0  0  0  0  0  0  0  0  0
   39.8092   -1.3881   32.7264 C   0  0  0  0  0  0  0  0  0  0  0  0
   40.5886   -0.8653   33.7760 C   0  0  0  0  0  0  0  0  0  0  0  0
   41.9477   -0.5619   33.6103 C   0  0  0  0  0  0  0  0  0  0  0  0
   42.5304   -0.7911   32.3544 C   0  0  0  0  0  0  0  0  0  0  0  0
   43.8581   -0.4738   32.1892 O   0  0  0  0  0  0  0  0  0  0  0  0
   43.0182    0.1611   35.1102 Br  0  0  0  0  0  0  0  0  0  0  0  0
   38.2669   -1.7091   32.8327 C   0  0  0  0  0  0  0  0  0  0  0  0
   37.5742   -0.6305   31.9087 C   0  0  0  0  0  0  0  0  0  0  0  0
   36.8764   -1.0238   30.9916 O   0  0  0  0  0  0  0  0  0  0  0  0
   37.7570    0.5558   32.1073 O   0  0  0  0  0  0  0  0  0  0  0  0
   37.7006   -1.7750   34.3661 C   0  0  0  0  0  0  0  0  0  0  0  0
   37.9439   -3.1248   35.1829 C   0  0  0  0  0  0  0  0  0  0  0  0
   38.2351   -4.1717   34.6351 O   0  0  0  0  0  0  0  0  0  0  0  0
   37.8398   -3.1033   36.4008 O   0  0  0  0  0  0  0  0  0  0  0  0
   44.3849   -3.6459   25.0772 C   0  0  0  0  0  0  0  0  0  0  0  0
   44.6462   -3.0792   23.9266 N   0  0  0  0  0  0  0  0  0  0  0  0
   44.3907   -4.9550   25.2217 N   0  0  0  0  0  0  0  0  0  0  0  0
   44.6348   -2.0980   23.8473 H   0  0  0  0  0  0  0  0  0  0  0  0
   44.8542   -3.6342   23.1405 H   0  0  0  0  0  0  0  0  0  0  0  0
   44.1905   -5.3543   26.0990 H   0  0  0  0  0  0  0  0  0  0  0  0
   44.5954   -5.5342   24.4524 H   0  0  0  0  0  0  0  0  0  0  0  0
  1  2  2  0  0  0
  1  6  1  0  0  0
  1 27  1  0  0  0
  2  3  1  0  0  0
  3  4  2  0  0  0
  4  5  1  0  0  0
  4  7  1  0  0  0
  5  6  2  0  0  0
  5  8  1  0  0  0
 27 28  1  0  0  0
 27 29  2  0  0  0
  7  9  1  0  0  0
  8  9  2  0  0  0
  9 11  1  0  0  0
 11 12  2  0  0  0
 11 16  1  0  0  0
 12 13  1  0  0  0
 13 19  1  0  0  0
 13 14  2  0  0  0
 19 20  1  0  0  0
 19 23  1  0  0  0
 20 21  2  0  0  0
 20 22  1  0  0  0
 23 24  1  0  0  0
 24 25  2  0  0  0
 24 26  1  0  0  0
 14 15  1  0  0  0
 15 16  2  0  0  0
 15 18  1  0  0  0
 16 17  1  0  0  0
 28 30  1  0  0  0
 28 31  1  0  0  0
 29 32  1  0  0  0
 29 33  1  0  0  0
  7 10  1  0  0  0
M  CHG 1  17  -1
M  CHG 1  22  -1
M  CHG 1  26  -1
M  CHG 1  29   1
M  END
> <minimizedAffinity>
-7.74289

$$$$
1O2W_847_A_246


 33 35  0  0  0  0  0  0  0  0999 V2000
   44.6022    1.0657   35.7726 C   0  0  0  0  0  0  0  0  0  0  0  0
   43.8037    0.1948   36.5779 C   0  0  0  0  0  0  0  0  0  0  0  0
   42.8440   -0.6611   36.0331 C   0  0  0  0  0  0  0  0  0  0  0  0
   42.7060   -0.6328   34.6714 C   0  0  0  0  0  0  0  0  0  0  0  0
   43.4286    0.1653   33.8709 C   0  0  0  0  0  0  0  0  0  0  0  0
   44.3912    1.0376   34.3638 C   0  0  0  0  0  0  0  0  0  0  0  0
   41.9249   -1.3015   33.9022 N   0  0  0  0  0  0  0  0  0  0  0  0
   43.1255    0.0219   32.5967 N   0  0  0  0  0  0  0  0  0  0  0  0
   42.1874   -0.9066   32.6989 C   0  0  0  0  0  0  0  0  0  0  0  0
   41.2617   -1.9768   34.1731 H   0  0  0  0  0  0  0  0  0  0  0  0
   41.5326   -1.4627   31.5733 C   0  0  0  0  0  0  0  0  0  0  0  0
   42.2501   -2.1069   30.5443 C   0  0  0  0  0  0  0  0  0  0  0  0
   41.6270   -2.6651   29.4193 C   0  0  0  0  0  0  0  0  0  0  0  0
   40.2247   -2.5740   29.3304 C   0  0  0  0  0  0  0  0  0  0  0  0
   39.4582   -1.9461   30.3228 C   0  0  0  0  0  0  0  0  0  0  0  0
   40.1254   -1.3970   31.4285 C   0  0  0  0  0  0  0  0  0  0  0  0
   39.3730   -0.7644   32.3900 O   0  0  0  0  0  0  0  0  0  0  0  0
   37.4869   -1.8455   30.1732 Br  0  0  0  0  0  0  0  0  0  0  0  0
   42.5516   -3.3178   28.3183 C   0  0  0  0  0  0  0  0  0  0  0  0
   43.1453   -4.6063   29.0142 C   0  0  0  0  0  0  0  0  0  0  0  0
   42.4436   -5.5996   29.0764 O   0  0  0  0  0  0  0  0  0  0  0  0
   44.2659   -4.5868   29.4874 O   0  0  0  0  0  0  0  0  0  0  0  0
   43.6627   -2.2972   27.6857 C   0  0  0  0  0  0  0  0  0  0  0  0
   44.2022   -2.6155   26.2174 C   0  0  0  0  0  0  0  0  0  0  0  0
   44.8707   -1.8196   25.5845 O   0  0  0  0  0  0  0  0  0  0  0  0
   43.9393   -3.6986   25.7151 O   0  0  0  0  0  0  0  0  0  0  0  0
   45.5571    1.8985   36.3581 C   0  0  0  0  0  0  0  0  0  0  0  0
   45.3327    3.1871   36.4090 N   0  0  0  0  0  0  0  0  0  0  0  0
   46.6576    1.3672   36.8491 N   0  0  0  0  0  0  0  0  0  0  0  0
   44.5011    3.5572   36.0340 H   0  0  0  0  0  0  0  0  0  0  0  0
   45.9956    3.7862   36.8224 H   0  0  0  0  0  0  0  0  0  0  0  0
   46.8002    0.3945   36.7971 H   0  0  0  0  0  0  0  0  0  0  0  0
   47.3375    1.9428   37.2682 H   0  0  0  0  0  0  0  0  0  0  0  0
  1  2  2  0  0  0
  1  6  1  0  0  0
  1 27  1  0  0  0
  2  3  1  0  0  0
  3  4  2  0  0  0
  4  5  1  0  0  0
  4  7  1  0  0  0
  5  6  2  0  0  0
  5  8  1  0  0  0
 27 28  1  0  0  0
 27 29  2  0  0  0
  7  9  1  0  0  0
  8  9  2  0  0  0
  9 11  1  0  0  0
 11 12  2  0  0  0
 11 16  1  0  0  0
 12 13  1  0  0  0
 13 19  1  0  0  0
 13 14  2  0  0  0
 19 20  1  0  0  0
 19 23  1  0  0  0
 20 21  2  0  0  0
 20 22  1  0  0  0
 23 24  1  0  0  0
 24 25  2  0  0  0
 24 26  1  0  0  0
 14 15  1  0  0  0
 15 16  2  0  0  0
 15 18  1  0  0  0
 16 17  1  0  0  0
 28 30  1  0  0  0
 28 31  1  0  0  0
 29 32  1  0  0  0
 29 33  1  0  0  0
  7 10  1  0  0  0
M  CHG 1  17  -1
M  CHG 1  22  -1
M  CHG 1  26  -1
M  CHG 1  29   1
M  END
> <minimizedAffinity>
-7.57872

$$$$
1O2W_847_A_246


 33 35  0  0  0  0  0  0  0  0999 V2000
   43.9360   -2.7597   26.8663 C   0  0  0  0  0  0  0  0  0  0  0  0
   43.8637   -4.0084   27.5592 C   0  0  0  0  0  0  0  0  0  0  0  0
   43.6068   -4.0926   28.9294 C   0  0  0  0  0  0  0  0  0  0  0  0
   43.4173   -2.9069   29.5871 C   0  0  0  0  0  0  0  0  0  0  0  0
   43.4755   -1.7093   28.9851 C   0  0  0  0  0  0  0  0  0  0  0  0
   43.7327   -1.5721   27.6266 C   0  0  0  0  0  0  0  0  0  0  0  0
   43.1612   -2.6755   30.8239 N   0  0  0  0  0  0  0  0  0  0  0  0
   43.2609   -0.7086   29.8148 N   0  0  0  0  0  0  0  0  0  0  0  0
   43.0717   -1.3899   30.9339 C   0  0  0  0  0  0  0  0  0  0  0  0
   43.0546   -3.3408   31.5418 H   0  0  0  0  0  0  0  0  0  0  0  0
   42.7582   -0.7682   32.1669 C   0  0  0  0  0  0  0  0  0  0  0  0
   41.4645   -0.8409   32.7235 C   0  0  0  0  0  0  0  0  0  0  0  0
   41.1273   -0.2343   33.9417 C   0  0  0  0  0  0  0  0  0  0  0  0
   42.1354    0.4697   34.6277 C   0  0  0  0  0  0  0  0  0  0  0  0
   43.4399    0.5755   34.1240 C   0  0  0  0  0  0  0  0  0  0  0  0
   43.7302   -0.0434   32.8985 C   0  0  0  0  0  0  0  0  0  0  0  0
   45.0048    0.0790   32.3973 O   0  0  0  0  0  0  0  0  0  0  0  0
   44.8371    1.5629   35.1195 Br  0  0  0  0  0  0  0  0  0  0  0  0
   39.6305   -0.3542   34.4299 C   0  0  0  0  0  0  0  0  0  0  0  0
   38.9505    0.9899   33.9525 C   0  0  0  0  0  0  0  0  0  0  0  0
   38.9311    1.9296   34.7267 O   0  0  0  0  0  0  0  0  0  0  0  0
   38.4472    1.0640   32.8473 O   0  0  0  0  0  0  0  0  0  0  0  0
   39.4704   -0.6840   36.0243 C   0  0  0  0  0  0  0  0  0  0  0  0
   39.7312   -2.1871   36.4943 C   0  0  0  0  0  0  0  0  0  0  0  0
   40.2982   -2.9994   35.7875 O   0  0  0  0  0  0  0  0  0  0  0  0
   39.3535   -2.5310   37.6050 O   0  0  0  0  0  0  0  0  0  0  0  0
   44.1859   -2.7221   25.4936 C   0  0  0  0  0  0  0  0  0  0  0  0
   44.2260   -1.5639   24.8852 N   0  0  0  0  0  0  0  0  0  0  0  0
   44.3799   -3.8520   24.8454 N   0  0  0  0  0  0  0  0  0  0  0  0
   44.0773   -0.7347   25.3947 H   0  0  0  0  0  0  0  0  0  0  0  0
   44.4049   -1.5218   23.9180 H   0  0  0  0  0  0  0  0  0  0  0  0
   44.3440   -4.7091   25.3285 H   0  0  0  0  0  0  0  0  0  0  0  0
   44.5608   -3.8396   23.8778 H   0  0  0  0  0  0  0  0  0  0  0  0
  1  2  2  0  0  0
  1  6  1  0  0  0
  1 27  1  0  0  0
  2  3  1  0  0  0
  3  4  2  0  0  0
  4  5  1  0  0  0
  4  7  1  0  0  0
  5  6  2  0  0  0
  5  8  1  0  0  0
 27 28  1  0  0  0
 27 29  2  0  0  0
  7  9  1  0  0  0
  8  9  2  0  0  0
  9 11  1  0  0  0
 11 12  2  0  0  0
 11 16  1  0  0  0
 12 13  1  0  0  0
 13 19  1  0  0  0
 13 14  2  0  0  0
 19 20  1  0  0  0
 19 23  1  0  0  0
 20 21  2  0  0  0
 20 22  1  0  0  0
 23 24  1  0  0  0
 24 25  2  0  0  0
 24 26  1  0  0  0
 14 15  1  0  0  0
 15 16  2  0  0  0
 15 18  1  0  0  0
 16 17  1  0  0  0
 28 30  1  0  0  0
 28 31  1  0  0  0
 29 32  1  0  0  0
 29 33  1  0  0  0
  7 10  1  0  0  0
M  CHG 1  17  -1
M  CHG 1  22  -1
M  CHG 1  26  -1
M  CHG 1  29   1
M  END
> <minimizedAffinity>
-7.49276

$$$$
1O2W_847_A_246


 33 35  0  0  0  0  0  0  0  0999 V2000
   44.0663   -2.8590   26.2708 C   0  0  0  0  0  0  0  0  0  0  0  0
   44.5969   -1.5573   26.5326 C   0  0  0  0  0  0  0  0  0  0  0  0
   44.5085   -0.9491   27.7867 C   0  0  0  0  0  0  0  0  0  0  0  0
   43.8876   -1.6706   28.7707 C   0  0  0  0  0  0  0  0  0  0  0  0
   43.3723   -2.8942   28.5777 C   0  0  0  0  0  0  0  0  0  0  0  0
   43.4300   -3.5396   27.3487 C   0  0  0  0  0  0  0  0  0  0  0  0
   43.6692   -1.3785   30.0019 N   0  0  0  0  0  0  0  0  0  0  0  0
   42.8244   -3.3961   29.6658 N   0  0  0  0  0  0  0  0  0  0  0  0
   43.0516   -2.3975   30.5048 C   0  0  0  0  0  0  0  0  0  0  0  0
   43.9205   -0.5484   30.4678 H   0  0  0  0  0  0  0  0  0  0  0  0
   42.6796   -2.4432   31.8703 C   0  0  0  0  0  0  0  0  0  0  0  0
   42.7529   -1.3015   32.6948 C   0  0  0  0  0  0  0  0  0  0  0  0
   42.3916   -1.3193   34.0494 C   0  0  0  0  0  0  0  0  0  0  0  0
   41.9343   -2.5351   34.5928 C   0  0  0  0  0  0  0  0  0  0  0  0
   41.8393   -3.7026   33.8217 C   0  0  0  0  0  0  0  0  0  0  0  0
   42.2168   -3.6388   32.4717 C   0  0  0  0  0  0  0  0  0  0  0  0
   42.1416   -4.7899   31.7234 O   0  0  0  0  0  0  0  0  0  0  0  0
   41.1810   -5.3931   34.6137 Br  0  0  0  0  0  0  0  0  0  0  0  0
   42.5644    0.0179   34.8711 C   0  0  0  0  0  0  0  0  0  0  0  0
   41.0962    0.5830   35.0194 C   0  0  0  0  0  0  0  0  0  0  0  0
   40.8078    1.1682   36.0475 O   0  0  0  0  0  0  0  0  0  0  0  0
   40.2814    0.4143   34.1318 O   0  0  0  0  0  0  0  0  0  0  0  0
   43.6481    1.0626   34.2303 C   0  0  0  0  0  0  0  0  0  0  0  0
   44.1653    2.2503   35.1631 C   0  0  0  0  0  0  0  0  0  0  0  0
   45.2035    2.1758   35.7935 O   0  0  0  0  0  0  0  0  0  0  0  0
   43.4977    3.2715   35.2410 O   0  0  0  0  0  0  0  0  0  0  0  0
   44.1850   -3.4334   25.0043 C   0  0  0  0  0  0  0  0  0  0  0  0
   44.1489   -4.7369   24.8903 N   0  0  0  0  0  0  0  0  0  0  0  0
   44.3254   -2.6500   23.9550 N   0  0  0  0  0  0  0  0  0  0  0  0
   44.0430   -5.2984   25.6919 H   0  0  0  0  0  0  0  0  0  0  0  0
   44.2277   -5.1557   24.0028 H   0  0  0  0  0  0  0  0  0  0  0  0
   44.3494   -1.6725   24.0701 H   0  0  0  0  0  0  0  0  0  0  0  0
   44.4065   -3.0418   23.0554 H   0  0  0  0  0  0  0  0  0  0  0  0
  1  2  2  0  0  0
  1  6  1  0  0  0
  1 27  1  0  0  0
  2  3  1  0  0  0
  3  4  2  0  0  0
  4  5  1  0  0  0
  4  7  1  0  0  0
  5  6  2  0  0  0
  5  8  1  0  0  0
 27 28  1  0  0  0
 27 29  2  0  0  0
  7  9  1  0  0  0
  8  9  2  0  0  0
  9 11  1  0  0  0
 11 12  2  0  0  0
 11 16  1  0  0  0
 12 13  1  0  0  0
 13 19  1  0  0  0
 13 14  2  0  0  0
 19 20  1  0  0  0
 19 23  1  0  0  0
 20 21  2  0  0  0
 20 22  1  0  0  0
 23 24  1  0  0  0
 24 25  2  0  0  0
 24 26  1  0  0  0
 14 15  1  0  0  0
 15 16  2  0  0  0
 15 18  1  0  0  0
 16 17  1  0  0  0
 28 30  1  0  0  0
 28 31  1  0  0  0
 29 32  1  0  0  0
 29 33  1  0  0  0
  7 10  1  0  0  0
M  CHG 1  17  -1
M  CHG 1  22  -1
M  CHG 1  26  -1
M  CHG 1  29   1
M  END
> <minimizedAffinity>
-7.43283

$$$$
1O2W_847_A_246


 33 35  0  0  0  0  0  0  0  0999 V2000
   43.5700   -2.5962   27.5993 C   0  0  0  0  0  0  0  0  0  0  0  0
   42.7019   -3.6891   27.9100 C   0  0  0  0  0  0  0  0  0  0  0  0
   41.8861   -3.7007   29.0435 C   0  0  0  0  0  0  0  0  0  0  0  0
   41.9514   -2.5977   29.8518 C   0  0  0  0  0  0  0  0  0  0  0  0
   42.7488   -1.5470   29.6067 C   0  0  0  0  0  0  0  0  0  0  0  0
   43.5821   -1.4894   28.4964 C   0  0  0  0  0  0  0  0  0  0  0  0
   41.3233   -2.3267   30.9385 N   0  0  0  0  0  0  0  0  0  0  0  0
   42.6449   -0.6020   30.5189 N   0  0  0  0  0  0  0  0  0  0  0  0
   41.7402   -1.1595   31.3083 C   0  0  0  0  0  0  0  0  0  0  0  0
   40.6600   -2.8918   31.3966 H   0  0  0  0  0  0  0  0  0  0  0  0
   41.2299   -0.5181   32.4629 C   0  0  0  0  0  0  0  0  0  0  0  0
   42.0542   -0.2185   33.5672 C   0  0  0  0  0  0  0  0  0  0  0  0
   41.5748    0.4151   34.7223 C   0  0  0  0  0  0  0  0  0  0  0  0
   40.2113    0.7642   34.7639 C   0  0  0  0  0  0  0  0  0  0  0  0
   39.3435    0.4925   33.6962 C   0  0  0  0  0  0  0  0  0  0  0  0
   39.8666   -0.1479   32.5624 C   0  0  0  0  0  0  0  0  0  0  0  0
   39.0091   -0.4310   31.5255 O   0  0  0  0  0  0  0  0  0  0  0  0
   37.4341    1.0072   33.7819 Br  0  0  0  0  0  0  0  0  0  0  0  0
   42.5942    0.6516   35.9047 C   0  0  0  0  0  0  0  0  0  0  0  0
   42.8626    2.2087   35.8894 C   0  0  0  0  0  0  0  0  0  0  0  0
   43.3941    2.6896   34.9051 O   0  0  0  0  0  0  0  0  0  0  0  0
   42.5593    2.8930   36.8486 O   0  0  0  0  0  0  0  0  0  0  0  0
   43.9344   -0.2838   35.8309 C   0  0  0  0  0  0  0  0  0  0  0  0
   45.2700    0.2913   36.4893 C   0  0  0  0  0  0  0  0  0  0  0  0
   45.4010    0.4110   37.6933 O   0  0  0  0  0  0  0  0  0  0  0  0
   46.1945    0.6163   35.7584 O   0  0  0  0  0  0  0  0  0  0  0  0
   44.3618   -2.6220   26.4502 C   0  0  0  0  0  0  0  0  0  0  0  0
   44.9528   -1.5214   26.0593 N   0  0  0  0  0  0  0  0  0  0  0  0
   44.4988   -3.7536   25.7905 N   0  0  0  0  0  0  0  0  0  0  0  0
   44.8328   -0.6895   26.5718 H   0  0  0  0  0  0  0  0  0  0  0  0
   45.5173   -1.5256   25.2527 H   0  0  0  0  0  0  0  0  0  0  0  0
   44.0427   -4.5665   26.1074 H   0  0  0  0  0  0  0  0  0  0  0  0
   45.0575   -3.7867   24.9805 H   0  0  0  0  0  0  0  0  0  0  0  0
  1  2  2  0  0  0
  1  6  1  0  0  0
  1 27  1  0  0  0
  2  3  1  0  0  0
  3  4  2  0  0  0
  4  5  1  0  0  0
  4  7  1  0  0  0
  5  6  2  0  0  0
  5  8  1  0  0  0
 27 28  1  0  0  0
 27 29  2  0  0  0
  7  9  1  0  0  0
  8  9  2  0  0  0
  9 11  1  0  0  0
 11 12  2  0  0  0
 11 16  1  0  0  0
 12 13  1  0  0  0
 13 19  1  0  0  0
 13 14  2  0  0  0
 19 20  1  0  0  0
 19 23  1  0  0  0
 20 21  2  0  0  0
 20 22  1  0  0  0
 23 24  1  0  0  0
 24 25  2  0  0  0
 24 26  1  0  0  0
 14 15  1  0  0  0
 15 16  2  0  0  0
 15 18  1  0  0  0
 16 17  1  0  0  0
 28 30  1  0  0  0
 28 31  1  0  0  0
 29 32  1  0  0  0
 29 33  1  0  0  0
  7 10  1  0  0  0
M  CHG 1  17  -1
M  CHG 1  22  -1
M  CHG 1  26  -1
M  CHG 1  29   1
M  END
> <minimizedAffinity>
-7.33724

$$$$
