6CN5_F7M_A_601


 36 40  0  0  0  0  0  0  0  0999 V2000
   -6.4912   31.8298   -1.7944 C   0  0  0  0  0  0  0  0  0  0  0  0
   -7.7457   29.9824   -2.2973 C   0  0  0  0  0  0  0  0  0  0  0  0
   -6.7883   30.9915   -2.8290 C   0  0  0  0  0  0  0  0  0  0  0  0
   -8.4564   28.8922   -2.8058 C   0  0  0  0  0  0  0  0  0  0  0  0
   -7.9287   30.2865   -0.9386 C   0  0  0  0  0  0  0  0  0  0  0  0
   -7.1376   31.3827   -0.6636 N   0  0  0  0  0  0  0  0  0  0  0  0
   -8.7824   29.5128   -0.1190 C   0  0  0  0  0  0  0  0  0  0  0  0
   -9.2796   28.1438   -1.9841 C   0  0  0  0  0  0  0  0  0  0  0  0
   -9.4378   28.4425   -0.6198 C   0  0  0  0  0  0  0  0  0  0  0  0
   -7.0913   31.9648    0.6926 C   0  0  0  0  0  0  0  0  0  0  0  0
   -6.3365   31.1315   -4.2800 C   0  0  0  0  0  0  0  0  0  0  0  0
   -6.6307   34.0557   -7.1545 C   0  0  0  0  0  0  0  0  0  0  0  0
   -7.7581   34.0761   -7.6012 O   0  0  0  0  0  0  0  0  0  0  0  0
   -7.6194   31.4427   -5.1249 C   0  0  0  0  0  0  0  0  0  0  0  0
   -5.2683   32.2516   -4.4697 C   0  0  0  0  0  0  0  0  0  0  0  0
   -7.2684   31.7409   -6.6240 C   0  0  0  0  0  0  0  0  0  0  0  0
   -4.9843   32.5614   -5.9512 C   0  0  0  0  0  0  0  0  0  0  0  0
   -6.2604   32.8529   -6.6179 N   0  0  0  0  0  0  0  0  0  0  0  0
   -5.9500   35.4381   -7.3184 C   0  0  0  0  0  0  0  0  0  0  0  0
   -5.3918   36.1085   -6.0899 C   0  0  0  0  0  0  0  0  0  0  0  0
   -4.8094   37.5124   -6.3963 C   0  0  0  0  0  0  0  0  0  0  0  0
   -4.2683   37.8340   -7.8208 C   0  0  0  0  0  0  0  0  0  0  0  0
   -4.6512   36.8902   -8.9639 C   0  0  0  0  0  0  0  0  0  0  0  0
   -4.9971   35.4832   -8.5282 C   0  0  0  0  0  0  0  0  0  0  0  0
  -11.2322   27.1147   -2.9333 C   0  0  0  0  0  0  0  0  0  0  0  0
  -11.9471   28.0980   -2.7989 O   0  0  0  0  0  0  0  0  0  0  0  0
   -9.9353   27.0513   -2.5364 N   0  0  0  0  0  0  0  0  0  0  0  0
   -9.4446   26.2046   -2.6434 H   0  0  0  0  0  0  0  0  0  0  0  0
  -11.8089   25.9420   -3.5443 C   0  0  0  0  0  0  0  0  0  0  0  0
  -11.1605   25.3321   -4.5335 N   0  0  0  0  0  0  0  0  0  0  0  0
  -11.6986   24.2668   -5.1581 C   0  0  0  0  0  0  0  0  0  0  0  0
  -12.9436   23.7513   -4.7844 C   0  0  0  0  0  0  0  0  0  0  0  0
  -13.6383   24.3915   -3.7098 C   0  0  0  0  0  0  0  0  0  0  0  0
  -13.0614   25.5020   -3.0668 C   0  0  0  0  0  0  0  0  0  0  0  0
  -14.8769   23.9427   -3.1521 C   0  0  0  0  0  0  0  0  0  0  0  0
  -15.8571   23.6039   -2.7001 N   0  0  0  0  0  0  0  0  0  0  0  0
 23 24  1  0  0  0
 23 22  1  0  0  0
 24 19  1  0  0  0
 22 21  1  0  0  0
 13 12  2  0  0  0
 19 12  1  0  0  0
 19 20  1  0  0  0
 12 18  1  0  0  0
 16 18  1  0  0  0
 16 14  1  0  0  0
 18 17  1  0  0  0
 21 20  1  0  0  0
 17 15  1  0  0  0
 14 11  1  0  0  0
 31 32  2  0  0  0
 31 30  1  0  0  0
 32 33  1  0  0  0
 15 11  1  0  0  0
 11  3  1  0  0  0
 30 29  2  0  0  0
 33 35  1  0  0  0
 33 34  2  0  0  0
 29 34  1  0  0  0
 29 25  1  0  0  0
 35 36  3  0  0  0
  3  2  1  0  0  0
  3  1  2  0  0  0
  4  2  2  0  0  0
  4  8  1  0  0  0
 25 27  1  0  0  0
 25 26  2  0  0  0
 27  8  1  0  0  0
  2  5  1  0  0  0
  8  9  2  0  0  0
  1  6  1  0  0  0
  5  6  1  0  0  0
  5  7  2  0  0  0
  6 10  1  0  0  0
  9  7  1  0  0  0
 27 28  1  0  0  0
M  END
> <minimizedAffinity>
-13.89333

$$$$
