5UC4_83S_A_301


 24 26  0  0  0  0  0  0  0  0999 V2000
   32.7549   82.1085   -3.7435 C   0  0  0  0  0  0  0  0  0  0  0  0
   33.3128   83.3381   -4.0197 C   0  0  0  0  0  0  0  0  0  0  0  0
   34.7256   83.5242   -3.8800 C   0  0  0  0  0  0  0  0  0  0  0  0
   35.5584   82.4819   -3.4294 C   0  0  0  0  0  0  0  0  0  0  0  0
   36.9020   82.7066   -3.2519 O   0  0  0  0  0  0  0  0  0  0  0  0
   34.9857   81.2465   -3.1340 C   0  0  0  0  0  0  0  0  0  0  0  0
   33.5973   81.0462   -3.2737 C   0  0  0  0  0  0  0  0  0  0  0  0
   37.4573   82.0139   -2.9522 H   0  0  0  0  0  0  0  0  0  0  0  0
   35.4570   84.1624   -6.6074 C   0  0  0  0  0  0  0  0  0  0  0  0
   36.6211   86.0445   -7.4084 C   0  0  0  0  0  0  0  0  0  0  0  0
   37.1868   85.0194   -9.9385 C   0  0  0  0  0  0  0  0  0  0  0  0
   37.3229   86.8022   -8.2997 C   0  0  0  0  0  0  0  0  0  0  0  0
   37.6060   86.2796   -9.5866 C   0  0  0  0  0  0  0  0  0  0  0  0
   36.4690   84.2380   -9.0067 C   0  0  0  0  0  0  0  0  0  0  0  0
   35.3362   84.8587   -4.2110 C   0  0  0  0  0  0  0  0  0  0  0  0
   35.5583   85.7157   -3.3252 O   0  0  0  0  0  0  0  0  0  0  0  0
   35.5724   85.1344   -5.5384 N   0  0  0  0  0  0  0  0  0  0  0  0
   36.1760   86.3371   -6.0191 C   0  0  0  0  0  0  0  0  0  0  0  0
   36.1981   84.7394   -7.7604 C   0  0  0  0  0  0  0  0  0  0  0  0
   30.7606   82.3823   -5.2000 C   0  0  0  0  0  0  0  0  0  0  0  0
   31.2457   81.9718   -3.8697 C   0  0  0  0  0  0  0  0  0  0  0  0
   30.5307   82.8078   -2.6711 C   0  0  0  0  0  0  0  0  0  0  0  0
   33.0400   79.6709   -2.9339 C   0  0  0  0  0  0  0  0  0  0  0  0
   33.8221   78.7492   -2.5395 O   0  0  0  0  0  0  0  0  0  0  0  0
 22 21  1  0  0  0
 23  7  1  0  0  0
 23 24  2  0  0  0
  6  7  1  0  0  0
  6  4  2  0  0  0
  5  4  1  0  0  0
  7  1  2  0  0  0
  4  3  1  0  0  0
 16 15  2  0  0  0
  1 21  1  0  0  0
  1  2  1  0  0  0
  3  2  2  0  0  0
  3 15  1  0  0  0
 21 20  1  0  0  0
 15 17  1  0  0  0
 17 18  1  0  0  0
 17  9  1  0  0  0
 18 10  1  0  0  0
  9 19  1  0  0  0
 10 19  1  0  0  0
 10 12  2  0  0  0
 19 14  2  0  0  0
 12 13  1  0  0  0
 14 11  1  0  0  0
 13 11  2  0  0  0
  5  8  1  0  0  0
M  END
> <minimizedAffinity>
-10.05750

$$$$
5UC4_83S_A_301


 24 26  0  0  0  0  0  0  0  0999 V2000
   33.3341   82.1642   -3.6260 C   0  0  0  0  0  0  0  0  0  0  0  0
   32.6777   83.0071   -4.4968 C   0  0  0  0  0  0  0  0  0  0  0  0
   33.4212   83.7179   -5.4928 C   0  0  0  0  0  0  0  0  0  0  0  0
   34.8218   83.6015   -5.5801 C   0  0  0  0  0  0  0  0  0  0  0  0
   35.5138   84.3387   -6.5101 O   0  0  0  0  0  0  0  0  0  0  0  0
   35.4817   82.7621   -4.6849 C   0  0  0  0  0  0  0  0  0  0  0  0
   34.7623   82.0503   -3.7035 C   0  0  0  0  0  0  0  0  0  0  0  0
   36.4458   84.2622   -6.5693 H   0  0  0  0  0  0  0  0  0  0  0  0
   30.7812   83.0125   -6.4489 C   0  0  0  0  0  0  0  0  0  0  0  0
   29.4974   84.0685   -8.1151 C   0  0  0  0  0  0  0  0  0  0  0  0
   27.6417   82.0136   -8.4410 C   0  0  0  0  0  0  0  0  0  0  0  0
   28.4910   84.2090   -9.0253 C   0  0  0  0  0  0  0  0  0  0  0  0
   27.5470   83.1639   -9.1863 C   0  0  0  0  0  0  0  0  0  0  0  0
   28.6918   81.8723   -7.5076 C   0  0  0  0  0  0  0  0  0  0  0  0
   32.6987   84.6141   -6.4615 C   0  0  0  0  0  0  0  0  0  0  0  0
   33.2183   85.6700   -6.8900 O   0  0  0  0  0  0  0  0  0  0  0  0
   31.4107   84.2694   -6.8020 N   0  0  0  0  0  0  0  0  0  0  0  0
   30.5998   84.9911   -7.7313 C   0  0  0  0  0  0  0  0  0  0  0  0
   29.6084   82.8793   -7.3535 C   0  0  0  0  0  0  0  0  0  0  0  0
   32.1798   80.0741   -2.9382 C   0  0  0  0  0  0  0  0  0  0  0  0
   32.5058   81.4617   -2.5616 C   0  0  0  0  0  0  0  0  0  0  0  0
   31.1736   82.3427   -2.2526 C   0  0  0  0  0  0  0  0  0  0  0  0
   35.5479   81.1510   -2.7592 C   0  0  0  0  0  0  0  0  0  0  0  0
   35.6592   79.9097   -3.0111 O   0  0  0  0  0  0  0  0  0  0  0  0
 22 21  1  0  0  0
 23  7  1  0  0  0
 23 24  2  0  0  0
  6  7  1  0  0  0
  6  4  2  0  0  0
  5  4  1  0  0  0
  7  1  2  0  0  0
  4  3  1  0  0  0
 16 15  2  0  0  0
  1 21  1  0  0  0
  1  2  1  0  0  0
  3  2  2  0  0  0
  3 15  1  0  0  0
 21 20  1  0  0  0
 15 17  1  0  0  0
 17 18  1  0  0  0
 17  9  1  0  0  0
 18 10  1  0  0  0
  9 19  1  0  0  0
 10 19  1  0  0  0
 10 12  2  0  0  0
 19 14  2  0  0  0
 12 13  1  0  0  0
 14 11  1  0  0  0
 13 11  2  0  0  0
  5  8  1  0  0  0
M  END
> <minimizedAffinity>
-8.34456

$$$$
5UC4_83S_A_301


 24 26  0  0  0  0  0  0  0  0999 V2000
   34.8441   81.1663   -2.9247 C   0  0  0  0  0  0  0  0  0  0  0  0
   35.4424   82.3650   -3.2487 C   0  0  0  0  0  0  0  0  0  0  0  0
   34.6755   83.3912   -3.8883 C   0  0  0  0  0  0  0  0  0  0  0  0
   33.3240   83.1885   -4.2280 C   0  0  0  0  0  0  0  0  0  0  0  0
   32.6295   84.1709   -4.8911 O   0  0  0  0  0  0  0  0  0  0  0  0
   32.7300   81.9677   -3.9146 C   0  0  0  0  0  0  0  0  0  0  0  0
   33.4704   80.9505   -3.2784 C   0  0  0  0  0  0  0  0  0  0  0  0
   31.7302   84.0373   -5.1178 H   0  0  0  0  0  0  0  0  0  0  0  0
   35.4263   84.0199   -6.6127 C   0  0  0  0  0  0  0  0  0  0  0  0
   36.6423   85.8725   -7.4053 C   0  0  0  0  0  0  0  0  0  0  0  0
   37.1816   84.8423   -9.9391 C   0  0  0  0  0  0  0  0  0  0  0  0
   37.3653   86.6142   -8.2932 C   0  0  0  0  0  0  0  0  0  0  0  0
   37.6350   86.0891   -9.5819 C   0  0  0  0  0  0  0  0  0  0  0  0
   36.4418   84.0773   -9.0110 C   0  0  0  0  0  0  0  0  0  0  0  0
   35.3228   84.7097   -4.2136 C   0  0  0  0  0  0  0  0  0  0  0  0
   35.5677   85.5567   -3.3242 O   0  0  0  0  0  0  0  0  0  0  0  0
   35.5675   84.9841   -5.5397 N   0  0  0  0  0  0  0  0  0  0  0  0
   36.2043   86.1716   -6.0152 C   0  0  0  0  0  0  0  0  0  0  0  0
   36.1839   84.5809   -7.7628 C   0  0  0  0  0  0  0  0  0  0  0  0
   35.0692   78.7671   -2.3193 C   0  0  0  0  0  0  0  0  0  0  0  0
   35.7100   80.0943   -2.2819 C   0  0  0  0  0  0  0  0  0  0  0  0
   36.0891   80.5501   -0.7670 C   0  0  0  0  0  0  0  0  0  0  0  0
   32.7572   79.6425   -2.9651 C   0  0  0  0  0  0  0  0  0  0  0  0
   31.9787   79.1225   -3.8255 O   0  0  0  0  0  0  0  0  0  0  0  0
 22 21  1  0  0  0
 23  7  1  0  0  0
 23 24  2  0  0  0
  6  7  1  0  0  0
  6  4  2  0  0  0
  5  4  1  0  0  0
  7  1  2  0  0  0
  4  3  1  0  0  0
 16 15  2  0  0  0
  1 21  1  0  0  0
  1  2  1  0  0  0
  3  2  2  0  0  0
  3 15  1  0  0  0
 21 20  1  0  0  0
 15 17  1  0  0  0
 17 18  1  0  0  0
 17  9  1  0  0  0
 18 10  1  0  0  0
  9 19  1  0  0  0
 10 19  1  0  0  0
 10 12  2  0  0  0
 19 14  2  0  0  0
 12 13  1  0  0  0
 14 11  1  0  0  0
 13 11  2  0  0  0
  5  8  1  0  0  0
M  END
> <minimizedAffinity>
-7.57910

$$$$
5UC4_83S_A_301


 24 26  0  0  0  0  0  0  0  0999 V2000
   31.6783   82.8416   -6.2958 C   0  0  0  0  0  0  0  0  0  0  0  0
   32.6802   83.1444   -7.1927 C   0  0  0  0  0  0  0  0  0  0  0  0
   34.0481   83.0946   -6.7724 C   0  0  0  0  0  0  0  0  0  0  0  0
   34.3931   82.7756   -5.4449 C   0  0  0  0  0  0  0  0  0  0  0  0
   35.7108   82.7901   -5.0571 O   0  0  0  0  0  0  0  0  0  0  0  0
   33.3747   82.4886   -4.5383 C   0  0  0  0  0  0  0  0  0  0  0  0
   32.0237   82.5266   -4.9393 C   0  0  0  0  0  0  0  0  0  0  0  0
   35.9417   82.5780   -4.1741 H   0  0  0  0  0  0  0  0  0  0  0  0
   35.2062   85.7443   -6.9104 C   0  0  0  0  0  0  0  0  0  0  0  0
   36.7497   86.5873   -8.4743 C   0  0  0  0  0  0  0  0  0  0  0  0
   36.4149   89.2805   -7.8361 C   0  0  0  0  0  0  0  0  0  0  0  0
   37.4671   87.5325   -9.1475 C   0  0  0  0  0  0  0  0  0  0  0  0
   37.2972   88.9007   -8.8184 C   0  0  0  0  0  0  0  0  0  0  0  0
   35.6694   88.2966   -7.1504 C   0  0  0  0  0  0  0  0  0  0  0  0
   35.1412   83.3961   -7.7611 C   0  0  0  0  0  0  0  0  0  0  0  0
   35.5657   82.5251   -8.5546 O   0  0  0  0  0  0  0  0  0  0  0  0
   35.7130   84.6467   -7.7099 N   0  0  0  0  0  0  0  0  0  0  0  0
   36.7360   85.1046   -8.5964 C   0  0  0  0  0  0  0  0  0  0  0  0
   35.8285   86.9735   -7.4701 C   0  0  0  0  0  0  0  0  0  0  0  0
   29.8779   81.8416   -7.6858 C   0  0  0  0  0  0  0  0  0  0  0  0
   30.2405   82.9464   -6.7794 C   0  0  0  0  0  0  0  0  0  0  0  0
   30.0117   84.4034   -7.4659 C   0  0  0  0  0  0  0  0  0  0  0  0
   30.9634   82.2013   -3.8964 C   0  0  0  0  0  0  0  0  0  0  0  0
   30.7431   83.0115   -2.9416 O   0  0  0  0  0  0  0  0  0  0  0  0
 22 21  1  0  0  0
 23  7  1  0  0  0
 23 24  2  0  0  0
  6  7  1  0  0  0
  6  4  2  0  0  0
  5  4  1  0  0  0
  7  1  2  0  0  0
  4  3  1  0  0  0
 16 15  2  0  0  0
  1 21  1  0  0  0
  1  2  1  0  0  0
  3  2  2  0  0  0
  3 15  1  0  0  0
 21 20  1  0  0  0
 15 17  1  0  0  0
 17 18  1  0  0  0
 17  9  1  0  0  0
 18 10  1  0  0  0
  9 19  1  0  0  0
 10 19  1  0  0  0
 10 12  2  0  0  0
 19 14  2  0  0  0
 12 13  1  0  0  0
 14 11  1  0  0  0
 13 11  2  0  0  0
  5  8  1  0  0  0
M  END
> <minimizedAffinity>
-7.48194

$$$$
5UC4_83S_A_301


 24 26  0  0  0  0  0  0  0  0999 V2000
   33.4109   82.3152   -4.3722 C   0  0  0  0  0  0  0  0  0  0  0  0
   34.3349   82.5221   -5.3738 C   0  0  0  0  0  0  0  0  0  0  0  0
   33.9117   83.0667   -6.6286 C   0  0  0  0  0  0  0  0  0  0  0  0
   32.5578   83.3643   -6.8762 C   0  0  0  0  0  0  0  0  0  0  0  0
   32.1738   83.8334   -8.1089 O   0  0  0  0  0  0  0  0  0  0  0  0
   31.6257   83.1354   -5.8661 C   0  0  0  0  0  0  0  0  0  0  0  0
   32.0285   82.6064   -4.6229 C   0  0  0  0  0  0  0  0  0  0  0  0
   31.2732   84.0318   -8.2749 H   0  0  0  0  0  0  0  0  0  0  0  0
   35.2127   85.6443   -6.8395 C   0  0  0  0  0  0  0  0  0  0  0  0
   36.6565   86.4212   -8.5280 C   0  0  0  0  0  0  0  0  0  0  0  0
   36.5468   89.1177   -7.8285 C   0  0  0  0  0  0  0  0  0  0  0  0
   37.3664   87.3336   -9.2524 C   0  0  0  0  0  0  0  0  0  0  0  0
   37.3113   88.7034   -8.8922 C   0  0  0  0  0  0  0  0  0  0  0  0
   35.8078   88.1681   -7.0895 C   0  0  0  0  0  0  0  0  0  0  0  0
   34.9269   83.3198   -7.7097 C   0  0  0  0  0  0  0  0  0  0  0  0
   35.2234   82.4393   -8.5495 O   0  0  0  0  0  0  0  0  0  0  0  0
   35.5766   84.5329   -7.6957 N   0  0  0  0  0  0  0  0  0  0  0  0
   36.5410   84.9444   -8.6666 C   0  0  0  0  0  0  0  0  0  0  0  0
   35.8558   86.8438   -7.4387 C   0  0  0  0  0  0  0  0  0  0  0  0
   35.3680   81.7895   -2.9345 C   0  0  0  0  0  0  0  0  0  0  0  0
   33.9029   81.6990   -3.0720 C   0  0  0  0  0  0  0  0  0  0  0  0
   33.3708   80.1650   -2.9720 C   0  0  0  0  0  0  0  0  0  0  0  0
   30.9569   82.3827   -3.5650 C   0  0  0  0  0  0  0  0  0  0  0  0
   30.7431   83.2711   -2.6808 O   0  0  0  0  0  0  0  0  0  0  0  0
 22 21  1  0  0  0
 23  7  1  0  0  0
 23 24  2  0  0  0
  6  7  1  0  0  0
  6  4  2  0  0  0
  5  4  1  0  0  0
  7  1  2  0  0  0
  4  3  1  0  0  0
 16 15  2  0  0  0
  1 21  1  0  0  0
  1  2  1  0  0  0
  3  2  2  0  0  0
  3 15  1  0  0  0
 21 20  1  0  0  0
 15 17  1  0  0  0
 17 18  1  0  0  0
 17  9  1  0  0  0
 18 10  1  0  0  0
  9 19  1  0  0  0
 10 19  1  0  0  0
 10 12  2  0  0  0
 19 14  2  0  0  0
 12 13  1  0  0  0
 14 11  1  0  0  0
 13 11  2  0  0  0
  5  8  1  0  0  0
M  END
> <minimizedAffinity>
-7.32047

$$$$
5UC4_83S_A_301


 24 26  0  0  0  0  0  0  0  0999 V2000
   33.2622   82.5987   -4.0619 C   0  0  0  0  0  0  0  0  0  0  0  0
   32.6052   83.3623   -5.0027 C   0  0  0  0  0  0  0  0  0  0  0  0
   33.3574   84.0647   -5.9981 C   0  0  0  0  0  0  0  0  0  0  0  0
   34.7648   84.0212   -6.0156 C   0  0  0  0  0  0  0  0  0  0  0  0
   35.4612   84.7502   -6.9488 O   0  0  0  0  0  0  0  0  0  0  0  0
   35.4240   83.2625   -5.0505 C   0  0  0  0  0  0  0  0  0  0  0  0
   34.6965   82.5597   -4.0686 C   0  0  0  0  0  0  0  0  0  0  0  0
   36.3977   84.7221   -6.9616 H   0  0  0  0  0  0  0  0  0  0  0  0
   32.5525   82.8432   -8.4963 C   0  0  0  0  0  0  0  0  0  0  0  0
   31.6240   83.8742  -10.3974 C   0  0  0  0  0  0  0  0  0  0  0  0
   32.0160   81.7377  -12.1450 C   0  0  0  0  0  0  0  0  0  0  0  0
   31.2303   83.9885  -11.6985 C   0  0  0  0  0  0  0  0  0  0  0  0
   31.4278   82.8992  -12.5838 C   0  0  0  0  0  0  0  0  0  0  0  0
   32.4291   81.6310  -10.7989 C   0  0  0  0  0  0  0  0  0  0  0  0
   32.6364   84.8731   -7.0422 C   0  0  0  0  0  0  0  0  0  0  0  0
   32.3809   86.0870   -6.8702 O   0  0  0  0  0  0  0  0  0  0  0  0
   32.1985   84.2091   -8.1652 N   0  0  0  0  0  0  0  0  0  0  0  0
   31.5294   84.8325   -9.2631 C   0  0  0  0  0  0  0  0  0  0  0  0
   32.2435   82.6845   -9.9423 C   0  0  0  0  0  0  0  0  0  0  0  0
   32.1939   80.4816   -3.3201 C   0  0  0  0  0  0  0  0  0  0  0  0
   32.4217   81.9033   -3.0027 C   0  0  0  0  0  0  0  0  0  0  0  0
   31.0280   82.7187   -2.8052 C   0  0  0  0  0  0  0  0  0  0  0  0
   35.4818   81.7505   -3.0458 C   0  0  0  0  0  0  0  0  0  0  0  0
   35.6945   80.5127   -3.2441 O   0  0  0  0  0  0  0  0  0  0  0  0
 22 21  1  0  0  0
 23  7  1  0  0  0
 23 24  2  0  0  0
  6  7  1  0  0  0
  6  4  2  0  0  0
  5  4  1  0  0  0
  7  1  2  0  0  0
  4  3  1  0  0  0
 16 15  2  0  0  0
  1 21  1  0  0  0
  1  2  1  0  0  0
  3  2  2  0  0  0
  3 15  1  0  0  0
 21 20  1  0  0  0
 15 17  1  0  0  0
 17 18  1  0  0  0
 17  9  1  0  0  0
 18 10  1  0  0  0
  9 19  1  0  0  0
 10 19  1  0  0  0
 10 12  2  0  0  0
 19 14  2  0  0  0
 12 13  1  0  0  0
 14 11  1  0  0  0
 13 11  2  0  0  0
  5  8  1  0  0  0
M  END
> <minimizedAffinity>
-7.25688

$$$$
