4DB7_Z25_A_301


 23 24  0  0  0  0  0  0  0  0999 V2000
  -12.9449   25.6453    7.1714 C   0  0  0  0  0  0  0  0  0  0  0  0
  -13.4044   26.5486    6.1736 C   0  0  0  0  0  0  0  0  0  0  0  0
  -13.0398   27.8795    6.2220 O   0  0  0  0  0  0  0  0  0  0  0  0
  -14.2951   26.0247    5.1457 C   0  0  0  0  0  0  0  0  0  0  0  0
  -14.8394   26.7925    4.1011 C   0  0  0  0  0  0  0  0  0  0  0  0
  -14.4966   28.1146    3.9894 O   0  0  0  0  0  0  0  0  0  0  0  0
  -13.3699   24.3785    7.1090 N   0  0  0  0  0  0  0  0  0  0  0  0
  -14.2047   23.8948    6.1763 N   0  0  0  0  0  0  0  0  0  0  0  0
  -14.7066   24.6635    5.2059 C   0  0  0  0  0  0  0  0  0  0  0  0
  -15.5387   24.1309    4.2623 N   0  0  0  0  0  0  0  0  0  0  0  0
  -15.9842   24.9041    3.2556 C   0  0  0  0  0  0  0  0  0  0  0  0
  -16.8630   24.3190    2.3036 N   0  0  0  0  0  0  0  0  0  0  0  0
  -15.6944   26.2318    3.1948 N   0  0  0  0  0  0  0  0  0  0  0  0
  -14.4553   22.9432    6.2082 H   0  0  0  0  0  0  0  0  0  0  0  0
  -17.2069   24.8577    1.5549 H   0  0  0  0  0  0  0  0  0  0  0  0
  -17.1276   23.3749    2.3931 H   0  0  0  0  0  0  0  0  0  0  0  0
  -16.1025   26.7911    2.4948 H   0  0  0  0  0  0  0  0  0  0  0  0
  -12.0714   26.0497    8.3492 C   0  0  0  0  0  0  0  0  0  0  0  0
  -12.7435   26.2849    9.6751 C   0  0  0  0  0  0  0  0  0  0  0  0
  -14.6578   27.6482   10.3407 O   0  0  0  0  0  0  0  0  0  0  0  0
  -13.4833   27.6061    9.8176 C   0  0  0  0  0  0  0  0  0  0  0  0
  -13.1149   28.6117    9.1110 O   0  0  0  0  0  0  0  0  0  0  0  0
  -12.2666   28.6191    8.7130 H   0  0  0  0  0  0  0  0  0  0  0  0
 12 11  1  0  0  0
 13 11  1  0  0  0
 13  5  1  0  0  0
 11 10  2  0  0  0
  6  5  2  0  0  0
  5  4  1  0  0  0
 10  9  1  0  0  0
  4  9  2  0  0  0
  4  2  1  0  0  0
  9  8  1  0  0  0
  3  2  2  0  0  0
  2  1  1  0  0  0
  8  7  1  0  0  0
  1  7  2  0  0  0
  1 18  1  0  0  0
 18 19  1  0  0  0
 20 21  2  0  0  0
 19 21  1  0  0  0
 21 22  1  0  0  0
 22 23  1  0  0  0
  8 14  1  0  0  0
 12 15  1  0  0  0
 12 16  1  0  0  0
 13 17  1  0  0  0
M  END
> <minimizedAffinity>
-7.75700

$$$$
4DB7_Z25_A_301


 23 24  0  0  0  0  0  0  0  0999 V2000
  -12.9078   25.6066    7.2009 C   0  0  0  0  0  0  0  0  0  0  0  0
  -13.3526   26.5192    6.2048 C   0  0  0  0  0  0  0  0  0  0  0  0
  -12.9665   27.8439    6.2559 O   0  0  0  0  0  0  0  0  0  0  0  0
  -14.2515   26.0117    5.1759 C   0  0  0  0  0  0  0  0  0  0  0  0
  -14.7833   26.7902    4.1327 C   0  0  0  0  0  0  0  0  0  0  0  0
  -14.4192   28.1068    4.0236 O   0  0  0  0  0  0  0  0  0  0  0  0
  -13.3532   24.3470    7.1360 N   0  0  0  0  0  0  0  0  0  0  0  0
  -14.1957   23.8786    6.2023 N   0  0  0  0  0  0  0  0  0  0  0  0
  -14.6850   24.6572    5.2334 C   0  0  0  0  0  0  0  0  0  0  0  0
  -15.5255   24.1399    4.2888 N   0  0  0  0  0  0  0  0  0  0  0  0
  -15.9584   24.9222    3.2835 C   0  0  0  0  0  0  0  0  0  0  0  0
  -16.8464   24.3532    2.3304 N   0  0  0  0  0  0  0  0  0  0  0  0
  -15.6472   26.2452    3.2253 N   0  0  0  0  0  0  0  0  0  0  0  0
  -14.4615   22.9311    6.2324 H   0  0  0  0  0  0  0  0  0  0  0  0
  -17.1816   24.8989    1.5827 H   0  0  0  0  0  0  0  0  0  0  0  0
  -17.1262   23.4134    2.4180 H   0  0  0  0  0  0  0  0  0  0  0  0
  -16.0461   26.8123    2.5264 H   0  0  0  0  0  0  0  0  0  0  0  0
  -12.0279   25.9946    8.3795 C   0  0  0  0  0  0  0  0  0  0  0  0
  -12.6562   26.0222    9.7469 C   0  0  0  0  0  0  0  0  0  0  0  0
  -11.6521   24.1794   10.9968 O   0  0  0  0  0  0  0  0  0  0  0  0
  -12.7127   24.6892   10.4769 C   0  0  0  0  0  0  0  0  0  0  0  0
  -13.7079   23.9046   10.2760 O   0  0  0  0  0  0  0  0  0  0  0  0
  -14.4984   24.2378    9.8991 H   0  0  0  0  0  0  0  0  0  0  0  0
 12 11  1  0  0  0
 13 11  1  0  0  0
 13  5  1  0  0  0
 11 10  2  0  0  0
  6  5  2  0  0  0
  5  4  1  0  0  0
 10  9  1  0  0  0
  4  9  2  0  0  0
  4  2  1  0  0  0
  9  8  1  0  0  0
  3  2  2  0  0  0
  2  1  1  0  0  0
  8  7  1  0  0  0
  1  7  2  0  0  0
  1 18  1  0  0  0
 18 19  1  0  0  0
 20 21  2  0  0  0
 19 21  1  0  0  0
 21 22  1  0  0  0
 22 23  1  0  0  0
  8 14  1  0  0  0
 12 15  1  0  0  0
 12 16  1  0  0  0
 13 17  1  0  0  0
M  END
> <minimizedAffinity>
-7.37192

$$$$
4DB7_Z25_A_301


 23 24  0  0  0  0  0  0  0  0999 V2000
  -12.9290   25.6106    7.1937 C   0  0  0  0  0  0  0  0  0  0  0  0
  -13.3753   26.5202    6.1957 C   0  0  0  0  0  0  0  0  0  0  0  0
  -12.9963   27.8469    6.2471 O   0  0  0  0  0  0  0  0  0  0  0  0
  -14.2683   26.0074    5.1641 C   0  0  0  0  0  0  0  0  0  0  0  0
  -14.8007   26.7826    4.1188 C   0  0  0  0  0  0  0  0  0  0  0  0
  -14.4432   28.1010    4.0101 O   0  0  0  0  0  0  0  0  0  0  0  0
  -13.3676   24.3486    7.1281 N   0  0  0  0  0  0  0  0  0  0  0  0
  -14.2046   23.8753    6.1921 N   0  0  0  0  0  0  0  0  0  0  0  0
  -14.6948   24.6507    5.2211 C   0  0  0  0  0  0  0  0  0  0  0  0
  -15.5296   24.1285    4.2741 N   0  0  0  0  0  0  0  0  0  0  0  0
  -15.9633   24.9080    3.2670 C   0  0  0  0  0  0  0  0  0  0  0  0
  -16.8453   24.3337    2.3113 N   0  0  0  0  0  0  0  0  0  0  0  0
  -15.6588   26.2325    3.2089 N   0  0  0  0  0  0  0  0  0  0  0  0
  -14.4656   22.9265    6.2219 H   0  0  0  0  0  0  0  0  0  0  0  0
  -17.1809   24.8773    1.5622 H   0  0  0  0  0  0  0  0  0  0  0  0
  -17.1205   23.3925    2.3986 H   0  0  0  0  0  0  0  0  0  0  0  0
  -16.0585   26.7971    2.5084 H   0  0  0  0  0  0  0  0  0  0  0  0
  -12.0550   26.0038    8.3749 C   0  0  0  0  0  0  0  0  0  0  0  0
  -10.5664   26.0604    8.1601 C   0  0  0  0  0  0  0  0  0  0  0  0
   -9.1738   27.7208    9.2869 O   0  0  0  0  0  0  0  0  0  0  0  0
   -9.9308   27.4362    8.2864 C   0  0  0  0  0  0  0  0  0  0  0  0
  -10.4153   28.4162    7.6147 O   0  0  0  0  0  0  0  0  0  0  0  0
  -10.9712   28.2503    6.8788 H   0  0  0  0  0  0  0  0  0  0  0  0
 12 11  1  0  0  0
 13 11  1  0  0  0
 13  5  1  0  0  0
 11 10  2  0  0  0
  6  5  2  0  0  0
  5  4  1  0  0  0
 10  9  1  0  0  0
  4  9  2  0  0  0
  4  2  1  0  0  0
  9  8  1  0  0  0
  3  2  2  0  0  0
  2  1  1  0  0  0
  8  7  1  0  0  0
  1  7  2  0  0  0
  1 18  1  0  0  0
 18 19  1  0  0  0
 20 21  2  0  0  0
 19 21  1  0  0  0
 21 22  1  0  0  0
 22 23  1  0  0  0
  8 14  1  0  0  0
 12 15  1  0  0  0
 12 16  1  0  0  0
 13 17  1  0  0  0
M  END
> <minimizedAffinity>
-7.11337

$$$$
4DB7_Z25_A_301


 23 24  0  0  0  0  0  0  0  0999 V2000
  -13.1862   25.5019    6.5124 C   0  0  0  0  0  0  0  0  0  0  0  0
  -12.7807   26.6526    7.2432 C   0  0  0  0  0  0  0  0  0  0  0  0
  -12.7034   27.8805    6.6166 O   0  0  0  0  0  0  0  0  0  0  0  0
  -12.4153   26.4708    8.6425 C   0  0  0  0  0  0  0  0  0  0  0  0
  -11.9860   27.5063    9.4912 C   0  0  0  0  0  0  0  0  0  0  0  0
  -11.9366   28.7899    9.0140 O   0  0  0  0  0  0  0  0  0  0  0  0
  -13.1934   24.3273    7.1524 N   0  0  0  0  0  0  0  0  0  0  0  0
  -12.8400   24.1506    8.4349 N   0  0  0  0  0  0  0  0  0  0  0  0
  -12.4282   25.1627    9.2033 C   0  0  0  0  0  0  0  0  0  0  0  0
  -12.0950   24.9473   10.5106 N   0  0  0  0  0  0  0  0  0  0  0  0
  -11.7434   25.9878   11.2875 C   0  0  0  0  0  0  0  0  0  0  0  0
  -11.3856   25.7214   12.6373 N   0  0  0  0  0  0  0  0  0  0  0  0
  -11.6297   27.2465   10.7844 N   0  0  0  0  0  0  0  0  0  0  0  0
  -12.8858   23.2464    8.8216 H   0  0  0  0  0  0  0  0  0  0  0  0
  -11.1234   26.4608   13.2322 H   0  0  0  0  0  0  0  0  0  0  0  0
  -11.4000   24.7976   12.9773 H   0  0  0  0  0  0  0  0  0  0  0  0
  -11.2892   27.9734   11.3545 H   0  0  0  0  0  0  0  0  0  0  0  0
  -13.5291   25.5113    5.0304 C   0  0  0  0  0  0  0  0  0  0  0  0
  -14.9593   25.7728    4.6413 C   0  0  0  0  0  0  0  0  0  0  0  0
  -15.3788   27.5147    2.9813 O   0  0  0  0  0  0  0  0  0  0  0  0
  -15.2822   27.1994    4.2248 C   0  0  0  0  0  0  0  0  0  0  0  0
  -15.1079   28.1537    5.0645 O   0  0  0  0  0  0  0  0  0  0  0  0
  -15.0328   27.9650    5.9792 H   0  0  0  0  0  0  0  0  0  0  0  0
 12 11  1  0  0  0
 13 11  1  0  0  0
 13  5  1  0  0  0
 11 10  2  0  0  0
  6  5  2  0  0  0
  5  4  1  0  0  0
 10  9  1  0  0  0
  4  9  2  0  0  0
  4  2  1  0  0  0
  9  8  1  0  0  0
  3  2  2  0  0  0
  2  1  1  0  0  0
  8  7  1  0  0  0
  1  7  2  0  0  0
  1 18  1  0  0  0
 18 19  1  0  0  0
 20 21  2  0  0  0
 19 21  1  0  0  0
 21 22  1  0  0  0
 22 23  1  0  0  0
  8 14  1  0  0  0
 12 15  1  0  0  0
 12 16  1  0  0  0
 13 17  1  0  0  0
M  END
> <minimizedAffinity>
-5.69319

$$$$
4DB7_Z25_A_301


 23 24  0  0  0  0  0  0  0  0999 V2000
  -13.0588   26.2698    6.5741 C   0  0  0  0  0  0  0  0  0  0  0  0
  -12.8345   25.2249    7.5125 C   0  0  0  0  0  0  0  0  0  0  0  0
  -12.8690   23.9065    7.1037 O   0  0  0  0  0  0  0  0  0  0  0  0
  -12.6161   25.6008    8.9037 C   0  0  0  0  0  0  0  0  0  0  0  0
  -12.3912   24.6853    9.9469 C   0  0  0  0  0  0  0  0  0  0  0  0
  -12.3257   23.3461    9.6637 O   0  0  0  0  0  0  0  0  0  0  0  0
  -13.0674   27.5269    7.0311 N   0  0  0  0  0  0  0  0  0  0  0  0
  -12.8859   27.8780    8.3136 N   0  0  0  0  0  0  0  0  0  0  0  0
  -12.6848   26.9730    9.2753 C   0  0  0  0  0  0  0  0  0  0  0  0
  -12.4845   27.3697   10.5672 N   0  0  0  0  0  0  0  0  0  0  0  0
  -12.2201   26.4493   11.5122 C   0  0  0  0  0  0  0  0  0  0  0  0
  -12.0359   26.8990   12.8482 N   0  0  0  0  0  0  0  0  0  0  0  0
  -12.2277   25.1181   11.2325 N   0  0  0  0  0  0  0  0  0  0  0  0
  -12.9014   28.8328    8.5532 H   0  0  0  0  0  0  0  0  0  0  0  0
  -11.8411   26.2510   13.5632 H   0  0  0  0  0  0  0  0  0  0  0  0
  -12.1031   27.8585   13.0583 H   0  0  0  0  0  0  0  0  0  0  0  0
  -12.1149   24.4638   11.9594 H   0  0  0  0  0  0  0  0  0  0  0  0
  -13.3726   26.0409    5.1034 C   0  0  0  0  0  0  0  0  0  0  0  0
  -14.8184   25.9196    4.7036 C   0  0  0  0  0  0  0  0  0  0  0  0
  -16.0978   24.1561    3.5993 O   0  0  0  0  0  0  0  0  0  0  0  0
  -15.3585   24.5021    4.5936 C   0  0  0  0  0  0  0  0  0  0  0  0
  -15.3877   23.7581    5.6385 O   0  0  0  0  0  0  0  0  0  0  0  0
  -14.8634   23.9763    6.3838 H   0  0  0  0  0  0  0  0  0  0  0  0
 12 11  1  0  0  0
 13 11  1  0  0  0
 13  5  1  0  0  0
 11 10  2  0  0  0
  6  5  2  0  0  0
  5  4  1  0  0  0
 10  9  1  0  0  0
  4  9  2  0  0  0
  4  2  1  0  0  0
  9  8  1  0  0  0
  3  2  2  0  0  0
  2  1  1  0  0  0
  8  7  1  0  0  0
  1  7  2  0  0  0
  1 18  1  0  0  0
 18 19  1  0  0  0
 20 21  2  0  0  0
 19 21  1  0  0  0
 21 22  1  0  0  0
 22 23  1  0  0  0
  8 14  1  0  0  0
 12 15  1  0  0  0
 12 16  1  0  0  0
 13 17  1  0  0  0
M  END
> <minimizedAffinity>
-5.68362

$$$$
4DB7_Z25_A_301


 23 24  0  0  0  0  0  0  0  0999 V2000
  -13.0725   26.1255    6.5767 C   0  0  0  0  0  0  0  0  0  0  0  0
  -12.8098   25.0956    7.5217 C   0  0  0  0  0  0  0  0  0  0  0  0
  -12.8240   23.7725    7.1275 O   0  0  0  0  0  0  0  0  0  0  0  0
  -12.5745   25.4911    8.9047 C   0  0  0  0  0  0  0  0  0  0  0  0
  -12.3120   24.5918    9.9532 C   0  0  0  0  0  0  0  0  0  0  0  0
  -12.2236   23.2513    9.6829 O   0  0  0  0  0  0  0  0  0  0  0  0
  -13.0992   27.3871    7.0205 N   0  0  0  0  0  0  0  0  0  0  0  0
  -12.9022   27.7557    8.2957 N   0  0  0  0  0  0  0  0  0  0  0  0
  -12.6652   26.8656    9.2631 C   0  0  0  0  0  0  0  0  0  0  0  0
  -12.4502   27.2802   10.5470 N   0  0  0  0  0  0  0  0  0  0  0  0
  -12.1499   26.3759   11.4966 C   0  0  0  0  0  0  0  0  0  0  0  0
  -11.9513   26.8437   12.8243 N   0  0  0  0  0  0  0  0  0  0  0  0
  -12.1347   25.0418   11.2310 N   0  0  0  0  0  0  0  0  0  0  0  0
  -12.9334   28.7125    8.5256 H   0  0  0  0  0  0  0  0  0  0  0  0
  -11.7303   26.2076   13.5424 H   0  0  0  0  0  0  0  0  0  0  0  0
  -12.0348   27.8038   13.0255 H   0  0  0  0  0  0  0  0  0  0  0  0
  -11.9953   24.3979   11.9626 H   0  0  0  0  0  0  0  0  0  0  0  0
  -13.4076   25.8743    5.1143 C   0  0  0  0  0  0  0  0  0  0  0  0
  -14.8442   26.0144    4.6881 C   0  0  0  0  0  0  0  0  0  0  0  0
  -15.3307   27.6532    2.9435 O   0  0  0  0  0  0  0  0  0  0  0  0
  -15.2591   27.3943    4.2016 C   0  0  0  0  0  0  0  0  0  0  0  0
  -15.1918   28.3909    5.0069 O   0  0  0  0  0  0  0  0  0  0  0  0
  -15.1385   28.2439    5.9308 H   0  0  0  0  0  0  0  0  0  0  0  0
 12 11  1  0  0  0
 13 11  1  0  0  0
 13  5  1  0  0  0
 11 10  2  0  0  0
  6  5  2  0  0  0
  5  4  1  0  0  0
 10  9  1  0  0  0
  4  9  2  0  0  0
  4  2  1  0  0  0
  9  8  1  0  0  0
  3  2  2  0  0  0
  2  1  1  0  0  0
  8  7  1  0  0  0
  1  7  2  0  0  0
  1 18  1  0  0  0
 18 19  1  0  0  0
 20 21  2  0  0  0
 19 21  1  0  0  0
 21 22  1  0  0  0
 22 23  1  0  0  0
  8 14  1  0  0  0
 12 15  1  0  0  0
 12 16  1  0  0  0
 13 17  1  0  0  0
M  END
> <minimizedAffinity>
-5.65065

$$$$
4DB7_Z25_A_301


 23 24  0  0  0  0  0  0  0  0999 V2000
  -11.9339   25.8926    7.8625 C   0  0  0  0  0  0  0  0  0  0  0  0
  -12.7934   25.0254    7.1329 C   0  0  0  0  0  0  0  0  0  0  0  0
  -12.7977   23.6702    7.3969 O   0  0  0  0  0  0  0  0  0  0  0  0
  -13.6183   25.6150    6.0859 C   0  0  0  0  0  0  0  0  0  0  0  0
  -14.5080   24.8895    5.2741 C   0  0  0  0  0  0  0  0  0  0  0  0
  -14.6643   23.5442    5.4832 O   0  0  0  0  0  0  0  0  0  0  0  0
  -11.9292   27.1887    7.5319 N   0  0  0  0  0  0  0  0  0  0  0  0
  -12.6722   27.7340    6.5565 N   0  0  0  0  0  0  0  0  0  0  0  0
  -13.4984   27.0045    5.8018 C   0  0  0  0  0  0  0  0  0  0  0  0
  -14.2536   27.5983    4.8305 N   0  0  0  0  0  0  0  0  0  0  0  0
  -15.1273   26.8597    4.1225 C   0  0  0  0  0  0  0  0  0  0  0  0
  -15.8817   27.5096    3.1080 N   0  0  0  0  0  0  0  0  0  0  0  0
  -15.2224   25.5132    4.2905 N   0  0  0  0  0  0  0  0  0  0  0  0
  -12.6063   28.7024    6.3919 H   0  0  0  0  0  0  0  0  0  0  0  0
  -16.5295   26.9974    2.5719 H   0  0  0  0  0  0  0  0  0  0  0  0
  -15.7564   28.4717    2.9414 H   0  0  0  0  0  0  0  0  0  0  0  0
  -15.8085   24.9858    3.7009 H   0  0  0  0  0  0  0  0  0  0  0  0
  -10.9612   25.4239    8.9340 C   0  0  0  0  0  0  0  0  0  0  0  0
  -11.4852   25.2578   10.3351 C   0  0  0  0  0  0  0  0  0  0  0  0
  -13.7161   26.0112   10.9841 O   0  0  0  0  0  0  0  0  0  0  0  0
  -12.9908   25.0852   10.4631 C   0  0  0  0  0  0  0  0  0  0  0  0
  -13.4965   23.9082   10.3922 O   0  0  0  0  0  0  0  0  0  0  0  0
  -12.9998   23.2065   10.0193 H   0  0  0  0  0  0  0  0  0  0  0  0
 12 11  1  0  0  0
 13 11  1  0  0  0
 13  5  1  0  0  0
 11 10  2  0  0  0
  6  5  2  0  0  0
  5  4  1  0  0  0
 10  9  1  0  0  0
  4  9  2  0  0  0
  4  2  1  0  0  0
  9  8  1  0  0  0
  3  2  2  0  0  0
  2  1  1  0  0  0
  8  7  1  0  0  0
  1  7  2  0  0  0
  1 18  1  0  0  0
 18 19  1  0  0  0
 20 21  2  0  0  0
 19 21  1  0  0  0
 21 22  1  0  0  0
 22 23  1  0  0  0
  8 14  1  0  0  0
 12 15  1  0  0  0
 12 16  1  0  0  0
 13 17  1  0  0  0
M  END
> <minimizedAffinity>
-5.58289

$$$$
4DB7_Z25_A_301


 23 24  0  0  0  0  0  0  0  0999 V2000
  -14.4644   25.7002    5.1859 C   0  0  0  0  0  0  0  0  0  0  0  0
  -13.5472   26.5539    5.8587 C   0  0  0  0  0  0  0  0  0  0  0  0
  -13.4226   27.8753    5.4782 O   0  0  0  0  0  0  0  0  0  0  0  0
  -12.7306   25.9701    6.9155 C   0  0  0  0  0  0  0  0  0  0  0  0
  -11.7748   26.6802    7.6633 C   0  0  0  0  0  0  0  0  0  0  0  0
  -11.6048   28.0210    7.4369 O   0  0  0  0  0  0  0  0  0  0  0  0
  -14.5085   24.4160    5.5575 N   0  0  0  0  0  0  0  0  0  0  0  0
  -13.7460   23.8685    6.5165 N   0  0  0  0  0  0  0  0  0  0  0  0
  -12.8421   24.5792    7.1964 C   0  0  0  0  0  0  0  0  0  0  0  0
  -12.0973   23.9915    8.1794 N   0  0  0  0  0  0  0  0  0  0  0  0
  -11.2372   24.7362    8.8974 C   0  0  0  0  0  0  0  0  0  0  0  0
  -10.4665   24.0852    9.8991 N   0  0  0  0  0  0  0  0  0  0  0  0
  -11.0255   26.0502    8.6164 N   0  0  0  0  0  0  0  0  0  0  0  0
  -13.8562   22.9128    6.7256 H   0  0  0  0  0  0  0  0  0  0  0  0
   -9.8280   24.6017   10.4420 H   0  0  0  0  0  0  0  0  0  0  0  0
  -10.5714   23.1180   10.0499 H   0  0  0  0  0  0  0  0  0  0  0  0
  -10.3295   26.5493    9.1019 H   0  0  0  0  0  0  0  0  0  0  0  0
  -15.3339   26.1370    4.0167 C   0  0  0  0  0  0  0  0  0  0  0  0
  -16.3164   25.1416    3.4607 C   0  0  0  0  0  0  0  0  0  0  0  0
  -16.2432   24.1459    1.2315 O   0  0  0  0  0  0  0  0  0  0  0  0
  -15.7647   24.1738    2.4254 C   0  0  0  0  0  0  0  0  0  0  0  0
  -15.0890   23.1550    2.8150 O   0  0  0  0  0  0  0  0  0  0  0  0
  -14.7239   23.1371    3.6777 H   0  0  0  0  0  0  0  0  0  0  0  0
 12 11  1  0  0  0
 13 11  1  0  0  0
 13  5  1  0  0  0
 11 10  2  0  0  0
  6  5  2  0  0  0
  5  4  1  0  0  0
 10  9  1  0  0  0
  4  9  2  0  0  0
  4  2  1  0  0  0
  9  8  1  0  0  0
  3  2  2  0  0  0
  2  1  1  0  0  0
  8  7  1  0  0  0
  1  7  2  0  0  0
  1 18  1  0  0  0
 18 19  1  0  0  0
 20 21  2  0  0  0
 19 21  1  0  0  0
 21 22  1  0  0  0
 22 23  1  0  0  0
  8 14  1  0  0  0
 12 15  1  0  0  0
 12 16  1  0  0  0
 13 17  1  0  0  0
M  END
> <minimizedAffinity>
-5.46318

$$$$
4DB7_Z25_A_301


 23 24  0  0  0  0  0  0  0  0999 V2000
  -13.1876   25.9884    6.3769 C   0  0  0  0  0  0  0  0  0  0  0  0
  -12.7507   25.1201    7.4151 C   0  0  0  0  0  0  0  0  0  0  0  0
  -12.6766   23.7589    7.1955 O   0  0  0  0  0  0  0  0  0  0  0  0
  -12.4349   25.7162    8.7071 C   0  0  0  0  0  0  0  0  0  0  0  0
  -12.0013   24.9907    9.8308 C   0  0  0  0  0  0  0  0  0  0  0  0
  -11.8131   23.6374    9.7257 O   0  0  0  0  0  0  0  0  0  0  0  0
  -13.2924   27.2921    6.6574 N   0  0  0  0  0  0  0  0  0  0  0  0
  -13.0213   27.8442    7.8501 N   0  0  0  0  0  0  0  0  0  0  0  0
  -12.6208   27.1148    8.8950 C   0  0  0  0  0  0  0  0  0  0  0  0
  -12.3355   27.7149   10.0887 N   0  0  0  0  0  0  0  0  0  0  0  0
  -11.8724   26.9741   11.1118 C   0  0  0  0  0  0  0  0  0  0  0  0
  -11.6045   27.6314   12.3435 N   0  0  0  0  0  0  0  0  0  0  0  0
  -11.7571   25.6220   11.0177 N   0  0  0  0  0  0  0  0  0  0  0  0
  -13.1208   28.8177    7.9584 H   0  0  0  0  0  0  0  0  0  0  0  0
  -11.2648   27.1179   13.1118 H   0  0  0  0  0  0  0  0  0  0  0  0
  -11.7586   28.6000   12.4283 H   0  0  0  0  0  0  0  0  0  0  0  0
  -11.4965   25.0961   11.8081 H   0  0  0  0  0  0  0  0  0  0  0  0
  -13.6226   25.5160    4.9980 C   0  0  0  0  0  0  0  0  0  0  0  0
  -14.9534   24.8231    4.8796 C   0  0  0  0  0  0  0  0  0  0  0  0
  -15.8094   26.3343    3.1622 O   0  0  0  0  0  0  0  0  0  0  0  0
  -15.7531   25.1350    3.6241 C   0  0  0  0  0  0  0  0  0  0  0  0
  -16.6496   24.3068    3.2285 O   0  0  0  0  0  0  0  0  0  0  0  0
  -16.6429   23.4238    3.5420 H   0  0  0  0  0  0  0  0  0  0  0  0
 12 11  1  0  0  0
 13 11  1  0  0  0
 13  5  1  0  0  0
 11 10  2  0  0  0
  6  5  2  0  0  0
  5  4  1  0  0  0
 10  9  1  0  0  0
  4  9  2  0  0  0
  4  2  1  0  0  0
  9  8  1  0  0  0
  3  2  2  0  0  0
  2  1  1  0  0  0
  8  7  1  0  0  0
  1  7  2  0  0  0
  1 18  1  0  0  0
 18 19  1  0  0  0
 20 21  2  0  0  0
 19 21  1  0  0  0
 21 22  1  0  0  0
 22 23  1  0  0  0
  8 14  1  0  0  0
 12 15  1  0  0  0
 12 16  1  0  0  0
 13 17  1  0  0  0
M  END
> <minimizedAffinity>
-5.34990

$$$$
4DB7_Z25_A_301


 23 24  0  0  0  0  0  0  0  0999 V2000
  -13.7210   25.6049   11.6601 C   0  0  0  0  0  0  0  0  0  0  0  0
  -13.3351   26.1510   10.4048 C   0  0  0  0  0  0  0  0  0  0  0  0
  -13.1127   25.3190    9.3255 O   0  0  0  0  0  0  0  0  0  0  0  0
  -13.1459   27.5939   10.3246 C   0  0  0  0  0  0  0  0  0  0  0  0
  -12.7570   28.2795    9.1602 C   0  0  0  0  0  0  0  0  0  0  0  0
  -12.5763   27.5791    7.9963 O   0  0  0  0  0  0  0  0  0  0  0  0
  -13.8723   26.4486   12.6870 N   0  0  0  0  0  0  0  0  0  0  0  0
  -13.6811   27.7754   12.6240 N   0  0  0  0  0  0  0  0  0  0  0  0
  -13.3016   28.3849   11.4976 C   0  0  0  0  0  0  0  0  0  0  0  0
  -13.1356   29.7406   11.4670 N   0  0  0  0  0  0  0  0  0  0  0  0
  -12.8151   30.3456   10.3088 C   0  0  0  0  0  0  0  0  0  0  0  0
  -12.6327   31.7554   10.3209 N   0  0  0  0  0  0  0  0  0  0  0  0
  -12.5691   29.6327    9.1767 N   0  0  0  0  0  0  0  0  0  0  0  0
  -13.8251   28.3167   13.4336 H   0  0  0  0  0  0  0  0  0  0  0  0
  -12.3977   32.2284    9.4901 H   0  0  0  0  0  0  0  0  0  0  0  0
  -12.7414   32.2586   11.1600 H   0  0  0  0  0  0  0  0  0  0  0  0
  -12.2543   30.0938    8.3658 H   0  0  0  0  0  0  0  0  0  0  0  0
  -13.8886   24.1166   11.9261 C   0  0  0  0  0  0  0  0  0  0  0  0
  -15.0978   23.6734   12.7049 C   0  0  0  0  0  0  0  0  0  0  0  0
  -16.0996   22.7865   10.6614 O   0  0  0  0  0  0  0  0  0  0  0  0
  -16.0925   22.8072   11.9477 C   0  0  0  0  0  0  0  0  0  0  0  0
  -17.1415   22.3812   12.5512 O   0  0  0  0  0  0  0  0  0  0  0  0
  -17.1754   22.3802   13.4876 H   0  0  0  0  0  0  0  0  0  0  0  0
 12 11  1  0  0  0
 13 11  1  0  0  0
 13  5  1  0  0  0
 11 10  2  0  0  0
  6  5  2  0  0  0
  5  4  1  0  0  0
 10  9  1  0  0  0
  4  9  2  0  0  0
  4  2  1  0  0  0
  9  8  1  0  0  0
  3  2  2  0  0  0
  2  1  1  0  0  0
  8  7  1  0  0  0
  1  7  2  0  0  0
  1 18  1  0  0  0
 18 19  1  0  0  0
 20 21  2  0  0  0
 19 21  1  0  0  0
 21 22  1  0  0  0
 22 23  1  0  0  0
  8 14  1  0  0  0
 12 15  1  0  0  0
 12 16  1  0  0  0
 13 17  1  0  0  0
M  END
> <minimizedAffinity>
-5.30495

$$$$
