2CF8_ESH_H_1246


 35 39  0  0  0  0  0  0  0  0999 V2000
   15.7869  -11.2499   19.7107 C   0  0  0  0  0  0  0  0  0  0  0  0
   15.6177  -12.3751   18.7534 N   0  0  0  0  0  0  0  0  0  0  0  0
   14.5455  -12.1136   17.7478 C   0  0  0  0  0  0  0  0  0  0  0  0
   15.2329  -11.8342   16.4194 C   0  0  0  0  0  0  0  0  0  0  0  0
   16.7289  -11.7177   16.7026 C   0  0  0  0  0  0  0  0  0  0  0  0
   16.8923  -12.4740   18.0194 C   0  0  0  0  0  0  0  0  0  0  0  0
   17.9530  -11.9957   18.9993 C   0  0  0  0  0  0  0  0  0  0  0  0
   18.9355  -13.0868   19.4672 C   0  0  0  0  0  0  0  0  0  0  0  0
   18.5525  -13.3289   20.8463 N   0  0  0  0  0  0  0  0  0  0  0  0
   17.4365  -12.5473   21.2614 C   0  0  0  0  0  0  0  0  0  0  0  0
   16.8716  -12.7298   22.2967 O   0  0  0  0  0  0  0  0  0  0  0  0
   17.2106  -11.4839   20.2242 C   0  0  0  0  0  0  0  0  0  0  0  0
   12.6578  -10.8127   22.6665 C   0  0  0  0  0  0  0  0  0  0  0  0
   13.5037   -9.7726   22.3360 C   0  0  0  0  0  0  0  0  0  0  0  0
   14.4906   -9.9016   21.3748 C   0  0  0  0  0  0  0  0  0  0  0  0
   14.7053  -11.1274   20.7316 C   0  0  0  0  0  0  0  0  0  0  0  0
   13.8390  -12.1755   21.0508 C   0  0  0  0  0  0  0  0  0  0  0  0
   12.8419  -12.0327   21.9960 C   0  0  0  0  0  0  0  0  0  0  0  0
   10.8057  -11.6906   24.0095 N   0  0  0  0  0  0  0  0  0  0  0  0
   11.5712  -10.6666   23.6719 C   0  0  0  0  0  0  0  0  0  0  0  0
   11.3335   -9.4765   24.2564 N   0  0  0  0  0  0  0  0  0  0  0  0
   10.0919  -11.5725   24.6772 H   0  0  0  0  0  0  0  0  0  0  0  0
   10.6121   -9.3898   24.9207 H   0  0  0  0  0  0  0  0  0  0  0  0
   11.8811   -8.6935   24.0193 H   0  0  0  0  0  0  0  0  0  0  0  0
   20.4000  -12.6379   19.4196 C   0  0  0  0  0  0  0  0  0  0  0  0
   20.7469  -11.5319   20.4158 C   0  0  0  0  0  0  0  0  0  0  0  0
   20.7594  -12.2571   18.0050 C   0  0  0  0  0  0  0  0  0  0  0  0
   18.7746  -14.6417   21.4944 C   0  0  0  0  0  0  0  0  0  0  0  0
   19.7056  -14.3430   22.6642 C   0  0  0  0  0  0  0  0  0  0  0  0
   19.1975  -14.0891   23.9189 C   0  0  0  0  0  0  0  0  0  0  0  0
   20.0084  -13.7826   25.0036 C   0  0  0  0  0  0  0  0  0  0  0  0
   21.3783  -13.7419   24.8031 C   0  0  0  0  0  0  0  0  0  0  0  0
   21.9232  -13.9930   23.5552 C   0  0  0  0  0  0  0  0  0  0  0  0
   21.0885  -14.2900   22.4804 C   0  0  0  0  0  0  0  0  0  0  0  0
   22.4531  -13.3879   26.1762 Cl  0  0  0  0  0  0  0  0  0  0  0  0
 19 20  2  0  0  0
 20 21  1  0  0  0
 20 13  1  0  0  0
 13 14  2  0  0  0
 13 18  1  0  0  0
 14 15  1  0  0  0
 15 16  2  0  0  0
 16 17  1  0  0  0
 16  1  1  0  0  0
 17 18  2  0  0  0
  1  2  1  0  0  0
  1 12  1  0  0  0
  2  3  1  0  0  0
  2  6  1  0  0  0
  3  4  1  0  0  0
  4  5  1  0  0  0
  5  6  1  0  0  0
  6  7  1  0  0  0
  7  8  1  0  0  0
  7 12  1  0  0  0
  8  9  1  0  0  0
  8 25  1  0  0  0
  9 10  1  0  0  0
  9 28  1  0  0  0
 10 11  2  0  0  0
 10 12  1  0  0  0
 28 29  1  0  0  0
 29 30  2  0  0  0
 29 34  1  0  0  0
 30 31  1  0  0  0
 31 32  2  0  0  0
 32 33  1  0  0  0
 32 35  1  0  0  0
 33 34  2  0  0  0
 25 26  1  0  0  0
 25 27  1  0  0  0
 19 22  1  0  0  0
 21 23  1  0  0  0
 21 24  1  0  0  0
M  END
> <minimizedAffinity>
-11.92352

$$$$
2CF8_ESH_H_1246


 35 39  0  0  0  0  0  0  0  0999 V2000
   15.7791  -11.1232   19.7091 C   0  0  0  0  0  0  0  0  0  0  0  0
   15.5571  -12.1615   18.6681 N   0  0  0  0  0  0  0  0  0  0  0  0
   14.5043  -11.7691   17.6848 C   0  0  0  0  0  0  0  0  0  0  0  0
   15.2113  -11.4244   16.3822 C   0  0  0  0  0  0  0  0  0  0  0  0
   16.7099  -11.4069   16.6746 C   0  0  0  0  0  0  0  0  0  0  0  0
   16.8284  -12.2691   17.9296 C   0  0  0  0  0  0  0  0  0  0  0  0
   17.9075  -11.9225   18.9441 C   0  0  0  0  0  0  0  0  0  0  0  0
   18.8309  -13.0952   19.3275 C   0  0  0  0  0  0  0  0  0  0  0  0
   18.4295  -13.4222   20.6837 N   0  0  0  0  0  0  0  0  0  0  0  0
   17.3530  -12.6185   21.1568 C   0  0  0  0  0  0  0  0  0  0  0  0
   16.7748  -12.8506   22.1746 O   0  0  0  0  0  0  0  0  0  0  0  0
   17.1866  -11.4686   20.2041 C   0  0  0  0  0  0  0  0  0  0  0  0
   12.6589  -10.7534   22.6835 C   0  0  0  0  0  0  0  0  0  0  0  0
   13.5096   -9.7088   22.3806 C   0  0  0  0  0  0  0  0  0  0  0  0
   14.4937   -9.8157   21.4137 C   0  0  0  0  0  0  0  0  0  0  0  0
   14.7004  -11.0240   20.7356 C   0  0  0  0  0  0  0  0  0  0  0  0
   13.8292  -12.0760   21.0270 C   0  0  0  0  0  0  0  0  0  0  0  0
   12.8350  -11.9549   21.9782 C   0  0  0  0  0  0  0  0  0  0  0  0
   10.8198  -11.6649   24.0218 N   0  0  0  0  0  0  0  0  0  0  0  0
   11.5754  -10.6301   23.6952 C   0  0  0  0  0  0  0  0  0  0  0  0
   11.3303   -9.4502   24.2969 N   0  0  0  0  0  0  0  0  0  0  0  0
   10.1078  -11.5619   24.6939 H   0  0  0  0  0  0  0  0  0  0  0  0
   10.6110   -9.3785   24.9652 H   0  0  0  0  0  0  0  0  0  0  0  0
   11.8704   -8.6595   24.0684 H   0  0  0  0  0  0  0  0  0  0  0  0
   20.3166  -12.7197   19.3156 C   0  0  0  0  0  0  0  0  0  0  0  0
   20.7253  -11.7526   20.4263 C   0  0  0  0  0  0  0  0  0  0  0  0
   20.6890  -12.2004   17.9492 C   0  0  0  0  0  0  0  0  0  0  0  0
   18.5812  -14.7905   21.2292 C   0  0  0  0  0  0  0  0  0  0  0  0
   17.2597  -15.4818   20.9128 C   0  0  0  0  0  0  0  0  0  0  0  0
   16.5783  -16.1745   21.8889 C   0  0  0  0  0  0  0  0  0  0  0  0
   15.3883  -16.8436   21.6353 C   0  0  0  0  0  0  0  0  0  0  0  0
   14.8752  -16.7974   20.3497 C   0  0  0  0  0  0  0  0  0  0  0  0
   15.5334  -16.1095   19.3444 C   0  0  0  0  0  0  0  0  0  0  0  0
   16.7302  -15.4530   19.6214 C   0  0  0  0  0  0  0  0  0  0  0  0
   13.3341  -17.6124   19.9933 Cl  0  0  0  0  0  0  0  0  0  0  0  0
 19 20  2  0  0  0
 20 21  1  0  0  0
 20 13  1  0  0  0
 13 14  2  0  0  0
 13 18  1  0  0  0
 14 15  1  0  0  0
 15 16  2  0  0  0
 16 17  1  0  0  0
 16  1  1  0  0  0
 17 18  2  0  0  0
  1  2  1  0  0  0
  1 12  1  0  0  0
  2  3  1  0  0  0
  2  6  1  0  0  0
  3  4  1  0  0  0
  4  5  1  0  0  0
  5  6  1  0  0  0
  6  7  1  0  0  0
  7  8  1  0  0  0
  7 12  1  0  0  0
  8  9  1  0  0  0
  8 25  1  0  0  0
  9 10  1  0  0  0
  9 28  1  0  0  0
 10 11  2  0  0  0
 10 12  1  0  0  0
 28 29  1  0  0  0
 29 30  2  0  0  0
 29 34  1  0  0  0
 30 31  1  0  0  0
 31 32  2  0  0  0
 32 33  1  0  0  0
 32 35  1  0  0  0
 33 34  2  0  0  0
 25 26  1  0  0  0
 25 27  1  0  0  0
 19 22  1  0  0  0
 21 23  1  0  0  0
 21 24  1  0  0  0
M  END
> <minimizedAffinity>
-10.35196

$$$$
2CF8_ESH_H_1246


 35 39  0  0  0  0  0  0  0  0999 V2000
   14.4982  -12.6503   19.1955 C   0  0  0  0  0  0  0  0  0  0  0  0
   15.1143  -13.9906   19.3830 N   0  0  0  0  0  0  0  0  0  0  0  0
   14.1156  -15.0967   19.2909 C   0  0  0  0  0  0  0  0  0  0  0  0
   14.3478  -15.8031   17.9633 C   0  0  0  0  0  0  0  0  0  0  0  0
   15.3511  -14.9631   17.1761 C   0  0  0  0  0  0  0  0  0  0  0  0
   16.0594  -14.1590   18.2644 C   0  0  0  0  0  0  0  0  0  0  0  0
   16.5331  -12.7528   17.9296 C   0  0  0  0  0  0  0  0  0  0  0  0
   18.0194  -12.4845   18.2359 C   0  0  0  0  0  0  0  0  0  0  0  0
   17.9814  -11.6068   19.3916 N   0  0  0  0  0  0  0  0  0  0  0  0
   16.6585  -11.3395   19.8467 C   0  0  0  0  0  0  0  0  0  0  0  0
   16.4321  -10.7843   20.8784 O   0  0  0  0  0  0  0  0  0  0  0  0
   15.7052  -11.8033   18.7819 C   0  0  0  0  0  0  0  0  0  0  0  0
   12.1910  -11.2973   22.5964 C   0  0  0  0  0  0  0  0  0  0  0  0
   12.9043  -12.4793   22.6188 C   0  0  0  0  0  0  0  0  0  0  0  0
   13.6619  -12.9041   21.5416 C   0  0  0  0  0  0  0  0  0  0  0  0
   13.6888  -12.1652   20.3517 C   0  0  0  0  0  0  0  0  0  0  0  0
   12.9830  -10.9600   20.3333 C   0  0  0  0  0  0  0  0  0  0  0  0
   12.2464  -10.5318   21.4204 C   0  0  0  0  0  0  0  0  0  0  0  0
   11.0502   -9.5505   23.8816 N   0  0  0  0  0  0  0  0  0  0  0  0
   11.4061  -10.8188   23.7659 C   0  0  0  0  0  0  0  0  0  0  0  0
   11.0480  -11.6704   24.7461 N   0  0  0  0  0  0  0  0  0  0  0  0
   10.5308   -9.2544   24.6637 H   0  0  0  0  0  0  0  0  0  0  0  0
   10.5286  -11.3442   25.5162 H   0  0  0  0  0  0  0  0  0  0  0  0
   11.3057  -12.6191   24.6925 H   0  0  0  0  0  0  0  0  0  0  0  0
   18.7523  -11.7803   17.0890 C   0  0  0  0  0  0  0  0  0  0  0  0
   18.1729  -12.0719   15.7051 C   0  0  0  0  0  0  0  0  0  0  0  0
   20.2239  -12.1029   17.1647 C   0  0  0  0  0  0  0  0  0  0  0  0
   19.0868  -11.5722   20.3763 C   0  0  0  0  0  0  0  0  0  0  0  0
   19.2751  -13.0252   20.7978 C   0  0  0  0  0  0  0  0  0  0  0  0
   18.3124  -13.6709   21.5416 C   0  0  0  0  0  0  0  0  0  0  0  0
   18.4584  -14.9831   21.9720 C   0  0  0  0  0  0  0  0  0  0  0  0
   19.6174  -15.6579   21.6261 C   0  0  0  0  0  0  0  0  0  0  0  0
   20.6053  -15.0397   20.8784 C   0  0  0  0  0  0  0  0  0  0  0  0
   20.4395  -13.7198   20.4654 C   0  0  0  0  0  0  0  0  0  0  0  0
   19.8261  -17.3521   22.1283 Cl  0  0  0  0  0  0  0  0  0  0  0  0
 19 20  2  0  0  0
 20 21  1  0  0  0
 20 13  1  0  0  0
 13 14  2  0  0  0
 13 18  1  0  0  0
 14 15  1  0  0  0
 15 16  2  0  0  0
 16 17  1  0  0  0
 16  1  1  0  0  0
 17 18  2  0  0  0
  1  2  1  0  0  0
  1 12  1  0  0  0
  2  3  1  0  0  0
  2  6  1  0  0  0
  3  4  1  0  0  0
  4  5  1  0  0  0
  5  6  1  0  0  0
  6  7  1  0  0  0
  7  8  1  0  0  0
  7 12  1  0  0  0
  8  9  1  0  0  0
  8 25  1  0  0  0
  9 10  1  0  0  0
  9 28  1  0  0  0
 10 11  2  0  0  0
 10 12  1  0  0  0
 28 29  1  0  0  0
 29 30  2  0  0  0
 29 34  1  0  0  0
 30 31  1  0  0  0
 31 32  2  0  0  0
 32 33  1  0  0  0
 32 35  1  0  0  0
 33 34  2  0  0  0
 25 26  1  0  0  0
 25 27  1  0  0  0
 19 22  1  0  0  0
 21 23  1  0  0  0
 21 24  1  0  0  0
M  END
> <minimizedAffinity>
-9.84290

$$$$
2CF8_ESH_H_1246


 35 39  0  0  0  0  0  0  0  0999 V2000
   14.2591  -13.8366   19.4831 C   0  0  0  0  0  0  0  0  0  0  0  0
   15.5780  -14.4269   19.8336 N   0  0  0  0  0  0  0  0  0  0  0  0
   15.4891  -15.3899   20.9711 C   0  0  0  0  0  0  0  0  0  0  0  0
   15.6553  -16.7871   20.3917 C   0  0  0  0  0  0  0  0  0  0  0  0
   15.6238  -16.6504   18.8712 C   0  0  0  0  0  0  0  0  0  0  0  0
   16.0060  -15.1889   18.6465 C   0  0  0  0  0  0  0  0  0  0  0  0
   15.3933  -14.4567   17.4624 C   0  0  0  0  0  0  0  0  0  0  0  0
   16.4127  -13.7702   16.5327 C   0  0  0  0  0  0  0  0  0  0  0  0
   16.2288  -12.3557   16.8022 N   0  0  0  0  0  0  0  0  0  0  0  0
   15.2512  -12.1008   17.8061 C   0  0  0  0  0  0  0  0  0  0  0  0
   15.0849  -11.0199   18.2837 O   0  0  0  0  0  0  0  0  0  0  0  0
   14.4925  -13.3763   18.0412 C   0  0  0  0  0  0  0  0  0  0  0  0
   12.7145  -10.9300   22.2912 C   0  0  0  0  0  0  0  0  0  0  0  0
   11.8937  -11.8348   21.6478 C   0  0  0  0  0  0  0  0  0  0  0  0
   12.3867  -12.7810   20.7666 C   0  0  0  0  0  0  0  0  0  0  0  0
   13.7507  -12.8195   20.4497 C   0  0  0  0  0  0  0  0  0  0  0  0
   14.5854  -11.9175   21.1133 C   0  0  0  0  0  0  0  0  0  0  0  0
   14.0887  -10.9900   22.0082 C   0  0  0  0  0  0  0  0  0  0  0  0
   12.9325   -8.9172   23.6717 N   0  0  0  0  0  0  0  0  0  0  0  0
   12.1931   -9.9365   23.2679 C   0  0  0  0  0  0  0  0  0  0  0  0
   10.9515  -10.0603   23.7753 N   0  0  0  0  0  0  0  0  0  0  0  0
   12.5683   -8.2708   24.3188 H   0  0  0  0  0  0  0  0  0  0  0  0
   10.6153   -9.3976   24.4211 H   0  0  0  0  0  0  0  0  0  0  0  0
   10.3803  -10.8135   23.5003 H   0  0  0  0  0  0  0  0  0  0  0  0
   16.1498  -14.0411   15.0474 C   0  0  0  0  0  0  0  0  0  0  0  0
   15.8742  -15.5082   14.7193 C   0  0  0  0  0  0  0  0  0  0  0  0
   17.2881  -13.4836   14.2296 C   0  0  0  0  0  0  0  0  0  0  0  0
   17.3316  -11.3828   16.6281 C   0  0  0  0  0  0  0  0  0  0  0  0
   18.3518  -11.7593   17.6967 C   0  0  0  0  0  0  0  0  0  0  0  0
   18.0076  -11.7509   19.0302 C   0  0  0  0  0  0  0  0  0  0  0  0
   18.9144  -12.0570   20.0362 C   0  0  0  0  0  0  0  0  0  0  0  0
   20.2081  -12.3889   19.6695 C   0  0  0  0  0  0  0  0  0  0  0  0
   20.5882  -12.4083   18.3382 C   0  0  0  0  0  0  0  0  0  0  0  0
   19.6626  -12.0893   17.3475 C   0  0  0  0  0  0  0  0  0  0  0  0
   21.3899  -12.8220   20.9272 Cl  0  0  0  0  0  0  0  0  0  0  0  0
 19 20  2  0  0  0
 20 21  1  0  0  0
 20 13  1  0  0  0
 13 14  2  0  0  0
 13 18  1  0  0  0
 14 15  1  0  0  0
 15 16  2  0  0  0
 16 17  1  0  0  0
 16  1  1  0  0  0
 17 18  2  0  0  0
  1  2  1  0  0  0
  1 12  1  0  0  0
  2  3  1  0  0  0
  2  6  1  0  0  0
  3  4  1  0  0  0
  4  5  1  0  0  0
  5  6  1  0  0  0
  6  7  1  0  0  0
  7  8  1  0  0  0
  7 12  1  0  0  0
  8  9  1  0  0  0
  8 25  1  0  0  0
  9 10  1  0  0  0
  9 28  1  0  0  0
 10 11  2  0  0  0
 10 12  1  0  0  0
 28 29  1  0  0  0
 29 30  2  0  0  0
 29 34  1  0  0  0
 30 31  1  0  0  0
 31 32  2  0  0  0
 32 33  1  0  0  0
 32 35  1  0  0  0
 33 34  2  0  0  0
 25 26  1  0  0  0
 25 27  1  0  0  0
 19 22  1  0  0  0
 21 23  1  0  0  0
 21 24  1  0  0  0
M  END
> <minimizedAffinity>
-9.21680

$$$$
2CF8_ESH_H_1246


 35 39  0  0  0  0  0  0  0  0999 V2000
   13.9186  -12.5104   19.1458 C   0  0  0  0  0  0  0  0  0  0  0  0
   14.4685  -13.8796   19.3300 N   0  0  0  0  0  0  0  0  0  0  0  0
   13.4020  -14.8960   19.5726 C   0  0  0  0  0  0  0  0  0  0  0  0
   13.2787  -15.7300   18.3059 C   0  0  0  0  0  0  0  0  0  0  0  0
   14.1323  -15.0526   17.2363 C   0  0  0  0  0  0  0  0  0  0  0  0
   15.1218  -14.2257   18.0547 C   0  0  0  0  0  0  0  0  0  0  0  0
   15.6019  -12.9008   17.4821 C   0  0  0  0  0  0  0  0  0  0  0  0
   17.1337  -12.7413   17.4262 C   0  0  0  0  0  0  0  0  0  0  0  0
   17.4184  -11.7691   18.4660 N   0  0  0  0  0  0  0  0  0  0  0  0
   16.2544  -11.3473   19.1700 C   0  0  0  0  0  0  0  0  0  0  0  0
   16.3059  -10.6888   20.1640 O   0  0  0  0  0  0  0  0  0  0  0  0
   15.0552  -11.8125   18.3933 C   0  0  0  0  0  0  0  0  0  0  0  0
   12.4582  -10.5630   22.7227 C   0  0  0  0  0  0  0  0  0  0  0  0
   12.4886   -9.9219   21.5002 C   0  0  0  0  0  0  0  0  0  0  0  0
   12.9333  -10.5488   20.3495 C   0  0  0  0  0  0  0  0  0  0  0  0
   13.4271  -11.8590   20.3954 C   0  0  0  0  0  0  0  0  0  0  0  0
   13.3800  -12.5156   21.6272 C   0  0  0  0  0  0  0  0  0  0  0  0
   12.9143  -11.8904   22.7674 C   0  0  0  0  0  0  0  0  0  0  0  0
   12.3726   -8.7090   24.3227 N   0  0  0  0  0  0  0  0  0  0  0  0
   11.9454   -9.9049   23.9543 C   0  0  0  0  0  0  0  0  0  0  0  0
   11.0364  -10.5220   24.7337 N   0  0  0  0  0  0  0  0  0  0  0  0
   12.0203   -8.2911   25.1415 H   0  0  0  0  0  0  0  0  0  0  0  0
   10.7030  -10.0784   25.5468 H   0  0  0  0  0  0  0  0  0  0  0  0
   10.7056  -11.4167   24.4901 H   0  0  0  0  0  0  0  0  0  0  0  0
   17.6338  -12.2047   16.0806 C   0  0  0  0  0  0  0  0  0  0  0  0
   17.2979  -10.7349   15.8304 C   0  0  0  0  0  0  0  0  0  0  0  0
   17.1328  -13.0954   14.9711 C   0  0  0  0  0  0  0  0  0  0  0  0
   18.7178  -11.7500   19.1757 C   0  0  0  0  0  0  0  0  0  0  0  0
   18.5882  -12.8251   20.2490 C   0  0  0  0  0  0  0  0  0  0  0  0
   18.1822  -14.0995   19.9209 C   0  0  0  0  0  0  0  0  0  0  0  0
   18.0216  -15.0989   20.8715 C   0  0  0  0  0  0  0  0  0  0  0  0
   18.2910  -14.7899   22.1946 C   0  0  0  0  0  0  0  0  0  0  0  0
   18.7020  -13.5192   22.5597 C   0  0  0  0  0  0  0  0  0  0  0  0
   18.8478  -12.5311   21.5889 C   0  0  0  0  0  0  0  0  0  0  0  0
   18.1314  -16.0530   23.4376 Cl  0  0  0  0  0  0  0  0  0  0  0  0
 19 20  2  0  0  0
 20 21  1  0  0  0
 20 13  1  0  0  0
 13 14  2  0  0  0
 13 18  1  0  0  0
 14 15  1  0  0  0
 15 16  2  0  0  0
 16 17  1  0  0  0
 16  1  1  0  0  0
 17 18  2  0  0  0
  1  2  1  0  0  0
  1 12  1  0  0  0
  2  3  1  0  0  0
  2  6  1  0  0  0
  3  4  1  0  0  0
  4  5  1  0  0  0
  5  6  1  0  0  0
  6  7  1  0  0  0
  7  8  1  0  0  0
  7 12  1  0  0  0
  8  9  1  0  0  0
  8 25  1  0  0  0
  9 10  1  0  0  0
  9 28  1  0  0  0
 10 11  2  0  0  0
 10 12  1  0  0  0
 28 29  1  0  0  0
 29 30  2  0  0  0
 29 34  1  0  0  0
 30 31  1  0  0  0
 31 32  2  0  0  0
 32 33  1  0  0  0
 32 35  1  0  0  0
 33 34  2  0  0  0
 25 26  1  0  0  0
 25 27  1  0  0  0
 19 22  1  0  0  0
 21 23  1  0  0  0
 21 24  1  0  0  0
M  END
> <minimizedAffinity>
-9.03962

$$$$
2CF8_ESH_H_1246


 35 39  0  0  0  0  0  0  0  0999 V2000
   15.3464  -14.9679   18.5986 C   0  0  0  0  0  0  0  0  0  0  0  0
   14.2733  -14.9304   19.6273 N   0  0  0  0  0  0  0  0  0  0  0  0
   12.9254  -15.2282   19.0583 C   0  0  0  0  0  0  0  0  0  0  0  0
   12.5390  -16.6244   19.5236 C   0  0  0  0  0  0  0  0  0  0  0  0
   13.7697  -17.2324   20.1925 C   0  0  0  0  0  0  0  0  0  0  0  0
   14.5936  -16.0069   20.5821 C   0  0  0  0  0  0  0  0  0  0  0  0
   16.1103  -16.1200   20.5590 C   0  0  0  0  0  0  0  0  0  0  0  0
   16.8072  -15.6971   21.8669 C   0  0  0  0  0  0  0  0  0  0  0  0
   17.4427  -14.4367   21.5283 N   0  0  0  0  0  0  0  0  0  0  0  0
   17.1873  -14.0243   20.1892 C   0  0  0  0  0  0  0  0  0  0  0  0
   17.4781  -12.9409   19.7822 O   0  0  0  0  0  0  0  0  0  0  0  0
   16.5961  -15.1940   19.4543 C   0  0  0  0  0  0  0  0  0  0  0  0
   15.4141  -11.6423   15.8317 C   0  0  0  0  0  0  0  0  0  0  0  0
   16.0611  -12.8321   15.5628 C   0  0  0  0  0  0  0  0  0  0  0  0
   16.0226  -13.9060   16.4346 C   0  0  0  0  0  0  0  0  0  0  0  0
   15.3607  -13.8036   17.6650 C   0  0  0  0  0  0  0  0  0  0  0  0
   14.6900  -12.6077   17.9309 C   0  0  0  0  0  0  0  0  0  0  0  0
   14.7149  -11.5475   17.0459 C   0  0  0  0  0  0  0  0  0  0  0  0
   14.6696   -9.4308   15.0839 N   0  0  0  0  0  0  0  0  0  0  0  0
   15.4216  -10.4992   14.8799 C   0  0  0  0  0  0  0  0  0  0  0  0
   16.1912  -10.5320   13.7750 N   0  0  0  0  0  0  0  0  0  0  0  0
   14.6893   -8.6850   14.4415 H   0  0  0  0  0  0  0  0  0  0  0  0
   16.1894   -9.7706   13.1510 H   0  0  0  0  0  0  0  0  0  0  0  0
   16.7556  -11.3176   13.5913 H   0  0  0  0  0  0  0  0  0  0  0  0
   17.8748  -16.6946   22.3292 C   0  0  0  0  0  0  0  0  0  0  0  0
   18.0871  -17.8694   21.3749 C   0  0  0  0  0  0  0  0  0  0  0  0
   17.5543  -17.1551   23.7294 C   0  0  0  0  0  0  0  0  0  0  0  0
   17.6960  -13.3960   22.5508 C   0  0  0  0  0  0  0  0  0  0  0  0
   19.1428  -13.6172   22.9777 C   0  0  0  0  0  0  0  0  0  0  0  0
   19.4514  -13.9110   24.2874 C   0  0  0  0  0  0  0  0  0  0  0  0
   20.7575  -14.0892   24.7238 C   0  0  0  0  0  0  0  0  0  0  0  0
   21.7776  -13.9715   23.7943 C   0  0  0  0  0  0  0  0  0  0  0  0
   21.5033  -13.6780   22.4692 C   0  0  0  0  0  0  0  0  0  0  0  0
   20.1853  -13.4954   22.0573 C   0  0  0  0  0  0  0  0  0  0  0  0
   23.4620  -14.2278   24.3071 Cl  0  0  0  0  0  0  0  0  0  0  0  0
 19 20  2  0  0  0
 20 21  1  0  0  0
 20 13  1  0  0  0
 13 14  2  0  0  0
 13 18  1  0  0  0
 14 15  1  0  0  0
 15 16  2  0  0  0
 16 17  1  0  0  0
 16  1  1  0  0  0
 17 18  2  0  0  0
  1  2  1  0  0  0
  1 12  1  0  0  0
  2  3  1  0  0  0
  2  6  1  0  0  0
  3  4  1  0  0  0
  4  5  1  0  0  0
  5  6  1  0  0  0
  6  7  1  0  0  0
  7  8  1  0  0  0
  7 12  1  0  0  0
  8  9  1  0  0  0
  8 25  1  0  0  0
  9 10  1  0  0  0
  9 28  1  0  0  0
 10 11  2  0  0  0
 10 12  1  0  0  0
 28 29  1  0  0  0
 29 30  2  0  0  0
 29 34  1  0  0  0
 30 31  1  0  0  0
 31 32  2  0  0  0
 32 33  1  0  0  0
 32 35  1  0  0  0
 33 34  2  0  0  0
 25 26  1  0  0  0
 25 27  1  0  0  0
 19 22  1  0  0  0
 21 23  1  0  0  0
 21 24  1  0  0  0
M  END
> <minimizedAffinity>
-8.92589

$$$$
