3LKA_M4S_A_1


 14 14  0  0  0  0  0  0  0  0999 V2000
    5.2854   -6.9818    9.4856 C   0  0  0  0  0  0  0  0  0  0  0  0
    4.0235   -6.4479    9.2778 C   0  0  0  0  0  0  0  0  0  0  0  0
    3.6085   -6.0478    8.0134 C   0  0  0  0  0  0  0  0  0  0  0  0
    4.4589   -6.2122    6.9162 C   0  0  0  0  0  0  0  0  0  0  0  0
    6.1598   -7.1316    8.4098 C   0  0  0  0  0  0  0  0  0  0  0  0
    5.7411   -6.7442    7.1256 C   0  0  0  0  0  0  0  0  0  0  0  0
    8.4445   -7.3578    7.4688 N   0  0  0  0  0  0  0  0  0  0  0  0
    7.6337   -7.7442    8.6522 S   0  0  0  0  0  0  0  0  0  0  0  0
    8.1464   -7.0276    9.8561 O   0  0  0  0  0  0  0  0  0  0  0  0
    7.7287   -9.2066    8.9303 O   0  0  0  0  0  0  0  0  0  0  0  0
    9.3916   -7.7224    7.5718 H   0  0  0  0  0  0  0  0  0  0  0  0
    8.4777   -6.3409    7.3967 H   0  0  0  0  0  0  0  0  0  0  0  0
    2.3524   -5.5081    7.8866 O   0  0  0  0  0  0  0  0  0  0  0  0
    1.6540   -5.5675    6.6467 C   0  0  0  0  0  0  0  0  0  0  0  0
  1  2  2  0  0  0
  1  5  1  0  0  0
  7  8  1  0  0  0
 13  3  1  0  0  0
 13 14  1  0  0  0
  8  9  2  0  0  0
  8 10  2  0  0  0
  8  5  1  0  0  0
  2  3  1  0  0  0
  3  4  2  0  0  0
  4  6  1  0  0  0
  5  6  2  0  0  0
  7 11  1  0  0  0
  7 12  1  0  0  0
M  END
> <minimizedAffinity>
-7.12208

$$$$
3LKA_M4S_A_1


 14 14  0  0  0  0  0  0  0  0999 V2000
    6.7723   -7.1515    7.5010 C   0  0  0  0  0  0  0  0  0  0  0  0
    5.4956   -6.6502    7.6999 C   0  0  0  0  0  0  0  0  0  0  0  0
    4.9199   -6.6229    8.9643 C   0  0  0  0  0  0  0  0  0  0  0  0
    5.6447   -7.0767   10.0702 C   0  0  0  0  0  0  0  0  0  0  0  0
    7.5040   -7.6329    8.5860 C   0  0  0  0  0  0  0  0  0  0  0  0
    6.9345   -7.5937    9.8700 C   0  0  0  0  0  0  0  0  0  0  0  0
    9.5193   -7.5546    7.1406 N   0  0  0  0  0  0  0  0  0  0  0  0
    8.9875   -8.2264    8.3542 S   0  0  0  0  0  0  0  0  0  0  0  0
    9.7637   -7.7771    9.5464 O   0  0  0  0  0  0  0  0  0  0  0  0
    9.1243   -9.7092    8.2666 O   0  0  0  0  0  0  0  0  0  0  0  0
   10.4610   -7.8959    6.9481 H   0  0  0  0  0  0  0  0  0  0  0  0
    9.5478   -6.5467    7.2949 H   0  0  0  0  0  0  0  0  0  0  0  0
    3.6434   -6.1313    9.0824 O   0  0  0  0  0  0  0  0  0  0  0  0
    2.9902   -5.5221    7.9730 C   0  0  0  0  0  0  0  0  0  0  0  0
  1  2  2  0  0  0
  1  5  1  0  0  0
  7  8  1  0  0  0
 13  3  1  0  0  0
 13 14  1  0  0  0
  8  9  2  0  0  0
  8 10  2  0  0  0
  8  5  1  0  0  0
  2  3  1  0  0  0
  3  4  2  0  0  0
  4  6  1  0  0  0
  5  6  2  0  0  0
  7 11  1  0  0  0
  7 12  1  0  0  0
M  END
> <minimizedAffinity>
-7.04110

$$$$
3LKA_M4S_A_1


 14 14  0  0  0  0  0  0  0  0999 V2000
    6.6472   -7.1623    7.7313 C   0  0  0  0  0  0  0  0  0  0  0  0
    5.5641   -6.5811    7.0910 C   0  0  0  0  0  0  0  0  0  0  0  0
    4.4147   -6.2324    7.7898 C   0  0  0  0  0  0  0  0  0  0  0  0
    4.3498   -6.4367    9.1712 C   0  0  0  0  0  0  0  0  0  0  0  0
    6.5947   -7.3986    9.1045 C   0  0  0  0  0  0  0  0  0  0  0  0
    5.4419   -7.0339    9.8204 C   0  0  0  0  0  0  0  0  0  0  0  0
    7.6509   -9.5525    9.7382 N   0  0  0  0  0  0  0  0  0  0  0  0
    7.8517   -8.0848    9.8498 S   0  0  0  0  0  0  0  0  0  0  0  0
    9.0363   -7.6861    9.0353 O   0  0  0  0  0  0  0  0  0  0  0  0
    8.1199   -7.6719   11.2579 O   0  0  0  0  0  0  0  0  0  0  0  0
    8.4228  -10.0371   10.1962 H   0  0  0  0  0  0  0  0  0  0  0  0
    7.6194   -9.8175    8.7537 H   0  0  0  0  0  0  0  0  0  0  0  0
    3.3735   -5.6798    7.0858 O   0  0  0  0  0  0  0  0  0  0  0  0
    2.0632   -5.6265    7.6416 C   0  0  0  0  0  0  0  0  0  0  0  0
  1  2  2  0  0  0
  1  5  1  0  0  0
  7  8  1  0  0  0
 13  3  1  0  0  0
 13 14  1  0  0  0
  8  9  2  0  0  0
  8 10  2  0  0  0
  8  5  1  0  0  0
  2  3  1  0  0  0
  3  4  2  0  0  0
  4  6  1  0  0  0
  5  6  2  0  0  0
  7 11  1  0  0  0
  7 12  1  0  0  0
M  END
> <minimizedAffinity>
-6.92368

$$$$
3LKA_M4S_A_1


 14 14  0  0  0  0  0  0  0  0999 V2000
    5.8340   -6.7908    7.2090 C   0  0  0  0  0  0  0  0  0  0  0  0
    6.8936   -7.0414    8.0663 C   0  0  0  0  0  0  0  0  0  0  0  0
    6.7156   -7.0716    9.4441 C   0  0  0  0  0  0  0  0  0  0  0  0
    5.4417   -6.8793    9.9867 C   0  0  0  0  0  0  0  0  0  0  0  0
    4.5592   -6.5710    7.7295 C   0  0  0  0  0  0  0  0  0  0  0  0
    4.3685   -6.6159    9.1209 C   0  0  0  0  0  0  0  0  0  0  0  0
    3.1549   -7.4882    5.9010 N   0  0  0  0  0  0  0  0  0  0  0  0
    3.3258   -6.2689    6.7324 S   0  0  0  0  0  0  0  0  0  0  0  0
    2.1444   -6.1150    7.6302 O   0  0  0  0  0  0  0  0  0  0  0  0
    3.4109   -5.0385    5.8934 O   0  0  0  0  0  0  0  0  0  0  0  0
    2.3828   -7.3496    5.2490 H   0  0  0  0  0  0  0  0  0  0  0  0
    2.9517   -8.2852    6.5041 H   0  0  0  0  0  0  0  0  0  0  0  0
    7.8152   -7.3052   10.2325 O   0  0  0  0  0  0  0  0  0  0  0  0
    8.0402   -8.5875   10.8101 C   0  0  0  0  0  0  0  0  0  0  0  0
  1  2  2  0  0  0
  1  5  1  0  0  0
  7  8  1  0  0  0
 13  3  1  0  0  0
 13 14  1  0  0  0
  8  9  2  0  0  0
  8 10  2  0  0  0
  8  5  1  0  0  0
  2  3  1  0  0  0
  3  4  2  0  0  0
  4  6  1  0  0  0
  5  6  2  0  0  0
  7 11  1  0  0  0
  7 12  1  0  0  0
M  END
> <minimizedAffinity>
-6.86682

$$$$
3LKA_M4S_A_1


 14 14  0  0  0  0  0  0  0  0999 V2000
    4.3842   -6.1457    6.5011 C   0  0  0  0  0  0  0  0  0  0  0  0
    5.5153   -6.6188    7.1472 C   0  0  0  0  0  0  0  0  0  0  0  0
    5.4931   -6.9394    8.4991 C   0  0  0  0  0  0  0  0  0  0  0  0
    4.3045   -6.8179    9.2249 C   0  0  0  0  0  0  0  0  0  0  0  0
    3.1941   -5.9925    7.2113 C   0  0  0  0  0  0  0  0  0  0  0  0
    3.1599   -6.3300    8.5749 C   0  0  0  0  0  0  0  0  0  0  0  0
    1.0583   -4.7643    7.5056 N   0  0  0  0  0  0  0  0  0  0  0  0
    1.8784   -5.4319    6.4621 S   0  0  0  0  0  0  0  0  0  0  0  0
    2.3950   -4.4060    5.5102 O   0  0  0  0  0  0  0  0  0  0  0  0
    1.0741   -6.4081    5.6715 O   0  0  0  0  0  0  0  0  0  0  0  0
    0.2091   -4.3898    7.0827 H   0  0  0  0  0  0  0  0  0  0  0  0
    1.5938   -4.0036    7.9239 H   0  0  0  0  0  0  0  0  0  0  0  0
    6.6570   -7.3826    9.0771 O   0  0  0  0  0  0  0  0  0  0  0  0
    6.6963   -7.7466   10.4535 C   0  0  0  0  0  0  0  0  0  0  0  0
  1  2  2  0  0  0
  1  5  1  0  0  0
  7  8  1  0  0  0
 13  3  1  0  0  0
 13 14  1  0  0  0
  8  9  2  0  0  0
  8 10  2  0  0  0
  8  5  1  0  0  0
  2  3  1  0  0  0
  3  4  2  0  0  0
  4  6  1  0  0  0
  5  6  2  0  0  0
  7 11  1  0  0  0
  7 12  1  0  0  0
M  END
> <minimizedAffinity>
-6.79832

$$$$
3LKA_M4S_A_1


 14 14  0  0  0  0  0  0  0  0999 V2000
    6.4435   -7.0330    7.8514 C   0  0  0  0  0  0  0  0  0  0  0  0
    7.7481   -7.3727    8.1728 C   0  0  0  0  0  0  0  0  0  0  0  0
    8.1178   -7.6587    9.4814 C   0  0  0  0  0  0  0  0  0  0  0  0
    7.1576   -7.6389   10.4972 C   0  0  0  0  0  0  0  0  0  0  0  0
    5.4744   -6.9822    8.8526 C   0  0  0  0  0  0  0  0  0  0  0  0
    5.8374   -7.2860   10.1757 C   0  0  0  0  0  0  0  0  0  0  0  0
    3.7412   -7.0128    7.0773 N   0  0  0  0  0  0  0  0  0  0  0  0
    3.9564   -6.5769    8.4811 S   0  0  0  0  0  0  0  0  0  0  0  0
    3.1119   -7.4059    9.3895 O   0  0  0  0  0  0  0  0  0  0  0  0
    3.5609   -5.1527    8.6815 O   0  0  0  0  0  0  0  0  0  0  0  0
    2.7908   -6.7788    6.7905 H   0  0  0  0  0  0  0  0  0  0  0  0
    3.8782   -8.0213    7.0097 H   0  0  0  0  0  0  0  0  0  0  0  0
    9.4328   -7.9671    9.7284 O   0  0  0  0  0  0  0  0  0  0  0  0
    9.8220   -8.5743   10.9566 C   0  0  0  0  0  0  0  0  0  0  0  0
  1  2  2  0  0  0
  1  5  1  0  0  0
  7  8  1  0  0  0
 13  3  1  0  0  0
 13 14  1  0  0  0
  8  9  2  0  0  0
  8 10  2  0  0  0
  8  5  1  0  0  0
  2  3  1  0  0  0
  3  4  2  0  0  0
  4  6  1  0  0  0
  5  6  2  0  0  0
  7 11  1  0  0  0
  7 12  1  0  0  0
M  END
> <minimizedAffinity>
-6.19218

$$$$
3LKA_M4S_A_1


 14 14  0  0  0  0  0  0  0  0999 V2000
    1.3131   -5.5663    3.5846 C   0  0  0  0  0  0  0  0  0  0  0  0
    1.0546   -6.5783    2.6739 C   0  0  0  0  0  0  0  0  0  0  0  0
    1.2422   -7.9143    3.0071 C   0  0  0  0  0  0  0  0  0  0  0  0
    1.6682   -8.2587    4.2932 C   0  0  0  0  0  0  0  0  0  0  0  0
    1.7632   -5.8854    4.8653 C   0  0  0  0  0  0  0  0  0  0  0  0
    1.9397   -7.2349    5.2146 C   0  0  0  0  0  0  0  0  0  0  0  0
    0.9495   -4.7119    6.8944 N   0  0  0  0  0  0  0  0  0  0  0  0
    2.0743   -4.7069    5.9240 S   0  0  0  0  0  0  0  0  0  0  0  0
    3.3232   -5.1410    6.6149 O   0  0  0  0  0  0  0  0  0  0  0  0
    2.3206   -3.3422    5.3745 O   0  0  0  0  0  0  0  0  0  0  0  0
    1.0974   -3.9809    7.5902 H   0  0  0  0  0  0  0  0  0  0  0  0
    0.9049   -5.6191    7.3586 H   0  0  0  0  0  0  0  0  0  0  0  0
    0.9856   -8.8616    2.0469 O   0  0  0  0  0  0  0  0  0  0  0  0
    0.1067   -8.5818    0.9616 C   0  0  0  0  0  0  0  0  0  0  0  0
  1  2  2  0  0  0
  1  5  1  0  0  0
  7  8  1  0  0  0
 13  3  1  0  0  0
 13 14  1  0  0  0
  8  9  2  0  0  0
  8 10  2  0  0  0
  8  5  1  0  0  0
  2  3  1  0  0  0
  3  4  2  0  0  0
  4  6  1  0  0  0
  5  6  2  0  0  0
  7 11  1  0  0  0
  7 12  1  0  0  0
M  END
> <minimizedAffinity>
-5.15001

$$$$
3LKA_M4S_A_1


 14 14  0  0  0  0  0  0  0  0999 V2000
    2.0251   -7.2318    5.2482 C   0  0  0  0  0  0  0  0  0  0  0  0
    1.7728   -8.2496    4.3421 C   0  0  0  0  0  0  0  0  0  0  0  0
    1.2763   -7.9790    3.0727 C   0  0  0  0  0  0  0  0  0  0  0  0
    1.0539   -6.6564    2.6786 C   0  0  0  0  0  0  0  0  0  0  0  0
    1.7866   -5.9067    4.8854 C   0  0  0  0  0  0  0  0  0  0  0  0
    1.2998   -5.6243    3.5979 C   0  0  0  0  0  0  0  0  0  0  0  0
    0.9307   -4.7317    6.8963 N   0  0  0  0  0  0  0  0  0  0  0  0
    2.0706   -4.7208    5.9436 S   0  0  0  0  0  0  0  0  0  0  0  0
    3.3123   -5.1408    6.6559 O   0  0  0  0  0  0  0  0  0  0  0  0
    2.3133   -3.3564    5.3919 O   0  0  0  0  0  0  0  0  0  0  0  0
    1.0612   -3.9964    7.5910 H   0  0  0  0  0  0  0  0  0  0  0  0
    0.8870   -5.6372    7.3638 H   0  0  0  0  0  0  0  0  0  0  0  0
    1.0307   -9.0393    2.2357 O   0  0  0  0  0  0  0  0  0  0  0  0
    0.2672   -8.8684    1.0456 C   0  0  0  0  0  0  0  0  0  0  0  0
  1  2  2  0  0  0
  1  5  1  0  0  0
  7  8  1  0  0  0
 13  3  1  0  0  0
 13 14  1  0  0  0
  8  9  2  0  0  0
  8 10  2  0  0  0
  8  5  1  0  0  0
  2  3  1  0  0  0
  3  4  2  0  0  0
  4  6  1  0  0  0
  5  6  2  0  0  0
  7 11  1  0  0  0
  7 12  1  0  0  0
M  END
> <minimizedAffinity>
-5.11255

$$$$
3LKA_M4S_A_1


 14 14  0  0  0  0  0  0  0  0999 V2000
    1.8647   -5.2859    6.7875 C   0  0  0  0  0  0  0  0  0  0  0  0
    1.0626   -5.3274    5.6581 C   0  0  0  0  0  0  0  0  0  0  0  0
    1.1293   -6.3894    4.7643 C   0  0  0  0  0  0  0  0  0  0  0  0
    1.9943   -7.4584    5.0153 C   0  0  0  0  0  0  0  0  0  0  0  0
    2.7533   -6.3293    7.0446 C   0  0  0  0  0  0  0  0  0  0  0  0
    2.8145   -7.4142    6.1537 C   0  0  0  0  0  0  0  0  0  0  0  0
    5.0962   -6.2832    7.8601 N   0  0  0  0  0  0  0  0  0  0  0  0
    3.6953   -6.2774    8.3547 S   0  0  0  0  0  0  0  0  0  0  0  0
    3.3989   -4.9557    8.9799 O   0  0  0  0  0  0  0  0  0  0  0  0
    3.4755   -7.3222    9.3963 O   0  0  0  0  0  0  0  0  0  0  0  0
    5.7369   -6.2512    8.6532 H   0  0  0  0  0  0  0  0  0  0  0  0
    5.2502   -5.4688    7.2656 H   0  0  0  0  0  0  0  0  0  0  0  0
    0.3195   -6.3526    3.6560 O   0  0  0  0  0  0  0  0  0  0  0  0
    0.6889   -7.0306    2.4592 C   0  0  0  0  0  0  0  0  0  0  0  0
  1  2  2  0  0  0
  1  5  1  0  0  0
  7  8  1  0  0  0
 13  3  1  0  0  0
 13 14  1  0  0  0
  8  9  2  0  0  0
  8 10  2  0  0  0
  8  5  1  0  0  0
  2  3  1  0  0  0
  3  4  2  0  0  0
  4  6  1  0  0  0
  5  6  2  0  0  0
  7 11  1  0  0  0
  7 12  1  0  0  0
M  END
> <minimizedAffinity>
-5.06101

$$$$
3LKA_M4S_A_1


 14 14  0  0  0  0  0  0  0  0999 V2000
    0.8461   -6.6587    2.7315 C   0  0  0  0  0  0  0  0  0  0  0  0
    0.5578   -5.8567    3.8243 C   0  0  0  0  0  0  0  0  0  0  0  0
    0.9701   -6.2059    5.1045 C   0  0  0  0  0  0  0  0  0  0  0  0
    1.7192   -7.3694    5.3025 C   0  0  0  0  0  0  0  0  0  0  0  0
    1.5702   -7.8370    2.9091 C   0  0  0  0  0  0  0  0  0  0  0  0
    2.0044   -8.1883    4.1985 C   0  0  0  0  0  0  0  0  0  0  0  0
    3.3624   -8.6724    1.4101 N   0  0  0  0  0  0  0  0  0  0  0  0
    1.8982   -8.7773    1.6383 S   0  0  0  0  0  0  0  0  0  0  0  0
    1.5685  -10.1583    2.0963 O   0  0  0  0  0  0  0  0  0  0  0  0
    1.1271   -8.5273    0.3862 O   0  0  0  0  0  0  0  0  0  0  0  0
    3.6246   -9.2516    0.6125 H   0  0  0  0  0  0  0  0  0  0  0  0
    3.8598   -8.9927    2.2410 H   0  0  0  0  0  0  0  0  0  0  0  0
    0.6303   -5.3734    6.1422 O   0  0  0  0  0  0  0  0  0  0  0  0
    1.4615   -5.2651    7.2936 C   0  0  0  0  0  0  0  0  0  0  0  0
  1  2  2  0  0  0
  1  5  1  0  0  0
  7  8  1  0  0  0
 13  3  1  0  0  0
 13 14  1  0  0  0
  8  9  2  0  0  0
  8 10  2  0  0  0
  8  5  1  0  0  0
  2  3  1  0  0  0
  3  4  2  0  0  0
  4  6  1  0  0  0
  5  6  2  0  0  0
  7 11  1  0  0  0
  7 12  1  0  0  0
M  END
> <minimizedAffinity>
-4.28217

$$$$
