4IIC_IFM_A_944


 14 14  0  0  0  0  0  0  0  0999 V2000
   19.8865  -16.9947   25.7817 O   0  0  0  0  0  0  0  0  0  0  0  0
   20.4929  -17.8064   24.7715 C   0  0  0  0  0  0  0  0  0  0  0  0
   21.4266  -18.7842   25.4534 C   0  0  0  0  0  0  0  0  0  0  0  0
   22.4996  -18.1052   26.1025 O   0  0  0  0  0  0  0  0  0  0  0  0
   22.1010  -19.7139   24.3595 C   0  0  0  0  0  0  0  0  0  0  0  0
   21.0639  -20.4622   23.5645 N   0  0  0  0  0  0  0  0  0  0  0  0
   20.0988  -19.4812   22.9057 C   0  0  0  0  0  0  0  0  0  0  0  0
   19.4261  -18.7190   24.0053 C   0  0  0  0  0  0  0  0  0  0  0  0
   20.5676  -16.4600   26.2188 H   0  0  0  0  0  0  0  0  0  0  0  0
   23.0131  -17.6096   25.4456 H   0  0  0  0  0  0  0  0  0  0  0  0
   20.5435  -21.0807   24.1866 H   0  0  0  0  0  0  0  0  0  0  0  0
   18.3882  -17.7746   23.2799 C   0  0  0  0  0  0  0  0  0  0  0  0
   18.9271  -17.1487   22.0346 O   0  0  0  0  0  0  0  0  0  0  0  0
   19.6877  -16.5892   22.2569 H   0  0  0  0  0  0  0  0  0  0  0  0
  1  2  1  0  0  0
  2  3  1  0  0  0
  2  8  1  0  0  0
  3  4  1  0  0  0
  3  5  1  0  0  0
  5  6  1  0  0  0
  6  7  1  0  0  0
  7  8  1  0  0  0
  8 12  1  0  0  0
 12 13  1  0  0  0
  1  9  1  0  0  0
  4 10  1  0  0  0
  6 11  1  0  0  0
 13 14  1  0  0  0
M  END
> <minimizedAffinity>
-6.84230

$$$$
4IIC_IFM_A_944


 14 14  0  0  0  0  0  0  0  0999 V2000
   18.6212  -16.9362   24.4666 O   0  0  0  0  0  0  0  0  0  0  0  0
   19.6790  -17.7323   23.9243 C   0  0  0  0  0  0  0  0  0  0  0  0
   20.4727  -18.3070   25.0787 C   0  0  0  0  0  0  0  0  0  0  0  0
   21.1086  -17.2760   25.8310 O   0  0  0  0  0  0  0  0  0  0  0  0
   21.6435  -19.2130   24.5096 C   0  0  0  0  0  0  0  0  0  0  0  0
   21.1041  -20.3266   23.6512 N   0  0  0  0  0  0  0  0  0  0  0  0
   20.2730  -19.7527   22.5077 C   0  0  0  0  0  0  0  0  0  0  0  0
   19.1317  -19.0047   23.1246 C   0  0  0  0  0  0  0  0  0  0  0  0
   18.9975  -16.1785   24.9413 H   0  0  0  0  0  0  0  0  0  0  0  0
   21.7225  -16.7898   25.2586 H   0  0  0  0  0  0  0  0  0  0  0  0
   20.5183  -20.9376   24.2203 H   0  0  0  0  0  0  0  0  0  0  0  0
   18.2637  -18.4957   21.9069 C   0  0  0  0  0  0  0  0  0  0  0  0
   18.5085  -17.0621   21.5638 O   0  0  0  0  0  0  0  0  0  0  0  0
   18.2648  -16.5029   22.3180 H   0  0  0  0  0  0  0  0  0  0  0  0
  1  2  1  0  0  0
  2  3  1  0  0  0
  2  8  1  0  0  0
  3  4  1  0  0  0
  3  5  1  0  0  0
  5  6  1  0  0  0
  6  7  1  0  0  0
  7  8  1  0  0  0
  8 12  1  0  0  0
 12 13  1  0  0  0
  1  9  1  0  0  0
  4 10  1  0  0  0
  6 11  1  0  0  0
 13 14  1  0  0  0
M  END
> <minimizedAffinity>
-6.73801

$$$$
4IIC_IFM_A_944


 14 14  0  0  0  0  0  0  0  0999 V2000
   20.8159  -19.6689   22.3221 O   0  0  0  0  0  0  0  0  0  0  0  0
   20.4551  -19.2741   23.6491 C   0  0  0  0  0  0  0  0  0  0  0  0
   21.7293  -19.0843   24.4448 C   0  0  0  0  0  0  0  0  0  0  0  0
   22.4381  -20.3138   24.5842 O   0  0  0  0  0  0  0  0  0  0  0  0
   21.3632  -18.6259   25.9184 C   0  0  0  0  0  0  0  0  0  0  0  0
   20.5664  -17.3481   25.9105 N   0  0  0  0  0  0  0  0  0  0  0  0
   19.2995  -17.5244   25.0789 C   0  0  0  0  0  0  0  0  0  0  0  0
   19.7308  -17.8486   23.6819 C   0  0  0  0  0  0  0  0  0  0  0  0
   21.2506  -20.5356   22.3495 H   0  0  0  0  0  0  0  0  0  0  0  0
   21.8836  -20.9550   25.0557 H   0  0  0  0  0  0  0  0  0  0  0  0
   21.1321  -16.6004   25.5088 H   0  0  0  0  0  0  0  0  0  0  0  0
   18.3929  -17.9471   22.8478 C   0  0  0  0  0  0  0  0  0  0  0  0
   18.5779  -17.6503   21.3950 O   0  0  0  0  0  0  0  0  0  0  0  0
   18.8927  -16.7390   21.2887 H   0  0  0  0  0  0  0  0  0  0  0  0
  1  2  1  0  0  0
  2  3  1  0  0  0
  2  8  1  0  0  0
  3  4  1  0  0  0
  3  5  1  0  0  0
  5  6  1  0  0  0
  6  7  1  0  0  0
  7  8  1  0  0  0
  8 12  1  0  0  0
 12 13  1  0  0  0
  1  9  1  0  0  0
  4 10  1  0  0  0
  6 11  1  0  0  0
 13 14  1  0  0  0
M  END
> <minimizedAffinity>
-6.65412

$$$$
4IIC_IFM_A_944


 14 14  0  0  0  0  0  0  0  0999 V2000
   22.2915  -19.2254   23.8071 O   0  0  0  0  0  0  0  0  0  0  0  0
   20.9436  -18.9676   24.2116 C   0  0  0  0  0  0  0  0  0  0  0  0
   20.9669  -17.8556   25.2392 C   0  0  0  0  0  0  0  0  0  0  0  0
   21.6567  -18.2593   26.4202 O   0  0  0  0  0  0  0  0  0  0  0  0
   19.4823  -17.5318   25.6941 C   0  0  0  0  0  0  0  0  0  0  0  0
   18.6272  -17.1306   24.5212 N   0  0  0  0  0  0  0  0  0  0  0  0
   18.6310  -18.2335   23.4671 C   0  0  0  0  0  0  0  0  0  0  0  0
   20.0477  -18.4041   23.0127 C   0  0  0  0  0  0  0  0  0  0  0  0
   22.7966  -19.5644   24.5627 H   0  0  0  0  0  0  0  0  0  0  0  0
   21.2043  -19.0215   26.8143 H   0  0  0  0  0  0  0  0  0  0  0  0
   18.9966  -16.2722   24.1125 H   0  0  0  0  0  0  0  0  0  0  0  0
   19.9888  -19.4978   21.8744 C   0  0  0  0  0  0  0  0  0  0  0  0
   20.5738  -20.8104   22.2839 O   0  0  0  0  0  0  0  0  0  0  0  0
   21.5135  -20.6940   22.4944 H   0  0  0  0  0  0  0  0  0  0  0  0
  1  2  1  0  0  0
  2  3  1  0  0  0
  2  8  1  0  0  0
  3  4  1  0  0  0
  3  5  1  0  0  0
  5  6  1  0  0  0
  6  7  1  0  0  0
  7  8  1  0  0  0
  8 12  1  0  0  0
 12 13  1  0  0  0
  1  9  1  0  0  0
  4 10  1  0  0  0
  6 11  1  0  0  0
 13 14  1  0  0  0
M  END
> <minimizedAffinity>
-6.56119

$$$$
4IIC_IFM_A_944


 14 14  0  0  0  0  0  0  0  0999 V2000
   20.9956  -20.6504   23.4883 O   0  0  0  0  0  0  0  0  0  0  0  0
   19.8693  -19.8655   23.0853 C   0  0  0  0  0  0  0  0  0  0  0  0
   19.9115  -18.5584   23.8486 C   0  0  0  0  0  0  0  0  0  0  0  0
   19.7540  -18.7740   25.2494 O   0  0  0  0  0  0  0  0  0  0  0  0
   18.6841  -17.6552   23.4086 C   0  0  0  0  0  0  0  0  0  0  0  0
   18.7073  -17.3868   21.9270 N   0  0  0  0  0  0  0  0  0  0  0  0
   18.7021  -18.7027   21.1549 C   0  0  0  0  0  0  0  0  0  0  0  0
   19.9422  -19.4467   21.5436 C   0  0  0  0  0  0  0  0  0  0  0  0
   20.9100  -20.8810   24.4266 H   0  0  0  0  0  0  0  0  0  0  0  0
   18.8946  -19.1911   25.4177 H   0  0  0  0  0  0  0  0  0  0  0  0
   19.5496  -16.8616   21.6925 H   0  0  0  0  0  0  0  0  0  0  0  0
   19.9291  -20.7605   20.6665 C   0  0  0  0  0  0  0  0  0  0  0  0
   21.0361  -21.7067   21.0012 O   0  0  0  0  0  0  0  0  0  0  0  0
   21.8898  -21.2793   20.8296 H   0  0  0  0  0  0  0  0  0  0  0  0
  1  2  1  0  0  0
  2  3  1  0  0  0
  2  8  1  0  0  0
  3  4  1  0  0  0
  3  5  1  0  0  0
  5  6  1  0  0  0
  6  7  1  0  0  0
  7  8  1  0  0  0
  8 12  1  0  0  0
 12 13  1  0  0  0
  1  9  1  0  0  0
  4 10  1  0  0  0
  6 11  1  0  0  0
 13 14  1  0  0  0
M  END
> <minimizedAffinity>
-6.26901

$$$$
4IIC_IFM_A_944


 14 14  0  0  0  0  0  0  0  0999 V2000
   21.7354  -20.4611   24.0945 O   0  0  0  0  0  0  0  0  0  0  0  0
   20.9610  -19.3573   23.6160 C   0  0  0  0  0  0  0  0  0  0  0  0
   19.9648  -19.8863   22.6058 C   0  0  0  0  0  0  0  0  0  0  0  0
   20.6260  -20.4222   21.4616 O   0  0  0  0  0  0  0  0  0  0  0  0
   19.0754  -18.6872   22.0700 C   0  0  0  0  0  0  0  0  0  0  0  0
   18.3500  -17.9998   23.1965 N   0  0  0  0  0  0  0  0  0  0  0  0
   19.3485  -17.4977   24.2350 C   0  0  0  0  0  0  0  0  0  0  0  0
   20.0703  -18.6965   24.7683 C   0  0  0  0  0  0  0  0  0  0  0  0
   22.2580  -20.8296   23.3651 H   0  0  0  0  0  0  0  0  0  0  0  0
   21.1457  -19.7247   21.0323 H   0  0  0  0  0  0  0  0  0  0  0  0
   17.7085  -18.6595   23.6368 H   0  0  0  0  0  0  0  0  0  0  0  0
   21.0341  -18.1359   25.8872 C   0  0  0  0  0  0  0  0  0  0  0  0
   22.4675  -18.0936   25.4670 O   0  0  0  0  0  0  0  0  0  0  0  0
   22.7750  -18.9934   25.2756 H   0  0  0  0  0  0  0  0  0  0  0  0
  1  2  1  0  0  0
  2  3  1  0  0  0
  2  8  1  0  0  0
  3  4  1  0  0  0
  3  5  1  0  0  0
  5  6  1  0  0  0
  6  7  1  0  0  0
  7  8  1  0  0  0
  8 12  1  0  0  0
 12 13  1  0  0  0
  1  9  1  0  0  0
  4 10  1  0  0  0
  6 11  1  0  0  0
 13 14  1  0  0  0
M  END
> <minimizedAffinity>
-6.18598

$$$$
4IIC_IFM_A_944


 14 14  0  0  0  0  0  0  0  0999 V2000
   21.0451  -20.4253   23.6450 O   0  0  0  0  0  0  0  0  0  0  0  0
   20.3623  -19.4474   22.8547 C   0  0  0  0  0  0  0  0  0  0  0  0
   19.7758  -20.1471   21.6466 C   0  0  0  0  0  0  0  0  0  0  0  0
   20.8014  -20.6765   20.8091 O   0  0  0  0  0  0  0  0  0  0  0  0
   18.9934  -19.0912   20.7586 C   0  0  0  0  0  0  0  0  0  0  0  0
   17.8991  -18.4199   21.5458 N   0  0  0  0  0  0  0  0  0  0  0  0
   18.4815  -17.7448   22.7839 C   0  0  0  0  0  0  0  0  0  0  0  0
   19.1058  -18.8195   23.6194 C   0  0  0  0  0  0  0  0  0  0  0  0
   21.7970  -20.7782   23.1440 H   0  0  0  0  0  0  0  0  0  0  0  0
   21.3650  -19.9536   20.4919 H   0  0  0  0  0  0  0  0  0  0  0  0
   17.2136  -19.1182   21.8335 H   0  0  0  0  0  0  0  0  0  0  0  0
   19.6254  -18.0852   24.9179 C   0  0  0  0  0  0  0  0  0  0  0  0
   20.9433  -17.4072   24.7273 O   0  0  0  0  0  0  0  0  0  0  0  0
   21.6179  -18.0680   24.5059 H   0  0  0  0  0  0  0  0  0  0  0  0
  1  2  1  0  0  0
  2  3  1  0  0  0
  2  8  1  0  0  0
  3  4  1  0  0  0
  3  5  1  0  0  0
  5  6  1  0  0  0
  6  7  1  0  0  0
  7  8  1  0  0  0
  8 12  1  0  0  0
 12 13  1  0  0  0
  1  9  1  0  0  0
  4 10  1  0  0  0
  6 11  1  0  0  0
 13 14  1  0  0  0
M  END
> <minimizedAffinity>
-6.15199

$$$$
4IIC_IFM_A_944


 14 14  0  0  0  0  0  0  0  0999 V2000
   20.5266  -20.7279   21.7483 O   0  0  0  0  0  0  0  0  0  0  0  0
   19.9255  -19.8932   22.7427 C   0  0  0  0  0  0  0  0  0  0  0  0
   21.0324  -19.3020   23.5902 C   0  0  0  0  0  0  0  0  0  0  0  0
   21.7319  -20.3176   24.3063 O   0  0  0  0  0  0  0  0  0  0  0  0
   20.3984  -18.3535   24.6921 C   0  0  0  0  0  0  0  0  0  0  0  0
   19.5878  -17.2514   24.0629 N   0  0  0  0  0  0  0  0  0  0  0  0
   18.4943  -17.8431   23.1787 C   0  0  0  0  0  0  0  0  0  0  0  0
   19.1755  -18.6331   22.1043 C   0  0  0  0  0  0  0  0  0  0  0  0
   20.9685  -21.4766   22.1786 H   0  0  0  0  0  0  0  0  0  0  0  0
   21.1164  -20.7788   24.8973 H   0  0  0  0  0  0  0  0  0  0  0  0
   20.1995  -16.6645   23.4956 H   0  0  0  0  0  0  0  0  0  0  0  0
   18.0110  -19.1606   21.1764 C   0  0  0  0  0  0  0  0  0  0  0  0
   18.4996  -19.7772   19.9060 O   0  0  0  0  0  0  0  0  0  0  0  0
   18.9753  -19.1112   19.3854 H   0  0  0  0  0  0  0  0  0  0  0  0
  1  2  1  0  0  0
  2  3  1  0  0  0
  2  8  1  0  0  0
  3  4  1  0  0  0
  3  5  1  0  0  0
  5  6  1  0  0  0
  6  7  1  0  0  0
  7  8  1  0  0  0
  8 12  1  0  0  0
 12 13  1  0  0  0
  1  9  1  0  0  0
  4 10  1  0  0  0
  6 11  1  0  0  0
 13 14  1  0  0  0
M  END
> <minimizedAffinity>
-6.05645

$$$$
4IIC_IFM_A_944


 14 14  0  0  0  0  0  0  0  0999 V2000
   18.2588  -16.7805   24.1788 O   0  0  0  0  0  0  0  0  0  0  0  0
   18.8131  -18.0142   23.7121 C   0  0  0  0  0  0  0  0  0  0  0  0
   18.7754  -18.0023   22.1984 C   0  0  0  0  0  0  0  0  0  0  0  0
   17.4336  -17.9719   21.7163 O   0  0  0  0  0  0  0  0  0  0  0  0
   19.4028  -19.3512   21.6483 C   0  0  0  0  0  0  0  0  0  0  0  0
   20.8197  -19.5290   22.1263 N   0  0  0  0  0  0  0  0  0  0  0  0
   20.8665  -19.5045   23.6510 C   0  0  0  0  0  0  0  0  0  0  0  0
   20.3608  -18.1637   24.0861 C   0  0  0  0  0  0  0  0  0  0  0  0
   17.3223  -16.7325   23.9309 H   0  0  0  0  0  0  0  0  0  0  0  0
   16.9625  -18.7632   22.0212 H   0  0  0  0  0  0  0  0  0  0  0  0
   21.3969  -18.7724   21.7590 H   0  0  0  0  0  0  0  0  0  0  0  0
   20.4986  -18.1597   25.6597 C   0  0  0  0  0  0  0  0  0  0  0  0
   20.3240  -16.8051   26.2658 O   0  0  0  0  0  0  0  0  0  0  0  0
   21.0163  -16.2114   25.9354 H   0  0  0  0  0  0  0  0  0  0  0  0
  1  2  1  0  0  0
  2  3  1  0  0  0
  2  8  1  0  0  0
  3  4  1  0  0  0
  3  5  1  0  0  0
  5  6  1  0  0  0
  6  7  1  0  0  0
  7  8  1  0  0  0
  8 12  1  0  0  0
 12 13  1  0  0  0
  1  9  1  0  0  0
  4 10  1  0  0  0
  6 11  1  0  0  0
 13 14  1  0  0  0
M  END
> <minimizedAffinity>
-5.74172

$$$$
4IIC_IFM_A_944


 14 14  0  0  0  0  0  0  0  0999 V2000
   18.2144  -17.0201   21.8299 O   0  0  0  0  0  0  0  0  0  0  0  0
   19.2896  -17.9582   21.9346 C   0  0  0  0  0  0  0  0  0  0  0  0
   19.5020  -18.2663   23.4018 C   0  0  0  0  0  0  0  0  0  0  0  0
   19.9265  -17.1072   24.1158 O   0  0  0  0  0  0  0  0  0  0  0  0
   20.6771  -19.3212   23.5507 C   0  0  0  0  0  0  0  0  0  0  0  0
   20.3711  -20.5890   22.7978 N   0  0  0  0  0  0  0  0  0  0  0  0
   20.1201  -20.2778   21.3255 C   0  0  0  0  0  0  0  0  0  0  0  0
   18.9340  -19.3658   21.2637 C   0  0  0  0  0  0  0  0  0  0  0  0
   18.4729  -16.1840   22.2482 H   0  0  0  0  0  0  0  0  0  0  0  0
   20.7687  -16.7932   23.7511 H   0  0  0  0  0  0  0  0  0  0  0  0
   19.5401  -21.0258   23.1966 H   0  0  0  0  0  0  0  0  0  0  0  0
   18.6694  -19.1341   19.7237 C   0  0  0  0  0  0  0  0  0  0  0  0
   19.3325  -17.9072   19.1871 O   0  0  0  0  0  0  0  0  0  0  0  0
   18.9800  -17.1250   19.6395 H   0  0  0  0  0  0  0  0  0  0  0  0
  1  2  1  0  0  0
  2  3  1  0  0  0
  2  8  1  0  0  0
  3  4  1  0  0  0
  3  5  1  0  0  0
  5  6  1  0  0  0
  6  7  1  0  0  0
  7  8  1  0  0  0
  8 12  1  0  0  0
 12 13  1  0  0  0
  1  9  1  0  0  0
  4 10  1  0  0  0
  6 11  1  0  0  0
 13 14  1  0  0  0
M  END
> <minimizedAffinity>
-5.69485

$$$$
