3HLL_I45_A_401


 31 33  0  0  0  0  0  0  0  0999 V2000
   35.2612   37.6971   21.4977 C   0  0  0  0  0  0  0  0  0  0  0  0
   34.7865   38.9140   21.8372 C   0  0  0  0  0  0  0  0  0  0  0  0
   34.4347   39.1876   23.2561 C   0  0  0  0  0  0  0  0  0  0  0  0
   34.6238   38.1401   24.1449 N   0  0  0  0  0  0  0  0  0  0  0  0
   35.1219   36.9071   23.7503 C   0  0  0  0  0  0  0  0  0  0  0  0
   35.4328   36.6645   22.4745 C   0  0  0  0  0  0  0  0  0  0  0  0
   34.5663   40.2625   20.6045 Br  0  0  0  0  0  0  0  0  0  0  0  0
   34.0057   40.2872   23.5672 O   0  0  0  0  0  0  0  0  0  0  0  0
   35.2923   35.8479   24.7830 C   0  0  0  0  0  0  0  0  0  0  0  0
   34.2295   38.3426   25.4758 C   0  0  0  0  0  0  0  0  0  0  0  0
   35.1751   38.8296   26.3601 C   0  0  0  0  0  0  0  0  0  0  0  0
   34.8065   39.0109   27.6785 C   0  0  0  0  0  0  0  0  0  0  0  0
   33.5313   38.7249   28.1090 C   0  0  0  0  0  0  0  0  0  0  0  0
   32.6017   38.2447   27.2214 C   0  0  0  0  0  0  0  0  0  0  0  0
   32.9452   38.0486   25.9014 C   0  0  0  0  0  0  0  0  0  0  0  0
   31.8799   37.5216   24.9972 C   0  0  0  0  0  0  0  0  0  0  0  0
   35.7877   39.5357   28.6412 C   0  0  0  0  0  0  0  0  0  0  0  0
   36.5213   40.4515   28.2875 O   0  0  0  0  0  0  0  0  0  0  0  0
   35.7567   38.9699   29.9039 N   0  0  0  0  0  0  0  0  0  0  0  0
   35.9559   37.5624   30.1730 C   0  0  0  0  0  0  0  0  0  0  0  0
   35.5879   39.5648   30.6700 H   0  0  0  0  0  0  0  0  0  0  0  0
   35.5825   37.4531   20.1634 O   0  0  0  0  0  0  0  0  0  0  0  0
   36.2776   36.2163   19.8699 C   0  0  0  0  0  0  0  0  0  0  0  0
   36.8951   36.5504   18.5611 C   0  0  0  0  0  0  0  0  0  0  0  0
   38.2244   36.9025   18.4786 C   0  0  0  0  0  0  0  0  0  0  0  0
   38.8159   37.2433   17.2899 C   0  0  0  0  0  0  0  0  0  0  0  0
   38.0611   37.2406   16.1475 C   0  0  0  0  0  0  0  0  0  0  0  0
   36.7287   36.8949   16.2016 C   0  0  0  0  0  0  0  0  0  0  0  0
   36.1464   36.5556   17.4063 C   0  0  0  0  0  0  0  0  0  0  0  0
   39.0000   36.9131   19.5693 F   0  0  0  0  0  0  0  0  0  0  0  0
   38.6472   37.5969   14.9903 F   0  0  0  0  0  0  0  0  0  0  0  0
 24 25  2  0  0  0
 24 29  1  0  0  0
 24 23  1  0  0  0
 25 26  1  0  0  0
 25 30  1  0  0  0
 26 27  2  0  0  0
 27 28  1  0  0  0
 27 31  1  0  0  0
 28 29  2  0  0  0
 23 22  1  0  0  0
 22  1  1  0  0  0
  1  2  2  0  0  0
  1  6  1  0  0  0
  2  3  1  0  0  0
  2  7  1  0  0  0
  3  4  1  0  0  0
  3  8  2  0  0  0
  4  5  1  0  0  0
  4 10  1  0  0  0
  5  6  2  0  0  0
  5  9  1  0  0  0
 10 11  2  0  0  0
 10 15  1  0  0  0
 11 12  1  0  0  0
 12 13  2  0  0  0
 12 17  1  0  0  0
 13 14  1  0  0  0
 14 15  2  0  0  0
 15 16  1  0  0  0
 17 18  2  0  0  0
 17 19  1  0  0  0
 19 20  1  0  0  0
 19 21  1  0  0  0
M  END
> <minimizedAffinity>
-10.26438

$$$$
3HLL_I45_A_401


 31 33  0  0  0  0  0  0  0  0999 V2000
   35.5548   36.4357   21.5113 C   0  0  0  0  0  0  0  0  0  0  0  0
   34.7513   35.4543   21.9724 C   0  0  0  0  0  0  0  0  0  0  0  0
   33.9683   35.6796   23.2165 C   0  0  0  0  0  0  0  0  0  0  0  0
   34.1319   36.9146   23.8256 N   0  0  0  0  0  0  0  0  0  0  0  0
   34.9648   37.8966   23.3100 C   0  0  0  0  0  0  0  0  0  0  0  0
   35.6692   37.6886   22.1948 C   0  0  0  0  0  0  0  0  0  0  0  0
   34.5772   33.8389   21.1082 Br  0  0  0  0  0  0  0  0  0  0  0  0
   33.2400   34.7946   23.6363 O   0  0  0  0  0  0  0  0  0  0  0  0
   35.0684   39.1920   24.0373 C   0  0  0  0  0  0  0  0  0  0  0  0
   33.4657   37.1289   25.0414 C   0  0  0  0  0  0  0  0  0  0  0  0
   34.1419   36.8223   26.2085 C   0  0  0  0  0  0  0  0  0  0  0  0
   33.4886   37.0062   27.4112 C   0  0  0  0  0  0  0  0  0  0  0  0
   32.2011   37.4891   27.4577 C   0  0  0  0  0  0  0  0  0  0  0  0
   31.5421   37.7919   26.2930 C   0  0  0  0  0  0  0  0  0  0  0  0
   32.1686   37.6117   25.0790 C   0  0  0  0  0  0  0  0  0  0  0  0
   31.3858   37.9615   23.8562 C   0  0  0  0  0  0  0  0  0  0  0  0
   34.1847   36.6972   28.6701 C   0  0  0  0  0  0  0  0  0  0  0  0
   33.7642   35.7753   29.3594 O   0  0  0  0  0  0  0  0  0  0  0  0
   35.3078   37.4592   28.9417 N   0  0  0  0  0  0  0  0  0  0  0  0
   35.3050   38.9001   29.0713 C   0  0  0  0  0  0  0  0  0  0  0  0
   36.1656   36.9894   29.0543 H   0  0  0  0  0  0  0  0  0  0  0  0
   36.2865   36.2091   20.3467 O   0  0  0  0  0  0  0  0  0  0  0  0
   36.3698   37.3021   19.3993 C   0  0  0  0  0  0  0  0  0  0  0  0
   35.7205   36.6889   18.2126 C   0  0  0  0  0  0  0  0  0  0  0  0
   36.4765   36.1958   17.1719 C   0  0  0  0  0  0  0  0  0  0  0  0
   35.9063   35.6498   16.0512 C   0  0  0  0  0  0  0  0  0  0  0  0
   34.5412   35.5980   15.9586 C   0  0  0  0  0  0  0  0  0  0  0  0
   33.7610   36.0861   16.9835 C   0  0  0  0  0  0  0  0  0  0  0  0
   34.3495   36.6346   18.1053 C   0  0  0  0  0  0  0  0  0  0  0  0
   37.8138   36.2213   17.2233 F   0  0  0  0  0  0  0  0  0  0  0  0
   33.9929   35.0790   14.8451 F   0  0  0  0  0  0  0  0  0  0  0  0
 24 25  2  0  0  0
 24 29  1  0  0  0
 24 23  1  0  0  0
 25 26  1  0  0  0
 25 30  1  0  0  0
 26 27  2  0  0  0
 27 28  1  0  0  0
 27 31  1  0  0  0
 28 29  2  0  0  0
 23 22  1  0  0  0
 22  1  1  0  0  0
  1  2  2  0  0  0
  1  6  1  0  0  0
  2  3  1  0  0  0
  2  7  1  0  0  0
  3  4  1  0  0  0
  3  8  2  0  0  0
  4  5  1  0  0  0
  4 10  1  0  0  0
  5  6  2  0  0  0
  5  9  1  0  0  0
 10 11  2  0  0  0
 10 15  1  0  0  0
 11 12  1  0  0  0
 12 13  2  0  0  0
 12 17  1  0  0  0
 13 14  1  0  0  0
 14 15  2  0  0  0
 15 16  1  0  0  0
 17 18  2  0  0  0
 17 19  1  0  0  0
 19 20  1  0  0  0
 19 21  1  0  0  0
M  END
> <minimizedAffinity>
-9.53764

$$$$
3HLL_I45_A_401


 31 33  0  0  0  0  0  0  0  0999 V2000
   35.4738   37.9685   21.5655 C   0  0  0  0  0  0  0  0  0  0  0  0
   35.0031   39.1784   21.9342 C   0  0  0  0  0  0  0  0  0  0  0  0
   34.6116   39.4057   23.3509 C   0  0  0  0  0  0  0  0  0  0  0  0
   34.7615   38.3249   24.2067 N   0  0  0  0  0  0  0  0  0  0  0  0
   35.2571   37.1006   23.7830 C   0  0  0  0  0  0  0  0  0  0  0  0
   35.6038   36.8996   22.5092 C   0  0  0  0  0  0  0  0  0  0  0  0
   34.8360   40.5726   20.7448 Br  0  0  0  0  0  0  0  0  0  0  0  0
   34.1861   40.4988   23.6884 O   0  0  0  0  0  0  0  0  0  0  0  0
   35.3838   36.0032   24.7816 C   0  0  0  0  0  0  0  0  0  0  0  0
   34.3294   38.4848   25.5316 C   0  0  0  0  0  0  0  0  0  0  0  0
   35.2552   38.9210   26.4622 C   0  0  0  0  0  0  0  0  0  0  0  0
   34.8488   39.0597   27.7747 C   0  0  0  0  0  0  0  0  0  0  0  0
   33.5560   38.7814   28.1548 C   0  0  0  0  0  0  0  0  0  0  0  0
   32.6465   38.3520   27.2217 C   0  0  0  0  0  0  0  0  0  0  0  0
   33.0276   38.1990   25.9063 C   0  0  0  0  0  0  0  0  0  0  0  0
   31.9821   37.7258   24.9507 C   0  0  0  0  0  0  0  0  0  0  0  0
   35.8084   39.5300   28.7861 C   0  0  0  0  0  0  0  0  0  0  0  0
   36.5364   40.4753   28.5061 O   0  0  0  0  0  0  0  0  0  0  0  0
   35.7644   38.8811   30.0078 N   0  0  0  0  0  0  0  0  0  0  0  0
   35.9762   37.4610   30.1862 C   0  0  0  0  0  0  0  0  0  0  0  0
   35.5764   39.4217   30.8088 H   0  0  0  0  0  0  0  0  0  0  0  0
   35.8326   37.7681   20.2335 O   0  0  0  0  0  0  0  0  0  0  0  0
   36.5564   36.5521   19.9232 C   0  0  0  0  0  0  0  0  0  0  0  0
   35.6813   35.9700   18.8738 C   0  0  0  0  0  0  0  0  0  0  0  0
   35.4614   34.6114   18.8136 C   0  0  0  0  0  0  0  0  0  0  0  0
   34.6819   34.0414   17.8407 C   0  0  0  0  0  0  0  0  0  0  0  0
   34.1078   34.8462   16.8934 C   0  0  0  0  0  0  0  0  0  0  0  0
   34.3130   36.2078   16.9283 C   0  0  0  0  0  0  0  0  0  0  0  0
   35.1019   36.7674   17.9134 C   0  0  0  0  0  0  0  0  0  0  0  0
   35.9986   33.7888   19.7226 F   0  0  0  0  0  0  0  0  0  0  0  0
   33.3620   34.2733   15.9314 F   0  0  0  0  0  0  0  0  0  0  0  0
 24 25  2  0  0  0
 24 29  1  0  0  0
 24 23  1  0  0  0
 25 26  1  0  0  0
 25 30  1  0  0  0
 26 27  2  0  0  0
 27 28  1  0  0  0
 27 31  1  0  0  0
 28 29  2  0  0  0
 23 22  1  0  0  0
 22  1  1  0  0  0
  1  2  2  0  0  0
  1  6  1  0  0  0
  2  3  1  0  0  0
  2  7  1  0  0  0
  3  4  1  0  0  0
  3  8  2  0  0  0
  4  5  1  0  0  0
  4 10  1  0  0  0
  5  6  2  0  0  0
  5  9  1  0  0  0
 10 11  2  0  0  0
 10 15  1  0  0  0
 11 12  1  0  0  0
 12 13  2  0  0  0
 12 17  1  0  0  0
 13 14  1  0  0  0
 14 15  2  0  0  0
 15 16  1  0  0  0
 17 18  2  0  0  0
 17 19  1  0  0  0
 19 20  1  0  0  0
 19 21  1  0  0  0
M  END
> <minimizedAffinity>
-9.34981

$$$$
3HLL_I45_A_401


 31 33  0  0  0  0  0  0  0  0999 V2000
   35.1879   37.6970   21.6789 C   0  0  0  0  0  0  0  0  0  0  0  0
   34.4806   38.7400   22.1618 C   0  0  0  0  0  0  0  0  0  0  0  0
   34.1794   38.8033   23.6168 C   0  0  0  0  0  0  0  0  0  0  0  0
   34.6595   37.7539   24.3859 N   0  0  0  0  0  0  0  0  0  0  0  0
   35.3893   36.7055   23.8454 C   0  0  0  0  0  0  0  0  0  0  0  0
   35.6541   36.6506   22.5377 C   0  0  0  0  0  0  0  0  0  0  0  0
   33.8787   40.1037   21.0826 Br  0  0  0  0  0  0  0  0  0  0  0  0
   33.5405   39.7454   24.0575 O   0  0  0  0  0  0  0  0  0  0  0  0
   35.8641   35.6281   24.7572 C   0  0  0  0  0  0  0  0  0  0  0  0
   34.3266   37.7462   25.7485 C   0  0  0  0  0  0  0  0  0  0  0  0
   33.3070   36.9055   26.1571 C   0  0  0  0  0  0  0  0  0  0  0  0
   32.9534   36.9059   27.4920 C   0  0  0  0  0  0  0  0  0  0  0  0
   33.5984   37.7125   28.4011 C   0  0  0  0  0  0  0  0  0  0  0  0
   34.6100   38.5401   27.9836 C   0  0  0  0  0  0  0  0  0  0  0  0
   34.9783   38.5639   26.6560 C   0  0  0  0  0  0  0  0  0  0  0  0
   36.0858   39.4919   26.2786 C   0  0  0  0  0  0  0  0  0  0  0  0
   31.8784   36.0161   27.9586 C   0  0  0  0  0  0  0  0  0  0  0  0
   31.3251   36.2752   29.0210 O   0  0  0  0  0  0  0  0  0  0  0  0
   31.5469   34.9737   27.1106 N   0  0  0  0  0  0  0  0  0  0  0  0
   32.4711   33.9487   26.6766 C   0  0  0  0  0  0  0  0  0  0  0  0
   30.6205   34.9265   26.7808 H   0  0  0  0  0  0  0  0  0  0  0  0
   35.4589   37.6482   20.3124 O   0  0  0  0  0  0  0  0  0  0  0  0
   35.6025   36.3353   19.7169 C   0  0  0  0  0  0  0  0  0  0  0  0
   36.4486   36.6572   18.5395 C   0  0  0  0  0  0  0  0  0  0  0  0
   35.9073   36.7006   17.2735 C   0  0  0  0  0  0  0  0  0  0  0  0
   36.6673   36.9670   16.1643 C   0  0  0  0  0  0  0  0  0  0  0  0
   38.0094   37.1910   16.3169 C   0  0  0  0  0  0  0  0  0  0  0  0
   38.5775   37.1512   17.5711 C   0  0  0  0  0  0  0  0  0  0  0  0
   37.7996   36.8801   18.6789 C   0  0  0  0  0  0  0  0  0  0  0  0
   34.5993   36.4932   17.0795 F   0  0  0  0  0  0  0  0  0  0  0  0
   38.7488   37.4308   15.2189 F   0  0  0  0  0  0  0  0  0  0  0  0
 24 25  2  0  0  0
 24 29  1  0  0  0
 24 23  1  0  0  0
 25 26  1  0  0  0
 25 30  1  0  0  0
 26 27  2  0  0  0
 27 28  1  0  0  0
 27 31  1  0  0  0
 28 29  2  0  0  0
 23 22  1  0  0  0
 22  1  1  0  0  0
  1  2  2  0  0  0
  1  6  1  0  0  0
  2  3  1  0  0  0
  2  7  1  0  0  0
  3  4  1  0  0  0
  3  8  2  0  0  0
  4  5  1  0  0  0
  4 10  1  0  0  0
  5  6  2  0  0  0
  5  9  1  0  0  0
 10 11  2  0  0  0
 10 15  1  0  0  0
 11 12  1  0  0  0
 12 13  2  0  0  0
 12 17  1  0  0  0
 13 14  1  0  0  0
 14 15  2  0  0  0
 15 16  1  0  0  0
 17 18  2  0  0  0
 17 19  1  0  0  0
 19 20  1  0  0  0
 19 21  1  0  0  0
M  END
> <minimizedAffinity>
-9.05503

$$$$
3HLL_I45_A_401


 31 33  0  0  0  0  0  0  0  0999 V2000
   34.4911   36.7328   22.7546 C   0  0  0  0  0  0  0  0  0  0  0  0
   34.7553   35.4895   22.3009 C   0  0  0  0  0  0  0  0  0  0  0  0
   35.1074   35.2974   20.8688 C   0  0  0  0  0  0  0  0  0  0  0  0
   35.1344   36.4430   20.0877 N   0  0  0  0  0  0  0  0  0  0  0  0
   34.8623   37.7026   20.6007 C   0  0  0  0  0  0  0  0  0  0  0  0
   34.5426   37.8701   21.8864 C   0  0  0  0  0  0  0  0  0  0  0  0
   34.7069   34.0120   23.3968 Br  0  0  0  0  0  0  0  0  0  0  0  0
   35.3477   34.1746   20.4548 O   0  0  0  0  0  0  0  0  0  0  0  0
   34.9218   38.8712   19.6796 C   0  0  0  0  0  0  0  0  0  0  0  0
   35.3885   36.2849   18.7173 C   0  0  0  0  0  0  0  0  0  0  0  0
   34.3223   35.9588   17.8985 C   0  0  0  0  0  0  0  0  0  0  0  0
   34.5634   35.7769   16.5510 C   0  0  0  0  0  0  0  0  0  0  0  0
   35.8268   35.9222   16.0258 C   0  0  0  0  0  0  0  0  0  0  0  0
   36.8756   36.2483   16.8481 C   0  0  0  0  0  0  0  0  0  0  0  0
   36.6637   36.4292   18.1977 C   0  0  0  0  0  0  0  0  0  0  0  0
   37.8546   36.7803   19.0274 C   0  0  0  0  0  0  0  0  0  0  0  0
   33.4480   35.4380   15.6532 C   0  0  0  0  0  0  0  0  0  0  0  0
   32.5420   36.2514   15.5138 O   0  0  0  0  0  0  0  0  0  0  0  0
   33.5517   34.2262   14.9925 N   0  0  0  0  0  0  0  0  0  0  0  0
   33.6652   32.9436   15.6523 C   0  0  0  0  0  0  0  0  0  0  0  0
   33.5480   34.2377   14.0081 H   0  0  0  0  0  0  0  0  0  0  0  0
   34.1578   36.8975   24.0981 O   0  0  0  0  0  0  0  0  0  0  0  0
   33.3721   38.0651   24.4423 C   0  0  0  0  0  0  0  0  0  0  0  0
   34.0867   38.5301   25.6584 C   0  0  0  0  0  0  0  0  0  0  0  0
   35.3139   39.1485   25.5613 C   0  0  0  0  0  0  0  0  0  0  0  0
   36.0107   39.5634   26.6664 C   0  0  0  0  0  0  0  0  0  0  0  0
   35.4742   39.3514   27.9082 C   0  0  0  0  0  0  0  0  0  0  0  0
   34.2498   38.7331   28.0346 C   0  0  0  0  0  0  0  0  0  0  0  0
   33.5604   38.3192   26.9125 C   0  0  0  0  0  0  0  0  0  0  0  0
   35.8724   39.3805   24.3673 F   0  0  0  0  0  0  0  0  0  0  0  0
   36.1767   39.7440   28.9862 F   0  0  0  0  0  0  0  0  0  0  0  0
 24 25  2  0  0  0
 24 29  1  0  0  0
 24 23  1  0  0  0
 25 26  1  0  0  0
 25 30  1  0  0  0
 26 27  2  0  0  0
 27 28  1  0  0  0
 27 31  1  0  0  0
 28 29  2  0  0  0
 23 22  1  0  0  0
 22  1  1  0  0  0
  1  2  2  0  0  0
  1  6  1  0  0  0
  2  3  1  0  0  0
  2  7  1  0  0  0
  3  4  1  0  0  0
  3  8  2  0  0  0
  4  5  1  0  0  0
  4 10  1  0  0  0
  5  6  2  0  0  0
  5  9  1  0  0  0
 10 11  2  0  0  0
 10 15  1  0  0  0
 11 12  1  0  0  0
 12 13  2  0  0  0
 12 17  1  0  0  0
 13 14  1  0  0  0
 14 15  2  0  0  0
 15 16  1  0  0  0
 17 18  2  0  0  0
 17 19  1  0  0  0
 19 20  1  0  0  0
 19 21  1  0  0  0
M  END
> <minimizedAffinity>
-8.96455

$$$$
3HLL_I45_A_401


 31 33  0  0  0  0  0  0  0  0999 V2000
   35.8793   35.8445   20.2881 C   0  0  0  0  0  0  0  0  0  0  0  0
   35.0400   34.8294   20.5825 C   0  0  0  0  0  0  0  0  0  0  0  0
   34.4070   34.7757   21.9273 C   0  0  0  0  0  0  0  0  0  0  0  0
   34.7406   35.8001   22.8004 N   0  0  0  0  0  0  0  0  0  0  0  0
   35.6037   36.8278   22.4502 C   0  0  0  0  0  0  0  0  0  0  0  0
   36.1730   36.8700   21.2430 C   0  0  0  0  0  0  0  0  0  0  0  0
   34.6365   33.5044   19.3709 Br  0  0  0  0  0  0  0  0  0  0  0  0
   33.6468   33.8596   22.1970 O   0  0  0  0  0  0  0  0  0  0  0  0
   35.8950   37.8838   23.4590 C   0  0  0  0  0  0  0  0  0  0  0  0
   34.2196   35.7358   24.1012 C   0  0  0  0  0  0  0  0  0  0  0  0
   33.1823   36.5927   24.4222 C   0  0  0  0  0  0  0  0  0  0  0  0
   32.6764   36.5561   25.7066 C   0  0  0  0  0  0  0  0  0  0  0  0
   33.1794   35.6872   26.6474 C   0  0  0  0  0  0  0  0  0  0  0  0
   34.2067   34.8403   26.3159 C   0  0  0  0  0  0  0  0  0  0  0  0
   34.7342   34.8609   25.0430 C   0  0  0  0  0  0  0  0  0  0  0  0
   35.8515   33.9115   24.7592 C   0  0  0  0  0  0  0  0  0  0  0  0
   31.5671   37.4495   26.0758 C   0  0  0  0  0  0  0  0  0  0  0  0
   30.7878   37.8063   25.1998 O   0  0  0  0  0  0  0  0  0  0  0  0
   31.4721   37.7708   27.4187 N   0  0  0  0  0  0  0  0  0  0  0  0
   32.5127   38.4321   28.1755 C   0  0  0  0  0  0  0  0  0  0  0  0
   30.6410   37.5336   27.8902 H   0  0  0  0  0  0  0  0  0  0  0  0
   36.4690   35.8797   19.0256 O   0  0  0  0  0  0  0  0  0  0  0  0
   36.1496   37.0134   18.1819 C   0  0  0  0  0  0  0  0  0  0  0  0
   35.2612   36.3705   17.1803 C   0  0  0  0  0  0  0  0  0  0  0  0
   35.7865   35.6225   16.1496 C   0  0  0  0  0  0  0  0  0  0  0  0
   34.9948   35.0403   15.1940 C   0  0  0  0  0  0  0  0  0  0  0  0
   33.6380   35.2121   15.2607 C   0  0  0  0  0  0  0  0  0  0  0  0
   33.0860   35.9572   16.2793 C   0  0  0  0  0  0  0  0  0  0  0  0
   33.8963   36.5389   17.2337 C   0  0  0  0  0  0  0  0  0  0  0  0
   37.1065   35.4245   16.0495 F   0  0  0  0  0  0  0  0  0  0  0  0
   32.8728   34.6534   14.3057 F   0  0  0  0  0  0  0  0  0  0  0  0
 24 25  2  0  0  0
 24 29  1  0  0  0
 24 23  1  0  0  0
 25 26  1  0  0  0
 25 30  1  0  0  0
 26 27  2  0  0  0
 27 28  1  0  0  0
 27 31  1  0  0  0
 28 29  2  0  0  0
 23 22  1  0  0  0
 22  1  1  0  0  0
  1  2  2  0  0  0
  1  6  1  0  0  0
  2  3  1  0  0  0
  2  7  1  0  0  0
  3  4  1  0  0  0
  3  8  2  0  0  0
  4  5  1  0  0  0
  4 10  1  0  0  0
  5  6  2  0  0  0
  5  9  1  0  0  0
 10 11  2  0  0  0
 10 15  1  0  0  0
 11 12  1  0  0  0
 12 13  2  0  0  0
 12 17  1  0  0  0
 13 14  1  0  0  0
 14 15  2  0  0  0
 15 16  1  0  0  0
 17 18  2  0  0  0
 17 19  1  0  0  0
 19 20  1  0  0  0
 19 21  1  0  0  0
M  END
> <minimizedAffinity>
-8.79404

$$$$
3HLL_I45_A_401


 31 33  0  0  0  0  0  0  0  0999 V2000
   34.5457   36.7765   22.7844 C   0  0  0  0  0  0  0  0  0  0  0  0
   34.8243   35.5359   22.3319 C   0  0  0  0  0  0  0  0  0  0  0  0
   35.1631   35.3442   20.8965 C   0  0  0  0  0  0  0  0  0  0  0  0
   35.1631   36.4872   20.1113 N   0  0  0  0  0  0  0  0  0  0  0  0
   34.8770   37.7442   20.6231 C   0  0  0  0  0  0  0  0  0  0  0  0
   34.5693   37.9113   21.9117 C   0  0  0  0  0  0  0  0  0  0  0  0
   34.8118   34.0618   23.4334 Br  0  0  0  0  0  0  0  0  0  0  0  0
   35.4164   34.2238   20.4837 O   0  0  0  0  0  0  0  0  0  0  0  0
   34.9075   38.9103   19.6974 C   0  0  0  0  0  0  0  0  0  0  0  0
   35.4041   36.3282   18.7386 C   0  0  0  0  0  0  0  0  0  0  0  0
   34.3322   35.9910   17.9319 C   0  0  0  0  0  0  0  0  0  0  0  0
   34.5606   35.8081   16.5823 C   0  0  0  0  0  0  0  0  0  0  0  0
   35.8170   35.9632   16.0435 C   0  0  0  0  0  0  0  0  0  0  0  0
   36.8716   36.3003   16.8539 C   0  0  0  0  0  0  0  0  0  0  0  0
   36.6724   36.4825   18.2052 C   0  0  0  0  0  0  0  0  0  0  0  0
   37.8689   36.8459   19.0215 C   0  0  0  0  0  0  0  0  0  0  0  0
   33.4387   35.4574   15.6971 C   0  0  0  0  0  0  0  0  0  0  0  0
   32.5193   36.2582   15.5735 O   0  0  0  0  0  0  0  0  0  0  0  0
   33.5515   34.2505   15.0290 N   0  0  0  0  0  0  0  0  0  0  0  0
   33.6920   32.9665   15.6807 C   0  0  0  0  0  0  0  0  0  0  0  0
   33.5350   34.2669   14.0448 H   0  0  0  0  0  0  0  0  0  0  0  0
   34.2251   36.9408   24.1310 O   0  0  0  0  0  0  0  0  0  0  0  0
   32.8870   37.4043   24.4367 C   0  0  0  0  0  0  0  0  0  0  0  0
   32.3728   36.2594   25.2308 C   0  0  0  0  0  0  0  0  0  0  0  0
   32.7693   36.0732   26.5369 C   0  0  0  0  0  0  0  0  0  0  0  0
   32.3346   35.0112   27.2865 C   0  0  0  0  0  0  0  0  0  0  0  0
   31.4837   34.1012   26.7184 C   0  0  0  0  0  0  0  0  0  0  0  0
   31.0730   34.2616   25.4133 C   0  0  0  0  0  0  0  0  0  0  0  0
   31.5206   35.3355   24.6702 C   0  0  0  0  0  0  0  0  0  0  0  0
   33.5954   36.9413   27.1332 F   0  0  0  0  0  0  0  0  0  0  0  0
   31.0802   33.0518   27.4570 F   0  0  0  0  0  0  0  0  0  0  0  0
 24 25  2  0  0  0
 24 29  1  0  0  0
 24 23  1  0  0  0
 25 26  1  0  0  0
 25 30  1  0  0  0
 26 27  2  0  0  0
 27 28  1  0  0  0
 27 31  1  0  0  0
 28 29  2  0  0  0
 23 22  1  0  0  0
 22  1  1  0  0  0
  1  2  2  0  0  0
  1  6  1  0  0  0
  2  3  1  0  0  0
  2  7  1  0  0  0
  3  4  1  0  0  0
  3  8  2  0  0  0
  4  5  1  0  0  0
  4 10  1  0  0  0
  5  6  2  0  0  0
  5  9  1  0  0  0
 10 11  2  0  0  0
 10 15  1  0  0  0
 11 12  1  0  0  0
 12 13  2  0  0  0
 12 17  1  0  0  0
 13 14  1  0  0  0
 14 15  2  0  0  0
 15 16  1  0  0  0
 17 18  2  0  0  0
 17 19  1  0  0  0
 19 20  1  0  0  0
 19 21  1  0  0  0
M  END
> <minimizedAffinity>
-8.63054

$$$$
3HLL_I45_A_401


 31 33  0  0  0  0  0  0  0  0999 V2000
   34.9989   35.7222   21.0214 C   0  0  0  0  0  0  0  0  0  0  0  0
   34.6493   34.9185   22.0478 C   0  0  0  0  0  0  0  0  0  0  0  0
   34.1701   35.5269   23.3174 C   0  0  0  0  0  0  0  0  0  0  0  0
   34.1216   36.9124   23.3503 N   0  0  0  0  0  0  0  0  0  0  0  0
   34.4847   37.6979   22.2663 C   0  0  0  0  0  0  0  0  0  0  0  0
   34.9183   37.1476   21.1295 C   0  0  0  0  0  0  0  0  0  0  0  0
   34.7329   33.0838   21.9324 Br  0  0  0  0  0  0  0  0  0  0  0  0
   33.8524   34.8033   24.2477 O   0  0  0  0  0  0  0  0  0  0  0  0
   34.3929   39.1781   22.4010 C   0  0  0  0  0  0  0  0  0  0  0  0
   33.7466   37.5174   24.5591 C   0  0  0  0  0  0  0  0  0  0  0  0
   34.7513   38.0204   25.3658 C   0  0  0  0  0  0  0  0  0  0  0  0
   34.3973   38.5972   26.5697 C   0  0  0  0  0  0  0  0  0  0  0  0
   33.0810   38.6810   26.9613 C   0  0  0  0  0  0  0  0  0  0  0  0
   32.0934   38.1806   26.1508 C   0  0  0  0  0  0  0  0  0  0  0  0
   32.4198   37.5943   24.9473 C   0  0  0  0  0  0  0  0  0  0  0  0
   31.2902   37.0713   24.1222 C   0  0  0  0  0  0  0  0  0  0  0  0
   35.4428   39.1490   27.4456 C   0  0  0  0  0  0  0  0  0  0  0  0
   36.3454   39.8039   26.9374 O   0  0  0  0  0  0  0  0  0  0  0  0
   35.2797   38.9170   28.8004 N   0  0  0  0  0  0  0  0  0  0  0  0
   35.1993   37.6028   29.3998 C   0  0  0  0  0  0  0  0  0  0  0  0
   35.2141   39.6984   29.3957 H   0  0  0  0  0  0  0  0  0  0  0  0
   35.4508   35.1385   19.8390 O   0  0  0  0  0  0  0  0  0  0  0  0
   34.5423   35.1508   18.7105 C   0  0  0  0  0  0  0  0  0  0  0  0
   35.4582   35.5811   17.6234 C   0  0  0  0  0  0  0  0  0  0  0  0
   35.7429   36.9148   17.4285 C   0  0  0  0  0  0  0  0  0  0  0  0
   36.5616   37.3454   16.4170 C   0  0  0  0  0  0  0  0  0  0  0  0
   37.1100   36.4219   15.5676 C   0  0  0  0  0  0  0  0  0  0  0  0
   36.8401   35.0819   15.7379 C   0  0  0  0  0  0  0  0  0  0  0  0
   36.0123   34.6634   16.7603 C   0  0  0  0  0  0  0  0  0  0  0  0
   35.2329   37.8504   18.2385 F   0  0  0  0  0  0  0  0  0  0  0  0
   37.8950   36.8579   14.5660 F   0  0  0  0  0  0  0  0  0  0  0  0
 24 25  2  0  0  0
 24 29  1  0  0  0
 24 23  1  0  0  0
 25 26  1  0  0  0
 25 30  1  0  0  0
 26 27  2  0  0  0
 27 28  1  0  0  0
 27 31  1  0  0  0
 28 29  2  0  0  0
 23 22  1  0  0  0
 22  1  1  0  0  0
  1  2  2  0  0  0
  1  6  1  0  0  0
  2  3  1  0  0  0
  2  7  1  0  0  0
  3  4  1  0  0  0
  3  8  2  0  0  0
  4  5  1  0  0  0
  4 10  1  0  0  0
  5  6  2  0  0  0
  5  9  1  0  0  0
 10 11  2  0  0  0
 10 15  1  0  0  0
 11 12  1  0  0  0
 12 13  2  0  0  0
 12 17  1  0  0  0
 13 14  1  0  0  0
 14 15  2  0  0  0
 15 16  1  0  0  0
 17 18  2  0  0  0
 17 19  1  0  0  0
 19 20  1  0  0  0
 19 21  1  0  0  0
M  END
> <minimizedAffinity>
-8.33333

$$$$
3HLL_I45_A_401


 31 33  0  0  0  0  0  0  0  0999 V2000
   35.1919   35.5483   19.8615 C   0  0  0  0  0  0  0  0  0  0  0  0
   35.1403   34.6937   20.9048 C   0  0  0  0  0  0  0  0  0  0  0  0
   34.8698   35.2248   22.2674 C   0  0  0  0  0  0  0  0  0  0  0  0
   34.6898   36.5965   22.3634 N   0  0  0  0  0  0  0  0  0  0  0  0
   34.7447   37.4354   21.2602 C   0  0  0  0  0  0  0  0  0  0  0  0
   34.9919   36.9548   20.0391 C   0  0  0  0  0  0  0  0  0  0  0  0
   35.3828   32.8807   20.7036 Br  0  0  0  0  0  0  0  0  0  0  0  0
   34.8217   34.4550   23.2134 O   0  0  0  0  0  0  0  0  0  0  0  0
   34.5337   38.8948   21.4682 C   0  0  0  0  0  0  0  0  0  0  0  0
   34.5088   37.1364   23.6454 C   0  0  0  0  0  0  0  0  0  0  0  0
   33.3087   36.8855   24.2858 C   0  0  0  0  0  0  0  0  0  0  0  0
   33.1084   37.4312   25.5385 C   0  0  0  0  0  0  0  0  0  0  0  0
   34.0753   38.1992   26.1454 C   0  0  0  0  0  0  0  0  0  0  0  0
   35.2626   38.4386   25.5008 C   0  0  0  0  0  0  0  0  0  0  0  0
   35.4856   37.9113   24.2473 C   0  0  0  0  0  0  0  0  0  0  0  0
   36.8007   38.2178   23.6096 C   0  0  0  0  0  0  0  0  0  0  0  0
   31.8454   37.1750   26.2485 C   0  0  0  0  0  0  0  0  0  0  0  0
   31.3188   38.0997   26.8565 O   0  0  0  0  0  0  0  0  0  0  0  0
   31.3284   35.8977   26.1189 N   0  0  0  0  0  0  0  0  0  0  0  0
   32.0217   34.6919   26.5170 C   0  0  0  0  0  0  0  0  0  0  0  0
   30.4289   35.8034   25.7299 H   0  0  0  0  0  0  0  0  0  0  0  0
   35.4509   35.0372   18.5908 O   0  0  0  0  0  0  0  0  0  0  0  0
   35.8600   35.9831   17.5724 C   0  0  0  0  0  0  0  0  0  0  0  0
   34.8868   35.6676   16.4957 C   0  0  0  0  0  0  0  0  0  0  0  0
   33.6158   36.1984   16.5171 C   0  0  0  0  0  0  0  0  0  0  0  0
   32.6864   35.9040   15.5534 C   0  0  0  0  0  0  0  0  0  0  0  0
   33.0286   35.0497   14.5396 C   0  0  0  0  0  0  0  0  0  0  0  0
   34.2919   34.5025   14.4950 C   0  0  0  0  0  0  0  0  0  0  0  0
   35.2169   34.8071   15.4736 C   0  0  0  0  0  0  0  0  0  0  0  0
   33.2410   37.0419   17.4864 F   0  0  0  0  0  0  0  0  0  0  0  0
   32.1017   34.7519   13.6112 F   0  0  0  0  0  0  0  0  0  0  0  0
 24 25  2  0  0  0
 24 29  1  0  0  0
 24 23  1  0  0  0
 25 26  1  0  0  0
 25 30  1  0  0  0
 26 27  2  0  0  0
 27 28  1  0  0  0
 27 31  1  0  0  0
 28 29  2  0  0  0
 23 22  1  0  0  0
 22  1  1  0  0  0
  1  2  2  0  0  0
  1  6  1  0  0  0
  2  3  1  0  0  0
  2  7  1  0  0  0
  3  4  1  0  0  0
  3  8  2  0  0  0
  4  5  1  0  0  0
  4 10  1  0  0  0
  5  6  2  0  0  0
  5  9  1  0  0  0
 10 11  2  0  0  0
 10 15  1  0  0  0
 11 12  1  0  0  0
 12 13  2  0  0  0
 12 17  1  0  0  0
 13 14  1  0  0  0
 14 15  2  0  0  0
 15 16  1  0  0  0
 17 18  2  0  0  0
 17 19  1  0  0  0
 19 20  1  0  0  0
 19 21  1  0  0  0
M  END
> <minimizedAffinity>
-8.05792

$$$$
3HLL_I45_A_401


 31 33  0  0  0  0  0  0  0  0999 V2000
   34.9483   36.3907   20.0043 C   0  0  0  0  0  0  0  0  0  0  0  0
   34.9486   35.4122   20.9338 C   0  0  0  0  0  0  0  0  0  0  0  0
   34.7403   35.7668   22.3631 C   0  0  0  0  0  0  0  0  0  0  0  0
   34.5603   37.1140   22.6380 N   0  0  0  0  0  0  0  0  0  0  0  0
   34.5606   38.0845   21.6469 C   0  0  0  0  0  0  0  0  0  0  0  0
   34.7520   37.7622   20.3652 C   0  0  0  0  0  0  0  0  0  0  0  0
   35.1877   33.6408   20.4966 Br  0  0  0  0  0  0  0  0  0  0  0  0
   34.7392   34.8846   23.2067 O   0  0  0  0  0  0  0  0  0  0  0  0
   34.3545   39.5045   22.0452 C   0  0  0  0  0  0  0  0  0  0  0  0
   34.4376   37.4881   23.9843 C   0  0  0  0  0  0  0  0  0  0  0  0
   33.2490   37.1947   24.6281 C   0  0  0  0  0  0  0  0  0  0  0  0
   33.1065   37.5789   25.9469 C   0  0  0  0  0  0  0  0  0  0  0  0
   34.1183   38.2302   26.6140 C   0  0  0  0  0  0  0  0  0  0  0  0
   35.2936   38.5133   25.9650 C   0  0  0  0  0  0  0  0  0  0  0  0
   35.4595   38.1465   24.6471 C   0  0  0  0  0  0  0  0  0  0  0  0
   36.7651   38.4911   24.0092 C   0  0  0  0  0  0  0  0  0  0  0  0
   31.8570   37.2731   26.6612 C   0  0  0  0  0  0  0  0  0  0  0  0
   31.3127   38.1688   27.2964 O   0  0  0  0  0  0  0  0  0  0  0  0
   31.3713   35.9866   26.5043 N   0  0  0  0  0  0  0  0  0  0  0  0
   32.0987   34.7895   26.8664 C   0  0  0  0  0  0  0  0  0  0  0  0
   30.4710   35.8788   26.1209 H   0  0  0  0  0  0  0  0  0  0  0  0
   35.1494   36.0445   18.6690 O   0  0  0  0  0  0  0  0  0  0  0  0
   36.2946   35.2084   18.3717 C   0  0  0  0  0  0  0  0  0  0  0  0
   36.9343   35.9927   17.2848 C   0  0  0  0  0  0  0  0  0  0  0  0
   38.0260   36.7927   17.5417 C   0  0  0  0  0  0  0  0  0  0  0  0
   38.6209   37.5499   16.5662 C   0  0  0  0  0  0  0  0  0  0  0  0
   38.1109   37.5163   15.2959 C   0  0  0  0  0  0  0  0  0  0  0  0
   37.0184   36.7270   15.0115 C   0  0  0  0  0  0  0  0  0  0  0  0
   36.4289   35.9710   16.0048 C   0  0  0  0  0  0  0  0  0  0  0  0
   38.5600   36.8511   18.7677 F   0  0  0  0  0  0  0  0  0  0  0  0
   38.6901   38.2796   14.3516 F   0  0  0  0  0  0  0  0  0  0  0  0
 24 25  2  0  0  0
 24 29  1  0  0  0
 24 23  1  0  0  0
 25 26  1  0  0  0
 25 30  1  0  0  0
 26 27  2  0  0  0
 27 28  1  0  0  0
 27 31  1  0  0  0
 28 29  2  0  0  0
 23 22  1  0  0  0
 22  1  1  0  0  0
  1  2  2  0  0  0
  1  6  1  0  0  0
  2  3  1  0  0  0
  2  7  1  0  0  0
  3  4  1  0  0  0
  3  8  2  0  0  0
  4  5  1  0  0  0
  4 10  1  0  0  0
  5  6  2  0  0  0
  5  9  1  0  0  0
 10 11  2  0  0  0
 10 15  1  0  0  0
 11 12  1  0  0  0
 12 13  2  0  0  0
 12 17  1  0  0  0
 13 14  1  0  0  0
 14 15  2  0  0  0
 15 16  1  0  0  0
 17 18  2  0  0  0
 17 19  1  0  0  0
 19 20  1  0  0  0
 19 21  1  0  0  0
M  END
> <minimizedAffinity>
-8.05202

$$$$
