5C1M_4VO_A_401


 34 40  0  0  0  0  0  0  0  0999 V2000
    1.7458   15.4981  -57.4846 C   0  0  0  0  0  0  0  0  0  0  0  0
    1.1670   15.6497  -56.0585 C   0  0  0  0  0  0  0  0  0  0  0  0
    0.4307   16.9356  -55.9508 N   0  0  0  0  0  0  0  0  0  0  0  0
   -0.0456   17.1312  -54.5572 C   0  0  0  0  0  0  0  0  0  0  0  0
   -0.7008   16.9871  -56.9118 C   0  0  0  0  0  0  0  0  0  0  0  0
   -1.7263   15.8239  -56.7381 C   0  0  0  0  0  0  0  0  0  0  0  0
   -1.4148   14.6606  -57.4846 C   0  0  0  0  0  0  0  0  0  0  0  0
   -2.2694   13.5689  -57.3675 C   0  0  0  0  0  0  0  0  0  0  0  0
   -2.0394   12.3846  -58.0672 C   0  0  0  0  0  0  0  0  0  0  0  0
   -0.9356   12.2936  -58.9032 C   0  0  0  0  0  0  0  0  0  0  0  0
   -0.6940   11.1369  -59.5925 O   0  0  0  0  0  0  0  0  0  0  0  0
   -0.0796   13.3821  -59.0262 C   0  0  0  0  0  0  0  0  0  0  0  0
   -0.3026   14.5845  -58.3464 C   0  0  0  0  0  0  0  0  0  0  0  0
    0.6159   15.6677  -58.5334 C   0  0  0  0  0  0  0  0  0  0  0  0
    1.2026   15.7110  -60.0048 C   0  0  0  0  0  0  0  0  0  0  0  0
    2.6062   16.2262  -60.1689 N   0  0  0  0  0  0  0  0  0  0  0  0
    0.4863   16.8222  -60.8168 C   0  0  0  0  0  0  0  0  0  0  0  0
   -0.9096   16.8524  -60.6241 C   0  0  0  0  0  0  0  0  0  0  0  0
   -1.2752   16.9579  -59.2821 C   0  0  0  0  0  0  0  0  0  0  0  0
   -0.2127   16.9609  -58.3547 C   0  0  0  0  0  0  0  0  0  0  0  0
    0.5531   18.2206  -58.7118 C   0  0  0  0  0  0  0  0  0  0  0  0
    1.0853   18.0677  -60.1465 C   0  0  0  0  0  0  0  0  0  0  0  0
    0.7753   19.3294  -60.9671 C   0  0  0  0  0  0  0  0  0  0  0  0
    2.5630   17.6684  -59.8958 C   0  0  0  0  0  0  0  0  0  0  0  0
    0.0512   11.0750  -60.1572 H   0  0  0  0  0  0  0  0  0  0  0  0
    2.9328   16.0585  -61.1205 H   0  0  0  0  0  0  0  0  0  0  0  0
    3.5364   18.7003  -59.8274 C   0  0  0  0  0  0  0  0  0  0  0  0
    3.8414   19.5084  -58.7499 C   0  0  0  0  0  0  0  0  0  0  0  0
    4.8683   20.4412  -58.8736 C   0  0  0  0  0  0  0  0  0  0  0  0
    5.5847   20.5847  -60.0568 C   0  0  0  0  0  0  0  0  0  0  0  0
    5.2819   19.7757  -61.1437 C   0  0  0  0  0  0  0  0  0  0  0  0
    4.2614   18.8433  -61.0168 C   0  0  0  0  0  0  0  0  0  0  0  0
    0.8467   16.7615  -62.2219 O   0  0  0  0  0  0  0  0  0  0  0  0
    0.3852   15.5489  -62.8308 C   0  0  0  0  0  0  0  0  0  0  0  0
 34 33  1  0  0  0
 33 17  1  0  0  0
 28 29  2  0  0  0
 28 27  1  0  0  0
 23 22  1  0  0  0
 29 30  1  0  0  0
 17 18  1  0  0  0
 17 22  1  0  0  0
 17 15  1  0  0  0
 18 19  2  0  0  0
 16 15  1  0  0  0
 16 24  1  0  0  0
 22 24  1  0  0  0
 22 21  1  0  0  0
 15 14  1  0  0  0
 24 27  1  0  0  0
 27 32  2  0  0  0
 30 31  2  0  0  0
 11 10  1  0  0  0
 19 20  1  0  0  0
 12 10  2  0  0  0
 12 13  1  0  0  0
 10  9  1  0  0  0
 32 31  1  0  0  0
 21 20  1  0  0  0
 14 13  1  0  0  0
 14 20  1  0  0  0
 14  1  1  0  0  0
 13  7  2  0  0  0
 20  5  1  0  0  0
  9  8  2  0  0  0
  1  2  1  0  0  0
  7  8  1  0  0  0
  7  6  1  0  0  0
  5  6  1  0  0  0
  5  3  1  0  0  0
  2  3  1  0  0  0
  3  4  1  0  0  0
 11 25  1  0  0  0
 16 26  1  0  0  0
M  END
> <minimizedAffinity>
-12.14218

$$$$
5C1M_4VO_A_401


 34 40  0  0  0  0  0  0  0  0999 V2000
   -1.2088   14.3789  -58.7444 C   0  0  0  0  0  0  0  0  0  0  0  0
   -0.5245   13.4506  -57.7141 C   0  0  0  0  0  0  0  0  0  0  0  0
    0.9445   13.4524  -57.9362 N   0  0  0  0  0  0  0  0  0  0  0  0
    1.5975   12.4895  -57.0123 C   0  0  0  0  0  0  0  0  0  0  0  0
    1.5097   14.8160  -57.7700 C   0  0  0  0  0  0  0  0  0  0  0  0
    1.2291   15.4463  -56.3703 C   0  0  0  0  0  0  0  0  0  0  0  0
    0.0108   16.1655  -56.2926 C   0  0  0  0  0  0  0  0  0  0  0  0
   -0.3239   16.7406  -55.0706 C   0  0  0  0  0  0  0  0  0  0  0  0
   -1.5030   17.4667  -54.9052 C   0  0  0  0  0  0  0  0  0  0  0  0
   -2.3607   17.6237  -55.9847 C   0  0  0  0  0  0  0  0  0  0  0  0
   -3.5233   18.3292  -55.8369 O   0  0  0  0  0  0  0  0  0  0  0  0
   -2.0302   17.0534  -57.2088 C   0  0  0  0  0  0  0  0  0  0  0  0
   -0.8441   16.3364  -57.3996 C   0  0  0  0  0  0  0  0  0  0  0  0
   -0.5650   15.7890  -58.6936 C   0  0  0  0  0  0  0  0  0  0  0  0
   -1.1072   16.7083  -59.8648 C   0  0  0  0  0  0  0  0  0  0  0  0
   -1.5612   16.0203  -61.1230 N   0  0  0  0  0  0  0  0  0  0  0  0
    0.0699   17.5049  -60.4869 C   0  0  0  0  0  0  0  0  0  0  0  0
    0.9539   18.0456  -59.5316 C   0  0  0  0  0  0  0  0  0  0  0  0
    1.4621   17.0893  -58.6523 C   0  0  0  0  0  0  0  0  0  0  0  0
    0.9757   15.7768  -58.8247 C   0  0  0  0  0  0  0  0  0  0  0  0
    1.4586   15.4100  -60.2150 C   0  0  0  0  0  0  0  0  0  0  0  0
    0.7996   16.3694  -61.2201 C   0  0  0  0  0  0  0  0  0  0  0  0
    1.8525   16.9340  -62.1866 C   0  0  0  0  0  0  0  0  0  0  0  0
   -0.3557   15.4985  -61.7793 C   0  0  0  0  0  0  0  0  0  0  0  0
   -4.1027   18.4354  -56.5656 H   0  0  0  0  0  0  0  0  0  0  0  0
   -2.0348   16.6846  -61.7352 H   0  0  0  0  0  0  0  0  0  0  0  0
   -0.1102   14.7217  -62.9426 C   0  0  0  0  0  0  0  0  0  0  0  0
   -0.0356   15.1552  -64.2518 C   0  0  0  0  0  0  0  0  0  0  0  0
    0.2593   14.2335  -65.2534 C   0  0  0  0  0  0  0  0  0  0  0  0
    0.4696   12.8887  -64.9684 C   0  0  0  0  0  0  0  0  0  0  0  0
    0.3950   12.4469  -63.6542 C   0  0  0  0  0  0  0  0  0  0  0  0
    0.1057   13.3681  -62.6568 C   0  0  0  0  0  0  0  0  0  0  0  0
   -0.4095   18.5066  -61.4223 O   0  0  0  0  0  0  0  0  0  0  0  0
    0.3521   19.7174  -61.3314 C   0  0  0  0  0  0  0  0  0  0  0  0
 34 33  1  0  0  0
 33 17  1  0  0  0
 28 29  2  0  0  0
 28 27  1  0  0  0
 23 22  1  0  0  0
 29 30  1  0  0  0
 17 18  1  0  0  0
 17 22  1  0  0  0
 17 15  1  0  0  0
 18 19  2  0  0  0
 16 15  1  0  0  0
 16 24  1  0  0  0
 22 24  1  0  0  0
 22 21  1  0  0  0
 15 14  1  0  0  0
 24 27  1  0  0  0
 27 32  2  0  0  0
 30 31  2  0  0  0
 11 10  1  0  0  0
 19 20  1  0  0  0
 12 10  2  0  0  0
 12 13  1  0  0  0
 10  9  1  0  0  0
 32 31  1  0  0  0
 21 20  1  0  0  0
 14 13  1  0  0  0
 14 20  1  0  0  0
 14  1  1  0  0  0
 13  7  2  0  0  0
 20  5  1  0  0  0
  9  8  2  0  0  0
  1  2  1  0  0  0
  7  8  1  0  0  0
  7  6  1  0  0  0
  5  6  1  0  0  0
  5  3  1  0  0  0
  2  3  1  0  0  0
  3  4  1  0  0  0
 11 25  1  0  0  0
 16 26  1  0  0  0
M  END
> <minimizedAffinity>
-9.51314

$$$$
