3N2V_JT5_A_0


 27 28  0  0  0  0  0  0  0  0999 V2000
    1.0380   -5.2204    5.2810 S   0  0  0  0  0  0  0  0  0  0  0  0
    0.4676   -6.5255    4.8755 O   0  0  0  0  0  0  0  0  0  0  0  0
    0.1066   -4.5616    6.2008 O   0  0  0  0  0  0  0  0  0  0  0  0
    2.3682   -5.5200    6.1772 C   0  0  0  0  0  0  0  0  0  0  0  0
    3.5757   -5.8485    5.5578 C   0  0  0  0  0  0  0  0  0  0  0  0
    4.7317   -6.1469    6.2466 C   0  0  0  0  0  0  0  0  0  0  0  0
    4.6536   -6.1709    7.6603 C   0  0  0  0  0  0  0  0  0  0  0  0
    3.4628   -5.7954    8.3081 C   0  0  0  0  0  0  0  0  0  0  0  0
    2.3161   -5.4590    7.5819 C   0  0  0  0  0  0  0  0  0  0  0  0
    5.8739   -6.5626    8.4247 C   0  0  0  0  0  0  0  0  0  0  0  0
    5.7338   -6.9318    9.8026 C   0  0  0  0  0  0  0  0  0  0  0  0
    6.8676   -7.3096   10.5640 C   0  0  0  0  0  0  0  0  0  0  0  0
    8.1390   -7.4144    9.9480 C   0  0  0  0  0  0  0  0  0  0  0  0
    8.2459   -7.1317    8.5647 C   0  0  0  0  0  0  0  0  0  0  0  0
    7.1211   -6.7259    7.8187 C   0  0  0  0  0  0  0  0  0  0  0  0
    1.4107   -4.3984    4.0306 N   0  0  0  0  0  0  0  0  0  0  0  0
    2.4939   -3.4628    3.9191 C   0  0  0  0  0  0  0  0  0  0  0  0
    1.7905   -2.1209    4.1627 C   0  0  0  0  0  0  0  0  0  0  0  0
    1.7471   -1.8070    5.4237 N   0  0  0  0  0  0  0  0  0  0  0  0
    1.1868   -0.6270    5.7390 O   0  0  0  0  0  0  0  0  0  0  0  0
    1.3213   -1.3452    3.3269 O   0  0  0  0  0  0  0  0  0  0  0  0
    2.1083   -2.4065    6.1161 H   0  0  0  0  0  0  0  0  0  0  0  0
    0.8922   -0.1822    4.9289 H   0  0  0  0  0  0  0  0  0  0  0  0
    0.7784   -4.8496    2.7487 C   0  0  0  0  0  0  0  0  0  0  0  0
    1.7294   -5.4734    1.7575 C   0  0  0  0  0  0  0  0  0  0  0  0
    2.0994   -6.7907    2.1987 O   0  0  0  0  0  0  0  0  0  0  0  0
    2.5349   -6.7316    3.0635 H   0  0  0  0  0  0  0  0  0  0  0  0
 13 12  2  0  0  0
 13 14  1  0  0  0
 12 11  1  0  0  0
 14 15  2  0  0  0
 11 10  2  0  0  0
 15 10  1  0  0  0
 10  7  1  0  0  0
  7  8  2  0  0  0
  7  6  1  0  0  0
  8  9  1  0  0  0
  6  5  2  0  0  0
  9  4  2  0  0  0
  5  4  1  0  0  0
 20 19  1  0  0  0
 21 18  2  0  0  0
  4  1  1  0  0  0
 19 18  1  0  0  0
 18 17  1  0  0  0
 17 16  1  0  0  0
  1  3  2  0  0  0
  1 16  1  0  0  0
  1  2  2  0  0  0
 16 24  1  0  0  0
 25 24  1  0  0  0
 25 26  1  0  0  0
 19 22  1  0  0  0
 20 23  1  0  0  0
 26 27  1  0  0  0
M  END
> <minimizedAffinity>
-9.51465

$$$$
3N2V_JT5_A_0


 27 28  0  0  0  0  0  0  0  0999 V2000
    1.8496   -4.6097    5.9156 S   0  0  0  0  0  0  0  0  0  0  0  0
    0.7210   -4.6254    6.8743 O   0  0  0  0  0  0  0  0  0  0  0  0
    2.2534   -3.2205    5.6820 O   0  0  0  0  0  0  0  0  0  0  0  0
    3.1322   -5.2994    6.6515 C   0  0  0  0  0  0  0  0  0  0  0  0
    3.0540   -5.6808    7.9924 C   0  0  0  0  0  0  0  0  0  0  0  0
    4.1036   -6.2376    8.6911 C   0  0  0  0  0  0  0  0  0  0  0  0
    5.3370   -6.3693    8.0080 C   0  0  0  0  0  0  0  0  0  0  0  0
    5.4274   -6.0388    6.6438 C   0  0  0  0  0  0  0  0  0  0  0  0
    4.3332   -5.5123    5.9502 C   0  0  0  0  0  0  0  0  0  0  0  0
    6.5066   -6.9020    8.7666 C   0  0  0  0  0  0  0  0  0  0  0  0
    7.7617   -7.0401    8.0881 C   0  0  0  0  0  0  0  0  0  0  0  0
    8.8966   -7.5425    8.7720 C   0  0  0  0  0  0  0  0  0  0  0  0
    8.8268   -7.8283   10.1577 C   0  0  0  0  0  0  0  0  0  0  0  0
    7.6034   -7.6030   10.8342 C   0  0  0  0  0  0  0  0  0  0  0  0
    6.4687   -7.1330   10.1429 C   0  0  0  0  0  0  0  0  0  0  0  0
    1.4725   -5.4014    4.6470 N   0  0  0  0  0  0  0  0  0  0  0  0
    0.8058   -6.6721    4.6038 C   0  0  0  0  0  0  0  0  0  0  0  0
    1.9162   -7.6046    4.1016 C   0  0  0  0  0  0  0  0  0  0  0  0
    1.9386   -7.6934    2.8046 N   0  0  0  0  0  0  0  0  0  0  0  0
    2.9037   -8.4552    2.2625 O   0  0  0  0  0  0  0  0  0  0  0  0
    2.7571   -8.2135    4.7669 O   0  0  0  0  0  0  0  0  0  0  0  0
    1.2785   -7.2239    2.2451 H   0  0  0  0  0  0  0  0  0  0  0  0
    3.4525   -8.8323    2.9680 H   0  0  0  0  0  0  0  0  0  0  0  0
    1.5336   -4.6312    3.3627 C   0  0  0  0  0  0  0  0  0  0  0  0
    0.2075   -4.0995    2.8782 C   0  0  0  0  0  0  0  0  0  0  0  0
   -0.3040   -3.1366    3.8151 O   0  0  0  0  0  0  0  0  0  0  0  0
   -0.4276   -3.5600    4.6790 H   0  0  0  0  0  0  0  0  0  0  0  0
 13 12  2  0  0  0
 13 14  1  0  0  0
 12 11  1  0  0  0
 14 15  2  0  0  0
 11 10  2  0  0  0
 15 10  1  0  0  0
 10  7  1  0  0  0
  7  8  2  0  0  0
  7  6  1  0  0  0
  8  9  1  0  0  0
  6  5  2  0  0  0
  9  4  2  0  0  0
  5  4  1  0  0  0
 20 19  1  0  0  0
 21 18  2  0  0  0
  4  1  1  0  0  0
 19 18  1  0  0  0
 18 17  1  0  0  0
 17 16  1  0  0  0
  1  3  2  0  0  0
  1 16  1  0  0  0
  1  2  2  0  0  0
 16 24  1  0  0  0
 25 24  1  0  0  0
 25 26  1  0  0  0
 19 22  1  0  0  0
 20 23  1  0  0  0
 26 27  1  0  0  0
M  END
> <minimizedAffinity>
-9.34723

$$$$
3N2V_JT5_A_0


 27 28  0  0  0  0  0  0  0  0999 V2000
    1.8203   -4.9611    5.9183 S   0  0  0  0  0  0  0  0  0  0  0  0
    1.3050   -6.1653    5.2272 O   0  0  0  0  0  0  0  0  0  0  0  0
    0.8550   -4.5534    6.9427 O   0  0  0  0  0  0  0  0  0  0  0  0
    3.1523   -5.4018    6.7513 C   0  0  0  0  0  0  0  0  0  0  0  0
    4.3386   -5.6984    6.0772 C   0  0  0  0  0  0  0  0  0  0  0  0
    5.4936   -6.1093    6.7075 C   0  0  0  0  0  0  0  0  0  0  0  0
    5.4353   -6.2880    8.1110 C   0  0  0  0  0  0  0  0  0  0  0  0
    4.2676   -5.9485    8.8180 C   0  0  0  0  0  0  0  0  0  0  0  0
    3.1228   -5.4960    8.1547 C   0  0  0  0  0  0  0  0  0  0  0  0
    6.6524   -6.8020    8.8047 C   0  0  0  0  0  0  0  0  0  0  0  0
    6.5657   -7.1235   10.1989 C   0  0  0  0  0  0  0  0  0  0  0  0
    7.6984   -7.6137   10.8950 C   0  0  0  0  0  0  0  0  0  0  0  0
    8.9045   -7.8777   10.2003 C   0  0  0  0  0  0  0  0  0  0  0  0
    8.9481   -7.6384    8.8054 C   0  0  0  0  0  0  0  0  0  0  0  0
    7.8285   -7.1211    8.1233 C   0  0  0  0  0  0  0  0  0  0  0  0
    2.1729   -3.8725    4.8845 N   0  0  0  0  0  0  0  0  0  0  0  0
    3.3171   -3.8612    4.0173 C   0  0  0  0  0  0  0  0  0  0  0  0
    2.7154   -4.3132    2.6799 C   0  0  0  0  0  0  0  0  0  0  0  0
    2.4856   -5.5926    2.6481 N   0  0  0  0  0  0  0  0  0  0  0  0
    1.9187   -6.0823    1.5325 O   0  0  0  0  0  0  0  0  0  0  0  0
    2.4173   -3.6179    1.7062 O   0  0  0  0  0  0  0  0  0  0  0  0
    2.7164   -6.1760    3.4068 H   0  0  0  0  0  0  0  0  0  0  0  0
    1.7674   -5.3601    0.9029 H   0  0  0  0  0  0  0  0  0  0  0  0
    1.0683   -2.9159    4.5511 C   0  0  0  0  0  0  0  0  0  0  0  0
    1.4938   -1.4739    4.4266 C   0  0  0  0  0  0  0  0  0  0  0  0
    1.4681   -0.8442    5.7186 O   0  0  0  0  0  0  0  0  0  0  0  0
    0.5679   -0.8803    6.0781 H   0  0  0  0  0  0  0  0  0  0  0  0
 13 12  2  0  0  0
 13 14  1  0  0  0
 12 11  1  0  0  0
 14 15  2  0  0  0
 11 10  2  0  0  0
 15 10  1  0  0  0
 10  7  1  0  0  0
  7  8  2  0  0  0
  7  6  1  0  0  0
  8  9  1  0  0  0
  6  5  2  0  0  0
  9  4  2  0  0  0
  5  4  1  0  0  0
 20 19  1  0  0  0
 21 18  2  0  0  0
  4  1  1  0  0  0
 19 18  1  0  0  0
 18 17  1  0  0  0
 17 16  1  0  0  0
  1  3  2  0  0  0
  1 16  1  0  0  0
  1  2  2  0  0  0
 16 24  1  0  0  0
 25 24  1  0  0  0
 25 26  1  0  0  0
 19 22  1  0  0  0
 20 23  1  0  0  0
 26 27  1  0  0  0
M  END
> <minimizedAffinity>
-9.11915

$$$$
3N2V_JT5_A_0


 27 28  0  0  0  0  0  0  0  0999 V2000
    2.1220   -5.1518    6.2727 S   0  0  0  0  0  0  0  0  0  0  0  0
    1.0612   -4.8744    7.2682 O   0  0  0  0  0  0  0  0  0  0  0  0
    2.5082   -3.8933    5.6289 O   0  0  0  0  0  0  0  0  0  0  0  0
    3.4521   -5.6290    7.0886 C   0  0  0  0  0  0  0  0  0  0  0  0
    4.6886   -5.6946    6.4432 C   0  0  0  0  0  0  0  0  0  0  0  0
    5.8484   -6.1192    7.0551 C   0  0  0  0  0  0  0  0  0  0  0  0
    5.7467   -6.5621    8.3962 C   0  0  0  0  0  0  0  0  0  0  0  0
    4.5234   -6.4591    9.0829 C   0  0  0  0  0  0  0  0  0  0  0  0
    3.3712   -5.9868    8.4469 C   0  0  0  0  0  0  0  0  0  0  0  0
    6.9753   -7.0945    9.0552 C   0  0  0  0  0  0  0  0  0  0  0  0
    6.8732   -7.6067   10.3901 C   0  0  0  0  0  0  0  0  0  0  0  0
    8.0160   -8.1207   11.0517 C   0  0  0  0  0  0  0  0  0  0  0  0
    9.2532   -8.2178   10.3687 C   0  0  0  0  0  0  0  0  0  0  0  0
    9.3174   -7.7893    9.0207 C   0  0  0  0  0  0  0  0  0  0  0  0
    8.1857   -7.2496    8.3770 C   0  0  0  0  0  0  0  0  0  0  0  0
    1.6600   -6.2628    5.3083 N   0  0  0  0  0  0  0  0  0  0  0  0
    0.3676   -6.3721    4.6927 C   0  0  0  0  0  0  0  0  0  0  0  0
    0.2905   -5.0805    3.8677 C   0  0  0  0  0  0  0  0  0  0  0  0
   -0.4095   -4.1575    4.4582 N   0  0  0  0  0  0  0  0  0  0  0  0
   -0.5027   -2.9708    3.8346 O   0  0  0  0  0  0  0  0  0  0  0  0
    0.8228   -4.8383    2.7821 O   0  0  0  0  0  0  0  0  0  0  0  0
   -0.8511   -4.3206    5.3228 H   0  0  0  0  0  0  0  0  0  0  0  0
   -0.0050   -3.0028    3.0026 H   0  0  0  0  0  0  0  0  0  0  0  0
    2.7511   -7.1157    4.7349 C   0  0  0  0  0  0  0  0  0  0  0  0
    2.2786   -8.2281    3.8321 C   0  0  0  0  0  0  0  0  0  0  0  0
    2.6462   -9.5003    4.3917 O   0  0  0  0  0  0  0  0  0  0  0  0
    3.6111   -9.5488    4.4780 H   0  0  0  0  0  0  0  0  0  0  0  0
 13 12  2  0  0  0
 13 14  1  0  0  0
 12 11  1  0  0  0
 14 15  2  0  0  0
 11 10  2  0  0  0
 15 10  1  0  0  0
 10  7  1  0  0  0
  7  8  2  0  0  0
  7  6  1  0  0  0
  8  9  1  0  0  0
  6  5  2  0  0  0
  9  4  2  0  0  0
  5  4  1  0  0  0
 20 19  1  0  0  0
 21 18  2  0  0  0
  4  1  1  0  0  0
 19 18  1  0  0  0
 18 17  1  0  0  0
 17 16  1  0  0  0
  1  3  2  0  0  0
  1 16  1  0  0  0
  1  2  2  0  0  0
 16 24  1  0  0  0
 25 24  1  0  0  0
 25 26  1  0  0  0
 19 22  1  0  0  0
 20 23  1  0  0  0
 26 27  1  0  0  0
M  END
> <minimizedAffinity>
-9.05768

$$$$
3N2V_JT5_A_0


 27 28  0  0  0  0  0  0  0  0999 V2000
    8.0376   -7.8142   10.0926 S   0  0  0  0  0  0  0  0  0  0  0  0
    8.1770   -7.0847   11.3738 O   0  0  0  0  0  0  0  0  0  0  0  0
    7.5452   -9.1666   10.3687 O   0  0  0  0  0  0  0  0  0  0  0  0
    6.8409   -7.0990    9.2448 C   0  0  0  0  0  0  0  0  0  0  0  0
    5.6152   -6.8215    9.8533 C   0  0  0  0  0  0  0  0  0  0  0  0
    4.5470   -6.2507    9.1950 C   0  0  0  0  0  0  0  0  0  0  0  0
    4.7042   -5.9913    7.8118 C   0  0  0  0  0  0  0  0  0  0  0  0
    5.9447   -6.2157    7.1879 C   0  0  0  0  0  0  0  0  0  0  0  0
    7.0237   -6.7595    7.8917 C   0  0  0  0  0  0  0  0  0  0  0  0
    3.5363   -5.4412    7.0633 C   0  0  0  0  0  0  0  0  0  0  0  0
    3.6823   -5.1693    5.6635 C   0  0  0  0  0  0  0  0  0  0  0  0
    2.5979   -4.6459    4.9163 C   0  0  0  0  0  0  0  0  0  0  0  0
    1.3303   -4.4710    5.5241 C   0  0  0  0  0  0  0  0  0  0  0  0
    1.1780   -4.8274    6.8860 C   0  0  0  0  0  0  0  0  0  0  0  0
    2.2677   -5.3179    7.6332 C   0  0  0  0  0  0  0  0  0  0  0  0
    9.3617   -7.7505    9.3049 N   0  0  0  0  0  0  0  0  0  0  0  0
    9.5063   -7.4654    7.9053 C   0  0  0  0  0  0  0  0  0  0  0  0
    9.9547   -8.8207    7.3423 C   0  0  0  0  0  0  0  0  0  0  0  0
   10.7032   -8.6946    6.2866 N   0  0  0  0  0  0  0  0  0  0  0  0
   11.1830   -9.8251    5.7412 O   0  0  0  0  0  0  0  0  0  0  0  0
    9.7154   -9.9457    7.7866 O   0  0  0  0  0  0  0  0  0  0  0  0
   10.9090   -7.8111    5.9041 H   0  0  0  0  0  0  0  0  0  0  0  0
   10.8740  -10.5881    6.2543 H   0  0  0  0  0  0  0  0  0  0  0  0
   10.6059   -7.6758   10.1374 C   0  0  0  0  0  0  0  0  0  0  0  0
   10.8012   -8.8284   11.0910 C   0  0  0  0  0  0  0  0  0  0  0  0
   10.5617  -10.0714   10.4098 O   0  0  0  0  0  0  0  0  0  0  0  0
    9.6515  -10.0864   10.0749 H   0  0  0  0  0  0  0  0  0  0  0  0
 13 12  2  0  0  0
 13 14  1  0  0  0
 12 11  1  0  0  0
 14 15  2  0  0  0
 11 10  2  0  0  0
 15 10  1  0  0  0
 10  7  1  0  0  0
  7  8  2  0  0  0
  7  6  1  0  0  0
  8  9  1  0  0  0
  6  5  2  0  0  0
  9  4  2  0  0  0
  5  4  1  0  0  0
 20 19  1  0  0  0
 21 18  2  0  0  0
  4  1  1  0  0  0
 19 18  1  0  0  0
 18 17  1  0  0  0
 17 16  1  0  0  0
  1  3  2  0  0  0
  1 16  1  0  0  0
  1  2  2  0  0  0
 16 24  1  0  0  0
 25 24  1  0  0  0
 25 26  1  0  0  0
 19 22  1  0  0  0
 20 23  1  0  0  0
 26 27  1  0  0  0
M  END
> <minimizedAffinity>
-8.63851

$$$$
3N2V_JT5_A_0


 27 28  0  0  0  0  0  0  0  0999 V2000
    0.5770   -5.0768    4.5678 S   0  0  0  0  0  0  0  0  0  0  0  0
   -0.0560   -6.3220    4.0756 O   0  0  0  0  0  0  0  0  0  0  0  0
   -0.3542   -4.3980    5.4731 O   0  0  0  0  0  0  0  0  0  0  0  0
    1.8392   -5.5035    5.5097 C   0  0  0  0  0  0  0  0  0  0  0  0
    1.7843   -5.3095    6.8914 C   0  0  0  0  0  0  0  0  0  0  0  0
    2.8210   -5.6130    7.7475 C   0  0  0  0  0  0  0  0  0  0  0  0
    4.0192   -6.0945    7.1663 C   0  0  0  0  0  0  0  0  0  0  0  0
    4.0821   -6.3452    5.7837 C   0  0  0  0  0  0  0  0  0  0  0  0
    2.9993   -6.0641    4.9447 C   0  0  0  0  0  0  0  0  0  0  0  0
    5.1791   -6.3606    8.0667 C   0  0  0  0  0  0  0  0  0  0  0  0
    4.9256   -6.6595    9.4455 C   0  0  0  0  0  0  0  0  0  0  0  0
    5.9991   -6.9176   10.3338 C   0  0  0  0  0  0  0  0  0  0  0  0
    7.3292   -6.9728    9.8496 C   0  0  0  0  0  0  0  0  0  0  0  0
    7.5555   -6.7626    8.4677 C   0  0  0  0  0  0  0  0  0  0  0  0
    6.4878   -6.4751    7.5938 C   0  0  0  0  0  0  0  0  0  0  0  0
    1.0633   -4.2279    3.3758 N   0  0  0  0  0  0  0  0  0  0  0  0
    0.5023   -4.2163    2.0543 C   0  0  0  0  0  0  0  0  0  0  0  0
    1.5458   -5.0045    1.2515 C   0  0  0  0  0  0  0  0  0  0  0  0
    2.1718   -4.2600    0.3886 N   0  0  0  0  0  0  0  0  0  0  0  0
    3.1374   -4.8487   -0.3371 O   0  0  0  0  0  0  0  0  0  0  0  0
    1.8512   -6.1940    1.3622 O   0  0  0  0  0  0  0  0  0  0  0  0
    1.9485   -3.3082    0.2724 H   0  0  0  0  0  0  0  0  0  0  0  0
    3.2101   -5.7817   -0.0822 H   0  0  0  0  0  0  0  0  0  0  0  0
    1.9953   -3.1055    3.7195 C   0  0  0  0  0  0  0  0  0  0  0  0
    1.3182   -1.8056    4.0770 C   0  0  0  0  0  0  0  0  0  0  0  0
    1.2947   -1.6442    5.5053 O   0  0  0  0  0  0  0  0  0  0  0  0
    0.8042   -2.3790    5.9057 H   0  0  0  0  0  0  0  0  0  0  0  0
 13 12  2  0  0  0
 13 14  1  0  0  0
 12 11  1  0  0  0
 14 15  2  0  0  0
 11 10  2  0  0  0
 15 10  1  0  0  0
 10  7  1  0  0  0
  7  8  2  0  0  0
  7  6  1  0  0  0
  8  9  1  0  0  0
  6  5  2  0  0  0
  9  4  2  0  0  0
  5  4  1  0  0  0
 20 19  1  0  0  0
 21 18  2  0  0  0
  4  1  1  0  0  0
 19 18  1  0  0  0
 18 17  1  0  0  0
 17 16  1  0  0  0
  1  3  2  0  0  0
  1 16  1  0  0  0
  1  2  2  0  0  0
 16 24  1  0  0  0
 25 24  1  0  0  0
 25 26  1  0  0  0
 19 22  1  0  0  0
 20 23  1  0  0  0
 26 27  1  0  0  0
M  END
> <minimizedAffinity>
-8.31276

$$$$
3N2V_JT5_A_0


 27 28  0  0  0  0  0  0  0  0999 V2000
    0.5720   -4.8146    4.3663 S   0  0  0  0  0  0  0  0  0  0  0  0
    0.1955   -5.9751    3.5269 O   0  0  0  0  0  0  0  0  0  0  0  0
   -0.5358   -4.5081    5.2753 O   0  0  0  0  0  0  0  0  0  0  0  0
    1.7935   -5.2854    5.3403 C   0  0  0  0  0  0  0  0  0  0  0  0
    1.8103   -4.9044    6.6835 C   0  0  0  0  0  0  0  0  0  0  0  0
    2.8227   -5.2342    7.5589 C   0  0  0  0  0  0  0  0  0  0  0  0
    3.9242   -5.9515    7.0322 C   0  0  0  0  0  0  0  0  0  0  0  0
    3.9076   -6.3894    5.6956 C   0  0  0  0  0  0  0  0  0  0  0  0
    2.8470   -6.0729    4.8409 C   0  0  0  0  0  0  0  0  0  0  0  0
    5.0651   -6.2559    7.9447 C   0  0  0  0  0  0  0  0  0  0  0  0
    4.7888   -6.5298    9.3243 C   0  0  0  0  0  0  0  0  0  0  0  0
    5.8437   -6.8228   10.2239 C   0  0  0  0  0  0  0  0  0  0  0  0
    7.1742   -6.9378    9.7512 C   0  0  0  0  0  0  0  0  0  0  0  0
    7.4196   -6.7514    8.3691 C   0  0  0  0  0  0  0  0  0  0  0  0
    6.3715   -6.4292    7.4837 C   0  0  0  0  0  0  0  0  0  0  0  0
    1.0242   -3.6432    3.4710 N   0  0  0  0  0  0  0  0  0  0  0  0
    2.3100   -3.0049    3.4900 C   0  0  0  0  0  0  0  0  0  0  0  0
    2.0190   -1.7111    4.2623 C   0  0  0  0  0  0  0  0  0  0  0  0
    1.7672   -0.7095    3.4723 N   0  0  0  0  0  0  0  0  0  0  0  0
    1.4581    0.4621    4.0533 O   0  0  0  0  0  0  0  0  0  0  0  0
    1.9717   -1.5485    5.4836 O   0  0  0  0  0  0  0  0  0  0  0  0
    1.8015   -0.8051    2.4930 H   0  0  0  0  0  0  0  0  0  0  0  0
    1.4754    0.3592    5.0177 H   0  0  0  0  0  0  0  0  0  0  0  0
    0.1534   -3.3640    2.2835 C   0  0  0  0  0  0  0  0  0  0  0  0
   -1.1621   -2.6986    2.6039 C   0  0  0  0  0  0  0  0  0  0  0  0
   -0.9466   -1.6008    3.5068 O   0  0  0  0  0  0  0  0  0  0  0  0
   -0.5487   -1.9306    4.3276 H   0  0  0  0  0  0  0  0  0  0  0  0
 13 12  2  0  0  0
 13 14  1  0  0  0
 12 11  1  0  0  0
 14 15  2  0  0  0
 11 10  2  0  0  0
 15 10  1  0  0  0
 10  7  1  0  0  0
  7  8  2  0  0  0
  7  6  1  0  0  0
  8  9  1  0  0  0
  6  5  2  0  0  0
  9  4  2  0  0  0
  5  4  1  0  0  0
 20 19  1  0  0  0
 21 18  2  0  0  0
  4  1  1  0  0  0
 19 18  1  0  0  0
 18 17  1  0  0  0
 17 16  1  0  0  0
  1  3  2  0  0  0
  1 16  1  0  0  0
  1  2  2  0  0  0
 16 24  1  0  0  0
 25 24  1  0  0  0
 25 26  1  0  0  0
 19 22  1  0  0  0
 20 23  1  0  0  0
 26 27  1  0  0  0
M  END
> <minimizedAffinity>
-8.27262

$$$$
3N2V_JT5_A_0


 27 28  0  0  0  0  0  0  0  0999 V2000
    0.6083   -3.4110    2.5685 S   0  0  0  0  0  0  0  0  0  0  0  0
    1.3258   -3.5280    1.2783 O   0  0  0  0  0  0  0  0  0  0  0  0
   -0.5967   -4.2434    2.5175 O   0  0  0  0  0  0  0  0  0  0  0  0
    1.5422   -4.0979    3.7168 C   0  0  0  0  0  0  0  0  0  0  0  0
    0.9567   -4.7596    4.7981 C   0  0  0  0  0  0  0  0  0  0  0  0
    1.6770   -5.3346    5.8231 C   0  0  0  0  0  0  0  0  0  0  0  0
    3.0847   -5.1855    5.7866 C   0  0  0  0  0  0  0  0  0  0  0  0
    3.7007   -4.5669    4.6837 C   0  0  0  0  0  0  0  0  0  0  0  0
    2.9451   -4.0272    3.6381 C   0  0  0  0  0  0  0  0  0  0  0  0
    3.8791   -5.7367    6.9233 C   0  0  0  0  0  0  0  0  0  0  0  0
    5.2850   -5.9485    6.7414 C   0  0  0  0  0  0  0  0  0  0  0  0
    6.0752   -6.4708    7.7954 C   0  0  0  0  0  0  0  0  0  0  0  0
    5.5020   -6.7041    9.0696 C   0  0  0  0  0  0  0  0  0  0  0  0
    4.1307   -6.4066    9.2594 C   0  0  0  0  0  0  0  0  0  0  0  0
    3.3417   -5.9169    8.1992 C   0  0  0  0  0  0  0  0  0  0  0  0
    0.3611   -1.9253    2.8996 N   0  0  0  0  0  0  0  0  0  0  0  0
    1.2640   -0.8368    2.6522 C   0  0  0  0  0  0  0  0  0  0  0  0
    1.4668   -0.2571    4.0585 C   0  0  0  0  0  0  0  0  0  0  0  0
    1.1719    1.0078    4.1194 N   0  0  0  0  0  0  0  0  0  0  0  0
    1.2766    1.6008    5.3207 O   0  0  0  0  0  0  0  0  0  0  0  0
    1.8283   -0.8465    5.0795 O   0  0  0  0  0  0  0  0  0  0  0  0
    0.8850    1.5083    3.3217 H   0  0  0  0  0  0  0  0  0  0  0  0
    1.5707    0.9506    5.9777 H   0  0  0  0  0  0  0  0  0  0  0  0
   -1.0575   -1.5618    3.2186 C   0  0  0  0  0  0  0  0  0  0  0  0
   -1.7177   -0.6451    2.2187 C   0  0  0  0  0  0  0  0  0  0  0  0
   -1.8943   -1.3326    0.9686 O   0  0  0  0  0  0  0  0  0  0  0  0
   -1.0295   -1.6073    0.6257 H   0  0  0  0  0  0  0  0  0  0  0  0
 13 12  2  0  0  0
 13 14  1  0  0  0
 12 11  1  0  0  0
 14 15  2  0  0  0
 11 10  2  0  0  0
 15 10  1  0  0  0
 10  7  1  0  0  0
  7  8  2  0  0  0
  7  6  1  0  0  0
  8  9  1  0  0  0
  6  5  2  0  0  0
  9  4  2  0  0  0
  5  4  1  0  0  0
 20 19  1  0  0  0
 21 18  2  0  0  0
  4  1  1  0  0  0
 19 18  1  0  0  0
 18 17  1  0  0  0
 17 16  1  0  0  0
  1  3  2  0  0  0
  1 16  1  0  0  0
  1  2  2  0  0  0
 16 24  1  0  0  0
 25 24  1  0  0  0
 25 26  1  0  0  0
 19 22  1  0  0  0
 20 23  1  0  0  0
 26 27  1  0  0  0
M  END
> <minimizedAffinity>
-8.05484

$$$$
3N2V_JT5_A_0


 27 28  0  0  0  0  0  0  0  0999 V2000
    0.5179   -3.2036    2.5266 S   0  0  0  0  0  0  0  0  0  0  0  0
    1.2712   -3.2143    1.2517 O   0  0  0  0  0  0  0  0  0  0  0  0
   -0.6388   -4.0945    2.4009 O   0  0  0  0  0  0  0  0  0  0  0  0
    1.4599   -3.8999    3.6625 C   0  0  0  0  0  0  0  0  0  0  0  0
    0.8921   -4.4149    4.8296 C   0  0  0  0  0  0  0  0  0  0  0  0
    1.6244   -4.9866    5.8479 C   0  0  0  0  0  0  0  0  0  0  0  0
    3.0334   -4.9909    5.7070 C   0  0  0  0  0  0  0  0  0  0  0  0
    3.6256   -4.5236    4.5198 C   0  0  0  0  0  0  0  0  0  0  0  0
    2.8532   -3.9846    3.4863 C   0  0  0  0  0  0  0  0  0  0  0  0
    3.8499   -5.5388    6.8296 C   0  0  0  0  0  0  0  0  0  0  0  0
    3.1950   -5.8615    8.0631 C   0  0  0  0  0  0  0  0  0  0  0  0
    3.9341   -6.3834    9.1538 C   0  0  0  0  0  0  0  0  0  0  0  0
    5.3121   -6.6774    9.0072 C   0  0  0  0  0  0  0  0  0  0  0  0
    5.9259   -6.4357    7.7543 C   0  0  0  0  0  0  0  0  0  0  0  0
    5.1938   -5.8871    6.6822 C   0  0  0  0  0  0  0  0  0  0  0  0
    0.1830   -1.7525    2.9270 N   0  0  0  0  0  0  0  0  0  0  0  0
   -1.1198   -1.2339    3.2352 C   0  0  0  0  0  0  0  0  0  0  0  0
   -1.4957   -0.5075    1.9368 C   0  0  0  0  0  0  0  0  0  0  0  0
   -2.2114    0.5561    2.1544 N   0  0  0  0  0  0  0  0  0  0  0  0
   -2.5577    1.2875    1.0817 O   0  0  0  0  0  0  0  0  0  0  0  0
   -1.1764   -0.7991    0.7820 O   0  0  0  0  0  0  0  0  0  0  0  0
   -2.4870    0.8137    3.0637 H   0  0  0  0  0  0  0  0  0  0  0  0
   -2.1962    0.8775    0.2804 H   0  0  0  0  0  0  0  0  0  0  0  0
    1.3540   -0.9047    3.3226 C   0  0  0  0  0  0  0  0  0  0  0  0
    1.2229   -0.2285    4.6648 C   0  0  0  0  0  0  0  0  0  0  0  0
    1.7938   -1.0608    5.6885 O   0  0  0  0  0  0  0  0  0  0  0  0
    1.3256   -1.9100    5.7131 H   0  0  0  0  0  0  0  0  0  0  0  0
 13 12  2  0  0  0
 13 14  1  0  0  0
 12 11  1  0  0  0
 14 15  2  0  0  0
 11 10  2  0  0  0
 15 10  1  0  0  0
 10  7  1  0  0  0
  7  8  2  0  0  0
  7  6  1  0  0  0
  8  9  1  0  0  0
  6  5  2  0  0  0
  9  4  2  0  0  0
  5  4  1  0  0  0
 20 19  1  0  0  0
 21 18  2  0  0  0
  4  1  1  0  0  0
 19 18  1  0  0  0
 18 17  1  0  0  0
 17 16  1  0  0  0
  1  3  2  0  0  0
  1 16  1  0  0  0
  1  2  2  0  0  0
 16 24  1  0  0  0
 25 24  1  0  0  0
 25 26  1  0  0  0
 19 22  1  0  0  0
 20 23  1  0  0  0
 26 27  1  0  0  0
M  END
> <minimizedAffinity>
-7.99272

$$$$
3N2V_JT5_A_0


 27 28  0  0  0  0  0  0  0  0999 V2000
    1.0494   -4.7029    4.9374 S   0  0  0  0  0  0  0  0  0  0  0  0
   -0.1386   -4.6931    5.8216 O   0  0  0  0  0  0  0  0  0  0  0  0
    1.4077   -3.3202    4.6102 O   0  0  0  0  0  0  0  0  0  0  0  0
    2.3088   -5.2658    5.8088 C   0  0  0  0  0  0  0  0  0  0  0  0
    2.1199   -5.6939    7.1243 C   0  0  0  0  0  0  0  0  0  0  0  0
    3.1385   -6.1499    7.9333 C   0  0  0  0  0  0  0  0  0  0  0  0
    4.4498   -6.1212    7.3995 C   0  0  0  0  0  0  0  0  0  0  0  0
    4.6592   -5.7416    6.0614 C   0  0  0  0  0  0  0  0  0  0  0  0
    3.5996   -5.3209    5.2516 C   0  0  0  0  0  0  0  0  0  0  0  0
    5.5770   -6.5416    8.2826 C   0  0  0  0  0  0  0  0  0  0  0  0
    6.8969   -6.6104    7.7279 C   0  0  0  0  0  0  0  0  0  0  0  0
    7.9946   -7.0056    8.5323 C   0  0  0  0  0  0  0  0  0  0  0  0
    7.8146   -7.2493    9.9161 C   0  0  0  0  0  0  0  0  0  0  0  0
    6.5204   -7.0913   10.4683 C   0  0  0  0  0  0  0  0  0  0  0  0
    5.4258   -6.7287    9.6579 C   0  0  0  0  0  0  0  0  0  0  0  0
    0.7916   -5.6151    3.7210 N   0  0  0  0  0  0  0  0  0  0  0  0
    0.2125   -5.2195    2.4683 C   0  0  0  0  0  0  0  0  0  0  0  0
    1.3219   -4.3533    1.8568 C   0  0  0  0  0  0  0  0  0  0  0  0
    0.9288   -3.1352    1.6279 N   0  0  0  0  0  0  0  0  0  0  0  0
    1.8415   -2.2838    1.1302 O   0  0  0  0  0  0  0  0  0  0  0  0
    2.4865   -4.6728    1.6079 O   0  0  0  0  0  0  0  0  0  0  0  0
    0.0046   -2.8497    1.8110 H   0  0  0  0  0  0  0  0  0  0  0  0
    2.6874   -2.7453    1.0187 H   0  0  0  0  0  0  0  0  0  0  0  0
    1.4871   -6.9424    3.7498 C   0  0  0  0  0  0  0  0  0  0  0  0
    1.2302   -7.8195    2.5495 C   0  0  0  0  0  0  0  0  0  0  0  0
    2.3807   -7.8165    1.6876 O   0  0  0  0  0  0  0  0  0  0  0  0
    2.5578   -6.9111    1.3879 H   0  0  0  0  0  0  0  0  0  0  0  0
 13 12  2  0  0  0
 13 14  1  0  0  0
 12 11  1  0  0  0
 14 15  2  0  0  0
 11 10  2  0  0  0
 15 10  1  0  0  0
 10  7  1  0  0  0
  7  8  2  0  0  0
  7  6  1  0  0  0
  8  9  1  0  0  0
  6  5  2  0  0  0
  9  4  2  0  0  0
  5  4  1  0  0  0
 20 19  1  0  0  0
 21 18  2  0  0  0
  4  1  1  0  0  0
 19 18  1  0  0  0
 18 17  1  0  0  0
 17 16  1  0  0  0
  1  3  2  0  0  0
  1 16  1  0  0  0
  1  2  2  0  0  0
 16 24  1  0  0  0
 25 24  1  0  0  0
 25 26  1  0  0  0
 19 22  1  0  0  0
 20 23  1  0  0  0
 26 27  1  0  0  0
M  END
> <minimizedAffinity>
-7.75969

$$$$
