1JYS_ADE_A_233


 13 14  0  0  0  0  0  0  0  0999 V2000
   -7.1247  -38.1635   -1.2757 N   0  0  0  0  0  0  0  0  0  0  0  0
   -6.6934  -37.6043   -2.4202 C   0  0  0  0  0  0  0  0  0  0  0  0
   -5.6039  -36.8403   -2.2794 N   0  0  0  0  0  0  0  0  0  0  0  0
   -5.3296  -36.9265   -0.9373 C   0  0  0  0  0  0  0  0  0  0  0  0
   -4.3204  -36.3667   -0.1117 C   0  0  0  0  0  0  0  0  0  0  0  0
   -3.3752  -35.5708   -0.6096 N   0  0  0  0  0  0  0  0  0  0  0  0
   -4.3549  -36.6808    1.2409 N   0  0  0  0  0  0  0  0  0  0  0  0
   -5.3260  -37.4929    1.7280 C   0  0  0  0  0  0  0  0  0  0  0  0
   -6.3313  -38.0754    1.0252 N   0  0  0  0  0  0  0  0  0  0  0  0
   -6.2624  -37.7416   -0.3056 C   0  0  0  0  0  0  0  0  0  0  0  0
   -7.9028  -38.7558   -1.1612 H   0  0  0  0  0  0  0  0  0  0  0  0
   -3.3662  -35.3589   -1.5709 H   0  0  0  0  0  0  0  0  0  0  0  0
   -2.6856  -35.1946   -0.0161 H   0  0  0  0  0  0  0  0  0  0  0  0
  1  2  1  0  0  0
  1 10  1  0  0  0
  2  3  2  0  0  0
  3  4  1  0  0  0
  4  5  1  0  0  0
  4 10  2  0  0  0
  5  6  1  0  0  0
  5  7  2  0  0  0
  7  8  1  0  0  0
  8  9  2  0  0  0
  9 10  1  0  0  0
  1 11  1  0  0  0
  6 12  1  0  0  0
  6 13  1  0  0  0
M  END
> <minimizedAffinity>
-5.06244

$$$$
1JYS_ADE_A_233


 13 14  0  0  0  0  0  0  0  0999 V2000
   -6.0824  -37.8951    0.8799 N   0  0  0  0  0  0  0  0  0  0  0  0
   -5.0987  -37.6184    1.7542 C   0  0  0  0  0  0  0  0  0  0  0  0
   -4.1380  -36.8260    1.2645 N   0  0  0  0  0  0  0  0  0  0  0  0
   -4.5521  -36.5866   -0.0221 C   0  0  0  0  0  0  0  0  0  0  0  0
   -4.0110  -35.8315   -1.0947 C   0  0  0  0  0  0  0  0  0  0  0  0
   -2.8655  -35.1634   -0.9679 N   0  0  0  0  0  0  0  0  0  0  0  0
   -4.7233  -35.8149   -2.2870 N   0  0  0  0  0  0  0  0  0  0  0  0
   -5.8875  -36.5023   -2.3957 C   0  0  0  0  0  0  0  0  0  0  0  0
   -6.4860  -37.2511   -1.4340 N   0  0  0  0  0  0  0  0  0  0  0  0
   -5.7528  -37.2418   -0.2723 C   0  0  0  0  0  0  0  0  0  0  0  0
   -6.8771  -38.4541    1.0385 H   0  0  0  0  0  0  0  0  0  0  0  0
   -2.3739  -35.1864   -0.1152 H   0  0  0  0  0  0  0  0  0  0  0  0
   -2.5105  -34.6465   -1.7269 H   0  0  0  0  0  0  0  0  0  0  0  0
  1  2  1  0  0  0
  1 10  1  0  0  0
  2  3  2  0  0  0
  3  4  1  0  0  0
  4  5  1  0  0  0
  4 10  2  0  0  0
  5  6  1  0  0  0
  5  7  2  0  0  0
  7  8  1  0  0  0
  8  9  2  0  0  0
  9 10  1  0  0  0
  1 11  1  0  0  0
  6 12  1  0  0  0
  6 13  1  0  0  0
M  END
> <minimizedAffinity>
-5.02276

$$$$
1JYS_ADE_A_233


 13 14  0  0  0  0  0  0  0  0999 V2000
   -3.7146  -35.4530   -0.4649 N   0  0  0  0  0  0  0  0  0  0  0  0
   -3.9941  -35.4936   -1.7798 C   0  0  0  0  0  0  0  0  0  0  0  0
   -4.9534  -36.3666   -2.1088 N   0  0  0  0  0  0  0  0  0  0  0  0
   -5.3039  -36.9194   -0.9023 C   0  0  0  0  0  0  0  0  0  0  0  0
   -6.2503  -37.9056   -0.5213 C   0  0  0  0  0  0  0  0  0  0  0  0
   -7.0306  -38.5058   -1.4188 N   0  0  0  0  0  0  0  0  0  0  0  0
   -6.3332  -38.2232    0.8284 N   0  0  0  0  0  0  0  0  0  0  0  0
   -5.5294  -37.6007    1.7263 C   0  0  0  0  0  0  0  0  0  0  0  0
   -4.5964  -36.6495    1.4645 N   0  0  0  0  0  0  0  0  0  0  0  0
   -4.5454  -36.3632    0.1219 C   0  0  0  0  0  0  0  0  0  0  0  0
   -3.0477  -34.8836   -0.0175 H   0  0  0  0  0  0  0  0  0  0  0  0
   -6.9582  -38.2680   -2.3714 H   0  0  0  0  0  0  0  0  0  0  0  0
   -7.6798  -39.1870   -1.1295 H   0  0  0  0  0  0  0  0  0  0  0  0
  1  2  1  0  0  0
  1 10  1  0  0  0
  2  3  2  0  0  0
  3  4  1  0  0  0
  4  5  1  0  0  0
  4 10  2  0  0  0
  5  6  1  0  0  0
  5  7  2  0  0  0
  7  8  1  0  0  0
  8  9  2  0  0  0
  9 10  1  0  0  0
  1 11  1  0  0  0
  6 12  1  0  0  0
  6 13  1  0  0  0
M  END
> <minimizedAffinity>
-4.94537

$$$$
1JYS_ADE_A_233


 13 14  0  0  0  0  0  0  0  0999 V2000
   -7.1030  -37.7290   -1.2937 N   0  0  0  0  0  0  0  0  0  0  0  0
   -7.7557  -38.2549   -0.2420 C   0  0  0  0  0  0  0  0  0  0  0  0
   -7.0301  -38.3096    0.8809 N   0  0  0  0  0  0  0  0  0  0  0  0
   -5.8236  -37.7752    0.5031 C   0  0  0  0  0  0  0  0  0  0  0  0
   -4.6066  -37.5345    1.1920 C   0  0  0  0  0  0  0  0  0  0  0  0
   -4.4625  -37.8428    2.4799 N   0  0  0  0  0  0  0  0  0  0  0  0
   -3.5666  -36.9629    0.4701 N   0  0  0  0  0  0  0  0  0  0  0  0
   -3.7337  -36.6567   -0.8406 C   0  0  0  0  0  0  0  0  0  0  0  0
   -4.8519  -36.8469   -1.5871 N   0  0  0  0  0  0  0  0  0  0  0  0
   -5.8557  -37.4123   -0.8389 C   0  0  0  0  0  0  0  0  0  0  0  0
   -7.4530  -37.5990   -2.2046 H   0  0  0  0  0  0  0  0  0  0  0  0
   -5.2105  -38.2475    2.9759 H   0  0  0  0  0  0  0  0  0  0  0  0
   -3.6080  -37.6660    2.9358 H   0  0  0  0  0  0  0  0  0  0  0  0
  1  2  1  0  0  0
  1 10  1  0  0  0
  2  3  2  0  0  0
  3  4  1  0  0  0
  4  5  1  0  0  0
  4 10  2  0  0  0
  5  6  1  0  0  0
  5  7  2  0  0  0
  7  8  1  0  0  0
  8  9  2  0  0  0
  9 10  1  0  0  0
  1 11  1  0  0  0
  6 12  1  0  0  0
  6 13  1  0  0  0
M  END
> <minimizedAffinity>
-4.93209

$$$$
1JYS_ADE_A_233


 13 14  0  0  0  0  0  0  0  0999 V2000
   -5.9029  -37.8791    0.3221 N   0  0  0  0  0  0  0  0  0  0  0  0
   -5.2172  -37.2814   -0.6684 C   0  0  0  0  0  0  0  0  0  0  0  0
   -5.7769  -37.4106   -1.8769 N   0  0  0  0  0  0  0  0  0  0  0  0
   -6.9053  -38.1502   -1.6244 C   0  0  0  0  0  0  0  0  0  0  0  0
   -7.9490  -38.6463   -2.4479 C   0  0  0  0  0  0  0  0  0  0  0  0
   -7.9658  -38.4235   -3.7612 N   0  0  0  0  0  0  0  0  0  0  0  0
   -8.9570  -39.3761   -1.8308 N   0  0  0  0  0  0  0  0  0  0  0  0
   -8.9212  -39.5921   -0.4922 C   0  0  0  0  0  0  0  0  0  0  0  0
   -7.9717  -39.1631    0.3786 N   0  0  0  0  0  0  0  0  0  0  0  0
   -6.9948  -38.4463   -0.2687 C   0  0  0  0  0  0  0  0  0  0  0  0
   -5.6660  -37.9026    1.2774 H   0  0  0  0  0  0  0  0  0  0  0  0
   -7.2429  -37.9040   -4.1816 H   0  0  0  0  0  0  0  0  0  0  0  0
   -8.7011  -38.7783   -4.3113 H   0  0  0  0  0  0  0  0  0  0  0  0
  1  2  1  0  0  0
  1 10  1  0  0  0
  2  3  2  0  0  0
  3  4  1  0  0  0
  4  5  1  0  0  0
  4 10  2  0  0  0
  5  6  1  0  0  0
  5  7  2  0  0  0
  7  8  1  0  0  0
  8  9  2  0  0  0
  9 10  1  0  0  0
  1 11  1  0  0  0
  6 12  1  0  0  0
  6 13  1  0  0  0
M  END
> <minimizedAffinity>
-4.86985

$$$$
1JYS_ADE_A_233


 13 14  0  0  0  0  0  0  0  0999 V2000
   -3.4980  -35.9260   -0.2204 N   0  0  0  0  0  0  0  0  0  0  0  0
   -3.2811  -35.2861   -1.3832 C   0  0  0  0  0  0  0  0  0  0  0  0
   -4.2184  -35.5064   -2.3124 N   0  0  0  0  0  0  0  0  0  0  0  0
   -5.0944  -36.3543   -1.6817 C   0  0  0  0  0  0  0  0  0  0  0  0
   -6.3031  -36.9802   -2.0827 C   0  0  0  0  0  0  0  0  0  0  0  0
   -6.8125  -36.7959   -3.2998 N   0  0  0  0  0  0  0  0  0  0  0  0
   -6.9382  -37.7957   -1.1549 N   0  0  0  0  0  0  0  0  0  0  0  0
   -6.4029  -37.9704    0.0791 C   0  0  0  0  0  0  0  0  0  0  0  0
   -5.2573  -37.4200    0.5572 N   0  0  0  0  0  0  0  0  0  0  0  0
   -4.6604  -36.6214   -0.3879 C   0  0  0  0  0  0  0  0  0  0  0  0
   -2.9341  -35.8986    0.5861 H   0  0  0  0  0  0  0  0  0  0  0  0
   -6.3487  -36.2144   -3.9447 H   0  0  0  0  0  0  0  0  0  0  0  0
   -7.6528  -37.2414   -3.5543 H   0  0  0  0  0  0  0  0  0  0  0  0
  1  2  1  0  0  0
  1 10  1  0  0  0
  2  3  2  0  0  0
  3  4  1  0  0  0
  4  5  1  0  0  0
  4 10  2  0  0  0
  5  6  1  0  0  0
  5  7  2  0  0  0
  7  8  1  0  0  0
  8  9  2  0  0  0
  9 10  1  0  0  0
  1 11  1  0  0  0
  6 12  1  0  0  0
  6 13  1  0  0  0
M  END
> <minimizedAffinity>
-4.83731

$$$$
1JYS_ADE_A_233


 13 14  0  0  0  0  0  0  0  0999 V2000
   -5.7795  -37.7071    1.2256 N   0  0  0  0  0  0  0  0  0  0  0  0
   -6.8604  -38.3243    0.7165 C   0  0  0  0  0  0  0  0  0  0  0  0
   -7.0723  -38.0755   -0.5811 N   0  0  0  0  0  0  0  0  0  0  0  0
   -6.0408  -37.2329   -0.9131 C   0  0  0  0  0  0  0  0  0  0  0  0
   -5.6601  -36.5873   -2.1180 C   0  0  0  0  0  0  0  0  0  0  0  0
   -6.3592  -36.7409   -3.2415 N   0  0  0  0  0  0  0  0  0  0  0  0
   -4.5263  -35.7857   -2.0822 N   0  0  0  0  0  0  0  0  0  0  0  0
   -3.8286  -35.6422   -0.9279 C   0  0  0  0  0  0  0  0  0  0  0  0
   -4.1090  -36.2134    0.2716 N   0  0  0  0  0  0  0  0  0  0  0  0
   -5.2345  -36.9974    0.1950 C   0  0  0  0  0  0  0  0  0  0  0  0
   -5.4491  -37.7569    2.1517 H   0  0  0  0  0  0  0  0  0  0  0  0
   -7.1604  -37.3131   -3.2485 H   0  0  0  0  0  0  0  0  0  0  0  0
   -6.0747  -36.2823   -4.0649 H   0  0  0  0  0  0  0  0  0  0  0  0
  1  2  1  0  0  0
  1 10  1  0  0  0
  2  3  2  0  0  0
  3  4  1  0  0  0
  4  5  1  0  0  0
  4 10  2  0  0  0
  5  6  1  0  0  0
  5  7  2  0  0  0
  7  8  1  0  0  0
  8  9  2  0  0  0
  9 10  1  0  0  0
  1 11  1  0  0  0
  6 12  1  0  0  0
  6 13  1  0  0  0
M  END
> <minimizedAffinity>
-4.83645

$$$$
1JYS_ADE_A_233


 13 14  0  0  0  0  0  0  0  0999 V2000
   -4.9544  -35.6977   -2.5623 N   0  0  0  0  0  0  0  0  0  0  0  0
   -4.3711  -35.3450   -1.4030 C   0  0  0  0  0  0  0  0  0  0  0  0
   -4.7827  -36.0538   -0.3453 N   0  0  0  0  0  0  0  0  0  0  0  0
   -5.6995  -36.9214   -0.8847 C   0  0  0  0  0  0  0  0  0  0  0  0
   -6.5135  -37.9445   -0.3333 C   0  0  0  0  0  0  0  0  0  0  0  0
   -6.4854  -38.2323    0.9671 N   0  0  0  0  0  0  0  0  0  0  0  0
   -7.3445  -38.6380   -1.2039 N   0  0  0  0  0  0  0  0  0  0  0  0
   -7.3585  -38.3294   -2.5246 C   0  0  0  0  0  0  0  0  0  0  0  0
   -6.6225  -37.3731   -3.1472 N   0  0  0  0  0  0  0  0  0  0  0  0
   -5.8148  -36.7115   -2.2544 C   0  0  0  0  0  0  0  0  0  0  0  0
   -4.7937  -35.3051   -3.4507 H   0  0  0  0  0  0  0  0  0  0  0  0
   -5.8901  -37.7303    1.5696 H   0  0  0  0  0  0  0  0  0  0  0  0
   -7.0599  -38.9468    1.3257 H   0  0  0  0  0  0  0  0  0  0  0  0
  1  2  1  0  0  0
  1 10  1  0  0  0
  2  3  2  0  0  0
  3  4  1  0  0  0
  4  5  1  0  0  0
  4 10  2  0  0  0
  5  6  1  0  0  0
  5  7  2  0  0  0
  7  8  1  0  0  0
  8  9  2  0  0  0
  9 10  1  0  0  0
  1 11  1  0  0  0
  6 12  1  0  0  0
  6 13  1  0  0  0
M  END
> <minimizedAffinity>
-4.83277

$$$$
1JYS_ADE_A_233


 13 14  0  0  0  0  0  0  0  0999 V2000
   -7.3428  -38.8143    0.8657 N   0  0  0  0  0  0  0  0  0  0  0  0
   -8.3956  -39.5439    0.4559 C   0  0  0  0  0  0  0  0  0  0  0  0
   -8.6288  -39.4772   -0.8600 N   0  0  0  0  0  0  0  0  0  0  0  0
   -7.6426  -38.6368   -1.3128 C   0  0  0  0  0  0  0  0  0  0  0  0
   -7.3029  -38.1366   -2.5965 C   0  0  0  0  0  0  0  0  0  0  0  0
   -8.0017  -38.4690   -3.6809 N   0  0  0  0  0  0  0  0  0  0  0  0
   -6.2098  -37.2838   -2.6808 N   0  0  0  0  0  0  0  0  0  0  0  0
   -5.5116  -36.9574   -1.5646 C   0  0  0  0  0  0  0  0  0  0  0  0
   -5.7548  -37.3798   -0.2972 N   0  0  0  0  0  0  0  0  0  0  0  0
   -6.8409  -38.2201   -0.2558 C   0  0  0  0  0  0  0  0  0  0  0  0
   -7.0037  -38.7269    1.7858 H   0  0  0  0  0  0  0  0  0  0  0  0
   -8.7737  -39.0749   -3.6024 H   0  0  0  0  0  0  0  0  0  0  0  0
   -7.7461  -38.1088   -4.5608 H   0  0  0  0  0  0  0  0  0  0  0  0
  1  2  1  0  0  0
  1 10  1  0  0  0
  2  3  2  0  0  0
  3  4  1  0  0  0
  4  5  1  0  0  0
  4 10  2  0  0  0
  5  6  1  0  0  0
  5  7  2  0  0  0
  7  8  1  0  0  0
  8  9  2  0  0  0
  9 10  1  0  0  0
  1 11  1  0  0  0
  6 12  1  0  0  0
  6 13  1  0  0  0
M  END
> <minimizedAffinity>
-4.77899

$$$$
1JYS_ADE_A_233


 13 14  0  0  0  0  0  0  0  0999 V2000
   -4.0157  -37.3467   -0.0449 N   0  0  0  0  0  0  0  0  0  0  0  0
   -4.2017  -37.5049    1.2775 C   0  0  0  0  0  0  0  0  0  0  0  0
   -5.4651  -37.7781    1.6237 N   0  0  0  0  0  0  0  0  0  0  0  0
   -6.1258  -37.7916    0.4207 C   0  0  0  0  0  0  0  0  0  0  0  0
   -7.4785  -38.0150    0.0551 C   0  0  0  0  0  0  0  0  0  0  0  0
   -8.4126  -38.2776    0.9679 N   0  0  0  0  0  0  0  0  0  0  0  0
   -7.7939  -37.9495   -1.2961 N   0  0  0  0  0  0  0  0  0  0  0  0
   -6.8281  -37.6805   -2.2097 C   0  0  0  0  0  0  0  0  0  0  0  0
   -5.5124  -37.4524   -1.9634 N   0  0  0  0  0  0  0  0  0  0  0  0
   -5.2410  -37.5264   -0.6187 C   0  0  0  0  0  0  0  0  0  0  0  0
   -3.1693  -37.1431   -0.5048 H   0  0  0  0  0  0  0  0  0  0  0  0
   -8.1709  -38.3202    1.9213 H   0  0  0  0  0  0  0  0  0  0  0  0
   -9.3445  -38.4291    0.6891 H   0  0  0  0  0  0  0  0  0  0  0  0
  1  2  1  0  0  0
  1 10  1  0  0  0
  2  3  2  0  0  0
  3  4  1  0  0  0
  4  5  1  0  0  0
  4 10  2  0  0  0
  5  6  1  0  0  0
  5  7  2  0  0  0
  7  8  1  0  0  0
  8  9  2  0  0  0
  9 10  1  0  0  0
  1 11  1  0  0  0
  6 12  1  0  0  0
  6 13  1  0  0  0
M  END
> <minimizedAffinity>
-4.69091

$$$$
