1FPC_0ZI_H_371


 41 43  0  0  0  0  0  0  0  0999 V2000
   14.4436  -15.2369   21.3219 C   0  0  0  0  0  0  0  0  0  0  0  0
   15.3155  -14.0105   21.6039 C   0  0  0  0  0  0  0  0  0  0  0  0
   15.3511  -13.4326   22.7056 O   0  0  0  0  0  0  0  0  0  0  0  0
   16.4052  -13.7910   20.6846 N   0  0  0  0  0  0  0  0  0  0  0  0
   17.1486  -12.4677   21.0346 C   0  0  0  0  0  0  0  0  0  0  0  0
   18.5457  -12.4932   20.4331 C   0  0  0  0  0  0  0  0  0  0  0  0
   18.4699  -12.9873   18.9030 C   0  0  0  0  0  0  0  0  0  0  0  0
   17.6433  -14.3685   18.6441 C   0  0  0  0  0  0  0  0  0  0  0  0
   16.2073  -14.2932   19.2147 C   0  0  0  0  0  0  0  0  0  0  0  0
   19.8637  -13.1317   18.5980 C   0  0  0  0  0  0  0  0  0  0  0  0
   20.8430  -12.8166   19.7671 C   0  0  0  0  0  0  0  0  0  0  0  0
   14.7654  -16.2759   22.2895 N   0  0  0  0  0  0  0  0  0  0  0  0
   13.9097  -16.8090   22.4442 H   0  0  0  0  0  0  0  0  0  0  0  0
   16.0407  -17.4491   21.9384 S   0  0  0  0  0  0  0  0  0  0  0  0
   16.0471  -17.5549   20.4568 O   0  0  0  0  0  0  0  0  0  0  0  0
   15.4233  -18.6775   22.5662 O   0  0  0  0  0  0  0  0  0  0  0  0
   17.7197  -16.7320   22.3567 C   0  0  0  0  0  0  0  0  0  0  0  0
   18.5967  -16.4180   21.2836 C   0  0  0  0  0  0  0  0  0  0  0  0
   19.8226  -15.8632   21.5372 C   0  0  0  0  0  0  0  0  0  0  0  0
   20.2100  -15.5846   22.8593 C   0  0  0  0  0  0  0  0  0  0  0  0
   19.3703  -15.8855   23.9274 C   0  0  0  0  0  0  0  0  0  0  0  0
   19.7427  -15.6320   25.2164 C   0  0  0  0  0  0  0  0  0  0  0  0
   18.8864  -15.8943   26.2727 C   0  0  0  0  0  0  0  0  0  0  0  0
   17.6458  -16.5070   25.9924 C   0  0  0  0  0  0  0  0  0  0  0  0
   17.2379  -16.7646   24.6990 C   0  0  0  0  0  0  0  0  0  0  0  0
   18.0854  -16.4778   23.6606 C   0  0  0  0  0  0  0  0  0  0  0  0
   20.9769  -15.0211   25.4714 N   0  0  0  0  0  0  0  0  0  0  0  0
   21.1462  -13.6819   26.0710 C   0  0  0  0  0  0  0  0  0  0  0  0
   22.1006  -16.0222   26.0652 C   0  0  0  0  0  0  0  0  0  0  0  0
   12.9828  -14.8723   21.4562 C   0  0  0  0  0  0  0  0  0  0  0  0
   11.8526  -13.8494   21.2618 C   0  0  0  0  0  0  0  0  0  0  0  0
   11.9035  -12.9544   22.3617 C   0  0  0  0  0  0  0  0  0  0  0  0
   11.9619  -11.5693   21.8077 N   0  0  0  0  0  0  0  0  0  0  0  0
   11.1279  -11.0672   21.9545 H   0  0  0  0  0  0  0  0  0  0  0  0
   12.8626  -10.8715   21.1744 C   0  0  0  0  0  0  0  0  0  0  0  0
   14.0563  -10.6674   21.8013 N   0  0  0  0  0  0  0  0  0  0  0  0
   12.6056  -10.4157   20.0101 N   0  0  0  0  0  0  0  0  0  0  0  0
   14.2100  -11.0384   22.7002 H   0  0  0  0  0  0  0  0  0  0  0  0
   14.7644  -10.1491   21.3550 H   0  0  0  0  0  0  0  0  0  0  0  0
   11.7290  -10.5882   19.5964 H   0  0  0  0  0  0  0  0  0  0  0  0
   13.2839   -9.8916   19.5258 H   0  0  0  0  0  0  0  0  0  0  0  0
 17 18  2  0  0  0
 17 26  1  0  0  0
 17 14  1  0  0  0
 18 19  1  0  0  0
 19 20  2  0  0  0
 20 21  1  0  0  0
 21 22  2  0  0  0
 21 26  1  0  0  0
 22 23  1  0  0  0
 22 27  1  0  0  0
 23 24  2  0  0  0
 24 25  1  0  0  0
 25 26  2  0  0  0
 27 28  1  0  0  0
 27 29  1  0  0  0
 14 15  2  0  0  0
 14 16  2  0  0  0
 12  1  1  0  0  0
  1  2  1  0  0  0
  1 30  1  0  0  0
  2  3  2  0  0  0
 30 31  1  0  0  0
 31 32  1  0  0  0
 32 33  1  0  0  0
 33 35  1  0  0  0
 35 36  1  0  0  0
 35 37  2  0  0  0
  4  5  1  0  0  0
  4  9  1  0  0  0
  5  6  1  0  0  0
  6  7  1  0  0  0
  7  8  1  0  0  0
  7 10  1  0  0  0
  8  9  1  0  0  0
 10 11  1  0  0  0
 14 12  1  0  0  0
  2  4  1  0  0  0
 12 13  1  0  0  0
 33 34  1  0  0  0
 36 38  1  0  0  0
 36 39  1  0  0  0
 37 40  1  0  0  0
 37 41  1  0  0  0
M  CHG 1  37   1
M  END
> <minimizedAffinity>
-8.32850

$$$$
1FPC_0ZI_H_371


 41 43  0  0  0  0  0  0  0  0999 V2000
   19.4287  -16.1430   24.6368 C   0  0  0  0  0  0  0  0  0  0  0  0
   18.0379  -16.6897   24.9694 C   0  0  0  0  0  0  0  0  0  0  0  0
   17.2573  -16.1398   25.7677 O   0  0  0  0  0  0  0  0  0  0  0  0
   17.4920  -17.6324   24.0238 N   0  0  0  0  0  0  0  0  0  0  0  0
   16.1214  -18.1724   24.5299 C   0  0  0  0  0  0  0  0  0  0  0  0
   15.3308  -18.7350   23.3581 C   0  0  0  0  0  0  0  0  0  0  0  0
   16.2810  -19.6776   22.4638 C   0  0  0  0  0  0  0  0  0  0  0  0
   17.7050  -19.0246   22.0123 C   0  0  0  0  0  0  0  0  0  0  0  0
   18.5132  -18.5137   23.2285 C   0  0  0  0  0  0  0  0  0  0  0  0
   15.4271  -19.9307   21.3399 C   0  0  0  0  0  0  0  0  0  0  0  0
   15.9389  -19.3894   19.9724 C   0  0  0  0  0  0  0  0  0  0  0  0
   19.2873  -15.0272   23.7126 N   0  0  0  0  0  0  0  0  0  0  0  0
   19.6634  -14.2049   24.1845 H   0  0  0  0  0  0  0  0  0  0  0  0
   20.0506  -15.0945   22.1192 S   0  0  0  0  0  0  0  0  0  0  0  0
   20.5559  -16.4871   22.0106 O   0  0  0  0  0  0  0  0  0  0  0  0
   21.1855  -14.1233   22.3499 O   0  0  0  0  0  0  0  0  0  0  0  0
   18.7572  -14.9668   20.7706 C   0  0  0  0  0  0  0  0  0  0  0  0
   17.5017  -15.5955   20.9892 C   0  0  0  0  0  0  0  0  0  0  0  0
   16.5132  -15.5040   20.0460 C   0  0  0  0  0  0  0  0  0  0  0  0
   16.7307  -14.7715   18.8663 C   0  0  0  0  0  0  0  0  0  0  0  0
   17.9523  -14.1493   18.6276 C   0  0  0  0  0  0  0  0  0  0  0  0
   18.1788  -13.4471   17.4787 C   0  0  0  0  0  0  0  0  0  0  0  0
   19.3815  -12.7946   17.2649 C   0  0  0  0  0  0  0  0  0  0  0  0
   20.4021  -12.9388   18.2297 C   0  0  0  0  0  0  0  0  0  0  0  0
   20.1981  -13.6329   19.4054 C   0  0  0  0  0  0  0  0  0  0  0  0
   18.9945  -14.2541   19.6155 C   0  0  0  0  0  0  0  0  0  0  0  0
   17.1513  -13.3145   16.5363 N   0  0  0  0  0  0  0  0  0  0  0  0
   16.3520  -12.0901   16.3281 C   0  0  0  0  0  0  0  0  0  0  0  0
   17.4744  -13.9958   15.1048 C   0  0  0  0  0  0  0  0  0  0  0  0
   20.1062  -15.6571   25.8977 C   0  0  0  0  0  0  0  0  0  0  0  0
   20.5908  -14.4900   26.7720 C   0  0  0  0  0  0  0  0  0  0  0  0
   21.5473  -13.7670   26.0134 C   0  0  0  0  0  0  0  0  0  0  0  0
   22.7067  -14.6765   25.7735 N   0  0  0  0  0  0  0  0  0  0  0  0
   22.9754  -15.1690   26.5825 H   0  0  0  0  0  0  0  0  0  0  0  0
   23.4451  -14.9689   24.7398 C   0  0  0  0  0  0  0  0  0  0  0  0
   24.5891  -14.2490   24.5597 N   0  0  0  0  0  0  0  0  0  0  0  0
   23.0839  -15.9036   23.9491 N   0  0  0  0  0  0  0  0  0  0  0  0
   24.8278  -13.5365   25.1958 H   0  0  0  0  0  0  0  0  0  0  0  0
   25.1764  -14.4417   23.7934 H   0  0  0  0  0  0  0  0  0  0  0  0
   22.2490  -16.3969   24.1190 H   0  0  0  0  0  0  0  0  0  0  0  0
   23.6401  -16.1312   23.1693 H   0  0  0  0  0  0  0  0  0  0  0  0
 17 18  2  0  0  0
 17 26  1  0  0  0
 17 14  1  0  0  0
 18 19  1  0  0  0
 19 20  2  0  0  0
 20 21  1  0  0  0
 21 22  2  0  0  0
 21 26  1  0  0  0
 22 23  1  0  0  0
 22 27  1  0  0  0
 23 24  2  0  0  0
 24 25  1  0  0  0
 25 26  2  0  0  0
 27 28  1  0  0  0
 27 29  1  0  0  0
 14 15  2  0  0  0
 14 16  2  0  0  0
 12  1  1  0  0  0
  1  2  1  0  0  0
  1 30  1  0  0  0
  2  3  2  0  0  0
 30 31  1  0  0  0
 31 32  1  0  0  0
 32 33  1  0  0  0
 33 35  1  0  0  0
 35 36  1  0  0  0
 35 37  2  0  0  0
  4  5  1  0  0  0
  4  9  1  0  0  0
  5  6  1  0  0  0
  6  7  1  0  0  0
  7  8  1  0  0  0
  7 10  1  0  0  0
  8  9  1  0  0  0
 10 11  1  0  0  0
 14 12  1  0  0  0
  2  4  1  0  0  0
 12 13  1  0  0  0
 33 34  1  0  0  0
 36 38  1  0  0  0
 36 39  1  0  0  0
 37 40  1  0  0  0
 37 41  1  0  0  0
M  CHG 1  37   1
M  END
> <minimizedAffinity>
-7.28019

$$$$
1FPC_0ZI_H_371


 41 43  0  0  0  0  0  0  0  0999 V2000
   15.1082  -13.3047   20.4497 C   0  0  0  0  0  0  0  0  0  0  0  0
   13.7020  -13.5970   20.9799 C   0  0  0  0  0  0  0  0  0  0  0  0
   13.2077  -14.7385   21.0209 O   0  0  0  0  0  0  0  0  0  0  0  0
   13.1207  -12.5732   21.8134 N   0  0  0  0  0  0  0  0  0  0  0  0
   11.6633  -12.9591   22.2052 C   0  0  0  0  0  0  0  0  0  0  0  0
   11.2469  -12.1844   23.4465 C   0  0  0  0  0  0  0  0  0  0  0  0
   11.6463  -10.6340   23.2791 C   0  0  0  0  0  0  0  0  0  0  0  0
   13.1886  -10.3427   22.8383 C   0  0  0  0  0  0  0  0  0  0  0  0
   13.5668  -11.0971   21.5416 C   0  0  0  0  0  0  0  0  0  0  0  0
   11.3626  -10.1401   24.5952 C   0  0  0  0  0  0  0  0  0  0  0  0
   11.8482   -8.6895   24.8870 C   0  0  0  0  0  0  0  0  0  0  0  0
   15.9768  -14.4267   20.7752 N   0  0  0  0  0  0  0  0  0  0  0  0
   15.9218  -15.0780   19.9921 H   0  0  0  0  0  0  0  0  0  0  0  0
   17.6947  -14.1542   21.0921 S   0  0  0  0  0  0  0  0  0  0  0  0
   17.8366  -12.6757   21.1107 O   0  0  0  0  0  0  0  0  0  0  0  0
   18.2735  -14.7377   19.8237 O   0  0  0  0  0  0  0  0  0  0  0  0
   18.1275  -14.6810   22.8366 C   0  0  0  0  0  0  0  0  0  0  0  0
   17.0701  -15.1006   23.6881 C   0  0  0  0  0  0  0  0  0  0  0  0
   17.3398  -15.5242   24.9620 C   0  0  0  0  0  0  0  0  0  0  0  0
   18.6661  -15.5634   25.4255 C   0  0  0  0  0  0  0  0  0  0  0  0
   19.7187  -15.1549   24.6120 C   0  0  0  0  0  0  0  0  0  0  0  0
   21.0093  -15.1756   25.0572 C   0  0  0  0  0  0  0  0  0  0  0  0
   22.0571  -14.8081   24.2296 C   0  0  0  0  0  0  0  0  0  0  0  0
   21.7529  -14.3327   22.9355 C   0  0  0  0  0  0  0  0  0  0  0  0
   20.4592  -14.3111   22.4545 C   0  0  0  0  0  0  0  0  0  0  0  0
   19.4333  -14.7004   23.2759 C   0  0  0  0  0  0  0  0  0  0  0  0
   21.2886  -15.6537   26.3437 N   0  0  0  0  0  0  0  0  0  0  0  0
   22.1663  -16.8033   26.6431 C   0  0  0  0  0  0  0  0  0  0  0  0
   21.5302  -14.4918   27.4434 C   0  0  0  0  0  0  0  0  0  0  0  0
   15.0670  -13.1312   18.9487 C   0  0  0  0  0  0  0  0  0  0  0  0
   14.3644  -12.5720   17.7017 C   0  0  0  0  0  0  0  0  0  0  0  0
   14.8845  -13.2681   16.5800 C   0  0  0  0  0  0  0  0  0  0  0  0
   15.0787  -12.2705   15.4863 N   0  0  0  0  0  0  0  0  0  0  0  0
   14.8380  -12.6274   14.6009 H   0  0  0  0  0  0  0  0  0  0  0  0
   15.4935  -11.0358   15.4336 C   0  0  0  0  0  0  0  0  0  0  0  0
   16.7382  -10.7685   15.9221 N   0  0  0  0  0  0  0  0  0  0  0  0
   14.7390  -10.1365   14.9320 N   0  0  0  0  0  0  0  0  0  0  0  0
   17.2850  -11.4947   16.3001 H   0  0  0  0  0  0  0  0  0  0  0  0
   17.0900   -9.8493   15.8969 H   0  0  0  0  0  0  0  0  0  0  0  0
   13.8470  -10.3762   14.5912 H   0  0  0  0  0  0  0  0  0  0  0  0
   15.0491   -9.2033   14.8859 H   0  0  0  0  0  0  0  0  0  0  0  0
 17 18  2  0  0  0
 17 26  1  0  0  0
 17 14  1  0  0  0
 18 19  1  0  0  0
 19 20  2  0  0  0
 20 21  1  0  0  0
 21 22  2  0  0  0
 21 26  1  0  0  0
 22 23  1  0  0  0
 22 27  1  0  0  0
 23 24  2  0  0  0
 24 25  1  0  0  0
 25 26  2  0  0  0
 27 28  1  0  0  0
 27 29  1  0  0  0
 14 15  2  0  0  0
 14 16  2  0  0  0
 12  1  1  0  0  0
  1  2  1  0  0  0
  1 30  1  0  0  0
  2  3  2  0  0  0
 30 31  1  0  0  0
 31 32  1  0  0  0
 32 33  1  0  0  0
 33 35  1  0  0  0
 35 36  1  0  0  0
 35 37  2  0  0  0
  4  5  1  0  0  0
  4  9  1  0  0  0
  5  6  1  0  0  0
  6  7  1  0  0  0
  7  8  1  0  0  0
  7 10  1  0  0  0
  8  9  1  0  0  0
 10 11  1  0  0  0
 14 12  1  0  0  0
  2  4  1  0  0  0
 12 13  1  0  0  0
 33 34  1  0  0  0
 36 38  1  0  0  0
 36 39  1  0  0  0
 37 40  1  0  0  0
 37 41  1  0  0  0
M  CHG 1  37   1
M  END
> <minimizedAffinity>
-7.18300

$$$$
1FPC_0ZI_H_371


 41 43  0  0  0  0  0  0  0  0999 V2000
   16.6786  -16.8974   22.7389 C   0  0  0  0  0  0  0  0  0  0  0  0
   17.7835  -17.7610   23.3530 C   0  0  0  0  0  0  0  0  0  0  0  0
   18.2294  -18.7902   22.8139 O   0  0  0  0  0  0  0  0  0  0  0  0
   18.5825  -17.1255   24.3722 N   0  0  0  0  0  0  0  0  0  0  0  0
   19.6017  -18.1405   24.9700 C   0  0  0  0  0  0  0  0  0  0  0  0
   20.7422  -17.3855   25.6361 C   0  0  0  0  0  0  0  0  0  0  0  0
   20.1486  -16.2094   26.5610 C   0  0  0  0  0  0  0  0  0  0  0  0
   19.0676  -15.2212   25.8447 C   0  0  0  0  0  0  0  0  0  0  0  0
   17.8897  -16.0113   25.2267 C   0  0  0  0  0  0  0  0  0  0  0  0
   21.3519  -15.5169   26.9202 C   0  0  0  0  0  0  0  0  0  0  0  0
   21.1737  -14.0207   27.3136 C   0  0  0  0  0  0  0  0  0  0  0  0
   17.1825  -16.2868   21.5172 N   0  0  0  0  0  0  0  0  0  0  0  0
   16.4471  -16.3803   20.8166 H   0  0  0  0  0  0  0  0  0  0  0  0
   17.6770  -14.5893   21.5140 S   0  0  0  0  0  0  0  0  0  0  0  0
   19.0169  -14.5940   22.1552 O   0  0  0  0  0  0  0  0  0  0  0  0
   16.6311  -14.0275   22.4494 O   0  0  0  0  0  0  0  0  0  0  0  0
   18.0055  -14.0091   19.7637 C   0  0  0  0  0  0  0  0  0  0  0  0
   19.3408  -14.0681   19.2813 C   0  0  0  0  0  0  0  0  0  0  0  0
   19.6261  -13.6841   17.9982 C   0  0  0  0  0  0  0  0  0  0  0  0
   18.5956  -13.2483   17.1476 C   0  0  0  0  0  0  0  0  0  0  0  0
   17.2805  -13.1788   17.5973 C   0  0  0  0  0  0  0  0  0  0  0  0
   16.2742  -12.7434   16.7836 C   0  0  0  0  0  0  0  0  0  0  0  0
   14.9610  -12.7161   17.2226 C   0  0  0  0  0  0  0  0  0  0  0  0
   14.6955  -13.0738   18.5622 C   0  0  0  0  0  0  0  0  0  0  0  0
   15.6905  -13.5284   19.4042 C   0  0  0  0  0  0  0  0  0  0  0  0
   16.9829  -13.5734   18.9496 C   0  0  0  0  0  0  0  0  0  0  0  0
   16.5597  -12.3960   15.4572 N   0  0  0  0  0  0  0  0  0  0  0  0
   16.2881  -13.2524   14.2848 C   0  0  0  0  0  0  0  0  0  0  0  0
   16.2222  -10.8572   15.0889 C   0  0  0  0  0  0  0  0  0  0  0  0
   15.4801  -17.7557   22.4041 C   0  0  0  0  0  0  0  0  0  0  0  0
   13.9800  -18.0497   22.5604 C   0  0  0  0  0  0  0  0  0  0  0  0
   13.3029  -17.3252   21.5455 C   0  0  0  0  0  0  0  0  0  0  0  0
   12.8471  -16.0364   22.1457 N   0  0  0  0  0  0  0  0  0  0  0  0
   12.5039  -16.1457   23.0619 H   0  0  0  0  0  0  0  0  0  0  0  0
   12.7987  -14.7998   21.7361 C   0  0  0  0  0  0  0  0  0  0  0  0
   13.6072  -13.8974   22.3618 N   0  0  0  0  0  0  0  0  0  0  0  0
   12.0164  -14.4811   20.7791 N   0  0  0  0  0  0  0  0  0  0  0  0
   14.1947  -14.1890   23.0960 H   0  0  0  0  0  0  0  0  0  0  0  0
   13.6033  -12.9543   22.0794 H   0  0  0  0  0  0  0  0  0  0  0  0
   11.4503  -15.1670   20.3569 H   0  0  0  0  0  0  0  0  0  0  0  0
   11.9791  -13.5494   20.4632 H   0  0  0  0  0  0  0  0  0  0  0  0
 17 18  2  0  0  0
 17 26  1  0  0  0
 17 14  1  0  0  0
 18 19  1  0  0  0
 19 20  2  0  0  0
 20 21  1  0  0  0
 21 22  2  0  0  0
 21 26  1  0  0  0
 22 23  1  0  0  0
 22 27  1  0  0  0
 23 24  2  0  0  0
 24 25  1  0  0  0
 25 26  2  0  0  0
 27 28  1  0  0  0
 27 29  1  0  0  0
 14 15  2  0  0  0
 14 16  2  0  0  0
 12  1  1  0  0  0
  1  2  1  0  0  0
  1 30  1  0  0  0
  2  3  2  0  0  0
 30 31  1  0  0  0
 31 32  1  0  0  0
 32 33  1  0  0  0
 33 35  1  0  0  0
 35 36  1  0  0  0
 35 37  2  0  0  0
  4  5  1  0  0  0
  4  9  1  0  0  0
  5  6  1  0  0  0
  6  7  1  0  0  0
  7  8  1  0  0  0
  7 10  1  0  0  0
  8  9  1  0  0  0
 10 11  1  0  0  0
 14 12  1  0  0  0
  2  4  1  0  0  0
 12 13  1  0  0  0
 33 34  1  0  0  0
 36 38  1  0  0  0
 36 39  1  0  0  0
 37 40  1  0  0  0
 37 41  1  0  0  0
M  CHG 1  37   1
M  END
> <minimizedAffinity>
-7.16634

$$$$
1FPC_0ZI_H_371


 41 43  0  0  0  0  0  0  0  0999 V2000
   21.9643  -17.3731   25.8113 C   0  0  0  0  0  0  0  0  0  0  0  0
   20.6961  -18.2010   26.0354 C   0  0  0  0  0  0  0  0  0  0  0  0
   20.1989  -18.4043   27.1581 O   0  0  0  0  0  0  0  0  0  0  0  0
   19.8604  -18.3943   24.8757 N   0  0  0  0  0  0  0  0  0  0  0  0
   18.6604  -19.3243   25.2241 C   0  0  0  0  0  0  0  0  0  0  0  0
   17.5461  -19.1212   24.2084 C   0  0  0  0  0  0  0  0  0  0  0  0
   18.1591  -19.1301   22.7200 C   0  0  0  0  0  0  0  0  0  0  0  0
   19.4312  -18.1413   22.4711 C   0  0  0  0  0  0  0  0  0  0  0  0
   20.5722  -18.4093   23.4810 C   0  0  0  0  0  0  0  0  0  0  0  0
   17.0132  -18.7319   21.9553 C   0  0  0  0  0  0  0  0  0  0  0  0
   17.2865  -17.6937   20.8271 C   0  0  0  0  0  0  0  0  0  0  0  0
   21.6512  -15.9667   26.0187 N   0  0  0  0  0  0  0  0  0  0  0  0
   22.3533  -15.6008   26.6619 H   0  0  0  0  0  0  0  0  0  0  0  0
   21.5948  -14.8592   24.6417 S   0  0  0  0  0  0  0  0  0  0  0  0
   22.4061  -15.5310   23.5943 O   0  0  0  0  0  0  0  0  0  0  0  0
   22.3425  -13.6886   25.2377 O   0  0  0  0  0  0  0  0  0  0  0  0
   19.8670  -14.8024   23.9209 C   0  0  0  0  0  0  0  0  0  0  0  0
   18.7871  -15.2213   24.7441 C   0  0  0  0  0  0  0  0  0  0  0  0
   17.5025  -15.1690   24.2727 C   0  0  0  0  0  0  0  0  0  0  0  0
   17.2459  -14.6824   22.9793 C   0  0  0  0  0  0  0  0  0  0  0  0
   18.2864  -14.2690   22.1529 C   0  0  0  0  0  0  0  0  0  0  0  0
   18.0494  -13.8080   20.8897 C   0  0  0  0  0  0  0  0  0  0  0  0
   19.0843  -13.3583   20.0868 C   0  0  0  0  0  0  0  0  0  0  0  0
   20.4046  -13.4626   20.5757 C   0  0  0  0  0  0  0  0  0  0  0  0
   20.6737  -13.9139   21.8523 C   0  0  0  0  0  0  0  0  0  0  0  0
   19.6377  -14.3335   22.6458 C   0  0  0  0  0  0  0  0  0  0  0  0
   16.7314  -13.7104   20.4260 N   0  0  0  0  0  0  0  0  0  0  0  0
   15.9403  -12.4636   20.3924 C   0  0  0  0  0  0  0  0  0  0  0  0
   16.4350  -14.5716   19.0889 C   0  0  0  0  0  0  0  0  0  0  0  0
   23.0331  -17.7915   26.7950 C   0  0  0  0  0  0  0  0  0  0  0  0
   24.4572  -18.3040   27.0606 C   0  0  0  0  0  0  0  0  0  0  0  0
   25.0800  -18.4844   25.7985 C   0  0  0  0  0  0  0  0  0  0  0  0
   25.7013  -17.1816   25.4171 N   0  0  0  0  0  0  0  0  0  0  0  0
   26.4152  -16.9065   26.0368 H   0  0  0  0  0  0  0  0  0  0  0  0
   25.5165  -16.3243   24.4526 C   0  0  0  0  0  0  0  0  0  0  0  0
   25.8144  -16.7290   23.1850 N   0  0  0  0  0  0  0  0  0  0  0  0
   25.0671  -15.1597   24.7197 N   0  0  0  0  0  0  0  0  0  0  0  0
   26.1590  -17.6375   23.0265 H   0  0  0  0  0  0  0  0  0  0  0  0
   25.6849  -16.1126   22.4283 H   0  0  0  0  0  0  0  0  0  0  0  0
   24.8659  -14.9113   25.6509 H   0  0  0  0  0  0  0  0  0  0  0  0
   24.9218  -14.5099   23.9946 H   0  0  0  0  0  0  0  0  0  0  0  0
 17 18  2  0  0  0
 17 26  1  0  0  0
 17 14  1  0  0  0
 18 19  1  0  0  0
 19 20  2  0  0  0
 20 21  1  0  0  0
 21 22  2  0  0  0
 21 26  1  0  0  0
 22 23  1  0  0  0
 22 27  1  0  0  0
 23 24  2  0  0  0
 24 25  1  0  0  0
 25 26  2  0  0  0
 27 28  1  0  0  0
 27 29  1  0  0  0
 14 15  2  0  0  0
 14 16  2  0  0  0
 12  1  1  0  0  0
  1  2  1  0  0  0
  1 30  1  0  0  0
  2  3  2  0  0  0
 30 31  1  0  0  0
 31 32  1  0  0  0
 32 33  1  0  0  0
 33 35  1  0  0  0
 35 36  1  0  0  0
 35 37  2  0  0  0
  4  5  1  0  0  0
  4  9  1  0  0  0
  5  6  1  0  0  0
  6  7  1  0  0  0
  7  8  1  0  0  0
  7 10  1  0  0  0
  8  9  1  0  0  0
 10 11  1  0  0  0
 14 12  1  0  0  0
  2  4  1  0  0  0
 12 13  1  0  0  0
 33 34  1  0  0  0
 36 38  1  0  0  0
 36 39  1  0  0  0
 37 40  1  0  0  0
 37 41  1  0  0  0
M  CHG 1  37   1
M  END
> <minimizedAffinity>
-6.98462

$$$$
1FPC_0ZI_H_371


 41 43  0  0  0  0  0  0  0  0999 V2000
   15.0108  -13.5928   20.5307 C   0  0  0  0  0  0  0  0  0  0  0  0
   15.7181  -12.5826   19.6234 C   0  0  0  0  0  0  0  0  0  0  0  0
   16.3324  -11.5884   20.0515 O   0  0  0  0  0  0  0  0  0  0  0  0
   16.0056  -13.0360   18.2845 N   0  0  0  0  0  0  0  0  0  0  0  0
   16.6396  -11.8843   17.4491 C   0  0  0  0  0  0  0  0  0  0  0  0
   17.3910  -12.4690   16.2625 C   0  0  0  0  0  0  0  0  0  0  0  0
   16.4785  -13.5770   15.5338 C   0  0  0  0  0  0  0  0  0  0  0  0
   15.8401  -14.7201   16.5052 C   0  0  0  0  0  0  0  0  0  0  0  0
   15.0333  -14.0982   17.6696 C   0  0  0  0  0  0  0  0  0  0  0  0
   17.4190  -14.1291   14.6026 C   0  0  0  0  0  0  0  0  0  0  0  0
   16.8327  -15.1468   13.5800 C   0  0  0  0  0  0  0  0  0  0  0  0
   15.9031  -13.9489   21.6243 N   0  0  0  0  0  0  0  0  0  0  0  0
   15.3220  -14.0530   22.4561 H   0  0  0  0  0  0  0  0  0  0  0  0
   16.9020  -15.4037   21.5148 S   0  0  0  0  0  0  0  0  0  0  0  0
   17.3082  -15.4658   20.0874 O   0  0  0  0  0  0  0  0  0  0  0  0
   15.8521  -16.4458   21.8248 O   0  0  0  0  0  0  0  0  0  0  0  0
   18.5112  -15.1611   22.4420 C   0  0  0  0  0  0  0  0  0  0  0  0
   19.6158  -14.6203   21.7302 C   0  0  0  0  0  0  0  0  0  0  0  0
   20.8043  -14.3956   22.3722 C   0  0  0  0  0  0  0  0  0  0  0  0
   20.9297  -14.6815   23.7426 C   0  0  0  0  0  0  0  0  0  0  0  0
   19.8637  -15.2143   24.4610 C   0  0  0  0  0  0  0  0  0  0  0  0
   19.9793  -15.5088   25.7892 C   0  0  0  0  0  0  0  0  0  0  0  0
   18.9028  -15.9993   26.5092 C   0  0  0  0  0  0  0  0  0  0  0  0
   17.7007  -16.2651   25.8182 C   0  0  0  0  0  0  0  0  0  0  0  0
   17.5510  -15.9671   24.4786 C   0  0  0  0  0  0  0  0  0  0  0  0
   18.6174  -15.4593   23.7830 C   0  0  0  0  0  0  0  0  0  0  0  0
   21.1803  -15.2344   26.4556 N   0  0  0  0  0  0  0  0  0  0  0  0
   21.3494  -14.1990   27.4953 C   0  0  0  0  0  0  0  0  0  0  0  0
   22.0251  -16.5518   26.8661 C   0  0  0  0  0  0  0  0  0  0  0  0
   13.7515  -12.9804   21.1001 C   0  0  0  0  0  0  0  0  0  0  0  0
   12.3438  -12.4057   20.8776 C   0  0  0  0  0  0  0  0  0  0  0  0
   12.2586  -11.2037   21.6267 C   0  0  0  0  0  0  0  0  0  0  0  0
   12.0430  -11.5821   23.0547 N   0  0  0  0  0  0  0  0  0  0  0  0
   12.8723  -11.8719   23.4991 H   0  0  0  0  0  0  0  0  0  0  0  0
   11.0098  -11.6172   23.8488 C   0  0  0  0  0  0  0  0  0  0  0  0
   10.8742  -10.6034   24.7506 N   0  0  0  0  0  0  0  0  0  0  0  0
   10.1729  -12.5766   23.7550 N   0  0  0  0  0  0  0  0  0  0  0  0
   11.5451   -9.8838   24.7868 H   0  0  0  0  0  0  0  0  0  0  0  0
   10.1054  -10.5910   25.3654 H   0  0  0  0  0  0  0  0  0  0  0  0
   10.3118  -13.2875   23.0883 H   0  0  0  0  0  0  0  0  0  0  0  0
    9.3887  -12.6056   24.3495 H   0  0  0  0  0  0  0  0  0  0  0  0
 17 18  2  0  0  0
 17 26  1  0  0  0
 17 14  1  0  0  0
 18 19  1  0  0  0
 19 20  2  0  0  0
 20 21  1  0  0  0
 21 22  2  0  0  0
 21 26  1  0  0  0
 22 23  1  0  0  0
 22 27  1  0  0  0
 23 24  2  0  0  0
 24 25  1  0  0  0
 25 26  2  0  0  0
 27 28  1  0  0  0
 27 29  1  0  0  0
 14 15  2  0  0  0
 14 16  2  0  0  0
 12  1  1  0  0  0
  1  2  1  0  0  0
  1 30  1  0  0  0
  2  3  2  0  0  0
 30 31  1  0  0  0
 31 32  1  0  0  0
 32 33  1  0  0  0
 33 35  1  0  0  0
 35 36  1  0  0  0
 35 37  2  0  0  0
  4  5  1  0  0  0
  4  9  1  0  0  0
  5  6  1  0  0  0
  6  7  1  0  0  0
  7  8  1  0  0  0
  7 10  1  0  0  0
  8  9  1  0  0  0
 10 11  1  0  0  0
 14 12  1  0  0  0
  2  4  1  0  0  0
 12 13  1  0  0  0
 33 34  1  0  0  0
 36 38  1  0  0  0
 36 39  1  0  0  0
 37 40  1  0  0  0
 37 41  1  0  0  0
M  CHG 1  37   1
M  END
> <minimizedAffinity>
-6.90874

$$$$
1FPC_0ZI_H_371


 41 43  0  0  0  0  0  0  0  0999 V2000
   16.9729  -14.4847   22.4973 C   0  0  0  0  0  0  0  0  0  0  0  0
   16.8451  -15.8538   23.1705 C   0  0  0  0  0  0  0  0  0  0  0  0
   16.1669  -16.7871   22.7040 O   0  0  0  0  0  0  0  0  0  0  0  0
   17.8610  -16.1710   24.1442 N   0  0  0  0  0  0  0  0  0  0  0  0
   17.5587  -17.5457   24.8115 C   0  0  0  0  0  0  0  0  0  0  0  0
   18.8331  -18.1059   25.4251 C   0  0  0  0  0  0  0  0  0  0  0  0
   19.5825  -16.9562   26.2662 C   0  0  0  0  0  0  0  0  0  0  0  0
   19.8231  -15.5469   25.4825 C   0  0  0  0  0  0  0  0  0  0  0  0
   18.5022  -14.9710   24.9193 C   0  0  0  0  0  0  0  0  0  0  0  0
   20.8182  -17.6137   26.5779 C   0  0  0  0  0  0  0  0  0  0  0  0
   22.0021  -16.6747   26.9545 C   0  0  0  0  0  0  0  0  0  0  0  0
   17.9024  -14.5934   21.3822 N   0  0  0  0  0  0  0  0  0  0  0  0
   17.3823  -14.9993   20.6043 H   0  0  0  0  0  0  0  0  0  0  0  0
   18.7094  -13.1495   20.7577 S   0  0  0  0  0  0  0  0  0  0  0  0
   20.1173  -13.2886   21.2107 O   0  0  0  0  0  0  0  0  0  0  0  0
   17.9836  -12.0957   21.5621 O   0  0  0  0  0  0  0  0  0  0  0  0
   18.8172  -13.2194   18.8891 C   0  0  0  0  0  0  0  0  0  0  0  0
   20.1084  -13.2517   18.2965 C   0  0  0  0  0  0  0  0  0  0  0  0
   20.2387  -13.3341   16.9359 C   0  0  0  0  0  0  0  0  0  0  0  0
   19.0953  -13.4063   16.1217 C   0  0  0  0  0  0  0  0  0  0  0  0
   17.8201  -13.3734   16.6777 C   0  0  0  0  0  0  0  0  0  0  0  0
   16.7027  -13.4286   15.8949 C   0  0  0  0  0  0  0  0  0  0  0  0
   15.4365  -13.4382   16.4558 C   0  0  0  0  0  0  0  0  0  0  0  0
   15.3241  -13.3077   17.8571 C   0  0  0  0  0  0  0  0  0  0  0  0
   16.4357  -13.2612   18.6743 C   0  0  0  0  0  0  0  0  0  0  0  0
   17.6838  -13.2770   18.1078 C   0  0  0  0  0  0  0  0  0  0  0  0
   16.8374  -13.5607   14.5071 N   0  0  0  0  0  0  0  0  0  0  0  0
   16.6407  -14.8179   13.7574 C   0  0  0  0  0  0  0  0  0  0  0  0
   16.2179  -12.3279   13.6620 C   0  0  0  0  0  0  0  0  0  0  0  0
   15.6258  -14.0394   21.9758 C   0  0  0  0  0  0  0  0  0  0  0  0
   14.4684  -13.0288   21.9976 C   0  0  0  0  0  0  0  0  0  0  0  0
   13.2654  -13.7718   22.1172 C   0  0  0  0  0  0  0  0  0  0  0  0
   12.3837  -13.0423   23.0759 N   0  0  0  0  0  0  0  0  0  0  0  0
   12.6347  -13.1979   24.0151 H   0  0  0  0  0  0  0  0  0  0  0  0
   11.3580  -12.2467   22.9562 C   0  0  0  0  0  0  0  0  0  0  0  0
   10.2004  -12.6144   23.5760 N   0  0  0  0  0  0  0  0  0  0  0  0
   11.4695  -11.1690   22.2811 N   0  0  0  0  0  0  0  0  0  0  0  0
   10.1609  -13.4554   24.0863 H   0  0  0  0  0  0  0  0  0  0  0  0
    9.4042  -12.0388   23.5133 H   0  0  0  0  0  0  0  0  0  0  0  0
   12.3258  -10.9442   21.8505 H   0  0  0  0  0  0  0  0  0  0  0  0
   10.6992  -10.5626   22.1911 H   0  0  0  0  0  0  0  0  0  0  0  0
 17 18  2  0  0  0
 17 26  1  0  0  0
 17 14  1  0  0  0
 18 19  1  0  0  0
 19 20  2  0  0  0
 20 21  1  0  0  0
 21 22  2  0  0  0
 21 26  1  0  0  0
 22 23  1  0  0  0
 22 27  1  0  0  0
 23 24  2  0  0  0
 24 25  1  0  0  0
 25 26  2  0  0  0
 27 28  1  0  0  0
 27 29  1  0  0  0
 14 15  2  0  0  0
 14 16  2  0  0  0
 12  1  1  0  0  0
  1  2  1  0  0  0
  1 30  1  0  0  0
  2  3  2  0  0  0
 30 31  1  0  0  0
 31 32  1  0  0  0
 32 33  1  0  0  0
 33 35  1  0  0  0
 35 36  1  0  0  0
 35 37  2  0  0  0
  4  5  1  0  0  0
  4  9  1  0  0  0
  5  6  1  0  0  0
  6  7  1  0  0  0
  7  8  1  0  0  0
  7 10  1  0  0  0
  8  9  1  0  0  0
 10 11  1  0  0  0
 14 12  1  0  0  0
  2  4  1  0  0  0
 12 13  1  0  0  0
 33 34  1  0  0  0
 36 38  1  0  0  0
 36 39  1  0  0  0
 37 40  1  0  0  0
 37 41  1  0  0  0
M  CHG 1  37   1
M  END
> <minimizedAffinity>
-6.65581

$$$$
1FPC_0ZI_H_371


 41 43  0  0  0  0  0  0  0  0999 V2000
   17.1987  -16.2175   22.6217 C   0  0  0  0  0  0  0  0  0  0  0  0
   18.5560  -16.8858   22.8565 C   0  0  0  0  0  0  0  0  0  0  0  0
   18.9916  -17.8188   22.1574 O   0  0  0  0  0  0  0  0  0  0  0  0
   19.4967  -16.1330   23.6498 N   0  0  0  0  0  0  0  0  0  0  0  0
   20.7926  -16.9649   23.8840 C   0  0  0  0  0  0  0  0  0  0  0  0
   21.9375  -16.0328   24.2511 C   0  0  0  0  0  0  0  0  0  0  0  0
   21.4473  -14.9839   25.3695 C   0  0  0  0  0  0  0  0  0  0  0  0
   20.0639  -14.1879   25.0371 C   0  0  0  0  0  0  0  0  0  0  0  0
   18.9028  -15.1614   24.7246 C   0  0  0  0  0  0  0  0  0  0  0  0
   22.5752  -14.0998   25.4212 C   0  0  0  0  0  0  0  0  0  0  0  0
   23.7718  -14.4834   24.5014 C   0  0  0  0  0  0  0  0  0  0  0  0
   17.2825  -15.3881   21.4283 N   0  0  0  0  0  0  0  0  0  0  0  0
   16.7937  -15.8894   20.6867 H   0  0  0  0  0  0  0  0  0  0  0  0
   16.6338  -13.7434   21.4453 S   0  0  0  0  0  0  0  0  0  0  0  0
   17.8329  -12.8749   21.5643 O   0  0  0  0  0  0  0  0  0  0  0  0
   15.8707  -13.7943   22.7490 O   0  0  0  0  0  0  0  0  0  0  0  0
   15.9141  -13.3090   19.7715 C   0  0  0  0  0  0  0  0  0  0  0  0
   14.5352  -12.9719   19.7059 C   0  0  0  0  0  0  0  0  0  0  0  0
   13.9701  -12.6172   18.5101 C   0  0  0  0  0  0  0  0  0  0  0  0
   14.7569  -12.5668   17.3465 C   0  0  0  0  0  0  0  0  0  0  0  0
   16.1087  -12.8952   17.3842 C   0  0  0  0  0  0  0  0  0  0  0  0
   16.8787  -12.8633   16.2571 C   0  0  0  0  0  0  0  0  0  0  0  0
   18.2326  -13.1501   16.3078 C   0  0  0  0  0  0  0  0  0  0  0  0
   18.7850  -13.5563   17.5419 C   0  0  0  0  0  0  0  0  0  0  0  0
   18.0338  -13.5871   18.6997 C   0  0  0  0  0  0  0  0  0  0  0  0
   16.6998  -13.2775   18.6402 C   0  0  0  0  0  0  0  0  0  0  0  0
   16.3106  -12.4547   15.0438 N   0  0  0  0  0  0  0  0  0  0  0  0
   16.2436  -11.0561   14.5738 C   0  0  0  0  0  0  0  0  0  0  0  0
   16.6480  -13.4263   13.7949 C   0  0  0  0  0  0  0  0  0  0  0  0
   16.1343  -17.2712   22.4170 C   0  0  0  0  0  0  0  0  0  0  0  0
   14.6784  -17.7305   22.5918 C   0  0  0  0  0  0  0  0  0  0  0  0
   13.9478  -17.2407   21.4784 C   0  0  0  0  0  0  0  0  0  0  0  0
   12.8560  -16.3714   22.0085 N   0  0  0  0  0  0  0  0  0  0  0  0
   12.2426  -16.8561   22.6069 H   0  0  0  0  0  0  0  0  0  0  0  0
   12.5276  -15.1184   21.8617 C   0  0  0  0  0  0  0  0  0  0  0  0
   11.7562  -14.7917   20.7858 N   0  0  0  0  0  0  0  0  0  0  0  0
   12.9261  -14.2565   22.7148 N   0  0  0  0  0  0  0  0  0  0  0  0
   11.4722  -15.4907   20.1533 H   0  0  0  0  0  0  0  0  0  0  0  0
   11.4832  -13.8569   20.6415 H   0  0  0  0  0  0  0  0  0  0  0  0
   13.4820  -14.5386   23.4768 H   0  0  0  0  0  0  0  0  0  0  0  0
   12.6774  -13.3096   22.6109 H   0  0  0  0  0  0  0  0  0  0  0  0
 17 18  2  0  0  0
 17 26  1  0  0  0
 17 14  1  0  0  0
 18 19  1  0  0  0
 19 20  2  0  0  0
 20 21  1  0  0  0
 21 22  2  0  0  0
 21 26  1  0  0  0
 22 23  1  0  0  0
 22 27  1  0  0  0
 23 24  2  0  0  0
 24 25  1  0  0  0
 25 26  2  0  0  0
 27 28  1  0  0  0
 27 29  1  0  0  0
 14 15  2  0  0  0
 14 16  2  0  0  0
 12  1  1  0  0  0
  1  2  1  0  0  0
  1 30  1  0  0  0
  2  3  2  0  0  0
 30 31  1  0  0  0
 31 32  1  0  0  0
 32 33  1  0  0  0
 33 35  1  0  0  0
 35 36  1  0  0  0
 35 37  2  0  0  0
  4  5  1  0  0  0
  4  9  1  0  0  0
  5  6  1  0  0  0
  6  7  1  0  0  0
  7  8  1  0  0  0
  7 10  1  0  0  0
  8  9  1  0  0  0
 10 11  1  0  0  0
 14 12  1  0  0  0
  2  4  1  0  0  0
 12 13  1  0  0  0
 33 34  1  0  0  0
 36 38  1  0  0  0
 36 39  1  0  0  0
 37 40  1  0  0  0
 37 41  1  0  0  0
M  CHG 1  37   1
M  END
> <minimizedAffinity>
-6.43383

$$$$
1FPC_0ZI_H_371


 41 43  0  0  0  0  0  0  0  0999 V2000
   16.0663  -14.2154   21.1211 C   0  0  0  0  0  0  0  0  0  0  0  0
   14.5655  -14.4629   21.2953 C   0  0  0  0  0  0  0  0  0  0  0  0
   14.0673  -15.5962   21.4228 O   0  0  0  0  0  0  0  0  0  0  0  0
   13.7878  -13.3255   21.7221 N   0  0  0  0  0  0  0  0  0  0  0  0
   12.2749  -13.6934   21.7702 C   0  0  0  0  0  0  0  0  0  0  0  0
   11.5408  -12.7151   22.6748 C   0  0  0  0  0  0  0  0  0  0  0  0
   11.9868  -11.2091   22.3224 C   0  0  0  0  0  0  0  0  0  0  0  0
   13.5939  -10.9396   22.2696 C   0  0  0  0  0  0  0  0  0  0  0  0
   14.3067  -11.9102   21.2984 C   0  0  0  0  0  0  0  0  0  0  0  0
   11.3569  -10.4859   23.3885 C   0  0  0  0  0  0  0  0  0  0  0  0
   11.0049  -11.3246   24.6526 C   0  0  0  0  0  0  0  0  0  0  0  0
   16.7851  -15.4425   21.4322 N   0  0  0  0  0  0  0  0  0  0  0  0
   16.7378  -16.0301   20.5998 H   0  0  0  0  0  0  0  0  0  0  0  0
   18.4851  -15.3756   21.9133 S   0  0  0  0  0  0  0  0  0  0  0  0
   18.7995  -13.9245   21.9569 O   0  0  0  0  0  0  0  0  0  0  0  0
   19.1088  -16.0286   20.7013 O   0  0  0  0  0  0  0  0  0  0  0  0
   18.6836  -15.9439   23.6870 C   0  0  0  0  0  0  0  0  0  0  0  0
   17.6775  -15.5773   24.6211 C   0  0  0  0  0  0  0  0  0  0  0  0
   17.7623  -15.9948   25.9225 C   0  0  0  0  0  0  0  0  0  0  0  0
   18.8354  -16.8036   26.3344 C   0  0  0  0  0  0  0  0  0  0  0  0
   19.8347  -17.1736   25.4394 C   0  0  0  0  0  0  0  0  0  0  0  0
   20.8889  -17.9472   25.8326 C   0  0  0  0  0  0  0  0  0  0  0  0
   21.8584  -18.3476   24.9283 C   0  0  0  0  0  0  0  0  0  0  0  0
   21.7755  -17.8694   23.6026 C   0  0  0  0  0  0  0  0  0  0  0  0
   20.7158  -17.0954   23.1738 C   0  0  0  0  0  0  0  0  0  0  0  0
   19.7499  -16.7261   24.0736 C   0  0  0  0  0  0  0  0  0  0  0  0
   20.9498  -18.4128   27.1521 N   0  0  0  0  0  0  0  0  0  0  0  0
   20.4044  -19.7048   27.6156 C   0  0  0  0  0  0  0  0  0  0  0  0
   22.3619  -18.1297   27.8892 C   0  0  0  0  0  0  0  0  0  0  0  0
   16.3605  -13.8194   19.6922 C   0  0  0  0  0  0  0  0  0  0  0  0
   17.2042  -13.0155   18.6905 C   0  0  0  0  0  0  0  0  0  0  0  0
   18.0283  -13.9407   17.9991 C   0  0  0  0  0  0  0  0  0  0  0  0
   19.3691  -13.9213   18.6553 N   0  0  0  0  0  0  0  0  0  0  0  0
   19.5958  -14.7803   19.0795 H   0  0  0  0  0  0  0  0  0  0  0  0
   20.3090  -13.0290   18.7961 C   0  0  0  0  0  0  0  0  0  0  0  0
   20.7178  -12.3636   17.6783 N   0  0  0  0  0  0  0  0  0  0  0  0
   20.8024  -12.8078   19.9525 N   0  0  0  0  0  0  0  0  0  0  0  0
   20.3083  -12.5676   16.8066 H   0  0  0  0  0  0  0  0  0  0  0  0
   21.4225  -11.6791   17.7430 H   0  0  0  0  0  0  0  0  0  0  0  0
   20.4759  -13.3130   20.7318 H   0  0  0  0  0  0  0  0  0  0  0  0
   21.5095  -12.1321   20.0650 H   0  0  0  0  0  0  0  0  0  0  0  0
 17 18  2  0  0  0
 17 26  1  0  0  0
 17 14  1  0  0  0
 18 19  1  0  0  0
 19 20  2  0  0  0
 20 21  1  0  0  0
 21 22  2  0  0  0
 21 26  1  0  0  0
 22 23  1  0  0  0
 22 27  1  0  0  0
 23 24  2  0  0  0
 24 25  1  0  0  0
 25 26  2  0  0  0
 27 28  1  0  0  0
 27 29  1  0  0  0
 14 15  2  0  0  0
 14 16  2  0  0  0
 12  1  1  0  0  0
  1  2  1  0  0  0
  1 30  1  0  0  0
  2  3  2  0  0  0
 30 31  1  0  0  0
 31 32  1  0  0  0
 32 33  1  0  0  0
 33 35  1  0  0  0
 35 36  1  0  0  0
 35 37  2  0  0  0
  4  5  1  0  0  0
  4  9  1  0  0  0
  5  6  1  0  0  0
  6  7  1  0  0  0
  7  8  1  0  0  0
  7 10  1  0  0  0
  8  9  1  0  0  0
 10 11  1  0  0  0
 14 12  1  0  0  0
  2  4  1  0  0  0
 12 13  1  0  0  0
 33 34  1  0  0  0
 36 38  1  0  0  0
 36 39  1  0  0  0
 37 40  1  0  0  0
 37 41  1  0  0  0
M  CHG 1  37   1
M  END
> <minimizedAffinity>
-6.39938

$$$$
1FPC_0ZI_H_371


 41 43  0  0  0  0  0  0  0  0999 V2000
   15.9757  -14.6565   20.7915 C   0  0  0  0  0  0  0  0  0  0  0  0
   14.4985  -14.8147   21.1611 C   0  0  0  0  0  0  0  0  0  0  0  0
   13.9846  -15.9010   21.4845 O   0  0  0  0  0  0  0  0  0  0  0  0
   13.8097  -13.6006   21.5253 N   0  0  0  0  0  0  0  0  0  0  0  0
   12.3023  -13.8929   21.7870 C   0  0  0  0  0  0  0  0  0  0  0  0
   11.7073  -12.7805   22.6374 C   0  0  0  0  0  0  0  0  0  0  0  0
   12.1546  -11.3497   22.0511 C   0  0  0  0  0  0  0  0  0  0  0  0
   13.7521  -11.1596   21.7867 C   0  0  0  0  0  0  0  0  0  0  0  0
   14.3184  -12.2715   20.8721 C   0  0  0  0  0  0  0  0  0  0  0  0
   11.6741  -10.4753   23.0812 C   0  0  0  0  0  0  0  0  0  0  0  0
   11.2408  -11.1717   24.4050 C   0  0  0  0  0  0  0  0  0  0  0  0
   16.7726  -15.5094   21.6614 N   0  0  0  0  0  0  0  0  0  0  0  0
   17.3131  -16.1256   21.0544 H   0  0  0  0  0  0  0  0  0  0  0  0
   17.9140  -14.7898   22.8039 S   0  0  0  0  0  0  0  0  0  0  0  0
   17.1759  -14.7585   24.0927 O   0  0  0  0  0  0  0  0  0  0  0  0
   18.0190  -13.4055   22.2065 O   0  0  0  0  0  0  0  0  0  0  0  0
   19.3440  -15.9574   23.1198 C   0  0  0  0  0  0  0  0  0  0  0  0
   19.3254  -17.2240   22.4758 C   0  0  0  0  0  0  0  0  0  0  0  0
   20.3632  -18.0999   22.6510 C   0  0  0  0  0  0  0  0  0  0  0  0
   21.4600  -17.7413   23.4535 C   0  0  0  0  0  0  0  0  0  0  0  0
   21.5004  -16.5082   24.0971 C   0  0  0  0  0  0  0  0  0  0  0  0
   22.5544  -16.1557   24.8902 C   0  0  0  0  0  0  0  0  0  0  0  0
   22.6095  -14.9108   25.4945 C   0  0  0  0  0  0  0  0  0  0  0  0
   21.5089  -14.0408   25.3367 C   0  0  0  0  0  0  0  0  0  0  0  0
   20.4351  -14.3655   24.5321 C   0  0  0  0  0  0  0  0  0  0  0  0
   20.4042  -15.5916   23.9202 C   0  0  0  0  0  0  0  0  0  0  0  0
   23.6371  -17.0331   25.0306 N   0  0  0  0  0  0  0  0  0  0  0  0
   25.0321  -16.7152   24.6639 C   0  0  0  0  0  0  0  0  0  0  0  0
   23.6233  -17.8863   26.4052 C   0  0  0  0  0  0  0  0  0  0  0  0
   16.1949  -15.0737   19.3552 C   0  0  0  0  0  0  0  0  0  0  0  0
   16.5862  -14.7028   17.9162 C   0  0  0  0  0  0  0  0  0  0  0  0
   17.5234  -13.6406   17.9973 C   0  0  0  0  0  0  0  0  0  0  0  0
   16.7618  -12.3627   17.8711 N   0  0  0  0  0  0  0  0  0  0  0  0
   16.8150  -11.8083   18.6828 H   0  0  0  0  0  0  0  0  0  0  0  0
   16.0426  -11.8119   16.9337 C   0  0  0  0  0  0  0  0  0  0  0  0
   14.6928  -11.7651   17.1216 N   0  0  0  0  0  0  0  0  0  0  0  0
   16.6135  -11.3393   15.8944 N   0  0  0  0  0  0  0  0  0  0  0  0
   14.2962  -12.1427   17.9398 H   0  0  0  0  0  0  0  0  0  0  0  0
   14.1148  -11.3536   16.4391 H   0  0  0  0  0  0  0  0  0  0  0  0
   17.5920  -11.3956   15.8017 H   0  0  0  0  0  0  0  0  0  0  0  0
   16.0753  -10.9186   15.1855 H   0  0  0  0  0  0  0  0  0  0  0  0
 17 18  2  0  0  0
 17 26  1  0  0  0
 17 14  1  0  0  0
 18 19  1  0  0  0
 19 20  2  0  0  0
 20 21  1  0  0  0
 21 22  2  0  0  0
 21 26  1  0  0  0
 22 23  1  0  0  0
 22 27  1  0  0  0
 23 24  2  0  0  0
 24 25  1  0  0  0
 25 26  2  0  0  0
 27 28  1  0  0  0
 27 29  1  0  0  0
 14 15  2  0  0  0
 14 16  2  0  0  0
 12  1  1  0  0  0
  1  2  1  0  0  0
  1 30  1  0  0  0
  2  3  2  0  0  0
 30 31  1  0  0  0
 31 32  1  0  0  0
 32 33  1  0  0  0
 33 35  1  0  0  0
 35 36  1  0  0  0
 35 37  2  0  0  0
  4  5  1  0  0  0
  4  9  1  0  0  0
  5  6  1  0  0  0
  6  7  1  0  0  0
  7  8  1  0  0  0
  7 10  1  0  0  0
  8  9  1  0  0  0
 10 11  1  0  0  0
 14 12  1  0  0  0
  2  4  1  0  0  0
 12 13  1  0  0  0
 33 34  1  0  0  0
 36 38  1  0  0  0
 36 39  1  0  0  0
 37 40  1  0  0  0
 37 41  1  0  0  0
M  CHG 1  37   1
M  END
> <minimizedAffinity>
-6.38746

$$$$
