1FLR_FLU_L_600


 27 30  0  0  0  0  0  0  0  0999 V2000
   28.8801   22.3457   42.3858 C   0  0  0  0  0  0  0  0  0  0  0  0
   29.9494   22.0032   42.8939 O   0  0  0  0  0  0  0  0  0  0  0  0
   28.1208   21.2916   41.8224 C   0  0  0  0  0  0  0  0  0  0  0  0
   26.9258   21.7369   41.2511 C   0  0  0  0  0  0  0  0  0  0  0  0
   26.1655   20.6197   40.6186 O   0  0  0  0  0  0  0  0  0  0  0  0
   25.1375   21.0802   40.1432 C   0  0  0  0  0  0  0  0  0  0  0  0
   24.4554   19.9781   39.5914 C   0  0  0  0  0  0  0  0  0  0  0  0
   23.2648   20.3335   38.9636 C   0  0  0  0  0  0  0  0  0  0  0  0
   22.6040   19.4288   38.4529 O   0  0  0  0  0  0  0  0  0  0  0  0
   22.7813   21.6112   38.9257 C   0  0  0  0  0  0  0  0  0  0  0  0
   23.4985   22.6833   39.5134 C   0  0  0  0  0  0  0  0  0  0  0  0
   24.6963   22.3336   40.1322 C   0  0  0  0  0  0  0  0  0  0  0  0
   25.3505   23.4891   40.7458 C   0  0  0  0  0  0  0  0  0  0  0  0
   26.4713   22.9900   41.2700 C   0  0  0  0  0  0  0  0  0  0  0  0
   27.2116   24.0335   41.9054 C   0  0  0  0  0  0  0  0  0  0  0  0
   28.4474   23.6069   42.4298 C   0  0  0  0  0  0  0  0  0  0  0  0
   30.2257   21.1091   42.8461 H   0  0  0  0  0  0  0  0  0  0  0  0
   24.8673   24.7197   40.7097 C   0  0  0  0  0  0  0  0  0  0  0  0
   24.7778   25.4978   39.5649 C   0  0  0  0  0  0  0  0  0  0  0  0
   24.1916   26.7451   39.4625 C   0  0  0  0  0  0  0  0  0  0  0  0
   23.6418   27.3374   40.6484 C   0  0  0  0  0  0  0  0  0  0  0  0
   23.7840   26.5167   41.7743 C   0  0  0  0  0  0  0  0  0  0  0  0
   24.3172   25.2600   41.9045 C   0  0  0  0  0  0  0  0  0  0  0  0
   24.2628   24.7361   43.2158 C   0  0  0  0  0  0  0  0  0  0  0  0
   25.0044   25.5531   44.0525 O   0  0  0  0  0  0  0  0  0  0  0  0
   23.5982   23.6942   43.7374 O   0  0  0  0  0  0  0  0  0  0  0  0
   23.0931   23.1346   43.1809 H   0  0  0  0  0  0  0  0  0  0  0  0
  1  2  1  0  0  0
  1  3  2  0  0  0
  1 16  1  0  0  0
  3  4  1  0  0  0
  4  5  1  0  0  0
  4 14  2  0  0  0
  5  6  1  0  0  0
  6  7  2  0  0  0
  6 12  1  0  0  0
  7  8  1  0  0  0
  8  9  2  0  0  0
  8 10  1  0  0  0
 10 11  2  0  0  0
 11 12  1  0  0  0
 12 13  2  0  0  0
 13 14  1  0  0  0
 13 18  1  0  0  0
 14 15  1  0  0  0
 15 16  2  0  0  0
 18 19  2  0  0  0
 18 23  1  0  0  0
 19 20  1  0  0  0
 20 21  2  0  0  0
 21 22  1  0  0  0
 22 23  2  0  0  0
 23 24  1  0  0  0
 24 25  2  0  0  0
 24 26  1  0  0  0
  2 17  1  0  0  0
 26 27  1  0  0  0
M  END
> <minimizedAffinity>
-12.84443

$$$$
1FLR_FLU_L_600


 27 30  0  0  0  0  0  0  0  0999 V2000
   23.2033   20.3165   38.9870 C   0  0  0  0  0  0  0  0  0  0  0  0
   22.5913   19.3749   38.4795 O   0  0  0  0  0  0  0  0  0  0  0  0
   24.4565   19.9794   39.5536 C   0  0  0  0  0  0  0  0  0  0  0  0
   25.1010   21.0803   40.1239 C   0  0  0  0  0  0  0  0  0  0  0  0
   26.3947   20.6951   40.7597 O   0  0  0  0  0  0  0  0  0  0  0  0
   26.9003   21.7021   41.2343 C   0  0  0  0  0  0  0  0  0  0  0  0
   28.1240   21.2790   41.7893 C   0  0  0  0  0  0  0  0  0  0  0  0
   28.8218   22.3075   42.4165 C   0  0  0  0  0  0  0  0  0  0  0  0
   29.9043   22.0240   42.9298 O   0  0  0  0  0  0  0  0  0  0  0  0
   28.3901   23.6037   42.4509 C   0  0  0  0  0  0  0  0  0  0  0  0
   27.1582   23.9812   41.8601 C   0  0  0  0  0  0  0  0  0  0  0  0
   26.4512   22.9527   41.2419 C   0  0  0  0  0  0  0  0  0  0  0  0
   25.2157   23.4347   40.6249 C   0  0  0  0  0  0  0  0  0  0  0  0
   24.6625   22.3391   40.1017 C   0  0  0  0  0  0  0  0  0  0  0  0
   23.4309   22.6798   39.4632 C   0  0  0  0  0  0  0  0  0  0  0  0
   22.7428   21.5677   38.9396 C   0  0  0  0  0  0  0  0  0  0  0  0
   22.9413   18.5072   38.5297 H   0  0  0  0  0  0  0  0  0  0  0  0
   24.8135   24.6942   40.6578 C   0  0  0  0  0  0  0  0  0  0  0  0
   24.7883   25.5422   39.5603 C   0  0  0  0  0  0  0  0  0  0  0  0
   24.2852   26.8289   39.5271 C   0  0  0  0  0  0  0  0  0  0  0  0
   23.7605   27.3853   40.7415 C   0  0  0  0  0  0  0  0  0  0  0  0
   23.8358   26.4926   41.8179 C   0  0  0  0  0  0  0  0  0  0  0  0
   24.2851   25.1983   41.8778 C   0  0  0  0  0  0  0  0  0  0  0  0
   24.1811   24.6032   43.1553 C   0  0  0  0  0  0  0  0  0  0  0  0
   24.9442   25.3342   44.0503 O   0  0  0  0  0  0  0  0  0  0  0  0
   23.4584   23.5661   43.6044 O   0  0  0  0  0  0  0  0  0  0  0  0
   22.9383   23.0643   43.0080 H   0  0  0  0  0  0  0  0  0  0  0  0
  1  2  1  0  0  0
  1  3  2  0  0  0
  1 16  1  0  0  0
  3  4  1  0  0  0
  4  5  1  0  0  0
  4 14  2  0  0  0
  5  6  1  0  0  0
  6  7  2  0  0  0
  6 12  1  0  0  0
  7  8  1  0  0  0
  8  9  2  0  0  0
  8 10  1  0  0  0
 10 11  2  0  0  0
 11 12  1  0  0  0
 12 13  2  0  0  0
 13 14  1  0  0  0
 13 18  1  0  0  0
 14 15  1  0  0  0
 15 16  2  0  0  0
 18 19  2  0  0  0
 18 23  1  0  0  0
 19 20  1  0  0  0
 20 21  2  0  0  0
 21 22  1  0  0  0
 22 23  2  0  0  0
 23 24  1  0  0  0
 24 25  2  0  0  0
 24 26  1  0  0  0
  2 17  1  0  0  0
 26 27  1  0  0  0
M  END
> <minimizedAffinity>
-12.71998

$$$$
1FLR_FLU_L_600


 27 30  0  0  0  0  0  0  0  0999 V2000
   24.5921   27.2599   39.7354 C   0  0  0  0  0  0  0  0  0  0  0  0
   24.2545   28.4005   39.4132 O   0  0  0  0  0  0  0  0  0  0  0  0
   23.8747   26.2204   39.0952 C   0  0  0  0  0  0  0  0  0  0  0  0
   24.2897   24.9506   39.5052 C   0  0  0  0  0  0  0  0  0  0  0  0
   23.4878   23.8714   38.8581 O   0  0  0  0  0  0  0  0  0  0  0  0
   23.9043   22.7946   39.2603 C   0  0  0  0  0  0  0  0  0  0  0  0
   23.1315   21.8234   38.5941 C   0  0  0  0  0  0  0  0  0  0  0  0
   23.4508   20.5216   38.9704 C   0  0  0  0  0  0  0  0  0  0  0  0
   22.8214   19.6089   38.4352 O   0  0  0  0  0  0  0  0  0  0  0  0
   24.4426   20.2122   39.8582 C   0  0  0  0  0  0  0  0  0  0  0  0
   25.2048   21.2280   40.4879 C   0  0  0  0  0  0  0  0  0  0  0  0
   24.8804   22.5324   40.1231 C   0  0  0  0  0  0  0  0  0  0  0  0
   25.7389   23.5134   40.7863 C   0  0  0  0  0  0  0  0  0  0  0  0
   25.2904   24.6906   40.3467 C   0  0  0  0  0  0  0  0  0  0  0  0
   26.0557   25.7458   40.9310 C   0  0  0  0  0  0  0  0  0  0  0  0
   25.6051   27.0316   40.5730 C   0  0  0  0  0  0  0  0  0  0  0  0
   23.5384   28.5279   38.8225 H   0  0  0  0  0  0  0  0  0  0  0  0
   26.7018   23.2002   41.6372 C   0  0  0  0  0  0  0  0  0  0  0  0
   27.8465   22.4906   41.3054 C   0  0  0  0  0  0  0  0  0  0  0  0
   28.9202   22.2279   42.1349 C   0  0  0  0  0  0  0  0  0  0  0  0
   28.8608   22.6922   43.4915 C   0  0  0  0  0  0  0  0  0  0  0  0
   27.6729   23.3785   43.7729 C   0  0  0  0  0  0  0  0  0  0  0  0
   26.6099   23.6961   42.9667 C   0  0  0  0  0  0  0  0  0  0  0  0
   25.5874   24.4285   43.6110 C   0  0  0  0  0  0  0  0  0  0  0  0
   26.1464   25.5516   44.1974 O   0  0  0  0  0  0  0  0  0  0  0  0
   24.2595   24.2490   43.6726 O   0  0  0  0  0  0  0  0  0  0  0  0
   23.8702   23.4928   43.2793 H   0  0  0  0  0  0  0  0  0  0  0  0
  1  2  1  0  0  0
  1  3  2  0  0  0
  1 16  1  0  0  0
  3  4  1  0  0  0
  4  5  1  0  0  0
  4 14  2  0  0  0
  5  6  1  0  0  0
  6  7  2  0  0  0
  6 12  1  0  0  0
  7  8  1  0  0  0
  8  9  2  0  0  0
  8 10  1  0  0  0
 10 11  2  0  0  0
 11 12  1  0  0  0
 12 13  2  0  0  0
 13 14  1  0  0  0
 13 18  1  0  0  0
 14 15  1  0  0  0
 15 16  2  0  0  0
 18 19  2  0  0  0
 18 23  1  0  0  0
 19 20  1  0  0  0
 20 21  2  0  0  0
 21 22  1  0  0  0
 22 23  2  0  0  0
 23 24  1  0  0  0
 24 25  2  0  0  0
 24 26  1  0  0  0
  2 17  1  0  0  0
 26 27  1  0  0  0
M  END
> <minimizedAffinity>
-10.40661

$$$$
1FLR_FLU_L_600


 27 30  0  0  0  0  0  0  0  0999 V2000
   24.9571   20.1782   39.6475 C   0  0  0  0  0  0  0  0  0  0  0  0
   24.5681   19.1204   39.1492 O   0  0  0  0  0  0  0  0  0  0  0  0
   24.3585   21.3459   39.1152 C   0  0  0  0  0  0  0  0  0  0  0  0
   24.8436   22.5151   39.7071 C   0  0  0  0  0  0  0  0  0  0  0  0
   24.2386   23.7353   39.0977 O   0  0  0  0  0  0  0  0  0  0  0  0
   24.7056   24.7142   39.6619 C   0  0  0  0  0  0  0  0  0  0  0  0
   24.0765   25.8243   39.0652 C   0  0  0  0  0  0  0  0  0  0  0  0
   24.5277   27.0413   39.5685 C   0  0  0  0  0  0  0  0  0  0  0  0
   24.0290   28.0652   39.1008 O   0  0  0  0  0  0  0  0  0  0  0  0
   25.4505   27.1505   40.5704 C   0  0  0  0  0  0  0  0  0  0  0  0
   26.0408   25.9999   41.1509 C   0  0  0  0  0  0  0  0  0  0  0  0
   25.6008   24.7804   40.6419 C   0  0  0  0  0  0  0  0  0  0  0  0
   26.2283   23.6476   41.3218 C   0  0  0  0  0  0  0  0  0  0  0  0
   25.7178   22.5765   40.7117 C   0  0  0  0  0  0  0  0  0  0  0  0
   26.2607   21.3886   41.2905 C   0  0  0  0  0  0  0  0  0  0  0  0
   25.8259   20.2066   40.6595 C   0  0  0  0  0  0  0  0  0  0  0  0
   23.9570   19.1338   38.4390 H   0  0  0  0  0  0  0  0  0  0  0  0
   27.1139   23.7668   42.2969 C   0  0  0  0  0  0  0  0  0  0  0  0
   28.4747   23.5364   42.1578 C   0  0  0  0  0  0  0  0  0  0  0  0
   29.4459   23.7437   43.1188 C   0  0  0  0  0  0  0  0  0  0  0  0
   29.0343   24.2108   44.4118 C   0  0  0  0  0  0  0  0  0  0  0  0
   27.6494   24.4008   44.4985 C   0  0  0  0  0  0  0  0  0  0  0  0
   26.6643   24.2492   43.5566 C   0  0  0  0  0  0  0  0  0  0  0  0
   25.3649   24.5618   44.0159 C   0  0  0  0  0  0  0  0  0  0  0  0
   25.4036   25.7864   44.6611 O   0  0  0  0  0  0  0  0  0  0  0  0
   24.1881   23.9346   43.8698 O   0  0  0  0  0  0  0  0  0  0  0  0
   24.1499   23.1056   43.4349 H   0  0  0  0  0  0  0  0  0  0  0  0
  1  2  1  0  0  0
  1  3  2  0  0  0
  1 16  1  0  0  0
  3  4  1  0  0  0
  4  5  1  0  0  0
  4 14  2  0  0  0
  5  6  1  0  0  0
  6  7  2  0  0  0
  6 12  1  0  0  0
  7  8  1  0  0  0
  8  9  2  0  0  0
  8 10  1  0  0  0
 10 11  2  0  0  0
 11 12  1  0  0  0
 12 13  2  0  0  0
 13 14  1  0  0  0
 13 18  1  0  0  0
 14 15  1  0  0  0
 15 16  2  0  0  0
 18 19  2  0  0  0
 18 23  1  0  0  0
 19 20  1  0  0  0
 20 21  2  0  0  0
 21 22  1  0  0  0
 22 23  2  0  0  0
 23 24  1  0  0  0
 24 25  2  0  0  0
 24 26  1  0  0  0
  2 17  1  0  0  0
 26 27  1  0  0  0
M  END
> <minimizedAffinity>
-10.18784

$$$$
