2JF4_VDM_A_1548


 32 33  0  0  0  0  0  0  0  0999 V2000
   30.4064   53.1306    9.9589 N   0  0  0  0  0  0  0  0  0  0  0  0
   31.0090   53.8912   10.2734 H   0  0  0  0  0  0  0  0  0  0  0  0
   30.2328   52.2889   13.1783 C   0  0  0  0  0  0  0  0  0  0  0  0
   29.6872   51.9676   11.9838 C   0  0  0  0  0  0  0  0  0  0  0  0
   30.4430   53.7196   13.6346 C   0  0  0  0  0  0  0  0  0  0  0  0
   31.7261   53.9438   14.1988 O   0  0  0  0  0  0  0  0  0  0  0  0
   30.2707   54.7202   12.5140 C   0  0  0  0  0  0  0  0  0  0  0  0
   30.1756   56.0096   13.1324 O   0  0  0  0  0  0  0  0  0  0  0  0
   29.0314   54.3447   11.6936 C   0  0  0  0  0  0  0  0  0  0  0  0
   28.6500   55.4238   10.8340 O   0  0  0  0  0  0  0  0  0  0  0  0
   29.3194   53.0236   10.9434 C   0  0  0  0  0  0  0  0  0  0  0  0
   32.4056   53.8128   13.5191 H   0  0  0  0  0  0  0  0  0  0  0  0
   29.4344   56.0143   13.7580 H   0  0  0  0  0  0  0  0  0  0  0  0
   29.3784   55.6258   10.2261 H   0  0  0  0  0  0  0  0  0  0  0  0
   29.2933   50.7790   14.6559 O   0  0  0  0  0  0  0  0  0  0  0  0
   30.5601   51.1860   14.1449 C   0  0  0  0  0  0  0  0  0  0  0  0
   29.4184   50.0605   15.2954 H   0  0  0  0  0  0  0  0  0  0  0  0
   31.2900   51.9843    9.6775 C   0  0  0  0  0  0  0  0  0  0  0  0
   32.7329   52.3852    9.3676 C   0  0  0  0  0  0  0  0  0  0  0  0
   33.1798   53.4289   10.2380 O   0  0  0  0  0  0  0  0  0  0  0  0
   30.7097   50.9838    8.6527 C   0  0  0  0  0  0  0  0  0  0  0  0
   31.0781   51.2311    7.1849 C   0  0  0  0  0  0  0  0  0  0  0  0
   32.5702   51.5622    7.0228 C   0  0  0  0  0  0  0  0  0  0  0  0
   32.8905   51.8065    5.6455 O   0  0  0  0  0  0  0  0  0  0  0  0
   32.9151   52.7709    7.8953 C   0  0  0  0  0  0  0  0  0  0  0  0
   34.2625   53.1740    7.6405 O   0  0  0  0  0  0  0  0  0  0  0  0
   32.6397   54.2220   10.0958 H   0  0  0  0  0  0  0  0  0  0  0  0
   32.3744   52.5616    5.3226 H   0  0  0  0  0  0  0  0  0  0  0  0
   34.8634   52.4401    7.8435 H   0  0  0  0  0  0  0  0  0  0  0  0
   30.6365   50.0603    6.3060 C   0  0  0  0  0  0  0  0  0  0  0  0
   30.5954   50.4668    4.9239 O   0  0  0  0  0  0  0  0  0  0  0  0
   29.9628   51.1947    4.8197 H   0  0  0  0  0  0  0  0  0  0  0  0
 15 16  1  0  0  0
 16  3  1  0  0  0
  3  4  2  0  0  0
  3  5  1  0  0  0
  4 11  1  0  0  0
  5  6  1  0  0  0
  5  7  1  0  0  0
  7  8  1  0  0  0
  7  9  1  0  0  0
  9 10  1  0  0  0
  9 11  1  0  0  0
 11  1  1  0  0  0
  1 18  1  0  0  0
 18 19  1  0  0  0
 18 21  1  0  0  0
 19 20  1  0  0  0
 19 25  1  0  0  0
 21 22  1  0  0  0
 22 30  1  0  0  0
 22 23  1  0  0  0
 30 31  1  0  0  0
 23 24  1  0  0  0
 23 25  1  0  0  0
 25 26  1  0  0  0
 15 17  1  0  0  0
  6 12  1  0  0  0
  8 13  1  0  0  0
 10 14  1  0  0  0
  1  2  1  0  0  0
 20 27  1  0  0  0
 31 32  1  0  0  0
 24 28  1  0  0  0
 26 29  1  0  0  0
M  END
> <minimizedAffinity>
-13.08313

$$$$
2JF4_VDM_A_1548


 32 33  0  0  0  0  0  0  0  0999 V2000
   30.0095   52.6049    9.8135 N   0  0  0  0  0  0  0  0  0  0  0  0
   29.3962   52.3950    9.0260 H   0  0  0  0  0  0  0  0  0  0  0  0
   31.7085   51.1953    7.3176 C   0  0  0  0  0  0  0  0  0  0  0  0
   31.0237   50.8615    8.4345 C   0  0  0  0  0  0  0  0  0  0  0  0
   32.7148   52.3287    7.2711 C   0  0  0  0  0  0  0  0  0  0  0  0
   32.5638   53.1642    6.1335 O   0  0  0  0  0  0  0  0  0  0  0  0
   32.6439   53.2217    8.4893 C   0  0  0  0  0  0  0  0  0  0  0  0
   33.8284   54.0282    8.4708 O   0  0  0  0  0  0  0  0  0  0  0  0
   32.5202   52.3489    9.7434 C   0  0  0  0  0  0  0  0  0  0  0  0
   32.7687   53.1220   10.9221 O   0  0  0  0  0  0  0  0  0  0  0  0
   31.1349   51.6620    9.7305 C   0  0  0  0  0  0  0  0  0  0  0  0
   31.7058   53.6147    6.1748 H   0  0  0  0  0  0  0  0  0  0  0  0
   34.6104   53.4543    8.4703 H   0  0  0  0  0  0  0  0  0  0  0  0
   32.1226   53.8434   10.9778 H   0  0  0  0  0  0  0  0  0  0  0  0
   30.6215   51.0783    5.2804 O   0  0  0  0  0  0  0  0  0  0  0  0
   31.5432   50.3492    6.0870 C   0  0  0  0  0  0  0  0  0  0  0  0
   30.4591   50.5933    4.4562 H   0  0  0  0  0  0  0  0  0  0  0  0
   29.1513   52.6575   11.0113 C   0  0  0  0  0  0  0  0  0  0  0  0
   28.9142   54.0754   11.5326 C   0  0  0  0  0  0  0  0  0  0  0  0
   28.6900   54.9928   10.4580 O   0  0  0  0  0  0  0  0  0  0  0  0
   29.5678   51.6688   12.1234 C   0  0  0  0  0  0  0  0  0  0  0  0
   30.5416   52.2097   13.1774 C   0  0  0  0  0  0  0  0  0  0  0  0
   30.1411   53.6161   13.6506 C   0  0  0  0  0  0  0  0  0  0  0  0
   31.0734   54.1104   14.6230 O   0  0  0  0  0  0  0  0  0  0  0  0
   30.0550   54.5486   12.4406 C   0  0  0  0  0  0  0  0  0  0  0  0
   29.8259   55.8874   12.8856 O   0  0  0  0  0  0  0  0  0  0  0  0
   29.4818   55.0363    9.8994 H   0  0  0  0  0  0  0  0  0  0  0  0
   31.9570   54.1629   14.2263 H   0  0  0  0  0  0  0  0  0  0  0  0
   28.9970   55.9237   13.3880 H   0  0  0  0  0  0  0  0  0  0  0  0
   30.6983   51.2222   14.3343 C   0  0  0  0  0  0  0  0  0  0  0  0
   29.4113   50.6966   14.7143 O   0  0  0  0  0  0  0  0  0  0  0  0
   28.8357   51.4243   14.9974 H   0  0  0  0  0  0  0  0  0  0  0  0
 15 16  1  0  0  0
 16  3  1  0  0  0
  3  4  2  0  0  0
  3  5  1  0  0  0
  4 11  1  0  0  0
  5  6  1  0  0  0
  5  7  1  0  0  0
  7  8  1  0  0  0
  7  9  1  0  0  0
  9 10  1  0  0  0
  9 11  1  0  0  0
 11  1  1  0  0  0
  1 18  1  0  0  0
 18 19  1  0  0  0
 18 21  1  0  0  0
 19 20  1  0  0  0
 19 25  1  0  0  0
 21 22  1  0  0  0
 22 30  1  0  0  0
 22 23  1  0  0  0
 30 31  1  0  0  0
 23 24  1  0  0  0
 23 25  1  0  0  0
 25 26  1  0  0  0
 15 17  1  0  0  0
  6 12  1  0  0  0
  8 13  1  0  0  0
 10 14  1  0  0  0
  1  2  1  0  0  0
 20 27  1  0  0  0
 31 32  1  0  0  0
 24 28  1  0  0  0
 26 29  1  0  0  0
M  END
> <minimizedAffinity>
-11.20152

$$$$
2JF4_VDM_A_1548


 32 33  0  0  0  0  0  0  0  0999 V2000
   31.1900   52.6858    9.8822 N   0  0  0  0  0  0  0  0  0  0  0  0
   31.5692   53.2285   10.6581 H   0  0  0  0  0  0  0  0  0  0  0  0
   29.7600   52.3718   12.8754 C   0  0  0  0  0  0  0  0  0  0  0  0
   30.1845   51.6181   11.8364 C   0  0  0  0  0  0  0  0  0  0  0  0
   28.9548   53.6447   12.7005 C   0  0  0  0  0  0  0  0  0  0  0  0
   29.4216   54.7167   13.5054 O   0  0  0  0  0  0  0  0  0  0  0  0
   28.9444   54.1362   11.2705 C   0  0  0  0  0  0  0  0  0  0  0  0
   27.9128   55.1276   11.1895 O   0  0  0  0  0  0  0  0  0  0  0  0
   28.7195   52.9443   10.3331 C   0  0  0  0  0  0  0  0  0  0  0  0
   28.3873   53.3948    9.0157 O   0  0  0  0  0  0  0  0  0  0  0  0
   29.9697   52.0358   10.3831 C   0  0  0  0  0  0  0  0  0  0  0  0
   30.3164   54.9655   13.2253 H   0  0  0  0  0  0  0  0  0  0  0  0
   27.0669   54.7368   11.4591 H   0  0  0  0  0  0  0  0  0  0  0  0
   29.1130   53.9353    8.6662 H   0  0  0  0  0  0  0  0  0  0  0  0
   28.7965   52.1653   14.9670 O   0  0  0  0  0  0  0  0  0  0  0  0
   30.0095   51.8827   14.2741 C   0  0  0  0  0  0  0  0  0  0  0  0
   28.8761   51.8762   15.8894 H   0  0  0  0  0  0  0  0  0  0  0  0
   32.3068   51.8885    9.3427 C   0  0  0  0  0  0  0  0  0  0  0  0
   33.1188   52.6184    8.2720 C   0  0  0  0  0  0  0  0  0  0  0  0
   33.3305   53.9885    8.6254 O   0  0  0  0  0  0  0  0  0  0  0  0
   31.9075   50.4558    8.9232 C   0  0  0  0  0  0  0  0  0  0  0  0
   31.4799   50.2749    7.4617 C   0  0  0  0  0  0  0  0  0  0  0  0
   32.4236   51.0135    6.4992 C   0  0  0  0  0  0  0  0  0  0  0  0
   31.9967   50.8457    5.1395 O   0  0  0  0  0  0  0  0  0  0  0  0
   32.4785   52.4931    6.8848 C   0  0  0  0  0  0  0  0  0  0  0  0
   33.2373   53.2121    5.9101 O   0  0  0  0  0  0  0  0  0  0  0  0
   32.4761   54.4446    8.6781 H   0  0  0  0  0  0  0  0  0  0  0  0
   31.1051   51.2127    5.0329 H   0  0  0  0  0  0  0  0  0  0  0  0
   34.1362   52.8498    5.8685 H   0  0  0  0  0  0  0  0  0  0  0  0
   31.3288   48.7931    7.1160 C   0  0  0  0  0  0  0  0  0  0  0  0
   30.5340   48.6416    5.9234 O   0  0  0  0  0  0  0  0  0  0  0  0
   29.6538   49.0216    6.0710 H   0  0  0  0  0  0  0  0  0  0  0  0
 15 16  1  0  0  0
 16  3  1  0  0  0
  3  4  2  0  0  0
  3  5  1  0  0  0
  4 11  1  0  0  0
  5  6  1  0  0  0
  5  7  1  0  0  0
  7  8  1  0  0  0
  7  9  1  0  0  0
  9 10  1  0  0  0
  9 11  1  0  0  0
 11  1  1  0  0  0
  1 18  1  0  0  0
 18 19  1  0  0  0
 18 21  1  0  0  0
 19 20  1  0  0  0
 19 25  1  0  0  0
 21 22  1  0  0  0
 22 30  1  0  0  0
 22 23  1  0  0  0
 30 31  1  0  0  0
 23 24  1  0  0  0
 23 25  1  0  0  0
 25 26  1  0  0  0
 15 17  1  0  0  0
  6 12  1  0  0  0
  8 13  1  0  0  0
 10 14  1  0  0  0
  1  2  1  0  0  0
 20 27  1  0  0  0
 31 32  1  0  0  0
 24 28  1  0  0  0
 26 29  1  0  0  0
M  END
> <minimizedAffinity>
-10.43479

$$$$
