3EJR_HN4_A_1049


 28 30  0  0  0  0  0  0  0  0999 V2000
   29.0642   65.5455    7.8652 C   0  0  0  0  0  0  0  0  0  0  0  0
   30.4707   65.7802    8.2964 N   0  0  0  0  0  0  0  0  0  0  0  0
   30.7133   65.8976    9.7614 C   0  0  0  0  0  0  0  0  0  0  0  0
   32.1496   66.4463    9.8160 C   0  0  0  0  0  0  0  0  0  0  0  0
   33.0864   65.3984   10.1403 O   0  0  0  0  0  0  0  0  0  0  0  0
   32.4589   67.0483    8.4385 C   0  0  0  0  0  0  0  0  0  0  0  0
   33.4788   66.2632    7.7634 O   0  0  0  0  0  0  0  0  0  0  0  0
   31.1069   67.0078    7.7266 C   0  0  0  0  0  0  0  0  0  0  0  0
   31.1091   66.9776    6.2062 C   0  0  0  0  0  0  0  0  0  0  0  0
   31.5905   68.2178    5.6959 O   0  0  0  0  0  0  0  0  0  0  0  0
   29.6831   66.7447    5.6827 C   0  0  0  0  0  0  0  0  0  0  0  0
   29.0653   65.4931    6.3226 C   0  0  0  0  0  0  0  0  0  0  0  0
   33.0362   64.7005    9.4686 H   0  0  0  0  0  0  0  0  0  0  0  0
   33.1848   65.3413    7.6953 H   0  0  0  0  0  0  0  0  0  0  0  0
   31.0103   68.9364    5.9922 H   0  0  0  0  0  0  0  0  0  0  0  0
   28.0962   66.5837    8.4327 C   0  0  0  0  0  0  0  0  0  0  0  0
   26.3783   64.8612    8.5044 O   0  0  0  0  0  0  0  0  0  0  0  0
   26.7368   65.9976    8.8073 C   0  0  0  0  0  0  0  0  0  0  0  0
   25.7603   66.8886    9.5167 C   0  0  0  0  0  0  0  0  0  0  0  0
   26.2006   67.9271   10.3365 C   0  0  0  0  0  0  0  0  0  0  0  0
   25.2801   68.7642   10.9749 C   0  0  0  0  0  0  0  0  0  0  0  0
   23.9033   68.5631   10.8074 C   0  0  0  0  0  0  0  0  0  0  0  0
   23.4734   67.5219    9.9833 C   0  0  0  0  0  0  0  0  0  0  0  0
   24.3870   66.6807    9.3442 C   0  0  0  0  0  0  0  0  0  0  0  0
   22.9254   69.4861   11.5168 C   0  0  0  0  0  0  0  0  0  0  0  0
   23.0792   69.3103   13.0291 C   0  0  0  0  0  0  0  0  0  0  0  0
   23.2276   70.9618   11.2342 C   0  0  0  0  0  0  0  0  0  0  0  0
   21.5077   69.1288   11.0687 C   0  0  0  0  0  0  0  0  0  0  0  0
 17 18  2  0  0  0
 18 19  1  0  0  0
 18 16  1  0  0  0
 19 20  2  0  0  0
 19 24  1  0  0  0
 20 21  1  0  0  0
 21 22  2  0  0  0
 22 25  1  0  0  0
 22 23  1  0  0  0
 25 26  1  0  0  0
 25 27  1  0  0  0
 25 28  1  0  0  0
 23 24  2  0  0  0
 16  1  1  0  0  0
  1  2  1  0  0  0
  1 12  1  0  0  0
  2  3  1  0  0  0
  2  8  1  0  0  0
  3  4  1  0  0  0
  4  5  1  0  0  0
  4  6  1  0  0  0
  6  7  1  0  0  0
  6  8  1  0  0  0
  8  9  1  0  0  0
  9 10  1  0  0  0
  9 11  1  0  0  0
 11 12  1  0  0  0
  5 13  1  0  0  0
  7 14  1  0  0  0
 10 15  1  0  0  0
M  END
> <minimizedAffinity>
-9.18922

$$$$
3EJR_HN4_A_1049


 28 30  0  0  0  0  0  0  0  0999 V2000
   29.0877   65.4699    7.8205 C   0  0  0  0  0  0  0  0  0  0  0  0
   30.4806   65.7332    8.2785 N   0  0  0  0  0  0  0  0  0  0  0  0
   30.6962   65.8345    9.7489 C   0  0  0  0  0  0  0  0  0  0  0  0
   32.1170   66.4182    9.8356 C   0  0  0  0  0  0  0  0  0  0  0  0
   33.0747   65.3894   10.1600 O   0  0  0  0  0  0  0  0  0  0  0  0
   32.4334   67.0486    8.4724 C   0  0  0  0  0  0  0  0  0  0  0  0
   33.4837   66.2997    7.8030 O   0  0  0  0  0  0  0  0  0  0  0  0
   31.0947   66.9849    7.7375 C   0  0  0  0  0  0  0  0  0  0  0  0
   31.1224   66.9779    6.2171 C   0  0  0  0  0  0  0  0  0  0  0  0
   31.5805   68.2374    5.7333 O   0  0  0  0  0  0  0  0  0  0  0  0
   29.7115   66.7172    5.6666 C   0  0  0  0  0  0  0  0  0  0  0  0
   29.1152   65.4409    6.2774 C   0  0  0  0  0  0  0  0  0  0  0  0
   33.0531   64.7007    9.4773 H   0  0  0  0  0  0  0  0  0  0  0  0
   33.2144   65.3719    7.7164 H   0  0  0  0  0  0  0  0  0  0  0  0
   30.9775   68.9366    6.0304 H   0  0  0  0  0  0  0  0  0  0  0  0
   28.0846   66.4747    8.3869 C   0  0  0  0  0  0  0  0  0  0  0  0
   25.9681   65.6601    7.5037 O   0  0  0  0  0  0  0  0  0  0  0  0
   26.6653   65.9195    8.4826 C   0  0  0  0  0  0  0  0  0  0  0  0
   26.0665   65.7564    9.8484 C   0  0  0  0  0  0  0  0  0  0  0  0
   24.7252   66.0558   10.0846 C   0  0  0  0  0  0  0  0  0  0  0  0
   24.1736   65.8788   11.3573 C   0  0  0  0  0  0  0  0  0  0  0  0
   24.9647   65.4084   12.4142 C   0  0  0  0  0  0  0  0  0  0  0  0
   26.3055   65.1100   12.1665 C   0  0  0  0  0  0  0  0  0  0  0  0
   26.8636   65.2863   10.8985 C   0  0  0  0  0  0  0  0  0  0  0  0
   24.3395   65.2292   13.7884 C   0  0  0  0  0  0  0  0  0  0  0  0
   23.4355   66.4274   14.0865 C   0  0  0  0  0  0  0  0  0  0  0  0
   23.4315   63.9958   13.8447 C   0  0  0  0  0  0  0  0  0  0  0  0
   25.4610   65.1230   14.8224 C   0  0  0  0  0  0  0  0  0  0  0  0
 17 18  2  0  0  0
 18 19  1  0  0  0
 18 16  1  0  0  0
 19 20  2  0  0  0
 19 24  1  0  0  0
 20 21  1  0  0  0
 21 22  2  0  0  0
 22 25  1  0  0  0
 22 23  1  0  0  0
 25 26  1  0  0  0
 25 27  1  0  0  0
 25 28  1  0  0  0
 23 24  2  0  0  0
 16  1  1  0  0  0
  1  2  1  0  0  0
  1 12  1  0  0  0
  2  3  1  0  0  0
  2  8  1  0  0  0
  3  4  1  0  0  0
  4  5  1  0  0  0
  4  6  1  0  0  0
  6  7  1  0  0  0
  6  8  1  0  0  0
  8  9  1  0  0  0
  9 10  1  0  0  0
  9 11  1  0  0  0
 11 12  1  0  0  0
  5 13  1  0  0  0
  7 14  1  0  0  0
 10 15  1  0  0  0
M  END
> <minimizedAffinity>
-9.13128

$$$$
3EJR_HN4_A_1049


 28 30  0  0  0  0  0  0  0  0999 V2000
   25.6310   64.3341   12.8010 C   0  0  0  0  0  0  0  0  0  0  0  0
   25.4390   64.3849   14.2774 N   0  0  0  0  0  0  0  0  0  0  0  0
   24.1333   64.9085   14.7671 C   0  0  0  0  0  0  0  0  0  0  0  0
   24.4040   65.1225   16.2664 C   0  0  0  0  0  0  0  0  0  0  0  0
   23.8263   64.0569   17.0486 O   0  0  0  0  0  0  0  0  0  0  0  0
   25.9269   65.1717   16.4509 C   0  0  0  0  0  0  0  0  0  0  0  0
   26.3811   64.0117   17.1996 O   0  0  0  0  0  0  0  0  0  0  0  0
   26.4532   65.1987   15.0162 C   0  0  0  0  0  0  0  0  0  0  0  0
   27.8633   64.6851   14.7705 C   0  0  0  0  0  0  0  0  0  0  0  0
   28.8118   65.5629   15.3705 O   0  0  0  0  0  0  0  0  0  0  0  0
   28.1403   64.6107   13.2607 C   0  0  0  0  0  0  0  0  0  0  0  0
   27.0542   63.7931   12.5469 C   0  0  0  0  0  0  0  0  0  0  0  0
   24.2087   63.2093   16.7725 H   0  0  0  0  0  0  0  0  0  0  0  0
   26.0998   63.2027   16.7443 H   0  0  0  0  0  0  0  0  0  0  0  0
   28.7292   66.4458   14.9773 H   0  0  0  0  0  0  0  0  0  0  0  0
   25.3694   65.6821   12.1291 C   0  0  0  0  0  0  0  0  0  0  0  0
   23.9077   65.2189   10.2392 O   0  0  0  0  0  0  0  0  0  0  0  0
   25.0162   65.5582   10.6488 C   0  0  0  0  0  0  0  0  0  0  0  0
   26.1074   65.7896    9.6455 C   0  0  0  0  0  0  0  0  0  0  0  0
   27.3992   66.1200   10.0534 C   0  0  0  0  0  0  0  0  0  0  0  0
   28.4127   66.3118    9.1092 C   0  0  0  0  0  0  0  0  0  0  0  0
   28.1401   66.1851    7.7403 C   0  0  0  0  0  0  0  0  0  0  0  0
   26.8441   65.8524    7.3429 C   0  0  0  0  0  0  0  0  0  0  0  0
   25.8266   65.6614    8.2803 C   0  0  0  0  0  0  0  0  0  0  0  0
   29.2603   66.4031    6.7358 C   0  0  0  0  0  0  0  0  0  0  0  0
   30.4849   66.9594    7.4655 C   0  0  0  0  0  0  0  0  0  0  0  0
   29.7165   65.0869    6.0966 C   0  0  0  0  0  0  0  0  0  0  0  0
   28.7717   67.3823    5.6678 C   0  0  0  0  0  0  0  0  0  0  0  0
 17 18  2  0  0  0
 18 19  1  0  0  0
 18 16  1  0  0  0
 19 20  2  0  0  0
 19 24  1  0  0  0
 20 21  1  0  0  0
 21 22  2  0  0  0
 22 25  1  0  0  0
 22 23  1  0  0  0
 25 26  1  0  0  0
 25 27  1  0  0  0
 25 28  1  0  0  0
 23 24  2  0  0  0
 16  1  1  0  0  0
  1  2  1  0  0  0
  1 12  1  0  0  0
  2  3  1  0  0  0
  2  8  1  0  0  0
  3  4  1  0  0  0
  4  5  1  0  0  0
  4  6  1  0  0  0
  6  7  1  0  0  0
  6  8  1  0  0  0
  8  9  1  0  0  0
  9 10  1  0  0  0
  9 11  1  0  0  0
 11 12  1  0  0  0
  5 13  1  0  0  0
  7 14  1  0  0  0
 10 15  1  0  0  0
M  END
> <minimizedAffinity>
-8.06898

$$$$
3EJR_HN4_A_1049


 28 30  0  0  0  0  0  0  0  0999 V2000
   26.4256   64.0491   11.0845 C   0  0  0  0  0  0  0  0  0  0  0  0
   27.5917   64.5328   10.2935 N   0  0  0  0  0  0  0  0  0  0  0  0
   28.7579   65.0486   11.0635 C   0  0  0  0  0  0  0  0  0  0  0  0
   29.5946   65.7400    9.9732 C   0  0  0  0  0  0  0  0  0  0  0  0
   30.7126   64.9151    9.5850 O   0  0  0  0  0  0  0  0  0  0  0  0
   28.6640   65.9956    8.7797 C   0  0  0  0  0  0  0  0  0  0  0  0
   29.0597   65.1741    7.6479 O   0  0  0  0  0  0  0  0  0  0  0  0
   27.2841   65.6316    9.3269 C   0  0  0  0  0  0  0  0  0  0  0  0
   26.2163   65.2110    8.3292 C   0  0  0  0  0  0  0  0  0  0  0  0
   25.8460   66.3210    7.5163 O   0  0  0  0  0  0  0  0  0  0  0  0
   24.9715   64.7032    9.0739 C   0  0  0  0  0  0  0  0  0  0  0  0
   25.3472   63.6012   10.0751 C   0  0  0  0  0  0  0  0  0  0  0  0
   30.3862   64.0663    9.2475 H   0  0  0  0  0  0  0  0  0  0  0  0
   29.0599   64.2403    7.9105 H   0  0  0  0  0  0  0  0  0  0  0  0
   25.4876   67.0270    8.0767 H   0  0  0  0  0  0  0  0  0  0  0  0
   25.9216   65.0913   12.0827 C   0  0  0  0  0  0  0  0  0  0  0  0
   26.0937   63.9540   14.2275 O   0  0  0  0  0  0  0  0  0  0  0  0
   25.3819   64.4775   13.3726 C   0  0  0  0  0  0  0  0  0  0  0  0
   23.8945   64.4458   13.5655 C   0  0  0  0  0  0  0  0  0  0  0  0
   23.3040   63.5395   14.4455 C   0  0  0  0  0  0  0  0  0  0  0  0
   21.9181   63.5348   14.6327 C   0  0  0  0  0  0  0  0  0  0  0  0
   21.1042   64.4336   13.9301 C   0  0  0  0  0  0  0  0  0  0  0  0
   21.7057   65.3378   13.0532 C   0  0  0  0  0  0  0  0  0  0  0  0
   23.0889   65.3468   12.8597 C   0  0  0  0  0  0  0  0  0  0  0  0
   19.6003   64.4034   14.1504 C   0  0  0  0  0  0  0  0  0  0  0  0
   19.0914   62.9770   13.9309 C   0  0  0  0  0  0  0  0  0  0  0  0
   19.2285   64.7627   15.5932 C   0  0  0  0  0  0  0  0  0  0  0  0
   18.9452   65.3726   13.1657 C   0  0  0  0  0  0  0  0  0  0  0  0
 17 18  2  0  0  0
 18 19  1  0  0  0
 18 16  1  0  0  0
 19 20  2  0  0  0
 19 24  1  0  0  0
 20 21  1  0  0  0
 21 22  2  0  0  0
 22 25  1  0  0  0
 22 23  1  0  0  0
 25 26  1  0  0  0
 25 27  1  0  0  0
 25 28  1  0  0  0
 23 24  2  0  0  0
 16  1  1  0  0  0
  1  2  1  0  0  0
  1 12  1  0  0  0
  2  3  1  0  0  0
  2  8  1  0  0  0
  3  4  1  0  0  0
  4  5  1  0  0  0
  4  6  1  0  0  0
  6  7  1  0  0  0
  6  8  1  0  0  0
  8  9  1  0  0  0
  9 10  1  0  0  0
  9 11  1  0  0  0
 11 12  1  0  0  0
  5 13  1  0  0  0
  7 14  1  0  0  0
 10 15  1  0  0  0
M  END
> <minimizedAffinity>
-7.59080

$$$$
3EJR_HN4_A_1049


 28 30  0  0  0  0  0  0  0  0999 V2000
   27.5894   67.2500   11.9489 C   0  0  0  0  0  0  0  0  0  0  0  0
   27.3351   65.7892   12.0929 N   0  0  0  0  0  0  0  0  0  0  0  0
   27.1420   65.2745   13.4773 C   0  0  0  0  0  0  0  0  0  0  0  0
   27.2355   63.7515   13.2802 C   0  0  0  0  0  0  0  0  0  0  0  0
   25.9236   63.1517   13.2926 O   0  0  0  0  0  0  0  0  0  0  0  0
   27.9341   63.5094   11.9351 C   0  0  0  0  0  0  0  0  0  0  0  0
   27.0057   62.9206   10.9845 O   0  0  0  0  0  0  0  0  0  0  0  0
   28.4006   64.9062   11.5259 C   0  0  0  0  0  0  0  0  0  0  0  0
   28.6142   65.1745   10.0444 C   0  0  0  0  0  0  0  0  0  0  0  0
   29.7268   64.4218    9.5694 O   0  0  0  0  0  0  0  0  0  0  0  0
   28.8905   66.6687    9.8150 C   0  0  0  0  0  0  0  0  0  0  0  0
   27.7858   67.5301   10.4437 C   0  0  0  0  0  0  0  0  0  0  0  0
   25.3867   63.5338   12.5808 H   0  0  0  0  0  0  0  0  0  0  0  0
   26.2315   63.4972   10.8891 H   0  0  0  0  0  0  0  0  0  0  0  0
   30.5257   64.6861   10.0519 H   0  0  0  0  0  0  0  0  0  0  0  0
   28.7588   67.7290   12.8091 C   0  0  0  0  0  0  0  0  0  0  0  0
   27.8149   69.9719   12.7701 O   0  0  0  0  0  0  0  0  0  0  0  0
   28.7725   69.2416   13.0176 C   0  0  0  0  0  0  0  0  0  0  0  0
   30.0527   69.8747   13.4769 C   0  0  0  0  0  0  0  0  0  0  0  0
   31.0307   69.1248   14.1292 C   0  0  0  0  0  0  0  0  0  0  0  0
   32.2290   69.7221   14.5330 C   0  0  0  0  0  0  0  0  0  0  0  0
   32.4574   71.0845   14.2967 C   0  0  0  0  0  0  0  0  0  0  0  0
   31.4727   71.8254   13.6414 C   0  0  0  0  0  0  0  0  0  0  0  0
   30.2727   71.2361   13.2372 C   0  0  0  0  0  0  0  0  0  0  0  0
   33.7677   71.7083   14.7501 C   0  0  0  0  0  0  0  0  0  0  0  0
   34.8755   70.6554   14.6737 C   0  0  0  0  0  0  0  0  0  0  0  0
   34.2077   72.8465   13.8227 C   0  0  0  0  0  0  0  0  0  0  0  0
   33.5951   72.2139   16.1828 C   0  0  0  0  0  0  0  0  0  0  0  0
 17 18  2  0  0  0
 18 19  1  0  0  0
 18 16  1  0  0  0
 19 20  2  0  0  0
 19 24  1  0  0  0
 20 21  1  0  0  0
 21 22  2  0  0  0
 22 25  1  0  0  0
 22 23  1  0  0  0
 25 26  1  0  0  0
 25 27  1  0  0  0
 25 28  1  0  0  0
 23 24  2  0  0  0
 16  1  1  0  0  0
  1  2  1  0  0  0
  1 12  1  0  0  0
  2  3  1  0  0  0
  2  8  1  0  0  0
  3  4  1  0  0  0
  4  5  1  0  0  0
  4  6  1  0  0  0
  6  7  1  0  0  0
  6  8  1  0  0  0
  8  9  1  0  0  0
  9 10  1  0  0  0
  9 11  1  0  0  0
 11 12  1  0  0  0
  5 13  1  0  0  0
  7 14  1  0  0  0
 10 15  1  0  0  0
M  END
> <minimizedAffinity>
-7.53919

$$$$
3EJR_HN4_A_1049


 28 30  0  0  0  0  0  0  0  0999 V2000
   27.0671   66.2921   10.2421 C   0  0  0  0  0  0  0  0  0  0  0  0
   27.8998   66.4838    9.0219 N   0  0  0  0  0  0  0  0  0  0  0  0
   27.2938   66.0745    7.7242 C   0  0  0  0  0  0  0  0  0  0  0  0
   28.5023   66.0988    6.7724 C   0  0  0  0  0  0  0  0  0  0  0  0
   28.4885   67.2887    5.9570 O   0  0  0  0  0  0  0  0  0  0  0  0
   29.7664   66.0467    7.6413 C   0  0  0  0  0  0  0  0  0  0  0  0
   30.4932   67.3018    7.5484 O   0  0  0  0  0  0  0  0  0  0  0  0
   29.2179   65.7776    9.0424 C   0  0  0  0  0  0  0  0  0  0  0  0
   30.0635   66.2140   10.2285 C   0  0  0  0  0  0  0  0  0  0  0  0
   31.2471   65.4237   10.2989 O   0  0  0  0  0  0  0  0  0  0  0  0
   29.2702   66.0384   11.5330 C   0  0  0  0  0  0  0  0  0  0  0  0
   27.9144   66.7539   11.4469 C   0  0  0  0  0  0  0  0  0  0  0  0
   28.5156   68.0723    6.5281 H   0  0  0  0  0  0  0  0  0  0  0  0
   29.9099   68.0330    7.8054 H   0  0  0  0  0  0  0  0  0  0  0  0
   31.0067   64.4911   10.4143 H   0  0  0  0  0  0  0  0  0  0  0  0
   26.5518   64.8596   10.3810 C   0  0  0  0  0  0  0  0  0  0  0  0
   24.3923   64.7271    9.2665 O   0  0  0  0  0  0  0  0  0  0  0  0
   25.0295   64.7588   10.3175 C   0  0  0  0  0  0  0  0  0  0  0  0
   24.2707   64.7777   11.6116 C   0  0  0  0  0  0  0  0  0  0  0  0
   23.3953   65.8197   11.9153 C   0  0  0  0  0  0  0  0  0  0  0  0
   22.6774   65.8145   13.1154 C   0  0  0  0  0  0  0  0  0  0  0  0
   22.8370   64.7672   14.0329 C   0  0  0  0  0  0  0  0  0  0  0  0
   23.7143   63.7283   13.7182 C   0  0  0  0  0  0  0  0  0  0  0  0
   24.4361   63.7280   12.5225 C   0  0  0  0  0  0  0  0  0  0  0  0
   22.0467   64.7895   15.3315 C   0  0  0  0  0  0  0  0  0  0  0  0
   20.8478   63.8471   15.2034 C   0  0  0  0  0  0  0  0  0  0  0  0
   22.8715   64.2593   16.5095 C   0  0  0  0  0  0  0  0  0  0  0  0
   21.5861   66.2234   15.5956 C   0  0  0  0  0  0  0  0  0  0  0  0
 17 18  2  0  0  0
 18 19  1  0  0  0
 18 16  1  0  0  0
 19 20  2  0  0  0
 19 24  1  0  0  0
 20 21  1  0  0  0
 21 22  2  0  0  0
 22 25  1  0  0  0
 22 23  1  0  0  0
 25 26  1  0  0  0
 25 27  1  0  0  0
 25 28  1  0  0  0
 23 24  2  0  0  0
 16  1  1  0  0  0
  1  2  1  0  0  0
  1 12  1  0  0  0
  2  3  1  0  0  0
  2  8  1  0  0  0
  3  4  1  0  0  0
  4  5  1  0  0  0
  4  6  1  0  0  0
  6  7  1  0  0  0
  6  8  1  0  0  0
  8  9  1  0  0  0
  9 10  1  0  0  0
  9 11  1  0  0  0
 11 12  1  0  0  0
  5 13  1  0  0  0
  7 14  1  0  0  0
 10 15  1  0  0  0
M  END
> <minimizedAffinity>
-7.53876

$$$$
3EJR_HN4_A_1049


 28 30  0  0  0  0  0  0  0  0999 V2000
   25.9886   65.5975    9.4404 C   0  0  0  0  0  0  0  0  0  0  0  0
   27.3361   65.5161   10.0706 N   0  0  0  0  0  0  0  0  0  0  0  0
   27.3975   65.6882   11.5489 C   0  0  0  0  0  0  0  0  0  0  0  0
   28.9044   65.8728   11.7982 C   0  0  0  0  0  0  0  0  0  0  0  0
   29.4922   64.6578   12.3071 O   0  0  0  0  0  0  0  0  0  0  0  0
   29.5415   66.2687   10.4591 C   0  0  0  0  0  0  0  0  0  0  0  0
   30.4122   65.2070    9.9825 O   0  0  0  0  0  0  0  0  0  0  0  0
   28.3339   66.5018    9.5516 C   0  0  0  0  0  0  0  0  0  0  0  0
   28.5365   66.3500    8.0521 C   0  0  0  0  0  0  0  0  0  0  0  0
   29.3811   67.3903    7.5678 O   0  0  0  0  0  0  0  0  0  0  0  0
   27.1835   66.4304    7.3278 C   0  0  0  0  0  0  0  0  0  0  0  0
   26.1876   65.4227    7.9197 C   0  0  0  0  0  0  0  0  0  0  0  0
   29.3595   63.9415   11.6666 H   0  0  0  0  0  0  0  0  0  0  0  0
   29.9068   64.3822    9.9106 H   0  0  0  0  0  0  0  0  0  0  0  0
   28.9666   68.2501    7.7404 H   0  0  0  0  0  0  0  0  0  0  0  0
   25.2464   66.8825    9.8076 C   0  0  0  0  0  0  0  0  0  0  0  0
   22.8308   66.7956    9.5242 O   0  0  0  0  0  0  0  0  0  0  0  0
   23.8069   66.6391   10.2551 C   0  0  0  0  0  0  0  0  0  0  0  0
   23.5720   66.2630   11.6883 C   0  0  0  0  0  0  0  0  0  0  0  0
   23.8373   64.9723   12.1445 C   0  0  0  0  0  0  0  0  0  0  0  0
   23.6347   64.6404   13.4878 C   0  0  0  0  0  0  0  0  0  0  0  0
   23.1522   65.5979   14.3902 C   0  0  0  0  0  0  0  0  0  0  0  0
   22.8916   66.8873   13.9235 C   0  0  0  0  0  0  0  0  0  0  0  0
   23.0896   67.2253   12.5829 C   0  0  0  0  0  0  0  0  0  0  0  0
   22.9376   65.2081   15.8439 C   0  0  0  0  0  0  0  0  0  0  0  0
   24.2917   65.1660   16.5553 C   0  0  0  0  0  0  0  0  0  0  0  0
   22.1022   66.2501   16.5958 C   0  0  0  0  0  0  0  0  0  0  0  0
   22.2585   63.8387   15.8847 C   0  0  0  0  0  0  0  0  0  0  0  0
 17 18  2  0  0  0
 18 19  1  0  0  0
 18 16  1  0  0  0
 19 20  2  0  0  0
 19 24  1  0  0  0
 20 21  1  0  0  0
 21 22  2  0  0  0
 22 25  1  0  0  0
 22 23  1  0  0  0
 25 26  1  0  0  0
 25 27  1  0  0  0
 25 28  1  0  0  0
 23 24  2  0  0  0
 16  1  1  0  0  0
  1  2  1  0  0  0
  1 12  1  0  0  0
  2  3  1  0  0  0
  2  8  1  0  0  0
  3  4  1  0  0  0
  4  5  1  0  0  0
  4  6  1  0  0  0
  6  7  1  0  0  0
  6  8  1  0  0  0
  8  9  1  0  0  0
  9 10  1  0  0  0
  9 11  1  0  0  0
 11 12  1  0  0  0
  5 13  1  0  0  0
  7 14  1  0  0  0
 10 15  1  0  0  0
M  END
> <minimizedAffinity>
-7.24908

$$$$
3EJR_HN4_A_1049


 28 30  0  0  0  0  0  0  0  0999 V2000
   28.3848   66.1929   12.6468 C   0  0  0  0  0  0  0  0  0  0  0  0
   27.6173   65.5867   11.5231 N   0  0  0  0  0  0  0  0  0  0  0  0
   27.1598   66.5099   10.4474 C   0  0  0  0  0  0  0  0  0  0  0  0
   26.1609   65.6386    9.6663 C   0  0  0  0  0  0  0  0  0  0  0  0
   26.7558   65.1427    8.4493 O   0  0  0  0  0  0  0  0  0  0  0  0
   25.7524   64.4798   10.5862 C   0  0  0  0  0  0  0  0  0  0  0  0
   26.2591   63.2210   10.0655 O   0  0  0  0  0  0  0  0  0  0  0  0
   26.3735   64.8625   11.9292 C   0  0  0  0  0  0  0  0  0  0  0  0
   26.6783   63.7428   12.9120 C   0  0  0  0  0  0  0  0  0  0  0  0
   25.4639   63.1677   13.3859 O   0  0  0  0  0  0  0  0  0  0  0  0
   27.4676   64.2946   14.1096 C   0  0  0  0  0  0  0  0  0  0  0  0
   28.7147   65.0553   13.6367 C   0  0  0  0  0  0  0  0  0  0  0  0
   27.5404   64.6146    8.6647 H   0  0  0  0  0  0  0  0  0  0  0  0
   27.2221   63.2774    9.9639 H   0  0  0  0  0  0  0  0  0  0  0  0
   24.9403   63.8464   13.8399 H   0  0  0  0  0  0  0  0  0  0  0  0
   27.6465   67.3628   13.2971 C   0  0  0  0  0  0  0  0  0  0  0  0
   27.7771   67.7185   15.7012 O   0  0  0  0  0  0  0  0  0  0  0  0
   28.2973   67.8392   14.5937 C   0  0  0  0  0  0  0  0  0  0  0  0
   29.6080   68.5625   14.4961 C   0  0  0  0  0  0  0  0  0  0  0  0
   29.8161   69.5435   13.5271 C   0  0  0  0  0  0  0  0  0  0  0  0
   31.0350   70.2257   13.4606 C   0  0  0  0  0  0  0  0  0  0  0  0
   32.0667   69.9244   14.3600 C   0  0  0  0  0  0  0  0  0  0  0  0
   31.8472   68.9421   15.3270 C   0  0  0  0  0  0  0  0  0  0  0  0
   30.6332   68.2553   15.3981 C   0  0  0  0  0  0  0  0  0  0  0  0
   33.3828   70.6792   14.2619 C   0  0  0  0  0  0  0  0  0  0  0  0
   33.1289   72.0455   13.6211 C   0  0  0  0  0  0  0  0  0  0  0  0
   33.9774   70.9696   15.6443 C   0  0  0  0  0  0  0  0  0  0  0  0
   34.3545   69.8541   13.4176 C   0  0  0  0  0  0  0  0  0  0  0  0
 17 18  2  0  0  0
 18 19  1  0  0  0
 18 16  1  0  0  0
 19 20  2  0  0  0
 19 24  1  0  0  0
 20 21  1  0  0  0
 21 22  2  0  0  0
 22 25  1  0  0  0
 22 23  1  0  0  0
 25 26  1  0  0  0
 25 27  1  0  0  0
 25 28  1  0  0  0
 23 24  2  0  0  0
 16  1  1  0  0  0
  1  2  1  0  0  0
  1 12  1  0  0  0
  2  3  1  0  0  0
  2  8  1  0  0  0
  3  4  1  0  0  0
  4  5  1  0  0  0
  4  6  1  0  0  0
  6  7  1  0  0  0
  6  8  1  0  0  0
  8  9  1  0  0  0
  9 10  1  0  0  0
  9 11  1  0  0  0
 11 12  1  0  0  0
  5 13  1  0  0  0
  7 14  1  0  0  0
 10 15  1  0  0  0
M  END
> <minimizedAffinity>
-7.04845

$$$$
3EJR_HN4_A_1049


 28 30  0  0  0  0  0  0  0  0999 V2000
   24.8048   64.9853   11.7985 C   0  0  0  0  0  0  0  0  0  0  0  0
   23.5020   65.6380   11.4887 N   0  0  0  0  0  0  0  0  0  0  0  0
   23.5393   66.8079   10.5675 C   0  0  0  0  0  0  0  0  0  0  0  0
   22.1315   67.4055   10.7343 C   0  0  0  0  0  0  0  0  0  0  0  0
   21.2883   67.0495    9.6193 O   0  0  0  0  0  0  0  0  0  0  0  0
   21.5584   66.8585   12.0489 C   0  0  0  0  0  0  0  0  0  0  0  0
   20.4407   65.9694   11.7795 O   0  0  0  0  0  0  0  0  0  0  0  0
   22.7516   66.1417   12.6802 C   0  0  0  0  0  0  0  0  0  0  0  0
   22.4622   65.0227   13.6683 C   0  0  0  0  0  0  0  0  0  0  0  0
   21.8749   65.5580   14.8510 O   0  0  0  0  0  0  0  0  0  0  0  0
   23.7667   64.3020   14.0435 C   0  0  0  0  0  0  0  0  0  0  0  0
   24.5126   63.8348   12.7853 C   0  0  0  0  0  0  0  0  0  0  0  0
   21.2207   66.0837    9.5604 H   0  0  0  0  0  0  0  0  0  0  0  0
   20.7299   65.2563   11.1889 H   0  0  0  0  0  0  0  0  0  0  0  0
   22.4902   66.1851   15.2622 H   0  0  0  0  0  0  0  0  0  0  0  0
   25.8474   65.9751   12.3181 C   0  0  0  0  0  0  0  0  0  0  0  0
   28.0062   65.0457   12.9497 O   0  0  0  0  0  0  0  0  0  0  0  0
   27.2842   65.5191   12.0743 C   0  0  0  0  0  0  0  0  0  0  0  0
   27.8662   65.7342   10.7085 C   0  0  0  0  0  0  0  0  0  0  0  0
   27.0467   66.0068    9.6137 C   0  0  0  0  0  0  0  0  0  0  0  0
   27.6032   66.2269    8.3499 C   0  0  0  0  0  0  0  0  0  0  0  0
   28.9912   66.1656    8.1655 C   0  0  0  0  0  0  0  0  0  0  0  0
   29.8024   65.8938    9.2682 C   0  0  0  0  0  0  0  0  0  0  0  0
   29.2534   65.6709   10.5329 C   0  0  0  0  0  0  0  0  0  0  0  0
   29.5684   66.4052    6.7795 C   0  0  0  0  0  0  0  0  0  0  0  0
   30.9618   67.0223    6.9182 C   0  0  0  0  0  0  0  0  0  0  0  0
   29.7661   65.0943    6.0103 C   0  0  0  0  0  0  0  0  0  0  0  0
   28.6310   67.3430    6.0181 C   0  0  0  0  0  0  0  0  0  0  0  0
 17 18  2  0  0  0
 18 19  1  0  0  0
 18 16  1  0  0  0
 19 20  2  0  0  0
 19 24  1  0  0  0
 20 21  1  0  0  0
 21 22  2  0  0  0
 22 25  1  0  0  0
 22 23  1  0  0  0
 25 26  1  0  0  0
 25 27  1  0  0  0
 25 28  1  0  0  0
 23 24  2  0  0  0
 16  1  1  0  0  0
  1  2  1  0  0  0
  1 12  1  0  0  0
  2  3  1  0  0  0
  2  8  1  0  0  0
  3  4  1  0  0  0
  4  5  1  0  0  0
  4  6  1  0  0  0
  6  7  1  0  0  0
  6  8  1  0  0  0
  8  9  1  0  0  0
  9 10  1  0  0  0
  9 11  1  0  0  0
 11 12  1  0  0  0
  5 13  1  0  0  0
  7 14  1  0  0  0
 10 15  1  0  0  0
M  END
> <minimizedAffinity>
-7.03447

$$$$
3EJR_HN4_A_1049


 28 30  0  0  0  0  0  0  0  0999 V2000
   26.9531   67.2026   10.4197 C   0  0  0  0  0  0  0  0  0  0  0  0
   28.2564   66.7394    9.8663 N   0  0  0  0  0  0  0  0  0  0  0  0
   28.2945   66.4261    8.4106 C   0  0  0  0  0  0  0  0  0  0  0  0
   29.6389   65.6924    8.2651 C   0  0  0  0  0  0  0  0  0  0  0  0
   30.6414   66.5657    7.7054 O   0  0  0  0  0  0  0  0  0  0  0  0
   30.0501   65.2152    9.6648 C   0  0  0  0  0  0  0  0  0  0  0  0
   31.2318   65.9322   10.1141 O   0  0  0  0  0  0  0  0  0  0  0  0
   28.8141   65.5120   10.5135 C   0  0  0  0  0  0  0  0  0  0  0  0
   29.0141   65.7137   12.0074 C   0  0  0  0  0  0  0  0  0  0  0  0
   29.4102   64.4873   12.6150 O   0  0  0  0  0  0  0  0  0  0  0  0
   27.7032   66.1882   12.6542 C   0  0  0  0  0  0  0  0  0  0  0  0
   27.1575   67.4290   11.9329 C   0  0  0  0  0  0  0  0  0  0  0  0
   30.7584   67.3359    8.2835 H   0  0  0  0  0  0  0  0  0  0  0  0
   31.0574   66.8862   10.0961 H   0  0  0  0  0  0  0  0  0  0  0  0
   28.7177   63.8214   12.4807 H   0  0  0  0  0  0  0  0  0  0  0  0
   25.8071   66.2418   10.1031 C   0  0  0  0  0  0  0  0  0  0  0  0
   23.9699   67.8147    9.8316 O   0  0  0  0  0  0  0  0  0  0  0  0
   24.4296   66.8282   10.4036 C   0  0  0  0  0  0  0  0  0  0  0  0
   23.6303   66.2091   11.5119 C   0  0  0  0  0  0  0  0  0  0  0  0
   24.0974   65.0853   12.1926 C   0  0  0  0  0  0  0  0  0  0  0  0
   23.3530   64.5306   13.2384 C   0  0  0  0  0  0  0  0  0  0  0  0
   22.1228   65.0909   13.6084 C   0  0  0  0  0  0  0  0  0  0  0  0
   21.6654   66.2167   12.9218 C   0  0  0  0  0  0  0  0  0  0  0  0
   22.4026   66.7747   11.8749 C   0  0  0  0  0  0  0  0  0  0  0  0
   21.3328   64.4647   14.7466 C   0  0  0  0  0  0  0  0  0  0  0  0
   22.2535   63.5380   15.5435 C   0  0  0  0  0  0  0  0  0  0  0  0
   20.8361   65.5184   15.7425 C   0  0  0  0  0  0  0  0  0  0  0  0
   20.1587   63.6860   14.1524 C   0  0  0  0  0  0  0  0  0  0  0  0
 17 18  2  0  0  0
 18 19  1  0  0  0
 18 16  1  0  0  0
 19 20  2  0  0  0
 19 24  1  0  0  0
 20 21  1  0  0  0
 21 22  2  0  0  0
 22 25  1  0  0  0
 22 23  1  0  0  0
 25 26  1  0  0  0
 25 27  1  0  0  0
 25 28  1  0  0  0
 23 24  2  0  0  0
 16  1  1  0  0  0
  1  2  1  0  0  0
  1 12  1  0  0  0
  2  3  1  0  0  0
  2  8  1  0  0  0
  3  4  1  0  0  0
  4  5  1  0  0  0
  4  6  1  0  0  0
  6  7  1  0  0  0
  6  8  1  0  0  0
  8  9  1  0  0  0
  9 10  1  0  0  0
  9 11  1  0  0  0
 11 12  1  0  0  0
  5 13  1  0  0  0
  7 14  1  0  0  0
 10 15  1  0  0  0
M  END
> <minimizedAffinity>
-7.02082

$$$$
