4ABE_913_A_1254


 15 16  0  0  0  0  0  0  0  0999 V2000
   -1.6041   15.0369   17.0211 C   0  0  0  0  0  0  0  0  0  0  0  0
   -0.8792   15.5663   15.9872 C   0  0  0  0  0  0  0  0  0  0  0  0
   -0.8230   14.9423   14.7660 C   0  0  0  0  0  0  0  0  0  0  0  0
   -1.4531   13.7460   14.4975 C   0  0  0  0  0  0  0  0  0  0  0  0
   -2.1941   13.1903   15.4878 C   0  0  0  0  0  0  0  0  0  0  0  0
   -2.2586   13.8477   16.7016 C   0  0  0  0  0  0  0  0  0  0  0  0
   -2.8758   11.9453   15.1096 N   0  0  0  0  0  0  0  0  0  0  0  0
   -2.3638   10.9279   14.3267 C   0  0  0  0  0  0  0  0  0  0  0  0
   -3.3076    9.9331   14.3323 C   0  0  0  0  0  0  0  0  0  0  0  0
   -4.3502   10.4700   15.1443 C   0  0  0  0  0  0  0  0  0  0  0  0
   -4.1324   11.7215   15.5610 N   0  0  0  0  0  0  0  0  0  0  0  0
   -1.6992   15.8659   18.3026 C   0  0  0  0  0  0  0  0  0  0  0  0
   -2.8247   15.4627   19.1904 N   0  0  0  0  0  0  0  0  0  0  0  0
   -2.6900   14.4981   19.4934 H   0  0  0  0  0  0  0  0  0  0  0  0
   -3.7045   15.5391   18.6800 H   0  0  0  0  0  0  0  0  0  0  0  0
 12 13  1  0  0  0
 12  1  1  0  0  0
  1  2  1  0  0  0
  1  6  2  0  0  0
  7  5  1  0  0  0
  7  8  1  0  0  0
  7 11  1  0  0  0
  2  3  2  0  0  0
  3  4  1  0  0  0
  4  5  2  0  0  0
  5  6  1  0  0  0
  8  9  2  0  0  0
  9 10  1  0  0  0
 10 11  2  0  0  0
 13 14  1  0  0  0
 13 15  1  0  0  0
M  END
> <minimizedAffinity>
-6.07419

$$$$
4ABE_913_A_1254


 15 16  0  0  0  0  0  0  0  0999 V2000
   -1.5951   15.0198   17.0406 C   0  0  0  0  0  0  0  0  0  0  0  0
   -0.9084   15.6000   16.0078 C   0  0  0  0  0  0  0  0  0  0  0  0
   -0.8086   14.9834   14.7857 C   0  0  0  0  0  0  0  0  0  0  0  0
   -1.3538   13.7466   14.5150 C   0  0  0  0  0  0  0  0  0  0  0  0
   -2.0546   13.1390   15.5041 C   0  0  0  0  0  0  0  0  0  0  0  0
   -2.1651   13.7884   16.7189 C   0  0  0  0  0  0  0  0  0  0  0  0
   -2.6480   11.8502   15.1237 N   0  0  0  0  0  0  0  0  0  0  0  0
   -3.8032   11.2895   15.6349 C   0  0  0  0  0  0  0  0  0  0  0  0
   -4.0210   10.1445   14.9127 C   0  0  0  0  0  0  0  0  0  0  0  0
   -2.9245   10.1141   14.0009 C   0  0  0  0  0  0  0  0  0  0  0  0
   -2.0430   11.1050   14.1690 N   0  0  0  0  0  0  0  0  0  0  0  0
   -1.7481   15.8381   18.3233 C   0  0  0  0  0  0  0  0  0  0  0  0
   -2.8573   15.3699   19.1996 N   0  0  0  0  0  0  0  0  0  0  0  0
   -2.6717   14.4133   19.5012 H   0  0  0  0  0  0  0  0  0  0  0  0
   -3.7353   15.3986   18.6813 H   0  0  0  0  0  0  0  0  0  0  0  0
 12 13  1  0  0  0
 12  1  1  0  0  0
  1  2  1  0  0  0
  1  6  2  0  0  0
  7  5  1  0  0  0
  7  8  1  0  0  0
  7 11  1  0  0  0
  2  3  2  0  0  0
  3  4  1  0  0  0
  4  5  2  0  0  0
  5  6  1  0  0  0
  8  9  2  0  0  0
  9 10  1  0  0  0
 10 11  2  0  0  0
 13 14  1  0  0  0
 13 15  1  0  0  0
M  END
> <minimizedAffinity>
-5.89850

$$$$
4ABE_913_A_1254


 15 16  0  0  0  0  0  0  0  0999 V2000
   -0.7486   15.5839   16.1286 C   0  0  0  0  0  0  0  0  0  0  0  0
   -1.5979   15.4535   17.1948 C   0  0  0  0  0  0  0  0  0  0  0  0
   -2.4358   14.3723   17.3078 C   0  0  0  0  0  0  0  0  0  0  0  0
   -2.5089   13.3694   16.3649 C   0  0  0  0  0  0  0  0  0  0  0  0
   -1.6767   13.4491   15.2973 C   0  0  0  0  0  0  0  0  0  0  0  0
   -0.8226   14.5324   15.2155 C   0  0  0  0  0  0  0  0  0  0  0  0
   -1.7765   12.3187   14.3646 N   0  0  0  0  0  0  0  0  0  0  0  0
   -2.5069   11.1596   14.5465 C   0  0  0  0  0  0  0  0  0  0  0  0
   -2.3860   10.4480   13.3806 C   0  0  0  0  0  0  0  0  0  0  0  0
   -1.5498   11.2746   12.5730 C   0  0  0  0  0  0  0  0  0  0  0  0
   -1.1118   12.3785   13.1867 N   0  0  0  0  0  0  0  0  0  0  0  0
    0.2265   16.7615   16.1535 C   0  0  0  0  0  0  0  0  0  0  0  0
    0.5618   17.2280   17.5273 N   0  0  0  0  0  0  0  0  0  0  0  0
    1.0226   16.4755   18.0389 H   0  0  0  0  0  0  0  0  0  0  0  0
   -0.2938   17.4957   18.0138 H   0  0  0  0  0  0  0  0  0  0  0  0
 12 13  1  0  0  0
 12  1  1  0  0  0
  1  2  1  0  0  0
  1  6  2  0  0  0
  7  5  1  0  0  0
  7  8  1  0  0  0
  7 11  1  0  0  0
  2  3  2  0  0  0
  3  4  1  0  0  0
  4  5  2  0  0  0
  5  6  1  0  0  0
  8  9  2  0  0  0
  9 10  1  0  0  0
 10 11  2  0  0  0
 13 14  1  0  0  0
 13 15  1  0  0  0
M  END
> <minimizedAffinity>
-5.78075

$$$$
4ABE_913_A_1254


 15 16  0  0  0  0  0  0  0  0999 V2000
   -1.6684   11.4776   12.9931 C   0  0  0  0  0  0  0  0  0  0  0  0
   -2.4156   10.5149   13.6175 C   0  0  0  0  0  0  0  0  0  0  0  0
   -2.8380   10.6728   14.9138 C   0  0  0  0  0  0  0  0  0  0  0  0
   -2.5270   11.7738   15.6826 C   0  0  0  0  0  0  0  0  0  0  0  0
   -1.7996   12.7600   15.1021 C   0  0  0  0  0  0  0  0  0  0  0  0
   -1.4060   12.5930   13.7880 C   0  0  0  0  0  0  0  0  0  0  0  0
   -1.5533   13.9215   15.9670 N   0  0  0  0  0  0  0  0  0  0  0  0
   -0.8340   15.0560   15.6417 C   0  0  0  0  0  0  0  0  0  0  0  0
   -0.9610   15.9053   16.7107 C   0  0  0  0  0  0  0  0  0  0  0  0
   -1.7711   15.1686   17.6249 C   0  0  0  0  0  0  0  0  0  0  0  0
   -2.0752   13.9327   17.2161 N   0  0  0  0  0  0  0  0  0  0  0  0
   -1.3471   11.2610   11.5139 C   0  0  0  0  0  0  0  0  0  0  0  0
   -1.9496   12.2859   10.6174 N   0  0  0  0  0  0  0  0  0  0  0  0
   -1.5742   13.2051   10.8511 H   0  0  0  0  0  0  0  0  0  0  0  0
   -2.9623   12.2912   10.7393 H   0  0  0  0  0  0  0  0  0  0  0  0
 12 13  1  0  0  0
 12  1  1  0  0  0
  1  2  1  0  0  0
  1  6  2  0  0  0
  7  5  1  0  0  0
  7  8  1  0  0  0
  7 11  1  0  0  0
  2  3  2  0  0  0
  3  4  1  0  0  0
  4  5  2  0  0  0
  5  6  1  0  0  0
  8  9  2  0  0  0
  9 10  1  0  0  0
 10 11  2  0  0  0
 13 14  1  0  0  0
 13 15  1  0  0  0
M  END
> <minimizedAffinity>
-5.71788

$$$$
4ABE_913_A_1254


 15 16  0  0  0  0  0  0  0  0999 V2000
   -1.3518   14.5234   15.6520 C   0  0  0  0  0  0  0  0  0  0  0  0
   -2.3830   13.9425   16.3406 C   0  0  0  0  0  0  0  0  0  0  0  0
   -2.9385   12.7588   15.9233 C   0  0  0  0  0  0  0  0  0  0  0  0
   -2.5321   12.0904   14.7883 C   0  0  0  0  0  0  0  0  0  0  0  0
   -1.5043   12.6213   14.0809 C   0  0  0  0  0  0  0  0  0  0  0  0
   -0.9419   13.8002   14.5323 C   0  0  0  0  0  0  0  0  0  0  0  0
   -1.0950   11.8258   12.9158 N   0  0  0  0  0  0  0  0  0  0  0  0
   -0.0955   10.8721   12.8765 C   0  0  0  0  0  0  0  0  0  0  0  0
   -0.1438   10.3232   11.6209 C   0  0  0  0  0  0  0  0  0  0  0  0
   -1.2066   11.0344   10.9890 C   0  0  0  0  0  0  0  0  0  0  0  0
   -1.7431   12.0014   11.7402 N   0  0  0  0  0  0  0  0  0  0  0  0
   -0.7250   15.7778   16.2618 C   0  0  0  0  0  0  0  0  0  0  0  0
   -1.1466   16.0310   17.6674 N   0  0  0  0  0  0  0  0  0  0  0  0
   -0.8455   15.2555   18.2576 H   0  0  0  0  0  0  0  0  0  0  0  0
   -2.1623   16.1147   17.7078 H   0  0  0  0  0  0  0  0  0  0  0  0
 12 13  1  0  0  0
 12  1  1  0  0  0
  1  2  1  0  0  0
  1  6  2  0  0  0
  7  5  1  0  0  0
  7  8  1  0  0  0
  7 11  1  0  0  0
  2  3  2  0  0  0
  3  4  1  0  0  0
  4  5  2  0  0  0
  5  6  1  0  0  0
  8  9  2  0  0  0
  9 10  1  0  0  0
 10 11  2  0  0  0
 13 14  1  0  0  0
 13 15  1  0  0  0
M  END
> <minimizedAffinity>
-5.48006

$$$$
4ABE_913_A_1254


 15 16  0  0  0  0  0  0  0  0999 V2000
    0.0343   10.9785   13.8244 C   0  0  0  0  0  0  0  0  0  0  0  0
   -1.1815   10.4736   13.4476 C   0  0  0  0  0  0  0  0  0  0  0  0
   -2.3524   11.0245   13.9053 C   0  0  0  0  0  0  0  0  0  0  0  0
   -2.3972   12.0864   14.7829 C   0  0  0  0  0  0  0  0  0  0  0  0
   -1.2173   12.6284   15.1738 C   0  0  0  0  0  0  0  0  0  0  0  0
   -0.0505   12.0754   14.6813 C   0  0  0  0  0  0  0  0  0  0  0  0
   -1.3483   13.7873   16.0669 N   0  0  0  0  0  0  0  0  0  0  0  0
   -0.8797   15.0666   15.8344 C   0  0  0  0  0  0  0  0  0  0  0  0
   -1.3221   15.8294   16.8844 C   0  0  0  0  0  0  0  0  0  0  0  0
   -2.0383   14.8974   17.6926 C   0  0  0  0  0  0  0  0  0  0  0  0
   -1.9982   13.6383   17.2451 N   0  0  0  0  0  0  0  0  0  0  0  0
    1.2752   10.3709   13.1693 C   0  0  0  0  0  0  0  0  0  0  0  0
    2.5552   10.9289   13.6866 N   0  0  0  0  0  0  0  0  0  0  0  0
    2.6382   10.7230   14.6822 H   0  0  0  0  0  0  0  0  0  0  0  0
    2.5671   11.9391   13.5461 H   0  0  0  0  0  0  0  0  0  0  0  0
 12 13  1  0  0  0
 12  1  1  0  0  0
  1  2  1  0  0  0
  1  6  2  0  0  0
  7  5  1  0  0  0
  7  8  1  0  0  0
  7 11  1  0  0  0
  2  3  2  0  0  0
  3  4  1  0  0  0
  4  5  2  0  0  0
  5  6  1  0  0  0
  8  9  2  0  0  0
  9 10  1  0  0  0
 10 11  2  0  0  0
 13 14  1  0  0  0
 13 15  1  0  0  0
M  END
> <minimizedAffinity>
-5.44573

$$$$
4ABE_913_A_1254


 15 16  0  0  0  0  0  0  0  0999 V2000
   -1.6737   14.4805   16.3633 C   0  0  0  0  0  0  0  0  0  0  0  0
   -1.2887   14.4939   15.0493 C   0  0  0  0  0  0  0  0  0  0  0  0
   -1.6375   13.4769   14.1962 C   0  0  0  0  0  0  0  0  0  0  0  0
   -2.3614   12.3723   14.5910 C   0  0  0  0  0  0  0  0  0  0  0  0
   -2.7762   12.3214   15.8810 C   0  0  0  0  0  0  0  0  0  0  0  0
   -2.4364   13.3679   16.7172 C   0  0  0  0  0  0  0  0  0  0  0  0
   -3.5850   11.1408   16.2121 N   0  0  0  0  0  0  0  0  0  0  0  0
   -3.2922   10.1778   17.1592 C   0  0  0  0  0  0  0  0  0  0  0  0
   -4.3740    9.3359   17.1914 C   0  0  0  0  0  0  0  0  0  0  0  0
   -5.2520    9.8867   16.2114 C   0  0  0  0  0  0  0  0  0  0  0  0
   -4.7524   10.9397   15.5566 N   0  0  0  0  0  0  0  0  0  0  0  0
   -1.3359   15.7138   17.2018 C   0  0  0  0  0  0  0  0  0  0  0  0
   -0.0919   16.4071   16.7668 N   0  0  0  0  0  0  0  0  0  0  0  0
   -0.2070   16.7444   15.8111 H   0  0  0  0  0  0  0  0  0  0  0  0
    0.6918   15.7553   16.8052 H   0  0  0  0  0  0  0  0  0  0  0  0
 12 13  1  0  0  0
 12  1  1  0  0  0
  1  2  1  0  0  0
  1  6  2  0  0  0
  7  5  1  0  0  0
  7  8  1  0  0  0
  7 11  1  0  0  0
  2  3  2  0  0  0
  3  4  1  0  0  0
  4  5  2  0  0  0
  5  6  1  0  0  0
  8  9  2  0  0  0
  9 10  1  0  0  0
 10 11  2  0  0  0
 13 14  1  0  0  0
 13 15  1  0  0  0
M  END
> <minimizedAffinity>
-5.08857

$$$$
4ABE_913_A_1254


 15 16  0  0  0  0  0  0  0  0999 V2000
   -3.8765   10.5527   15.1931 C   0  0  0  0  0  0  0  0  0  0  0  0
   -3.1172   10.1721   14.1191 C   0  0  0  0  0  0  0  0  0  0  0  0
   -2.0788   10.9500   13.6715 C   0  0  0  0  0  0  0  0  0  0  0  0
   -1.7430   12.1620   14.2356 C   0  0  0  0  0  0  0  0  0  0  0  0
   -2.4591   12.5743   15.3108 C   0  0  0  0  0  0  0  0  0  0  0  0
   -3.4839   11.7641   15.7615 C   0  0  0  0  0  0  0  0  0  0  0  0
   -2.0089   13.8482   15.8873 N   0  0  0  0  0  0  0  0  0  0  0  0
   -2.3663   14.3713   17.1155 C   0  0  0  0  0  0  0  0  0  0  0  0
   -1.6260   15.5150   17.2709 C   0  0  0  0  0  0  0  0  0  0  0  0
   -0.8658   15.5840   16.0658 C   0  0  0  0  0  0  0  0  0  0  0  0
   -1.1444   14.6178   15.1849 N   0  0  0  0  0  0  0  0  0  0  0  0
   -4.9330    9.5634   15.6862 C   0  0  0  0  0  0  0  0  0  0  0  0
   -5.6130    9.9936   16.9392 N   0  0  0  0  0  0  0  0  0  0  0  0
   -6.1089   10.8694   16.7734 H   0  0  0  0  0  0  0  0  0  0  0  0
   -4.9182   10.1301   17.6734 H   0  0  0  0  0  0  0  0  0  0  0  0
 12 13  1  0  0  0
 12  1  1  0  0  0
  1  2  1  0  0  0
  1  6  2  0  0  0
  7  5  1  0  0  0
  7  8  1  0  0  0
  7 11  1  0  0  0
  2  3  2  0  0  0
  3  4  1  0  0  0
  4  5  2  0  0  0
  5  6  1  0  0  0
  8  9  2  0  0  0
  9 10  1  0  0  0
 10 11  2  0  0  0
 13 14  1  0  0  0
 13 15  1  0  0  0
M  END
> <minimizedAffinity>
-4.89454

$$$$
4ABE_913_A_1254


 15 16  0  0  0  0  0  0  0  0999 V2000
   -0.5664    9.7394   15.5579 C   0  0  0  0  0  0  0  0  0  0  0  0
    0.2234    9.7683   14.4398 C   0  0  0  0  0  0  0  0  0  0  0  0
    0.5437   10.9537   13.8265 C   0  0  0  0  0  0  0  0  0  0  0  0
    0.0832   12.1787   14.2595 C   0  0  0  0  0  0  0  0  0  0  0  0
   -0.6921   12.2009   15.3717 C   0  0  0  0  0  0  0  0  0  0  0  0
   -0.9816   10.9989   15.9891 C   0  0  0  0  0  0  0  0  0  0  0  0
   -1.1001   13.5455   15.8000 N   0  0  0  0  0  0  0  0  0  0  0  0
   -0.9260   14.7241   15.0995 C   0  0  0  0  0  0  0  0  0  0  0  0
   -1.5518   15.6982   15.8341 C   0  0  0  0  0  0  0  0  0  0  0  0
   -2.0581   14.9881   16.9630 C   0  0  0  0  0  0  0  0  0  0  0  0
   -1.7260   13.6935   16.9913 N   0  0  0  0  0  0  0  0  0  0  0  0
   -0.7689    8.3829   16.2340 C   0  0  0  0  0  0  0  0  0  0  0  0
   -1.0277    8.4796   17.6973 N   0  0  0  0  0  0  0  0  0  0  0  0
   -1.8902    9.0002   17.8563 H   0  0  0  0  0  0  0  0  0  0  0  0
   -0.2509    8.9624   18.1488 H   0  0  0  0  0  0  0  0  0  0  0  0
 12 13  1  0  0  0
 12  1  1  0  0  0
  1  2  1  0  0  0
  1  6  2  0  0  0
  7  5  1  0  0  0
  7  8  1  0  0  0
  7 11  1  0  0  0
  2  3  2  0  0  0
  3  4  1  0  0  0
  4  5  2  0  0  0
  5  6  1  0  0  0
  8  9  2  0  0  0
  9 10  1  0  0  0
 10 11  2  0  0  0
 13 14  1  0  0  0
 13 15  1  0  0  0
M  END
> <minimizedAffinity>
-4.83513

$$$$
4ABE_913_A_1254


 15 16  0  0  0  0  0  0  0  0999 V2000
   -1.4345   13.5645   15.4252 C   0  0  0  0  0  0  0  0  0  0  0  0
   -2.6249   12.8880   15.4255 C   0  0  0  0  0  0  0  0  0  0  0  0
   -2.7310   11.6361   14.8729 C   0  0  0  0  0  0  0  0  0  0  0  0
   -1.6798   10.9868   14.2619 C   0  0  0  0  0  0  0  0  0  0  0  0
   -0.4770   11.6128   14.2490 C   0  0  0  0  0  0  0  0  0  0  0  0
   -0.3854   12.8616   14.8336 C   0  0  0  0  0  0  0  0  0  0  0  0
    0.6042   10.8367   13.6272 N   0  0  0  0  0  0  0  0  0  0  0  0
    1.9113   10.7424   14.0661 C   0  0  0  0  0  0  0  0  0  0  0  0
    2.5235    9.8331   13.2423 C   0  0  0  0  0  0  0  0  0  0  0  0
    1.4873    9.4549   12.3380 C   0  0  0  0  0  0  0  0  0  0  0  0
    0.3372   10.1132   12.5145 N   0  0  0  0  0  0  0  0  0  0  0  0
   -1.3912   14.9005   16.1679 C   0  0  0  0  0  0  0  0  0  0  0  0
   -1.8631   16.0520   15.3500 N   0  0  0  0  0  0  0  0  0  0  0  0
   -2.8397   15.9089   15.0930 H   0  0  0  0  0  0  0  0  0  0  0  0
   -1.2962   16.1238   14.5050 H   0  0  0  0  0  0  0  0  0  0  0  0
 12 13  1  0  0  0
 12  1  1  0  0  0
  1  2  1  0  0  0
  1  6  2  0  0  0
  7  5  1  0  0  0
  7  8  1  0  0  0
  7 11  1  0  0  0
  2  3  2  0  0  0
  3  4  1  0  0  0
  4  5  2  0  0  0
  5  6  1  0  0  0
  8  9  2  0  0  0
  9 10  1  0  0  0
 10 11  2  0  0  0
 13 14  1  0  0  0
 13 15  1  0  0  0
M  END
> <minimizedAffinity>
-4.81569

$$$$
