1UA4_AMP_A_1456


 29 31  0  0  0  0  0  0  0  0999 V2000
   18.7216   15.6150    7.1378 C   0  0  0  0  0  0  0  0  0  0  0  0
   17.4951   14.8411    6.8529 O   0  0  0  0  0  0  0  0  0  0  0  0
   20.0164   14.5229    6.9991 C   0  0  0  0  0  0  0  0  0  0  0  0
   21.0358   14.8357    8.0473 O   0  0  0  0  0  0  0  0  0  0  0  0
   19.2429   13.1369    7.1727 C   0  0  0  0  0  0  0  0  0  0  0  0
   19.2265   12.7267    8.5242 O   0  0  0  0  0  0  0  0  0  0  0  0
   17.7243   13.4321    6.7526 C   0  0  0  0  0  0  0  0  0  0  0  0
   20.6108   14.8448    8.9192 H   0  0  0  0  0  0  0  0  0  0  0  0
   18.7987   13.4095    9.0642 H   0  0  0  0  0  0  0  0  0  0  0  0
   17.3678   12.8718    5.4240 N   0  0  0  0  0  0  0  0  0  0  0  0
   17.5904   13.3761    4.1318 C   0  0  0  0  0  0  0  0  0  0  0  0
   17.1448   12.6163    3.0985 N   0  0  0  0  0  0  0  0  0  0  0  0
   16.5995   11.5458    3.8212 C   0  0  0  0  0  0  0  0  0  0  0  0
   15.9484   10.3535    3.3859 C   0  0  0  0  0  0  0  0  0  0  0  0
   15.7906   10.1312    2.0325 N   0  0  0  0  0  0  0  0  0  0  0  0
   15.5196    9.4867    4.3990 N   0  0  0  0  0  0  0  0  0  0  0  0
   15.6939    9.7373    5.7151 C   0  0  0  0  0  0  0  0  0  0  0  0
   16.2993   10.8345    6.2146 N   0  0  0  0  0  0  0  0  0  0  0  0
   16.7214   11.6886    5.2279 C   0  0  0  0  0  0  0  0  0  0  0  0
   16.1216   10.7930    1.3831 H   0  0  0  0  0  0  0  0  0  0  0  0
   15.3470    9.3110    1.7167 H   0  0  0  0  0  0  0  0  0  0  0  0
   18.8758   16.9137    6.3251 C   0  0  0  0  0  0  0  0  0  0  0  0
   18.3607   17.9299    7.2460 O   0  0  0  0  0  0  0  0  0  0  0  0
   17.5342   19.2372    6.6704 P   0  0  0  0  0  0  0  0  0  0  0  0
   18.3331   20.3744    7.1162 O   0  0  0  0  0  0  0  0  0  0  0  0
   17.4943   19.1180    5.1909 O   0  0  0  0  0  0  0  0  0  0  0  0
   16.1429   19.2518    7.2655 O   0  0  0  0  0  0  0  0  0  0  0  0
   17.0136   19.8737    4.8185 H   0  0  0  0  0  0  0  0  0  0  0  0
   15.6552   20.0196    6.9285 H   0  0  0  0  0  0  0  0  0  0  0  0
 24 25  2  0  0  0
 24 26  1  0  0  0
 24 27  1  0  0  0
 24 23  1  0  0  0
 23 22  1  0  0  0
 22  1  1  0  0  0
  1  2  1  0  0  0
  1  3  1  0  0  0
  2  7  1  0  0  0
  3  4  1  0  0  0
  3  5  1  0  0  0
  5  6  1  0  0  0
  5  7  1  0  0  0
  7 10  1  0  0  0
 10 11  1  0  0  0
 10 19  1  0  0  0
 11 12  2  0  0  0
 12 13  1  0  0  0
 13 14  1  0  0  0
 13 19  2  0  0  0
 14 15  1  0  0  0
 14 16  2  0  0  0
 16 17  1  0  0  0
 17 18  2  0  0  0
 18 19  1  0  0  0
 26 28  1  0  0  0
 27 29  1  0  0  0
  4  8  1  0  0  0
  6  9  1  0  0  0
 15 20  1  0  0  0
 15 21  1  0  0  0
M  END
> <minimizedAffinity>
-10.47097

$$$$
1UA4_AMP_A_1456


 29 31  0  0  0  0  0  0  0  0999 V2000
   19.8414   15.0519    6.5096 C   0  0  0  0  0  0  0  0  0  0  0  0
   19.7440   13.6270    6.1293 O   0  0  0  0  0  0  0  0  0  0  0  0
   18.2486   15.5856    6.7678 C   0  0  0  0  0  0  0  0  0  0  0  0
   18.1131   16.9865    6.2629 O   0  0  0  0  0  0  0  0  0  0  0  0
   17.4383   14.4731    5.9582 C   0  0  0  0  0  0  0  0  0  0  0  0
   17.2076   14.8779    4.6248 O   0  0  0  0  0  0  0  0  0  0  0  0
   18.4000   13.1918    5.9007 C   0  0  0  0  0  0  0  0  0  0  0  0
   18.4045   17.0266    5.3385 H   0  0  0  0  0  0  0  0  0  0  0  0
   18.0564   15.0474    4.1870 H   0  0  0  0  0  0  0  0  0  0  0  0
   17.9724   12.1008    6.8133 N   0  0  0  0  0  0  0  0  0  0  0  0
   18.5159   11.6667    8.0338 C   0  0  0  0  0  0  0  0  0  0  0  0
   17.8859   10.6307    8.6448 N   0  0  0  0  0  0  0  0  0  0  0  0
   16.8598   10.4080    7.7158 C   0  0  0  0  0  0  0  0  0  0  0  0
   15.7953    9.4584    7.7016 C   0  0  0  0  0  0  0  0  0  0  0  0
   15.6761    8.5688    8.7506 N   0  0  0  0  0  0  0  0  0  0  0  0
   14.9378    9.5182    6.5960 N   0  0  0  0  0  0  0  0  0  0  0  0
   15.0849   10.4058    5.5880 C   0  0  0  0  0  0  0  0  0  0  0  0
   16.0578   11.3378    5.5210 N   0  0  0  0  0  0  0  0  0  0  0  0
   16.9022   11.2848    6.6006 C   0  0  0  0  0  0  0  0  0  0  0  0
   16.3231    8.5927    9.4923 H   0  0  0  0  0  0  0  0  0  0  0  0
   14.9442    7.9105    8.7570 H   0  0  0  0  0  0  0  0  0  0  0  0
   20.8229   15.3543    7.6568 C   0  0  0  0  0  0  0  0  0  0  0  0
   21.8540   16.1551    6.9923 O   0  0  0  0  0  0  0  0  0  0  0  0
   21.5628   17.7304    6.5963 P   0  0  0  0  0  0  0  0  0  0  0  0
   20.6681   18.1923    7.6529 O   0  0  0  0  0  0  0  0  0  0  0  0
   22.8683   18.4378    6.6099 O   0  0  0  0  0  0  0  0  0  0  0  0
   20.9106   17.7917    5.2321 O   0  0  0  0  0  0  0  0  0  0  0  0
   22.7330   19.3705    6.3805 H   0  0  0  0  0  0  0  0  0  0  0  0
   20.7385   18.7169    4.9973 H   0  0  0  0  0  0  0  0  0  0  0  0
 24 25  2  0  0  0
 24 26  1  0  0  0
 24 27  1  0  0  0
 24 23  1  0  0  0
 23 22  1  0  0  0
 22  1  1  0  0  0
  1  2  1  0  0  0
  1  3  1  0  0  0
  2  7  1  0  0  0
  3  4  1  0  0  0
  3  5  1  0  0  0
  5  6  1  0  0  0
  5  7  1  0  0  0
  7 10  1  0  0  0
 10 11  1  0  0  0
 10 19  1  0  0  0
 11 12  2  0  0  0
 12 13  1  0  0  0
 13 14  1  0  0  0
 13 19  2  0  0  0
 14 15  1  0  0  0
 14 16  2  0  0  0
 16 17  1  0  0  0
 17 18  2  0  0  0
 18 19  1  0  0  0
 26 28  1  0  0  0
 27 29  1  0  0  0
  4  8  1  0  0  0
  6  9  1  0  0  0
 15 20  1  0  0  0
 15 21  1  0  0  0
M  END
> <minimizedAffinity>
-10.37069

$$$$
1UA4_AMP_A_1456


 29 31  0  0  0  0  0  0  0  0999 V2000
   17.7672   16.4552    6.6151 C   0  0  0  0  0  0  0  0  0  0  0  0
   17.1478   17.6732    7.1781 O   0  0  0  0  0  0  0  0  0  0  0  0
   19.2360   16.9477    5.9162 C   0  0  0  0  0  0  0  0  0  0  0  0
   19.4628   16.1750    4.6563 O   0  0  0  0  0  0  0  0  0  0  0  0
   18.9578   18.5094    5.7338 C   0  0  0  0  0  0  0  0  0  0  0  0
   18.4203   18.7871    4.4575 O   0  0  0  0  0  0  0  0  0  0  0  0
   17.8279   18.8772    6.8099 C   0  0  0  0  0  0  0  0  0  0  0  0
   18.6912   16.2692    4.0760 H   0  0  0  0  0  0  0  0  0  0  0  0
   17.5944   18.2921    4.3399 H   0  0  0  0  0  0  0  0  0  0  0  0
   18.3561   19.6333    7.9742 N   0  0  0  0  0  0  0  0  0  0  0  0
   19.5874   19.5349    8.6433 C   0  0  0  0  0  0  0  0  0  0  0  0
   19.7811   20.3825    9.6863 N   0  0  0  0  0  0  0  0  0  0  0  0
   18.5574   21.0660    9.6549 C   0  0  0  0  0  0  0  0  0  0  0  0
   18.0483   22.1188   10.4719 C   0  0  0  0  0  0  0  0  0  0  0  0
   18.8346   22.6163   11.4918 N   0  0  0  0  0  0  0  0  0  0  0  0
   16.7615   22.5711   10.1542 N   0  0  0  0  0  0  0  0  0  0  0  0
   16.0218   22.0605    9.1455 C   0  0  0  0  0  0  0  0  0  0  0  0
   16.4237   21.0691    8.3237 N   0  0  0  0  0  0  0  0  0  0  0  0
   17.6833   20.6205    8.6293 C   0  0  0  0  0  0  0  0  0  0  0  0
   19.7313   22.2416   11.6497 H   0  0  0  0  0  0  0  0  0  0  0  0
   18.4987   23.3457   12.0614 H   0  0  0  0  0  0  0  0  0  0  0  0
   17.8764   15.2692    7.5910 C   0  0  0  0  0  0  0  0  0  0  0  0
   18.0051   14.1230    6.6879 O   0  0  0  0  0  0  0  0  0  0  0  0
   19.2197   13.0257    6.8981 P   0  0  0  0  0  0  0  0  0  0  0  0
   20.3375   13.6017    6.1572 O   0  0  0  0  0  0  0  0  0  0  0  0
   19.4901   12.9401    8.3556 O   0  0  0  0  0  0  0  0  0  0  0  0
   18.7909   11.6894    6.3320 O   0  0  0  0  0  0  0  0  0  0  0  0
   20.2020   12.3010    8.5154 H   0  0  0  0  0  0  0  0  0  0  0  0
   19.5034   11.0427    6.4545 H   0  0  0  0  0  0  0  0  0  0  0  0
 24 25  2  0  0  0
 24 26  1  0  0  0
 24 27  1  0  0  0
 24 23  1  0  0  0
 23 22  1  0  0  0
 22  1  1  0  0  0
  1  2  1  0  0  0
  1  3  1  0  0  0
  2  7  1  0  0  0
  3  4  1  0  0  0
  3  5  1  0  0  0
  5  6  1  0  0  0
  5  7  1  0  0  0
  7 10  1  0  0  0
 10 11  1  0  0  0
 10 19  1  0  0  0
 11 12  2  0  0  0
 12 13  1  0  0  0
 13 14  1  0  0  0
 13 19  2  0  0  0
 14 15  1  0  0  0
 14 16  2  0  0  0
 16 17  1  0  0  0
 17 18  2  0  0  0
 18 19  1  0  0  0
 26 28  1  0  0  0
 27 29  1  0  0  0
  4  8  1  0  0  0
  6  9  1  0  0  0
 15 20  1  0  0  0
 15 21  1  0  0  0
M  END
> <minimizedAffinity>
-10.24573

$$$$
1UA4_AMP_A_1456


 29 31  0  0  0  0  0  0  0  0999 V2000
   19.9154   16.8602    6.4097 C   0  0  0  0  0  0  0  0  0  0  0  0
   20.0925   15.3930    6.3944 O   0  0  0  0  0  0  0  0  0  0  0  0
   18.6922   17.2038    5.2809 C   0  0  0  0  0  0  0  0  0  0  0  0
   19.0286   18.4726    4.5648 O   0  0  0  0  0  0  0  0  0  0  0  0
   18.7349   15.8743    4.3977 C   0  0  0  0  0  0  0  0  0  0  0  0
   19.6014   16.0228    3.2922 O   0  0  0  0  0  0  0  0  0  0  0  0
   19.3687   14.7456    5.3433 C   0  0  0  0  0  0  0  0  0  0  0  0
   19.9178   18.4027    4.1835 H   0  0  0  0  0  0  0  0  0  0  0  0
   20.4940   16.2347    3.6071 H   0  0  0  0  0  0  0  0  0  0  0  0
   18.3653   13.7677    5.8366 N   0  0  0  0  0  0  0  0  0  0  0  0
   18.0369   13.3797    7.1461 C   0  0  0  0  0  0  0  0  0  0  0  0
   17.0540   12.4519    7.2761 N   0  0  0  0  0  0  0  0  0  0  0  0
   16.7487   12.2521    5.9223 C   0  0  0  0  0  0  0  0  0  0  0  0
   15.7932   11.4020    5.2905 C   0  0  0  0  0  0  0  0  0  0  0  0
   14.9807   10.6072    6.0742 N   0  0  0  0  0  0  0  0  0  0  0  0
   15.7591   11.4548    3.8914 N   0  0  0  0  0  0  0  0  0  0  0  0
   16.5697   12.2481    3.1573 C   0  0  0  0  0  0  0  0  0  0  0  0
   17.4973   13.0828    3.6697 N   0  0  0  0  0  0  0  0  0  0  0  0
   17.5369   13.0360    5.0399 C   0  0  0  0  0  0  0  0  0  0  0  0
   15.0685   10.6291    7.0546 H   0  0  0  0  0  0  0  0  0  0  0  0
   14.3136   10.0185    5.6528 H   0  0  0  0  0  0  0  0  0  0  0  0
   19.7048   17.4763    7.8051 C   0  0  0  0  0  0  0  0  0  0  0  0
   20.2068   18.8414    7.6308 O   0  0  0  0  0  0  0  0  0  0  0  0
   19.2261   20.1361    7.9225 P   0  0  0  0  0  0  0  0  0  0  0  0
   18.6334   19.8346    9.2218 O   0  0  0  0  0  0  0  0  0  0  0  0
   20.0890   21.3440    7.9601 O   0  0  0  0  0  0  0  0  0  0  0  0
   18.1832   20.2308    6.8301 O   0  0  0  0  0  0  0  0  0  0  0  0
   19.5421   22.1269    8.1304 H   0  0  0  0  0  0  0  0  0  0  0  0
   17.6055   20.9913    6.9996 H   0  0  0  0  0  0  0  0  0  0  0  0
 24 25  2  0  0  0
 24 26  1  0  0  0
 24 27  1  0  0  0
 24 23  1  0  0  0
 23 22  1  0  0  0
 22  1  1  0  0  0
  1  2  1  0  0  0
  1  3  1  0  0  0
  2  7  1  0  0  0
  3  4  1  0  0  0
  3  5  1  0  0  0
  5  6  1  0  0  0
  5  7  1  0  0  0
  7 10  1  0  0  0
 10 11  1  0  0  0
 10 19  1  0  0  0
 11 12  2  0  0  0
 12 13  1  0  0  0
 13 14  1  0  0  0
 13 19  2  0  0  0
 14 15  1  0  0  0
 14 16  2  0  0  0
 16 17  1  0  0  0
 17 18  2  0  0  0
 18 19  1  0  0  0
 26 28  1  0  0  0
 27 29  1  0  0  0
  4  8  1  0  0  0
  6  9  1  0  0  0
 15 20  1  0  0  0
 15 21  1  0  0  0
M  END
> <minimizedAffinity>
-10.13099

$$$$
1UA4_AMP_A_1456


 29 31  0  0  0  0  0  0  0  0999 V2000
   18.8195   15.6165    6.9728 C   0  0  0  0  0  0  0  0  0  0  0  0
   17.5345   14.9573    6.6587 O   0  0  0  0  0  0  0  0  0  0  0  0
   20.0006   14.3947    6.9448 C   0  0  0  0  0  0  0  0  0  0  0  0
   20.9974   14.6517    8.0293 O   0  0  0  0  0  0  0  0  0  0  0  0
   19.0819   13.1028    7.1365 C   0  0  0  0  0  0  0  0  0  0  0  0
   18.9614   12.7593    8.5012 O   0  0  0  0  0  0  0  0  0  0  0  0
   17.6224   13.5292    6.6285 C   0  0  0  0  0  0  0  0  0  0  0  0
   20.5359   14.7437    8.8775 H   0  0  0  0  0  0  0  0  0  0  0  0
   18.5815   13.5060    8.9902 H   0  0  0  0  0  0  0  0  0  0  0  0
   17.2718   12.9468    5.3078 N   0  0  0  0  0  0  0  0  0  0  0  0
   17.4408   13.4593    4.0109 C   0  0  0  0  0  0  0  0  0  0  0  0
   17.0181   12.6734    2.9875 N   0  0  0  0  0  0  0  0  0  0  0  0
   16.5473   11.5761    3.7223 C   0  0  0  0  0  0  0  0  0  0  0  0
   15.9551   10.3484    3.3016 C   0  0  0  0  0  0  0  0  0  0  0  0
   15.7836   10.1143    1.9518 N   0  0  0  0  0  0  0  0  0  0  0  0
   15.5951    9.4616    4.3240 N   0  0  0  0  0  0  0  0  0  0  0  0
   15.7808    9.7248    5.6361 C   0  0  0  0  0  0  0  0  0  0  0  0
   16.3338   10.8552    6.1221 N   0  0  0  0  0  0  0  0  0  0  0  0
   16.6885   11.7290    5.1262 C   0  0  0  0  0  0  0  0  0  0  0  0
   16.0646   10.7918    1.2951 H   0  0  0  0  0  0  0  0  0  0  0  0
   15.3803    9.2699    1.6460 H   0  0  0  0  0  0  0  0  0  0  0  0
   19.1433   16.8541    6.1159 C   0  0  0  0  0  0  0  0  0  0  0  0
   20.5819   16.7115    5.8793 O   0  0  0  0  0  0  0  0  0  0  0  0
   21.6387   17.8442    6.4482 P   0  0  0  0  0  0  0  0  0  0  0  0
   22.2578   17.1923    7.5980 O   0  0  0  0  0  0  0  0  0  0  0  0
   22.6128   18.1237    5.3629 O   0  0  0  0  0  0  0  0  0  0  0  0
   20.8740   19.0887    6.8440 O   0  0  0  0  0  0  0  0  0  0  0  0
   23.2514   18.7884    5.6650 H   0  0  0  0  0  0  0  0  0  0  0  0
   21.4933   19.7559    7.1788 H   0  0  0  0  0  0  0  0  0  0  0  0
 24 25  2  0  0  0
 24 26  1  0  0  0
 24 27  1  0  0  0
 24 23  1  0  0  0
 23 22  1  0  0  0
 22  1  1  0  0  0
  1  2  1  0  0  0
  1  3  1  0  0  0
  2  7  1  0  0  0
  3  4  1  0  0  0
  3  5  1  0  0  0
  5  6  1  0  0  0
  5  7  1  0  0  0
  7 10  1  0  0  0
 10 11  1  0  0  0
 10 19  1  0  0  0
 11 12  2  0  0  0
 12 13  1  0  0  0
 13 14  1  0  0  0
 13 19  2  0  0  0
 14 15  1  0  0  0
 14 16  2  0  0  0
 16 17  1  0  0  0
 17 18  2  0  0  0
 18 19  1  0  0  0
 26 28  1  0  0  0
 27 29  1  0  0  0
  4  8  1  0  0  0
  6  9  1  0  0  0
 15 20  1  0  0  0
 15 21  1  0  0  0
M  END
> <minimizedAffinity>
-9.75962

$$$$
1UA4_AMP_A_1456


 29 31  0  0  0  0  0  0  0  0999 V2000
   19.0763   16.2295    6.4588 C   0  0  0  0  0  0  0  0  0  0  0  0
   19.3495   14.7773    6.4300 O   0  0  0  0  0  0  0  0  0  0  0  0
   18.2578   16.5886    5.0133 C   0  0  0  0  0  0  0  0  0  0  0  0
   18.7174   17.9184    4.5071 O   0  0  0  0  0  0  0  0  0  0  0  0
   18.6721   15.3263    4.1275 C   0  0  0  0  0  0  0  0  0  0  0  0
   19.8343   15.5926    3.3703 O   0  0  0  0  0  0  0  0  0  0  0  0
   19.0462   14.1682    5.1711 C   0  0  0  0  0  0  0  0  0  0  0  0
   19.6844   17.9188    4.4310 H   0  0  0  0  0  0  0  0  0  0  0  0
   20.5624   15.8263    3.9669 H   0  0  0  0  0  0  0  0  0  0  0  0
   18.0076   13.1106    5.2650 N   0  0  0  0  0  0  0  0  0  0  0  0
   17.0009   12.7376    4.3590 C   0  0  0  0  0  0  0  0  0  0  0  0
   16.1963   11.7103    4.7344 N   0  0  0  0  0  0  0  0  0  0  0  0
   16.7608   11.4241    5.9854 C   0  0  0  0  0  0  0  0  0  0  0  0
   16.4248   10.4433    6.9653 C   0  0  0  0  0  0  0  0  0  0  0  0
   15.3772    9.5789    6.7173 N   0  0  0  0  0  0  0  0  0  0  0  0
   17.2134   10.4406    8.1226 N   0  0  0  0  0  0  0  0  0  0  0  0
   18.2335   11.3021    8.3293 C   0  0  0  0  0  0  0  0  0  0  0  0
   18.6212   12.2567    7.4586 N   0  0  0  0  0  0  0  0  0  0  0  0
   17.8527   12.2658    6.3226 C   0  0  0  0  0  0  0  0  0  0  0  0
   14.8712    9.6474    5.8756 H   0  0  0  0  0  0  0  0  0  0  0  0
   15.1363    8.8940    7.3822 H   0  0  0  0  0  0  0  0  0  0  0  0
   18.3886   16.7376    7.7393 C   0  0  0  0  0  0  0  0  0  0  0  0
   18.8760   18.1155    7.8386 O   0  0  0  0  0  0  0  0  0  0  0  0
   17.8583   19.3841    7.5589 P   0  0  0  0  0  0  0  0  0  0  0  0
   17.9047   20.1449    8.8037 O   0  0  0  0  0  0  0  0  0  0  0  0
   18.4076   20.1457    6.4087 O   0  0  0  0  0  0  0  0  0  0  0  0
   16.4701   18.8576    7.2660 O   0  0  0  0  0  0  0  0  0  0  0  0
   17.8312   20.9018    6.2165 H   0  0  0  0  0  0  0  0  0  0  0  0
   15.8701   19.6018    7.1013 H   0  0  0  0  0  0  0  0  0  0  0  0
 24 25  2  0  0  0
 24 26  1  0  0  0
 24 27  1  0  0  0
 24 23  1  0  0  0
 23 22  1  0  0  0
 22  1  1  0  0  0
  1  2  1  0  0  0
  1  3  1  0  0  0
  2  7  1  0  0  0
  3  4  1  0  0  0
  3  5  1  0  0  0
  5  6  1  0  0  0
  5  7  1  0  0  0
  7 10  1  0  0  0
 10 11  1  0  0  0
 10 19  1  0  0  0
 11 12  2  0  0  0
 12 13  1  0  0  0
 13 14  1  0  0  0
 13 19  2  0  0  0
 14 15  1  0  0  0
 14 16  2  0  0  0
 16 17  1  0  0  0
 17 18  2  0  0  0
 18 19  1  0  0  0
 26 28  1  0  0  0
 27 29  1  0  0  0
  4  8  1  0  0  0
  6  9  1  0  0  0
 15 20  1  0  0  0
 15 21  1  0  0  0
M  END
> <minimizedAffinity>
-9.75671

$$$$
1UA4_AMP_A_1456


 29 31  0  0  0  0  0  0  0  0999 V2000
   18.4720   16.1001    7.3557 C   0  0  0  0  0  0  0  0  0  0  0  0
   18.0278   14.8117    7.9278 O   0  0  0  0  0  0  0  0  0  0  0  0
   19.3925   15.7175    5.9793 C   0  0  0  0  0  0  0  0  0  0  0  0
   20.5436   16.6668    5.8801 O   0  0  0  0  0  0  0  0  0  0  0  0
   19.7690   14.1989    6.2985 C   0  0  0  0  0  0  0  0  0  0  0  0
   21.0051   14.1104    6.9760 O   0  0  0  0  0  0  0  0  0  0  0  0
   18.6403   13.6757    7.3095 C   0  0  0  0  0  0  0  0  0  0  0  0
   21.0430   16.6574    6.7116 H   0  0  0  0  0  0  0  0  0  0  0  0
   20.9578   14.6161    7.8024 H   0  0  0  0  0  0  0  0  0  0  0  0
   17.6639   12.7579    6.6685 N   0  0  0  0  0  0  0  0  0  0  0  0
   16.8995   12.9109    5.4999 C   0  0  0  0  0  0  0  0  0  0  0  0
   16.0885   11.8747    5.1648 N   0  0  0  0  0  0  0  0  0  0  0  0
   16.3823   11.0038    6.2236 C   0  0  0  0  0  0  0  0  0  0  0  0
   15.8941    9.6987    6.5292 C   0  0  0  0  0  0  0  0  0  0  0  0
   14.9731    9.1122    5.6844 N   0  0  0  0  0  0  0  0  0  0  0  0
   16.4115    9.1090    7.6894 N   0  0  0  0  0  0  0  0  0  0  0  0
   17.3148    9.7139    8.4916 C   0  0  0  0  0  0  0  0  0  0  0  0
   17.8310   10.9418    8.2783 N   0  0  0  0  0  0  0  0  0  0  0  0
   17.3283   11.5259    7.1437 C   0  0  0  0  0  0  0  0  0  0  0  0
   14.6592    9.5959    4.8864 H   0  0  0  0  0  0  0  0  0  0  0  0
   14.6303    8.2102    5.8798 H   0  0  0  0  0  0  0  0  0  0  0  0
   17.3516   17.1304    7.1234 C   0  0  0  0  0  0  0  0  0  0  0  0
   17.8391   18.3027    7.8540 O   0  0  0  0  0  0  0  0  0  0  0  0
   18.4673   19.5933    7.0396 P   0  0  0  0  0  0  0  0  0  0  0  0
   18.5645   19.1187    5.6628 O   0  0  0  0  0  0  0  0  0  0  0  0
   17.5075   20.7169    7.1851 O   0  0  0  0  0  0  0  0  0  0  0  0
   19.8219   19.9397    7.6184 O   0  0  0  0  0  0  0  0  0  0  0  0
   17.8472   21.4951    6.7162 H   0  0  0  0  0  0  0  0  0  0  0  0
   20.1931   20.6982    7.1411 H   0  0  0  0  0  0  0  0  0  0  0  0
 24 25  2  0  0  0
 24 26  1  0  0  0
 24 27  1  0  0  0
 24 23  1  0  0  0
 23 22  1  0  0  0
 22  1  1  0  0  0
  1  2  1  0  0  0
  1  3  1  0  0  0
  2  7  1  0  0  0
  3  4  1  0  0  0
  3  5  1  0  0  0
  5  6  1  0  0  0
  5  7  1  0  0  0
  7 10  1  0  0  0
 10 11  1  0  0  0
 10 19  1  0  0  0
 11 12  2  0  0  0
 12 13  1  0  0  0
 13 14  1  0  0  0
 13 19  2  0  0  0
 14 15  1  0  0  0
 14 16  2  0  0  0
 16 17  1  0  0  0
 17 18  2  0  0  0
 18 19  1  0  0  0
 26 28  1  0  0  0
 27 29  1  0  0  0
  4  8  1  0  0  0
  6  9  1  0  0  0
 15 20  1  0  0  0
 15 21  1  0  0  0
M  END
> <minimizedAffinity>
-9.59193

$$$$
1UA4_AMP_A_1456


 29 31  0  0  0  0  0  0  0  0999 V2000
   18.5235   16.3619    6.2059 C   0  0  0  0  0  0  0  0  0  0  0  0
   17.7670   17.1285    7.2181 O   0  0  0  0  0  0  0  0  0  0  0  0
   19.3463   17.5078    5.2580 C   0  0  0  0  0  0  0  0  0  0  0  0
   19.3481   17.0547    3.8331 O   0  0  0  0  0  0  0  0  0  0  0  0
   18.4822   18.8135    5.5716 C   0  0  0  0  0  0  0  0  0  0  0  0
   17.4479   18.9814    4.6245 O   0  0  0  0  0  0  0  0  0  0  0  0
   17.7828   18.5409    6.9881 C   0  0  0  0  0  0  0  0  0  0  0  0
   18.4376   16.8786    3.5486 H   0  0  0  0  0  0  0  0  0  0  0  0
   16.8734   18.1999    4.6312 H   0  0  0  0  0  0  0  0  0  0  0  0
   18.3982   19.3104    8.0995 N   0  0  0  0  0  0  0  0  0  0  0  0
   19.6863   19.2381    8.6555 C   0  0  0  0  0  0  0  0  0  0  0  0
   19.9559   20.0921    9.6761 N   0  0  0  0  0  0  0  0  0  0  0  0
   18.7210   20.7513    9.7540 C   0  0  0  0  0  0  0  0  0  0  0  0
   18.2665   21.7961   10.6124 C   0  0  0  0  0  0  0  0  0  0  0  0
   19.1311   22.3117   11.5572 N   0  0  0  0  0  0  0  0  0  0  0  0
   16.9476   22.2221   10.4111 N   0  0  0  0  0  0  0  0  0  0  0  0
   16.1307   21.6943    9.4734 C   0  0  0  0  0  0  0  0  0  0  0  0
   16.4769   20.7087    8.6198 N   0  0  0  0  0  0  0  0  0  0  0  0
   17.7675   20.2859    8.8114 C   0  0  0  0  0  0  0  0  0  0  0  0
   20.0455   21.9553   11.6343 H   0  0  0  0  0  0  0  0  0  0  0  0
   18.8332   23.0359   12.1539 H   0  0  0  0  0  0  0  0  0  0  0  0
   19.4036   15.2309    6.7691 C   0  0  0  0  0  0  0  0  0  0  0  0
   20.2143   15.9261    7.7718 O   0  0  0  0  0  0  0  0  0  0  0  0
   21.8608   15.9265    7.6612 P   0  0  0  0  0  0  0  0  0  0  0  0
   22.1688   14.6199    7.0883 O   0  0  0  0  0  0  0  0  0  0  0  0
   22.2426   17.0441    6.7611 O   0  0  0  0  0  0  0  0  0  0  0  0
   22.4556   16.0961    9.0424 O   0  0  0  0  0  0  0  0  0  0  0  0
   23.2082   17.0733    6.6736 H   0  0  0  0  0  0  0  0  0  0  0  0
   23.4236   16.0966    8.9797 H   0  0  0  0  0  0  0  0  0  0  0  0
 24 25  2  0  0  0
 24 26  1  0  0  0
 24 27  1  0  0  0
 24 23  1  0  0  0
 23 22  1  0  0  0
 22  1  1  0  0  0
  1  2  1  0  0  0
  1  3  1  0  0  0
  2  7  1  0  0  0
  3  4  1  0  0  0
  3  5  1  0  0  0
  5  6  1  0  0  0
  5  7  1  0  0  0
  7 10  1  0  0  0
 10 11  1  0  0  0
 10 19  1  0  0  0
 11 12  2  0  0  0
 12 13  1  0  0  0
 13 14  1  0  0  0
 13 19  2  0  0  0
 14 15  1  0  0  0
 14 16  2  0  0  0
 16 17  1  0  0  0
 17 18  2  0  0  0
 18 19  1  0  0  0
 26 28  1  0  0  0
 27 29  1  0  0  0
  4  8  1  0  0  0
  6  9  1  0  0  0
 15 20  1  0  0  0
 15 21  1  0  0  0
M  END
> <minimizedAffinity>
-9.51512

$$$$
1UA4_AMP_A_1456


 29 31  0  0  0  0  0  0  0  0999 V2000
   15.3376   10.4099    4.6631 C   0  0  0  0  0  0  0  0  0  0  0  0
   15.5307   11.6817    5.3911 O   0  0  0  0  0  0  0  0  0  0  0  0
   16.4821   10.4022    3.4068 C   0  0  0  0  0  0  0  0  0  0  0  0
   15.8710    9.7826    2.1909 O   0  0  0  0  0  0  0  0  0  0  0  0
   16.8064   11.9623    3.3041 C   0  0  0  0  0  0  0  0  0  0  0  0
   15.9757   12.5954    2.3532 O   0  0  0  0  0  0  0  0  0  0  0  0
   16.4345   12.5778    4.7369 C   0  0  0  0  0  0  0  0  0  0  0  0
   15.0431   10.2402    1.9762 H   0  0  0  0  0  0  0  0  0  0  0  0
   15.0464   12.4704    2.6015 H   0  0  0  0  0  0  0  0  0  0  0  0
   17.6282   12.9102    5.5559 N   0  0  0  0  0  0  0  0  0  0  0  0
   18.5522   12.0731    6.2033 C   0  0  0  0  0  0  0  0  0  0  0  0
   19.5566   12.6866    6.8804 N   0  0  0  0  0  0  0  0  0  0  0  0
   19.2206   14.0235    6.6247 C   0  0  0  0  0  0  0  0  0  0  0  0
   19.8444   15.2420    7.0260 C   0  0  0  0  0  0  0  0  0  0  0  0
   20.9879   15.1877    7.7978 N   0  0  0  0  0  0  0  0  0  0  0  0
   19.2271   16.4189    6.5842 N   0  0  0  0  0  0  0  0  0  0  0  0
   18.1083   16.4327    5.8271 C   0  0  0  0  0  0  0  0  0  0  0  0
   17.4556   15.3317    5.4009 N   0  0  0  0  0  0  0  0  0  0  0  0
   18.0542   14.1748    5.8305 C   0  0  0  0  0  0  0  0  0  0  0  0
   21.3591   14.3165    8.0671 H   0  0  0  0  0  0  0  0  0  0  0  0
   21.4321   16.0201    8.0789 H   0  0  0  0  0  0  0  0  0  0  0  0
   15.3321    9.1484    5.5460 C   0  0  0  0  0  0  0  0  0  0  0  0
   15.2742    9.7059    6.8995 O   0  0  0  0  0  0  0  0  0  0  0  0
   16.2410    9.1036    8.0935 P   0  0  0  0  0  0  0  0  0  0  0  0
   16.8796   10.2910    8.6526 O   0  0  0  0  0  0  0  0  0  0  0  0
   15.3590    8.4203    9.0733 O   0  0  0  0  0  0  0  0  0  0  0  0
   17.2471    8.1483    7.4893 O   0  0  0  0  0  0  0  0  0  0  0  0
   15.8973    8.0530    9.7917 H   0  0  0  0  0  0  0  0  0  0  0  0
   17.8166    7.7930    8.1895 H   0  0  0  0  0  0  0  0  0  0  0  0
 24 25  2  0  0  0
 24 26  1  0  0  0
 24 27  1  0  0  0
 24 23  1  0  0  0
 23 22  1  0  0  0
 22  1  1  0  0  0
  1  2  1  0  0  0
  1  3  1  0  0  0
  2  7  1  0  0  0
  3  4  1  0  0  0
  3  5  1  0  0  0
  5  6  1  0  0  0
  5  7  1  0  0  0
  7 10  1  0  0  0
 10 11  1  0  0  0
 10 19  1  0  0  0
 11 12  2  0  0  0
 12 13  1  0  0  0
 13 14  1  0  0  0
 13 19  2  0  0  0
 14 15  1  0  0  0
 14 16  2  0  0  0
 16 17  1  0  0  0
 17 18  2  0  0  0
 18 19  1  0  0  0
 26 28  1  0  0  0
 27 29  1  0  0  0
  4  8  1  0  0  0
  6  9  1  0  0  0
 15 20  1  0  0  0
 15 21  1  0  0  0
M  END
> <minimizedAffinity>
-9.35730

$$$$
1UA4_AMP_A_1456


 29 31  0  0  0  0  0  0  0  0999 V2000
   19.8570   16.8992    6.5443 C   0  0  0  0  0  0  0  0  0  0  0  0
   20.3262   15.4985    6.4952 O   0  0  0  0  0  0  0  0  0  0  0  0
   18.2383   16.8773    6.0268 C   0  0  0  0  0  0  0  0  0  0  0  0
   17.9710   18.0954    5.2018 O   0  0  0  0  0  0  0  0  0  0  0  0
   18.2060   15.4861    5.2438 C   0  0  0  0  0  0  0  0  0  0  0  0
   18.4942   15.6646    3.8726 O   0  0  0  0  0  0  0  0  0  0  0  0
   19.3973   14.6112    5.8645 C   0  0  0  0  0  0  0  0  0  0  0  0
   18.6208   18.1484    4.4836 H   0  0  0  0  0  0  0  0  0  0  0  0
   19.3686   16.0734    3.7766 H   0  0  0  0  0  0  0  0  0  0  0  0
   18.9188   13.5275    6.7605 N   0  0  0  0  0  0  0  0  0  0  0  0
   19.1756   13.2886    8.1208 C   0  0  0  0  0  0  0  0  0  0  0  0
   18.5773   12.2002    8.6696 N   0  0  0  0  0  0  0  0  0  0  0  0
   17.8880   11.7272    7.5440 C   0  0  0  0  0  0  0  0  0  0  0  0
   17.0316   10.5993    7.3725 C   0  0  0  0  0  0  0  0  0  0  0  0
   16.7774    9.7796    8.4539 N   0  0  0  0  0  0  0  0  0  0  0  0
   16.5051   10.4218    6.0869 N   0  0  0  0  0  0  0  0  0  0  0  0
   16.7751   11.2476    5.0523 C   0  0  0  0  0  0  0  0  0  0  0  0
   17.5693   12.3356    5.1248 N   0  0  0  0  0  0  0  0  0  0  0  0
   18.0892   12.5156    6.3812 C   0  0  0  0  0  0  0  0  0  0  0  0
   17.1885    9.9747    9.3269 H   0  0  0  0  0  0  0  0  0  0  0  0
   16.1849    8.9999    8.3520 H   0  0  0  0  0  0  0  0  0  0  0  0
   20.1028   17.6219    7.8815 C   0  0  0  0  0  0  0  0  0  0  0  0
   20.2692   19.0165    7.4651 O   0  0  0  0  0  0  0  0  0  0  0  0
   19.2747   20.1909    8.0608 P   0  0  0  0  0  0  0  0  0  0  0  0
   18.2135   20.2836    7.0630 O   0  0  0  0  0  0  0  0  0  0  0  0
   18.7748   19.7203    9.3775 O   0  0  0  0  0  0  0  0  0  0  0  0
   20.0486   21.4850    8.1894 O   0  0  0  0  0  0  0  0  0  0  0  0
   18.1846   20.3898    9.7573 H   0  0  0  0  0  0  0  0  0  0  0  0
   19.4658   22.1769    8.5394 H   0  0  0  0  0  0  0  0  0  0  0  0
 24 25  2  0  0  0
 24 26  1  0  0  0
 24 27  1  0  0  0
 24 23  1  0  0  0
 23 22  1  0  0  0
 22  1  1  0  0  0
  1  2  1  0  0  0
  1  3  1  0  0  0
  2  7  1  0  0  0
  3  4  1  0  0  0
  3  5  1  0  0  0
  5  6  1  0  0  0
  5  7  1  0  0  0
  7 10  1  0  0  0
 10 11  1  0  0  0
 10 19  1  0  0  0
 11 12  2  0  0  0
 12 13  1  0  0  0
 13 14  1  0  0  0
 13 19  2  0  0  0
 14 15  1  0  0  0
 14 16  2  0  0  0
 16 17  1  0  0  0
 17 18  2  0  0  0
 18 19  1  0  0  0
 26 28  1  0  0  0
 27 29  1  0  0  0
  4  8  1  0  0  0
  6  9  1  0  0  0
 15 20  1  0  0  0
 15 21  1  0  0  0
M  END
> <minimizedAffinity>
-9.33237

$$$$
