1HVR_XK2_A_263


 48 54  0  0  0  0  0  0  0  0999 V2000
   -8.5748   14.9495   27.8975 C   0  0  0  0  0  0  0  0  0  0  0  0
   -7.9083   13.9249   27.9147 O   0  0  0  0  0  0  0  0  0  0  0  0
   -8.3937   15.7979   26.8415 N   0  0  0  0  0  0  0  0  0  0  0  0
   -8.5543   17.2650   26.9243 C   0  0  0  0  0  0  0  0  0  0  0  0
   -9.9602   17.7979   27.1690 C   0  0  0  0  0  0  0  0  0  0  0  0
   -9.8452   19.1573   26.8539 O   0  0  0  0  0  0  0  0  0  0  0  0
  -10.4296   17.5540   28.5960 C   0  0  0  0  0  0  0  0  0  0  0  0
  -11.6641   18.1730   28.8439 O   0  0  0  0  0  0  0  0  0  0  0  0
  -10.6395   16.0652   28.8413 C   0  0  0  0  0  0  0  0  0  0  0  0
   -9.4497   15.2016   28.9226 N   0  0  0  0  0  0  0  0  0  0  0  0
   -9.1616   19.5616   27.4108 H   0  0  0  0  0  0  0  0  0  0  0  0
  -12.3379   17.7978   28.2555 H   0  0  0  0  0  0  0  0  0  0  0  0
   -7.7597   15.2069   25.6557 C   0  0  0  0  0  0  0  0  0  0  0  0
   -8.2352   15.5881   24.2775 C   0  0  0  0  0  0  0  0  0  0  0  0
   -9.6051   15.5250   23.8971 C   0  0  0  0  0  0  0  0  0  0  0  0
   -9.9750   15.7374   22.5532 C   0  0  0  0  0  0  0  0  0  0  0  0
   -8.9619   16.0211   21.6035 C   0  0  0  0  0  0  0  0  0  0  0  0
   -9.2921   16.1802   20.2447 C   0  0  0  0  0  0  0  0  0  0  0  0
   -8.2720   16.4351   19.2959 C   0  0  0  0  0  0  0  0  0  0  0  0
   -6.9282   16.5332   19.6745 C   0  0  0  0  0  0  0  0  0  0  0  0
   -6.5838   16.3677   21.0340 C   0  0  0  0  0  0  0  0  0  0  0  0
   -7.5905   16.1060   21.9993 C   0  0  0  0  0  0  0  0  0  0  0  0
   -7.2263   15.8915   23.3389 C   0  0  0  0  0  0  0  0  0  0  0  0
   -9.2946   14.4136   30.1483 C   0  0  0  0  0  0  0  0  0  0  0  0
   -9.2612   15.1125   31.4868 C   0  0  0  0  0  0  0  0  0  0  0  0
   -9.9150   14.4229   32.5248 C   0  0  0  0  0  0  0  0  0  0  0  0
   -9.8082   14.9035   33.8280 C   0  0  0  0  0  0  0  0  0  0  0  0
  -10.4922   14.2234   34.8730 C   0  0  0  0  0  0  0  0  0  0  0  0
  -10.4310   14.7325   36.1937 C   0  0  0  0  0  0  0  0  0  0  0  0
   -9.6718   15.9013   36.4490 C   0  0  0  0  0  0  0  0  0  0  0  0
   -8.9748   16.5768   35.4134 C   0  0  0  0  0  0  0  0  0  0  0  0
   -9.0426   16.0860   34.0868 C   0  0  0  0  0  0  0  0  0  0  0  0
   -8.3960   16.7816   33.0314 C   0  0  0  0  0  0  0  0  0  0  0  0
   -8.5155   16.2948   31.7273 C   0  0  0  0  0  0  0  0  0  0  0  0
   -7.4227   17.8545   27.8284 C   0  0  0  0  0  0  0  0  0  0  0  0
   -6.0566   17.7734   27.1551 C   0  0  0  0  0  0  0  0  0  0  0  0
   -5.0246   16.9746   27.7259 C   0  0  0  0  0  0  0  0  0  0  0  0
   -3.8000   16.7863   27.0355 C   0  0  0  0  0  0  0  0  0  0  0  0
   -3.6098   17.4141   25.7879 C   0  0  0  0  0  0  0  0  0  0  0  0
   -4.6229   18.2291   25.2233 C   0  0  0  0  0  0  0  0  0  0  0  0
   -5.8450   18.4064   25.9034 C   0  0  0  0  0  0  0  0  0  0  0  0
  -11.6758   15.3581   27.9392 C   0  0  0  0  0  0  0  0  0  0  0  0
  -12.5966   14.4673   28.7476 C   0  0  0  0  0  0  0  0  0  0  0  0
  -13.0716   13.2447   28.2033 C   0  0  0  0  0  0  0  0  0  0  0  0
  -13.9421   12.4391   28.9741 C   0  0  0  0  0  0  0  0  0  0  0  0
  -14.3232   12.8625   30.2792 C   0  0  0  0  0  0  0  0  0  0  0  0
  -13.8446   14.0725   30.8178 C   0  0  0  0  0  0  0  0  0  0  0  0
  -12.9794   14.8801   30.0454 C   0  0  0  0  0  0  0  0  0  0  0  0
  1  2  2  0  0  0
  1  3  1  0  0  0
  1 10  1  0  0  0
  3 13  1  0  0  0
  3  4  1  0  0  0
 13 14  1  0  0  0
  4  5  1  0  0  0
  4 35  1  0  0  0
  5  6  1  0  0  0
  5  7  1  0  0  0
  7  8  1  0  0  0
  7  9  1  0  0  0
  9 10  1  0  0  0
  9 42  1  0  0  0
 10 24  1  0  0  0
 24 25  1  0  0  0
 14 15  2  0  0  0
 14 23  1  0  0  0
 15 16  1  0  0  0
 16 17  2  0  0  0
 17 18  1  0  0  0
 17 22  1  0  0  0
 18 19  2  0  0  0
 19 20  1  0  0  0
 20 21  2  0  0  0
 21 22  1  0  0  0
 22 23  2  0  0  0
 35 36  1  0  0  0
 36 37  2  0  0  0
 36 41  1  0  0  0
 37 38  1  0  0  0
 38 39  2  0  0  0
 39 40  1  0  0  0
 40 41  2  0  0  0
 42 43  1  0  0  0
 43 44  2  0  0  0
 43 48  1  0  0  0
 44 45  1  0  0  0
 45 46  2  0  0  0
 46 47  1  0  0  0
 47 48  2  0  0  0
 25 26  2  0  0  0
 25 34  1  0  0  0
 26 27  1  0  0  0
 27 28  2  0  0  0
 27 32  1  0  0  0
 28 29  1  0  0  0
 29 30  2  0  0  0
 30 31  1  0  0  0
 31 32  2  0  0  0
 32 33  1  0  0  0
 33 34  2  0  0  0
  6 11  1  0  0  0
  8 12  1  0  0  0
M  END
> <minimizedAffinity>
-15.16270

$$$$
1HVR_XK2_A_263


 48 54  0  0  0  0  0  0  0  0999 V2000
   -8.5414   14.9303   27.9795 C   0  0  0  0  0  0  0  0  0  0  0  0
   -7.9777   13.8464   28.0183 O   0  0  0  0  0  0  0  0  0  0  0  0
   -9.3764   15.2406   29.0159 N   0  0  0  0  0  0  0  0  0  0  0  0
  -10.5736   16.0974   28.8834 C   0  0  0  0  0  0  0  0  0  0  0  0
  -10.3435   17.5700   28.5693 C   0  0  0  0  0  0  0  0  0  0  0  0
  -11.5855   18.1534   28.8479 O   0  0  0  0  0  0  0  0  0  0  0  0
   -9.8899   17.7899   27.1333 C   0  0  0  0  0  0  0  0  0  0  0  0
   -9.8191   19.1557   26.8200 O   0  0  0  0  0  0  0  0  0  0  0  0
   -8.4890   17.2288   26.9246 C   0  0  0  0  0  0  0  0  0  0  0  0
   -8.3228   15.7658   26.9146 N   0  0  0  0  0  0  0  0  0  0  0  0
  -12.2700   17.7309   28.3058 H   0  0  0  0  0  0  0  0  0  0  0  0
   -9.1650   19.5854   27.3930 H   0  0  0  0  0  0  0  0  0  0  0  0
   -9.1827   14.4556   30.2422 C   0  0  0  0  0  0  0  0  0  0  0  0
   -9.2187   15.1358   31.5864 C   0  0  0  0  0  0  0  0  0  0  0  0
   -8.5031   16.3364   31.8548 C   0  0  0  0  0  0  0  0  0  0  0  0
   -8.4412   16.8423   33.1694 C   0  0  0  0  0  0  0  0  0  0  0  0
   -9.1091   16.1392   34.2031 C   0  0  0  0  0  0  0  0  0  0  0  0
   -9.0177   16.5860   35.5345 C   0  0  0  0  0  0  0  0  0  0  0  0
   -9.6634   15.8632   36.5672 C   0  0  0  0  0  0  0  0  0  0  0  0
  -10.3976   14.7023   36.2992 C   0  0  0  0  0  0  0  0  0  0  0  0
  -10.4899   14.2398   34.9682 C   0  0  0  0  0  0  0  0  0  0  0  0
   -9.8455   14.9466   33.9199 C   0  0  0  0  0  0  0  0  0  0  0  0
   -9.9026   14.4450   32.6091 C   0  0  0  0  0  0  0  0  0  0  0  0
   -7.7046   15.1848   25.7197 C   0  0  0  0  0  0  0  0  0  0  0  0
   -8.2361   15.5456   24.3529 C   0  0  0  0  0  0  0  0  0  0  0  0
   -7.2450   15.8086   23.3890 C   0  0  0  0  0  0  0  0  0  0  0  0
   -7.6253   15.9968   22.0622 C   0  0  0  0  0  0  0  0  0  0  0  0
   -6.6272   16.2910   21.0928 C   0  0  0  0  0  0  0  0  0  0  0  0
   -7.0088   16.5333   19.7500 C   0  0  0  0  0  0  0  0  0  0  0  0
   -8.3790   16.4586   19.3970 C   0  0  0  0  0  0  0  0  0  0  0  0
   -9.3788   16.1511   20.3563 C   0  0  0  0  0  0  0  0  0  0  0  0
   -9.0104   15.9233   21.7046 C   0  0  0  0  0  0  0  0  0  0  0  0
  -10.0043   15.6688   22.6860 C   0  0  0  0  0  0  0  0  0  0  0  0
   -9.6124   15.4887   24.0149 C   0  0  0  0  0  0  0  0  0  0  0  0
  -11.6376   15.3598   28.0061 C   0  0  0  0  0  0  0  0  0  0  0  0
  -12.5316   14.4497   28.8418 C   0  0  0  0  0  0  0  0  0  0  0  0
  -12.9348   14.8478   30.1487 C   0  0  0  0  0  0  0  0  0  0  0  0
  -13.8734   14.0720   30.8760 C   0  0  0  0  0  0  0  0  0  0  0  0
  -14.3871   12.8935   30.2980 C   0  0  0  0  0  0  0  0  0  0  0  0
  -13.9740   12.4780   29.0072 C   0  0  0  0  0  0  0  0  0  0  0  0
  -13.0506   13.2555   28.2789 C   0  0  0  0  0  0  0  0  0  0  0  0
   -7.3698   17.8256   27.8071 C   0  0  0  0  0  0  0  0  0  0  0  0
   -6.0192   17.7291   27.1279 C   0  0  0  0  0  0  0  0  0  0  0  0
   -5.7755   18.4248   25.9140 C   0  0  0  0  0  0  0  0  0  0  0  0
   -4.5101   18.3055   25.2933 C   0  0  0  0  0  0  0  0  0  0  0  0
   -3.5037   17.4970   25.8945 C   0  0  0  0  0  0  0  0  0  0  0  0
   -3.7473   16.8140   27.1017 C   0  0  0  0  0  0  0  0  0  0  0  0
   -5.0135   16.9288   27.7190 C   0  0  0  0  0  0  0  0  0  0  0  0
  1  2  2  0  0  0
  1  3  1  0  0  0
  1 10  1  0  0  0
  3 13  1  0  0  0
  3  4  1  0  0  0
 13 14  1  0  0  0
  4  5  1  0  0  0
  4 35  1  0  0  0
  5  6  1  0  0  0
  5  7  1  0  0  0
  7  8  1  0  0  0
  7  9  1  0  0  0
  9 10  1  0  0  0
  9 42  1  0  0  0
 10 24  1  0  0  0
 24 25  1  0  0  0
 14 15  2  0  0  0
 14 23  1  0  0  0
 15 16  1  0  0  0
 16 17  2  0  0  0
 17 18  1  0  0  0
 17 22  1  0  0  0
 18 19  2  0  0  0
 19 20  1  0  0  0
 20 21  2  0  0  0
 21 22  1  0  0  0
 22 23  2  0  0  0
 35 36  1  0  0  0
 36 37  2  0  0  0
 36 41  1  0  0  0
 37 38  1  0  0  0
 38 39  2  0  0  0
 39 40  1  0  0  0
 40 41  2  0  0  0
 42 43  1  0  0  0
 43 44  2  0  0  0
 43 48  1  0  0  0
 44 45  1  0  0  0
 45 46  2  0  0  0
 46 47  1  0  0  0
 47 48  2  0  0  0
 25 26  2  0  0  0
 25 34  1  0  0  0
 26 27  1  0  0  0
 27 28  2  0  0  0
 27 32  1  0  0  0
 28 29  1  0  0  0
 29 30  2  0  0  0
 30 31  1  0  0  0
 31 32  2  0  0  0
 32 33  1  0  0  0
 33 34  2  0  0  0
  6 11  1  0  0  0
  8 12  1  0  0  0
M  END
> <minimizedAffinity>
-15.06293

$$$$
