2E2P_ADP_A_600


 34 36  0  0  0  0  0  0  0  0999 V2000
    5.5979   -9.1807   25.3977 C   0  0  0  0  0  0  0  0  0  0  0  0
    6.3852   -9.5082   24.2300 O   0  0  0  0  0  0  0  0  0  0  0  0
    4.3602  -10.1108   25.3327 C   0  0  0  0  0  0  0  0  0  0  0  0
    3.2460   -9.3074   24.9057 O   0  0  0  0  0  0  0  0  0  0  0  0
    4.7615  -11.2245   24.3570 C   0  0  0  0  0  0  0  0  0  0  0  0
    3.7126  -11.6303   23.4578 O   0  0  0  0  0  0  0  0  0  0  0  0
    5.9164  -10.6563   23.5485 C   0  0  0  0  0  0  0  0  0  0  0  0
    3.4629   -8.8743   24.0654 H   0  0  0  0  0  0  0  0  0  0  0  0
    3.4398  -10.8731   22.9166 H   0  0  0  0  0  0  0  0  0  0  0  0
    7.0043  -11.6680   23.3100 N   0  0  0  0  0  0  0  0  0  0  0  0
    7.8910  -12.1971   24.1918 C   0  0  0  0  0  0  0  0  0  0  0  0
    8.7257  -13.0860   23.6161 N   0  0  0  0  0  0  0  0  0  0  0  0
    8.3307  -13.1102   22.3138 C   0  0  0  0  0  0  0  0  0  0  0  0
    8.8244  -13.8548   21.1646 C   0  0  0  0  0  0  0  0  0  0  0  0
    9.7922  -14.7108   21.1658 N   0  0  0  0  0  0  0  0  0  0  0  0
    8.1405  -13.5893   19.9848 N   0  0  0  0  0  0  0  0  0  0  0  0
    7.0847  -12.6866   19.8911 C   0  0  0  0  0  0  0  0  0  0  0  0
    6.6244  -11.9954   20.9377 N   0  0  0  0  0  0  0  0  0  0  0  0
    7.2729  -12.2295   22.1072 C   0  0  0  0  0  0  0  0  0  0  0  0
   10.2794  -14.9018   21.9997 H   0  0  0  0  0  0  0  0  0  0  0  0
   10.0424  -15.1721   20.3328 H   0  0  0  0  0  0  0  0  0  0  0  0
    6.4486   -9.2172   26.6587 C   0  0  0  0  0  0  0  0  0  0  0  0
    5.7889   -9.9441   27.7452 O   0  0  0  0  0  0  0  0  0  0  0  0
    4.9901   -9.1633   28.8758 P   0  0  0  0  0  0  0  0  0  0  0  0
    5.1659   -7.7124   28.4825 O   0  0  0  0  0  0  0  0  0  0  0  0
    5.4072   -9.5032   30.2854 O   0  0  0  0  0  0  0  0  0  0  0  0
    4.8761   -8.9882   30.9128 H   0  0  0  0  0  0  0  0  0  0  0  0
    3.4938   -9.5850   28.6435 O   0  0  0  0  0  0  0  0  0  0  0  0
    2.1225   -8.7460   28.6674 P   0  0  0  0  0  0  0  0  0  0  0  0
    1.8116   -8.4562   27.2447 O   0  0  0  0  0  0  0  0  0  0  0  0
    2.4135   -7.5189   29.4800 O   0  0  0  0  0  0  0  0  0  0  0  0
    1.0222   -9.6569   29.3313 O   0  0  0  0  0  0  0  0  0  0  0  0
    1.6166   -6.9682   29.5307 H   0  0  0  0  0  0  0  0  0  0  0  0
    0.1797   -9.1771   29.3605 H   0  0  0  0  0  0  0  0  0  0  0  0
 29 30  2  0  0  0
 29 31  1  0  0  0
 29 32  1  0  0  0
 29 28  1  0  0  0
 24 25  2  0  0  0
 24 26  1  0  0  0
 24 28  1  0  0  0
 24 23  1  0  0  0
 23 22  1  0  0  0
 22  1  1  0  0  0
  1  2  1  0  0  0
  1  3  1  0  0  0
  2  7  1  0  0  0
  3  4  1  0  0  0
  3  5  1  0  0  0
  5  6  1  0  0  0
  5  7  1  0  0  0
  7 10  1  0  0  0
 10 11  1  0  0  0
 10 19  1  0  0  0
 11 12  2  0  0  0
 12 13  1  0  0  0
 13 14  1  0  0  0
 13 19  2  0  0  0
 14 15  1  0  0  0
 14 16  2  0  0  0
 16 17  1  0  0  0
 17 18  2  0  0  0
 18 19  1  0  0  0
 31 33  1  0  0  0
 32 34  1  0  0  0
 26 27  1  0  0  0
  4  8  1  0  0  0
  6  9  1  0  0  0
 15 20  1  0  0  0
 15 21  1  0  0  0
M  END
> <minimizedAffinity>
-7.81953

$$$$
2E2P_ADP_A_600


 34 36  0  0  0  0  0  0  0  0999 V2000
    6.0798   -8.5591   25.5150 C   0  0  0  0  0  0  0  0  0  0  0  0
    6.6676   -9.0414   24.2851 O   0  0  0  0  0  0  0  0  0  0  0  0
    4.7826   -9.3858   25.7022 C   0  0  0  0  0  0  0  0  0  0  0  0
    3.6788   -8.5289   25.3605 O   0  0  0  0  0  0  0  0  0  0  0  0
    4.9607  -10.6021   24.7844 C   0  0  0  0  0  0  0  0  0  0  0  0
    3.7684  -10.9890   24.0760 O   0  0  0  0  0  0  0  0  0  0  0  0
    6.0262  -10.1967   23.7789 C   0  0  0  0  0  0  0  0  0  0  0  0
    3.8041   -8.1826   24.4631 H   0  0  0  0  0  0  0  0  0  0  0  0
    3.4757  -10.2566   23.5114 H   0  0  0  0  0  0  0  0  0  0  0  0
    6.9944  -11.3106   23.4862 N   0  0  0  0  0  0  0  0  0  0  0  0
    7.8402  -11.9552   24.3307 C   0  0  0  0  0  0  0  0  0  0  0  0
    8.5619  -12.9107   23.7107 N   0  0  0  0  0  0  0  0  0  0  0  0
    8.1362  -12.8563   22.4189 C   0  0  0  0  0  0  0  0  0  0  0  0
    8.5209  -13.6161   21.2385 C   0  0  0  0  0  0  0  0  0  0  0  0
    9.3919  -14.5694   21.1925 N   0  0  0  0  0  0  0  0  0  0  0  0
    7.8417  -13.2467   20.0843 N   0  0  0  0  0  0  0  0  0  0  0  0
    6.8860  -12.2351   20.0414 C   0  0  0  0  0  0  0  0  0  0  0  0
    6.5265  -11.5290   21.1171 N   0  0  0  0  0  0  0  0  0  0  0  0
    7.1736  -11.8632   22.2628 C   0  0  0  0  0  0  0  0  0  0  0  0
    9.8754  -14.8343   22.0082 H   0  0  0  0  0  0  0  0  0  0  0  0
    9.5721  -15.0309   20.3417 H   0  0  0  0  0  0  0  0  0  0  0  0
    7.0967   -8.5668   26.6469 C   0  0  0  0  0  0  0  0  0  0  0  0
    7.6475   -7.2337   26.8991 O   0  0  0  0  0  0  0  0  0  0  0  0
    8.6939   -6.9969   28.0717 P   0  0  0  0  0  0  0  0  0  0  0  0
    9.7769   -6.1751   27.4067 O   0  0  0  0  0  0  0  0  0  0  0  0
    9.1684   -8.2575   28.7515 O   0  0  0  0  0  0  0  0  0  0  0  0
    9.8006   -8.0294   29.4509 H   0  0  0  0  0  0  0  0  0  0  0  0
    7.9164   -6.0952   29.0979 O   0  0  0  0  0  0  0  0  0  0  0  0
    6.4436   -5.4510   29.0655 P   0  0  0  0  0  0  0  0  0  0  0  0
    6.3723   -4.5676   30.2569 O   0  0  0  0  0  0  0  0  0  0  0  0
    5.4938   -6.6110   29.1210 O   0  0  0  0  0  0  0  0  0  0  0  0
    6.3139   -4.6344   27.7248 O   0  0  0  0  0  0  0  0  0  0  0  0
    4.5812   -6.2827   29.1043 H   0  0  0  0  0  0  0  0  0  0  0  0
    5.4327   -4.2319   27.6754 H   0  0  0  0  0  0  0  0  0  0  0  0
 29 30  2  0  0  0
 29 31  1  0  0  0
 29 32  1  0  0  0
 29 28  1  0  0  0
 24 25  2  0  0  0
 24 26  1  0  0  0
 24 28  1  0  0  0
 24 23  1  0  0  0
 23 22  1  0  0  0
 22  1  1  0  0  0
  1  2  1  0  0  0
  1  3  1  0  0  0
  2  7  1  0  0  0
  3  4  1  0  0  0
  3  5  1  0  0  0
  5  6  1  0  0  0
  5  7  1  0  0  0
  7 10  1  0  0  0
 10 11  1  0  0  0
 10 19  1  0  0  0
 11 12  2  0  0  0
 12 13  1  0  0  0
 13 14  1  0  0  0
 13 19  2  0  0  0
 14 15  1  0  0  0
 14 16  2  0  0  0
 16 17  1  0  0  0
 17 18  2  0  0  0
 18 19  1  0  0  0
 31 33  1  0  0  0
 32 34  1  0  0  0
 26 27  1  0  0  0
  4  8  1  0  0  0
  6  9  1  0  0  0
 15 20  1  0  0  0
 15 21  1  0  0  0
M  END
> <minimizedAffinity>
-7.77584

$$$$
2E2P_ADP_A_600


 34 36  0  0  0  0  0  0  0  0999 V2000
    6.3582   -9.9110   24.4892 C   0  0  0  0  0  0  0  0  0  0  0  0
    5.6430  -10.5004   25.5990 O   0  0  0  0  0  0  0  0  0  0  0  0
    5.6282  -10.4120   23.2174 C   0  0  0  0  0  0  0  0  0  0  0  0
    6.4524  -11.4331   22.6280 O   0  0  0  0  0  0  0  0  0  0  0  0
    4.2624  -10.8979   23.7191 C   0  0  0  0  0  0  0  0  0  0  0  0
    3.8016  -12.1129   23.0987 O   0  0  0  0  0  0  0  0  0  0  0  0
    4.4416  -11.1384   25.2092 C   0  0  0  0  0  0  0  0  0  0  0  0
    6.6288  -12.1252   23.2844 H   0  0  0  0  0  0  0  0  0  0  0  0
    4.4327  -12.8272   23.2785 H   0  0  0  0  0  0  0  0  0  0  0  0
    3.2571  -10.6751   26.0132 N   0  0  0  0  0  0  0  0  0  0  0  0
    2.5648   -9.5102   25.9260 C   0  0  0  0  0  0  0  0  0  0  0  0
    1.5516   -9.4426   26.8133 N   0  0  0  0  0  0  0  0  0  0  0  0
    1.6193  -10.6282   27.4786 C   0  0  0  0  0  0  0  0  0  0  0  0
    0.8182  -11.1793   28.5617 C   0  0  0  0  0  0  0  0  0  0  0  0
   -0.1958  -10.6130   29.1281 N   0  0  0  0  0  0  0  0  0  0  0  0
    1.2201  -12.4439   28.9731 N   0  0  0  0  0  0  0  0  0  0  0  0
    2.2970  -13.1300   28.4182 C   0  0  0  0  0  0  0  0  0  0  0  0
    3.0415  -12.6338   27.4260 N   0  0  0  0  0  0  0  0  0  0  0  0
    2.6769  -11.3970   27.0013 C   0  0  0  0  0  0  0  0  0  0  0  0
   -0.4838   -9.7169   28.8395 H   0  0  0  0  0  0  0  0  0  0  0  0
   -0.6803  -11.0777   29.8482 H   0  0  0  0  0  0  0  0  0  0  0  0
    6.5128   -8.4086   24.6742 C   0  0  0  0  0  0  0  0  0  0  0  0
    5.9012   -7.9431   25.9206 O   0  0  0  0  0  0  0  0  0  0  0  0
    6.8042   -7.4951   27.1493 P   0  0  0  0  0  0  0  0  0  0  0  0
    6.0906   -6.2670   27.6718 O   0  0  0  0  0  0  0  0  0  0  0  0
    8.2626   -7.2991   26.8160 O   0  0  0  0  0  0  0  0  0  0  0  0
    8.7430   -7.0280   27.6139 H   0  0  0  0  0  0  0  0  0  0  0  0
    6.6442   -8.6666   28.1851 O   0  0  0  0  0  0  0  0  0  0  0  0
    5.3850   -9.1824   29.0414 P   0  0  0  0  0  0  0  0  0  0  0  0
    5.7215   -8.8858   30.4569 O   0  0  0  0  0  0  0  0  0  0  0  0
    5.2692  -10.6489   28.7468 O   0  0  0  0  0  0  0  0  0  0  0  0
    4.1221   -8.3733   28.5599 O   0  0  0  0  0  0  0  0  0  0  0  0
    4.5202  -11.0195   29.2394 H   0  0  0  0  0  0  0  0  0  0  0  0
    3.3429   -8.6627   29.0598 H   0  0  0  0  0  0  0  0  0  0  0  0
 29 30  2  0  0  0
 29 31  1  0  0  0
 29 32  1  0  0  0
 29 28  1  0  0  0
 24 25  2  0  0  0
 24 26  1  0  0  0
 24 28  1  0  0  0
 24 23  1  0  0  0
 23 22  1  0  0  0
 22  1  1  0  0  0
  1  2  1  0  0  0
  1  3  1  0  0  0
  2  7  1  0  0  0
  3  4  1  0  0  0
  3  5  1  0  0  0
  5  6  1  0  0  0
  5  7  1  0  0  0
  7 10  1  0  0  0
 10 11  1  0  0  0
 10 19  1  0  0  0
 11 12  2  0  0  0
 12 13  1  0  0  0
 13 14  1  0  0  0
 13 19  2  0  0  0
 14 15  1  0  0  0
 14 16  2  0  0  0
 16 17  1  0  0  0
 17 18  2  0  0  0
 18 19  1  0  0  0
 31 33  1  0  0  0
 32 34  1  0  0  0
 26 27  1  0  0  0
  4  8  1  0  0  0
  6  9  1  0  0  0
 15 20  1  0  0  0
 15 21  1  0  0  0
M  END
> <minimizedAffinity>
-7.58999

$$$$
2E2P_ADP_A_600


 34 36  0  0  0  0  0  0  0  0999 V2000
    5.9059   -8.4818   25.2144 C   0  0  0  0  0  0  0  0  0  0  0  0
    6.4134   -9.0616   23.9908 O   0  0  0  0  0  0  0  0  0  0  0  0
    4.7141   -9.3800   25.6313 C   0  0  0  0  0  0  0  0  0  0  0  0
    3.5086   -8.6614   25.3154 O   0  0  0  0  0  0  0  0  0  0  0  0
    4.9129  -10.6807   24.8426 C   0  0  0  0  0  0  0  0  0  0  0  0
    3.6978  -11.2443   24.3139 O   0  0  0  0  0  0  0  0  0  0  0  0
    5.8342  -10.3171   23.6896 C   0  0  0  0  0  0  0  0  0  0  0  0
    3.5141   -8.4177   24.3765 H   0  0  0  0  0  0  0  0  0  0  0  0
    3.2861  -10.6114   23.7050 H   0  0  0  0  0  0  0  0  0  0  0  0
    6.8672  -11.3779   23.4222 N   0  0  0  0  0  0  0  0  0  0  0  0
    7.7268  -11.9747   24.2876 C   0  0  0  0  0  0  0  0  0  0  0  0
    8.5128  -12.8912   23.6870 N   0  0  0  0  0  0  0  0  0  0  0  0
    8.1146  -12.8617   22.3857 C   0  0  0  0  0  0  0  0  0  0  0  0
    8.5665  -13.6017   21.2166 C   0  0  0  0  0  0  0  0  0  0  0  0
    9.4883  -14.5069   21.1932 N   0  0  0  0  0  0  0  0  0  0  0  0
    7.8952  -13.2711   20.0461 N   0  0  0  0  0  0  0  0  0  0  0  0
    6.8879  -12.3124   19.9785 C   0  0  0  0  0  0  0  0  0  0  0  0
    6.4663  -11.6248   21.0437 N   0  0  0  0  0  0  0  0  0  0  0  0
    7.1039  -11.9220   22.2048 C   0  0  0  0  0  0  0  0  0  0  0  0
    9.9663  -14.7441   22.0204 H   0  0  0  0  0  0  0  0  0  0  0  0
    9.7124  -14.9594   20.3480 H   0  0  0  0  0  0  0  0  0  0  0  0
    7.0243   -8.2712   26.2246 C   0  0  0  0  0  0  0  0  0  0  0  0
    6.5133   -7.8400   27.5273 O   0  0  0  0  0  0  0  0  0  0  0  0
    7.0253   -6.4908   28.1932 P   0  0  0  0  0  0  0  0  0  0  0  0
    6.8170   -6.7356   29.6721 O   0  0  0  0  0  0  0  0  0  0  0  0
    6.3791   -5.2401   27.6504 O   0  0  0  0  0  0  0  0  0  0  0  0
    6.7431   -4.4646   28.1054 H   0  0  0  0  0  0  0  0  0  0  0  0
    8.5662   -6.4753   27.8831 O   0  0  0  0  0  0  0  0  0  0  0  0
    9.8347   -7.0304   28.7003 P   0  0  0  0  0  0  0  0  0  0  0  0
   10.5337   -5.8244   29.2121 O   0  0  0  0  0  0  0  0  0  0  0  0
   10.6416   -7.8163   27.7093 O   0  0  0  0  0  0  0  0  0  0  0  0
    9.2862   -7.9284   29.8725 O   0  0  0  0  0  0  0  0  0  0  0  0
   11.4271   -8.1795   28.1475 H   0  0  0  0  0  0  0  0  0  0  0  0
   10.0303   -8.2796   30.3862 H   0  0  0  0  0  0  0  0  0  0  0  0
 29 30  2  0  0  0
 29 31  1  0  0  0
 29 32  1  0  0  0
 29 28  1  0  0  0
 24 25  2  0  0  0
 24 26  1  0  0  0
 24 28  1  0  0  0
 24 23  1  0  0  0
 23 22  1  0  0  0
 22  1  1  0  0  0
  1  2  1  0  0  0
  1  3  1  0  0  0
  2  7  1  0  0  0
  3  4  1  0  0  0
  3  5  1  0  0  0
  5  6  1  0  0  0
  5  7  1  0  0  0
  7 10  1  0  0  0
 10 11  1  0  0  0
 10 19  1  0  0  0
 11 12  2  0  0  0
 12 13  1  0  0  0
 13 14  1  0  0  0
 13 19  2  0  0  0
 14 15  1  0  0  0
 14 16  2  0  0  0
 16 17  1  0  0  0
 17 18  2  0  0  0
 18 19  1  0  0  0
 31 33  1  0  0  0
 32 34  1  0  0  0
 26 27  1  0  0  0
  4  8  1  0  0  0
  6  9  1  0  0  0
 15 20  1  0  0  0
 15 21  1  0  0  0
M  END
> <minimizedAffinity>
-7.56394

$$$$
2E2P_ADP_A_600


 34 36  0  0  0  0  0  0  0  0999 V2000
    5.4725  -10.0064   26.3743 C   0  0  0  0  0  0  0  0  0  0  0  0
    6.5133   -9.9703   25.3713 O   0  0  0  0  0  0  0  0  0  0  0  0
    4.2109  -10.5246   25.6388 C   0  0  0  0  0  0  0  0  0  0  0  0
    3.3485   -9.3934   25.4244 O   0  0  0  0  0  0  0  0  0  0  0  0
    4.7476  -11.1760   24.3578 C   0  0  0  0  0  0  0  0  0  0  0  0
    3.9519  -10.9205   23.1853 O   0  0  0  0  0  0  0  0  0  0  0  0
    6.1339  -10.5863   24.1552 C   0  0  0  0  0  0  0  0  0  0  0  0
    3.8333   -8.7034   24.9453 H   0  0  0  0  0  0  0  0  0  0  0  0
    3.9200   -9.9656   23.0179 H   0  0  0  0  0  0  0  0  0  0  0  0
    7.1334  -11.6119   23.6934 N   0  0  0  0  0  0  0  0  0  0  0  0
    8.0625  -12.2892   24.4159 C   0  0  0  0  0  0  0  0  0  0  0  0
    8.7873  -13.1387   23.6601 N   0  0  0  0  0  0  0  0  0  0  0  0
    8.2762  -12.9810   22.4084 C   0  0  0  0  0  0  0  0  0  0  0  0
    8.6192  -13.5993   21.1361 C   0  0  0  0  0  0  0  0  0  0  0  0
    9.5302  -14.4947   20.9415 N   0  0  0  0  0  0  0  0  0  0  0  0
    7.8493  -13.1559   20.0681 N   0  0  0  0  0  0  0  0  0  0  0  0
    6.8453  -12.1985   20.1855 C   0  0  0  0  0  0  0  0  0  0  0  0
    6.5231  -11.6219   21.3468 N   0  0  0  0  0  0  0  0  0  0  0  0
    7.2588  -12.0311   22.4118 C   0  0  0  0  0  0  0  0  0  0  0  0
   10.0780  -14.8117   21.6956 H   0  0  0  0  0  0  0  0  0  0  0  0
    9.6766  -14.8600   20.0390 H   0  0  0  0  0  0  0  0  0  0  0  0
    5.9328  -10.7608   27.6130 C   0  0  0  0  0  0  0  0  0  0  0  0
    5.6319  -10.0288   28.8450 O   0  0  0  0  0  0  0  0  0  0  0  0
    6.7003   -9.0398   29.4824 P   0  0  0  0  0  0  0  0  0  0  0  0
    8.0164   -9.5650   28.9509 O   0  0  0  0  0  0  0  0  0  0  0  0
    6.6175   -8.9115   30.9835 O   0  0  0  0  0  0  0  0  0  0  0  0
    7.2983   -8.2940   31.2932 H   0  0  0  0  0  0  0  0  0  0  0  0
    6.3854   -7.6551   28.8084 O   0  0  0  0  0  0  0  0  0  0  0  0
    7.2878   -6.6544   27.9313 P   0  0  0  0  0  0  0  0  0  0  0  0
    8.3850   -6.2193   28.8322 O   0  0  0  0  0  0  0  0  0  0  0  0
    6.3718   -5.5397   27.5197 O   0  0  0  0  0  0  0  0  0  0  0  0
    7.8334   -7.4677   26.6976 O   0  0  0  0  0  0  0  0  0  0  0  0
    6.8636   -4.8986   26.9832 H   0  0  0  0  0  0  0  0  0  0  0  0
    8.3838   -6.8892   26.1468 H   0  0  0  0  0  0  0  0  0  0  0  0
 29 30  2  0  0  0
 29 31  1  0  0  0
 29 32  1  0  0  0
 29 28  1  0  0  0
 24 25  2  0  0  0
 24 26  1  0  0  0
 24 28  1  0  0  0
 24 23  1  0  0  0
 23 22  1  0  0  0
 22  1  1  0  0  0
  1  2  1  0  0  0
  1  3  1  0  0  0
  2  7  1  0  0  0
  3  4  1  0  0  0
  3  5  1  0  0  0
  5  6  1  0  0  0
  5  7  1  0  0  0
  7 10  1  0  0  0
 10 11  1  0  0  0
 10 19  1  0  0  0
 11 12  2  0  0  0
 12 13  1  0  0  0
 13 14  1  0  0  0
 13 19  2  0  0  0
 14 15  1  0  0  0
 14 16  2  0  0  0
 16 17  1  0  0  0
 17 18  2  0  0  0
 18 19  1  0  0  0
 31 33  1  0  0  0
 32 34  1  0  0  0
 26 27  1  0  0  0
  4  8  1  0  0  0
  6  9  1  0  0  0
 15 20  1  0  0  0
 15 21  1  0  0  0
M  END
> <minimizedAffinity>
-7.29223

$$$$
2E2P_ADP_A_600


 34 36  0  0  0  0  0  0  0  0999 V2000
    6.3575  -10.1088   24.1545 C   0  0  0  0  0  0  0  0  0  0  0  0
    5.7073  -10.6568   25.3240 O   0  0  0  0  0  0  0  0  0  0  0  0
    5.4853  -10.5530   22.9533 C   0  0  0  0  0  0  0  0  0  0  0  0
    6.1843  -11.6223   22.2921 O   0  0  0  0  0  0  0  0  0  0  0  0
    4.1407  -10.9514   23.5753 C   0  0  0  0  0  0  0  0  0  0  0  0
    3.5474  -12.1297   22.9985 O   0  0  0  0  0  0  0  0  0  0  0  0
    4.4364  -11.2122   25.0433 C   0  0  0  0  0  0  0  0  0  0  0  0
    6.3728  -12.3284   22.9298 H   0  0  0  0  0  0  0  0  0  0  0  0
    4.1436  -12.8850   23.1208 H   0  0  0  0  0  0  0  0  0  0  0  0
    3.3617  -10.6773   25.9505 N   0  0  0  0  0  0  0  0  0  0  0  0
    2.7454   -9.4675   25.9285 C   0  0  0  0  0  0  0  0  0  0  0  0
    1.8213   -9.3397   26.9022 N   0  0  0  0  0  0  0  0  0  0  0  0
    1.8664  -10.5332   27.5552 C   0  0  0  0  0  0  0  0  0  0  0  0
    1.1281  -11.0386   28.7032 C   0  0  0  0  0  0  0  0  0  0  0  0
    0.2090  -10.4103   29.3589 N   0  0  0  0  0  0  0  0  0  0  0  0
    1.4776  -12.3312   29.0735 N   0  0  0  0  0  0  0  0  0  0  0  0
    2.4522  -13.0835   28.4234 C   0  0  0  0  0  0  0  0  0  0  0  0
    3.1384  -12.6298   27.3707 N   0  0  0  0  0  0  0  0  0  0  0  0
    2.8230  -11.3673   26.9837 C   0  0  0  0  0  0  0  0  0  0  0  0
   -0.0417   -9.4942   29.0997 H   0  0  0  0  0  0  0  0  0  0  0  0
   -0.2408  -10.8477   30.1177 H   0  0  0  0  0  0  0  0  0  0  0  0
    6.6266   -8.6209   24.3253 C   0  0  0  0  0  0  0  0  0  0  0  0
    5.8506   -8.0454   25.4257 O   0  0  0  0  0  0  0  0  0  0  0  0
    6.4767   -7.9201   26.8811 P   0  0  0  0  0  0  0  0  0  0  0  0
    7.9550   -8.1377   26.6404 O   0  0  0  0  0  0  0  0  0  0  0  0
    5.8519   -8.8279   27.9117 O   0  0  0  0  0  0  0  0  0  0  0  0
    6.2868   -8.6922   28.7681 H   0  0  0  0  0  0  0  0  0  0  0  0
    6.2316   -6.4175   27.2719 O   0  0  0  0  0  0  0  0  0  0  0  0
    6.6701   -5.5531   28.5546 P   0  0  0  0  0  0  0  0  0  0  0  0
    7.3707   -4.3631   28.0086 O   0  0  0  0  0  0  0  0  0  0  0  0
    7.5571   -6.4524   29.3641 O   0  0  0  0  0  0  0  0  0  0  0  0
    5.3569   -5.1536   29.3274 O   0  0  0  0  0  0  0  0  0  0  0  0
    7.8560   -5.9823   30.1582 H   0  0  0  0  0  0  0  0  0  0  0  0
    5.5890   -4.6292   30.1097 H   0  0  0  0  0  0  0  0  0  0  0  0
 29 30  2  0  0  0
 29 31  1  0  0  0
 29 32  1  0  0  0
 29 28  1  0  0  0
 24 25  2  0  0  0
 24 26  1  0  0  0
 24 28  1  0  0  0
 24 23  1  0  0  0
 23 22  1  0  0  0
 22  1  1  0  0  0
  1  2  1  0  0  0
  1  3  1  0  0  0
  2  7  1  0  0  0
  3  4  1  0  0  0
  3  5  1  0  0  0
  5  6  1  0  0  0
  5  7  1  0  0  0
  7 10  1  0  0  0
 10 11  1  0  0  0
 10 19  1  0  0  0
 11 12  2  0  0  0
 12 13  1  0  0  0
 13 14  1  0  0  0
 13 19  2  0  0  0
 14 15  1  0  0  0
 14 16  2  0  0  0
 16 17  1  0  0  0
 17 18  2  0  0  0
 18 19  1  0  0  0
 31 33  1  0  0  0
 32 34  1  0  0  0
 26 27  1  0  0  0
  4  8  1  0  0  0
  6  9  1  0  0  0
 15 20  1  0  0  0
 15 21  1  0  0  0
M  END
> <minimizedAffinity>
-7.19533

$$$$
2E2P_ADP_A_600


 34 36  0  0  0  0  0  0  0  0999 V2000
    5.2703   -9.9974   26.1351 C   0  0  0  0  0  0  0  0  0  0  0  0
    6.3471   -9.9704   25.1705 O   0  0  0  0  0  0  0  0  0  0  0  0
    4.0512  -10.5767   25.3740 C   0  0  0  0  0  0  0  0  0  0  0  0
    3.1687   -9.4781   25.0849 O   0  0  0  0  0  0  0  0  0  0  0  0
    4.6527  -11.2606   24.1395 C   0  0  0  0  0  0  0  0  0  0  0  0
    3.8955  -11.0707   22.9295 O   0  0  0  0  0  0  0  0  0  0  0  0
    6.0299  -10.6414   23.9657 C   0  0  0  0  0  0  0  0  0  0  0  0
    3.6534   -8.7935   24.5979 H   0  0  0  0  0  0  0  0  0  0  0  0
    3.8455  -10.1239   22.7247 H   0  0  0  0  0  0  0  0  0  0  0  0
    7.0723  -11.6560   23.5807 N   0  0  0  0  0  0  0  0  0  0  0  0
    7.9890  -12.2821   24.3627 C   0  0  0  0  0  0  0  0  0  0  0  0
    8.7641  -13.1386   23.6670 N   0  0  0  0  0  0  0  0  0  0  0  0
    8.2987  -13.0394   22.3917 C   0  0  0  0  0  0  0  0  0  0  0  0
    8.7069  -13.6935   21.1571 C   0  0  0  0  0  0  0  0  0  0  0  0
    9.6471  -14.5709   21.0307 N   0  0  0  0  0  0  0  0  0  0  0  0
    7.9686  -13.3092   20.0448 N   0  0  0  0  0  0  0  0  0  0  0  0
    6.9370  -12.3752   20.0883 C   0  0  0  0  0  0  0  0  0  0  0  0
    6.5551  -11.7661   21.2143 N   0  0  0  0  0  0  0  0  0  0  0  0
    7.2585  -12.1174   22.3211 C   0  0  0  0  0  0  0  0  0  0  0  0
   10.1726  -14.8459   21.8164 H   0  0  0  0  0  0  0  0  0  0  0  0
    9.8379  -14.9642   20.1486 H   0  0  0  0  0  0  0  0  0  0  0  0
    5.7026  -10.6923   27.4180 C   0  0  0  0  0  0  0  0  0  0  0  0
    5.3103  -12.1029   27.4373 O   0  0  0  0  0  0  0  0  0  0  0  0
    4.5399  -12.7136   28.6861 P   0  0  0  0  0  0  0  0  0  0  0  0
    3.5270  -13.6392   28.0474 O   0  0  0  0  0  0  0  0  0  0  0  0
    3.9672  -11.6869   29.6317 O   0  0  0  0  0  0  0  0  0  0  0  0
    3.5156  -12.1369   30.3627 H   0  0  0  0  0  0  0  0  0  0  0  0
    5.6317  -13.5709   29.4235 O   0  0  0  0  0  0  0  0  0  0  0  0
    6.9835  -13.1625   30.1922 P   0  0  0  0  0  0  0  0  0  0  0  0
    6.6008  -12.0537   31.1028 O   0  0  0  0  0  0  0  0  0  0  0  0
    7.9498  -12.7523   29.1204 O   0  0  0  0  0  0  0  0  0  0  0  0
    7.4754  -14.4289   30.9894 O   0  0  0  0  0  0  0  0  0  0  0  0
    8.7917  -12.4927   29.5263 H   0  0  0  0  0  0  0  0  0  0  0  0
    8.2926  -14.2138   31.4657 H   0  0  0  0  0  0  0  0  0  0  0  0
 29 30  2  0  0  0
 29 31  1  0  0  0
 29 32  1  0  0  0
 29 28  1  0  0  0
 24 25  2  0  0  0
 24 26  1  0  0  0
 24 28  1  0  0  0
 24 23  1  0  0  0
 23 22  1  0  0  0
 22  1  1  0  0  0
  1  2  1  0  0  0
  1  3  1  0  0  0
  2  7  1  0  0  0
  3  4  1  0  0  0
  3  5  1  0  0  0
  5  6  1  0  0  0
  5  7  1  0  0  0
  7 10  1  0  0  0
 10 11  1  0  0  0
 10 19  1  0  0  0
 11 12  2  0  0  0
 12 13  1  0  0  0
 13 14  1  0  0  0
 13 19  2  0  0  0
 14 15  1  0  0  0
 14 16  2  0  0  0
 16 17  1  0  0  0
 17 18  2  0  0  0
 18 19  1  0  0  0
 31 33  1  0  0  0
 32 34  1  0  0  0
 26 27  1  0  0  0
  4  8  1  0  0  0
  6  9  1  0  0  0
 15 20  1  0  0  0
 15 21  1  0  0  0
M  END
> <minimizedAffinity>
-6.70111

$$$$
2E2P_ADP_A_600


 34 36  0  0  0  0  0  0  0  0999 V2000
    3.9198   -9.8767   24.9883 C   0  0  0  0  0  0  0  0  0  0  0  0
    2.6631  -10.0037   25.6919 O   0  0  0  0  0  0  0  0  0  0  0  0
    4.8998   -9.2440   26.0083 C   0  0  0  0  0  0  0  0  0  0  0  0
    5.0648   -7.8633   25.6399 O   0  0  0  0  0  0  0  0  0  0  0  0
    4.2393   -9.4708   27.3742 C   0  0  0  0  0  0  0  0  0  0  0  0
    4.3481   -8.3545   28.2772 O   0  0  0  0  0  0  0  0  0  0  0  0
    2.7711   -9.7264   27.0754 C   0  0  0  0  0  0  0  0  0  0  0  0
    4.1964   -7.4327   25.6024 H   0  0  0  0  0  0  0  0  0  0  0  0
    3.9162   -7.5790   27.8861 H   0  0  0  0  0  0  0  0  0  0  0  0
    2.1927  -10.8225   27.9286 N   0  0  0  0  0  0  0  0  0  0  0  0
    2.0256  -12.1381   27.6368 C   0  0  0  0  0  0  0  0  0  0  0  0
    1.4727  -12.8279   28.6550 N   0  0  0  0  0  0  0  0  0  0  0  0
    1.2940  -11.8912   29.6263 C   0  0  0  0  0  0  0  0  0  0  0  0
    0.7369  -11.9800   30.9681 C   0  0  0  0  0  0  0  0  0  0  0  0
    0.2887  -13.0477   31.5414 N   0  0  0  0  0  0  0  0  0  0  0  0
    0.7267  -10.7726   31.6552 N   0  0  0  0  0  0  0  0  0  0  0  0
    1.1919   -9.5752   31.1185 C   0  0  0  0  0  0  0  0  0  0  0  0
    1.7027   -9.4803   29.8876 N   0  0  0  0  0  0  0  0  0  0  0  0
    1.7253  -10.6429   29.1869 C   0  0  0  0  0  0  0  0  0  0  0  0
    0.2942  -13.9053   31.0580 H   0  0  0  0  0  0  0  0  0  0  0  0
   -0.0583  -13.0036   32.4617 H   0  0  0  0  0  0  0  0  0  0  0  0
    4.3202  -11.1948   24.3419 C   0  0  0  0  0  0  0  0  0  0  0  0
    4.8666  -11.0032   22.9970 O   0  0  0  0  0  0  0  0  0  0  0  0
    6.3944  -10.6175   22.7896 P   0  0  0  0  0  0  0  0  0  0  0  0
    7.1254  -11.6377   23.6354 O   0  0  0  0  0  0  0  0  0  0  0  0
    6.7230   -9.1764   23.0920 O   0  0  0  0  0  0  0  0  0  0  0  0
    7.6689   -9.0221   22.9420 H   0  0  0  0  0  0  0  0  0  0  0  0
    6.6593  -10.9198   21.2700 O   0  0  0  0  0  0  0  0  0  0  0  0
    7.3177  -12.1814   20.5218 P   0  0  0  0  0  0  0  0  0  0  0  0
    6.5090  -13.3547   20.9393 O   0  0  0  0  0  0  0  0  0  0  0  0
    8.7405  -12.2345   20.9948 O   0  0  0  0  0  0  0  0  0  0  0  0
    7.2112  -11.9208   18.9720 O   0  0  0  0  0  0  0  0  0  0  0  0
    9.1934  -12.9821   20.5742 H   0  0  0  0  0  0  0  0  0  0  0  0
    7.6014  -12.6673   18.4910 H   0  0  0  0  0  0  0  0  0  0  0  0
 29 30  2  0  0  0
 29 31  1  0  0  0
 29 32  1  0  0  0
 29 28  1  0  0  0
 24 25  2  0  0  0
 24 26  1  0  0  0
 24 28  1  0  0  0
 24 23  1  0  0  0
 23 22  1  0  0  0
 22  1  1  0  0  0
  1  2  1  0  0  0
  1  3  1  0  0  0
  2  7  1  0  0  0
  3  4  1  0  0  0
  3  5  1  0  0  0
  5  6  1  0  0  0
  5  7  1  0  0  0
  7 10  1  0  0  0
 10 11  1  0  0  0
 10 19  1  0  0  0
 11 12  2  0  0  0
 12 13  1  0  0  0
 13 14  1  0  0  0
 13 19  2  0  0  0
 14 15  1  0  0  0
 14 16  2  0  0  0
 16 17  1  0  0  0
 17 18  2  0  0  0
 18 19  1  0  0  0
 31 33  1  0  0  0
 32 34  1  0  0  0
 26 27  1  0  0  0
  4  8  1  0  0  0
  6  9  1  0  0  0
 15 20  1  0  0  0
 15 21  1  0  0  0
M  END
> <minimizedAffinity>
-6.63005

$$$$
2E2P_ADP_A_600


 34 36  0  0  0  0  0  0  0  0999 V2000
    4.0101   -9.9454   24.9429 C   0  0  0  0  0  0  0  0  0  0  0  0
    2.6982  -10.0217   25.5460 O   0  0  0  0  0  0  0  0  0  0  0  0
    4.9148   -9.2791   26.0100 C   0  0  0  0  0  0  0  0  0  0  0  0
    5.1336   -7.9197   25.5936 O   0  0  0  0  0  0  0  0  0  0  0  0
    4.1414   -9.4322   27.3259 C   0  0  0  0  0  0  0  0  0  0  0  0
    4.1960   -8.2762   28.1828 O   0  0  0  0  0  0  0  0  0  0  0  0
    2.6980   -9.6811   26.9195 C   0  0  0  0  0  0  0  0  0  0  0  0
    4.2789   -7.4793   25.4652 H   0  0  0  0  0  0  0  0  0  0  0  0
    3.8112   -7.5141   27.7225 H   0  0  0  0  0  0  0  0  0  0  0  0
    2.0328  -10.7277   27.7716 N   0  0  0  0  0  0  0  0  0  0  0  0
    0.7908  -10.7236   28.3205 C   0  0  0  0  0  0  0  0  0  0  0  0
    0.5332  -11.8433   29.0264 N   0  0  0  0  0  0  0  0  0  0  0  0
    1.6726  -12.5777   28.9028 C   0  0  0  0  0  0  0  0  0  0  0  0
    2.0478  -13.8813   29.4306 C   0  0  0  0  0  0  0  0  0  0  0  0
    1.3095  -14.6543   30.1564 N   0  0  0  0  0  0  0  0  0  0  0  0
    3.3278  -14.2867   29.0738 N   0  0  0  0  0  0  0  0  0  0  0  0
    4.1902  -13.5218   28.2931 C   0  0  0  0  0  0  0  0  0  0  0  0
    3.8585  -12.3230   27.8052 N   0  0  0  0  0  0  0  0  0  0  0  0
    2.6137  -11.8950   28.1376 C   0  0  0  0  0  0  0  0  0  0  0  0
    0.4019  -14.3708   30.4115 H   0  0  0  0  0  0  0  0  0  0  0  0
    1.6545  -15.5269   30.4544 H   0  0  0  0  0  0  0  0  0  0  0  0
    4.4384  -11.2979   24.3926 C   0  0  0  0  0  0  0  0  0  0  0  0
    4.9416  -11.1983   23.0211 O   0  0  0  0  0  0  0  0  0  0  0  0
    6.4414  -10.7554   22.7376 P   0  0  0  0  0  0  0  0  0  0  0  0
    7.2518  -11.7449   23.5466 O   0  0  0  0  0  0  0  0  0  0  0  0
    6.7296   -9.3020   23.0224 O   0  0  0  0  0  0  0  0  0  0  0  0
    7.6602   -9.1123   22.8253 H   0  0  0  0  0  0  0  0  0  0  0  0
    6.6416  -11.0512   21.2069 O   0  0  0  0  0  0  0  0  0  0  0  0
    7.5255  -12.1455   20.4282 P   0  0  0  0  0  0  0  0  0  0  0  0
    7.1389  -12.0221   18.9999 O   0  0  0  0  0  0  0  0  0  0  0  0
    7.1602  -13.4674   21.0366 O   0  0  0  0  0  0  0  0  0  0  0  0
    9.0404  -11.7794   20.6565 O   0  0  0  0  0  0  0  0  0  0  0  0
    7.6659  -14.1732   20.6041 H   0  0  0  0  0  0  0  0  0  0  0  0
    9.6016  -12.4237   20.1973 H   0  0  0  0  0  0  0  0  0  0  0  0
 29 30  2  0  0  0
 29 31  1  0  0  0
 29 32  1  0  0  0
 29 28  1  0  0  0
 24 25  2  0  0  0
 24 26  1  0  0  0
 24 28  1  0  0  0
 24 23  1  0  0  0
 23 22  1  0  0  0
 22  1  1  0  0  0
  1  2  1  0  0  0
  1  3  1  0  0  0
  2  7  1  0  0  0
  3  4  1  0  0  0
  3  5  1  0  0  0
  5  6  1  0  0  0
  5  7  1  0  0  0
  7 10  1  0  0  0
 10 11  1  0  0  0
 10 19  1  0  0  0
 11 12  2  0  0  0
 12 13  1  0  0  0
 13 14  1  0  0  0
 13 19  2  0  0  0
 14 15  1  0  0  0
 14 16  2  0  0  0
 16 17  1  0  0  0
 17 18  2  0  0  0
 18 19  1  0  0  0
 31 33  1  0  0  0
 32 34  1  0  0  0
 26 27  1  0  0  0
  4  8  1  0  0  0
  6  9  1  0  0  0
 15 20  1  0  0  0
 15 21  1  0  0  0
M  END
> <minimizedAffinity>
-6.62996

$$$$
2E2P_ADP_A_600


 34 36  0  0  0  0  0  0  0  0999 V2000
    4.6581  -10.3267   25.8127 C   0  0  0  0  0  0  0  0  0  0  0  0
    5.9771  -10.9120   25.9042 O   0  0  0  0  0  0  0  0  0  0  0  0
    4.7719   -9.2245   24.7295 C   0  0  0  0  0  0  0  0  0  0  0  0
    4.7998   -7.9585   25.4118 O   0  0  0  0  0  0  0  0  0  0  0  0
    6.0528   -9.5679   23.9584 C   0  0  0  0  0  0  0  0  0  0  0  0
    6.8549   -8.4258   23.6040 O   0  0  0  0  0  0  0  0  0  0  0  0
    6.8532  -10.4683   24.8853 C   0  0  0  0  0  0  0  0  0  0  0  0
    5.5219   -7.9561   26.0596 H   0  0  0  0  0  0  0  0  0  0  0  0
    7.1326   -7.9631   24.4101 H   0  0  0  0  0  0  0  0  0  0  0  0
    7.5099  -11.6080   24.1546 N   0  0  0  0  0  0  0  0  0  0  0  0
    8.3725  -12.5447   24.6261 C   0  0  0  0  0  0  0  0  0  0  0  0
    8.7555  -13.4208   23.6752 N   0  0  0  0  0  0  0  0  0  0  0  0
    8.0917  -13.0063   22.5615 C   0  0  0  0  0  0  0  0  0  0  0  0
    8.0733  -13.5154   21.1980 C   0  0  0  0  0  0  0  0  0  0  0  0
    8.7181  -14.5445   20.7568 N   0  0  0  0  0  0  0  0  0  0  0  0
    7.2545  -12.7943   20.3380 N   0  0  0  0  0  0  0  0  0  0  0  0
    6.5212  -11.6764   20.7268 C   0  0  0  0  0  0  0  0  0  0  0  0
    6.5320  -11.1980   21.9741 N   0  0  0  0  0  0  0  0  0  0  0  0
    7.3250  -11.8786   22.8407 C   0  0  0  0  0  0  0  0  0  0  0  0
    9.2994  -15.0582   21.3629 H   0  0  0  0  0  0  0  0  0  0  0  0
    8.6281  -14.8149   19.8144 H   0  0  0  0  0  0  0  0  0  0  0  0
    3.5955  -11.3997   25.6256 C   0  0  0  0  0  0  0  0  0  0  0  0
    2.4373  -11.1830   26.4950 O   0  0  0  0  0  0  0  0  0  0  0  0
    2.3933  -11.8041   27.9572 P   0  0  0  0  0  0  0  0  0  0  0  0
    3.5324  -12.8004   27.9431 O   0  0  0  0  0  0  0  0  0  0  0  0
    1.0518  -12.3660   28.3587 O   0  0  0  0  0  0  0  0  0  0  0  0
    1.1073  -12.7239   29.2585 H   0  0  0  0  0  0  0  0  0  0  0  0
    2.7711  -10.5991   28.8931 O   0  0  0  0  0  0  0  0  0  0  0  0
    2.4237   -9.0309   28.8227 P   0  0  0  0  0  0  0  0  0  0  0  0
    3.6738   -8.3691   28.3709 O   0  0  0  0  0  0  0  0  0  0  0  0
    2.0095   -8.6458   30.2123 O   0  0  0  0  0  0  0  0  0  0  0  0
    1.2579   -8.8510   27.7788 O   0  0  0  0  0  0  0  0  0  0  0  0
    1.7857   -7.7022   30.2332 H   0  0  0  0  0  0  0  0  0  0  0  0
    1.0246   -7.9117   27.7133 H   0  0  0  0  0  0  0  0  0  0  0  0
 29 30  2  0  0  0
 29 31  1  0  0  0
 29 32  1  0  0  0
 29 28  1  0  0  0
 24 25  2  0  0  0
 24 26  1  0  0  0
 24 28  1  0  0  0
 24 23  1  0  0  0
 23 22  1  0  0  0
 22  1  1  0  0  0
  1  2  1  0  0  0
  1  3  1  0  0  0
  2  7  1  0  0  0
  3  4  1  0  0  0
  3  5  1  0  0  0
  5  6  1  0  0  0
  5  7  1  0  0  0
  7 10  1  0  0  0
 10 11  1  0  0  0
 10 19  1  0  0  0
 11 12  2  0  0  0
 12 13  1  0  0  0
 13 14  1  0  0  0
 13 19  2  0  0  0
 14 15  1  0  0  0
 14 16  2  0  0  0
 16 17  1  0  0  0
 17 18  2  0  0  0
 18 19  1  0  0  0
 31 33  1  0  0  0
 32 34  1  0  0  0
 26 27  1  0  0  0
  4  8  1  0  0  0
  6  9  1  0  0  0
 15 20  1  0  0  0
 15 21  1  0  0  0
M  END
> <minimizedAffinity>
-6.58884

$$$$
