5WA8_9ZA_A_201


 35 37  0  0  0  0  0  0  0  0999 V2000
  -29.5098    5.2468  -27.2958 C   0  0  0  0  0  0  0  0  0  0  0  0
  -30.1080    6.6573  -27.3730 C   0  0  0  0  0  0  0  0  0  0  0  0
  -29.2126    7.6020  -26.7612 O   0  0  0  0  0  0  0  0  0  0  0  0
  -30.2856    6.8872  -28.8721 C   0  0  0  0  0  0  0  0  0  0  0  0
  -29.9953    8.2128  -29.3216 O   0  0  0  0  0  0  0  0  0  0  0  0
  -29.2848    5.9000  -29.4491 C   0  0  0  0  0  0  0  0  0  0  0  0
  -29.4043    4.7527  -28.6316 O   0  0  0  0  0  0  0  0  0  0  0  0
  -28.3447    7.5502  -27.1913 H   0  0  0  0  0  0  0  0  0  0  0  0
  -29.0790    8.4373  -29.0960 H   0  0  0  0  0  0  0  0  0  0  0  0
  -29.5821    5.4694  -30.8216 N   0  0  0  0  0  0  0  0  0  0  0  0
  -28.6416    5.1712  -31.7052 C   0  0  0  0  0  0  0  0  0  0  0  0
  -29.3624    4.7717  -32.9005 C   0  0  0  0  0  0  0  0  0  0  0  0
  -30.6746    4.8618  -32.6343 N   0  0  0  0  0  0  0  0  0  0  0  0
  -30.8027    5.2721  -31.3495 C   0  0  0  0  0  0  0  0  0  0  0  0
  -27.2918    5.1897  -31.6698 N   0  0  0  0  0  0  0  0  0  0  0  0
  -26.6064    4.8289  -32.7648 C   0  0  0  0  0  0  0  0  0  0  0  0
  -27.2012    4.4500  -33.9128 N   0  0  0  0  0  0  0  0  0  0  0  0
  -28.5418    4.4024  -34.0521 C   0  0  0  0  0  0  0  0  0  0  0  0
  -29.1328    4.0311  -35.2167 N   0  0  0  0  0  0  0  0  0  0  0  0
  -28.5796    3.7824  -35.9921 H   0  0  0  0  0  0  0  0  0  0  0  0
  -30.1147    4.0106  -35.2857 H   0  0  0  0  0  0  0  0  0  0  0  0
  -30.3663    4.2617  -26.5194 C   0  0  0  0  0  0  0  0  0  0  0  0
  -30.4401    4.7269  -25.1764 O   0  0  0  0  0  0  0  0  0  0  0  0
  -30.7259    3.5858  -23.0216 O   0  0  0  0  0  0  0  0  0  0  0  0
  -31.5292    4.1148  -24.1736 P   0  0  0  0  0  0  0  0  0  0  0  0
  -32.4430    3.1844  -24.9313 O   0  0  0  0  0  0  0  0  0  0  0  0
  -30.1660    2.8547  -23.3265 H   0  0  0  0  0  0  0  0  0  0  0  0
  -32.5348    5.4153  -23.6634 N   0  0  0  0  0  0  0  0  0  0  0  0
  -32.9025    5.1587  -22.7473 H   0  0  0  0  0  0  0  0  0  0  0  0
  -31.9958    6.7529  -23.5345 C   0  0  0  0  0  0  0  0  0  0  0  0
  -32.1923    7.6240  -24.7710 C   0  0  0  0  0  0  0  0  0  0  0  0
  -32.6875    7.4080  -22.3978 C   0  0  0  0  0  0  0  0  0  0  0  0
  -32.4827    7.1246  -21.2340 O   0  0  0  0  0  0  0  0  0  0  0  0
  -33.6331    8.4255  -22.7177 O   0  0  0  0  0  0  0  0  0  0  0  0
  -34.4614    8.9323  -21.6693 C   0  0  0  0  0  0  0  0  0  0  0  0
 19 18  1  0  0  0
 18 17  2  0  0  0
 18 12  1  0  0  0
 17 16  1  0  0  0
 12 13  1  0  0  0
 12 11  2  0  0  0
 16 15  2  0  0  0
 13 14  2  0  0  0
 11 15  1  0  0  0
 11 10  1  0  0  0
 14 10  1  0  0  0
 10  6  1  0  0  0
  6  4  1  0  0  0
  6  7  1  0  0  0
  5  4  1  0  0  0
  4  2  1  0  0  0
  7  1  1  0  0  0
  2  1  1  0  0  0
  2  3  1  0  0  0
  1 22  1  0  0  0
 22 23  1  0  0  0
 23 25  1  0  0  0
 33 32  2  0  0  0
 26 25  2  0  0  0
 28 25  1  0  0  0
 28 30  1  0  0  0
 25 24  1  0  0  0
 32 30  1  0  0  0
 32 34  1  0  0  0
 31 30  1  0  0  0
 35 34  1  0  0  0
 24 27  1  0  0  0
  3  8  1  0  0  0
  5  9  1  0  0  0
 19 20  1  0  0  0
 19 21  1  0  0  0
 28 29  1  0  0  0
M  END
> <minimizedAffinity>
-8.89356

$$$$
5WA8_9ZA_A_201


 35 37  0  0  0  0  0  0  0  0999 V2000
  -32.0419    9.4764  -26.9069 C   0  0  0  0  0  0  0  0  0  0  0  0
  -30.5275    9.3629  -27.1234 C   0  0  0  0  0  0  0  0  0  0  0  0
  -29.8941   10.6163  -26.8133 O   0  0  0  0  0  0  0  0  0  0  0  0
  -30.1161    8.2360  -26.1787 C   0  0  0  0  0  0  0  0  0  0  0  0
  -28.8642    8.4263  -25.5154 O   0  0  0  0  0  0  0  0  0  0  0  0
  -31.2566    8.2530  -25.1747 C   0  0  0  0  0  0  0  0  0  0  0  0
  -32.4142    8.4797  -25.9542 O   0  0  0  0  0  0  0  0  0  0  0  0
  -30.1139   10.8735  -25.9042 H   0  0  0  0  0  0  0  0  0  0  0  0
  -28.8932    9.2472  -24.9993 H   0  0  0  0  0  0  0  0  0  0  0  0
  -31.4658    6.9787  -24.4747 N   0  0  0  0  0  0  0  0  0  0  0  0
  -31.3439    5.8003  -25.0669 C   0  0  0  0  0  0  0  0  0  0  0  0
  -31.6011    4.8262  -24.0215 C   0  0  0  0  0  0  0  0  0  0  0  0
  -31.8541    5.5008  -22.8893 N   0  0  0  0  0  0  0  0  0  0  0  0
  -31.7501    6.8220  -23.1700 C   0  0  0  0  0  0  0  0  0  0  0  0
  -31.0633    5.4189  -26.3315 N   0  0  0  0  0  0  0  0  0  0  0  0
  -31.0209    4.1104  -26.6231 C   0  0  0  0  0  0  0  0  0  0  0  0
  -31.2517    3.1461  -25.7108 N   0  0  0  0  0  0  0  0  0  0  0  0
  -31.5446    3.4223  -24.4237 C   0  0  0  0  0  0  0  0  0  0  0  0
  -31.7879    2.4444  -23.5138 N   0  0  0  0  0  0  0  0  0  0  0  0
  -31.7498    1.4988  -23.7853 H   0  0  0  0  0  0  0  0  0  0  0  0
  -32.0025    2.6808  -22.5825 H   0  0  0  0  0  0  0  0  0  0  0  0
  -32.8590    9.2245  -28.1621 C   0  0  0  0  0  0  0  0  0  0  0  0
  -33.1841    7.8392  -28.1885 O   0  0  0  0  0  0  0  0  0  0  0  0
  -33.1155    7.9210  -30.6411 O   0  0  0  0  0  0  0  0  0  0  0  0
  -32.8899    6.9704  -29.5019 P   0  0  0  0  0  0  0  0  0  0  0  0
  -33.6762    5.6849  -29.4404 O   0  0  0  0  0  0  0  0  0  0  0  0
  -34.0498    8.1805  -30.6656 H   0  0  0  0  0  0  0  0  0  0  0  0
  -31.2382    6.4908  -29.4320 N   0  0  0  0  0  0  0  0  0  0  0  0
  -31.0231    6.3256  -28.4487 H   0  0  0  0  0  0  0  0  0  0  0  0
  -30.7812    5.3249  -30.1586 C   0  0  0  0  0  0  0  0  0  0  0  0
  -30.9646    5.4228  -31.6695 C   0  0  0  0  0  0  0  0  0  0  0  0
  -29.3330    5.1630  -29.8822 C   0  0  0  0  0  0  0  0  0  0  0  0
  -28.8003    5.5328  -28.8545 O   0  0  0  0  0  0  0  0  0  0  0  0
  -28.5503    4.5302  -30.8916 O   0  0  0  0  0  0  0  0  0  0  0  0
  -27.2486    5.0528  -31.1644 C   0  0  0  0  0  0  0  0  0  0  0  0
 19 18  1  0  0  0
 18 17  2  0  0  0
 18 12  1  0  0  0
 17 16  1  0  0  0
 12 13  1  0  0  0
 12 11  2  0  0  0
 16 15  2  0  0  0
 13 14  2  0  0  0
 11 15  1  0  0  0
 11 10  1  0  0  0
 14 10  1  0  0  0
 10  6  1  0  0  0
  6  4  1  0  0  0
  6  7  1  0  0  0
  5  4  1  0  0  0
  4  2  1  0  0  0
  7  1  1  0  0  0
  2  1  1  0  0  0
  2  3  1  0  0  0
  1 22  1  0  0  0
 22 23  1  0  0  0
 23 25  1  0  0  0
 33 32  2  0  0  0
 26 25  2  0  0  0
 28 25  1  0  0  0
 28 30  1  0  0  0
 25 24  1  0  0  0
 32 30  1  0  0  0
 32 34  1  0  0  0
 31 30  1  0  0  0
 35 34  1  0  0  0
 24 27  1  0  0  0
  3  8  1  0  0  0
  5  9  1  0  0  0
 19 20  1  0  0  0
 19 21  1  0  0  0
 28 29  1  0  0  0
M  END
> <minimizedAffinity>
-7.93017

$$$$
5WA8_9ZA_A_201


 35 37  0  0  0  0  0  0  0  0999 V2000
  -29.9464    8.5149  -26.5570 C   0  0  0  0  0  0  0  0  0  0  0  0
  -30.9713    9.6564  -26.5539 C   0  0  0  0  0  0  0  0  0  0  0  0
  -30.2917   10.9235  -26.5868 O   0  0  0  0  0  0  0  0  0  0  0  0
  -31.8028    9.3918  -27.8070 C   0  0  0  0  0  0  0  0  0  0  0  0
  -32.1938   10.5591  -28.5338 O   0  0  0  0  0  0  0  0  0  0  0  0
  -30.8447    8.5490  -28.6320 C   0  0  0  0  0  0  0  0  0  0  0  0
  -30.2226    7.6946  -27.6930 O   0  0  0  0  0  0  0  0  0  0  0  0
  -29.7099   10.9582  -27.3622 H   0  0  0  0  0  0  0  0  0  0  0  0
  -31.4030   11.0517  -28.8038 H   0  0  0  0  0  0  0  0  0  0  0  0
  -31.4992    7.6806  -29.6195 N   0  0  0  0  0  0  0  0  0  0  0  0
  -31.9653    8.1251  -30.7767 C   0  0  0  0  0  0  0  0  0  0  0  0
  -32.4938    6.9498  -31.4453 C   0  0  0  0  0  0  0  0  0  0  0  0
  -32.2994    5.8980  -30.6347 N   0  0  0  0  0  0  0  0  0  0  0  0
  -31.6705    6.3505  -29.5234 C   0  0  0  0  0  0  0  0  0  0  0  0
  -32.0242    9.3470  -31.3487 N   0  0  0  0  0  0  0  0  0  0  0  0
  -32.5827    9.4723  -32.5616 C   0  0  0  0  0  0  0  0  0  0  0  0
  -33.0987    8.4317  -33.2444 N   0  0  0  0  0  0  0  0  0  0  0  0
  -33.0935    7.1734  -32.7592 C   0  0  0  0  0  0  0  0  0  0  0  0
  -33.6269    6.1325  -33.4488 N   0  0  0  0  0  0  0  0  0  0  0  0
  -34.0308    6.2837  -34.3338 H   0  0  0  0  0  0  0  0  0  0  0  0
  -33.6098    5.2266  -33.0638 H   0  0  0  0  0  0  0  0  0  0  0  0
  -30.0222    7.6226  -25.3302 C   0  0  0  0  0  0  0  0  0  0  0  0
  -31.2209    7.9515  -24.6371 O   0  0  0  0  0  0  0  0  0  0  0  0
  -33.3235    6.7206  -24.3347 O   0  0  0  0  0  0  0  0  0  0  0  0
  -31.9541    6.8498  -23.7342 P   0  0  0  0  0  0  0  0  0  0  0  0
  -31.8131    7.2184  -22.2786 O   0  0  0  0  0  0  0  0  0  0  0  0
  -33.8047    7.5557  -24.2251 H   0  0  0  0  0  0  0  0  0  0  0  0
  -31.0740    5.3814  -23.9132 N   0  0  0  0  0  0  0  0  0  0  0  0
  -31.0594    4.9355  -22.9960 H   0  0  0  0  0  0  0  0  0  0  0  0
  -31.5107    4.3744  -24.8574 C   0  0  0  0  0  0  0  0  0  0  0  0
  -30.4697    4.0202  -25.9143 C   0  0  0  0  0  0  0  0  0  0  0  0
  -31.8213    3.1440  -24.0897 C   0  0  0  0  0  0  0  0  0  0  0  0
  -32.2757    2.1355  -24.5930 O   0  0  0  0  0  0  0  0  0  0  0  0
  -31.5560    3.1728  -22.6894 O   0  0  0  0  0  0  0  0  0  0  0  0
  -31.0468    1.9882  -22.0734 C   0  0  0  0  0  0  0  0  0  0  0  0
 19 18  1  0  0  0
 18 17  2  0  0  0
 18 12  1  0  0  0
 17 16  1  0  0  0
 12 13  1  0  0  0
 12 11  2  0  0  0
 16 15  2  0  0  0
 13 14  2  0  0  0
 11 15  1  0  0  0
 11 10  1  0  0  0
 14 10  1  0  0  0
 10  6  1  0  0  0
  6  4  1  0  0  0
  6  7  1  0  0  0
  5  4  1  0  0  0
  4  2  1  0  0  0
  7  1  1  0  0  0
  2  1  1  0  0  0
  2  3  1  0  0  0
  1 22  1  0  0  0
 22 23  1  0  0  0
 23 25  1  0  0  0
 33 32  2  0  0  0
 26 25  2  0  0  0
 28 25  1  0  0  0
 28 30  1  0  0  0
 25 24  1  0  0  0
 32 30  1  0  0  0
 32 34  1  0  0  0
 31 30  1  0  0  0
 35 34  1  0  0  0
 24 27  1  0  0  0
  3  8  1  0  0  0
  5  9  1  0  0  0
 19 20  1  0  0  0
 19 21  1  0  0  0
 28 29  1  0  0  0
M  END
> <minimizedAffinity>
-7.84917

$$$$
5WA8_9ZA_A_201


 35 37  0  0  0  0  0  0  0  0999 V2000
  -30.5955    4.3310  -25.1628 C   0  0  0  0  0  0  0  0  0  0  0  0
  -31.4880    3.8792  -23.9997 C   0  0  0  0  0  0  0  0  0  0  0  0
  -30.6720    3.4490  -22.8962 O   0  0  0  0  0  0  0  0  0  0  0  0
  -32.3152    5.1227  -23.6817 C   0  0  0  0  0  0  0  0  0  0  0  0
  -32.5585    5.3509  -22.2916 O   0  0  0  0  0  0  0  0  0  0  0  0
  -31.4377    6.2231  -24.2546 C   0  0  0  0  0  0  0  0  0  0  0  0
  -30.9350    5.6857  -25.4618 O   0  0  0  0  0  0  0  0  0  0  0  0
  -30.0727    4.1667  -22.6382 H   0  0  0  0  0  0  0  0  0  0  0  0
  -31.7123    5.4330  -21.8245 H   0  0  0  0  0  0  0  0  0  0  0  0
  -32.1617    7.4502  -24.6116 N   0  0  0  0  0  0  0  0  0  0  0  0
  -31.6491    8.3914  -25.3897 C   0  0  0  0  0  0  0  0  0  0  0  0
  -32.6938    9.3929  -25.5060 C   0  0  0  0  0  0  0  0  0  0  0  0
  -33.7464    8.9687  -24.7897 N   0  0  0  0  0  0  0  0  0  0  0  0
  -33.4202    7.7657  -24.2589 C   0  0  0  0  0  0  0  0  0  0  0  0
  -30.4554    8.5444  -26.0022 N   0  0  0  0  0  0  0  0  0  0  0  0
  -30.2352    9.6466  -26.7341 C   0  0  0  0  0  0  0  0  0  0  0  0
  -31.1514   10.6226  -26.8871 N   0  0  0  0  0  0  0  0  0  0  0  0
  -32.3707   10.5674  -26.3135 C   0  0  0  0  0  0  0  0  0  0  0  0
  -33.2834   11.5613  -26.4630 N   0  0  0  0  0  0  0  0  0  0  0  0
  -33.0653   12.3523  -27.0071 H   0  0  0  0  0  0  0  0  0  0  0  0
  -34.1635   11.4911  -26.0274 H   0  0  0  0  0  0  0  0  0  0  0  0
  -30.7969    3.5268  -26.4354 C   0  0  0  0  0  0  0  0  0  0  0  0
  -29.8574    4.0018  -27.3932 O   0  0  0  0  0  0  0  0  0  0  0  0
  -29.4730    6.3020  -28.1602 O   0  0  0  0  0  0  0  0  0  0  0  0
  -30.3008    5.0917  -28.4803 P   0  0  0  0  0  0  0  0  0  0  0  0
  -31.8047    5.2032  -28.4954 O   0  0  0  0  0  0  0  0  0  0  0  0
  -29.7222    6.6423  -27.2867 H   0  0  0  0  0  0  0  0  0  0  0  0
  -29.8811    4.4635  -30.0270 N   0  0  0  0  0  0  0  0  0  0  0  0
  -30.7547    4.1977  -30.4815 H   0  0  0  0  0  0  0  0  0  0  0  0
  -29.1504    5.2770  -30.9759 C   0  0  0  0  0  0  0  0  0  0  0  0
  -27.6474    5.0177  -30.9892 C   0  0  0  0  0  0  0  0  0  0  0  0
  -29.6796    4.9742  -32.3280 C   0  0  0  0  0  0  0  0  0  0  0  0
  -30.7794    5.3208  -32.7114 O   0  0  0  0  0  0  0  0  0  0  0  0
  -28.8277    4.2419  -33.2053 O   0  0  0  0  0  0  0  0  0  0  0  0
  -28.7196    4.6774  -34.5620 C   0  0  0  0  0  0  0  0  0  0  0  0
 19 18  1  0  0  0
 18 17  2  0  0  0
 18 12  1  0  0  0
 17 16  1  0  0  0
 12 13  1  0  0  0
 12 11  2  0  0  0
 16 15  2  0  0  0
 13 14  2  0  0  0
 11 15  1  0  0  0
 11 10  1  0  0  0
 14 10  1  0  0  0
 10  6  1  0  0  0
  6  4  1  0  0  0
  6  7  1  0  0  0
  5  4  1  0  0  0
  4  2  1  0  0  0
  7  1  1  0  0  0
  2  1  1  0  0  0
  2  3  1  0  0  0
  1 22  1  0  0  0
 22 23  1  0  0  0
 23 25  1  0  0  0
 33 32  2  0  0  0
 26 25  2  0  0  0
 28 25  1  0  0  0
 28 30  1  0  0  0
 25 24  1  0  0  0
 32 30  1  0  0  0
 32 34  1  0  0  0
 31 30  1  0  0  0
 35 34  1  0  0  0
 24 27  1  0  0  0
  3  8  1  0  0  0
  5  9  1  0  0  0
 19 20  1  0  0  0
 19 21  1  0  0  0
 28 29  1  0  0  0
M  END
> <minimizedAffinity>
-7.84833

$$$$
5WA8_9ZA_A_201


 35 37  0  0  0  0  0  0  0  0999 V2000
  -33.2430    8.1202  -28.4879 C   0  0  0  0  0  0  0  0  0  0  0  0
  -32.0869    9.1252  -28.5695 C   0  0  0  0  0  0  0  0  0  0  0  0
  -32.5074   10.2961  -29.2911 O   0  0  0  0  0  0  0  0  0  0  0  0
  -31.7596    9.4111  -27.1057 C   0  0  0  0  0  0  0  0  0  0  0  0
  -31.4224   10.7692  -26.8131 O   0  0  0  0  0  0  0  0  0  0  0  0
  -33.0636    9.0296  -26.4252 C   0  0  0  0  0  0  0  0  0  0  0  0
  -33.4932    7.8666  -27.1048 O   0  0  0  0  0  0  0  0  0  0  0  0
  -33.2907   10.6757  -28.8631 H   0  0  0  0  0  0  0  0  0  0  0  0
  -32.1583   11.3473  -27.0684 H   0  0  0  0  0  0  0  0  0  0  0  0
  -32.9224    8.6601  -25.0106 N   0  0  0  0  0  0  0  0  0  0  0  0
  -33.8022    9.0045  -24.0824 C   0  0  0  0  0  0  0  0  0  0  0  0
  -33.3004    8.4173  -22.8530 C   0  0  0  0  0  0  0  0  0  0  0  0
  -32.1628    7.7685  -23.1460 N   0  0  0  0  0  0  0  0  0  0  0  0
  -31.9466    7.9050  -24.4764 C   0  0  0  0  0  0  0  0  0  0  0  0
  -34.9399    9.7316  -24.1026 N   0  0  0  0  0  0  0  0  0  0  0  0
  -35.6186    9.9113  -22.9598 C   0  0  0  0  0  0  0  0  0  0  0  0
  -35.2168    9.4030  -21.7784 N   0  0  0  0  0  0  0  0  0  0  0  0
  -34.0934    8.6677  -21.6511 C   0  0  0  0  0  0  0  0  0  0  0  0
  -33.6895    8.1697  -20.4544 N   0  0  0  0  0  0  0  0  0  0  0  0
  -34.2241    8.3386  -19.6452 H   0  0  0  0  0  0  0  0  0  0  0  0
  -32.8619    7.6396  -20.3959 H   0  0  0  0  0  0  0  0  0  0  0  0
  -32.9375    6.7833  -29.1409 C   0  0  0  0  0  0  0  0  0  0  0  0
  -31.5710    6.8051  -29.5379 O   0  0  0  0  0  0  0  0  0  0  0  0
  -29.2508    6.2790  -28.9319 O   0  0  0  0  0  0  0  0  0  0  0  0
  -30.5883    5.6188  -29.0981 P   0  0  0  0  0  0  0  0  0  0  0  0
  -30.7328    4.4647  -30.0581 O   0  0  0  0  0  0  0  0  0  0  0  0
  -28.9442    6.6091  -29.7910 H   0  0  0  0  0  0  0  0  0  0  0  0
  -31.1600    5.0216  -27.5882 N   0  0  0  0  0  0  0  0  0  0  0  0
  -32.1563    4.8372  -27.7051 H   0  0  0  0  0  0  0  0  0  0  0  0
  -30.5827    3.8290  -27.0047 C   0  0  0  0  0  0  0  0  0  0  0  0
  -29.1191    3.9796  -26.6028 C   0  0  0  0  0  0  0  0  0  0  0  0
  -31.3616    3.5038  -25.7851 C   0  0  0  0  0  0  0  0  0  0  0  0
  -31.7713    2.3890  -25.5278 O   0  0  0  0  0  0  0  0  0  0  0  0
  -31.6228    4.5748  -24.8815 O   0  0  0  0  0  0  0  0  0  0  0  0
  -31.8565    4.2584  -23.5077 C   0  0  0  0  0  0  0  0  0  0  0  0
 19 18  1  0  0  0
 18 17  2  0  0  0
 18 12  1  0  0  0
 17 16  1  0  0  0
 12 13  1  0  0  0
 12 11  2  0  0  0
 16 15  2  0  0  0
 13 14  2  0  0  0
 11 15  1  0  0  0
 11 10  1  0  0  0
 14 10  1  0  0  0
 10  6  1  0  0  0
  6  4  1  0  0  0
  6  7  1  0  0  0
  5  4  1  0  0  0
  4  2  1  0  0  0
  7  1  1  0  0  0
  2  1  1  0  0  0
  2  3  1  0  0  0
  1 22  1  0  0  0
 22 23  1  0  0  0
 23 25  1  0  0  0
 33 32  2  0  0  0
 26 25  2  0  0  0
 28 25  1  0  0  0
 28 30  1  0  0  0
 25 24  1  0  0  0
 32 30  1  0  0  0
 32 34  1  0  0  0
 31 30  1  0  0  0
 35 34  1  0  0  0
 24 27  1  0  0  0
  3  8  1  0  0  0
  5  9  1  0  0  0
 19 20  1  0  0  0
 19 21  1  0  0  0
 28 29  1  0  0  0
M  END
> <minimizedAffinity>
-7.80068

$$$$
5WA8_9ZA_A_201


 35 37  0  0  0  0  0  0  0  0999 V2000
  -30.8335    5.0051  -29.5255 C   0  0  0  0  0  0  0  0  0  0  0  0
  -29.5504    5.7516  -29.1387 C   0  0  0  0  0  0  0  0  0  0  0  0
  -28.8522    5.0243  -28.1131 O   0  0  0  0  0  0  0  0  0  0  0  0
  -28.7734    5.8279  -30.4510 C   0  0  0  0  0  0  0  0  0  0  0  0
  -27.3596    5.6539  -30.3305 O   0  0  0  0  0  0  0  0  0  0  0  0
  -29.3853    4.6763  -31.2310 C   0  0  0  0  0  0  0  0  0  0  0  0
  -30.7647    4.7324  -30.9257 O   0  0  0  0  0  0  0  0  0  0  0  0
  -28.6703    4.1231  -28.4225 H   0  0  0  0  0  0  0  0  0  0  0  0
  -27.1732    4.7914  -29.9279 H   0  0  0  0  0  0  0  0  0  0  0  0
  -29.2734    4.8064  -32.6898 N   0  0  0  0  0  0  0  0  0  0  0  0
  -28.1216    4.7158  -33.3372 C   0  0  0  0  0  0  0  0  0  0  0  0
  -28.4657    4.8696  -34.7393 C   0  0  0  0  0  0  0  0  0  0  0  0
  -29.7948    5.0379  -34.8166 N   0  0  0  0  0  0  0  0  0  0  0  0
  -30.2873    4.9785  -33.5559 C   0  0  0  0  0  0  0  0  0  0  0  0
  -26.8431    4.5357  -32.9414 N   0  0  0  0  0  0  0  0  0  0  0  0
  -25.8737    4.4973  -33.8674 C   0  0  0  0  0  0  0  0  0  0  0  0
  -26.1110    4.6361  -35.1864 N   0  0  0  0  0  0  0  0  0  0  0  0
  -27.3506    4.8249  -35.6830 C   0  0  0  0  0  0  0  0  0  0  0  0
  -27.5792    4.9761  -37.0128 N   0  0  0  0  0  0  0  0  0  0  0  0
  -26.8277    4.9459  -37.6480 H   0  0  0  0  0  0  0  0  0  0  0  0
  -28.4965    5.1160  -37.3417 H   0  0  0  0  0  0  0  0  0  0  0  0
  -32.1018    5.8058  -29.2863 C   0  0  0  0  0  0  0  0  0  0  0  0
  -31.7204    7.0405  -28.6898 O   0  0  0  0  0  0  0  0  0  0  0  0
  -34.1116    7.2858  -28.1907 O   0  0  0  0  0  0  0  0  0  0  0  0
  -32.7806    7.8769  -27.8281 P   0  0  0  0  0  0  0  0  0  0  0  0
  -32.5424    9.3520  -28.0329 O   0  0  0  0  0  0  0  0  0  0  0  0
  -34.2967    7.4565  -29.1275 H   0  0  0  0  0  0  0  0  0  0  0  0
  -32.4231    7.5901  -26.1689 N   0  0  0  0  0  0  0  0  0  0  0  0
  -33.2306    7.1072  -25.7750 H   0  0  0  0  0  0  0  0  0  0  0  0
  -31.2553    6.8216  -25.7920 C   0  0  0  0  0  0  0  0  0  0  0  0
  -29.9624    7.6302  -25.7617 C   0  0  0  0  0  0  0  0  0  0  0  0
  -31.4919    6.2844  -24.4299 C   0  0  0  0  0  0  0  0  0  0  0  0
  -31.1091    6.8338  -23.4159 O   0  0  0  0  0  0  0  0  0  0  0  0
  -32.2157    5.0600  -24.3359 O   0  0  0  0  0  0  0  0  0  0  0  0
  -31.4786    3.8532  -24.1301 C   0  0  0  0  0  0  0  0  0  0  0  0
 19 18  1  0  0  0
 18 17  2  0  0  0
 18 12  1  0  0  0
 17 16  1  0  0  0
 12 13  1  0  0  0
 12 11  2  0  0  0
 16 15  2  0  0  0
 13 14  2  0  0  0
 11 15  1  0  0  0
 11 10  1  0  0  0
 14 10  1  0  0  0
 10  6  1  0  0  0
  6  4  1  0  0  0
  6  7  1  0  0  0
  5  4  1  0  0  0
  4  2  1  0  0  0
  7  1  1  0  0  0
  2  1  1  0  0  0
  2  3  1  0  0  0
  1 22  1  0  0  0
 22 23  1  0  0  0
 23 25  1  0  0  0
 33 32  2  0  0  0
 26 25  2  0  0  0
 28 25  1  0  0  0
 28 30  1  0  0  0
 25 24  1  0  0  0
 32 30  1  0  0  0
 32 34  1  0  0  0
 31 30  1  0  0  0
 35 34  1  0  0  0
 24 27  1  0  0  0
  3  8  1  0  0  0
  5  9  1  0  0  0
 19 20  1  0  0  0
 19 21  1  0  0  0
 28 29  1  0  0  0
M  END
> <minimizedAffinity>
-7.61484

$$$$
5WA8_9ZA_A_201


 35 37  0  0  0  0  0  0  0  0999 V2000
  -33.2657    8.9685  -28.3633 C   0  0  0  0  0  0  0  0  0  0  0  0
  -32.2564   10.1114  -28.1945 C   0  0  0  0  0  0  0  0  0  0  0  0
  -32.6530   11.2362  -28.9983 O   0  0  0  0  0  0  0  0  0  0  0  0
  -32.2970   10.4040  -26.6964 C   0  0  0  0  0  0  0  0  0  0  0  0
  -32.2067   11.7868  -26.3452 O   0  0  0  0  0  0  0  0  0  0  0  0
  -33.6595    9.8480  -26.3175 C   0  0  0  0  0  0  0  0  0  0  0  0
  -33.7789    8.6556  -27.0678 O   0  0  0  0  0  0  0  0  0  0  0  0
  -33.5527   11.5057  -28.7558 H   0  0  0  0  0  0  0  0  0  0  0  0
  -32.9357   12.2740  -26.7600 H   0  0  0  0  0  0  0  0  0  0  0  0
  -33.7865    9.4683  -24.9042 N   0  0  0  0  0  0  0  0  0  0  0  0
  -32.9811    8.5979  -24.3146 C   0  0  0  0  0  0  0  0  0  0  0  0
  -33.4332    8.5420  -22.9360 C   0  0  0  0  0  0  0  0  0  0  0  0
  -34.4705    9.3845  -22.8129 N   0  0  0  0  0  0  0  0  0  0  0  0
  -34.6699    9.9648  -24.0207 C   0  0  0  0  0  0  0  0  0  0  0  0
  -31.9460    7.8464  -24.7474 N   0  0  0  0  0  0  0  0  0  0  0  0
  -31.3241    7.0332  -23.8808 C   0  0  0  0  0  0  0  0  0  0  0  0
  -31.6860    6.9218  -22.5877 N   0  0  0  0  0  0  0  0  0  0  0  0
  -32.7084    7.6247  -22.0590 C   0  0  0  0  0  0  0  0  0  0  0  0
  -33.0741    7.4971  -20.7577 N   0  0  0  0  0  0  0  0  0  0  0  0
  -32.5855    6.8790  -20.1674 H   0  0  0  0  0  0  0  0  0  0  0  0
  -33.8279    8.0227  -20.4044 H   0  0  0  0  0  0  0  0  0  0  0  0
  -32.6578    7.6947  -28.9246 C   0  0  0  0  0  0  0  0  0  0  0  0
  -31.2439    7.8109  -28.8108 O   0  0  0  0  0  0  0  0  0  0  0  0
  -31.3750    5.4856  -28.0343 O   0  0  0  0  0  0  0  0  0  0  0  0
  -30.3848    6.5995  -28.2100 P   0  0  0  0  0  0  0  0  0  0  0  0
  -29.5946    7.0854  -27.0208 O   0  0  0  0  0  0  0  0  0  0  0  0
  -32.0309    5.7384  -27.3658 H   0  0  0  0  0  0  0  0  0  0  0  0
  -29.2058    6.1802  -29.3920 N   0  0  0  0  0  0  0  0  0  0  0  0
  -28.3384    5.9966  -28.8875 H   0  0  0  0  0  0  0  0  0  0  0  0
  -29.4197    5.0521  -30.2739 C   0  0  0  0  0  0  0  0  0  0  0  0
  -30.6134    5.2125  -31.2097 C   0  0  0  0  0  0  0  0  0  0  0  0
  -28.2024    4.8962  -31.1067 C   0  0  0  0  0  0  0  0  0  0  0  0
  -27.1196    5.3588  -30.8060 O   0  0  0  0  0  0  0  0  0  0  0  0
  -28.3383    4.1533  -32.3156 O   0  0  0  0  0  0  0  0  0  0  0  0
  -27.5485    4.5431  -33.4409 C   0  0  0  0  0  0  0  0  0  0  0  0
 19 18  1  0  0  0
 18 17  2  0  0  0
 18 12  1  0  0  0
 17 16  1  0  0  0
 12 13  1  0  0  0
 12 11  2  0  0  0
 16 15  2  0  0  0
 13 14  2  0  0  0
 11 15  1  0  0  0
 11 10  1  0  0  0
 14 10  1  0  0  0
 10  6  1  0  0  0
  6  4  1  0  0  0
  6  7  1  0  0  0
  5  4  1  0  0  0
  4  2  1  0  0  0
  7  1  1  0  0  0
  2  1  1  0  0  0
  2  3  1  0  0  0
  1 22  1  0  0  0
 22 23  1  0  0  0
 23 25  1  0  0  0
 33 32  2  0  0  0
 26 25  2  0  0  0
 28 25  1  0  0  0
 28 30  1  0  0  0
 25 24  1  0  0  0
 32 30  1  0  0  0
 32 34  1  0  0  0
 31 30  1  0  0  0
 35 34  1  0  0  0
 24 27  1  0  0  0
  3  8  1  0  0  0
  5  9  1  0  0  0
 19 20  1  0  0  0
 19 21  1  0  0  0
 28 29  1  0  0  0
M  END
> <minimizedAffinity>
-7.51210

$$$$
5WA8_9ZA_A_201


 35 37  0  0  0  0  0  0  0  0999 V2000
  -31.0480    6.0736  -29.0144 C   0  0  0  0  0  0  0  0  0  0  0  0
  -32.4778    5.6065  -29.3157 C   0  0  0  0  0  0  0  0  0  0  0  0
  -33.4012    6.6872  -29.0974 O   0  0  0  0  0  0  0  0  0  0  0  0
  -32.4082    5.1661  -30.7762 C   0  0  0  0  0  0  0  0  0  0  0  0
  -33.5579    5.4874  -31.5626 O   0  0  0  0  0  0  0  0  0  0  0  0
  -31.1963    5.9403  -31.2670 C   0  0  0  0  0  0  0  0  0  0  0  0
  -30.2737    5.8734  -30.1976 O   0  0  0  0  0  0  0  0  0  0  0  0
  -33.1438    7.4475  -29.6420 H   0  0  0  0  0  0  0  0  0  0  0  0
  -33.6998    6.4469  -31.5509 H   0  0  0  0  0  0  0  0  0  0  0  0
  -30.5299    5.3457  -32.4331 N   0  0  0  0  0  0  0  0  0  0  0  0
  -30.9284    5.5560  -33.6785 C   0  0  0  0  0  0  0  0  0  0  0  0
  -29.9886    4.8183  -34.5033 C   0  0  0  0  0  0  0  0  0  0  0  0
  -29.1038    4.2284  -33.6847 N   0  0  0  0  0  0  0  0  0  0  0  0
  -29.4303    4.5722  -32.4157 C   0  0  0  0  0  0  0  0  0  0  0  0
  -31.9483    6.2530  -34.2241 N   0  0  0  0  0  0  0  0  0  0  0  0
  -32.0911    6.2622  -35.5577 C   0  0  0  0  0  0  0  0  0  0  0  0
  -31.2641    5.6003  -36.3902 N   0  0  0  0  0  0  0  0  0  0  0  0
  -30.2196    4.8722  -35.9455 C   0  0  0  0  0  0  0  0  0  0  0  0
  -29.3984    4.1982  -36.7909 N   0  0  0  0  0  0  0  0  0  0  0  0
  -29.5545    4.2349  -37.7623 H   0  0  0  0  0  0  0  0  0  0  0  0
  -28.6469    3.6729  -36.4326 H   0  0  0  0  0  0  0  0  0  0  0  0
  -30.3729    5.2939  -27.8993 C   0  0  0  0  0  0  0  0  0  0  0  0
  -31.3969    4.8054  -27.0401 O   0  0  0  0  0  0  0  0  0  0  0  0
  -29.6873    3.5619  -25.7918 O   0  0  0  0  0  0  0  0  0  0  0  0
  -31.0221    4.2197  -25.5969 P   0  0  0  0  0  0  0  0  0  0  0  0
  -32.1790    3.4100  -25.0674 O   0  0  0  0  0  0  0  0  0  0  0  0
  -29.7829    2.8096  -26.3967 H   0  0  0  0  0  0  0  0  0  0  0  0
  -30.8851    5.5608  -24.5265 N   0  0  0  0  0  0  0  0  0  0  0  0
  -30.1019    6.1226  -24.8604 H   0  0  0  0  0  0  0  0  0  0  0  0
  -31.9977    6.4684  -24.3410 C   0  0  0  0  0  0  0  0  0  0  0  0
  -32.0579    7.1029  -22.9553 C   0  0  0  0  0  0  0  0  0  0  0  0
  -31.8595    7.5577  -25.3381 C   0  0  0  0  0  0  0  0  0  0  0  0
  -30.9308    8.3413  -25.3518 O   0  0  0  0  0  0  0  0  0  0  0  0
  -32.8825    7.6625  -26.3252 O   0  0  0  0  0  0  0  0  0  0  0  0
  -34.0600    8.4048  -26.0021 C   0  0  0  0  0  0  0  0  0  0  0  0
 19 18  1  0  0  0
 18 17  2  0  0  0
 18 12  1  0  0  0
 17 16  1  0  0  0
 12 13  1  0  0  0
 12 11  2  0  0  0
 16 15  2  0  0  0
 13 14  2  0  0  0
 11 15  1  0  0  0
 11 10  1  0  0  0
 14 10  1  0  0  0
 10  6  1  0  0  0
  6  4  1  0  0  0
  6  7  1  0  0  0
  5  4  1  0  0  0
  4  2  1  0  0  0
  7  1  1  0  0  0
  2  1  1  0  0  0
  2  3  1  0  0  0
  1 22  1  0  0  0
 22 23  1  0  0  0
 23 25  1  0  0  0
 33 32  2  0  0  0
 26 25  2  0  0  0
 28 25  1  0  0  0
 28 30  1  0  0  0
 25 24  1  0  0  0
 32 30  1  0  0  0
 32 34  1  0  0  0
 31 30  1  0  0  0
 35 34  1  0  0  0
 24 27  1  0  0  0
  3  8  1  0  0  0
  5  9  1  0  0  0
 19 20  1  0  0  0
 19 21  1  0  0  0
 28 29  1  0  0  0
M  END
> <minimizedAffinity>
-7.05243

$$$$
5WA8_9ZA_A_201


 35 37  0  0  0  0  0  0  0  0999 V2000
  -34.0242    9.3158  -27.3318 C   0  0  0  0  0  0  0  0  0  0  0  0
  -33.6882   10.8031  -27.1634 C   0  0  0  0  0  0  0  0  0  0  0  0
  -34.6697   11.6058  -27.8423 O   0  0  0  0  0  0  0  0  0  0  0  0
  -33.6983   11.0013  -25.6493 C   0  0  0  0  0  0  0  0  0  0  0  0
  -34.2547   12.2401  -25.2029 O   0  0  0  0  0  0  0  0  0  0  0  0
  -34.5650    9.8373  -25.1988 C   0  0  0  0  0  0  0  0  0  0  0  0
  -34.1713    8.7594  -26.0247 O   0  0  0  0  0  0  0  0  0  0  0  0
  -35.5530   11.3911  -27.5040 H   0  0  0  0  0  0  0  0  0  0  0  0
  -35.1699   12.3149  -25.5156 H   0  0  0  0  0  0  0  0  0  0  0  0
  -34.3318    9.4101  -23.8129 N   0  0  0  0  0  0  0  0  0  0  0  0
  -35.0106    9.8937  -22.7836 C   0  0  0  0  0  0  0  0  0  0  0  0
  -34.4910    9.1881  -21.6261 C   0  0  0  0  0  0  0  0  0  0  0  0
  -33.5454    8.3390  -22.0571 N   0  0  0  0  0  0  0  0  0  0  0  0
  -33.4662    8.4663  -23.4035 C   0  0  0  0  0  0  0  0  0  0  0  0
  -35.9783   10.8279  -22.6633 N   0  0  0  0  0  0  0  0  0  0  0  0
  -36.4681   11.1054  -21.4458 C   0  0  0  0  0  0  0  0  0  0  0  0
  -36.0361   10.4977  -20.3236 N   0  0  0  0  0  0  0  0  0  0  0  0
  -35.0713    9.5555  -20.3360 C   0  0  0  0  0  0  0  0  0  0  0  0
  -34.6334    8.9570  -19.1987 N   0  0  0  0  0  0  0  0  0  0  0  0
  -35.0246    9.2049  -18.3299 H   0  0  0  0  0  0  0  0  0  0  0  0
  -33.9245    8.2752  -19.2428 H   0  0  0  0  0  0  0  0  0  0  0  0
  -32.9398    8.5209  -28.0383 C   0  0  0  0  0  0  0  0  0  0  0  0
  -31.6898    9.1124  -27.7021 O   0  0  0  0  0  0  0  0  0  0  0  0
  -31.4753    7.3747  -25.9813 O   0  0  0  0  0  0  0  0  0  0  0  0
  -30.6352    8.3057  -26.8057 P   0  0  0  0  0  0  0  0  0  0  0  0
  -29.7121    9.2797  -26.1174 O   0  0  0  0  0  0  0  0  0  0  0  0
  -32.0352    7.8907  -25.3804 H   0  0  0  0  0  0  0  0  0  0  0  0
  -29.6289    7.4182  -27.8840 N   0  0  0  0  0  0  0  0  0  0  0  0
  -28.7724    7.2024  -27.3738 H   0  0  0  0  0  0  0  0  0  0  0  0
  -30.0913    6.1746  -28.4636 C   0  0  0  0  0  0  0  0  0  0  0  0
  -29.3220    5.7452  -29.7086 C   0  0  0  0  0  0  0  0  0  0  0  0
  -29.9319    5.1149  -27.4382 C   0  0  0  0  0  0  0  0  0  0  0  0
  -28.8528    4.7280  -27.0349 O   0  0  0  0  0  0  0  0  0  0  0  0
  -31.1261    4.5425  -26.9108 O   0  0  0  0  0  0  0  0  0  0  0  0
  -31.0075    3.4233  -26.0302 C   0  0  0  0  0  0  0  0  0  0  0  0
 19 18  1  0  0  0
 18 17  2  0  0  0
 18 12  1  0  0  0
 17 16  1  0  0  0
 12 13  1  0  0  0
 12 11  2  0  0  0
 16 15  2  0  0  0
 13 14  2  0  0  0
 11 15  1  0  0  0
 11 10  1  0  0  0
 14 10  1  0  0  0
 10  6  1  0  0  0
  6  4  1  0  0  0
  6  7  1  0  0  0
  5  4  1  0  0  0
  4  2  1  0  0  0
  7  1  1  0  0  0
  2  1  1  0  0  0
  2  3  1  0  0  0
  1 22  1  0  0  0
 22 23  1  0  0  0
 23 25  1  0  0  0
 33 32  2  0  0  0
 26 25  2  0  0  0
 28 25  1  0  0  0
 28 30  1  0  0  0
 25 24  1  0  0  0
 32 30  1  0  0  0
 32 34  1  0  0  0
 31 30  1  0  0  0
 35 34  1  0  0  0
 24 27  1  0  0  0
  3  8  1  0  0  0
  5  9  1  0  0  0
 19 20  1  0  0  0
 19 21  1  0  0  0
 28 29  1  0  0  0
M  END
> <minimizedAffinity>
-6.95532

$$$$
5WA8_9ZA_A_201


 35 37  0  0  0  0  0  0  0  0999 V2000
  -32.1064    7.5094  -25.8106 C   0  0  0  0  0  0  0  0  0  0  0  0
  -32.1912    8.9577  -26.3091 C   0  0  0  0  0  0  0  0  0  0  0  0
  -32.8699    8.9995  -27.5764 O   0  0  0  0  0  0  0  0  0  0  0  0
  -32.9565    9.6726  -25.1978 C   0  0  0  0  0  0  0  0  0  0  0  0
  -33.8899   10.6602  -25.6417 O   0  0  0  0  0  0  0  0  0  0  0  0
  -33.6843    8.5128  -24.5388 C   0  0  0  0  0  0  0  0  0  0  0  0
  -32.7425    7.4584  -24.5329 O   0  0  0  0  0  0  0  0  0  0  0  0
  -33.7461    8.5928  -27.4874 H   0  0  0  0  0  0  0  0  0  0  0  0
  -34.5418   10.2478  -26.2298 H   0  0  0  0  0  0  0  0  0  0  0  0
  -34.0568    8.7498  -23.1378 N   0  0  0  0  0  0  0  0  0  0  0  0
  -35.1339    9.4334  -22.7821 C   0  0  0  0  0  0  0  0  0  0  0  0
  -35.1380    9.3993  -21.3307 C   0  0  0  0  0  0  0  0  0  0  0  0
  -34.0646    8.6969  -20.9365 N   0  0  0  0  0  0  0  0  0  0  0  0
  -33.4155    8.2843  -22.0517 C   0  0  0  0  0  0  0  0  0  0  0  0
  -36.0963   10.0803  -23.4742 N   0  0  0  0  0  0  0  0  0  0  0  0
  -37.0760   10.7022  -22.8017 C   0  0  0  0  0  0  0  0  0  0  0  0
  -37.1478   10.7199  -21.4564 N   0  0  0  0  0  0  0  0  0  0  0  0
  -36.2346   10.1087  -20.6745 C   0  0  0  0  0  0  0  0  0  0  0  0
  -36.3079   10.1420  -19.3192 N   0  0  0  0  0  0  0  0  0  0  0  0
  -37.0467   10.6200  -18.8778 H   0  0  0  0  0  0  0  0  0  0  0  0
  -35.6222    9.6881  -18.7779 H   0  0  0  0  0  0  0  0  0  0  0  0
  -30.6843    7.0099  -25.6240 C   0  0  0  0  0  0  0  0  0  0  0  0
  -30.7458    5.5965  -25.4684 O   0  0  0  0  0  0  0  0  0  0  0  0
  -30.3660    3.2504  -26.0838 O   0  0  0  0  0  0  0  0  0  0  0  0
  -30.2311    4.6365  -26.6431 P   0  0  0  0  0  0  0  0  0  0  0  0
  -28.8853    5.1138  -27.1287 O   0  0  0  0  0  0  0  0  0  0  0  0
  -29.7607    3.1442  -25.3333 H   0  0  0  0  0  0  0  0  0  0  0  0
  -31.2945    4.8561  -27.9787 N   0  0  0  0  0  0  0  0  0  0  0  0
  -32.0956    5.3831  -27.6311 H   0  0  0  0  0  0  0  0  0  0  0  0
  -30.8400    5.5330  -29.1752 C   0  0  0  0  0  0  0  0  0  0  0  0
  -30.3546    4.5937  -30.2744 C   0  0  0  0  0  0  0  0  0  0  0  0
  -31.9819    6.3135  -29.7106 C   0  0  0  0  0  0  0  0  0  0  0  0
  -31.9360    6.9444  -30.7482 O   0  0  0  0  0  0  0  0  0  0  0  0
  -33.1869    6.2991  -28.9493 O   0  0  0  0  0  0  0  0  0  0  0  0
  -34.4156    6.5782  -29.6233 C   0  0  0  0  0  0  0  0  0  0  0  0
 19 18  1  0  0  0
 18 17  2  0  0  0
 18 12  1  0  0  0
 17 16  1  0  0  0
 12 13  1  0  0  0
 12 11  2  0  0  0
 16 15  2  0  0  0
 13 14  2  0  0  0
 11 15  1  0  0  0
 11 10  1  0  0  0
 14 10  1  0  0  0
 10  6  1  0  0  0
  6  4  1  0  0  0
  6  7  1  0  0  0
  5  4  1  0  0  0
  4  2  1  0  0  0
  7  1  1  0  0  0
  2  1  1  0  0  0
  2  3  1  0  0  0
  1 22  1  0  0  0
 22 23  1  0  0  0
 23 25  1  0  0  0
 33 32  2  0  0  0
 26 25  2  0  0  0
 28 25  1  0  0  0
 28 30  1  0  0  0
 25 24  1  0  0  0
 32 30  1  0  0  0
 32 34  1  0  0  0
 31 30  1  0  0  0
 35 34  1  0  0  0
 24 27  1  0  0  0
  3  8  1  0  0  0
  5  9  1  0  0  0
 19 20  1  0  0  0
 19 21  1  0  0  0
 28 29  1  0  0  0
M  END
> <minimizedAffinity>
-6.94340

$$$$
