3SM2_478_A_126


 39 41  0  0  0  0  0  0  0  0999 V2000
   -2.1581    3.7088    9.3281 C   0  0  0  0  0  0  0  0  0  0  0  0
   -1.5550    2.4350    9.6428 O   0  0  0  0  0  0  0  0  0  0  0  0
   -2.0553    2.0076   10.3555 H   0  0  0  0  0  0  0  0  0  0  0  0
   -3.5820    3.5474    8.7305 C   0  0  0  0  0  0  0  0  0  0  0  0
   -4.3822    5.1060    6.9675 C   0  0  0  0  0  0  0  0  0  0  0  0
   -3.6438    4.0550    7.3607 N   0  0  0  0  0  0  0  0  0  0  0  0
   -5.1159    5.7714    7.6842 O   0  0  0  0  0  0  0  0  0  0  0  0
   -3.1057    3.5935    6.6776 H   0  0  0  0  0  0  0  0  0  0  0  0
   -4.2321    5.4420    5.5614 O   0  0  0  0  0  0  0  0  0  0  0  0
   -6.0380    5.7464    4.0774 C   0  0  0  0  0  0  0  0  0  0  0  0
   -4.3626    7.4376    4.2538 C   0  0  0  0  0  0  0  0  0  0  0  0
   -5.1239    6.4367    5.0741 C   0  0  0  0  0  0  0  0  0  0  0  0
   -4.8035    7.1696    2.8157 C   0  0  0  0  0  0  0  0  0  0  0  0
   -5.3613    5.8648    2.8322 O   0  0  0  0  0  0  0  0  0  0  0  0
   -4.1817    2.1251    8.7152 C   0  0  0  0  0  0  0  0  0  0  0  0
   -5.6796    2.1788    8.9840 C   0  0  0  0  0  0  0  0  0  0  0  0
   -6.5339    1.3263    8.2665 C   0  0  0  0  0  0  0  0  0  0  0  0
   -6.2429    3.0620    9.9313 C   0  0  0  0  0  0  0  0  0  0  0  0
   -7.9225    1.3447    8.4545 C   0  0  0  0  0  0  0  0  0  0  0  0
   -7.6351    3.0797   10.1060 C   0  0  0  0  0  0  0  0  0  0  0  0
   -8.4649    2.2453    9.3685 C   0  0  0  0  0  0  0  0  0  0  0  0
   -2.0631    4.6183   10.5688 C   0  0  0  0  0  0  0  0  0  0  0  0
   -1.3561    3.8617   11.6281 N   0  0  0  0  0  0  0  0  0  0  0  0
    0.1212    5.8524   11.8878 O   0  0  0  0  0  0  0  0  0  0  0  0
    0.9094    3.9204   10.7282 O   0  0  0  0  0  0  0  0  0  0  0  0
    0.1629    4.4209   11.8543 S   0  0  0  0  0  0  0  0  0  0  0  0
    0.8360    3.9761   13.2477 C   0  0  0  0  0  0  0  0  0  0  0  0
    1.2090    2.6403   13.4302 C   0  0  0  0  0  0  0  0  0  0  0  0
    1.8008    2.2395   14.6362 C   0  0  0  0  0  0  0  0  0  0  0  0
    2.0349    3.1843   15.6351 C   0  0  0  0  0  0  0  0  0  0  0  0
    1.6643    4.5078   15.4481 C   0  0  0  0  0  0  0  0  0  0  0  0
    1.0650    4.9092   14.2524 C   0  0  0  0  0  0  0  0  0  0  0  0
    2.6201    2.8259   16.8118 N   0  0  0  0  0  0  0  0  0  0  0  0
    2.8899    1.8912   16.9628 H   0  0  0  0  0  0  0  0  0  0  0  0
    2.7731    3.5016   17.5114 H   0  0  0  0  0  0  0  0  0  0  0  0
   -2.1758    3.6126   12.8379 C   0  0  0  0  0  0  0  0  0  0  0  0
   -2.4902    2.1072   13.0246 C   0  0  0  0  0  0  0  0  0  0  0  0
   -2.3951    1.6512   14.4724 C   0  0  0  0  0  0  0  0  0  0  0  0
   -3.8861    1.7428   12.5274 C   0  0  0  0  0  0  0  0  0  0  0  0
 10 12  1  0  0  0
 10 14  1  0  0  0
 11 12  1  0  0  0
 11 13  1  0  0  0
  5  6  1  0  0  0
  5  9  1  0  0  0
  5  7  2  0  0  0
 12  9  1  0  0  0
  4  1  1  0  0  0
  4 15  1  0  0  0
  4  6  1  0  0  0
  1 22  1  0  0  0
  1  2  1  0  0  0
 15 16  1  0  0  0
 16 17  2  0  0  0
 16 18  1  0  0  0
 17 19  1  0  0  0
 18 20  2  0  0  0
 19 21  2  0  0  0
 20 21  1  0  0  0
 22 23  1  0  0  0
 36 37  1  0  0  0
 36 23  1  0  0  0
 37 38  1  0  0  0
 37 39  1  0  0  0
 27 28  2  0  0  0
 27 32  1  0  0  0
 27 26  1  0  0  0
 28 29  1  0  0  0
 29 30  2  0  0  0
 30 31  1  0  0  0
 30 33  1  0  0  0
 31 32  2  0  0  0
 13 14  1  0  0  0
 23 26  1  0  0  0
 24 26  2  0  0  0
 25 26  2  0  0  0
  6  8  1  0  0  0
 33 34  1  0  0  0
 33 35  1  0  0  0
  2  3  1  0  0  0
M  END
> <minimizedAffinity>
-8.83802

$$$$
3SM2_478_A_126


 39 41  0  0  0  0  0  0  0  0999 V2000
   -3.7027    2.5835    8.8513 C   0  0  0  0  0  0  0  0  0  0  0  0
   -3.1825    1.2703    8.5513 O   0  0  0  0  0  0  0  0  0  0  0  0
   -2.3270    1.3562    8.1021 H   0  0  0  0  0  0  0  0  0  0  0  0
   -2.8210    3.3375    9.8832 C   0  0  0  0  0  0  0  0  0  0  0  0
   -2.9977    2.6948   12.2777 C   0  0  0  0  0  0  0  0  0  0  0  0
   -2.5178    2.4949   11.0391 N   0  0  0  0  0  0  0  0  0  0  0  0
   -3.7332    3.6096   12.6197 O   0  0  0  0  0  0  0  0  0  0  0  0
   -1.9191    1.7259   10.8996 H   0  0  0  0  0  0  0  0  0  0  0  0
   -2.5868    1.6873   13.2414 O   0  0  0  0  0  0  0  0  0  0  0  0
   -1.9415    1.3933   15.4894 C   0  0  0  0  0  0  0  0  0  0  0  0
   -4.2068    0.9902   14.8536 C   0  0  0  0  0  0  0  0  0  0  0  0
   -3.0425    1.8956   14.5723 C   0  0  0  0  0  0  0  0  0  0  0  0
   -3.6564   -0.0512   15.8267 C   0  0  0  0  0  0  0  0  0  0  0  0
   -2.2455    0.0188   15.6914 O   0  0  0  0  0  0  0  0  0  0  0  0
   -1.4811    3.9130    9.3769 C   0  0  0  0  0  0  0  0  0  0  0  0
   -0.6497    4.4261   10.5449 C   0  0  0  0  0  0  0  0  0  0  0  0
    0.5459    3.7680   10.8744 C   0  0  0  0  0  0  0  0  0  0  0  0
   -1.0421    5.5438   11.3141 C   0  0  0  0  0  0  0  0  0  0  0  0
    1.3425    4.1802   11.9511 C   0  0  0  0  0  0  0  0  0  0  0  0
   -0.2428    5.9436   12.3960 C   0  0  0  0  0  0  0  0  0  0  0  0
    0.9240    5.2638   12.7203 C   0  0  0  0  0  0  0  0  0  0  0  0
   -3.9501    3.3296    7.5257 C   0  0  0  0  0  0  0  0  0  0  0  0
   -5.1643    4.1606    7.6971 N   0  0  0  0  0  0  0  0  0  0  0  0
   -3.4880    5.9710    7.3426 O   0  0  0  0  0  0  0  0  0  0  0  0
   -5.6472    6.4937    8.2161 O   0  0  0  0  0  0  0  0  0  0  0  0
   -4.8952    5.7141    7.2661 S   0  0  0  0  0  0  0  0  0  0  0  0
   -5.3170    6.0684    5.7531 C   0  0  0  0  0  0  0  0  0  0  0  0
   -6.6347    6.4528    5.4837 C   0  0  0  0  0  0  0  0  0  0  0  0
   -7.0150    6.7691    4.1720 C   0  0  0  0  0  0  0  0  0  0  0  0
   -6.0670    6.7212    3.1502 C   0  0  0  0  0  0  0  0  0  0  0  0
   -4.7614    6.3408    3.4233 C   0  0  0  0  0  0  0  0  0  0  0  0
   -4.3808    6.0147    4.7268 C   0  0  0  0  0  0  0  0  0  0  0  0
   -6.4051    7.0358    1.8687 N   0  0  0  0  0  0  0  0  0  0  0  0
   -7.3269    7.3080    1.6555 H   0  0  0  0  0  0  0  0  0  0  0  0
   -5.7277    6.9909    1.1556 H   0  0  0  0  0  0  0  0  0  0  0  0
   -6.4053    3.5220    7.1973 C   0  0  0  0  0  0  0  0  0  0  0  0
   -7.0916    2.6595    8.2860 C   0  0  0  0  0  0  0  0  0  0  0  0
   -7.4609    3.4507    9.5312 C   0  0  0  0  0  0  0  0  0  0  0  0
   -8.3682    1.9962    7.7776 C   0  0  0  0  0  0  0  0  0  0  0  0
 10 12  1  0  0  0
 10 14  1  0  0  0
 11 12  1  0  0  0
 11 13  1  0  0  0
  5  6  1  0  0  0
  5  9  1  0  0  0
  5  7  2  0  0  0
 12  9  1  0  0  0
  4  1  1  0  0  0
  4 15  1  0  0  0
  4  6  1  0  0  0
  1 22  1  0  0  0
  1  2  1  0  0  0
 15 16  1  0  0  0
 16 17  2  0  0  0
 16 18  1  0  0  0
 17 19  1  0  0  0
 18 20  2  0  0  0
 19 21  2  0  0  0
 20 21  1  0  0  0
 22 23  1  0  0  0
 36 37  1  0  0  0
 36 23  1  0  0  0
 37 38  1  0  0  0
 37 39  1  0  0  0
 27 28  2  0  0  0
 27 32  1  0  0  0
 27 26  1  0  0  0
 28 29  1  0  0  0
 29 30  2  0  0  0
 30 31  1  0  0  0
 30 33  1  0  0  0
 31 32  2  0  0  0
 13 14  1  0  0  0
 23 26  1  0  0  0
 24 26  2  0  0  0
 25 26  2  0  0  0
  6  8  1  0  0  0
 33 34  1  0  0  0
 33 35  1  0  0  0
  2  3  1  0  0  0
M  END
> <minimizedAffinity>
-8.57780

$$$$
3SM2_478_A_126


 39 41  0  0  0  0  0  0  0  0999 V2000
   -5.2345    3.7329    9.6226 C   0  0  0  0  0  0  0  0  0  0  0  0
   -6.2488    3.7474   10.6503 O   0  0  0  0  0  0  0  0  0  0  0  0
   -6.2203    2.9132   11.1445 H   0  0  0  0  0  0  0  0  0  0  0  0
   -3.8012    3.7089   10.2189 C   0  0  0  0  0  0  0  0  0  0  0  0
   -3.3846    2.8740   12.5226 C   0  0  0  0  0  0  0  0  0  0  0  0
   -3.6625    2.6583   11.2263 N   0  0  0  0  0  0  0  0  0  0  0  0
   -3.1904    3.9649   13.0395 O   0  0  0  0  0  0  0  0  0  0  0  0
   -3.7814    1.7259   10.9335 H   0  0  0  0  0  0  0  0  0  0  0  0
   -3.3488    1.6656   13.3295 O   0  0  0  0  0  0  0  0  0  0  0  0
   -2.1948    1.3037   15.3528 C   0  0  0  0  0  0  0  0  0  0  0  0
   -4.5617    1.0024   15.2784 C   0  0  0  0  0  0  0  0  0  0  0  0
   -3.4615    1.8663   14.7327 C   0  0  0  0  0  0  0  0  0  0  0  0
   -3.8385   -0.0782   16.0807 C   0  0  0  0  0  0  0  0  0  0  0  0
   -2.5000   -0.0614   15.6098 O   0  0  0  0  0  0  0  0  0  0  0  0
   -2.6292    3.5453    9.2278 C   0  0  0  0  0  0  0  0  0  0  0  0
   -1.3650    4.1787    9.7930 C   0  0  0  0  0  0  0  0  0  0  0  0
   -0.2328    3.3754   10.0028 C   0  0  0  0  0  0  0  0  0  0  0  0
   -1.2917    5.5512   10.1181 C   0  0  0  0  0  0  0  0  0  0  0  0
    0.9521    3.8963   10.5398 C   0  0  0  0  0  0  0  0  0  0  0  0
   -0.1041    6.0619   10.6639 C   0  0  0  0  0  0  0  0  0  0  0  0
    0.9968    5.2450   10.8863 C   0  0  0  0  0  0  0  0  0  0  0  0
   -5.5550    2.5975    8.6308 C   0  0  0  0  0  0  0  0  0  0  0  0
   -6.3686    3.1737    7.5351 N   0  0  0  0  0  0  0  0  0  0  0  0
   -8.5085    3.3540    8.8005 O   0  0  0  0  0  0  0  0  0  0  0  0
   -7.8963    1.2881    7.7728 O   0  0  0  0  0  0  0  0  0  0  0  0
   -7.9355    2.7230    7.6491 S   0  0  0  0  0  0  0  0  0  0  0  0
   -8.8520    3.1789    6.4062 C   0  0  0  0  0  0  0  0  0  0  0  0
   -8.4790    2.8074    5.1102 C   0  0  0  0  0  0  0  0  0  0  0  0
   -9.2699    3.1929    4.0189 C   0  0  0  0  0  0  0  0  0  0  0  0
  -10.4373    3.9236    4.2392 C   0  0  0  0  0  0  0  0  0  0  0  0
  -10.8030    4.2880    5.5265 C   0  0  0  0  0  0  0  0  0  0  0  0
  -10.0124    3.9152    6.6156 C   0  0  0  0  0  0  0  0  0  0  0  0
  -11.2318    4.3006    3.1989 N   0  0  0  0  0  0  0  0  0  0  0  0
  -10.9885    4.0513    2.2781 H   0  0  0  0  0  0  0  0  0  0  0  0
  -12.0494    4.8225    3.3679 H   0  0  0  0  0  0  0  0  0  0  0  0
   -6.0908    4.6053    7.2689 C   0  0  0  0  0  0  0  0  0  0  0  0
   -5.1616    4.7970    6.0442 C   0  0  0  0  0  0  0  0  0  0  0  0
   -5.8532    5.4686    4.8679 C   0  0  0  0  0  0  0  0  0  0  0  0
   -3.9290    5.6315    6.3795 C   0  0  0  0  0  0  0  0  0  0  0  0
 10 12  1  0  0  0
 10 14  1  0  0  0
 11 12  1  0  0  0
 11 13  1  0  0  0
  5  6  1  0  0  0
  5  9  1  0  0  0
  5  7  2  0  0  0
 12  9  1  0  0  0
  4  1  1  0  0  0
  4 15  1  0  0  0
  4  6  1  0  0  0
  1 22  1  0  0  0
  1  2  1  0  0  0
 15 16  1  0  0  0
 16 17  2  0  0  0
 16 18  1  0  0  0
 17 19  1  0  0  0
 18 20  2  0  0  0
 19 21  2  0  0  0
 20 21  1  0  0  0
 22 23  1  0  0  0
 36 37  1  0  0  0
 36 23  1  0  0  0
 37 38  1  0  0  0
 37 39  1  0  0  0
 27 28  2  0  0  0
 27 32  1  0  0  0
 27 26  1  0  0  0
 28 29  1  0  0  0
 29 30  2  0  0  0
 30 31  1  0  0  0
 30 33  1  0  0  0
 31 32  2  0  0  0
 13 14  1  0  0  0
 23 26  1  0  0  0
 24 26  2  0  0  0
 25 26  2  0  0  0
  6  8  1  0  0  0
 33 34  1  0  0  0
 33 35  1  0  0  0
  2  3  1  0  0  0
M  END
> <minimizedAffinity>
-8.56233

$$$$
3SM2_478_A_126


 39 41  0  0  0  0  0  0  0  0999 V2000
   -3.8723    3.2524    7.9794 C   0  0  0  0  0  0  0  0  0  0  0  0
   -3.4042    2.3888    6.9209 O   0  0  0  0  0  0  0  0  0  0  0  0
   -3.7268    2.7189    6.0678 H   0  0  0  0  0  0  0  0  0  0  0  0
   -3.2613    4.6764    7.8825 C   0  0  0  0  0  0  0  0  0  0  0  0
   -3.8358    5.9828    5.8475 C   0  0  0  0  0  0  0  0  0  0  0  0
   -4.1121    5.5671    7.0946 N   0  0  0  0  0  0  0  0  0  0  0  0
   -2.8362    5.6966    5.2043 O   0  0  0  0  0  0  0  0  0  0  0  0
   -4.9474    5.8848    7.5076 H   0  0  0  0  0  0  0  0  0  0  0  0
   -4.8662    6.8242    5.2621 O   0  0  0  0  0  0  0  0  0  0  0  0
   -5.4521    6.8292    2.9789 C   0  0  0  0  0  0  0  0  0  0  0  0
   -7.1500    6.5208    4.6283 C   0  0  0  0  0  0  0  0  0  0  0  0
   -5.7197    6.1795    4.3249 C   0  0  0  0  0  0  0  0  0  0  0  0
   -7.5721    7.4496    3.4908 C   0  0  0  0  0  0  0  0  0  0  0  0
   -6.3600    7.9225    2.9244 O   0  0  0  0  0  0  0  0  0  0  0  0
   -2.9516    5.4011    9.2098 C   0  0  0  0  0  0  0  0  0  0  0  0
   -1.5843    4.9842    9.7346 C   0  0  0  0  0  0  0  0  0  0  0  0
   -0.7764    5.9391   10.3725 C   0  0  0  0  0  0  0  0  0  0  0  0
   -1.0962    3.6658    9.5989 C   0  0  0  0  0  0  0  0  0  0  0  0
    0.4993    5.6208   10.8571 C   0  0  0  0  0  0  0  0  0  0  0  0
    0.1861    3.3587   10.0790 C   0  0  0  0  0  0  0  0  0  0  0  0
    0.9791    4.3242   10.6853 C   0  0  0  0  0  0  0  0  0  0  0  0
   -5.4121    3.1968    8.0152 C   0  0  0  0  0  0  0  0  0  0  0  0
   -5.8024    2.1912    9.0306 N   0  0  0  0  0  0  0  0  0  0  0  0
   -6.9371    2.0867   11.2474 O   0  0  0  0  0  0  0  0  0  0  0  0
   -6.4774    4.2000   10.2368 O   0  0  0  0  0  0  0  0  0  0  0  0
   -5.9945    2.8694   10.5052 S   0  0  0  0  0  0  0  0  0  0  0  0
   -4.6582    2.9014   11.4030 C   0  0  0  0  0  0  0  0  0  0  0  0
   -4.2885    4.0931   12.0351 C   0  0  0  0  0  0  0  0  0  0  0  0
   -3.1303    4.1345   12.8239 C   0  0  0  0  0  0  0  0  0  0  0  0
   -2.3700    2.9773   12.9911 C   0  0  0  0  0  0  0  0  0  0  0  0
   -2.7421    1.7979   12.3631 C   0  0  0  0  0  0  0  0  0  0  0  0
   -3.8892    1.7550   11.5678 C   0  0  0  0  0  0  0  0  0  0  0  0
   -1.2471    2.9849   13.7623 N   0  0  0  0  0  0  0  0  0  0  0  0
   -0.9671    3.8126   14.2159 H   0  0  0  0  0  0  0  0  0  0  0  0
   -0.7156    2.1628   13.8660 H   0  0  0  0  0  0  0  0  0  0  0  0
   -6.8533    1.2512    8.5728 C   0  0  0  0  0  0  0  0  0  0  0  0
   -8.1746    1.9830    8.2281 C   0  0  0  0  0  0  0  0  0  0  0  0
   -8.5285    1.9144    6.7505 C   0  0  0  0  0  0  0  0  0  0  0  0
   -9.3638    1.4237    9.0035 C   0  0  0  0  0  0  0  0  0  0  0  0
 10 12  1  0  0  0
 10 14  1  0  0  0
 11 12  1  0  0  0
 11 13  1  0  0  0
  5  6  1  0  0  0
  5  9  1  0  0  0
  5  7  2  0  0  0
 12  9  1  0  0  0
  4  1  1  0  0  0
  4 15  1  0  0  0
  4  6  1  0  0  0
  1 22  1  0  0  0
  1  2  1  0  0  0
 15 16  1  0  0  0
 16 17  2  0  0  0
 16 18  1  0  0  0
 17 19  1  0  0  0
 18 20  2  0  0  0
 19 21  2  0  0  0
 20 21  1  0  0  0
 22 23  1  0  0  0
 36 37  1  0  0  0
 36 23  1  0  0  0
 37 38  1  0  0  0
 37 39  1  0  0  0
 27 28  2  0  0  0
 27 32  1  0  0  0
 27 26  1  0  0  0
 28 29  1  0  0  0
 29 30  2  0  0  0
 30 31  1  0  0  0
 30 33  1  0  0  0
 31 32  2  0  0  0
 13 14  1  0  0  0
 23 26  1  0  0  0
 24 26  2  0  0  0
 25 26  2  0  0  0
  6  8  1  0  0  0
 33 34  1  0  0  0
 33 35  1  0  0  0
  2  3  1  0  0  0
M  END
> <minimizedAffinity>
-8.30624

$$$$
3SM2_478_A_126


 39 41  0  0  0  0  0  0  0  0999 V2000
   -4.6938    3.8791    8.3197 C   0  0  0  0  0  0  0  0  0  0  0  0
   -4.2298    3.1644    7.1539 O   0  0  0  0  0  0  0  0  0  0  0  0
   -3.8340    3.7902    6.5273 H   0  0  0  0  0  0  0  0  0  0  0  0
   -3.5227    4.5091    9.1212 C   0  0  0  0  0  0  0  0  0  0  0  0
   -4.1474    4.4886   11.5268 C   0  0  0  0  0  0  0  0  0  0  0  0
   -3.4681    3.9828   10.4842 N   0  0  0  0  0  0  0  0  0  0  0  0
   -4.8862    5.4622   11.4932 O   0  0  0  0  0  0  0  0  0  0  0  0
   -2.8922    3.2016   10.6497 H   0  0  0  0  0  0  0  0  0  0  0  0
   -3.9612    3.7542   12.7671 O   0  0  0  0  0  0  0  0  0  0  0  0
   -4.0406    1.4902   13.4188 C   0  0  0  0  0  0  0  0  0  0  0  0
   -1.9453    2.6337   13.3918 C   0  0  0  0  0  0  0  0  0  0  0  0
   -3.2463    2.5306   12.6493 C   0  0  0  0  0  0  0  0  0  0  0  0
   -2.1281    1.7331   14.6124 C   0  0  0  0  0  0  0  0  0  0  0  0
   -3.5306    1.5616   14.7445 O   0  0  0  0  0  0  0  0  0  0  0  0
   -2.1062    4.3703    8.5238 C   0  0  0  0  0  0  0  0  0  0  0  0
   -1.0527    4.6106    9.5967 C   0  0  0  0  0  0  0  0  0  0  0  0
   -0.9801    5.8698   10.2138 C   0  0  0  0  0  0  0  0  0  0  0  0
   -0.1397    3.6084    9.9928 C   0  0  0  0  0  0  0  0  0  0  0  0
   -0.0190    6.1576   11.1921 C   0  0  0  0  0  0  0  0  0  0  0  0
    0.8250    3.9087   10.9666 C   0  0  0  0  0  0  0  0  0  0  0  0
    0.8954    5.1683   11.5472 C   0  0  0  0  0  0  0  0  0  0  0  0
   -5.8000    4.8612    7.8871 C   0  0  0  0  0  0  0  0  0  0  0  0
   -5.4176    5.4167    6.5682 N   0  0  0  0  0  0  0  0  0  0  0  0
   -7.7180    4.6359    6.0101 O   0  0  0  0  0  0  0  0  0  0  0  0
   -5.8449    3.8207    4.7749 O   0  0  0  0  0  0  0  0  0  0  0  0
   -6.4646    4.9623    5.3982 S   0  0  0  0  0  0  0  0  0  0  0  0
   -6.7969    6.1102    4.3191 C   0  0  0  0  0  0  0  0  0  0  0  0
   -8.0608    6.7095    4.3269 C   0  0  0  0  0  0  0  0  0  0  0  0
   -8.3627    7.7138    3.3966 C   0  0  0  0  0  0  0  0  0  0  0  0
   -7.3887    8.1237    2.4862 C   0  0  0  0  0  0  0  0  0  0  0  0
   -6.1367    7.5269    2.4839 C   0  0  0  0  0  0  0  0  0  0  0  0
   -5.8353    6.5187    3.4021 C   0  0  0  0  0  0  0  0  0  0  0  0
   -7.6499    9.1062    1.5795 N   0  0  0  0  0  0  0  0  0  0  0  0
   -8.5328    9.5415    1.5659 H   0  0  0  0  0  0  0  0  0  0  0  0
   -6.9556    9.3810    0.9378 H   0  0  0  0  0  0  0  0  0  0  0  0
   -5.0223    6.8449    6.6091 C   0  0  0  0  0  0  0  0  0  0  0  0
   -3.5313    7.0439    6.2386 C   0  0  0  0  0  0  0  0  0  0  0  0
   -2.9922    5.9563    5.3224 C   0  0  0  0  0  0  0  0  0  0  0  0
   -3.2815    8.3812    5.5474 C   0  0  0  0  0  0  0  0  0  0  0  0
 10 12  1  0  0  0
 10 14  1  0  0  0
 11 12  1  0  0  0
 11 13  1  0  0  0
  5  6  1  0  0  0
  5  9  1  0  0  0
  5  7  2  0  0  0
 12  9  1  0  0  0
  4  1  1  0  0  0
  4 15  1  0  0  0
  4  6  1  0  0  0
  1 22  1  0  0  0
  1  2  1  0  0  0
 15 16  1  0  0  0
 16 17  2  0  0  0
 16 18  1  0  0  0
 17 19  1  0  0  0
 18 20  2  0  0  0
 19 21  2  0  0  0
 20 21  1  0  0  0
 22 23  1  0  0  0
 36 37  1  0  0  0
 36 23  1  0  0  0
 37 38  1  0  0  0
 37 39  1  0  0  0
 27 28  2  0  0  0
 27 32  1  0  0  0
 27 26  1  0  0  0
 28 29  1  0  0  0
 29 30  2  0  0  0
 30 31  1  0  0  0
 30 33  1  0  0  0
 31 32  2  0  0  0
 13 14  1  0  0  0
 23 26  1  0  0  0
 24 26  2  0  0  0
 25 26  2  0  0  0
  6  8  1  0  0  0
 33 34  1  0  0  0
 33 35  1  0  0  0
  2  3  1  0  0  0
M  END
> <minimizedAffinity>
-8.28922

$$$$
3SM2_478_A_126


 39 41  0  0  0  0  0  0  0  0999 V2000
   -3.2167    2.3521   10.5511 C   0  0  0  0  0  0  0  0  0  0  0  0
   -1.9976    2.2642    9.7820 O   0  0  0  0  0  0  0  0  0  0  0  0
   -1.3820    2.9556   10.0716 H   0  0  0  0  0  0  0  0  0  0  0  0
   -2.9832    2.0299   12.0518 C   0  0  0  0  0  0  0  0  0  0  0  0
   -1.1230    3.5662   12.6496 C   0  0  0  0  0  0  0  0  0  0  0  0
   -1.6092    2.3297   12.4520 N   0  0  0  0  0  0  0  0  0  0  0  0
   -1.7447    4.6092   12.5071 O   0  0  0  0  0  0  0  0  0  0  0  0
   -0.9964    1.5709   12.5862 H   0  0  0  0  0  0  0  0  0  0  0  0
    0.2612    3.5943   13.0920 O   0  0  0  0  0  0  0  0  0  0  0  0
    1.6205    4.4717   14.8063 C   0  0  0  0  0  0  0  0  0  0  0  0
    0.9327    2.1878   14.9031 C   0  0  0  0  0  0  0  0  0  0  0  0
    0.4516    3.5520   14.5006 C   0  0  0  0  0  0  0  0  0  0  0  0
    2.3933    2.3978   15.2994 C   0  0  0  0  0  0  0  0  0  0  0  0
    2.7664    3.6346   14.7122 O   0  0  0  0  0  0  0  0  0  0  0  0
   -3.9140    2.7187   13.0726 C   0  0  0  0  0  0  0  0  0  0  0  0
   -3.9445    1.9326   14.3764 C   0  0  0  0  0  0  0  0  0  0  0  0
   -5.0868    1.1810   14.6950 C   0  0  0  0  0  0  0  0  0  0  0  0
   -2.8609    1.9354   15.2823 C   0  0  0  0  0  0  0  0  0  0  0  0
   -5.1824    0.4545   15.8895 C   0  0  0  0  0  0  0  0  0  0  0  0
   -2.9694    1.2125   16.4801 C   0  0  0  0  0  0  0  0  0  0  0  0
   -4.1180    0.4949   16.7875 C   0  0  0  0  0  0  0  0  0  0  0  0
   -3.8823    3.7124   10.2646 C   0  0  0  0  0  0  0  0  0  0  0  0
   -4.6478    3.5818    9.0032 N   0  0  0  0  0  0  0  0  0  0  0  0
   -3.3117    2.9183    7.0063 O   0  0  0  0  0  0  0  0  0  0  0  0
   -2.6884    4.8394    8.2788 O   0  0  0  0  0  0  0  0  0  0  0  0
   -3.7717    4.0753    7.7147 S   0  0  0  0  0  0  0  0  0  0  0  0
   -4.5996    4.9398    6.6378 C   0  0  0  0  0  0  0  0  0  0  0  0
   -3.9392    5.9315    5.9050 C   0  0  0  0  0  0  0  0  0  0  0  0
   -4.6460    6.6887    4.9604 C   0  0  0  0  0  0  0  0  0  0  0  0
   -5.9987    6.4279    4.7425 C   0  0  0  0  0  0  0  0  0  0  0  0
   -6.6482    5.4423    5.4709 C   0  0  0  0  0  0  0  0  0  0  0  0
   -5.9503    4.6929    6.4204 C   0  0  0  0  0  0  0  0  0  0  0  0
   -6.7075    7.1390    3.8219 N   0  0  0  0  0  0  0  0  0  0  0  0
   -6.2636    7.8425    3.2952 H   0  0  0  0  0  0  0  0  0  0  0  0
   -7.6635    6.9495    3.6831 H   0  0  0  0  0  0  0  0  0  0  0  0
   -5.3817    2.3001    8.8753 C   0  0  0  0  0  0  0  0  0  0  0  0
   -6.9098    2.4882    9.0473 C   0  0  0  0  0  0  0  0  0  0  0  0
   -7.7271    1.4067    8.3578 C   0  0  0  0  0  0  0  0  0  0  0  0
   -7.3283    2.5036   10.5146 C   0  0  0  0  0  0  0  0  0  0  0  0
 10 12  1  0  0  0
 10 14  1  0  0  0
 11 12  1  0  0  0
 11 13  1  0  0  0
  5  6  1  0  0  0
  5  9  1  0  0  0
  5  7  2  0  0  0
 12  9  1  0  0  0
  4  1  1  0  0  0
  4 15  1  0  0  0
  4  6  1  0  0  0
  1 22  1  0  0  0
  1  2  1  0  0  0
 15 16  1  0  0  0
 16 17  2  0  0  0
 16 18  1  0  0  0
 17 19  1  0  0  0
 18 20  2  0  0  0
 19 21  2  0  0  0
 20 21  1  0  0  0
 22 23  1  0  0  0
 36 37  1  0  0  0
 36 23  1  0  0  0
 37 38  1  0  0  0
 37 39  1  0  0  0
 27 28  2  0  0  0
 27 32  1  0  0  0
 27 26  1  0  0  0
 28 29  1  0  0  0
 29 30  2  0  0  0
 30 31  1  0  0  0
 30 33  1  0  0  0
 31 32  2  0  0  0
 13 14  1  0  0  0
 23 26  1  0  0  0
 24 26  2  0  0  0
 25 26  2  0  0  0
  6  8  1  0  0  0
 33 34  1  0  0  0
 33 35  1  0  0  0
  2  3  1  0  0  0
M  END
> <minimizedAffinity>
-8.09899

$$$$
3SM2_478_A_126


 39 41  0  0  0  0  0  0  0  0999 V2000
   -5.9081    2.2980    8.8077 C   0  0  0  0  0  0  0  0  0  0  0  0
   -6.4162    1.0717    9.3762 O   0  0  0  0  0  0  0  0  0  0  0  0
   -7.1161    1.2774   10.0155 H   0  0  0  0  0  0  0  0  0  0  0  0
   -6.9784    3.0325    7.9558 C   0  0  0  0  0  0  0  0  0  0  0  0
   -5.8703    4.8670    6.6970 C   0  0  0  0  0  0  0  0  0  0  0  0
   -6.3871    3.6287    6.7588 N   0  0  0  0  0  0  0  0  0  0  0  0
   -5.8364    5.6733    7.6154 O   0  0  0  0  0  0  0  0  0  0  0  0
   -6.3663    3.0834    5.9393 H   0  0  0  0  0  0  0  0  0  0  0  0
   -5.2979    5.2057    5.4046 O   0  0  0  0  0  0  0  0  0  0  0  0
   -6.4786    6.0807    3.5616 C   0  0  0  0  0  0  0  0  0  0  0  0
   -4.5625    7.2395    4.3886 C   0  0  0  0  0  0  0  0  0  0  0  0
   -5.7448    6.4335    4.8433 C   0  0  0  0  0  0  0  0  0  0  0  0
   -4.6295    7.1915    2.8629 C   0  0  0  0  0  0  0  0  0  0  0  0
   -5.4694    6.0886    2.5597 O   0  0  0  0  0  0  0  0  0  0  0  0
   -8.1997    2.2078    7.4965 C   0  0  0  0  0  0  0  0  0  0  0  0
   -8.8773    2.8803    6.3102 C   0  0  0  0  0  0  0  0  0  0  0  0
   -8.5286    2.4845    5.0090 C   0  0  0  0  0  0  0  0  0  0  0  0
   -9.8462    3.8951    6.4730 C   0  0  0  0  0  0  0  0  0  0  0  0
   -9.1019    3.0810    3.8779 C   0  0  0  0  0  0  0  0  0  0  0  0
  -10.4079    4.4928    5.3345 C   0  0  0  0  0  0  0  0  0  0  0  0
  -10.0312    4.1035    4.0557 C   0  0  0  0  0  0  0  0  0  0  0  0
   -5.2728    3.1366    9.9340 C   0  0  0  0  0  0  0  0  0  0  0  0
   -3.8053    2.9482    9.8620 N   0  0  0  0  0  0  0  0  0  0  0  0
   -3.8516    5.3938   10.3414 O   0  0  0  0  0  0  0  0  0  0  0  0
   -2.7970    4.5825    8.3593 O   0  0  0  0  0  0  0  0  0  0  0  0
   -3.0196    4.3783    9.7681 S   0  0  0  0  0  0  0  0  0  0  0  0
   -1.6383    4.4351   10.5935 C   0  0  0  0  0  0  0  0  0  0  0  0
   -0.5099    3.7856   10.0822 C   0  0  0  0  0  0  0  0  0  0  0  0
    0.7008    3.8307   10.7874 C   0  0  0  0  0  0  0  0  0  0  0  0
    0.7745    4.5457   11.9827 C   0  0  0  0  0  0  0  0  0  0  0  0
   -0.3472    5.1891   12.4844 C   0  0  0  0  0  0  0  0  0  0  0  0
   -1.5579    5.1378   11.7903 C   0  0  0  0  0  0  0  0  0  0  0  0
    1.9410    4.6175   12.6825 N   0  0  0  0  0  0  0  0  0  0  0  0
    2.7477    4.1673   12.3422 H   0  0  0  0  0  0  0  0  0  0  0  0
    1.9774    5.1197   13.5285 H   0  0  0  0  0  0  0  0  0  0  0  0
   -3.2801    1.9459   10.8198 C   0  0  0  0  0  0  0  0  0  0  0  0
   -3.6328    2.3048   12.2850 C   0  0  0  0  0  0  0  0  0  0  0  0
   -4.7940    1.4925   12.8370 C   0  0  0  0  0  0  0  0  0  0  0  0
   -2.4514    2.1028   13.2295 C   0  0  0  0  0  0  0  0  0  0  0  0
 10 12  1  0  0  0
 10 14  1  0  0  0
 11 12  1  0  0  0
 11 13  1  0  0  0
  5  6  1  0  0  0
  5  9  1  0  0  0
  5  7  2  0  0  0
 12  9  1  0  0  0
  4  1  1  0  0  0
  4 15  1  0  0  0
  4  6  1  0  0  0
  1 22  1  0  0  0
  1  2  1  0  0  0
 15 16  1  0  0  0
 16 17  2  0  0  0
 16 18  1  0  0  0
 17 19  1  0  0  0
 18 20  2  0  0  0
 19 21  2  0  0  0
 20 21  1  0  0  0
 22 23  1  0  0  0
 36 37  1  0  0  0
 36 23  1  0  0  0
 37 38  1  0  0  0
 37 39  1  0  0  0
 27 28  2  0  0  0
 27 32  1  0  0  0
 27 26  1  0  0  0
 28 29  1  0  0  0
 29 30  2  0  0  0
 30 31  1  0  0  0
 30 33  1  0  0  0
 31 32  2  0  0  0
 13 14  1  0  0  0
 23 26  1  0  0  0
 24 26  2  0  0  0
 25 26  2  0  0  0
  6  8  1  0  0  0
 33 34  1  0  0  0
 33 35  1  0  0  0
  2  3  1  0  0  0
M  END
> <minimizedAffinity>
-7.92344

$$$$
3SM2_478_A_126


 39 41  0  0  0  0  0  0  0  0999 V2000
   -2.4915    3.6905   13.1275 C   0  0  0  0  0  0  0  0  0  0  0  0
   -2.4800    5.0320   12.5931 O   0  0  0  0  0  0  0  0  0  0  0  0
   -2.4524    4.9939   11.6243 H   0  0  0  0  0  0  0  0  0  0  0  0
   -3.7898    2.9256   12.7537 C   0  0  0  0  0  0  0  0  0  0  0  0
   -4.6906    4.2613   10.8610 C   0  0  0  0  0  0  0  0  0  0  0  0
   -4.1451    3.1359   11.3510 N   0  0  0  0  0  0  0  0  0  0  0  0
   -4.9840    5.2544   11.5109 O   0  0  0  0  0  0  0  0  0  0  0  0
   -3.9719    2.3999   10.7205 H   0  0  0  0  0  0  0  0  0  0  0  0
   -4.9036    4.2386    9.4234 O   0  0  0  0  0  0  0  0  0  0  0  0
   -2.7900    4.9241    8.6366 C   0  0  0  0  0  0  0  0  0  0  0  0
   -4.2138    3.6387    7.2158 C   0  0  0  0  0  0  0  0  0  0  0  0
   -3.7979    3.7886    8.6507 C   0  0  0  0  0  0  0  0  0  0  0  0
   -3.5070    4.7826    6.4902 C   0  0  0  0  0  0  0  0  0  0  0  0
   -3.1517    5.7075    7.5061 O   0  0  0  0  0  0  0  0  0  0  0  0
   -3.8057    1.4023   13.0027 C   0  0  0  0  0  0  0  0  0  0  0  0
   -4.1213    1.1074   14.4629 C   0  0  0  0  0  0  0  0  0  0  0  0
   -3.1655    0.4435   15.2485 C   0  0  0  0  0  0  0  0  0  0  0  0
   -5.3483    1.4767   15.0571 C   0  0  0  0  0  0  0  0  0  0  0  0
   -3.4066    0.1258   16.5918 C   0  0  0  0  0  0  0  0  0  0  0  0
   -5.5843    1.1462   16.4002 C   0  0  0  0  0  0  0  0  0  0  0  0
   -4.6350    0.4674   17.1531 C   0  0  0  0  0  0  0  0  0  0  0  0
   -1.1768    2.9912   12.7302 C   0  0  0  0  0  0  0  0  0  0  0  0
   -0.0805    3.6236   13.5000 N   0  0  0  0  0  0  0  0  0  0  0  0
    2.0339    2.5182   14.2215 O   0  0  0  0  0  0  0  0  0  0  0  0
   -0.0211    1.3036   14.2484 O   0  0  0  0  0  0  0  0  0  0  0  0
    0.6325    2.5596   14.5154 S   0  0  0  0  0  0  0  0  0  0  0  0
    0.5295    2.9538   16.0731 C   0  0  0  0  0  0  0  0  0  0  0  0
   -0.5522    2.4853   16.8261 C   0  0  0  0  0  0  0  0  0  0  0  0
   -0.6523    2.8163   18.1847 C   0  0  0  0  0  0  0  0  0  0  0  0
    0.3435    3.5909   18.7793 C   0  0  0  0  0  0  0  0  0  0  0  0
    1.4147    4.0516   18.0281 C   0  0  0  0  0  0  0  0  0  0  0  0
    1.5128    3.7330   16.6720 C   0  0  0  0  0  0  0  0  0  0  0  0
    0.2790    3.9171   20.1003 N   0  0  0  0  0  0  0  0  0  0  0  0
   -0.4737    3.5993   20.6496 H   0  0  0  0  0  0  0  0  0  0  0  0
    0.9850    4.4706   20.5058 H   0  0  0  0  0  0  0  0  0  0  0  0
    0.8087    4.4841   12.6835 C   0  0  0  0  0  0  0  0  0  0  0  0
    0.3924    4.4960   11.1913 C   0  0  0  0  0  0  0  0  0  0  0  0
    0.4683    5.8777   10.5601 C   0  0  0  0  0  0  0  0  0  0  0  0
    1.2544    3.5647   10.3439 C   0  0  0  0  0  0  0  0  0  0  0  0
 10 12  1  0  0  0
 10 14  1  0  0  0
 11 12  1  0  0  0
 11 13  1  0  0  0
  5  6  1  0  0  0
  5  9  1  0  0  0
  5  7  2  0  0  0
 12  9  1  0  0  0
  4  1  1  0  0  0
  4 15  1  0  0  0
  4  6  1  0  0  0
  1 22  1  0  0  0
  1  2  1  0  0  0
 15 16  1  0  0  0
 16 17  2  0  0  0
 16 18  1  0  0  0
 17 19  1  0  0  0
 18 20  2  0  0  0
 19 21  2  0  0  0
 20 21  1  0  0  0
 22 23  1  0  0  0
 36 37  1  0  0  0
 36 23  1  0  0  0
 37 38  1  0  0  0
 37 39  1  0  0  0
 27 28  2  0  0  0
 27 32  1  0  0  0
 27 26  1  0  0  0
 28 29  1  0  0  0
 29 30  2  0  0  0
 30 31  1  0  0  0
 30 33  1  0  0  0
 31 32  2  0  0  0
 13 14  1  0  0  0
 23 26  1  0  0  0
 24 26  2  0  0  0
 25 26  2  0  0  0
  6  8  1  0  0  0
 33 34  1  0  0  0
 33 35  1  0  0  0
  2  3  1  0  0  0
M  END
> <minimizedAffinity>
-7.82813

$$$$
3SM2_478_A_126


 39 41  0  0  0  0  0  0  0  0999 V2000
   -2.6814    3.8229   12.8384 C   0  0  0  0  0  0  0  0  0  0  0  0
   -2.8266    4.8817   11.8672 O   0  0  0  0  0  0  0  0  0  0  0  0
   -2.8465    4.5016   10.9750 H   0  0  0  0  0  0  0  0  0  0  0  0
   -3.9185    2.8851   12.8670 C   0  0  0  0  0  0  0  0  0  0  0  0
   -4.3917    2.3143   10.4947 C   0  0  0  0  0  0  0  0  0  0  0  0
   -4.6845    2.9782   11.6251 N   0  0  0  0  0  0  0  0  0  0  0  0
   -3.4431    1.5596   10.3350 O   0  0  0  0  0  0  0  0  0  0  0  0
   -5.4713    3.5699   11.6167 H   0  0  0  0  0  0  0  0  0  0  0  0
   -5.3372    2.5395    9.4140 O   0  0  0  0  0  0  0  0  0  0  0  0
   -7.2183    1.2365    8.8485 C   0  0  0  0  0  0  0  0  0  0  0  0
   -7.4998    3.5535    9.3490 C   0  0  0  0  0  0  0  0  0  0  0  0
   -6.7050    2.3447    9.7507 C   0  0  0  0  0  0  0  0  0  0  0  0
   -8.3319    3.0862    8.1557 C   0  0  0  0  0  0  0  0  0  0  0  0
   -7.6885    1.9110    7.6881 O   0  0  0  0  0  0  0  0  0  0  0  0
   -3.6595    1.3862   13.1295 C   0  0  0  0  0  0  0  0  0  0  0  0
   -4.0184    1.0301   14.5659 C   0  0  0  0  0  0  0  0  0  0  0  0
   -5.2700    1.4142   15.0732 C   0  0  0  0  0  0  0  0  0  0  0  0
   -3.1317    0.3267   15.4108 C   0  0  0  0  0  0  0  0  0  0  0  0
   -5.6486    1.1338   16.3930 C   0  0  0  0  0  0  0  0  0  0  0  0
   -3.5159    0.0586   16.7335 C   0  0  0  0  0  0  0  0  0  0  0  0
   -4.7490    0.4688   17.2232 C   0  0  0  0  0  0  0  0  0  0  0  0
   -1.3286    3.1226   12.6045 C   0  0  0  0  0  0  0  0  0  0  0  0
   -0.3266    3.7767   13.4776 N   0  0  0  0  0  0  0  0  0  0  0  0
    1.8391    2.6963   14.0737 O   0  0  0  0  0  0  0  0  0  0  0  0
   -0.1841    1.4305   14.1260 O   0  0  0  0  0  0  0  0  0  0  0  0
    0.4493    2.6905   14.4207 S   0  0  0  0  0  0  0  0  0  0  0  0
    0.3965    3.0183   15.9962 C   0  0  0  0  0  0  0  0  0  0  0  0
   -0.6442    2.4920   16.7687 C   0  0  0  0  0  0  0  0  0  0  0  0
   -0.7003    2.7648   18.1427 C   0  0  0  0  0  0  0  0  0  0  0  0
    0.2987    3.5398   18.7316 C   0  0  0  0  0  0  0  0  0  0  0  0
    1.3290    4.0579   17.9610 C   0  0  0  0  0  0  0  0  0  0  0  0
    1.3829    3.7973   16.5901 C   0  0  0  0  0  0  0  0  0  0  0  0
    0.2767    3.8102   20.0666 N   0  0  0  0  0  0  0  0  0  0  0  0
   -0.4466    3.4512   20.6297 H   0  0  0  0  0  0  0  0  0  0  0  0
    0.9842    4.3646   20.4682 H   0  0  0  0  0  0  0  0  0  0  0  0
    0.5037    4.7909   12.7848 C   0  0  0  0  0  0  0  0  0  0  0  0
    0.4104    4.6612   11.2439 C   0  0  0  0  0  0  0  0  0  0  0  0
    0.6030    5.9844   10.5194 C   0  0  0  0  0  0  0  0  0  0  0  0
    1.4409    3.6854   10.6830 C   0  0  0  0  0  0  0  0  0  0  0  0
 10 12  1  0  0  0
 10 14  1  0  0  0
 11 12  1  0  0  0
 11 13  1  0  0  0
  5  6  1  0  0  0
  5  9  1  0  0  0
  5  7  2  0  0  0
 12  9  1  0  0  0
  4  1  1  0  0  0
  4 15  1  0  0  0
  4  6  1  0  0  0
  1 22  1  0  0  0
  1  2  1  0  0  0
 15 16  1  0  0  0
 16 17  2  0  0  0
 16 18  1  0  0  0
 17 19  1  0  0  0
 18 20  2  0  0  0
 19 21  2  0  0  0
 20 21  1  0  0  0
 22 23  1  0  0  0
 36 37  1  0  0  0
 36 23  1  0  0  0
 37 38  1  0  0  0
 37 39  1  0  0  0
 27 28  2  0  0  0
 27 32  1  0  0  0
 27 26  1  0  0  0
 28 29  1  0  0  0
 29 30  2  0  0  0
 30 31  1  0  0  0
 30 33  1  0  0  0
 31 32  2  0  0  0
 13 14  1  0  0  0
 23 26  1  0  0  0
 24 26  2  0  0  0
 25 26  2  0  0  0
  6  8  1  0  0  0
 33 34  1  0  0  0
 33 35  1  0  0  0
  2  3  1  0  0  0
M  END
> <minimizedAffinity>
-7.80021

$$$$
3SM2_478_A_126


 39 41  0  0  0  0  0  0  0  0999 V2000
   -2.1544    3.7326    9.2895 C   0  0  0  0  0  0  0  0  0  0  0  0
   -1.9371    2.3514    9.6505 O   0  0  0  0  0  0  0  0  0  0  0  0
   -2.6713    2.0425   10.2041 H   0  0  0  0  0  0  0  0  0  0  0  0
   -3.3992    3.9076    8.3782 C   0  0  0  0  0  0  0  0  0  0  0  0
   -5.4298    3.4189    9.7257 C   0  0  0  0  0  0  0  0  0  0  0  0
   -4.5048    3.0591    8.8206 N   0  0  0  0  0  0  0  0  0  0  0  0
   -5.4711    4.4873   10.3186 O   0  0  0  0  0  0  0  0  0  0  0  0
   -4.5764    2.1596    8.4268 H   0  0  0  0  0  0  0  0  0  0  0  0
   -6.4542    2.4141    9.9568 O   0  0  0  0  0  0  0  0  0  0  0  0
   -8.5552    1.5138    9.3809 C   0  0  0  0  0  0  0  0  0  0  0  0
   -7.7618    3.4629    8.2541 C   0  0  0  0  0  0  0  0  0  0  0  0
   -7.7761    2.7985    9.6004 C   0  0  0  0  0  0  0  0  0  0  0  0
   -8.4298    2.4538    7.3213 C   0  0  0  0  0  0  0  0  0  0  0  0
   -8.3635    1.2118    8.0045 O   0  0  0  0  0  0  0  0  0  0  0  0
   -3.9594    5.3371    8.2189 C   0  0  0  0  0  0  0  0  0  0  0  0
   -4.2142    5.6456    6.7496 C   0  0  0  0  0  0  0  0  0  0  0  0
   -5.3374    5.0873    6.1185 C   0  0  0  0  0  0  0  0  0  0  0  0
   -3.3552    6.4745    5.9948 C   0  0  0  0  0  0  0  0  0  0  0  0
   -5.6128    5.3173    4.7639 C   0  0  0  0  0  0  0  0  0  0  0  0
   -3.6340    6.6916    4.6368 C   0  0  0  0  0  0  0  0  0  0  0  0
   -4.7370    6.1101    4.0254 C   0  0  0  0  0  0  0  0  0  0  0  0
   -2.1534    4.5833   10.5746 C   0  0  0  0  0  0  0  0  0  0  0  0
   -1.4308    3.8202   11.6186 N   0  0  0  0  0  0  0  0  0  0  0  0
    0.1230    5.7653   11.7433 O   0  0  0  0  0  0  0  0  0  0  0  0
    0.8096    3.7527   10.6585 O   0  0  0  0  0  0  0  0  0  0  0  0
    0.1128    4.3333   11.7780 S   0  0  0  0  0  0  0  0  0  0  0  0
    0.8081    3.9304   13.1734 C   0  0  0  0  0  0  0  0  0  0  0  0
    1.1638    2.5966   13.3991 C   0  0  0  0  0  0  0  0  0  0  0  0
    1.7744    2.2321   14.6072 C   0  0  0  0  0  0  0  0  0  0  0  0
    2.0443    3.2101   15.5643 C   0  0  0  0  0  0  0  0  0  0  0  0
    1.6906    4.5314   15.3345 C   0  0  0  0  0  0  0  0  0  0  0  0
    1.0726    4.8971   14.1368 C   0  0  0  0  0  0  0  0  0  0  0  0
    2.6483    2.8869   16.7417 N   0  0  0  0  0  0  0  0  0  0  0  0
    2.9066    1.9543   16.9227 H   0  0  0  0  0  0  0  0  0  0  0  0
    2.8266    3.5859   17.4117 H   0  0  0  0  0  0  0  0  0  0  0  0
   -2.2110    3.6162   12.8625 C   0  0  0  0  0  0  0  0  0  0  0  0
   -2.5356    2.1207   13.1038 C   0  0  0  0  0  0  0  0  0  0  0  0
   -2.2830    1.6774   14.5365 C   0  0  0  0  0  0  0  0  0  0  0  0
   -3.9877    1.7849   12.7767 C   0  0  0  0  0  0  0  0  0  0  0  0
 10 12  1  0  0  0
 10 14  1  0  0  0
 11 12  1  0  0  0
 11 13  1  0  0  0
  5  6  1  0  0  0
  5  9  1  0  0  0
  5  7  2  0  0  0
 12  9  1  0  0  0
  4  1  1  0  0  0
  4 15  1  0  0  0
  4  6  1  0  0  0
  1 22  1  0  0  0
  1  2  1  0  0  0
 15 16  1  0  0  0
 16 17  2  0  0  0
 16 18  1  0  0  0
 17 19  1  0  0  0
 18 20  2  0  0  0
 19 21  2  0  0  0
 20 21  1  0  0  0
 22 23  1  0  0  0
 36 37  1  0  0  0
 36 23  1  0  0  0
 37 38  1  0  0  0
 37 39  1  0  0  0
 27 28  2  0  0  0
 27 32  1  0  0  0
 27 26  1  0  0  0
 28 29  1  0  0  0
 29 30  2  0  0  0
 30 31  1  0  0  0
 30 33  1  0  0  0
 31 32  2  0  0  0
 13 14  1  0  0  0
 23 26  1  0  0  0
 24 26  2  0  0  0
 25 26  2  0  0  0
  6  8  1  0  0  0
 33 34  1  0  0  0
 33 35  1  0  0  0
  2  3  1  0  0  0
M  END
> <minimizedAffinity>
-7.69354

$$$$
