1AJP_OMD_A_210


 15 15  0  0  0  0  0  0  0  0999 V2000
   11.7507   35.5543   34.6595 C   0  0  0  0  0  0  0  0  0  0  0  0
   11.8211   36.3622   33.5292 C   0  0  0  0  0  0  0  0  0  0  0  0
   10.7353   36.4232   32.6879 C   0  0  0  0  0  0  0  0  0  0  0  0
   10.6556   37.1723   31.5373 O   0  0  0  0  0  0  0  0  0  0  0  0
    9.5554   35.7180   32.9035 C   0  0  0  0  0  0  0  0  0  0  0  0
    9.4894   34.9294   34.0211 C   0  0  0  0  0  0  0  0  0  0  0  0
   10.5780   34.8397   34.8640 C   0  0  0  0  0  0  0  0  0  0  0  0
   10.4268   34.1697   35.7137 O   0  0  0  0  0  0  0  0  0  0  0  0
   11.3829   37.6990   31.2698 H   0  0  0  0  0  0  0  0  0  0  0  0
   11.1123   34.0456   36.3403 H   0  0  0  0  0  0  0  0  0  0  0  0
   12.9236   35.4767   35.6062 C   0  0  0  0  0  0  0  0  0  0  0  0
   13.9694   36.5867   35.4210 C   0  0  0  0  0  0  0  0  0  0  0  0
   13.6512   37.7607   35.5663 O   0  0  0  0  0  0  0  0  0  0  0  0
   15.1288   36.3398   35.0809 O   0  0  0  0  0  0  0  0  0  0  0  0
   15.4030   35.4518   34.9615 H   0  0  0  0  0  0  0  0  0  0  0  0
 12 11  1  0  0  0
 12 13  2  0  0  0
 12 14  1  0  0  0
 11  1  1  0  0  0
  1  2  2  0  0  0
  1  7  1  0  0  0
  2  3  1  0  0  0
  3  4  1  0  0  0
  3  5  2  0  0  0
  5  6  1  0  0  0
  6  7  2  0  0  0
  7  8  1  0  0  0
  4  9  1  0  0  0
  8 10  1  0  0  0
 14 15  1  0  0  0
M  END
> <minimizedAffinity>
-6.49563

$$$$
1AJP_OMD_A_210


 15 15  0  0  0  0  0  0  0  0999 V2000
   11.0650   35.6867   34.0574 C   0  0  0  0  0  0  0  0  0  0  0  0
   12.1093   36.5841   33.8591 C   0  0  0  0  0  0  0  0  0  0  0  0
   13.1866   36.5484   34.7127 C   0  0  0  0  0  0  0  0  0  0  0  0
   14.2887   37.3684   34.6450 O   0  0  0  0  0  0  0  0  0  0  0  0
   13.2967   35.6560   35.7744 C   0  0  0  0  0  0  0  0  0  0  0  0
   12.2688   34.7706   35.9608 C   0  0  0  0  0  0  0  0  0  0  0  0
   11.1702   34.8077   35.1269 C   0  0  0  0  0  0  0  0  0  0  0  0
   10.4006   34.0727   35.3745 O   0  0  0  0  0  0  0  0  0  0  0  0
   14.3472   38.0202   33.9744 H   0  0  0  0  0  0  0  0  0  0  0  0
    9.6175   34.0237   34.8624 H   0  0  0  0  0  0  0  0  0  0  0  0
    9.8749   35.6963   33.1292 C   0  0  0  0  0  0  0  0  0  0  0  0
   10.2295   35.6789   31.6345 C   0  0  0  0  0  0  0  0  0  0  0  0
   10.3498   34.6122   31.0442 O   0  0  0  0  0  0  0  0  0  0  0  0
   10.4463   36.7163   31.0039 O   0  0  0  0  0  0  0  0  0  0  0  0
   10.3628   37.5480   31.4272 H   0  0  0  0  0  0  0  0  0  0  0  0
 12 11  1  0  0  0
 12 13  2  0  0  0
 12 14  1  0  0  0
 11  1  1  0  0  0
  1  2  2  0  0  0
  1  7  1  0  0  0
  2  3  1  0  0  0
  3  4  1  0  0  0
  3  5  2  0  0  0
  5  6  1  0  0  0
  6  7  2  0  0  0
  7  8  1  0  0  0
  4  9  1  0  0  0
  8 10  1  0  0  0
 14 15  1  0  0  0
M  END
> <minimizedAffinity>
-6.41452

$$$$
1AJP_OMD_A_210


 15 15  0  0  0  0  0  0  0  0999 V2000
   12.7941   36.3366   34.7816 C   0  0  0  0  0  0  0  0  0  0  0  0
   11.9464   36.6246   33.7169 C   0  0  0  0  0  0  0  0  0  0  0  0
   10.8154   35.8621   33.5436 C   0  0  0  0  0  0  0  0  0  0  0  0
    9.8867   36.0243   32.5422 O   0  0  0  0  0  0  0  0  0  0  0  0
   10.4632   34.8082   34.3808 C   0  0  0  0  0  0  0  0  0  0  0  0
   11.2981   34.5334   35.4310 C   0  0  0  0  0  0  0  0  0  0  0  0
   12.4485   35.2746   35.6064 C   0  0  0  0  0  0  0  0  0  0  0  0
   13.0520   34.9607   36.4615 O   0  0  0  0  0  0  0  0  0  0  0  0
    9.9994   36.7010   31.9039 H   0  0  0  0  0  0  0  0  0  0  0  0
   13.8521   35.4066   36.6591 H   0  0  0  0  0  0  0  0  0  0  0  0
   14.0369   37.1640   35.0023 C   0  0  0  0  0  0  0  0  0  0  0  0
   13.9268   38.1930   36.1378 C   0  0  0  0  0  0  0  0  0  0  0  0
   14.0556   37.8378   37.3031 O   0  0  0  0  0  0  0  0  0  0  0  0
   13.6638   39.3781   35.9204 O   0  0  0  0  0  0  0  0  0  0  0  0
   13.5591   39.6808   35.0398 H   0  0  0  0  0  0  0  0  0  0  0  0
 12 11  1  0  0  0
 12 13  2  0  0  0
 12 14  1  0  0  0
 11  1  1  0  0  0
  1  2  2  0  0  0
  1  7  1  0  0  0
  2  3  1  0  0  0
  3  4  1  0  0  0
  3  5  2  0  0  0
  5  6  1  0  0  0
  6  7  2  0  0  0
  7  8  1  0  0  0
  4  9  1  0  0  0
  8 10  1  0  0  0
 14 15  1  0  0  0
M  END
> <minimizedAffinity>
-6.15155

$$$$
1AJP_OMD_A_210


 15 15  0  0  0  0  0  0  0  0999 V2000
   12.5960   36.0524   34.7610 C   0  0  0  0  0  0  0  0  0  0  0  0
   12.1320   35.1116   35.6747 C   0  0  0  0  0  0  0  0  0  0  0  0
   10.8978   34.5408   35.4710 C   0  0  0  0  0  0  0  0  0  0  0  0
   10.3068   33.6015   36.2835 O   0  0  0  0  0  0  0  0  0  0  0  0
   10.0764   34.8504   34.3916 C   0  0  0  0  0  0  0  0  0  0  0  0
   10.5411   35.7724   33.4920 C   0  0  0  0  0  0  0  0  0  0  0  0
   11.7678   36.3710   33.6933 C   0  0  0  0  0  0  0  0  0  0  0  0
   12.0340   37.1044   32.9283 O   0  0  0  0  0  0  0  0  0  0  0  0
   10.7513   33.2997   37.0511 H   0  0  0  0  0  0  0  0  0  0  0  0
   12.8498   37.5622   32.9820 H   0  0  0  0  0  0  0  0  0  0  0  0
   13.9516   36.6872   34.9537 C   0  0  0  0  0  0  0  0  0  0  0  0
   13.9829   37.8288   35.9814 C   0  0  0  0  0  0  0  0  0  0  0  0
   13.9032   38.9930   35.6087 O   0  0  0  0  0  0  0  0  0  0  0  0
   14.1336   37.6167   37.1869 O   0  0  0  0  0  0  0  0  0  0  0  0
   14.1980   36.7371   37.5033 H   0  0  0  0  0  0  0  0  0  0  0  0
 12 11  1  0  0  0
 12 13  2  0  0  0
 12 14  1  0  0  0
 11  1  1  0  0  0
  1  2  2  0  0  0
  1  7  1  0  0  0
  2  3  1  0  0  0
  3  4  1  0  0  0
  3  5  2  0  0  0
  5  6  1  0  0  0
  6  7  2  0  0  0
  7  8  1  0  0  0
  4  9  1  0  0  0
  8 10  1  0  0  0
 14 15  1  0  0  0
M  END
> <minimizedAffinity>
-6.05645

$$$$
1AJP_OMD_A_210


 15 15  0  0  0  0  0  0  0  0999 V2000
   12.9827   35.7183   35.5826 C   0  0  0  0  0  0  0  0  0  0  0  0
   12.7633   35.2510   36.8743 C   0  0  0  0  0  0  0  0  0  0  0  0
   13.4890   35.7930   37.9088 C   0  0  0  0  0  0  0  0  0  0  0  0
   13.3850   35.4354   39.2327 O   0  0  0  0  0  0  0  0  0  0  0  0
   14.4398   36.7945   37.7386 C   0  0  0  0  0  0  0  0  0  0  0  0
   14.6469   37.2551   36.4658 C   0  0  0  0  0  0  0  0  0  0  0  0
   13.9430   36.7067   35.4135 C   0  0  0  0  0  0  0  0  0  0  0  0
   14.1979   37.1322   34.4399 O   0  0  0  0  0  0  0  0  0  0  0  0
   12.7794   34.7689   39.4918 H   0  0  0  0  0  0  0  0  0  0  0  0
   13.7702   36.8214   33.6663 H   0  0  0  0  0  0  0  0  0  0  0  0
   12.1928   35.1490   34.4294 C   0  0  0  0  0  0  0  0  0  0  0  0
   11.0710   36.0614   33.9105 C   0  0  0  0  0  0  0  0  0  0  0  0
    9.9061   35.6842   33.9470 O   0  0  0  0  0  0  0  0  0  0  0  0
   11.3066   37.1623   33.4070 O   0  0  0  0  0  0  0  0  0  0  0  0
   12.1875   37.4790   33.3641 H   0  0  0  0  0  0  0  0  0  0  0  0
 12 11  1  0  0  0
 12 13  2  0  0  0
 12 14  1  0  0  0
 11  1  1  0  0  0
  1  2  2  0  0  0
  1  7  1  0  0  0
  2  3  1  0  0  0
  3  4  1  0  0  0
  3  5  2  0  0  0
  5  6  1  0  0  0
  6  7  2  0  0  0
  7  8  1  0  0  0
  4  9  1  0  0  0
  8 10  1  0  0  0
 14 15  1  0  0  0
M  END
> <minimizedAffinity>
-5.93304

$$$$
1AJP_OMD_A_210


 15 15  0  0  0  0  0  0  0  0999 V2000
   13.7354   35.3322   36.1355 C   0  0  0  0  0  0  0  0  0  0  0  0
   15.0180   35.5243   35.6324 C   0  0  0  0  0  0  0  0  0  0  0  0
   16.0018   35.9797   36.4782 C   0  0  0  0  0  0  0  0  0  0  0  0
   17.3105   36.2178   36.1287 O   0  0  0  0  0  0  0  0  0  0  0  0
   15.7886   36.2615   37.8240 C   0  0  0  0  0  0  0  0  0  0  0  0
   14.5256   36.0644   38.3152 C   0  0  0  0  0  0  0  0  0  0  0  0
   13.5217   35.6289   37.4749 C   0  0  0  0  0  0  0  0  0  0  0  0
   12.5498   35.5232   37.9629 O   0  0  0  0  0  0  0  0  0  0  0  0
   17.5947   36.0694   35.2483 H   0  0  0  0  0  0  0  0  0  0  0  0
   11.8075   35.2325   37.4705 H   0  0  0  0  0  0  0  0  0  0  0  0
   12.6387   34.8229   35.2324 C   0  0  0  0  0  0  0  0  0  0  0  0
   11.8149   35.9220   34.5443 C   0  0  0  0  0  0  0  0  0  0  0  0
   10.6477   35.7130   34.2365 O   0  0  0  0  0  0  0  0  0  0  0  0
   12.3058   37.0125   34.2430 O   0  0  0  0  0  0  0  0  0  0  0  0
   13.1962   37.2027   34.4645 H   0  0  0  0  0  0  0  0  0  0  0  0
 12 11  1  0  0  0
 12 13  2  0  0  0
 12 14  1  0  0  0
 11  1  1  0  0  0
  1  2  2  0  0  0
  1  7  1  0  0  0
  2  3  1  0  0  0
  3  4  1  0  0  0
  3  5  2  0  0  0
  5  6  1  0  0  0
  6  7  2  0  0  0
  7  8  1  0  0  0
  4  9  1  0  0  0
  8 10  1  0  0  0
 14 15  1  0  0  0
M  END
> <minimizedAffinity>
-5.91179

$$$$
1AJP_OMD_A_210


 15 15  0  0  0  0  0  0  0  0999 V2000
   15.0475   38.3267   36.9784 C   0  0  0  0  0  0  0  0  0  0  0  0
   14.0050   38.2888   36.0581 C   0  0  0  0  0  0  0  0  0  0  0  0
   13.6942   37.0924   35.4559 C   0  0  0  0  0  0  0  0  0  0  0  0
   12.6961   36.8983   34.5297 O   0  0  0  0  0  0  0  0  0  0  0  0
   14.3671   35.9029   35.7167 C   0  0  0  0  0  0  0  0  0  0  0  0
   15.3882   35.9450   36.6282 C   0  0  0  0  0  0  0  0  0  0  0  0
   15.7274   37.1417   37.2253 C   0  0  0  0  0  0  0  0  0  0  0  0
   16.5669   37.0678   37.9207 O   0  0  0  0  0  0  0  0  0  0  0  0
   12.1607   37.6185   34.2600 H   0  0  0  0  0  0  0  0  0  0  0  0
   16.8684   37.8306   38.3738 H   0  0  0  0  0  0  0  0  0  0  0  0
   15.4035   39.6239   37.6627 C   0  0  0  0  0  0  0  0  0  0  0  0
   16.2294   40.5941   36.8043 C   0  0  0  0  0  0  0  0  0  0  0  0
   15.9104   41.7747   36.7325 O   0  0  0  0  0  0  0  0  0  0  0  0
   17.1934   40.2141   36.1357 O   0  0  0  0  0  0  0  0  0  0  0  0
   17.4622   39.3171   36.1690 H   0  0  0  0  0  0  0  0  0  0  0  0
 12 11  1  0  0  0
 12 13  2  0  0  0
 12 14  1  0  0  0
 11  1  1  0  0  0
  1  2  2  0  0  0
  1  7  1  0  0  0
  2  3  1  0  0  0
  3  4  1  0  0  0
  3  5  2  0  0  0
  5  6  1  0  0  0
  6  7  2  0  0  0
  7  8  1  0  0  0
  4  9  1  0  0  0
  8 10  1  0  0  0
 14 15  1  0  0  0
M  END
> <minimizedAffinity>
-5.90973

$$$$
1AJP_OMD_A_210


 15 15  0  0  0  0  0  0  0  0999 V2000
   13.4522   36.0015   36.1046 C   0  0  0  0  0  0  0  0  0  0  0  0
   13.8392   37.1160   35.3674 C   0  0  0  0  0  0  0  0  0  0  0  0
   14.2942   38.2285   36.0352 C   0  0  0  0  0  0  0  0  0  0  0  0
   14.7092   39.4005   35.4473 O   0  0  0  0  0  0  0  0  0  0  0  0
   14.3937   38.3060   37.4208 C   0  0  0  0  0  0  0  0  0  0  0  0
   14.0176   37.2037   38.1409 C   0  0  0  0  0  0  0  0  0  0  0  0
   13.5379   36.0871   37.4877 C   0  0  0  0  0  0  0  0  0  0  0  0
   13.2483   35.2727   38.1561 O   0  0  0  0  0  0  0  0  0  0  0  0
   14.6950   39.4874   34.5144 H   0  0  0  0  0  0  0  0  0  0  0  0
   12.9109   34.4735   37.8020 H   0  0  0  0  0  0  0  0  0  0  0  0
   12.9589   34.7627   35.3975 C   0  0  0  0  0  0  0  0  0  0  0  0
   11.4339   34.6880   35.2273 C   0  0  0  0  0  0  0  0  0  0  0  0
   10.7207   34.4272   36.1886 O   0  0  0  0  0  0  0  0  0  0  0  0
   10.8924   34.8388   34.1297 O   0  0  0  0  0  0  0  0  0  0  0  0
   11.4106   35.0391   33.3751 H   0  0  0  0  0  0  0  0  0  0  0  0
 12 11  1  0  0  0
 12 13  2  0  0  0
 12 14  1  0  0  0
 11  1  1  0  0  0
  1  2  2  0  0  0
  1  7  1  0  0  0
  2  3  1  0  0  0
  3  4  1  0  0  0
  3  5  2  0  0  0
  5  6  1  0  0  0
  6  7  2  0  0  0
  7  8  1  0  0  0
  4  9  1  0  0  0
  8 10  1  0  0  0
 14 15  1  0  0  0
M  END
> <minimizedAffinity>
-5.87646

$$$$
1AJP_OMD_A_210


 15 15  0  0  0  0  0  0  0  0999 V2000
   14.0151   37.0394   35.9479 C   0  0  0  0  0  0  0  0  0  0  0  0
   14.0444   36.1461   37.0139 C   0  0  0  0  0  0  0  0  0  0  0  0
   14.3738   36.6147   38.2639 C   0  0  0  0  0  0  0  0  0  0  0  0
   14.4457   35.8566   39.4093 O   0  0  0  0  0  0  0  0  0  0  0  0
   14.6813   37.9453   38.5296 C   0  0  0  0  0  0  0  0  0  0  0  0
   14.6445   38.8213   37.4776 C   0  0  0  0  0  0  0  0  0  0  0  0
   14.3374   38.3636   36.2128 C   0  0  0  0  0  0  0  0  0  0  0  0
   14.3547   39.1399   35.4440 O   0  0  0  0  0  0  0  0  0  0  0  0
   14.2621   34.9384   39.3756 H   0  0  0  0  0  0  0  0  0  0  0  0
   14.1588   38.9223   34.5540 H   0  0  0  0  0  0  0  0  0  0  0  0
   13.6463   36.5548   34.5669 C   0  0  0  0  0  0  0  0  0  0  0  0
   12.1362   36.4215   34.3180 C   0  0  0  0  0  0  0  0  0  0  0  0
   11.5142   37.3444   33.8062 O   0  0  0  0  0  0  0  0  0  0  0  0
   11.5050   35.4193   34.6615 O   0  0  0  0  0  0  0  0  0  0  0  0
   11.9520   34.6964   35.0559 H   0  0  0  0  0  0  0  0  0  0  0  0
 12 11  1  0  0  0
 12 13  2  0  0  0
 12 14  1  0  0  0
 11  1  1  0  0  0
  1  2  2  0  0  0
  1  7  1  0  0  0
  2  3  1  0  0  0
  3  4  1  0  0  0
  3  5  2  0  0  0
  5  6  1  0  0  0
  6  7  2  0  0  0
  7  8  1  0  0  0
  4  9  1  0  0  0
  8 10  1  0  0  0
 14 15  1  0  0  0
M  END
> <minimizedAffinity>
-5.85006

$$$$
1AJP_OMD_A_210


 15 15  0  0  0  0  0  0  0  0999 V2000
   14.8182   38.9582   37.9738 C   0  0  0  0  0  0  0  0  0  0  0  0
   15.2294   37.8644   38.7285 C   0  0  0  0  0  0  0  0  0  0  0  0
   15.0458   36.6001   38.2200 C   0  0  0  0  0  0  0  0  0  0  0  0
   15.3980   35.4271   38.8458 O   0  0  0  0  0  0  0  0  0  0  0  0
   14.4680   36.3468   36.9799 C   0  0  0  0  0  0  0  0  0  0  0  0
   14.0710   37.4276   36.2387 C   0  0  0  0  0  0  0  0  0  0  0  0
   14.2278   38.7021   36.7435 C   0  0  0  0  0  0  0  0  0  0  0  0
   13.8611   39.4896   36.0809 O   0  0  0  0  0  0  0  0  0  0  0  0
   15.7993   35.4498   39.6922 H   0  0  0  0  0  0  0  0  0  0  0  0
   13.9257   40.3878   36.3401 H   0  0  0  0  0  0  0  0  0  0  0  0
   15.0172   40.3578   38.5024 C   0  0  0  0  0  0  0  0  0  0  0  0
   16.1466   41.1445   37.8200 C   0  0  0  0  0  0  0  0  0  0  0  0
   15.9152   41.8025   36.8129 O   0  0  0  0  0  0  0  0  0  0  0  0
   17.3094   41.1025   38.2285 O   0  0  0  0  0  0  0  0  0  0  0  0
   17.5186   40.6078   38.9963 H   0  0  0  0  0  0  0  0  0  0  0  0
 12 11  1  0  0  0
 12 13  2  0  0  0
 12 14  1  0  0  0
 11  1  1  0  0  0
  1  2  2  0  0  0
  1  7  1  0  0  0
  2  3  1  0  0  0
  3  4  1  0  0  0
  3  5  2  0  0  0
  5  6  1  0  0  0
  6  7  2  0  0  0
  7  8  1  0  0  0
  4  9  1  0  0  0
  8 10  1  0  0  0
 14 15  1  0  0  0
M  END
> <minimizedAffinity>
-5.69921

$$$$
