4AZ6_OAN_A_1614


 30 31  0  0  0  0  0  0  0  0999 V2000
   15.5367   25.6102   29.0769 C   0  0  0  0  0  0  0  0  0  0  0  0
   14.6454   24.8093   30.0733 C   0  0  0  0  0  0  0  0  0  0  0  0
   15.4559   24.3337   31.1626 O   0  0  0  0  0  0  0  0  0  0  0  0
   13.5538   25.7219   30.6025 C   0  0  0  0  0  0  0  0  0  0  0  0
   12.7777   25.0346   31.5639 O   0  0  0  0  0  0  0  0  0  0  0  0
   12.6493   26.0374   29.4173 C   0  0  0  0  0  0  0  0  0  0  0  0
   13.4251   26.8290   28.4192 O   0  0  0  0  0  0  0  0  0  0  0  0
   14.7687   26.7187   28.3747 C   0  0  0  0  0  0  0  0  0  0  0  0
   15.4285   27.6130   27.6925 N   0  0  0  0  0  0  0  0  0  0  0  0
   15.8612   25.0884   31.6176 H   0  0  0  0  0  0  0  0  0  0  0  0
   12.3948   24.2393   31.1618 H   0  0  0  0  0  0  0  0  0  0  0  0
   17.9308   23.2276   27.3043 C   0  0  0  0  0  0  0  0  0  0  0  0
   17.3597   24.1117   28.4109 C   0  0  0  0  0  0  0  0  0  0  0  0
   17.9794   24.3433   29.4389 O   0  0  0  0  0  0  0  0  0  0  0  0
   16.1613   24.6543   28.1622 N   0  0  0  0  0  0  0  0  0  0  0  0
   15.6855   24.4023   27.3380 H   0  0  0  0  0  0  0  0  0  0  0  0
   11.4737   26.9008   29.7737 C   0  0  0  0  0  0  0  0  0  0  0  0
   10.4054   26.8036   28.8194 O   0  0  0  0  0  0  0  0  0  0  0  0
   10.7179   27.1057   27.9523 H   0  0  0  0  0  0  0  0  0  0  0  0
   14.5815   28.5559   27.1259 O   0  0  0  0  0  0  0  0  0  0  0  0
   15.0191   29.1209   25.9741 C   0  0  0  0  0  0  0  0  0  0  0  0
   15.3954   30.2933   25.9256 O   0  0  0  0  0  0  0  0  0  0  0  0
   15.0343   28.2411   24.9809 N   0  0  0  0  0  0  0  0  0  0  0  0
   14.7841   27.3216   25.2285 H   0  0  0  0  0  0  0  0  0  0  0  0
   15.3496   28.4291   23.6541 C   0  0  0  0  0  0  0  0  0  0  0  0
   16.6701   28.2810   23.2815 C   0  0  0  0  0  0  0  0  0  0  0  0
   17.1424   28.4395   21.9910 C   0  0  0  0  0  0  0  0  0  0  0  0
   16.2239   28.7758   20.9949 C   0  0  0  0  0  0  0  0  0  0  0  0
   14.8832   28.9239   21.3350 C   0  0  0  0  0  0  0  0  0  0  0  0
   14.4591   28.7353   22.6583 C   0  0  0  0  0  0  0  0  0  0  0  0
 12 13  1  0  0  0
 13 14  2  0  0  0
 13 15  1  0  0  0
 15  1  1  0  0  0
  1  2  1  0  0  0
  1  8  1  0  0  0
  2  3  1  0  0  0
  2  4  1  0  0  0
  4  5  1  0  0  0
  4  6  1  0  0  0
  6 17  1  0  0  0
  6  7  1  0  0  0
 17 18  1  0  0  0
  7  8  1  0  0  0
  8  9  2  0  0  0
  9 20  1  0  0  0
 20 21  1  0  0  0
 21 22  2  0  0  0
 21 23  1  0  0  0
 23 25  1  0  0  0
 25 26  2  0  0  0
 25 30  1  0  0  0
 26 27  1  0  0  0
 27 28  2  0  0  0
 28 29  1  0  0  0
 29 30  2  0  0  0
 15 16  1  0  0  0
  3 10  1  0  0  0
  5 11  1  0  0  0
 18 19  1  0  0  0
 23 24  1  0  0  0
M  END
> <minimizedAffinity>
-8.45341

$$$$
4AZ6_OAN_A_1614


 30 31  0  0  0  0  0  0  0  0999 V2000
   16.1512   28.0321   27.1022 C   0  0  0  0  0  0  0  0  0  0  0  0
   15.0468   28.4799   26.0982 C   0  0  0  0  0  0  0  0  0  0  0  0
   14.1993   29.4585   26.7260 O   0  0  0  0  0  0  0  0  0  0  0  0
   15.7090   29.0816   24.8718 C   0  0  0  0  0  0  0  0  0  0  0  0
   14.7222   29.5609   23.9799 O   0  0  0  0  0  0  0  0  0  0  0  0
   16.4432   27.9397   24.1796 C   0  0  0  0  0  0  0  0  0  0  0  0
   17.5404   27.4646   25.0712 O   0  0  0  0  0  0  0  0  0  0  0  0
   17.4452   27.6434   26.4048 C   0  0  0  0  0  0  0  0  0  0  0  0
   18.5229   27.4713   27.1185 N   0  0  0  0  0  0  0  0  0  0  0  0
   14.7319   30.2243   26.9920 H   0  0  0  0  0  0  0  0  0  0  0  0
   14.1323   28.8329   23.7287 H   0  0  0  0  0  0  0  0  0  0  0  0
   15.3027   25.6619   29.9680 C   0  0  0  0  0  0  0  0  0  0  0  0
   15.8594   26.8911   29.2529 C   0  0  0  0  0  0  0  0  0  0  0  0
   16.5420   27.7232   29.8325 O   0  0  0  0  0  0  0  0  0  0  0  0
   15.5933   26.9729   27.9434 N   0  0  0  0  0  0  0  0  0  0  0  0
   15.0037   26.2993   27.5336 H   0  0  0  0  0  0  0  0  0  0  0  0
   17.1236   28.3497   22.9055 C   0  0  0  0  0  0  0  0  0  0  0  0
   16.3483   28.0374   21.7381 O   0  0  0  0  0  0  0  0  0  0  0  0
   16.2161   27.0779   21.6849 H   0  0  0  0  0  0  0  0  0  0  0  0
   19.6136   27.1313   26.3295 O   0  0  0  0  0  0  0  0  0  0  0  0
   20.2571   25.9904   26.6781 C   0  0  0  0  0  0  0  0  0  0  0  0
   19.8127   24.8778   26.3897 O   0  0  0  0  0  0  0  0  0  0  0  0
   21.4057   26.2520   27.2888 N   0  0  0  0  0  0  0  0  0  0  0  0
   21.6422   27.2056   27.3512 H   0  0  0  0  0  0  0  0  0  0  0  0
   22.3142   25.3817   27.8477 C   0  0  0  0  0  0  0  0  0  0  0  0
   23.6554   25.6651   27.6884 C   0  0  0  0  0  0  0  0  0  0  0  0
   24.6850   24.8877   28.1877 C   0  0  0  0  0  0  0  0  0  0  0  0
   24.3484   23.7345   28.8988 C   0  0  0  0  0  0  0  0  0  0  0  0
   23.0053   23.4244   29.0854 C   0  0  0  0  0  0  0  0  0  0  0  0
   22.0033   24.2589   28.5694 C   0  0  0  0  0  0  0  0  0  0  0  0
 12 13  1  0  0  0
 13 14  2  0  0  0
 13 15  1  0  0  0
 15  1  1  0  0  0
  1  2  1  0  0  0
  1  8  1  0  0  0
  2  3  1  0  0  0
  2  4  1  0  0  0
  4  5  1  0  0  0
  4  6  1  0  0  0
  6 17  1  0  0  0
  6  7  1  0  0  0
 17 18  1  0  0  0
  7  8  1  0  0  0
  8  9  2  0  0  0
  9 20  1  0  0  0
 20 21  1  0  0  0
 21 22  2  0  0  0
 21 23  1  0  0  0
 23 25  1  0  0  0
 25 26  2  0  0  0
 25 30  1  0  0  0
 26 27  1  0  0  0
 27 28  2  0  0  0
 28 29  1  0  0  0
 29 30  2  0  0  0
 15 16  1  0  0  0
  3 10  1  0  0  0
  5 11  1  0  0  0
 18 19  1  0  0  0
 23 24  1  0  0  0
M  END
> <minimizedAffinity>
-8.36087

$$$$
4AZ6_OAN_A_1614


 30 31  0  0  0  0  0  0  0  0999 V2000
   13.4524   25.9181   29.5877 C   0  0  0  0  0  0  0  0  0  0  0  0
   14.0764   24.9958   30.6778 C   0  0  0  0  0  0  0  0  0  0  0  0
   13.3185   23.7759   30.7620 O   0  0  0  0  0  0  0  0  0  0  0  0
   15.5132   24.6854   30.2986 C   0  0  0  0  0  0  0  0  0  0  0  0
   16.0750   23.7902   31.2378 O   0  0  0  0  0  0  0  0  0  0  0  0
   16.2753   26.0012   30.4001 C   0  0  0  0  0  0  0  0  0  0  0  0
   15.7511   26.9401   29.3666 O   0  0  0  0  0  0  0  0  0  0  0  0
   14.4912   26.7953   28.9070 C   0  0  0  0  0  0  0  0  0  0  0  0
   14.1616   27.4450   27.8255 N   0  0  0  0  0  0  0  0  0  0  0  0
   13.3335   23.3260   29.9027 H   0  0  0  0  0  0  0  0  0  0  0  0
   16.0312   24.1820   32.1241 H   0  0  0  0  0  0  0  0  0  0  0  0
   10.1697   27.7159   30.3237 C   0  0  0  0  0  0  0  0  0  0  0  0
   11.1656   26.8024   29.6124 C   0  0  0  0  0  0  0  0  0  0  0  0
   10.9028   26.2634   28.5471 O   0  0  0  0  0  0  0  0  0  0  0  0
   12.3589   26.6693   30.2045 N   0  0  0  0  0  0  0  0  0  0  0  0
   12.5052   27.0900   31.0825 H   0  0  0  0  0  0  0  0  0  0  0  0
   17.7410   25.8693   30.1023 C   0  0  0  0  0  0  0  0  0  0  0  0
   18.2611   26.9909   29.3723 O   0  0  0  0  0  0  0  0  0  0  0  0
   17.8096   27.0572   28.5163 H   0  0  0  0  0  0  0  0  0  0  0  0
   15.2240   28.1868   27.3270 O   0  0  0  0  0  0  0  0  0  0  0  0
   15.0176   28.7705   26.1211 C   0  0  0  0  0  0  0  0  0  0  0  0
   14.3591   29.8052   26.0025 O   0  0  0  0  0  0  0  0  0  0  0  0
   15.6539   28.1199   25.1554 N   0  0  0  0  0  0  0  0  0  0  0  0
   16.2091   27.3630   25.4520 H   0  0  0  0  0  0  0  0  0  0  0  0
   15.6494   28.3513   23.7983 C   0  0  0  0  0  0  0  0  0  0  0  0
   16.8468   28.2301   23.1231 C   0  0  0  0  0  0  0  0  0  0  0  0
   17.0035   28.4327   21.7636 C   0  0  0  0  0  0  0  0  0  0  0  0
   15.8761   28.7879   21.0209 C   0  0  0  0  0  0  0  0  0  0  0  0
   14.6514   28.9097   21.6692 C   0  0  0  0  0  0  0  0  0  0  0  0
   14.5494   28.6766   23.0483 C   0  0  0  0  0  0  0  0  0  0  0  0
 12 13  1  0  0  0
 13 14  2  0  0  0
 13 15  1  0  0  0
 15  1  1  0  0  0
  1  2  1  0  0  0
  1  8  1  0  0  0
  2  3  1  0  0  0
  2  4  1  0  0  0
  4  5  1  0  0  0
  4  6  1  0  0  0
  6 17  1  0  0  0
  6  7  1  0  0  0
 17 18  1  0  0  0
  7  8  1  0  0  0
  8  9  2  0  0  0
  9 20  1  0  0  0
 20 21  1  0  0  0
 21 22  2  0  0  0
 21 23  1  0  0  0
 23 25  1  0  0  0
 25 26  2  0  0  0
 25 30  1  0  0  0
 26 27  1  0  0  0
 27 28  2  0  0  0
 28 29  1  0  0  0
 29 30  2  0  0  0
 15 16  1  0  0  0
  3 10  1  0  0  0
  5 11  1  0  0  0
 18 19  1  0  0  0
 23 24  1  0  0  0
M  END
> <minimizedAffinity>
-8.24876

$$$$
4AZ6_OAN_A_1614


 30 31  0  0  0  0  0  0  0  0999 V2000
   14.6444   26.4821   28.3006 C   0  0  0  0  0  0  0  0  0  0  0  0
   13.7617   26.8559   29.5293 C   0  0  0  0  0  0  0  0  0  0  0  0
   12.5847   27.5494   29.0782 O   0  0  0  0  0  0  0  0  0  0  0  0
   13.3642   25.5842   30.2568 C   0  0  0  0  0  0  0  0  0  0  0  0
   12.5024   25.8964   31.3333 O   0  0  0  0  0  0  0  0  0  0  0  0
   14.6477   25.0089   30.8434 C   0  0  0  0  0  0  0  0  0  0  0  0
   15.5458   24.6013   29.7245 O   0  0  0  0  0  0  0  0  0  0  0  0
   15.4311   25.1998   28.5211 C   0  0  0  0  0  0  0  0  0  0  0  0
   16.0291   24.6407   27.5061 N   0  0  0  0  0  0  0  0  0  0  0  0
   12.0839   26.9780   28.4753 H   0  0  0  0  0  0  0  0  0  0  0  0
   12.9481   26.5115   31.9365 H   0  0  0  0  0  0  0  0  0  0  0  0
   16.3501   29.4365   26.5941 C   0  0  0  0  0  0  0  0  0  0  0  0
   15.3235   28.3339   26.8439 C   0  0  0  0  0  0  0  0  0  0  0  0
   14.4421   28.0753   26.0372 O   0  0  0  0  0  0  0  0  0  0  0  0
   15.4801   27.6386   27.9772 N   0  0  0  0  0  0  0  0  0  0  0  0
   16.1795   27.9142   28.6129 H   0  0  0  0  0  0  0  0  0  0  0  0
   14.4318   23.7594   31.6474 C   0  0  0  0  0  0  0  0  0  0  0  0
   13.2435   23.0514   31.2627 O   0  0  0  0  0  0  0  0  0  0  0  0
   12.4684   23.6148   31.4132 H   0  0  0  0  0  0  0  0  0  0  0  0
   16.6907   23.4774   27.8757 O   0  0  0  0  0  0  0  0  0  0  0  0
   17.9759   23.3750   27.4572 C   0  0  0  0  0  0  0  0  0  0  0  0
   18.3126   22.5828   26.5753 O   0  0  0  0  0  0  0  0  0  0  0  0
   18.7544   24.2572   28.0706 N   0  0  0  0  0  0  0  0  0  0  0  0
   18.2915   24.8743   28.6822 H   0  0  0  0  0  0  0  0  0  0  0  0
   20.1164   24.4337   27.9746 C   0  0  0  0  0  0  0  0  0  0  0  0
   20.5764   25.4333   27.1417 C   0  0  0  0  0  0  0  0  0  0  0  0
   21.9120   25.7307   26.9384 C   0  0  0  0  0  0  0  0  0  0  0  0
   22.8630   24.9672   27.6178 C   0  0  0  0  0  0  0  0  0  0  0  0
   22.4328   23.9575   28.4724 C   0  0  0  0  0  0  0  0  0  0  0  0
   21.0640   23.7112   28.6517 C   0  0  0  0  0  0  0  0  0  0  0  0
 12 13  1  0  0  0
 13 14  2  0  0  0
 13 15  1  0  0  0
 15  1  1  0  0  0
  1  2  1  0  0  0
  1  8  1  0  0  0
  2  3  1  0  0  0
  2  4  1  0  0  0
  4  5  1  0  0  0
  4  6  1  0  0  0
  6 17  1  0  0  0
  6  7  1  0  0  0
 17 18  1  0  0  0
  7  8  1  0  0  0
  8  9  2  0  0  0
  9 20  1  0  0  0
 20 21  1  0  0  0
 21 22  2  0  0  0
 21 23  1  0  0  0
 23 25  1  0  0  0
 25 26  2  0  0  0
 25 30  1  0  0  0
 26 27  1  0  0  0
 27 28  2  0  0  0
 28 29  1  0  0  0
 29 30  2  0  0  0
 15 16  1  0  0  0
  3 10  1  0  0  0
  5 11  1  0  0  0
 18 19  1  0  0  0
 23 24  1  0  0  0
M  END
> <minimizedAffinity>
-7.94706

$$$$
4AZ6_OAN_A_1614


 30 31  0  0  0  0  0  0  0  0999 V2000
   16.9056   28.0748   27.2941 C   0  0  0  0  0  0  0  0  0  0  0  0
   17.3673   28.8609   26.0302 C   0  0  0  0  0  0  0  0  0  0  0  0
   18.7078   28.4674   25.6866 O   0  0  0  0  0  0  0  0  0  0  0  0
   16.4265   28.5453   24.8814 C   0  0  0  0  0  0  0  0  0  0  0  0
   16.8709   29.1921   23.7054 O   0  0  0  0  0  0  0  0  0  0  0  0
   15.0770   29.1449   25.2577 C   0  0  0  0  0  0  0  0  0  0  0  0
   14.5502   28.4274   26.4545 O   0  0  0  0  0  0  0  0  0  0  0  0
   15.4061   27.8235   27.3043 C   0  0  0  0  0  0  0  0  0  0  0  0
   14.9098   26.9858   28.1718 N   0  0  0  0  0  0  0  0  0  0  0  0
   18.7290   27.5144   25.5070 H   0  0  0  0  0  0  0  0  0  0  0  0
   16.9151   30.1488   23.8595 H   0  0  0  0  0  0  0  0  0  0  0  0
   18.3099   29.0281   30.7101 C   0  0  0  0  0  0  0  0  0  0  0  0
   17.9669   28.1579   29.5030 C   0  0  0  0  0  0  0  0  0  0  0  0
   18.1654   26.9517   29.4972 O   0  0  0  0  0  0  0  0  0  0  0  0
   17.3916   28.7915   28.4734 N   0  0  0  0  0  0  0  0  0  0  0  0
   17.2926   29.7703   28.5110 H   0  0  0  0  0  0  0  0  0  0  0  0
   14.0261   28.9669   24.2002 C   0  0  0  0  0  0  0  0  0  0  0  0
   14.1049   27.6889   23.5505 O   0  0  0  0  0  0  0  0  0  0  0  0
   14.9626   27.6048   23.1054 H   0  0  0  0  0  0  0  0  0  0  0  0
   13.5330   26.8639   28.0398 O   0  0  0  0  0  0  0  0  0  0  0  0
   12.8726   26.4422   29.1459 C   0  0  0  0  0  0  0  0  0  0  0  0
   12.7614   25.2464   29.4218 O   0  0  0  0  0  0  0  0  0  0  0  0
   12.4450   27.4671   29.8722 N   0  0  0  0  0  0  0  0  0  0  0  0
   12.7066   28.3565   29.5411 H   0  0  0  0  0  0  0  0  0  0  0  0
   11.6880   27.4654   31.0221 C   0  0  0  0  0  0  0  0  0  0  0  0
   10.3277   27.2706   30.8941 C   0  0  0  0  0  0  0  0  0  0  0  0
    9.4371   27.2455   31.9523 C   0  0  0  0  0  0  0  0  0  0  0  0
    9.9446   27.4333   33.2391 C   0  0  0  0  0  0  0  0  0  0  0  0
   11.3127   27.6232   33.4043 C   0  0  0  0  0  0  0  0  0  0  0  0
   12.1707   27.6234   32.2950 C   0  0  0  0  0  0  0  0  0  0  0  0
 12 13  1  0  0  0
 13 14  2  0  0  0
 13 15  1  0  0  0
 15  1  1  0  0  0
  1  2  1  0  0  0
  1  8  1  0  0  0
  2  3  1  0  0  0
  2  4  1  0  0  0
  4  5  1  0  0  0
  4  6  1  0  0  0
  6 17  1  0  0  0
  6  7  1  0  0  0
 17 18  1  0  0  0
  7  8  1  0  0  0
  8  9  2  0  0  0
  9 20  1  0  0  0
 20 21  1  0  0  0
 21 22  2  0  0  0
 21 23  1  0  0  0
 23 25  1  0  0  0
 25 26  2  0  0  0
 25 30  1  0  0  0
 26 27  1  0  0  0
 27 28  2  0  0  0
 28 29  1  0  0  0
 29 30  2  0  0  0
 15 16  1  0  0  0
  3 10  1  0  0  0
  5 11  1  0  0  0
 18 19  1  0  0  0
 23 24  1  0  0  0
M  END
> <minimizedAffinity>
-7.94458

$$$$
4AZ6_OAN_A_1614


 30 31  0  0  0  0  0  0  0  0999 V2000
   22.6377   25.4790   29.4360 C   0  0  0  0  0  0  0  0  0  0  0  0
   24.1825   25.2794   29.3877 C   0  0  0  0  0  0  0  0  0  0  0  0
   24.5420   24.1404   30.1897 O   0  0  0  0  0  0  0  0  0  0  0  0
   24.6060   25.0509   27.9479 C   0  0  0  0  0  0  0  0  0  0  0  0
   25.9953   24.7951   27.8910 O   0  0  0  0  0  0  0  0  0  0  0  0
   24.3461   26.3607   27.2135 C   0  0  0  0  0  0  0  0  0  0  0  0
   22.8768   26.6163   27.1941 O   0  0  0  0  0  0  0  0  0  0  0  0
   22.0912   26.0837   28.1525 C   0  0  0  0  0  0  0  0  0  0  0  0
   20.8021   26.0947   27.9558 N   0  0  0  0  0  0  0  0  0  0  0  0
   24.0974   23.3497   29.8461 H   0  0  0  0  0  0  0  0  0  0  0  0
   26.4779   25.5433   28.2758 H   0  0  0  0  0  0  0  0  0  0  0  0
   21.5528   26.6156   32.9118 C   0  0  0  0  0  0  0  0  0  0  0  0
   21.9712   25.6700   31.7880 C   0  0  0  0  0  0  0  0  0  0  0  0
   21.9453   24.4551   31.9209 O   0  0  0  0  0  0  0  0  0  0  0  0
   22.3206   26.2546   30.6353 N   0  0  0  0  0  0  0  0  0  0  0  0
   22.3655   27.2372   30.5934 H   0  0  0  0  0  0  0  0  0  0  0  0
   24.7575   26.3301   25.7698 C   0  0  0  0  0  0  0  0  0  0  0  0
   23.6481   26.4974   24.8739 O   0  0  0  0  0  0  0  0  0  0  0  0
   23.0196   25.7690   24.9981 H   0  0  0  0  0  0  0  0  0  0  0  0
   20.4727   26.6702   26.7360 O   0  0  0  0  0  0  0  0  0  0  0  0
   19.1478   26.8431   26.5074 C   0  0  0  0  0  0  0  0  0  0  0  0
   18.3091   26.0241   26.8872 O   0  0  0  0  0  0  0  0  0  0  0  0
   18.9102   27.9985   25.8999 N   0  0  0  0  0  0  0  0  0  0  0  0
   19.6995   28.5688   25.7552 H   0  0  0  0  0  0  0  0  0  0  0  0
   17.7185   28.5145   25.4427 C   0  0  0  0  0  0  0  0  0  0  0  0
   17.0985   29.4766   26.2137 C   0  0  0  0  0  0  0  0  0  0  0  0
   15.8995   30.0863   25.8906 C   0  0  0  0  0  0  0  0  0  0  0  0
   15.2685   29.7022   24.7061 C   0  0  0  0  0  0  0  0  0  0  0  0
   15.8713   28.7412   23.9009 C   0  0  0  0  0  0  0  0  0  0  0  0
   17.0964   28.1682   24.2716 C   0  0  0  0  0  0  0  0  0  0  0  0
 12 13  1  0  0  0
 13 14  2  0  0  0
 13 15  1  0  0  0
 15  1  1  0  0  0
  1  2  1  0  0  0
  1  8  1  0  0  0
  2  3  1  0  0  0
  2  4  1  0  0  0
  4  5  1  0  0  0
  4  6  1  0  0  0
  6 17  1  0  0  0
  6  7  1  0  0  0
 17 18  1  0  0  0
  7  8  1  0  0  0
  8  9  2  0  0  0
  9 20  1  0  0  0
 20 21  1  0  0  0
 21 22  2  0  0  0
 21 23  1  0  0  0
 23 25  1  0  0  0
 25 26  2  0  0  0
 25 30  1  0  0  0
 26 27  1  0  0  0
 27 28  2  0  0  0
 28 29  1  0  0  0
 29 30  2  0  0  0
 15 16  1  0  0  0
  3 10  1  0  0  0
  5 11  1  0  0  0
 18 19  1  0  0  0
 23 24  1  0  0  0
M  END
> <minimizedAffinity>
-7.86429

$$$$
4AZ6_OAN_A_1614


 30 31  0  0  0  0  0  0  0  0999 V2000
   16.2217   25.4596   28.7104 C   0  0  0  0  0  0  0  0  0  0  0  0
   17.2608   24.2986   28.6824 C   0  0  0  0  0  0  0  0  0  0  0  0
   16.6107   23.0861   28.2616 O   0  0  0  0  0  0  0  0  0  0  0  0
   18.3712   24.6530   27.7098 C   0  0  0  0  0  0  0  0  0  0  0  0
   19.2871   23.5800   27.6151 O   0  0  0  0  0  0  0  0  0  0  0  0
   19.1093   25.8393   28.3184 C   0  0  0  0  0  0  0  0  0  0  0  0
   18.1849   27.0090   28.3605 O   0  0  0  0  0  0  0  0  0  0  0  0
   16.8517   26.8084   28.4010 C   0  0  0  0  0  0  0  0  0  0  0  0
   16.0770   27.8297   28.1614 N   0  0  0  0  0  0  0  0  0  0  0  0
   16.2341   23.2116   27.3765 H   0  0  0  0  0  0  0  0  0  0  0  0
   19.6497   23.3860   28.4936 H   0  0  0  0  0  0  0  0  0  0  0  0
   13.7020   24.9279   31.5243 C   0  0  0  0  0  0  0  0  0  0  0  0
   14.3579   24.7831   30.1528 C   0  0  0  0  0  0  0  0  0  0  0  0
   13.8241   24.1669   29.2419 O   0  0  0  0  0  0  0  0  0  0  0  0
   15.5287   25.4136   29.9980 N   0  0  0  0  0  0  0  0  0  0  0  0
   15.9361   25.8603   30.7750 H   0  0  0  0  0  0  0  0  0  0  0  0
   20.2836   26.2971   27.5024 C   0  0  0  0  0  0  0  0  0  0  0  0
   21.3010   26.9236   28.2987 O   0  0  0  0  0  0  0  0  0  0  0  0
   20.9359   27.7140   28.7262 H   0  0  0  0  0  0  0  0  0  0  0  0
   16.8087   28.9775   27.8879 O   0  0  0  0  0  0  0  0  0  0  0  0
   16.6754   29.4733   26.6334 C   0  0  0  0  0  0  0  0  0  0  0  0
   16.7563   30.6802   26.3981 O   0  0  0  0  0  0  0  0  0  0  0  0
   16.5156   28.5008   25.7450 N   0  0  0  0  0  0  0  0  0  0  0  0
   16.5684   27.5867   26.1067 H   0  0  0  0  0  0  0  0  0  0  0  0
   16.2867   28.5862   24.3902 C   0  0  0  0  0  0  0  0  0  0  0  0
   14.9817   28.7408   23.9688 C   0  0  0  0  0  0  0  0  0  0  0  0
   14.5925   28.8389   22.6449 C   0  0  0  0  0  0  0  0  0  0  0  0
   15.5844   28.7738   21.6649 C   0  0  0  0  0  0  0  0  0  0  0  0
   16.9113   28.6273   22.0559 C   0  0  0  0  0  0  0  0  0  0  0  0
   17.2488   28.5489   23.4148 C   0  0  0  0  0  0  0  0  0  0  0  0
 12 13  1  0  0  0
 13 14  2  0  0  0
 13 15  1  0  0  0
 15  1  1  0  0  0
  1  2  1  0  0  0
  1  8  1  0  0  0
  2  3  1  0  0  0
  2  4  1  0  0  0
  4  5  1  0  0  0
  4  6  1  0  0  0
  6 17  1  0  0  0
  6  7  1  0  0  0
 17 18  1  0  0  0
  7  8  1  0  0  0
  8  9  2  0  0  0
  9 20  1  0  0  0
 20 21  1  0  0  0
 21 22  2  0  0  0
 21 23  1  0  0  0
 23 25  1  0  0  0
 25 26  2  0  0  0
 25 30  1  0  0  0
 26 27  1  0  0  0
 27 28  2  0  0  0
 28 29  1  0  0  0
 29 30  2  0  0  0
 15 16  1  0  0  0
  3 10  1  0  0  0
  5 11  1  0  0  0
 18 19  1  0  0  0
 23 24  1  0  0  0
M  END
> <minimizedAffinity>
-7.77740

$$$$
4AZ6_OAN_A_1614


 30 31  0  0  0  0  0  0  0  0999 V2000
   18.7909   27.2283   29.3858 C   0  0  0  0  0  0  0  0  0  0  0  0
   18.7664   26.6848   30.8461 C   0  0  0  0  0  0  0  0  0  0  0  0
   20.0278   26.9622   31.4799 O   0  0  0  0  0  0  0  0  0  0  0  0
   17.6449   27.3674   31.6082 C   0  0  0  0  0  0  0  0  0  0  0  0
   17.6519   26.9415   32.9564 O   0  0  0  0  0  0  0  0  0  0  0  0
   16.3444   26.8847   30.9771 C   0  0  0  0  0  0  0  0  0  0  0  0
   16.2775   27.3854   29.5738 O   0  0  0  0  0  0  0  0  0  0  0  0
   17.4161   27.6684   28.9082 C   0  0  0  0  0  0  0  0  0  0  0  0
   17.3185   28.3535   27.8029 N   0  0  0  0  0  0  0  0  0  0  0  0
   20.1818   27.9199   31.4880 H   0  0  0  0  0  0  0  0  0  0  0  0
   17.5530   25.9772   32.9913 H   0  0  0  0  0  0  0  0  0  0  0  0
   21.1783   25.1987   27.2106 C   0  0  0  0  0  0  0  0  0  0  0  0
   20.7075   26.2626   28.1999 C   0  0  0  0  0  0  0  0  0  0  0  0
   21.4572   27.1312   28.6216 O   0  0  0  0  0  0  0  0  0  0  0  0
   19.4128   26.2119   28.5368 N   0  0  0  0  0  0  0  0  0  0  0  0
   18.8619   25.4674   28.2027 H   0  0  0  0  0  0  0  0  0  0  0  0
   15.1154   27.4290   31.6462 C   0  0  0  0  0  0  0  0  0  0  0  0
   15.3315   28.7200   32.2362 O   0  0  0  0  0  0  0  0  0  0  0  0
   16.0132   28.6517   32.9228 H   0  0  0  0  0  0  0  0  0  0  0  0
   16.0005   28.6834   27.5169 O   0  0  0  0  0  0  0  0  0  0  0  0
   15.7808   29.2087   26.2867 C   0  0  0  0  0  0  0  0  0  0  0  0
   15.3149   30.3393   26.1350 O   0  0  0  0  0  0  0  0  0  0  0  0
   16.1832   28.3815   25.3304 N   0  0  0  0  0  0  0  0  0  0  0  0
   16.6176   27.5552   25.6431 H   0  0  0  0  0  0  0  0  0  0  0  0
   16.0804   28.5125   23.9638 C   0  0  0  0  0  0  0  0  0  0  0  0
   14.8210   28.6954   23.4300 C   0  0  0  0  0  0  0  0  0  0  0  0
   14.5558   28.8400   22.0800 C   0  0  0  0  0  0  0  0  0  0  0  0
   15.6330   28.7948   21.1933 C   0  0  0  0  0  0  0  0  0  0  0  0
   16.9171   28.6208   21.6991 C   0  0  0  0  0  0  0  0  0  0  0  0
   17.1277   28.4954   23.0799 C   0  0  0  0  0  0  0  0  0  0  0  0
 12 13  1  0  0  0
 13 14  2  0  0  0
 13 15  1  0  0  0
 15  1  1  0  0  0
  1  2  1  0  0  0
  1  8  1  0  0  0
  2  3  1  0  0  0
  2  4  1  0  0  0
  4  5  1  0  0  0
  4  6  1  0  0  0
  6 17  1  0  0  0
  6  7  1  0  0  0
 17 18  1  0  0  0
  7  8  1  0  0  0
  8  9  2  0  0  0
  9 20  1  0  0  0
 20 21  1  0  0  0
 21 22  2  0  0  0
 21 23  1  0  0  0
 23 25  1  0  0  0
 25 26  2  0  0  0
 25 30  1  0  0  0
 26 27  1  0  0  0
 27 28  2  0  0  0
 28 29  1  0  0  0
 29 30  2  0  0  0
 15 16  1  0  0  0
  3 10  1  0  0  0
  5 11  1  0  0  0
 18 19  1  0  0  0
 23 24  1  0  0  0
M  END
> <minimizedAffinity>
-7.74894

$$$$
4AZ6_OAN_A_1614


 30 31  0  0  0  0  0  0  0  0999 V2000
   22.6980   25.8141   28.1598 C   0  0  0  0  0  0  0  0  0  0  0  0
   23.2403   25.2865   29.5221 C   0  0  0  0  0  0  0  0  0  0  0  0
   24.0390   26.3078   30.1457 O   0  0  0  0  0  0  0  0  0  0  0  0
   22.0664   24.9315   30.4167 C   0  0  0  0  0  0  0  0  0  0  0  0
   22.5367   24.5192   31.6848 O   0  0  0  0  0  0  0  0  0  0  0  0
   21.3803   23.7362   29.7665 C   0  0  0  0  0  0  0  0  0  0  0  0
   20.8089   24.1649   28.4573 O   0  0  0  0  0  0  0  0  0  0  0  0
   21.3476   25.2137   27.8021 C   0  0  0  0  0  0  0  0  0  0  0  0
   20.6666   25.7279   26.8161 N   0  0  0  0  0  0  0  0  0  0  0  0
   23.4963   27.0984   30.2919 H   0  0  0  0  0  0  0  0  0  0  0  0
   23.1291   23.7585   31.5783 H   0  0  0  0  0  0  0  0  0  0  0  0
   25.4714   26.2137   25.5716 C   0  0  0  0  0  0  0  0  0  0  0  0
   24.5288   26.5756   26.7173 C   0  0  0  0  0  0  0  0  0  0  0  0
   24.4778   27.7054   27.1812 O   0  0  0  0  0  0  0  0  0  0  0  0
   23.7297   25.5909   27.1468 N   0  0  0  0  0  0  0  0  0  0  0  0
   23.8399   24.6885   26.7691 H   0  0  0  0  0  0  0  0  0  0  0  0
   20.2117   23.2154   30.5523 C   0  0  0  0  0  0  0  0  0  0  0  0
   19.6042   24.2230   31.3752 O   0  0  0  0  0  0  0  0  0  0  0  0
   20.2511   24.5455   32.0221 H   0  0  0  0  0  0  0  0  0  0  0  0
   19.4572   25.0722   26.6291 O   0  0  0  0  0  0  0  0  0  0  0  0
   18.3528   25.8575   26.6609 C   0  0  0  0  0  0  0  0  0  0  0  0
   17.3116   25.4953   27.2116 O   0  0  0  0  0  0  0  0  0  0  0  0
   18.5812   27.0340   26.0914 N   0  0  0  0  0  0  0  0  0  0  0  0
   19.5052   27.1817   25.7853 H   0  0  0  0  0  0  0  0  0  0  0  0
   17.7120   28.0777   25.8670 C   0  0  0  0  0  0  0  0  0  0  0  0
   17.2688   28.2768   24.5752 C   0  0  0  0  0  0  0  0  0  0  0  0
   16.3984   29.2813   24.1918 C   0  0  0  0  0  0  0  0  0  0  0  0
   15.9372   30.1579   25.1754 C   0  0  0  0  0  0  0  0  0  0  0  0
   16.3573   29.9798   26.4895 C   0  0  0  0  0  0  0  0  0  0  0  0
   17.2292   28.9332   26.8227 C   0  0  0  0  0  0  0  0  0  0  0  0
 12 13  1  0  0  0
 13 14  2  0  0  0
 13 15  1  0  0  0
 15  1  1  0  0  0
  1  2  1  0  0  0
  1  8  1  0  0  0
  2  3  1  0  0  0
  2  4  1  0  0  0
  4  5  1  0  0  0
  4  6  1  0  0  0
  6 17  1  0  0  0
  6  7  1  0  0  0
 17 18  1  0  0  0
  7  8  1  0  0  0
  8  9  2  0  0  0
  9 20  1  0  0  0
 20 21  1  0  0  0
 21 22  2  0  0  0
 21 23  1  0  0  0
 23 25  1  0  0  0
 25 26  2  0  0  0
 25 30  1  0  0  0
 26 27  1  0  0  0
 27 28  2  0  0  0
 28 29  1  0  0  0
 29 30  2  0  0  0
 15 16  1  0  0  0
  3 10  1  0  0  0
  5 11  1  0  0  0
 18 19  1  0  0  0
 23 24  1  0  0  0
M  END
> <minimizedAffinity>
-7.74067

$$$$
4AZ6_OAN_A_1614


 30 31  0  0  0  0  0  0  0  0999 V2000
   18.0392   26.6138   29.0254 C   0  0  0  0  0  0  0  0  0  0  0  0
   17.4089   25.3696   29.7205 C   0  0  0  0  0  0  0  0  0  0  0  0
   18.2381   24.9691   30.8258 O   0  0  0  0  0  0  0  0  0  0  0  0
   16.0225   25.7330   30.2207 C   0  0  0  0  0  0  0  0  0  0  0  0
   15.4620   24.6388   30.9191 O   0  0  0  0  0  0  0  0  0  0  0  0
   15.1710   25.9756   28.9804 C   0  0  0  0  0  0  0  0  0  0  0  0
   15.6973   27.1733   28.2641 O   0  0  0  0  0  0  0  0  0  0  0  0
   16.9905   27.5274   28.4109 C   0  0  0  0  0  0  0  0  0  0  0  0
   17.3450   28.7136   28.0014 N   0  0  0  0  0  0  0  0  0  0  0  0
   18.3071   25.7001   31.4597 H   0  0  0  0  0  0  0  0  0  0  0  0
   15.4237   23.8667   30.3332 H   0  0  0  0  0  0  0  0  0  0  0  0
   21.2744   25.7095   27.2183 C   0  0  0  0  0  0  0  0  0  0  0  0
   20.3465   26.1177   28.3605 C   0  0  0  0  0  0  0  0  0  0  0  0
   20.7757   26.4473   29.4566 O   0  0  0  0  0  0  0  0  0  0  0  0
   19.0398   26.1380   28.0700 N   0  0  0  0  0  0  0  0  0  0  0  0
   18.7429   25.8228   27.1858 H   0  0  0  0  0  0  0  0  0  0  0  0
   13.7389   26.3028   29.2911 C   0  0  0  0  0  0  0  0  0  0  0  0
   12.9971   25.1625   29.7500 O   0  0  0  0  0  0  0  0  0  0  0  0
   12.9819   24.4856   29.0553 H   0  0  0  0  0  0  0  0  0  0  0  0
   16.2701   29.4199   27.4784 O   0  0  0  0  0  0  0  0  0  0  0  0
   16.3865   29.7886   26.1792 C   0  0  0  0  0  0  0  0  0  0  0  0
   16.7633   30.9157   25.8533 O   0  0  0  0  0  0  0  0  0  0  0  0
   16.1056   28.7796   25.3647 N   0  0  0  0  0  0  0  0  0  0  0  0
   15.9112   27.9220   25.8075 H   0  0  0  0  0  0  0  0  0  0  0  0
   16.0470   28.7593   23.9894 C   0  0  0  0  0  0  0  0  0  0  0  0
   14.8031   28.8521   23.3991 C   0  0  0  0  0  0  0  0  0  0  0  0
   14.5814   28.8431   22.0336 C   0  0  0  0  0  0  0  0  0  0  0  0
   15.6890   28.7288   21.1918 C   0  0  0  0  0  0  0  0  0  0  0  0
   16.9584   28.6425   21.7541 C   0  0  0  0  0  0  0  0  0  0  0  0
   17.1241   28.6725   23.1463 C   0  0  0  0  0  0  0  0  0  0  0  0
 12 13  1  0  0  0
 13 14  2  0  0  0
 13 15  1  0  0  0
 15  1  1  0  0  0
  1  2  1  0  0  0
  1  8  1  0  0  0
  2  3  1  0  0  0
  2  4  1  0  0  0
  4  5  1  0  0  0
  4  6  1  0  0  0
  6 17  1  0  0  0
  6  7  1  0  0  0
 17 18  1  0  0  0
  7  8  1  0  0  0
  8  9  2  0  0  0
  9 20  1  0  0  0
 20 21  1  0  0  0
 21 22  2  0  0  0
 21 23  1  0  0  0
 23 25  1  0  0  0
 25 26  2  0  0  0
 25 30  1  0  0  0
 26 27  1  0  0  0
 27 28  2  0  0  0
 28 29  1  0  0  0
 29 30  2  0  0  0
 15 16  1  0  0  0
  3 10  1  0  0  0
  5 11  1  0  0  0
 18 19  1  0  0  0
 23 24  1  0  0  0
M  END
> <minimizedAffinity>
-7.66930

$$$$
