1QAN_SAH_A_501


 33 35  0  0  0  0  0  0  0  0999 V2000
   17.3516   36.1882   24.0645 C   0  0  0  0  0  0  0  0  0  0  0  0
   17.6953   35.4599   25.2566 O   0  0  0  0  0  0  0  0  0  0  0  0
   18.2858   37.4171   24.0365 C   0  0  0  0  0  0  0  0  0  0  0  0
   17.6876   38.6073   24.5193 O   0  0  0  0  0  0  0  0  0  0  0  0
   19.4963   36.9028   24.7816 C   0  0  0  0  0  0  0  0  0  0  0  0
   20.2379   37.9403   25.4076 O   0  0  0  0  0  0  0  0  0  0  0  0
   18.8240   36.0666   25.8984 C   0  0  0  0  0  0  0  0  0  0  0  0
   17.3835   38.4699   25.4301 H   0  0  0  0  0  0  0  0  0  0  0  0
   19.6578   38.4369   26.0057 H   0  0  0  0  0  0  0  0  0  0  0  0
   19.6684   34.9827   26.4487 N   0  0  0  0  0  0  0  0  0  0  0  0
   20.6988   34.2940   25.9116 C   0  0  0  0  0  0  0  0  0  0  0  0
   21.2330   33.3737   26.7295 N   0  0  0  0  0  0  0  0  0  0  0  0
   20.4945   33.4433   27.9036 C   0  0  0  0  0  0  0  0  0  0  0  0
   20.4843   32.8106   29.1442 C   0  0  0  0  0  0  0  0  0  0  0  0
   21.3845   31.8320   29.4450 N   0  0  0  0  0  0  0  0  0  0  0  0
   19.5676   33.1548   30.1127 N   0  0  0  0  0  0  0  0  0  0  0  0
   18.6665   34.1365   29.8540 C   0  0  0  0  0  0  0  0  0  0  0  0
   18.6013   34.8012   28.6637 N   0  0  0  0  0  0  0  0  0  0  0  0
   19.5207   34.4614   27.7254 C   0  0  0  0  0  0  0  0  0  0  0  0
   22.0554   31.5585   28.7784 H   0  0  0  0  0  0  0  0  0  0  0  0
   21.3637   31.3988   30.3288 H   0  0  0  0  0  0  0  0  0  0  0  0
   17.3459   35.2789   22.8130 C   0  0  0  0  0  0  0  0  0  0  0  0
   16.3374   35.8881   21.4029 S   0  0  0  0  0  0  0  0  0  0  0  0
   14.9446   36.7730   22.2148 C   0  0  0  0  0  0  0  0  0  0  0  0
   14.2453   37.7609   21.2555 C   0  0  0  0  0  0  0  0  0  0  0  0
   12.2713   37.7895   22.8418 N   0  0  0  0  0  0  0  0  0  0  0  0
   12.9157   38.4125   21.6996 C   0  0  0  0  0  0  0  0  0  0  0  0
   12.9071   37.8016   23.6393 H   0  0  0  0  0  0  0  0  0  0  0  0
   12.0316   36.8250   22.6127 H   0  0  0  0  0  0  0  0  0  0  0  0
   12.0486   38.4557   20.4214 C   0  0  0  0  0  0  0  0  0  0  0  0
   11.8900   37.3705   19.7874 O   0  0  0  0  0  0  0  0  0  0  0  0
   11.5593   39.5847   20.0777 O   0  0  0  0  0  0  0  0  0  0  0  0
   11.7221   40.3447   20.6010 H   0  0  0  0  0  0  0  0  0  0  0  0
 26 27  1  0  0  0
 27 25  1  0  0  0
 27 30  1  0  0  0
 25 24  1  0  0  0
 24 23  1  0  0  0
 23 22  1  0  0  0
 30 31  2  0  0  0
 30 32  1  0  0  0
 22  1  1  0  0  0
  1  2  1  0  0  0
  1  3  1  0  0  0
  2  7  1  0  0  0
  3  4  1  0  0  0
  3  5  1  0  0  0
  5  6  1  0  0  0
  5  7  1  0  0  0
  7 10  1  0  0  0
 10 11  1  0  0  0
 10 19  1  0  0  0
 11 12  2  0  0  0
 12 13  1  0  0  0
 13 14  1  0  0  0
 13 19  2  0  0  0
 14 15  1  0  0  0
 14 16  2  0  0  0
 16 17  1  0  0  0
 17 18  2  0  0  0
 18 19  1  0  0  0
 26 28  1  0  0  0
 26 29  1  0  0  0
 32 33  1  0  0  0
  4  8  1  0  0  0
  6  9  1  0  0  0
 15 20  1  0  0  0
 15 21  1  0  0  0
M  END
> <minimizedAffinity>
-9.90128

$$$$
1QAN_SAH_A_501


 33 35  0  0  0  0  0  0  0  0999 V2000
   17.4410   35.8604   23.5484 C   0  0  0  0  0  0  0  0  0  0  0  0
   17.6589   35.1976   24.8065 O   0  0  0  0  0  0  0  0  0  0  0  0
   18.2159   37.1931   23.6335 C   0  0  0  0  0  0  0  0  0  0  0  0
   17.4089   38.3091   23.9663 O   0  0  0  0  0  0  0  0  0  0  0  0
   19.3330   36.8411   24.5890 C   0  0  0  0  0  0  0  0  0  0  0  0
   19.8302   37.9704   25.2931 O   0  0  0  0  0  0  0  0  0  0  0  0
   18.5824   35.9467   25.6064 C   0  0  0  0  0  0  0  0  0  0  0  0
   16.9719   38.1498   24.8175 H   0  0  0  0  0  0  0  0  0  0  0  0
   19.1024   38.4020   25.7673 H   0  0  0  0  0  0  0  0  0  0  0  0
   19.4414   34.9819   26.3289 N   0  0  0  0  0  0  0  0  0  0  0  0
   20.5471   34.3086   25.9436 C   0  0  0  0  0  0  0  0  0  0  0  0
   21.0675   33.5141   26.8919 N   0  0  0  0  0  0  0  0  0  0  0  0
   20.2380   33.6576   27.9964 C   0  0  0  0  0  0  0  0  0  0  0  0
   20.1677   33.1574   29.2943 C   0  0  0  0  0  0  0  0  0  0  0  0
   21.0955   32.2749   29.7620 N   0  0  0  0  0  0  0  0  0  0  0  0
   19.1612   33.5408   30.1527 N   0  0  0  0  0  0  0  0  0  0  0  0
   18.2290   34.4307   29.7263 C   0  0  0  0  0  0  0  0  0  0  0  0
   18.2186   34.9630   28.4695 N   0  0  0  0  0  0  0  0  0  0  0  0
   19.2252   34.5872   27.6409 C   0  0  0  0  0  0  0  0  0  0  0  0
   21.8301   31.9773   29.1780 H   0  0  0  0  0  0  0  0  0  0  0  0
   21.0310   31.9352   30.6838 H   0  0  0  0  0  0  0  0  0  0  0  0
   17.7556   34.9380   22.3469 C   0  0  0  0  0  0  0  0  0  0  0  0
   16.7094   35.2001   20.8593 S   0  0  0  0  0  0  0  0  0  0  0  0
   16.5323   33.5127   20.1495 C   0  0  0  0  0  0  0  0  0  0  0  0
   17.1161   33.4177   18.7229 C   0  0  0  0  0  0  0  0  0  0  0  0
   15.3974   31.6624   18.1077 N   0  0  0  0  0  0  0  0  0  0  0  0
   16.7077   32.2231   17.8310 C   0  0  0  0  0  0  0  0  0  0  0  0
   14.6880   32.3878   18.0027 H   0  0  0  0  0  0  0  0  0  0  0  0
   15.3764   31.3019   19.0616 H   0  0  0  0  0  0  0  0  0  0  0  0
   17.8733   31.2167   17.9575 C   0  0  0  0  0  0  0  0  0  0  0  0
   19.0289   31.6873   18.1766 O   0  0  0  0  0  0  0  0  0  0  0  0
   17.6002   29.9764   17.8189 O   0  0  0  0  0  0  0  0  0  0  0  0
   16.7175   29.7061   17.6583 H   0  0  0  0  0  0  0  0  0  0  0  0
 26 27  1  0  0  0
 27 25  1  0  0  0
 27 30  1  0  0  0
 25 24  1  0  0  0
 24 23  1  0  0  0
 23 22  1  0  0  0
 30 31  2  0  0  0
 30 32  1  0  0  0
 22  1  1  0  0  0
  1  2  1  0  0  0
  1  3  1  0  0  0
  2  7  1  0  0  0
  3  4  1  0  0  0
  3  5  1  0  0  0
  5  6  1  0  0  0
  5  7  1  0  0  0
  7 10  1  0  0  0
 10 11  1  0  0  0
 10 19  1  0  0  0
 11 12  2  0  0  0
 12 13  1  0  0  0
 13 14  1  0  0  0
 13 19  2  0  0  0
 14 15  1  0  0  0
 14 16  2  0  0  0
 16 17  1  0  0  0
 17 18  2  0  0  0
 18 19  1  0  0  0
 26 28  1  0  0  0
 26 29  1  0  0  0
 32 33  1  0  0  0
  4  8  1  0  0  0
  6  9  1  0  0  0
 15 20  1  0  0  0
 15 21  1  0  0  0
M  END
> <minimizedAffinity>
-9.04762

$$$$
1QAN_SAH_A_501


 33 35  0  0  0  0  0  0  0  0999 V2000
   20.3811   33.4505   28.8611 C   0  0  0  0  0  0  0  0  0  0  0  0
   19.8725   34.1985   27.7425 O   0  0  0  0  0  0  0  0  0  0  0  0
   19.2080   33.3314   29.8578 C   0  0  0  0  0  0  0  0  0  0  0  0
   19.2504   34.2752   30.9137 O   0  0  0  0  0  0  0  0  0  0  0  0
   18.0117   33.3827   28.9353 C   0  0  0  0  0  0  0  0  0  0  0  0
   16.8440   33.8762   29.5767 O   0  0  0  0  0  0  0  0  0  0  0  0
   18.4719   34.4501   27.9119 C   0  0  0  0  0  0  0  0  0  0  0  0
   19.2543   35.1725   30.5454 H   0  0  0  0  0  0  0  0  0  0  0  0
   17.0248   34.7547   29.9461 H   0  0  0  0  0  0  0  0  0  0  0  0
   17.8292   34.3456   26.5826 N   0  0  0  0  0  0  0  0  0  0  0  0
   17.0264   33.3981   26.0514 C   0  0  0  0  0  0  0  0  0  0  0  0
   16.6247   33.6556   24.7970 N   0  0  0  0  0  0  0  0  0  0  0  0
   17.2146   34.8659   24.4565 C   0  0  0  0  0  0  0  0  0  0  0  0
   17.2400   35.7167   23.3543 C   0  0  0  0  0  0  0  0  0  0  0  0
   16.5448   35.4225   22.2191 N   0  0  0  0  0  0  0  0  0  0  0  0
   17.9643   36.8880   23.3741 N   0  0  0  0  0  0  0  0  0  0  0  0
   18.6557   37.2213   24.4937 C   0  0  0  0  0  0  0  0  0  0  0  0
   18.6919   36.4420   25.6137 N   0  0  0  0  0  0  0  0  0  0  0  0
   17.9611   35.2991   25.5841 C   0  0  0  0  0  0  0  0  0  0  0  0
   16.0152   34.5942   22.1670 H   0  0  0  0  0  0  0  0  0  0  0  0
   16.5723   36.0383   21.4515 H   0  0  0  0  0  0  0  0  0  0  0  0
   21.0630   32.1354   28.4152 C   0  0  0  0  0  0  0  0  0  0  0  0
   22.8273   31.9613   28.8981 S   0  0  0  0  0  0  0  0  0  0  0  0
   23.7379   32.7571   27.5125 C   0  0  0  0  0  0  0  0  0  0  0  0
   22.8506   32.9379   26.2614 C   0  0  0  0  0  0  0  0  0  0  0  0
   21.5395   35.0139   25.6410 N   0  0  0  0  0  0  0  0  0  0  0  0
   22.8130   34.3203   25.5707 C   0  0  0  0  0  0  0  0  0  0  0  0
   21.2774   35.1453   26.6179 H   0  0  0  0  0  0  0  0  0  0  0  0
   20.8245   34.4607   25.1686 H   0  0  0  0  0  0  0  0  0  0  0  0
   23.3209   34.0603   24.1347 C   0  0  0  0  0  0  0  0  0  0  0  0
   23.5582   32.8594   23.8086 O   0  0  0  0  0  0  0  0  0  0  0  0
   23.4827   35.0732   23.3731 O   0  0  0  0  0  0  0  0  0  0  0  0
   23.2841   35.9329   23.6885 H   0  0  0  0  0  0  0  0  0  0  0  0
 26 27  1  0  0  0
 27 25  1  0  0  0
 27 30  1  0  0  0
 25 24  1  0  0  0
 24 23  1  0  0  0
 23 22  1  0  0  0
 30 31  2  0  0  0
 30 32  1  0  0  0
 22  1  1  0  0  0
  1  2  1  0  0  0
  1  3  1  0  0  0
  2  7  1  0  0  0
  3  4  1  0  0  0
  3  5  1  0  0  0
  5  6  1  0  0  0
  5  7  1  0  0  0
  7 10  1  0  0  0
 10 11  1  0  0  0
 10 19  1  0  0  0
 11 12  2  0  0  0
 12 13  1  0  0  0
 13 14  1  0  0  0
 13 19  2  0  0  0
 14 15  1  0  0  0
 14 16  2  0  0  0
 16 17  1  0  0  0
 17 18  2  0  0  0
 18 19  1  0  0  0
 26 28  1  0  0  0
 26 29  1  0  0  0
 32 33  1  0  0  0
  4  8  1  0  0  0
  6  9  1  0  0  0
 15 20  1  0  0  0
 15 21  1  0  0  0
M  END
> <minimizedAffinity>
-8.12052

$$$$
1QAN_SAH_A_501


 33 35  0  0  0  0  0  0  0  0999 V2000
   22.2034   35.1318   25.1529 C   0  0  0  0  0  0  0  0  0  0  0  0
   21.0547   34.9622   24.3038 O   0  0  0  0  0  0  0  0  0  0  0  0
   22.1882   36.6115   25.5933 C   0  0  0  0  0  0  0  0  0  0  0  0
   23.0528   37.4457   24.8421 O   0  0  0  0  0  0  0  0  0  0  0  0
   20.7117   36.9323   25.5498 C   0  0  0  0  0  0  0  0  0  0  0  0
   20.4554   38.3125   25.3317 O   0  0  0  0  0  0  0  0  0  0  0  0
   20.2795   36.1672   24.2744 C   0  0  0  0  0  0  0  0  0  0  0  0
   22.8122   37.3991   23.9036 H   0  0  0  0  0  0  0  0  0  0  0  0
   20.8879   38.5960   24.5110 H   0  0  0  0  0  0  0  0  0  0  0  0
   18.8499   35.7851   24.2408 N   0  0  0  0  0  0  0  0  0  0  0  0
   18.1492   34.8857   24.9651 C   0  0  0  0  0  0  0  0  0  0  0  0
   16.8459   34.8204   24.6516 N   0  0  0  0  0  0  0  0  0  0  0  0
   16.6610   35.7407   23.6281 C   0  0  0  0  0  0  0  0  0  0  0  0
   15.6059   36.1980   22.8424 C   0  0  0  0  0  0  0  0  0  0  0  0
   14.3440   35.7068   22.9998 N   0  0  0  0  0  0  0  0  0  0  0  0
   15.7994   37.1662   21.8822 N   0  0  0  0  0  0  0  0  0  0  0  0
   17.0397   37.6899   21.7089 C   0  0  0  0  0  0  0  0  0  0  0  0
   18.1294   37.2937   22.4290 N   0  0  0  0  0  0  0  0  0  0  0  0
   17.9196   36.3502   23.3813 C   0  0  0  0  0  0  0  0  0  0  0  0
   14.1663   35.0137   23.6760 H   0  0  0  0  0  0  0  0  0  0  0  0
   13.6104   36.0452   22.4372 H   0  0  0  0  0  0  0  0  0  0  0  0
   22.2582   34.0645   26.2714 C   0  0  0  0  0  0  0  0  0  0  0  0
   20.6346   33.3627   26.7690 S   0  0  0  0  0  0  0  0  0  0  0  0
   20.8985   32.8523   28.5161 C   0  0  0  0  0  0  0  0  0  0  0  0
   19.5826   32.8437   29.3245 C   0  0  0  0  0  0  0  0  0  0  0  0
   18.3628   34.1695   31.1044 N   0  0  0  0  0  0  0  0  0  0  0  0
   18.9913   34.1919   29.7958 C   0  0  0  0  0  0  0  0  0  0  0  0
   19.0414   33.8647   31.8023 H   0  0  0  0  0  0  0  0  0  0  0  0
   17.5742   33.5227   31.0918 H   0  0  0  0  0  0  0  0  0  0  0  0
   18.0600   34.6400   28.6470 C   0  0  0  0  0  0  0  0  0  0  0  0
   17.2532   33.7813   28.1817 O   0  0  0  0  0  0  0  0  0  0  0  0
   18.1729   35.8424   28.2303 O   0  0  0  0  0  0  0  0  0  0  0  0
   18.7953   36.4194   28.6274 H   0  0  0  0  0  0  0  0  0  0  0  0
 26 27  1  0  0  0
 27 25  1  0  0  0
 27 30  1  0  0  0
 25 24  1  0  0  0
 24 23  1  0  0  0
 23 22  1  0  0  0
 30 31  2  0  0  0
 30 32  1  0  0  0
 22  1  1  0  0  0
  1  2  1  0  0  0
  1  3  1  0  0  0
  2  7  1  0  0  0
  3  4  1  0  0  0
  3  5  1  0  0  0
  5  6  1  0  0  0
  5  7  1  0  0  0
  7 10  1  0  0  0
 10 11  1  0  0  0
 10 19  1  0  0  0
 11 12  2  0  0  0
 12 13  1  0  0  0
 13 14  1  0  0  0
 13 19  2  0  0  0
 14 15  1  0  0  0
 14 16  2  0  0  0
 16 17  1  0  0  0
 17 18  2  0  0  0
 18 19  1  0  0  0
 26 28  1  0  0  0
 26 29  1  0  0  0
 32 33  1  0  0  0
  4  8  1  0  0  0
  6  9  1  0  0  0
 15 20  1  0  0  0
 15 21  1  0  0  0
M  END
> <minimizedAffinity>
-7.91724

$$$$
1QAN_SAH_A_501


 33 35  0  0  0  0  0  0  0  0999 V2000
   17.2816   36.2559   23.9770 C   0  0  0  0  0  0  0  0  0  0  0  0
   17.7968   35.4063   25.0172 O   0  0  0  0  0  0  0  0  0  0  0  0
   18.1007   37.5623   24.0545 C   0  0  0  0  0  0  0  0  0  0  0  0
   17.4512   38.6095   24.7539 O   0  0  0  0  0  0  0  0  0  0  0  0
   19.4153   37.0707   24.6155 C   0  0  0  0  0  0  0  0  0  0  0  0
   20.1213   38.0788   25.3252 O   0  0  0  0  0  0  0  0  0  0  0  0
   18.9249   36.0256   25.6479 C   0  0  0  0  0  0  0  0  0  0  0  0
   17.2470   38.3178   25.6561 H   0  0  0  0  0  0  0  0  0  0  0  0
   19.5598   38.4281   26.0348 H   0  0  0  0  0  0  0  0  0  0  0  0
   19.9069   34.9637   25.9627 N   0  0  0  0  0  0  0  0  0  0  0  0
   19.8284   33.8883   26.7761 C   0  0  0  0  0  0  0  0  0  0  0  0
   20.9376   33.1330   26.8003 N   0  0  0  0  0  0  0  0  0  0  0  0
   21.8345   33.7584   25.9440 C   0  0  0  0  0  0  0  0  0  0  0  0
   23.1342   33.5454   25.4914 C   0  0  0  0  0  0  0  0  0  0  0  0
   23.8602   32.4701   25.9099 N   0  0  0  0  0  0  0  0  0  0  0  0
   23.7301   34.4110   24.6011 N   0  0  0  0  0  0  0  0  0  0  0  0
   23.0311   35.4838   24.1503 C   0  0  0  0  0  0  0  0  0  0  0  0
   21.7575   35.7713   24.5483 N   0  0  0  0  0  0  0  0  0  0  0  0
   21.1790   34.9010   25.4136 C   0  0  0  0  0  0  0  0  0  0  0  0
   23.4683   31.8290   26.5460 H   0  0  0  0  0  0  0  0  0  0  0  0
   24.7763   32.3346   25.5759 H   0  0  0  0  0  0  0  0  0  0  0  0
   17.2357   35.5331   22.6099 C   0  0  0  0  0  0  0  0  0  0  0  0
   16.0803   36.2552   21.3771 S   0  0  0  0  0  0  0  0  0  0  0  0
   15.0037   37.3561   22.3827 C   0  0  0  0  0  0  0  0  0  0  0  0
   13.5571   37.4048   21.8441 C   0  0  0  0  0  0  0  0  0  0  0  0
   12.8230   39.8071   22.1667 N   0  0  0  0  0  0  0  0  0  0  0  0
   13.0387   38.7230   21.2252 C   0  0  0  0  0  0  0  0  0  0  0  0
   13.6951   40.0124   22.6544 H   0  0  0  0  0  0  0  0  0  0  0  0
   12.1112   39.5328   22.8438 H   0  0  0  0  0  0  0  0  0  0  0  0
   11.7841   38.3168   20.4198 C   0  0  0  0  0  0  0  0  0  0  0  0
   10.7372   39.0114   20.5816 O   0  0  0  0  0  0  0  0  0  0  0  0
   11.8783   37.2987   19.6538 O   0  0  0  0  0  0  0  0  0  0  0  0
   12.6901   36.8355   19.5878 H   0  0  0  0  0  0  0  0  0  0  0  0
 26 27  1  0  0  0
 27 25  1  0  0  0
 27 30  1  0  0  0
 25 24  1  0  0  0
 24 23  1  0  0  0
 23 22  1  0  0  0
 30 31  2  0  0  0
 30 32  1  0  0  0
 22  1  1  0  0  0
  1  2  1  0  0  0
  1  3  1  0  0  0
  2  7  1  0  0  0
  3  4  1  0  0  0
  3  5  1  0  0  0
  5  6  1  0  0  0
  5  7  1  0  0  0
  7 10  1  0  0  0
 10 11  1  0  0  0
 10 19  1  0  0  0
 11 12  2  0  0  0
 12 13  1  0  0  0
 13 14  1  0  0  0
 13 19  2  0  0  0
 14 15  1  0  0  0
 14 16  2  0  0  0
 16 17  1  0  0  0
 17 18  2  0  0  0
 18 19  1  0  0  0
 26 28  1  0  0  0
 26 29  1  0  0  0
 32 33  1  0  0  0
  4  8  1  0  0  0
  6  9  1  0  0  0
 15 20  1  0  0  0
 15 21  1  0  0  0
M  END
> <minimizedAffinity>
-7.80113

$$$$
1QAN_SAH_A_501


 33 35  0  0  0  0  0  0  0  0999 V2000
   16.7013   34.7392   21.4722 C   0  0  0  0  0  0  0  0  0  0  0  0
   16.9123   34.5650   22.8845 O   0  0  0  0  0  0  0  0  0  0  0  0
   16.7894   36.2593   21.2165 C   0  0  0  0  0  0  0  0  0  0  0  0
   15.5304   36.9038   21.1323 O   0  0  0  0  0  0  0  0  0  0  0  0
   17.7195   36.7056   22.3213 C   0  0  0  0  0  0  0  0  0  0  0  0
   17.5209   38.0626   22.6922 O   0  0  0  0  0  0  0  0  0  0  0  0
   17.2312   35.8216   23.4954 C   0  0  0  0  0  0  0  0  0  0  0  0
   15.0359   36.7558   21.9535 H   0  0  0  0  0  0  0  0  0  0  0  0
   16.5962   38.1941   22.9542 H   0  0  0  0  0  0  0  0  0  0  0  0
   18.2479   35.5712   24.5416 N   0  0  0  0  0  0  0  0  0  0  0  0
   19.4296   36.1723   24.7997 C   0  0  0  0  0  0  0  0  0  0  0  0
   20.0858   35.6678   25.8562 N   0  0  0  0  0  0  0  0  0  0  0  0
   19.2857   34.6395   26.3370 C   0  0  0  0  0  0  0  0  0  0  0  0
   19.3271   33.7113   27.3745 C   0  0  0  0  0  0  0  0  0  0  0  0
   20.3745   33.6733   28.2464 N   0  0  0  0  0  0  0  0  0  0  0  0
   18.3090   32.8024   27.5593 N   0  0  0  0  0  0  0  0  0  0  0  0
   17.2423   32.8218   26.7200 C   0  0  0  0  0  0  0  0  0  0  0  0
   17.1255   33.6909   25.6741 N   0  0  0  0  0  0  0  0  0  0  0  0
   18.1292   34.5899   25.5145 C   0  0  0  0  0  0  0  0  0  0  0  0
   21.1212   34.3071   28.1466 H   0  0  0  0  0  0  0  0  0  0  0  0
   20.3841   33.0121   28.9757 H   0  0  0  0  0  0  0  0  0  0  0  0
   17.6282   33.8287   20.6326 C   0  0  0  0  0  0  0  0  0  0  0  0
   17.2393   33.7511   18.8384 S   0  0  0  0  0  0  0  0  0  0  0  0
   15.8987   32.4961   18.7380 C   0  0  0  0  0  0  0  0  0  0  0  0
   15.9679   31.6745   17.4321 C   0  0  0  0  0  0  0  0  0  0  0  0
   17.9442   31.3381   15.8846 N   0  0  0  0  0  0  0  0  0  0  0  0
   17.2728   30.9151   17.1004 C   0  0  0  0  0  0  0  0  0  0  0  0
   18.1679   32.3313   15.9477 H   0  0  0  0  0  0  0  0  0  0  0  0
   17.3320   31.1776   15.0846 H   0  0  0  0  0  0  0  0  0  0  0  0
   16.8799   29.4209   17.1269 C   0  0  0  0  0  0  0  0  0  0  0  0
   16.2384   28.9689   16.1324 O   0  0  0  0  0  0  0  0  0  0  0  0
   17.2141   28.7406   18.1554 O   0  0  0  0  0  0  0  0  0  0  0  0
   17.6897   29.1481   18.8523 H   0  0  0  0  0  0  0  0  0  0  0  0
 26 27  1  0  0  0
 27 25  1  0  0  0
 27 30  1  0  0  0
 25 24  1  0  0  0
 24 23  1  0  0  0
 23 22  1  0  0  0
 30 31  2  0  0  0
 30 32  1  0  0  0
 22  1  1  0  0  0
  1  2  1  0  0  0
  1  3  1  0  0  0
  2  7  1  0  0  0
  3  4  1  0  0  0
  3  5  1  0  0  0
  5  6  1  0  0  0
  5  7  1  0  0  0
  7 10  1  0  0  0
 10 11  1  0  0  0
 10 19  1  0  0  0
 11 12  2  0  0  0
 12 13  1  0  0  0
 13 14  1  0  0  0
 13 19  2  0  0  0
 14 15  1  0  0  0
 14 16  2  0  0  0
 16 17  1  0  0  0
 17 18  2  0  0  0
 18 19  1  0  0  0
 26 28  1  0  0  0
 26 29  1  0  0  0
 32 33  1  0  0  0
  4  8  1  0  0  0
  6  9  1  0  0  0
 15 20  1  0  0  0
 15 21  1  0  0  0
M  END
> <minimizedAffinity>
-7.62141

$$$$
1QAN_SAH_A_501


 33 35  0  0  0  0  0  0  0  0999 V2000
   16.9857   35.4072   23.5722 C   0  0  0  0  0  0  0  0  0  0  0  0
   17.2737   34.8424   24.8635 O   0  0  0  0  0  0  0  0  0  0  0  0
   17.5964   36.8252   23.5859 C   0  0  0  0  0  0  0  0  0  0  0  0
   16.6606   37.8534   23.8595 O   0  0  0  0  0  0  0  0  0  0  0  0
   18.7420   36.6595   24.5579 C   0  0  0  0  0  0  0  0  0  0  0  0
   19.0976   37.8756   25.2007 O   0  0  0  0  0  0  0  0  0  0  0  0
   18.0972   35.7371   25.6219 C   0  0  0  0  0  0  0  0  0  0  0  0
   16.2409   37.6884   24.7183 H   0  0  0  0  0  0  0  0  0  0  0  0
   18.3209   38.2419   25.6519 H   0  0  0  0  0  0  0  0  0  0  0  0
   19.0607   34.9208   26.3941 N   0  0  0  0  0  0  0  0  0  0  0  0
   18.9573   34.3212   27.5999 C   0  0  0  0  0  0  0  0  0  0  0  0
   20.0558   33.6489   27.9776 N   0  0  0  0  0  0  0  0  0  0  0  0
   20.9720   33.8216   26.9483 C   0  0  0  0  0  0  0  0  0  0  0  0
   22.2746   33.4212   26.6609 C   0  0  0  0  0  0  0  0  0  0  0  0
   22.9806   32.6406   27.5274 N   0  0  0  0  0  0  0  0  0  0  0  0
   22.8935   33.7957   25.4889 N   0  0  0  0  0  0  0  0  0  0  0  0
   22.2149   34.5594   24.5952 C   0  0  0  0  0  0  0  0  0  0  0  0
   20.9402   35.0019   24.8008 N   0  0  0  0  0  0  0  0  0  0  0  0
   20.3388   34.6121   25.9530 C   0  0  0  0  0  0  0  0  0  0  0  0
   22.5719   32.3527   28.3755 H   0  0  0  0  0  0  0  0  0  0  0  0
   23.8991   32.3648   27.3049 H   0  0  0  0  0  0  0  0  0  0  0  0
   17.4144   34.4667   22.4212 C   0  0  0  0  0  0  0  0  0  0  0  0
   16.9131   35.0052   20.7374 S   0  0  0  0  0  0  0  0  0  0  0  0
   17.7339   33.7884   19.6293 C   0  0  0  0  0  0  0  0  0  0  0  0
   16.7174   33.0124   18.7634 C   0  0  0  0  0  0  0  0  0  0  0  0
   18.5963   31.4814   18.0289 N   0  0  0  0  0  0  0  0  0  0  0  0
   17.1609   31.6849   18.1072 C   0  0  0  0  0  0  0  0  0  0  0  0
   18.9962   31.5155   18.9667 H   0  0  0  0  0  0  0  0  0  0  0  0
   19.0128   32.2144   17.4548 H   0  0  0  0  0  0  0  0  0  0  0  0
   16.4357   31.6549   16.7431 C   0  0  0  0  0  0  0  0  0  0  0  0
   16.7641   32.5305   15.8886 O   0  0  0  0  0  0  0  0  0  0  0  0
   15.5417   30.7589   16.5693 O   0  0  0  0  0  0  0  0  0  0  0  0
   15.3553   30.1444   17.2517 H   0  0  0  0  0  0  0  0  0  0  0  0
 26 27  1  0  0  0
 27 25  1  0  0  0
 27 30  1  0  0  0
 25 24  1  0  0  0
 24 23  1  0  0  0
 23 22  1  0  0  0
 30 31  2  0  0  0
 30 32  1  0  0  0
 22  1  1  0  0  0
  1  2  1  0  0  0
  1  3  1  0  0  0
  2  7  1  0  0  0
  3  4  1  0  0  0
  3  5  1  0  0  0
  5  6  1  0  0  0
  5  7  1  0  0  0
  7 10  1  0  0  0
 10 11  1  0  0  0
 10 19  1  0  0  0
 11 12  2  0  0  0
 12 13  1  0  0  0
 13 14  1  0  0  0
 13 19  2  0  0  0
 14 15  1  0  0  0
 14 16  2  0  0  0
 16 17  1  0  0  0
 17 18  2  0  0  0
 18 19  1  0  0  0
 26 28  1  0  0  0
 26 29  1  0  0  0
 32 33  1  0  0  0
  4  8  1  0  0  0
  6  9  1  0  0  0
 15 20  1  0  0  0
 15 21  1  0  0  0
M  END
> <minimizedAffinity>
-7.52828

$$$$
1QAN_SAH_A_501


 33 35  0  0  0  0  0  0  0  0999 V2000
   22.2135   33.0295   26.2446 C   0  0  0  0  0  0  0  0  0  0  0  0
   21.0445   33.7351   25.7918 O   0  0  0  0  0  0  0  0  0  0  0  0
   23.3211   33.3437   25.2159 C   0  0  0  0  0  0  0  0  0  0  0  0
   23.5103   32.3297   24.2444 O   0  0  0  0  0  0  0  0  0  0  0  0
   22.9017   34.7072   24.7161 C   0  0  0  0  0  0  0  0  0  0  0  0
   23.3637   34.9760   23.3998 O   0  0  0  0  0  0  0  0  0  0  0  0
   21.3637   34.5381   24.6485 C   0  0  0  0  0  0  0  0  0  0  0  0
   22.6788   32.1790   23.7683 H   0  0  0  0  0  0  0  0  0  0  0  0
   23.0483   34.2832   22.7986 H   0  0  0  0  0  0  0  0  0  0  0  0
   20.6003   35.8016   24.7554 N   0  0  0  0  0  0  0  0  0  0  0  0
   20.9224   36.9958   25.2983 C   0  0  0  0  0  0  0  0  0  0  0  0
   19.9593   37.9250   25.1978 N   0  0  0  0  0  0  0  0  0  0  0  0
   18.9037   37.3006   24.5462 C   0  0  0  0  0  0  0  0  0  0  0  0
   17.6243   37.6404   24.1138 C   0  0  0  0  0  0  0  0  0  0  0  0
   17.1232   38.8934   24.3073 N   0  0  0  0  0  0  0  0  0  0  0  0
   16.8220   36.7240   23.4708 N   0  0  0  0  0  0  0  0  0  0  0  0
   17.2943   35.4713   23.2463 C   0  0  0  0  0  0  0  0  0  0  0  0
   18.5312   35.0528   23.6437 N   0  0  0  0  0  0  0  0  0  0  0  0
   19.3152   35.9715   24.2621 C   0  0  0  0  0  0  0  0  0  0  0  0
   17.6669   39.5759   24.7631 H   0  0  0  0  0  0  0  0  0  0  0  0
   16.2177   39.1157   23.9913 H   0  0  0  0  0  0  0  0  0  0  0  0
   22.5277   33.3246   27.7303 C   0  0  0  0  0  0  0  0  0  0  0  0
   21.7186   32.2055   28.9425 S   0  0  0  0  0  0  0  0  0  0  0  0
   20.1103   33.0279   29.2875 C   0  0  0  0  0  0  0  0  0  0  0  0
   18.9739   32.4795   28.3971 C   0  0  0  0  0  0  0  0  0  0  0  0
   17.9694   33.6120   26.3667 N   0  0  0  0  0  0  0  0  0  0  0  0
   17.9437   33.4722   27.8116 C   0  0  0  0  0  0  0  0  0  0  0  0
   17.8079   32.7025   25.9342 H   0  0  0  0  0  0  0  0  0  0  0  0
   18.8792   33.9700   26.0759 H   0  0  0  0  0  0  0  0  0  0  0  0
   18.1775   34.7890   28.5855 C   0  0  0  0  0  0  0  0  0  0  0  0
   18.7209   35.7457   27.9577 O   0  0  0  0  0  0  0  0  0  0  0  0
   17.8215   34.8243   29.8120 O   0  0  0  0  0  0  0  0  0  0  0  0
   17.4244   34.0728   30.2064 H   0  0  0  0  0  0  0  0  0  0  0  0
 26 27  1  0  0  0
 27 25  1  0  0  0
 27 30  1  0  0  0
 25 24  1  0  0  0
 24 23  1  0  0  0
 23 22  1  0  0  0
 30 31  2  0  0  0
 30 32  1  0  0  0
 22  1  1  0  0  0
  1  2  1  0  0  0
  1  3  1  0  0  0
  2  7  1  0  0  0
  3  4  1  0  0  0
  3  5  1  0  0  0
  5  6  1  0  0  0
  5  7  1  0  0  0
  7 10  1  0  0  0
 10 11  1  0  0  0
 10 19  1  0  0  0
 11 12  2  0  0  0
 12 13  1  0  0  0
 13 14  1  0  0  0
 13 19  2  0  0  0
 14 15  1  0  0  0
 14 16  2  0  0  0
 16 17  1  0  0  0
 17 18  2  0  0  0
 18 19  1  0  0  0
 26 28  1  0  0  0
 26 29  1  0  0  0
 32 33  1  0  0  0
  4  8  1  0  0  0
  6  9  1  0  0  0
 15 20  1  0  0  0
 15 21  1  0  0  0
M  END
> <minimizedAffinity>
-7.50660

$$$$
1QAN_SAH_A_501


 33 35  0  0  0  0  0  0  0  0999 V2000
   17.8119   33.1682   27.3778 C   0  0  0  0  0  0  0  0  0  0  0  0
   18.9577   32.3148   27.5462 O   0  0  0  0  0  0  0  0  0  0  0  0
   17.7265   34.0188   28.6635 C   0  0  0  0  0  0  0  0  0  0  0  0
   16.7932   33.5354   29.6137 O   0  0  0  0  0  0  0  0  0  0  0  0
   19.1752   34.0809   29.0904 C   0  0  0  0  0  0  0  0  0  0  0  0
   19.3279   34.2742   30.4896 O   0  0  0  0  0  0  0  0  0  0  0  0
   19.6432   32.6417   28.7615 C   0  0  0  0  0  0  0  0  0  0  0  0
   17.0231   32.6255   29.8588 H   0  0  0  0  0  0  0  0  0  0  0  0
   18.8644   33.5678   30.9661 H   0  0  0  0  0  0  0  0  0  0  0  0
   21.0961   32.5091   28.5113 N   0  0  0  0  0  0  0  0  0  0  0  0
   22.0504   31.7978   29.1498 C   0  0  0  0  0  0  0  0  0  0  0  0
   23.2776   31.9223   28.6210 N   0  0  0  0  0  0  0  0  0  0  0  0
   23.1365   32.7955   27.5503 C   0  0  0  0  0  0  0  0  0  0  0  0
   23.9565   33.3605   26.5768 C   0  0  0  0  0  0  0  0  0  0  0  0
   25.2890   33.0773   26.5248 N   0  0  0  0  0  0  0  0  0  0  0  0
   23.4490   34.2214   25.6290 N   0  0  0  0  0  0  0  0  0  0  0  0
   22.1234   34.5135   25.6402 C   0  0  0  0  0  0  0  0  0  0  0  0
   21.2517   34.0109   26.5625 N   0  0  0  0  0  0  0  0  0  0  0  0
   21.7639   33.1526   27.4800 C   0  0  0  0  0  0  0  0  0  0  0  0
   25.6885   32.4662   27.1853 H   0  0  0  0  0  0  0  0  0  0  0  0
   25.8518   33.4839   25.8268 H   0  0  0  0  0  0  0  0  0  0  0  0
   17.8504   33.9288   26.0312 C   0  0  0  0  0  0  0  0  0  0  0  0
   18.2915   35.7088   26.1457 S   0  0  0  0  0  0  0  0  0  0  0  0
   18.7398   36.1576   24.4195 C   0  0  0  0  0  0  0  0  0  0  0  0
   17.5074   36.5786   23.5893 C   0  0  0  0  0  0  0  0  0  0  0  0
   18.0399   34.9490   21.7253 N   0  0  0  0  0  0  0  0  0  0  0  0
   17.0021   35.6315   22.4770 C   0  0  0  0  0  0  0  0  0  0  0  0
   18.6177   34.4017   22.3633 H   0  0  0  0  0  0  0  0  0  0  0  0
   18.6207   35.6368   21.2458 H   0  0  0  0  0  0  0  0  0  0  0  0
   16.0555   36.4988   21.6172 C   0  0  0  0  0  0  0  0  0  0  0  0
   14.8102   36.3698   21.8101 O   0  0  0  0  0  0  0  0  0  0  0  0
   16.5880   37.2794   20.7573 O   0  0  0  0  0  0  0  0  0  0  0  0
   17.5204   37.3187   20.6742 H   0  0  0  0  0  0  0  0  0  0  0  0
 26 27  1  0  0  0
 27 25  1  0  0  0
 27 30  1  0  0  0
 25 24  1  0  0  0
 24 23  1  0  0  0
 23 22  1  0  0  0
 30 31  2  0  0  0
 30 32  1  0  0  0
 22  1  1  0  0  0
  1  2  1  0  0  0
  1  3  1  0  0  0
  2  7  1  0  0  0
  3  4  1  0  0  0
  3  5  1  0  0  0
  5  6  1  0  0  0
  5  7  1  0  0  0
  7 10  1  0  0  0
 10 11  1  0  0  0
 10 19  1  0  0  0
 11 12  2  0  0  0
 12 13  1  0  0  0
 13 14  1  0  0  0
 13 19  2  0  0  0
 14 15  1  0  0  0
 14 16  2  0  0  0
 16 17  1  0  0  0
 17 18  2  0  0  0
 18 19  1  0  0  0
 26 28  1  0  0  0
 26 29  1  0  0  0
 32 33  1  0  0  0
  4  8  1  0  0  0
  6  9  1  0  0  0
 15 20  1  0  0  0
 15 21  1  0  0  0
M  END
> <minimizedAffinity>
-7.40333

$$$$
1QAN_SAH_A_501


 33 35  0  0  0  0  0  0  0  0999 V2000
   21.3572   33.6420   26.9371 C   0  0  0  0  0  0  0  0  0  0  0  0
   20.4290   34.6145   26.4252 O   0  0  0  0  0  0  0  0  0  0  0  0
   20.5632   32.7957   27.9555 C   0  0  0  0  0  0  0  0  0  0  0  0
   20.7598   33.1825   29.3043 O   0  0  0  0  0  0  0  0  0  0  0  0
   19.1572   32.8923   27.4090 C   0  0  0  0  0  0  0  0  0  0  0  0
   18.1650   32.7258   28.4121 O   0  0  0  0  0  0  0  0  0  0  0  0
   19.1181   34.3712   26.9507 C   0  0  0  0  0  0  0  0  0  0  0  0
   20.5102   34.1135   29.4134 H   0  0  0  0  0  0  0  0  0  0  0  0
   18.3014   33.3816   29.1137 H   0  0  0  0  0  0  0  0  0  0  0  0
   18.1398   34.6572   25.8773 N   0  0  0  0  0  0  0  0  0  0  0  0
   17.1318   33.9164   25.3678 C   0  0  0  0  0  0  0  0  0  0  0  0
   16.4418   34.5227   24.3894 N   0  0  0  0  0  0  0  0  0  0  0  0
   17.0424   35.7637   24.2220 C   0  0  0  0  0  0  0  0  0  0  0  0
   16.8633   36.8862   23.4173 C   0  0  0  0  0  0  0  0  0  0  0  0
   15.8664   36.9375   22.4889 N   0  0  0  0  0  0  0  0  0  0  0  0
   17.6840   37.9860   23.5348 N   0  0  0  0  0  0  0  0  0  0  0  0
   18.6772   37.9766   24.4600 C   0  0  0  0  0  0  0  0  0  0  0  0
   18.9274   36.9163   25.2823 N   0  0  0  0  0  0  0  0  0  0  0  0
   18.1009   35.8466   25.1650 C   0  0  0  0  0  0  0  0  0  0  0  0
   15.2593   36.1708   22.3756 H   0  0  0  0  0  0  0  0  0  0  0  0
   15.7535   37.7413   21.9318 H   0  0  0  0  0  0  0  0  0  0  0  0
   22.0819   32.8809   25.8017 C   0  0  0  0  0  0  0  0  0  0  0  0
   23.8849   33.2069   25.6626 S   0  0  0  0  0  0  0  0  0  0  0  0
   24.1657   34.6022   26.8273 C   0  0  0  0  0  0  0  0  0  0  0  0
   24.4667   35.9247   26.0886 C   0  0  0  0  0  0  0  0  0  0  0  0
   24.8116   36.9246   23.7876 N   0  0  0  0  0  0  0  0  0  0  0  0
   23.9755   36.0908   24.6324 C   0  0  0  0  0  0  0  0  0  0  0  0
   25.7555   36.5393   23.7571 H   0  0  0  0  0  0  0  0  0  0  0  0
   24.8426   37.8706   24.1676 H   0  0  0  0  0  0  0  0  0  0  0  0
   22.5130   36.5729   24.7595 C   0  0  0  0  0  0  0  0  0  0  0  0
   22.2871   37.5535   25.5290 O   0  0  0  0  0  0  0  0  0  0  0  0
   21.6237   35.9435   24.0923 O   0  0  0  0  0  0  0  0  0  0  0  0
   21.8708   35.2259   23.5429 H   0  0  0  0  0  0  0  0  0  0  0  0
 26 27  1  0  0  0
 27 25  1  0  0  0
 27 30  1  0  0  0
 25 24  1  0  0  0
 24 23  1  0  0  0
 23 22  1  0  0  0
 30 31  2  0  0  0
 30 32  1  0  0  0
 22  1  1  0  0  0
  1  2  1  0  0  0
  1  3  1  0  0  0
  2  7  1  0  0  0
  3  4  1  0  0  0
  3  5  1  0  0  0
  5  6  1  0  0  0
  5  7  1  0  0  0
  7 10  1  0  0  0
 10 11  1  0  0  0
 10 19  1  0  0  0
 11 12  2  0  0  0
 12 13  1  0  0  0
 13 14  1  0  0  0
 13 19  2  0  0  0
 14 15  1  0  0  0
 14 16  2  0  0  0
 16 17  1  0  0  0
 17 18  2  0  0  0
 18 19  1  0  0  0
 26 28  1  0  0  0
 26 29  1  0  0  0
 32 33  1  0  0  0
  4  8  1  0  0  0
  6  9  1  0  0  0
 15 20  1  0  0  0
 15 21  1  0  0  0
M  END
> <minimizedAffinity>
-7.16891

$$$$
