6CED_EYA_A_1304


 18 19  0  0  0  0  0  0  0  0999 V2000
    0.4881    2.6311    7.2826 C   0  0  0  0  0  0  0  0  0  0  0  0
    0.3635    4.2298    5.6279 C   0  0  0  0  0  0  0  0  0  0  0  0
    1.0315    4.9985    4.6722 C   0  0  0  0  0  0  0  0  0  0  0  0
    0.3184    5.8762    3.8719 C   0  0  0  0  0  0  0  0  0  0  0  0
   -1.0491    5.9923    4.0126 C   0  0  0  0  0  0  0  0  0  0  0  0
    1.1092    3.3610    6.4242 N   0  0  0  0  0  0  0  0  0  0  0  0
   -0.8918    2.6711    7.4746 N   0  0  0  0  0  0  0  0  0  0  0  0
   -1.5308    1.8003    8.4466 C   0  0  0  0  0  0  0  0  0  0  0  0
   -2.8825    3.6310    6.9612 O   0  0  0  0  0  0  0  0  0  0  0  0
   -1.6972    3.5494    6.7411 C   0  0  0  0  0  0  0  0  0  0  0  0
   -1.0191    4.3538    5.7669 C   0  0  0  0  0  0  0  0  0  0  0  0
   -1.7259    5.2457    4.9555 C   0  0  0  0  0  0  0  0  0  0  0  0
    1.2978    1.7100    8.1324 C   0  0  0  0  0  0  0  0  0  0  0  0
    2.7913    2.0129    8.0753 C   0  0  0  0  0  0  0  0  0  0  0  0
    3.2744    3.2902    8.7339 C   0  0  0  0  0  0  0  0  0  0  0  0
    2.9483    3.5587    9.8932 O   0  0  0  0  0  0  0  0  0  0  0  0
    3.9845    4.0827    7.9306 O   0  0  0  0  0  0  0  0  0  0  0  0
    4.1910    3.8037    7.0603 H   0  0  0  0  0  0  0  0  0  0  0  0
  4  5  2  0  0  0
  4  3  1  0  0  0
  5 12  1  0  0  0
  3  2  2  0  0  0
 12 11  2  0  0  0
  2 11  1  0  0  0
  2  6  1  0  0  0
 11 10  1  0  0  0
  6  1  2  0  0  0
 10  9  2  0  0  0
 10  7  1  0  0  0
 16 15  2  0  0  0
  1  7  1  0  0  0
  1 13  1  0  0  0
  7  8  1  0  0  0
 14 15  1  0  0  0
 14 13  1  0  0  0
 15 17  1  0  0  0
 17 18  1  0  0  0
M  END
> <minimizedAffinity>
-7.71226

$$$$
6CED_EYA_A_1304


 18 19  0  0  0  0  0  0  0  0999 V2000
    0.1076    2.7731    7.1793 C   0  0  0  0  0  0  0  0  0  0  0  0
   -1.7496    3.9417    6.4763 C   0  0  0  0  0  0  0  0  0  0  0  0
   -2.2845    4.9178    5.6328 C   0  0  0  0  0  0  0  0  0  0  0  0
   -3.6422    5.1913    5.6681 C   0  0  0  0  0  0  0  0  0  0  0  0
   -4.4690    4.5016    6.5308 C   0  0  0  0  0  0  0  0  0  0  0  0
   -0.3783    3.6942    6.4237 N   0  0  0  0  0  0  0  0  0  0  0  0
   -0.6593    2.0161    8.0634 N   0  0  0  0  0  0  0  0  0  0  0  0
   -0.0478    0.9740    8.8706 C   0  0  0  0  0  0  0  0  0  0  0  0
   -2.6809    1.6298    9.0180 O   0  0  0  0  0  0  0  0  0  0  0  0
   -2.0340    2.2393    8.1996 C   0  0  0  0  0  0  0  0  0  0  0  0
   -2.5907    3.2497    7.3481 C   0  0  0  0  0  0  0  0  0  0  0  0
   -3.9580    3.5379    7.3763 C   0  0  0  0  0  0  0  0  0  0  0  0
    1.5770    2.5218    7.1179 C   0  0  0  0  0  0  0  0  0  0  0  0
    2.3964    3.6563    7.7238 C   0  0  0  0  0  0  0  0  0  0  0  0
    3.3808    3.3031    8.8214 C   0  0  0  0  0  0  0  0  0  0  0  0
    4.4223    2.6967    8.5567 O   0  0  0  0  0  0  0  0  0  0  0  0
    2.9726    3.6336   10.0468 O   0  0  0  0  0  0  0  0  0  0  0  0
    2.1659    4.0960   10.1631 H   0  0  0  0  0  0  0  0  0  0  0  0
  4  5  2  0  0  0
  4  3  1  0  0  0
  5 12  1  0  0  0
  3  2  2  0  0  0
 12 11  2  0  0  0
  2 11  1  0  0  0
  2  6  1  0  0  0
 11 10  1  0  0  0
  6  1  2  0  0  0
 10  9  2  0  0  0
 10  7  1  0  0  0
 16 15  2  0  0  0
  1  7  1  0  0  0
  1 13  1  0  0  0
  7  8  1  0  0  0
 14 15  1  0  0  0
 14 13  1  0  0  0
 15 17  1  0  0  0
 17 18  1  0  0  0
M  END
> <minimizedAffinity>
-7.38362

$$$$
6CED_EYA_A_1304


 18 19  0  0  0  0  0  0  0  0999 V2000
    0.1847    3.2230    6.9487 C   0  0  0  0  0  0  0  0  0  0  0  0
   -1.8013    2.4994    7.8659 C   0  0  0  0  0  0  0  0  0  0  0  0
   -2.4503    1.6446    8.7595 C   0  0  0  0  0  0  0  0  0  0  0  0
   -3.8283    1.7014    8.8909 C   0  0  0  0  0  0  0  0  0  0  0  0
   -4.5623    2.6006    8.1452 C   0  0  0  0  0  0  0  0  0  0  0  0
   -0.4143    2.4135    7.7495 N   0  0  0  0  0  0  0  0  0  0  0  0
   -0.4779    4.1743    6.1750 N   0  0  0  0  0  0  0  0  0  0  0  0
    0.2650    5.0736    5.3085 C   0  0  0  0  0  0  0  0  0  0  0  0
   -2.4468    5.0651    5.4840 O   0  0  0  0  0  0  0  0  0  0  0  0
   -1.8722    4.2879    6.2091 C   0  0  0  0  0  0  0  0  0  0  0  0
   -2.5496    3.4046    7.1129 C   0  0  0  0  0  0  0  0  0  0  0  0
   -3.9395    3.4492    7.2526 C   0  0  0  0  0  0  0  0  0  0  0  0
    1.6682    3.1172    6.8289 C   0  0  0  0  0  0  0  0  0  0  0  0
    2.2913    2.2696    7.9329 C   0  0  0  0  0  0  0  0  0  0  0  0
    3.3050    2.9359    8.8424 C   0  0  0  0  0  0  0  0  0  0  0  0
    2.9346    3.6883    9.7475 O   0  0  0  0  0  0  0  0  0  0  0  0
    4.5742    2.6917    8.5153 O   0  0  0  0  0  0  0  0  0  0  0  0
    4.7722    2.1049    7.8120 H   0  0  0  0  0  0  0  0  0  0  0  0
  4  5  2  0  0  0
  4  3  1  0  0  0
  5 12  1  0  0  0
  3  2  2  0  0  0
 12 11  2  0  0  0
  2 11  1  0  0  0
  2  6  1  0  0  0
 11 10  1  0  0  0
  6  1  2  0  0  0
 10  9  2  0  0  0
 10  7  1  0  0  0
 16 15  2  0  0  0
  1  7  1  0  0  0
  1 13  1  0  0  0
  7  8  1  0  0  0
 14 15  1  0  0  0
 14 13  1  0  0  0
 15 17  1  0  0  0
 17 18  1  0  0  0
M  END
> <minimizedAffinity>
-7.28945

$$$$
6CED_EYA_A_1304


 18 19  0  0  0  0  0  0  0  0999 V2000
   -0.5057    4.5681    5.1977 C   0  0  0  0  0  0  0  0  0  0  0  0
    0.1735    3.0166    6.7599 C   0  0  0  0  0  0  0  0  0  0  0  0
    1.2229    2.2933    7.3310 C   0  0  0  0  0  0  0  0  0  0  0  0
    0.9705    1.4222    8.3783 C   0  0  0  0  0  0  0  0  0  0  0  0
   -0.3125    1.2680    8.8618 C   0  0  0  0  0  0  0  0  0  0  0  0
    0.4572    3.8796    5.7019 N   0  0  0  0  0  0  0  0  0  0  0  0
   -1.8252    4.4882    5.6396 N   0  0  0  0  0  0  0  0  0  0  0  0
   -2.8594    5.3138    5.0394 C   0  0  0  0  0  0  0  0  0  0  0  0
   -3.3460    3.4948    6.9989 O   0  0  0  0  0  0  0  0  0  0  0  0
   -2.1898    3.6123    6.6681 C   0  0  0  0  0  0  0  0  0  0  0  0
   -1.1219    2.8542    7.2517 C   0  0  0  0  0  0  0  0  0  0  0  0
   -1.3633    1.9694    8.3064 C   0  0  0  0  0  0  0  0  0  0  0  0
   -0.1903    5.4836    4.0625 C   0  0  0  0  0  0  0  0  0  0  0  0
    0.2456    4.7381    2.8056 C   0  0  0  0  0  0  0  0  0  0  0  0
   -0.7297    3.7450    2.2045 C   0  0  0  0  0  0  0  0  0  0  0  0
   -1.8665    4.1007    1.8827 O   0  0  0  0  0  0  0  0  0  0  0  0
   -0.2679    2.4957    2.1445 O   0  0  0  0  0  0  0  0  0  0  0  0
    0.6113    2.3080    2.4085 H   0  0  0  0  0  0  0  0  0  0  0  0
  4  5  2  0  0  0
  4  3  1  0  0  0
  5 12  1  0  0  0
  3  2  2  0  0  0
 12 11  2  0  0  0
  2 11  1  0  0  0
  2  6  1  0  0  0
 11 10  1  0  0  0
  6  1  2  0  0  0
 10  9  2  0  0  0
 10  7  1  0  0  0
 16 15  2  0  0  0
  1  7  1  0  0  0
  1 13  1  0  0  0
  7  8  1  0  0  0
 14 15  1  0  0  0
 14 13  1  0  0  0
 15 17  1  0  0  0
 17 18  1  0  0  0
M  END
> <minimizedAffinity>
-6.75684

$$$$
6CED_EYA_A_1304


 18 19  0  0  0  0  0  0  0  0999 V2000
   -2.5574    3.9561    6.5665 C   0  0  0  0  0  0  0  0  0  0  0  0
   -0.3943    3.2356    6.8994 C   0  0  0  0  0  0  0  0  0  0  0  0
    0.9571    3.3543    6.5673 C   0  0  0  0  0  0  0  0  0  0  0  0
    1.8960    2.5580    7.2027 C   0  0  0  0  0  0  0  0  0  0  0  0
    1.5026    1.6503    8.1643 C   0  0  0  0  0  0  0  0  0  0  0  0
   -1.3169    4.0449    6.2371 N   0  0  0  0  0  0  0  0  0  0  0  0
   -3.0365    3.0815    7.5403 N   0  0  0  0  0  0  0  0  0  0  0  0
   -4.4491    3.0508    7.8791 C   0  0  0  0  0  0  0  0  0  0  0  0
   -2.6037    1.4050    9.0064 O   0  0  0  0  0  0  0  0  0  0  0  0
   -2.1739    2.2103    8.2148 C   0  0  0  0  0  0  0  0  0  0  0  0
   -0.7858    2.3140    7.8707 C   0  0  0  0  0  0  0  0  0  0  0  0
    0.1713    1.5143    8.5016 C   0  0  0  0  0  0  0  0  0  0  0  0
   -3.5353    4.8232    5.8466 C   0  0  0  0  0  0  0  0  0  0  0  0
   -3.1335    5.0924    4.4003 C   0  0  0  0  0  0  0  0  0  0  0  0
   -3.4959    4.0462    3.3644 C   0  0  0  0  0  0  0  0  0  0  0  0
   -4.5324    3.3864    3.4774 O   0  0  0  0  0  0  0  0  0  0  0  0
   -2.5744    3.8762    2.4161 O   0  0  0  0  0  0  0  0  0  0  0  0
   -1.8124    4.4212    2.4001 H   0  0  0  0  0  0  0  0  0  0  0  0
  4  5  2  0  0  0
  4  3  1  0  0  0
  5 12  1  0  0  0
  3  2  2  0  0  0
 12 11  2  0  0  0
  2 11  1  0  0  0
  2  6  1  0  0  0
 11 10  1  0  0  0
  6  1  2  0  0  0
 10  9  2  0  0  0
 10  7  1  0  0  0
 16 15  2  0  0  0
  1  7  1  0  0  0
  1 13  1  0  0  0
  7  8  1  0  0  0
 14 15  1  0  0  0
 14 13  1  0  0  0
 15 17  1  0  0  0
 17 18  1  0  0  0
M  END
> <minimizedAffinity>
-6.58537

$$$$
6CED_EYA_A_1304


 18 19  0  0  0  0  0  0  0  0999 V2000
   -0.0451    3.4525    6.6880 C   0  0  0  0  0  0  0  0  0  0  0  0
   -2.2930    3.2766    7.1629 C   0  0  0  0  0  0  0  0  0  0  0  0
   -3.5952    3.7080    6.9012 C   0  0  0  0  0  0  0  0  0  0  0  0
   -4.6599    3.1397    7.5817 C   0  0  0  0  0  0  0  0  0  0  0  0
   -4.4399    2.1474    8.5145 C   0  0  0  0  0  0  0  0  0  0  0  0
   -1.2411    3.8729    6.4681 N   0  0  0  0  0  0  0  0  0  0  0  0
    0.2625    2.4418    7.5971 N   0  0  0  0  0  0  0  0  0  0  0  0
    1.6347    1.9996    7.7780 C   0  0  0  0  0  0  0  0  0  0  0  0
   -0.4579    1.0035    9.1971 O   0  0  0  0  0  0  0  0  0  0  0  0
   -0.7377    1.8286    8.3599 C   0  0  0  0  0  0  0  0  0  0  0  0
   -2.0771    2.2746    8.1092 C   0  0  0  0  0  0  0  0  0  0  0  0
   -3.1598    1.7122    8.7911 C   0  0  0  0  0  0  0  0  0  0  0  0
    1.0721    4.1025    5.9426 C   0  0  0  0  0  0  0  0  0  0  0  0
    0.6715    4.5343    4.5359 C   0  0  0  0  0  0  0  0  0  0  0  0
    0.3945    6.0071    4.3056 C   0  0  0  0  0  0  0  0  0  0  0  0
    0.4994    6.4947    3.1771 O   0  0  0  0  0  0  0  0  0  0  0  0
    0.1201    6.6903    5.4171 O   0  0  0  0  0  0  0  0  0  0  0  0
    0.0572    6.2435    6.2383 H   0  0  0  0  0  0  0  0  0  0  0  0
  4  5  2  0  0  0
  4  3  1  0  0  0
  5 12  1  0  0  0
  3  2  2  0  0  0
 12 11  2  0  0  0
  2 11  1  0  0  0
  2  6  1  0  0  0
 11 10  1  0  0  0
  6  1  2  0  0  0
 10  9  2  0  0  0
 10  7  1  0  0  0
 16 15  2  0  0  0
  1  7  1  0  0  0
  1 13  1  0  0  0
  7  8  1  0  0  0
 14 15  1  0  0  0
 14 13  1  0  0  0
 15 17  1  0  0  0
 17 18  1  0  0  0
M  END
> <minimizedAffinity>
-6.32743

$$$$
6CED_EYA_A_1304


 18 19  0  0  0  0  0  0  0  0999 V2000
   -1.9158    4.5539    5.8035 C   0  0  0  0  0  0  0  0  0  0  0  0
   -0.9815    2.9755    7.1981 C   0  0  0  0  0  0  0  0  0  0  0  0
   -1.1785    1.9621    8.1387 C   0  0  0  0  0  0  0  0  0  0  0  0
   -0.0886    1.2876    8.6644 C   0  0  0  0  0  0  0  0  0  0  0  0
    1.1907    1.6103    8.2609 C   0  0  0  0  0  0  0  0  0  0  0  0
   -2.0973    3.6419    6.6928 N   0  0  0  0  0  0  0  0  0  0  0  0
   -0.6606    4.9269    5.3260 N   0  0  0  0  0  0  0  0  0  0  0  0
   -0.5307    5.9497    4.3021 C   0  0  0  0  0  0  0  0  0  0  0  0
    1.5939    4.7071    5.4541 O   0  0  0  0  0  0  0  0  0  0  0  0
    0.5053    4.3307    5.8192 C   0  0  0  0  0  0  0  0  0  0  0  0
    0.3148    3.2987    6.7962 C   0  0  0  0  0  0  0  0  0  0  0  0
    1.4058    2.6128    7.3371 C   0  0  0  0  0  0  0  0  0  0  0  0
   -3.1172    5.2634    5.2750 C   0  0  0  0  0  0  0  0  0  0  0  0
   -4.2103    4.3078    4.8085 C   0  0  0  0  0  0  0  0  0  0  0  0
   -4.2629    3.9683    3.3317 C   0  0  0  0  0  0  0  0  0  0  0  0
   -5.2885    3.4962    2.8342 O   0  0  0  0  0  0  0  0  0  0  0  0
   -3.1096    4.1528    2.6887 O   0  0  0  0  0  0  0  0  0  0  0  0
   -2.3746    4.5186    3.1404 H   0  0  0  0  0  0  0  0  0  0  0  0
  4  5  2  0  0  0
  4  3  1  0  0  0
  5 12  1  0  0  0
  3  2  2  0  0  0
 12 11  2  0  0  0
  2 11  1  0  0  0
  2  6  1  0  0  0
 11 10  1  0  0  0
  6  1  2  0  0  0
 10  9  2  0  0  0
 10  7  1  0  0  0
 16 15  2  0  0  0
  1  7  1  0  0  0
  1 13  1  0  0  0
  7  8  1  0  0  0
 14 15  1  0  0  0
 14 13  1  0  0  0
 15 17  1  0  0  0
 17 18  1  0  0  0
M  END
> <minimizedAffinity>
-6.12963

$$$$
6CED_EYA_A_1304


 18 19  0  0  0  0  0  0  0  0999 V2000
   -0.5128    4.6086    5.1705 C   0  0  0  0  0  0  0  0  0  0  0  0
    0.6202    3.3392    6.7243 C   0  0  0  0  0  0  0  0  0  0  0  0
    0.6450    2.1982    7.5292 C   0  0  0  0  0  0  0  0  0  0  0  0
    1.7460    1.9432    8.3305 C   0  0  0  0  0  0  0  0  0  0  0  0
    2.8195    2.8097    8.3349 C   0  0  0  0  0  0  0  0  0  0  0  0
   -0.5050    3.5735    5.9346 N   0  0  0  0  0  0  0  0  0  0  0  0
    0.5372    5.5226    5.0989 N   0  0  0  0  0  0  0  0  0  0  0  0
    0.4713    6.6583    4.1949 C   0  0  0  0  0  0  0  0  0  0  0  0
    2.5542    6.2064    5.8808 O   0  0  0  0  0  0  0  0  0  0  0  0
    1.6788    5.3738    5.8943 C   0  0  0  0  0  0  0  0  0  0  0  0
    1.7079    4.2128    6.7353 C   0  0  0  0  0  0  0  0  0  0  0  0
    2.8109    3.9455    7.5510 C   0  0  0  0  0  0  0  0  0  0  0  0
   -1.7247    4.8512    4.3348 C   0  0  0  0  0  0  0  0  0  0  0  0
   -1.9407    3.7715    3.2797 C   0  0  0  0  0  0  0  0  0  0  0  0
   -0.8856    3.6227    2.2010 C   0  0  0  0  0  0  0  0  0  0  0  0
   -0.4961    4.6067    1.5666 O   0  0  0  0  0  0  0  0  0  0  0  0
   -0.5102    2.3634    1.9757 O   0  0  0  0  0  0  0  0  0  0  0  0
   -0.8537    1.6704    2.5046 H   0  0  0  0  0  0  0  0  0  0  0  0
  4  5  2  0  0  0
  4  3  1  0  0  0
  5 12  1  0  0  0
  3  2  2  0  0  0
 12 11  2  0  0  0
  2 11  1  0  0  0
  2  6  1  0  0  0
 11 10  1  0  0  0
  6  1  2  0  0  0
 10  9  2  0  0  0
 10  7  1  0  0  0
 16 15  2  0  0  0
  1  7  1  0  0  0
  1 13  1  0  0  0
  7  8  1  0  0  0
 14 15  1  0  0  0
 14 13  1  0  0  0
 15 17  1  0  0  0
 17 18  1  0  0  0
M  END
> <minimizedAffinity>
-6.03280

$$$$
6CED_EYA_A_1304


 18 19  0  0  0  0  0  0  0  0999 V2000
   -1.6889    2.6658    7.7193 C   0  0  0  0  0  0  0  0  0  0  0  0
   -1.0328    4.2940    6.2268 C   0  0  0  0  0  0  0  0  0  0  0  0
   -1.3962    5.3688    5.4123 C   0  0  0  0  0  0  0  0  0  0  0  0
   -0.4287    6.0372    4.6800 C   0  0  0  0  0  0  0  0  0  0  0  0
    0.8929    5.6480    4.7538 C   0  0  0  0  0  0  0  0  0  0  0  0
   -2.0300    3.6357    6.9458 N   0  0  0  0  0  0  0  0  0  0  0  0
   -0.3757    2.2227    7.8680 N   0  0  0  0  0  0  0  0  0  0  0  0
   -0.0586    1.1358    8.7787 C   0  0  0  0  0  0  0  0  0  0  0  0
    1.7945    2.3746    7.2241 O   0  0  0  0  0  0  0  0  0  0  0  0
    0.6696    2.8086    7.1454 C   0  0  0  0  0  0  0  0  0  0  0  0
    0.3048    3.9039    6.2950 C   0  0  0  0  0  0  0  0  0  0  0  0
    1.2705    4.5846    5.5483 C   0  0  0  0  0  0  0  0  0  0  0  0
   -2.7657    1.9659    8.4788 C   0  0  0  0  0  0  0  0  0  0  0  0
   -4.1448    2.5730    8.2439 C   0  0  0  0  0  0  0  0  0  0  0  0
   -4.6590    3.5653    9.2684 C   0  0  0  0  0  0  0  0  0  0  0  0
   -5.6259    3.2842    9.9815 O   0  0  0  0  0  0  0  0  0  0  0  0
   -4.0307    4.7411    9.2516 O   0  0  0  0  0  0  0  0  0  0  0  0
   -3.3015    4.8744    8.6785 H   0  0  0  0  0  0  0  0  0  0  0  0
  4  5  2  0  0  0
  4  3  1  0  0  0
  5 12  1  0  0  0
  3  2  2  0  0  0
 12 11  2  0  0  0
  2 11  1  0  0  0
  2  6  1  0  0  0
 11 10  1  0  0  0
  6  1  2  0  0  0
 10  9  2  0  0  0
 10  7  1  0  0  0
 16 15  2  0  0  0
  1  7  1  0  0  0
  1 13  1  0  0  0
  7  8  1  0  0  0
 14 15  1  0  0  0
 14 13  1  0  0  0
 15 17  1  0  0  0
 17 18  1  0  0  0
M  END
> <minimizedAffinity>
-5.99605

$$$$
6CED_EYA_A_1304


 18 19  0  0  0  0  0  0  0  0999 V2000
   -2.2041    4.5102    6.0735 C   0  0  0  0  0  0  0  0  0  0  0  0
   -1.1789    2.9031    7.3679 C   0  0  0  0  0  0  0  0  0  0  0  0
   -1.3117    1.8770    8.3059 C   0  0  0  0  0  0  0  0  0  0  0  0
   -0.1904    1.1858    8.7353 C   0  0  0  0  0  0  0  0  0  0  0  0
    1.0565    1.5044    8.2384 C   0  0  0  0  0  0  0  0  0  0  0  0
   -2.3245    3.5862    6.9607 N   0  0  0  0  0  0  0  0  0  0  0  0
   -0.9864    4.8805    5.5054 N   0  0  0  0  0  0  0  0  0  0  0  0
   -0.9270    5.9180    4.4898 C   0  0  0  0  0  0  0  0  0  0  0  0
    1.2692    4.6408    5.4547 O   0  0  0  0  0  0  0  0  0  0  0  0
    0.2088    4.2675    5.8977 C   0  0  0  0  0  0  0  0  0  0  0  0
    0.0852    3.2222    6.8712 C   0  0  0  0  0  0  0  0  0  0  0  0
    1.2086    2.5193    7.3156 C   0  0  0  0  0  0  0  0  0  0  0  0
   -3.4364    5.2375    5.6505 C   0  0  0  0  0  0  0  0  0  0  0  0
   -4.2794    5.7081    6.8309 C   0  0  0  0  0  0  0  0  0  0  0  0
   -3.7384    6.8498    7.6693 C   0  0  0  0  0  0  0  0  0  0  0  0
   -3.4291    6.6675    8.8498 O   0  0  0  0  0  0  0  0  0  0  0  0
   -3.7153    8.0249    7.0399 O   0  0  0  0  0  0  0  0  0  0  0  0
   -3.9663    8.0787    6.1387 H   0  0  0  0  0  0  0  0  0  0  0  0
  4  5  2  0  0  0
  4  3  1  0  0  0
  5 12  1  0  0  0
  3  2  2  0  0  0
 12 11  2  0  0  0
  2 11  1  0  0  0
  2  6  1  0  0  0
 11 10  1  0  0  0
  6  1  2  0  0  0
 10  9  2  0  0  0
 10  7  1  0  0  0
 16 15  2  0  0  0
  1  7  1  0  0  0
  1 13  1  0  0  0
  7  8  1  0  0  0
 14 15  1  0  0  0
 14 13  1  0  0  0
 15 17  1  0  0  0
 17 18  1  0  0  0
M  END
> <minimizedAffinity>
-5.96868

$$$$
