1QYG_BCG_H_401


 22 24  0  0  0  0  0  0  0  0999 V2000
   22.6822   -1.2775   26.0750 C   0  0  0  0  0  0  0  0  0  0  0  0
   24.0799   -1.9248   25.8281 C   0  0  0  0  0  0  0  0  0  0  0  0
   24.0215   -2.6585   24.4527 C   0  0  0  0  0  0  0  0  0  0  0  0
   22.8380   -3.5126   24.2243 C   0  0  0  0  0  0  0  0  0  0  0  0
   21.5024   -2.6937   24.6078 C   0  0  0  0  0  0  0  0  0  0  0  0
   21.4424   -1.3139   23.9202 C   0  0  0  0  0  0  0  0  0  0  0  0
   22.2526   -0.3160   24.9320 C   0  0  0  0  0  0  0  0  0  0  0  0
   20.3435   -1.9780   26.7864 C   0  0  0  0  0  0  0  0  0  0  0  0
   21.6249   -2.4125   26.0761 N   0  0  0  0  0  0  0  0  0  0  0  0
   24.5463   -2.8338   26.9744 C   0  0  0  0  0  0  0  0  0  0  0  0
   24.1486   -3.9243   27.2434 O   0  0  0  0  0  0  0  0  0  0  0  0
   25.4500   -2.2219   27.6712 O   0  0  0  0  0  0  0  0  0  0  0  0
   23.4929   -4.3286   26.7099 H   0  0  0  0  0  0  0  0  0  0  0  0
   25.2496   -3.4149   24.2454 O   0  0  0  0  0  0  0  0  0  0  0  0
   26.4158   -2.8856   24.0017 C   0  0  0  0  0  0  0  0  0  0  0  0
   26.6874   -1.7012   24.0644 O   0  0  0  0  0  0  0  0  0  0  0  0
   27.4006   -3.9050   23.5472 C   0  0  0  0  0  0  0  0  0  0  0  0
   26.9806   -5.2091   23.1303 C   0  0  0  0  0  0  0  0  0  0  0  0
   28.0014   -6.1380   22.6537 C   0  0  0  0  0  0  0  0  0  0  0  0
   29.3573   -5.7330   22.6173 C   0  0  0  0  0  0  0  0  0  0  0  0
   29.7509   -4.4279   23.0688 C   0  0  0  0  0  0  0  0  0  0  0  0
   28.7475   -3.5440   23.5222 C   0  0  0  0  0  0  0  0  0  0  0  0
  1  2  1  0  0  0
  1  7  1  0  0  0
  1  9  1  0  0  0
  2  3  1  0  0  0
  2 10  1  0  0  0
  3  4  1  0  0  0
  3 14  1  0  0  0
  4  5  1  0  0  0
  5  6  1  0  0  0
  5  9  1  0  0  0
  6  7  1  0  0  0
 15 17  1  0  0  0
 15 14  1  0  0  0
 15 16  2  0  0  0
 17 18  1  0  0  0
 17 22  2  0  0  0
 18 19  2  0  0  0
 19 20  1  0  0  0
 20 21  2  0  0  0
 21 22  1  0  0  0
 10 11  1  0  0  0
 10 12  2  0  0  0
  8  9  1  0  0  0
 11 13  1  0  0  0
M  END
> <minimizedAffinity>
-8.66421

$$$$
1QYG_BCG_H_401


 22 24  0  0  0  0  0  0  0  0999 V2000
   21.2993   -2.1839   23.8422 C   0  0  0  0  0  0  0  0  0  0  0  0
   22.7446   -1.6634   24.1135 C   0  0  0  0  0  0  0  0  0  0  0  0
   23.4834   -2.7471   24.9579 C   0  0  0  0  0  0  0  0  0  0  0  0
   22.7381   -3.2869   26.1134 C   0  0  0  0  0  0  0  0  0  0  0  0
   21.2486   -3.6955   25.6485 C   0  0  0  0  0  0  0  0  0  0  0  0
   21.2517   -4.6058   24.4029 C   0  0  0  0  0  0  0  0  0  0  0  0
   21.2796   -3.5691   23.1377 C   0  0  0  0  0  0  0  0  0  0  0  0
   19.0876   -2.4304   25.0728 C   0  0  0  0  0  0  0  0  0  0  0  0
   20.6092   -2.4104   25.2129 N   0  0  0  0  0  0  0  0  0  0  0  0
   22.7842   -0.2700   24.7576 C   0  0  0  0  0  0  0  0  0  0  0  0
   22.4222    0.0343   25.8511 O   0  0  0  0  0  0  0  0  0  0  0  0
   23.2533    0.5863   23.9070 O   0  0  0  0  0  0  0  0  0  0  0  0
   22.0894   -0.6199   26.4335 H   0  0  0  0  0  0  0  0  0  0  0  0
   24.7854   -2.2432   25.3754 O   0  0  0  0  0  0  0  0  0  0  0  0
   25.7717   -1.9733   24.5667 C   0  0  0  0  0  0  0  0  0  0  0  0
   26.1352   -0.8611   24.2333 O   0  0  0  0  0  0  0  0  0  0  0  0
   26.3836   -3.2108   24.0103 C   0  0  0  0  0  0  0  0  0  0  0  0
   25.5733   -4.3040   23.5641 C   0  0  0  0  0  0  0  0  0  0  0  0
   26.2457   -5.4647   22.9872 C   0  0  0  0  0  0  0  0  0  0  0  0
   27.6575   -5.4799   22.8862 C   0  0  0  0  0  0  0  0  0  0  0  0
   28.4446   -4.3799   23.3685 C   0  0  0  0  0  0  0  0  0  0  0  0
   27.7742   -3.2659   23.9192 C   0  0  0  0  0  0  0  0  0  0  0  0
  1  2  1  0  0  0
  1  7  1  0  0  0
  1  9  1  0  0  0
  2  3  1  0  0  0
  2 10  1  0  0  0
  3  4  1  0  0  0
  3 14  1  0  0  0
  4  5  1  0  0  0
  5  6  1  0  0  0
  5  9  1  0  0  0
  6  7  1  0  0  0
 15 17  1  0  0  0
 15 14  1  0  0  0
 15 16  2  0  0  0
 17 18  1  0  0  0
 17 22  2  0  0  0
 18 19  2  0  0  0
 19 20  1  0  0  0
 20 21  2  0  0  0
 21 22  1  0  0  0
 10 11  1  0  0  0
 10 12  2  0  0  0
  8  9  1  0  0  0
 11 13  1  0  0  0
M  END
> <minimizedAffinity>
-8.44560

$$$$
1QYG_BCG_H_401


 22 24  0  0  0  0  0  0  0  0999 V2000
   20.3689   -1.5631   23.5121 C   0  0  0  0  0  0  0  0  0  0  0  0
   21.7461   -1.4517   24.2363 C   0  0  0  0  0  0  0  0  0  0  0  0
   22.4661   -2.8279   24.0906 C   0  0  0  0  0  0  0  0  0  0  0  0
   21.6478   -4.0214   24.3874 C   0  0  0  0  0  0  0  0  0  0  0  0
   20.2385   -3.9133   23.6104 C   0  0  0  0  0  0  0  0  0  0  0  0
   20.4184   -3.6142   22.1076 C   0  0  0  0  0  0  0  0  0  0  0  0
   20.5036   -1.9828   22.0217 C   0  0  0  0  0  0  0  0  0  0  0  0
   18.0685   -2.5708   23.9113 C   0  0  0  0  0  0  0  0  0  0  0  0
   19.5653   -2.7041   24.1891 N   0  0  0  0  0  0  0  0  0  0  0  0
   21.6365   -0.9826   25.6944 C   0  0  0  0  0  0  0  0  0  0  0  0
   21.2501   -1.6094   26.6311 O   0  0  0  0  0  0  0  0  0  0  0  0
   22.0034    0.2563   25.7787 O   0  0  0  0  0  0  0  0  0  0  0  0
   20.9948   -2.5044   26.5228 H   0  0  0  0  0  0  0  0  0  0  0  0
   23.6878   -2.8311   24.8849 O   0  0  0  0  0  0  0  0  0  0  0  0
   24.7881   -2.2134   24.5577 C   0  0  0  0  0  0  0  0  0  0  0  0
   24.9700   -1.0111   24.6022 O   0  0  0  0  0  0  0  0  0  0  0  0
   25.8140   -3.1546   24.0312 C   0  0  0  0  0  0  0  0  0  0  0  0
   27.2060   -2.8189   24.0438 C   0  0  0  0  0  0  0  0  0  0  0  0
   28.1555   -3.8136   23.5528 C   0  0  0  0  0  0  0  0  0  0  0  0
   27.6836   -5.0631   23.0840 C   0  0  0  0  0  0  0  0  0  0  0  0
   26.2788   -5.3597   23.0576 C   0  0  0  0  0  0  0  0  0  0  0  0
   25.3782   -4.3852   23.5404 C   0  0  0  0  0  0  0  0  0  0  0  0
  1  2  1  0  0  0
  1  7  1  0  0  0
  1  9  1  0  0  0
  2  3  1  0  0  0
  2 10  1  0  0  0
  3  4  1  0  0  0
  3 14  1  0  0  0
  4  5  1  0  0  0
  5  6  1  0  0  0
  5  9  1  0  0  0
  6  7  1  0  0  0
 15 17  1  0  0  0
 15 14  1  0  0  0
 15 16  2  0  0  0
 17 18  1  0  0  0
 17 22  2  0  0  0
 18 19  2  0  0  0
 19 20  1  0  0  0
 20 21  2  0  0  0
 21 22  1  0  0  0
 10 11  1  0  0  0
 10 12  2  0  0  0
  8  9  1  0  0  0
 11 13  1  0  0  0
M  END
> <minimizedAffinity>
-8.09298

$$$$
1QYG_BCG_H_401


 22 24  0  0  0  0  0  0  0  0999 V2000
   20.4656   -3.8563   24.9891 C   0  0  0  0  0  0  0  0  0  0  0  0
   21.8945   -4.2130   24.4749 C   0  0  0  0  0  0  0  0  0  0  0  0
   22.7625   -2.9201   24.5651 C   0  0  0  0  0  0  0  0  0  0  0  0
   22.1467   -1.6882   24.0310 C   0  0  0  0  0  0  0  0  0  0  0  0
   20.6515   -1.5374   24.6168 C   0  0  0  0  0  0  0  0  0  0  0  0
   20.6080   -1.6642   26.1538 C   0  0  0  0  0  0  0  0  0  0  0  0
   20.4715   -3.2710   26.4288 C   0  0  0  0  0  0  0  0  0  0  0  0
   18.3794   -2.6523   24.1735 C   0  0  0  0  0  0  0  0  0  0  0  0
   19.9035   -2.7254   24.0883 N   0  0  0  0  0  0  0  0  0  0  0  0
   21.9030   -4.8458   23.0758 C   0  0  0  0  0  0  0  0  0  0  0  0
   21.3049   -4.4824   22.1115 O   0  0  0  0  0  0  0  0  0  0  0  0
   22.6543   -5.9003   23.0827 O   0  0  0  0  0  0  0  0  0  0  0  0
   20.7726   -3.7123   22.1530 H   0  0  0  0  0  0  0  0  0  0  0  0
   24.0617   -3.1550   23.9482 O   0  0  0  0  0  0  0  0  0  0  0  0
   25.2015   -2.7628   24.4447 C   0  0  0  0  0  0  0  0  0  0  0  0
   25.3626   -1.8266   25.2049 O   0  0  0  0  0  0  0  0  0  0  0  0
   26.3400   -3.5572   23.9078 C   0  0  0  0  0  0  0  0  0  0  0  0
   27.6824   -3.0615   23.9621 C   0  0  0  0  0  0  0  0  0  0  0  0
   28.7507   -3.9193   23.4574 C   0  0  0  0  0  0  0  0  0  0  0  0
   28.4375   -5.1972   22.9353 C   0  0  0  0  0  0  0  0  0  0  0  0
   27.0781   -5.6551   22.8683 C   0  0  0  0  0  0  0  0  0  0  0  0
   26.0608   -4.8113   23.3652 C   0  0  0  0  0  0  0  0  0  0  0  0
  1  2  1  0  0  0
  1  7  1  0  0  0
  1  9  1  0  0  0
  2  3  1  0  0  0
  2 10  1  0  0  0
  3  4  1  0  0  0
  3 14  1  0  0  0
  4  5  1  0  0  0
  5  6  1  0  0  0
  5  9  1  0  0  0
  6  7  1  0  0  0
 15 17  1  0  0  0
 15 14  1  0  0  0
 15 16  2  0  0  0
 17 18  1  0  0  0
 17 22  2  0  0  0
 18 19  2  0  0  0
 19 20  1  0  0  0
 20 21  2  0  0  0
 21 22  1  0  0  0
 10 11  1  0  0  0
 10 12  2  0  0  0
  8  9  1  0  0  0
 11 13  1  0  0  0
M  END
> <minimizedAffinity>
-7.90587

$$$$
1QYG_BCG_H_401


 22 24  0  0  0  0  0  0  0  0999 V2000
   19.1541   -1.1589   22.5796 C   0  0  0  0  0  0  0  0  0  0  0  0
   20.5772   -1.4160   23.1645 C   0  0  0  0  0  0  0  0  0  0  0  0
   20.6792   -2.9359   23.5008 C   0  0  0  0  0  0  0  0  0  0  0  0
   19.5374   -3.5139   24.2385 C   0  0  0  0  0  0  0  0  0  0  0  0
   18.1591   -3.0730   23.5262 C   0  0  0  0  0  0  0  0  0  0  0  0
   18.1613   -3.3665   22.0116 C   0  0  0  0  0  0  0  0  0  0  0  0
   18.8439   -2.0410   21.3383 C   0  0  0  0  0  0  0  0  0  0  0  0
   16.7583   -0.9228   23.3988 C   0  0  0  0  0  0  0  0  0  0  0  0
   18.1150   -1.5789   23.6520 N   0  0  0  0  0  0  0  0  0  0  0  0
   20.9231   -0.5125   24.3570 C   0  0  0  0  0  0  0  0  0  0  0  0
   20.2901   -0.3526   25.3537 O   0  0  0  0  0  0  0  0  0  0  0  0
   22.0304    0.1144   24.1176 O   0  0  0  0  0  0  0  0  0  0  0  0
   19.4936   -0.8286   25.4843 H   0  0  0  0  0  0  0  0  0  0  0  0
   21.9306   -3.2031   24.1980 O   0  0  0  0  0  0  0  0  0  0  0  0
   22.7911   -4.1202   23.8546 C   0  0  0  0  0  0  0  0  0  0  0  0
   22.5262   -5.2704   23.5593 O   0  0  0  0  0  0  0  0  0  0  0  0
   24.1913   -3.6220   23.9370 C   0  0  0  0  0  0  0  0  0  0  0  0
   24.4874   -2.3220   24.4595 C   0  0  0  0  0  0  0  0  0  0  0  0
   25.8890   -1.9231   24.5513 C   0  0  0  0  0  0  0  0  0  0  0  0
   26.9023   -2.8162   24.1279 C   0  0  0  0  0  0  0  0  0  0  0  0
   26.5723   -4.1028   23.5818 C   0  0  0  0  0  0  0  0  0  0  0  0
   25.2110   -4.4700   23.5054 C   0  0  0  0  0  0  0  0  0  0  0  0
  1  2  1  0  0  0
  1  7  1  0  0  0
  1  9  1  0  0  0
  2  3  1  0  0  0
  2 10  1  0  0  0
  3  4  1  0  0  0
  3 14  1  0  0  0
  4  5  1  0  0  0
  5  6  1  0  0  0
  5  9  1  0  0  0
  6  7  1  0  0  0
 15 17  1  0  0  0
 15 14  1  0  0  0
 15 16  2  0  0  0
 17 18  1  0  0  0
 17 22  2  0  0  0
 18 19  2  0  0  0
 19 20  1  0  0  0
 20 21  2  0  0  0
 21 22  1  0  0  0
 10 11  1  0  0  0
 10 12  2  0  0  0
  8  9  1  0  0  0
 11 13  1  0  0  0
M  END
> <minimizedAffinity>
-7.42715

$$$$
1QYG_BCG_H_401


 22 24  0  0  0  0  0  0  0  0999 V2000
   19.0663   -3.1383   24.2782 C   0  0  0  0  0  0  0  0  0  0  0  0
   20.4529   -3.4468   24.9231 C   0  0  0  0  0  0  0  0  0  0  0  0
   21.5518   -2.9304   23.9438 C   0  0  0  0  0  0  0  0  0  0  0  0
   21.3773   -3.2969   22.5234 C   0  0  0  0  0  0  0  0  0  0  0  0
   19.8641   -2.9750   22.0675 C   0  0  0  0  0  0  0  0  0  0  0  0
   19.4402   -1.5332   22.4166 C   0  0  0  0  0  0  0  0  0  0  0  0
   18.8763   -1.6314   23.9490 C   0  0  0  0  0  0  0  0  0  0  0  0
   17.5603   -4.0490   22.4427 C   0  0  0  0  0  0  0  0  0  0  0  0
   19.0037   -3.8684   22.9110 N   0  0  0  0  0  0  0  0  0  0  0  0
   20.6362   -4.9221   25.3076 C   0  0  0  0  0  0  0  0  0  0  0  0
   20.8444   -5.8414   24.5788 O   0  0  0  0  0  0  0  0  0  0  0  0
   20.4947   -5.0561   26.5877 O   0  0  0  0  0  0  0  0  0  0  0  0
   20.9401   -5.6968   23.6579 H   0  0  0  0  0  0  0  0  0  0  0  0
   22.8674   -3.3356   24.4218 O   0  0  0  0  0  0  0  0  0  0  0  0
   23.9127   -2.5580   24.4683 C   0  0  0  0  0  0  0  0  0  0  0  0
   23.9092   -1.3769   24.7607 O   0  0  0  0  0  0  0  0  0  0  0  0
   25.1481   -3.2675   24.0371 C   0  0  0  0  0  0  0  0  0  0  0  0
   26.4401   -2.6699   24.1922 C   0  0  0  0  0  0  0  0  0  0  0  0
   27.6080   -3.4477   23.7883 C   0  0  0  0  0  0  0  0  0  0  0  0
   27.4360   -4.7504   23.2617 C   0  0  0  0  0  0  0  0  0  0  0  0
   26.1251   -5.3116   23.0920 C   0  0  0  0  0  0  0  0  0  0  0  0
   25.0098   -4.5440   23.4925 C   0  0  0  0  0  0  0  0  0  0  0  0
  1  2  1  0  0  0
  1  7  1  0  0  0
  1  9  1  0  0  0
  2  3  1  0  0  0
  2 10  1  0  0  0
  3  4  1  0  0  0
  3 14  1  0  0  0
  4  5  1  0  0  0
  5  6  1  0  0  0
  5  9  1  0  0  0
  6  7  1  0  0  0
 15 17  1  0  0  0
 15 14  1  0  0  0
 15 16  2  0  0  0
 17 18  1  0  0  0
 17 22  2  0  0  0
 18 19  2  0  0  0
 19 20  1  0  0  0
 20 21  2  0  0  0
 21 22  1  0  0  0
 10 11  1  0  0  0
 10 12  2  0  0  0
  8  9  1  0  0  0
 11 13  1  0  0  0
M  END
> <minimizedAffinity>
-7.34855

$$$$
1QYG_BCG_H_401


 22 24  0  0  0  0  0  0  0  0999 V2000
   18.4159   -2.6323   24.0200 C   0  0  0  0  0  0  0  0  0  0  0  0
   19.3990   -1.9084   24.9911 C   0  0  0  0  0  0  0  0  0  0  0  0
   20.5585   -1.3172   24.1311 C   0  0  0  0  0  0  0  0  0  0  0  0
   21.1534   -2.2286   23.1322 C   0  0  0  0  0  0  0  0  0  0  0  0
   19.9784   -2.9357   22.2832 C   0  0  0  0  0  0  0  0  0  0  0  0
   18.9756   -1.9150   21.7061 C   0  0  0  0  0  0  0  0  0  0  0  0
   17.8782   -1.6988   22.8998 C   0  0  0  0  0  0  0  0  0  0  0  0
   18.2692   -4.8063   22.7090 C   0  0  0  0  0  0  0  0  0  0  0  0
   19.2067   -3.7448   23.2831 N   0  0  0  0  0  0  0  0  0  0  0  0
   19.8963   -2.7999   26.1381 C   0  0  0  0  0  0  0  0  0  0  0  0
   20.2714   -3.9288   26.0694 O   0  0  0  0  0  0  0  0  0  0  0  0
   19.8211   -2.1494   27.2552 O   0  0  0  0  0  0  0  0  0  0  0  0
   20.3094   -4.3600   25.2384 H   0  0  0  0  0  0  0  0  0  0  0  0
   21.5881   -0.7676   25.0036 O   0  0  0  0  0  0  0  0  0  0  0  0
   22.7782   -0.4068   24.6125 C   0  0  0  0  0  0  0  0  0  0  0  0
   23.0311    0.5125   23.8567 O   0  0  0  0  0  0  0  0  0  0  0  0
   23.8322   -1.3144   25.1426 C   0  0  0  0  0  0  0  0  0  0  0  0
   23.6757   -1.9788   26.4014 C   0  0  0  0  0  0  0  0  0  0  0  0
   24.7327   -2.8896   26.8317 C   0  0  0  0  0  0  0  0  0  0  0  0
   25.8663   -3.0888   26.0078 C   0  0  0  0  0  0  0  0  0  0  0  0
   26.0079   -2.3863   24.7634 C   0  0  0  0  0  0  0  0  0  0  0  0
   24.9725   -1.5131   24.3645 C   0  0  0  0  0  0  0  0  0  0  0  0
  1  2  1  0  0  0
  1  7  1  0  0  0
  1  9  1  0  0  0
  2  3  1  0  0  0
  2 10  1  0  0  0
  3  4  1  0  0  0
  3 14  1  0  0  0
  4  5  1  0  0  0
  5  6  1  0  0  0
  5  9  1  0  0  0
  6  7  1  0  0  0
 15 17  1  0  0  0
 15 14  1  0  0  0
 15 16  2  0  0  0
 17 18  1  0  0  0
 17 22  2  0  0  0
 18 19  2  0  0  0
 19 20  1  0  0  0
 20 21  2  0  0  0
 21 22  1  0  0  0
 10 11  1  0  0  0
 10 12  2  0  0  0
  8  9  1  0  0  0
 11 13  1  0  0  0
M  END
> <minimizedAffinity>
-7.27568

$$$$
1QYG_BCG_H_401


 22 24  0  0  0  0  0  0  0  0999 V2000
   20.6788   -1.7759   23.6322 C   0  0  0  0  0  0  0  0  0  0  0  0
   22.1212   -2.2350   24.0092 C   0  0  0  0  0  0  0  0  0  0  0  0
   22.2956   -3.6997   23.5017 C   0  0  0  0  0  0  0  0  0  0  0  0
   21.1926   -4.6301   23.8176 C   0  0  0  0  0  0  0  0  0  0  0  0
   19.7847   -3.9459   23.4285 C   0  0  0  0  0  0  0  0  0  0  0  0
   19.7751   -3.4036   21.9843 C   0  0  0  0  0  0  0  0  0  0  0  0
   20.3876   -1.8919   22.1100 C   0  0  0  0  0  0  0  0  0  0  0  0
   18.2886   -2.1138   24.4318 C   0  0  0  0  0  0  0  0  0  0  0  0
   19.6769   -2.7421   24.3169 N   0  0  0  0  0  0  0  0  0  0  0  0
   22.4463   -2.0736   25.5013 C   0  0  0  0  0  0  0  0  0  0  0  0
   22.4381   -2.9187   26.3411 O   0  0  0  0  0  0  0  0  0  0  0  0
   22.7113   -0.8316   25.7542 O   0  0  0  0  0  0  0  0  0  0  0  0
   22.2406   -3.8054   26.1116 H   0  0  0  0  0  0  0  0  0  0  0  0
   23.5688   -4.2341   23.9676 O   0  0  0  0  0  0  0  0  0  0  0  0
   24.3610   -4.9895   23.2596 C   0  0  0  0  0  0  0  0  0  0  0  0
   24.0235   -5.9560   22.6021 O   0  0  0  0  0  0  0  0  0  0  0  0
   25.7855   -4.5822   23.4026 C   0  0  0  0  0  0  0  0  0  0  0  0
   26.8502   -5.4495   22.9965 C   0  0  0  0  0  0  0  0  0  0  0  0
   28.2198   -4.9601   23.1252 C   0  0  0  0  0  0  0  0  0  0  0  0
   28.4564   -3.6629   23.6400 C   0  0  0  0  0  0  0  0  0  0  0  0
   27.3688   -2.8271   24.0652 C   0  0  0  0  0  0  0  0  0  0  0  0
   26.0521   -3.3184   23.9287 C   0  0  0  0  0  0  0  0  0  0  0  0
  1  2  1  0  0  0
  1  7  1  0  0  0
  1  9  1  0  0  0
  2  3  1  0  0  0
  2 10  1  0  0  0
  3  4  1  0  0  0
  3 14  1  0  0  0
  4  5  1  0  0  0
  5  6  1  0  0  0
  5  9  1  0  0  0
  6  7  1  0  0  0
 15 17  1  0  0  0
 15 14  1  0  0  0
 15 16  2  0  0  0
 17 18  1  0  0  0
 17 22  2  0  0  0
 18 19  2  0  0  0
 19 20  1  0  0  0
 20 21  2  0  0  0
 21 22  1  0  0  0
 10 11  1  0  0  0
 10 12  2  0  0  0
  8  9  1  0  0  0
 11 13  1  0  0  0
M  END
> <minimizedAffinity>
-7.17673

$$$$
1QYG_BCG_H_401


 22 24  0  0  0  0  0  0  0  0999 V2000
   23.0435   -3.0950   25.5318 C   0  0  0  0  0  0  0  0  0  0  0  0
   21.6938   -2.6259   24.9059 C   0  0  0  0  0  0  0  0  0  0  0  0
   22.0136   -1.4617   23.9181 C   0  0  0  0  0  0  0  0  0  0  0  0
   22.9170   -0.4099   24.4277 C   0  0  0  0  0  0  0  0  0  0  0  0
   24.2118   -1.0946   25.1030 C   0  0  0  0  0  0  0  0  0  0  0  0
   24.8842   -2.1241   24.1713 C   0  0  0  0  0  0  0  0  0  0  0  0
   24.0875   -3.5228   24.4629 C   0  0  0  0  0  0  0  0  0  0  0  0
   24.7046   -2.3326   27.2999 C   0  0  0  0  0  0  0  0  0  0  0  0
   23.6770   -1.8821   26.2623 N   0  0  0  0  0  0  0  0  0  0  0  0
   20.6302   -2.2534   25.9489 C   0  0  0  0  0  0  0  0  0  0  0  0
   20.2002   -1.1690   26.1914 O   0  0  0  0  0  0  0  0  0  0  0  0
   20.2635   -3.3164   26.5910 O   0  0  0  0  0  0  0  0  0  0  0  0
   20.4949   -0.4276   25.7001 H   0  0  0  0  0  0  0  0  0  0  0  0
   20.7723   -0.8792   23.4248 O   0  0  0  0  0  0  0  0  0  0  0  0
   20.0794   -1.3452   22.4237 C   0  0  0  0  0  0  0  0  0  0  0  0
   20.4642   -1.4374   21.2731 O   0  0  0  0  0  0  0  0  0  0  0  0
   18.6907   -1.6954   22.8290 C   0  0  0  0  0  0  0  0  0  0  0  0
   18.2763   -3.0601   22.9569 C   0  0  0  0  0  0  0  0  0  0  0  0
   16.9113   -3.3229   23.4041 C   0  0  0  0  0  0  0  0  0  0  0  0
   16.0468   -2.2402   23.6941 C   0  0  0  0  0  0  0  0  0  0  0  0
   16.4828   -0.8819   23.5290 C   0  0  0  0  0  0  0  0  0  0  0  0
   17.8077   -0.6502   23.0992 C   0  0  0  0  0  0  0  0  0  0  0  0
  1  2  1  0  0  0
  1  7  1  0  0  0
  1  9  1  0  0  0
  2  3  1  0  0  0
  2 10  1  0  0  0
  3  4  1  0  0  0
  3 14  1  0  0  0
  4  5  1  0  0  0
  5  6  1  0  0  0
  5  9  1  0  0  0
  6  7  1  0  0  0
 15 17  1  0  0  0
 15 14  1  0  0  0
 15 16  2  0  0  0
 17 18  1  0  0  0
 17 22  2  0  0  0
 18 19  2  0  0  0
 19 20  1  0  0  0
 20 21  2  0  0  0
 21 22  1  0  0  0
 10 11  1  0  0  0
 10 12  2  0  0  0
  8  9  1  0  0  0
 11 13  1  0  0  0
M  END
> <minimizedAffinity>
-6.96142

$$$$
1QYG_BCG_H_401


 22 24  0  0  0  0  0  0  0  0999 V2000
   20.3458   -4.5056   22.1653 C   0  0  0  0  0  0  0  0  0  0  0  0
   20.9433   -3.1066   22.5103 C   0  0  0  0  0  0  0  0  0  0  0  0
   21.5358   -3.1911   23.9509 C   0  0  0  0  0  0  0  0  0  0  0  0
   20.6716   -3.8203   24.9704 C   0  0  0  0  0  0  0  0  0  0  0  0
   20.0917   -5.2123   24.3982 C   0  0  0  0  0  0  0  0  0  0  0  0
   21.2032   -6.1273   23.8436 C   0  0  0  0  0  0  0  0  0  0  0  0
   21.3867   -5.6531   22.2888 C   0  0  0  0  0  0  0  0  0  0  0  0
   18.2860   -5.8965   22.7032 C   0  0  0  0  0  0  0  0  0  0  0  0
   19.2516   -4.8289   23.2162 N   0  0  0  0  0  0  0  0  0  0  0  0
   19.9442   -1.9532   22.3385 C   0  0  0  0  0  0  0  0  0  0  0  0
   19.2203   -1.4914   23.1645 O   0  0  0  0  0  0  0  0  0  0  0  0
   19.9618   -1.5453   21.1097 O   0  0  0  0  0  0  0  0  0  0  0  0
   19.2421   -1.8183   24.0423 H   0  0  0  0  0  0  0  0  0  0  0  0
   21.9647   -1.8680   24.3855 O   0  0  0  0  0  0  0  0  0  0  0  0
   22.9203   -1.6413   25.2427 C   0  0  0  0  0  0  0  0  0  0  0  0
   22.7980   -1.0735   26.3119 O   0  0  0  0  0  0  0  0  0  0  0  0
   24.2415   -2.0958   24.7295 C   0  0  0  0  0  0  0  0  0  0  0  0
   25.3785   -1.2252   24.7320 C   0  0  0  0  0  0  0  0  0  0  0  0
   26.6514   -1.7589   24.2556 C   0  0  0  0  0  0  0  0  0  0  0  0
   26.7276   -3.1004   23.8102 C   0  0  0  0  0  0  0  0  0  0  0  0
   25.5632   -3.9406   23.7933 C   0  0  0  0  0  0  0  0  0  0  0  0
   24.3432   -3.4057   24.2618 C   0  0  0  0  0  0  0  0  0  0  0  0
  1  2  1  0  0  0
  1  7  1  0  0  0
  1  9  1  0  0  0
  2  3  1  0  0  0
  2 10  1  0  0  0
  3  4  1  0  0  0
  3 14  1  0  0  0
  4  5  1  0  0  0
  5  6  1  0  0  0
  5  9  1  0  0  0
  6  7  1  0  0  0
 15 17  1  0  0  0
 15 14  1  0  0  0
 15 16  2  0  0  0
 17 18  1  0  0  0
 17 22  2  0  0  0
 18 19  2  0  0  0
 19 20  1  0  0  0
 20 21  2  0  0  0
 21 22  1  0  0  0
 10 11  1  0  0  0
 10 12  2  0  0  0
  8  9  1  0  0  0
 11 13  1  0  0  0
M  END
> <minimizedAffinity>
-6.79853

$$$$
