6CVV_ATP_A_301


 39 41  0  0  0  0  0  0  0  0999 V2000
   -4.8630  -36.0987   21.6910 C   0  0  0  0  0  0  0  0  0  0  0  0
   -5.3171  -37.3029   21.0557 O   0  0  0  0  0  0  0  0  0  0  0  0
   -6.1083  -35.5510   22.3718 C   0  0  0  0  0  0  0  0  0  0  0  0
   -6.0825  -34.1381   22.4421 O   0  0  0  0  0  0  0  0  0  0  0  0
   -7.2252  -35.9244   21.4229 C   0  0  0  0  0  0  0  0  0  0  0  0
   -7.4901  -34.8449   20.5187 O   0  0  0  0  0  0  0  0  0  0  0  0
   -6.6692  -37.0919   20.6270 C   0  0  0  0  0  0  0  0  0  0  0  0
   -5.9962  -33.7714   21.5483 H   0  0  0  0  0  0  0  0  0  0  0  0
   -6.6793  -34.6215   20.0355 H   0  0  0  0  0  0  0  0  0  0  0  0
   -7.5362  -38.2639   20.8677 N   0  0  0  0  0  0  0  0  0  0  0  0
   -8.8224  -38.1866   21.2757 C   0  0  0  0  0  0  0  0  0  0  0  0
   -9.3646  -39.4161   21.4457 N   0  0  0  0  0  0  0  0  0  0  0  0
   -8.4018  -40.3048   21.1532 C   0  0  0  0  0  0  0  0  0  0  0  0
   -8.3345  -41.7758   21.1421 C   0  0  0  0  0  0  0  0  0  0  0  0
   -9.4272  -42.5081   21.4763 N   0  0  0  0  0  0  0  0  0  0  0  0
   -7.1644  -42.3491   20.7870 N   0  0  0  0  0  0  0  0  0  0  0  0
   -6.0860  -41.6050   20.4564 C   0  0  0  0  0  0  0  0  0  0  0  0
   -6.0699  -40.2562   20.4408 N   0  0  0  0  0  0  0  0  0  0  0  0
   -7.1873  -39.5541   20.7831 C   0  0  0  0  0  0  0  0  0  0  0  0
  -10.2640  -42.0558   21.7302 H   0  0  0  0  0  0  0  0  0  0  0  0
   -9.3831  -43.4915   21.4649 H   0  0  0  0  0  0  0  0  0  0  0  0
   -3.5958  -36.3220   22.5298 C   0  0  0  0  0  0  0  0  0  0  0  0
   -2.3841  -35.7818   21.9919 O   0  0  0  0  0  0  0  0  0  0  0  0
   -1.8114  -34.3583   22.5160 P   0  0  0  0  0  0  0  0  0  0  0  0
   -3.0440  -33.5135   22.7182 O   0  0  0  0  0  0  0  0  0  0  0  0
   -0.7253  -34.4029   23.6086 O   0  0  0  0  0  0  0  0  0  0  0  0
   -0.4623  -33.4984   23.8403 H   0  0  0  0  0  0  0  0  0  0  0  0
   -1.1242  -33.8632   21.1516 O   0  0  0  0  0  0  0  0  0  0  0  0
    0.2660  -34.5065   20.7021 P   0  0  0  0  0  0  0  0  0  0  0  0
    1.3057  -33.4223   20.8139 O   0  0  0  0  0  0  0  0  0  0  0  0
    0.4252  -35.7393   21.5769 O   0  0  0  0  0  0  0  0  0  0  0  0
    1.2576  -36.1863   21.3572 H   0  0  0  0  0  0  0  0  0  0  0  0
    0.0421  -34.9720   19.1501 O   0  0  0  0  0  0  0  0  0  0  0  0
   -0.9640  -36.1537   18.6492 P   0  0  0  0  0  0  0  0  0  0  0  0
   -0.4464  -37.3753   19.3728 O   0  0  0  0  0  0  0  0  0  0  0  0
   -2.3937  -35.7839   18.9737 O   0  0  0  0  0  0  0  0  0  0  0  0
   -0.7722  -36.2138   17.1502 O   0  0  0  0  0  0  0  0  0  0  0  0
   -2.9865  -36.4904   18.6734 H   0  0  0  0  0  0  0  0  0  0  0  0
   -1.3453  -36.9024   16.7783 H   0  0  0  0  0  0  0  0  0  0  0  0
 34 35  2  0  0  0
 34 36  1  0  0  0
 34 37  1  0  0  0
 34 33  1  0  0  0
 29 30  2  0  0  0
 29 31  1  0  0  0
 29 33  1  0  0  0
 29 28  1  0  0  0
 24 25  2  0  0  0
 24 26  1  0  0  0
 24 28  1  0  0  0
 24 23  1  0  0  0
 23 22  1  0  0  0
 22  1  1  0  0  0
  1  2  1  0  0  0
  1  3  1  0  0  0
  2  7  1  0  0  0
  3  4  1  0  0  0
  3  5  1  0  0  0
  5  6  1  0  0  0
  5  7  1  0  0  0
  7 10  1  0  0  0
 10 11  1  0  0  0
 10 19  1  0  0  0
 11 12  2  0  0  0
 12 13  1  0  0  0
 13 14  1  0  0  0
 13 19  2  0  0  0
 14 15  1  0  0  0
 14 16  2  0  0  0
 16 17  1  0  0  0
 17 18  2  0  0  0
 18 19  1  0  0  0
 36 38  1  0  0  0
 37 39  1  0  0  0
 31 32  1  0  0  0
 26 27  1  0  0  0
  4  8  1  0  0  0
  6  9  1  0  0  0
 15 20  1  0  0  0
 15 21  1  0  0  0
M  END
> <minimizedAffinity>
-9.40817

$$$$
6CVV_ATP_A_301


 39 41  0  0  0  0  0  0  0  0999 V2000
   -7.7544  -35.7548   21.6763 C   0  0  0  0  0  0  0  0  0  0  0  0
   -7.4407  -36.8527   20.8067 O   0  0  0  0  0  0  0  0  0  0  0  0
   -7.8547  -36.3942   23.0530 C   0  0  0  0  0  0  0  0  0  0  0  0
   -8.7792  -35.7099   23.8770 O   0  0  0  0  0  0  0  0  0  0  0  0
   -8.4433  -37.7582   22.7691 C   0  0  0  0  0  0  0  0  0  0  0  0
   -9.8692  -37.7215   22.9042 O   0  0  0  0  0  0  0  0  0  0  0  0
   -8.1056  -38.0185   21.3118 C   0  0  0  0  0  0  0  0  0  0  0  0
   -9.6480  -35.6961   23.4459 H   0  0  0  0  0  0  0  0  0  0  0  0
  -10.2336  -37.0507   22.3058 H   0  0  0  0  0  0  0  0  0  0  0  0
   -7.2643  -39.2315   21.2467 N   0  0  0  0  0  0  0  0  0  0  0  0
   -6.4698  -39.6601   22.2527 C   0  0  0  0  0  0  0  0  0  0  0  0
   -5.7897  -40.7791   21.9066 N   0  0  0  0  0  0  0  0  0  0  0  0
   -6.1443  -41.0699   20.6448 C   0  0  0  0  0  0  0  0  0  0  0  0
   -5.7733  -42.1327   19.6955 C   0  0  0  0  0  0  0  0  0  0  0  0
   -4.8901  -43.0948   20.0645 N   0  0  0  0  0  0  0  0  0  0  0  0
   -6.3433  -42.1094   18.4713 N   0  0  0  0  0  0  0  0  0  0  0  0
   -7.2215  -41.1443   18.1204 C   0  0  0  0  0  0  0  0  0  0  0  0
   -7.6120  -40.1409   18.9329 N   0  0  0  0  0  0  0  0  0  0  0  0
   -7.1073  -40.0468   20.1959 C   0  0  0  0  0  0  0  0  0  0  0  0
   -4.4942  -43.0800   20.9658 H   0  0  0  0  0  0  0  0  0  0  0  0
   -4.6453  -43.8075   19.4310 H   0  0  0  0  0  0  0  0  0  0  0  0
   -6.8061  -34.5628   21.4787 C   0  0  0  0  0  0  0  0  0  0  0  0
   -5.5463  -34.6446   22.1537 O   0  0  0  0  0  0  0  0  0  0  0  0
   -4.3417  -35.5438   21.5459 P   0  0  0  0  0  0  0  0  0  0  0  0
   -4.1392  -36.6338   22.5681 O   0  0  0  0  0  0  0  0  0  0  0  0
   -4.4257  -35.9028   20.0493 O   0  0  0  0  0  0  0  0  0  0  0  0
   -3.6561  -36.4388   19.8017 H   0  0  0  0  0  0  0  0  0  0  0  0
   -3.1422  -34.4936   21.7387 O   0  0  0  0  0  0  0  0  0  0  0  0
   -1.9473  -34.4737   20.6803 P   0  0  0  0  0  0  0  0  0  0  0  0
   -2.4943  -33.8658   19.4153 O   0  0  0  0  0  0  0  0  0  0  0  0
   -0.8135  -33.7488   21.3869 O   0  0  0  0  0  0  0  0  0  0  0  0
   -0.0449  -33.6983   20.7973 H   0  0  0  0  0  0  0  0  0  0  0  0
   -1.5351  -36.0423   20.4682 O   0  0  0  0  0  0  0  0  0  0  0  0
   -1.0172  -36.7073   19.0720 P   0  0  0  0  0  0  0  0  0  0  0  0
    0.0545  -35.7468   18.6108 O   0  0  0  0  0  0  0  0  0  0  0  0
   -0.5373  -38.1191   19.3216 O   0  0  0  0  0  0  0  0  0  0  0  0
   -2.2368  -36.7253   18.1778 O   0  0  0  0  0  0  0  0  0  0  0  0
   -0.2309  -38.5086   18.4878 H   0  0  0  0  0  0  0  0  0  0  0  0
   -2.0027  -37.1119   17.3196 H   0  0  0  0  0  0  0  0  0  0  0  0
 34 35  2  0  0  0
 34 36  1  0  0  0
 34 37  1  0  0  0
 34 33  1  0  0  0
 29 30  2  0  0  0
 29 31  1  0  0  0
 29 33  1  0  0  0
 29 28  1  0  0  0
 24 25  2  0  0  0
 24 26  1  0  0  0
 24 28  1  0  0  0
 24 23  1  0  0  0
 23 22  1  0  0  0
 22  1  1  0  0  0
  1  2  1  0  0  0
  1  3  1  0  0  0
  2  7  1  0  0  0
  3  4  1  0  0  0
  3  5  1  0  0  0
  5  6  1  0  0  0
  5  7  1  0  0  0
  7 10  1  0  0  0
 10 11  1  0  0  0
 10 19  1  0  0  0
 11 12  2  0  0  0
 12 13  1  0  0  0
 13 14  1  0  0  0
 13 19  2  0  0  0
 14 15  1  0  0  0
 14 16  2  0  0  0
 16 17  1  0  0  0
 17 18  2  0  0  0
 18 19  1  0  0  0
 36 38  1  0  0  0
 37 39  1  0  0  0
 31 32  1  0  0  0
 26 27  1  0  0  0
  4  8  1  0  0  0
  6  9  1  0  0  0
 15 20  1  0  0  0
 15 21  1  0  0  0
M  END
> <minimizedAffinity>
-9.34817

$$$$
6CVV_ATP_A_301


 39 41  0  0  0  0  0  0  0  0999 V2000
   -4.7931  -34.9830   21.5928 C   0  0  0  0  0  0  0  0  0  0  0  0
   -4.7134  -36.3150   21.0643 O   0  0  0  0  0  0  0  0  0  0  0  0
   -6.0936  -34.9787   22.3821 C   0  0  0  0  0  0  0  0  0  0  0  0
   -6.6931  -33.6971   22.3876 O   0  0  0  0  0  0  0  0  0  0  0  0
   -6.9994  -35.8852   21.5789 C   0  0  0  0  0  0  0  0  0  0  0  0
   -7.7875  -35.1147   20.6633 O   0  0  0  0  0  0  0  0  0  0  0  0
   -6.0475  -36.7560   20.7782 C   0  0  0  0  0  0  0  0  0  0  0  0
   -6.8501  -33.4096   21.4746 H   0  0  0  0  0  0  0  0  0  0  0  0
   -7.2018  -34.6020   20.0846 H   0  0  0  0  0  0  0  0  0  0  0  0
   -6.2810  -38.1632   21.1635 N   0  0  0  0  0  0  0  0  0  0  0  0
   -7.1962  -38.9690   20.5804 C   0  0  0  0  0  0  0  0  0  0  0  0
   -7.2153  -40.1959   21.1538 N   0  0  0  0  0  0  0  0  0  0  0  0
   -6.3012  -40.1753   22.1368 C   0  0  0  0  0  0  0  0  0  0  0  0
   -5.8379  -41.1631   23.1259 C   0  0  0  0  0  0  0  0  0  0  0  0
   -6.3741  -42.4098   23.1428 N   0  0  0  0  0  0  0  0  0  0  0  0
   -4.8738  -40.7819   23.9913 N   0  0  0  0  0  0  0  0  0  0  0  0
   -4.3503  -39.5365   23.9602 C   0  0  0  0  0  0  0  0  0  0  0  0
   -4.7200  -38.5789   23.0850 N   0  0  0  0  0  0  0  0  0  0  0  0
   -5.6882  -38.8339   22.1597 C   0  0  0  0  0  0  0  0  0  0  0  0
   -7.0757  -42.6527   22.4963 H   0  0  0  0  0  0  0  0  0  0  0  0
   -6.0613  -43.0712   23.8015 H   0  0  0  0  0  0  0  0  0  0  0  0
   -3.4966  -34.5542   22.2960 C   0  0  0  0  0  0  0  0  0  0  0  0
   -3.0714  -35.3793   23.3858 O   0  0  0  0  0  0  0  0  0  0  0  0
   -1.5878  -36.0334   23.3952 P   0  0  0  0  0  0  0  0  0  0  0  0
   -0.6877  -34.9069   23.8367 O   0  0  0  0  0  0  0  0  0  0  0  0
   -1.4436  -37.4266   24.0386 O   0  0  0  0  0  0  0  0  0  0  0  0
   -0.5183  -37.7129   23.9857 H   0  0  0  0  0  0  0  0  0  0  0  0
   -1.3906  -36.1951   21.8097 O   0  0  0  0  0  0  0  0  0  0  0  0
   -0.8800  -37.5910   21.2271 P   0  0  0  0  0  0  0  0  0  0  0  0
    0.4231  -37.9015   21.9159 O   0  0  0  0  0  0  0  0  0  0  0  0
   -2.0421  -38.5482   21.4357 O   0  0  0  0  0  0  0  0  0  0  0  0
   -1.8015  -39.4265   21.1016 H   0  0  0  0  0  0  0  0  0  0  0  0
   -0.6715  -37.3372   19.6247 O   0  0  0  0  0  0  0  0  0  0  0  0
   -1.0259  -35.9592   18.8278 P   0  0  0  0  0  0  0  0  0  0  0  0
   -0.6526  -36.2825   17.3995 O   0  0  0  0  0  0  0  0  0  0  0  0
   -2.4805  -35.6036   19.0371 O   0  0  0  0  0  0  0  0  0  0  0  0
   -0.1400  -34.9092   19.4602 O   0  0  0  0  0  0  0  0  0  0  0  0
   -2.6846  -34.7836   18.5608 H   0  0  0  0  0  0  0  0  0  0  0  0
   -0.2974  -34.0530   19.0324 H   0  0  0  0  0  0  0  0  0  0  0  0
 34 35  2  0  0  0
 34 36  1  0  0  0
 34 37  1  0  0  0
 34 33  1  0  0  0
 29 30  2  0  0  0
 29 31  1  0  0  0
 29 33  1  0  0  0
 29 28  1  0  0  0
 24 25  2  0  0  0
 24 26  1  0  0  0
 24 28  1  0  0  0
 24 23  1  0  0  0
 23 22  1  0  0  0
 22  1  1  0  0  0
  1  2  1  0  0  0
  1  3  1  0  0  0
  2  7  1  0  0  0
  3  4  1  0  0  0
  3  5  1  0  0  0
  5  6  1  0  0  0
  5  7  1  0  0  0
  7 10  1  0  0  0
 10 11  1  0  0  0
 10 19  1  0  0  0
 11 12  2  0  0  0
 12 13  1  0  0  0
 13 14  1  0  0  0
 13 19  2  0  0  0
 14 15  1  0  0  0
 14 16  2  0  0  0
 16 17  1  0  0  0
 17 18  2  0  0  0
 18 19  1  0  0  0
 36 38  1  0  0  0
 37 39  1  0  0  0
 31 32  1  0  0  0
 26 27  1  0  0  0
  4  8  1  0  0  0
  6  9  1  0  0  0
 15 20  1  0  0  0
 15 21  1  0  0  0
M  END
> <minimizedAffinity>
-9.20960

$$$$
6CVV_ATP_A_301


 39 41  0  0  0  0  0  0  0  0999 V2000
   -4.1517  -37.3019   21.9562 C   0  0  0  0  0  0  0  0  0  0  0  0
   -5.0461  -37.7904   22.9668 O   0  0  0  0  0  0  0  0  0  0  0  0
   -4.9578  -36.2283   21.2406 C   0  0  0  0  0  0  0  0  0  0  0  0
   -4.5886  -36.1233   19.8788 O   0  0  0  0  0  0  0  0  0  0  0  0
   -6.3715  -36.7646   21.2736 C   0  0  0  0  0  0  0  0  0  0  0  0
   -6.6544  -37.4928   20.0725 O   0  0  0  0  0  0  0  0  0  0  0  0
   -6.3782  -37.7385   22.4385 C   0  0  0  0  0  0  0  0  0  0  0  0
   -4.7079  -36.9822   19.4443 H   0  0  0  0  0  0  0  0  0  0  0  0
   -6.0095  -38.2100   19.9698 H   0  0  0  0  0  0  0  0  0  0  0  0
   -7.3685  -37.2631   23.4267 N   0  0  0  0  0  0  0  0  0  0  0  0
   -8.1711  -36.1911   23.2430 C   0  0  0  0  0  0  0  0  0  0  0  0
   -8.9564  -35.9672   24.3235 N   0  0  0  0  0  0  0  0  0  0  0  0
   -8.6430  -36.9081   25.2284 C   0  0  0  0  0  0  0  0  0  0  0  0
   -9.1144  -37.2190   26.5884 C   0  0  0  0  0  0  0  0  0  0  0  0
  -10.0843  -36.4614   27.1606 N   0  0  0  0  0  0  0  0  0  0  0  0
   -8.5542  -38.2714   27.2229 N   0  0  0  0  0  0  0  0  0  0  0  0
   -7.5899  -39.0158   26.6382 C   0  0  0  0  0  0  0  0  0  0  0  0
   -7.1080  -38.7957   25.3977 N   0  0  0  0  0  0  0  0  0  0  0  0
   -7.5867  -37.7604   24.6509 C   0  0  0  0  0  0  0  0  0  0  0  0
  -10.4700  -35.7013   26.6679 H   0  0  0  0  0  0  0  0  0  0  0  0
  -10.4021  -36.6719   28.0683 H   0  0  0  0  0  0  0  0  0  0  0  0
   -2.7708  -36.9394   22.5228 C   0  0  0  0  0  0  0  0  0  0  0  0
   -2.0472  -35.9283   21.8133 O   0  0  0  0  0  0  0  0  0  0  0  0
   -1.6610  -34.5294   22.5363 P   0  0  0  0  0  0  0  0  0  0  0  0
   -2.9859  -33.8395   22.7427 O   0  0  0  0  0  0  0  0  0  0  0  0
   -0.6449  -34.5992   23.6931 O   0  0  0  0  0  0  0  0  0  0  0  0
   -0.4935  -33.7079   24.0447 H   0  0  0  0  0  0  0  0  0  0  0  0
   -0.9479  -33.8086   21.2909 O   0  0  0  0  0  0  0  0  0  0  0  0
    0.4587  -34.3589   20.7740 P   0  0  0  0  0  0  0  0  0  0  0  0
    1.4444  -33.2271   20.9018 O   0  0  0  0  0  0  0  0  0  0  0  0
    0.7082  -35.6167   21.5901 O   0  0  0  0  0  0  0  0  0  0  0  0
    1.5551  -36.0099   21.3273 H   0  0  0  0  0  0  0  0  0  0  0  0
    0.2105  -34.7709   19.2106 O   0  0  0  0  0  0  0  0  0  0  0  0
   -0.8057  -35.9331   18.6851 P   0  0  0  0  0  0  0  0  0  0  0  0
   -0.4305  -36.0850   17.2291 O   0  0  0  0  0  0  0  0  0  0  0  0
   -0.6320  -37.1833   19.5175 O   0  0  0  0  0  0  0  0  0  0  0  0
   -2.1892  -35.3594   18.8950 O   0  0  0  0  0  0  0  0  0  0  0  0
   -1.2389  -37.8701   19.1999 H   0  0  0  0  0  0  0  0  0  0  0  0
   -2.8538  -36.0022   18.6017 H   0  0  0  0  0  0  0  0  0  0  0  0
 34 35  2  0  0  0
 34 36  1  0  0  0
 34 37  1  0  0  0
 34 33  1  0  0  0
 29 30  2  0  0  0
 29 31  1  0  0  0
 29 33  1  0  0  0
 29 28  1  0  0  0
 24 25  2  0  0  0
 24 26  1  0  0  0
 24 28  1  0  0  0
 24 23  1  0  0  0
 23 22  1  0  0  0
 22  1  1  0  0  0
  1  2  1  0  0  0
  1  3  1  0  0  0
  2  7  1  0  0  0
  3  4  1  0  0  0
  3  5  1  0  0  0
  5  6  1  0  0  0
  5  7  1  0  0  0
  7 10  1  0  0  0
 10 11  1  0  0  0
 10 19  1  0  0  0
 11 12  2  0  0  0
 12 13  1  0  0  0
 13 14  1  0  0  0
 13 19  2  0  0  0
 14 15  1  0  0  0
 14 16  2  0  0  0
 16 17  1  0  0  0
 17 18  2  0  0  0
 18 19  1  0  0  0
 36 38  1  0  0  0
 37 39  1  0  0  0
 31 32  1  0  0  0
 26 27  1  0  0  0
  4  8  1  0  0  0
  6  9  1  0  0  0
 15 20  1  0  0  0
 15 21  1  0  0  0
M  END
> <minimizedAffinity>
-9.15477

$$$$
6CVV_ATP_A_301


 39 41  0  0  0  0  0  0  0  0999 V2000
   -5.4099  -37.0369   21.1742 C   0  0  0  0  0  0  0  0  0  0  0  0
   -6.5702  -37.7462   21.6331 O   0  0  0  0  0  0  0  0  0  0  0  0
   -5.5925  -35.6341   21.7335 C   0  0  0  0  0  0  0  0  0  0  0  0
   -5.0062  -34.6594   20.8920 O   0  0  0  0  0  0  0  0  0  0  0  0
   -7.0889  -35.4214   21.6776 C   0  0  0  0  0  0  0  0  0  0  0  0
   -7.4517  -34.7643   20.4572 O   0  0  0  0  0  0  0  0  0  0  0  0
   -7.6686  -36.8247   21.6581 C   0  0  0  0  0  0  0  0  0  0  0  0
   -5.3931  -34.7233   20.0048 H   0  0  0  0  0  0  0  0  0  0  0  0
   -7.1437  -35.2904   19.7028 H   0  0  0  0  0  0  0  0  0  0  0  0
   -8.5228  -36.9835   22.8532 N   0  0  0  0  0  0  0  0  0  0  0  0
   -8.4906  -36.1607   23.9251 C   0  0  0  0  0  0  0  0  0  0  0  0
   -9.3574  -36.5616   24.8856 N   0  0  0  0  0  0  0  0  0  0  0  0
   -9.9513  -37.6749   24.4273 C   0  0  0  0  0  0  0  0  0  0  0  0
  -10.9677  -38.5916   24.9705 C   0  0  0  0  0  0  0  0  0  0  0  0
  -11.5045  -38.3612   26.1955 N   0  0  0  0  0  0  0  0  0  0  0  0
  -11.3364  -39.6442   24.2089 N   0  0  0  0  0  0  0  0  0  0  0  0
  -10.7922  -39.8585   22.9908 C   0  0  0  0  0  0  0  0  0  0  0  0
   -9.8597  -39.0646   22.4253 N   0  0  0  0  0  0  0  0  0  0  0  0
   -9.3978  -37.9689   23.0921 C   0  0  0  0  0  0  0  0  0  0  0  0
  -11.2115  -37.5833   26.7230 H   0  0  0  0  0  0  0  0  0  0  0  0
  -12.1870  -38.9720   26.5567 H   0  0  0  0  0  0  0  0  0  0  0  0
   -4.1063  -37.7919   21.4742 C   0  0  0  0  0  0  0  0  0  0  0  0
   -3.5521  -37.5930   22.7790 O   0  0  0  0  0  0  0  0  0  0  0  0
   -2.2651  -36.6298   22.9907 P   0  0  0  0  0  0  0  0  0  0  0  0
   -2.7853  -35.4950   23.8366 O   0  0  0  0  0  0  0  0  0  0  0  0
   -0.9348  -37.3143   23.3609 O   0  0  0  0  0  0  0  0  0  0  0  0
   -0.2423  -36.6424   23.4609 H   0  0  0  0  0  0  0  0  0  0  0  0
   -2.1371  -36.0732   21.4897 O   0  0  0  0  0  0  0  0  0  0  0  0
   -1.2158  -34.8004   21.2074 P   0  0  0  0  0  0  0  0  0  0  0  0
   -2.1386  -33.6605   20.8640 O   0  0  0  0  0  0  0  0  0  0  0  0
   -0.3477  -34.6655   22.4478 O   0  0  0  0  0  0  0  0  0  0  0  0
    0.2446  -33.9041   22.3467 H   0  0  0  0  0  0  0  0  0  0  0  0
   -0.2775  -35.2228   19.9359 O   0  0  0  0  0  0  0  0  0  0  0  0
   -0.7701  -36.0710   18.6330 P   0  0  0  0  0  0  0  0  0  0  0  0
   -0.0952  -35.3583   17.4839 O   0  0  0  0  0  0  0  0  0  0  0  0
   -0.3855  -37.5247   18.7901 O   0  0  0  0  0  0  0  0  0  0  0  0
   -2.2760  -35.9312   18.6288 O   0  0  0  0  0  0  0  0  0  0  0  0
   -0.6812  -38.0232   18.0123 H   0  0  0  0  0  0  0  0  0  0  0  0
   -2.6435  -36.4155   17.8729 H   0  0  0  0  0  0  0  0  0  0  0  0
 34 35  2  0  0  0
 34 36  1  0  0  0
 34 37  1  0  0  0
 34 33  1  0  0  0
 29 30  2  0  0  0
 29 31  1  0  0  0
 29 33  1  0  0  0
 29 28  1  0  0  0
 24 25  2  0  0  0
 24 26  1  0  0  0
 24 28  1  0  0  0
 24 23  1  0  0  0
 23 22  1  0  0  0
 22  1  1  0  0  0
  1  2  1  0  0  0
  1  3  1  0  0  0
  2  7  1  0  0  0
  3  4  1  0  0  0
  3  5  1  0  0  0
  5  6  1  0  0  0
  5  7  1  0  0  0
  7 10  1  0  0  0
 10 11  1  0  0  0
 10 19  1  0  0  0
 11 12  2  0  0  0
 12 13  1  0  0  0
 13 14  1  0  0  0
 13 19  2  0  0  0
 14 15  1  0  0  0
 14 16  2  0  0  0
 16 17  1  0  0  0
 17 18  2  0  0  0
 18 19  1  0  0  0
 36 38  1  0  0  0
 37 39  1  0  0  0
 31 32  1  0  0  0
 26 27  1  0  0  0
  4  8  1  0  0  0
  6  9  1  0  0  0
 15 20  1  0  0  0
 15 21  1  0  0  0
M  END
> <minimizedAffinity>
-8.98178

$$$$
6CVV_ATP_A_301


 39 41  0  0  0  0  0  0  0  0999 V2000
   -4.7562  -37.4730   20.7744 C   0  0  0  0  0  0  0  0  0  0  0  0
   -4.3679  -36.1612   21.2081 O   0  0  0  0  0  0  0  0  0  0  0  0
   -3.4348  -38.2006   20.5779 C   0  0  0  0  0  0  0  0  0  0  0  0
   -3.5261  -39.1760   19.5570 O   0  0  0  0  0  0  0  0  0  0  0  0
   -2.5059  -37.1195   20.0723 C   0  0  0  0  0  0  0  0  0  0  0  0
   -2.4843  -37.1136   18.6396 O   0  0  0  0  0  0  0  0  0  0  0  0
   -3.1399  -35.8246   20.5483 C   0  0  0  0  0  0  0  0  0  0  0  0
   -3.8062  -38.7533   18.7301 H   0  0  0  0  0  0  0  0  0  0  0  0
   -3.3853  -36.9875   18.3032 H   0  0  0  0  0  0  0  0  0  0  0  0
   -2.1778  -35.1449   21.4402 N   0  0  0  0  0  0  0  0  0  0  0  0
   -2.4224  -34.8465   22.7356 C   0  0  0  0  0  0  0  0  0  0  0  0
   -1.3774  -34.1969   23.3019 N   0  0  0  0  0  0  0  0  0  0  0  0
   -0.4445  -34.0625   22.3459 C   0  0  0  0  0  0  0  0  0  0  0  0
    0.8976  -33.4579   22.3020 C   0  0  0  0  0  0  0  0  0  0  0  0
    1.4202  -32.8833   23.4150 N   0  0  0  0  0  0  0  0  0  0  0  0
    1.5706  -33.5052   21.1321 N   0  0  0  0  0  0  0  0  0  0  0  0
    1.0356  -34.0818   20.0334 C   0  0  0  0  0  0  0  0  0  0  0  0
   -0.1839  -34.6572   19.9952 N   0  0  0  0  0  0  0  0  0  0  0  0
   -0.9685  -34.6735   21.1100 C   0  0  0  0  0  0  0  0  0  0  0  0
    0.9005  -32.8672   24.2510 H   0  0  0  0  0  0  0  0  0  0  0  0
    2.3191  -32.4828   23.3864 H   0  0  0  0  0  0  0  0  0  0  0  0
   -5.8202  -38.0999   21.6878 C   0  0  0  0  0  0  0  0  0  0  0  0
   -7.1480  -38.1584   21.1560 O   0  0  0  0  0  0  0  0  0  0  0  0
   -7.6152  -39.4119   20.2398 P   0  0  0  0  0  0  0  0  0  0  0  0
   -8.8297  -39.9576   20.9478 O   0  0  0  0  0  0  0  0  0  0  0  0
   -7.6536  -39.1860   18.7157 O   0  0  0  0  0  0  0  0  0  0  0  0
   -7.9456  -39.9996   18.2755 H   0  0  0  0  0  0  0  0  0  0  0  0
   -6.3982  -40.4084   20.5642 O   0  0  0  0  0  0  0  0  0  0  0  0
   -6.0716  -41.5950   19.5476 P   0  0  0  0  0  0  0  0  0  0  0  0
   -7.3823  -42.2589   19.2152 O   0  0  0  0  0  0  0  0  0  0  0  0
   -5.2992  -40.9367   18.4161 O   0  0  0  0  0  0  0  0  0  0  0  0
   -5.0645  -41.6049   17.7533 H   0  0  0  0  0  0  0  0  0  0  0  0
   -5.0752  -42.6007   20.3670 O   0  0  0  0  0  0  0  0  0  0  0  0
   -5.3492  -44.1826   20.6536 P   0  0  0  0  0  0  0  0  0  0  0  0
   -4.0536  -44.6482   21.2770 O   0  0  0  0  0  0  0  0  0  0  0  0
   -6.5684  -44.3423   21.5333 O   0  0  0  0  0  0  0  0  0  0  0  0
   -5.6123  -44.7816   19.2901 O   0  0  0  0  0  0  0  0  0  0  0  0
   -6.7257  -45.2848   21.6998 H   0  0  0  0  0  0  0  0  0  0  0  0
   -5.7855  -45.7316   19.3823 H   0  0  0  0  0  0  0  0  0  0  0  0
 34 35  2  0  0  0
 34 36  1  0  0  0
 34 37  1  0  0  0
 34 33  1  0  0  0
 29 30  2  0  0  0
 29 31  1  0  0  0
 29 33  1  0  0  0
 29 28  1  0  0  0
 24 25  2  0  0  0
 24 26  1  0  0  0
 24 28  1  0  0  0
 24 23  1  0  0  0
 23 22  1  0  0  0
 22  1  1  0  0  0
  1  2  1  0  0  0
  1  3  1  0  0  0
  2  7  1  0  0  0
  3  4  1  0  0  0
  3  5  1  0  0  0
  5  6  1  0  0  0
  5  7  1  0  0  0
  7 10  1  0  0  0
 10 11  1  0  0  0
 10 19  1  0  0  0
 11 12  2  0  0  0
 12 13  1  0  0  0
 13 14  1  0  0  0
 13 19  2  0  0  0
 14 15  1  0  0  0
 14 16  2  0  0  0
 16 17  1  0  0  0
 17 18  2  0  0  0
 18 19  1  0  0  0
 36 38  1  0  0  0
 37 39  1  0  0  0
 31 32  1  0  0  0
 26 27  1  0  0  0
  4  8  1  0  0  0
  6  9  1  0  0  0
 15 20  1  0  0  0
 15 21  1  0  0  0
M  END
> <minimizedAffinity>
-8.97048

$$$$
6CVV_ATP_A_301


 39 41  0  0  0  0  0  0  0  0999 V2000
   -5.5218  -37.3662   20.9442 C   0  0  0  0  0  0  0  0  0  0  0  0
   -6.7582  -37.9263   21.4105 O   0  0  0  0  0  0  0  0  0  0  0  0
   -5.4560  -36.0062   21.6227 C   0  0  0  0  0  0  0  0  0  0  0  0
   -4.7607  -35.0634   20.8293 O   0  0  0  0  0  0  0  0  0  0  0  0
   -6.9010  -35.5623   21.6692 C   0  0  0  0  0  0  0  0  0  0  0  0
   -7.2088  -34.7531   20.5276 O   0  0  0  0  0  0  0  0  0  0  0  0
   -7.6952  -36.8527   21.5713 C   0  0  0  0  0  0  0  0  0  0  0  0
   -5.1914  -34.9893   19.9633 H   0  0  0  0  0  0  0  0  0  0  0  0
   -7.0211  -35.2523   19.7174 H   0  0  0  0  0  0  0  0  0  0  0  0
   -8.5105  -36.9823   22.7968 N   0  0  0  0  0  0  0  0  0  0  0  0
   -8.3926  -36.1779   23.8765 C   0  0  0  0  0  0  0  0  0  0  0  0
   -9.2426  -36.5451   24.8650 N   0  0  0  0  0  0  0  0  0  0  0  0
   -9.9133  -37.6181   24.4167 C   0  0  0  0  0  0  0  0  0  0  0  0
  -10.9566  -38.4864   24.9878 C   0  0  0  0  0  0  0  0  0  0  0  0
  -11.4329  -38.2449   26.2355 N   0  0  0  0  0  0  0  0  0  0  0  0
  -11.4108  -39.5067   24.2284 N   0  0  0  0  0  0  0  0  0  0  0  0
  -10.9260  -39.7326   22.9875 C   0  0  0  0  0  0  0  0  0  0  0  0
   -9.9740  -38.9821   22.3958 N   0  0  0  0  0  0  0  0  0  0  0  0
   -9.4280  -37.9225   23.0574 C   0  0  0  0  0  0  0  0  0  0  0  0
  -11.0780  -37.4916   26.7606 H   0  0  0  0  0  0  0  0  0  0  0  0
  -12.1333  -38.8232   26.6155 H   0  0  0  0  0  0  0  0  0  0  0  0
   -4.3417  -38.3356   21.1084 C   0  0  0  0  0  0  0  0  0  0  0  0
   -3.3771  -38.3348   20.0506 O   0  0  0  0  0  0  0  0  0  0  0  0
   -1.8979  -37.7132   20.2837 P   0  0  0  0  0  0  0  0  0  0  0  0
   -1.7003  -37.7739   21.7775 O   0  0  0  0  0  0  0  0  0  0  0  0
   -0.7795  -38.2016   19.3423 O   0  0  0  0  0  0  0  0  0  0  0  0
    0.0539  -37.7638   19.5758 H   0  0  0  0  0  0  0  0  0  0  0  0
   -2.2237  -36.1839   19.9173 O   0  0  0  0  0  0  0  0  0  0  0  0
   -1.0576  -35.0971   20.0047 P   0  0  0  0  0  0  0  0  0  0  0  0
    0.1135  -35.7658   20.6757 O   0  0  0  0  0  0  0  0  0  0  0  0
   -0.8760  -34.6055   18.5780 O   0  0  0  0  0  0  0  0  0  0  0  0
   -0.1753  -33.9352   18.5537 H   0  0  0  0  0  0  0  0  0  0  0  0
   -1.6673  -33.8855   20.9190 O   0  0  0  0  0  0  0  0  0  0  0  0
   -1.8652  -33.9247   22.5373 P   0  0  0  0  0  0  0  0  0  0  0  0
   -2.7820  -32.7524   22.7999 O   0  0  0  0  0  0  0  0  0  0  0  0
   -2.4191  -35.2679   22.9554 O   0  0  0  0  0  0  0  0  0  0  0  0
   -0.4737  -33.7404   23.1005 O   0  0  0  0  0  0  0  0  0  0  0  0
   -2.5344  -35.2846   23.9184 H   0  0  0  0  0  0  0  0  0  0  0  0
   -0.5128  -33.7531   24.0696 H   0  0  0  0  0  0  0  0  0  0  0  0
 34 35  2  0  0  0
 34 36  1  0  0  0
 34 37  1  0  0  0
 34 33  1  0  0  0
 29 30  2  0  0  0
 29 31  1  0  0  0
 29 33  1  0  0  0
 29 28  1  0  0  0
 24 25  2  0  0  0
 24 26  1  0  0  0
 24 28  1  0  0  0
 24 23  1  0  0  0
 23 22  1  0  0  0
 22  1  1  0  0  0
  1  2  1  0  0  0
  1  3  1  0  0  0
  2  7  1  0  0  0
  3  4  1  0  0  0
  3  5  1  0  0  0
  5  6  1  0  0  0
  5  7  1  0  0  0
  7 10  1  0  0  0
 10 11  1  0  0  0
 10 19  1  0  0  0
 11 12  2  0  0  0
 12 13  1  0  0  0
 13 14  1  0  0  0
 13 19  2  0  0  0
 14 15  1  0  0  0
 14 16  2  0  0  0
 16 17  1  0  0  0
 17 18  2  0  0  0
 18 19  1  0  0  0
 36 38  1  0  0  0
 37 39  1  0  0  0
 31 32  1  0  0  0
 26 27  1  0  0  0
  4  8  1  0  0  0
  6  9  1  0  0  0
 15 20  1  0  0  0
 15 21  1  0  0  0
M  END
> <minimizedAffinity>
-8.96054

$$$$
6CVV_ATP_A_301


 39 41  0  0  0  0  0  0  0  0999 V2000
   -5.1212  -36.8835   20.7939 C   0  0  0  0  0  0  0  0  0  0  0  0
   -6.1655  -37.8432   20.5738 O   0  0  0  0  0  0  0  0  0  0  0  0
   -5.6832  -35.9709   21.8735 C   0  0  0  0  0  0  0  0  0  0  0  0
   -5.1856  -34.6523   21.7492 O   0  0  0  0  0  0  0  0  0  0  0  0
   -7.1612  -35.9154   21.5576 C   0  0  0  0  0  0  0  0  0  0  0  0
   -7.4501  -34.7811   20.7314 O   0  0  0  0  0  0  0  0  0  0  0  0
   -7.4220  -37.1755   20.7515 C   0  0  0  0  0  0  0  0  0  0  0  0
   -5.4005  -34.3073   20.8685 H   0  0  0  0  0  0  0  0  0  0  0  0
   -6.9197  -34.8281   19.9207 H   0  0  0  0  0  0  0  0  0  0  0  0
   -8.4070  -37.9942   21.4882 N   0  0  0  0  0  0  0  0  0  0  0  0
   -9.2302  -37.5133   22.4463 C   0  0  0  0  0  0  0  0  0  0  0  0
  -10.0046  -38.4917   22.9732 N   0  0  0  0  0  0  0  0  0  0  0  0
   -9.6630  -39.6304   22.3495 C   0  0  0  0  0  0  0  0  0  0  0  0
  -10.1108  -41.0294   22.4534 C   0  0  0  0  0  0  0  0  0  0  0  0
  -11.0857  -41.3666   23.3353 N   0  0  0  0  0  0  0  0  0  0  0  0
   -9.5242  -41.9390   21.6456 N   0  0  0  0  0  0  0  0  0  0  0  0
   -8.5552  -41.5860   20.7725 C   0  0  0  0  0  0  0  0  0  0  0  0
   -8.0938  -40.3279   20.6178 N   0  0  0  0  0  0  0  0  0  0  0  0
   -8.6001  -39.3148   21.3767 C   0  0  0  0  0  0  0  0  0  0  0  0
  -11.4909  -40.6765   23.9087 H   0  0  0  0  0  0  0  0  0  0  0  0
  -11.3876  -42.3013   23.4016 H   0  0  0  0  0  0  0  0  0  0  0  0
   -3.7549  -37.5476   21.0205 C   0  0  0  0  0  0  0  0  0  0  0  0
   -2.6265  -36.8688   20.4589 O   0  0  0  0  0  0  0  0  0  0  0  0
   -1.1361  -37.4922   20.5971 P   0  0  0  0  0  0  0  0  0  0  0  0
   -1.1670  -38.2427   21.9047 O   0  0  0  0  0  0  0  0  0  0  0  0
   -0.5409  -38.1619   19.3430 O   0  0  0  0  0  0  0  0  0  0  0  0
    0.3474  -38.4950   19.5452 H   0  0  0  0  0  0  0  0  0  0  0  0
   -0.3324  -36.1270   20.8607 O   0  0  0  0  0  0  0  0  0  0  0  0
   -0.6332  -34.8568   19.9417 P   0  0  0  0  0  0  0  0  0  0  0  0
    0.6855  -34.1697   19.7009 O   0  0  0  0  0  0  0  0  0  0  0  0
   -1.3764  -35.4141   18.7387 O   0  0  0  0  0  0  0  0  0  0  0  0
   -1.5943  -34.6910   18.1299 H   0  0  0  0  0  0  0  0  0  0  0  0
   -1.6503  -33.9231   20.8188 O   0  0  0  0  0  0  0  0  0  0  0  0
   -1.7890  -33.9377   22.4437 P   0  0  0  0  0  0  0  0  0  0  0  0
   -2.7586  -32.8109   22.7159 O   0  0  0  0  0  0  0  0  0  0  0  0
   -2.2542  -35.2993   22.9080 O   0  0  0  0  0  0  0  0  0  0  0  0
   -0.3908  -33.6669   22.9526 O   0  0  0  0  0  0  0  0  0  0  0  0
   -2.3346  -35.3012   23.8747 H   0  0  0  0  0  0  0  0  0  0  0  0
   -0.3953  -33.6606   23.9225 H   0  0  0  0  0  0  0  0  0  0  0  0
 34 35  2  0  0  0
 34 36  1  0  0  0
 34 37  1  0  0  0
 34 33  1  0  0  0
 29 30  2  0  0  0
 29 31  1  0  0  0
 29 33  1  0  0  0
 29 28  1  0  0  0
 24 25  2  0  0  0
 24 26  1  0  0  0
 24 28  1  0  0  0
 24 23  1  0  0  0
 23 22  1  0  0  0
 22  1  1  0  0  0
  1  2  1  0  0  0
  1  3  1  0  0  0
  2  7  1  0  0  0
  3  4  1  0  0  0
  3  5  1  0  0  0
  5  6  1  0  0  0
  5  7  1  0  0  0
  7 10  1  0  0  0
 10 11  1  0  0  0
 10 19  1  0  0  0
 11 12  2  0  0  0
 12 13  1  0  0  0
 13 14  1  0  0  0
 13 19  2  0  0  0
 14 15  1  0  0  0
 14 16  2  0  0  0
 16 17  1  0  0  0
 17 18  2  0  0  0
 18 19  1  0  0  0
 36 38  1  0  0  0
 37 39  1  0  0  0
 31 32  1  0  0  0
 26 27  1  0  0  0
  4  8  1  0  0  0
  6  9  1  0  0  0
 15 20  1  0  0  0
 15 21  1  0  0  0
M  END
> <minimizedAffinity>
-8.86904

$$$$
6CVV_ATP_A_301


 39 41  0  0  0  0  0  0  0  0999 V2000
   -4.6627  -36.8641   21.7762 C   0  0  0  0  0  0  0  0  0  0  0  0
   -5.4832  -37.3227   22.8608 O   0  0  0  0  0  0  0  0  0  0  0  0
   -4.7070  -38.0076   20.7738 C   0  0  0  0  0  0  0  0  0  0  0  0
   -3.5091  -38.0884   20.0252 O   0  0  0  0  0  0  0  0  0  0  0  0
   -4.7657  -39.2420   21.6456 C   0  0  0  0  0  0  0  0  0  0  0  0
   -3.4468  -39.7557   21.8683 O   0  0  0  0  0  0  0  0  0  0  0  0
   -5.3164  -38.7428   22.9696 C   0  0  0  0  0  0  0  0  0  0  0  0
   -2.7574  -38.1960   20.6287 H   0  0  0  0  0  0  0  0  0  0  0  0
   -2.8955  -39.0671   22.2718 H   0  0  0  0  0  0  0  0  0  0  0  0
   -6.5865  -39.4504   23.2328 N   0  0  0  0  0  0  0  0  0  0  0  0
   -6.7229  -40.4633   24.1173 C   0  0  0  0  0  0  0  0  0  0  0  0
   -7.9889  -40.9445   24.1306 N   0  0  0  0  0  0  0  0  0  0  0  0
   -8.6798  -40.2342   23.2249 C   0  0  0  0  0  0  0  0  0  0  0  0
  -10.0751  -40.2550   22.7545 C   0  0  0  0  0  0  0  0  0  0  0  0
  -10.9571  -41.1402   23.2841 N   0  0  0  0  0  0  0  0  0  0  0  0
  -10.4296  -39.3695   21.7983 N   0  0  0  0  0  0  0  0  0  0  0  0
   -9.5388  -38.4943   21.2822 C   0  0  0  0  0  0  0  0  0  0  0  0
   -8.2469  -38.4128   21.6619 N   0  0  0  0  0  0  0  0  0  0  0  0
   -7.7598  -39.2542   22.6176 C   0  0  0  0  0  0  0  0  0  0  0  0
  -10.6631  -41.7715   23.9800 H   0  0  0  0  0  0  0  0  0  0  0  0
  -11.8908  -41.1511   22.9723 H   0  0  0  0  0  0  0  0  0  0  0  0
   -5.0462  -35.4521   21.3090 C   0  0  0  0  0  0  0  0  0  0  0  0
   -4.4036  -34.9896   20.1164 O   0  0  0  0  0  0  0  0  0  0  0  0
   -2.8203  -34.6400   20.1150 P   0  0  0  0  0  0  0  0  0  0  0  0
   -2.7229  -33.3603   19.3233 O   0  0  0  0  0  0  0  0  0  0  0  0
   -2.0763  -34.7684   21.4587 O   0  0  0  0  0  0  0  0  0  0  0  0
   -1.1428  -34.5355   21.3349 H   0  0  0  0  0  0  0  0  0  0  0  0
   -2.3177  -35.8238   19.1532 O   0  0  0  0  0  0  0  0  0  0  0  0
   -0.7517  -36.0191   18.9122 P   0  0  0  0  0  0  0  0  0  0  0  0
   -0.5534  -36.1670   17.4263 O   0  0  0  0  0  0  0  0  0  0  0  0
   -0.1006  -34.8323   19.6033 O   0  0  0  0  0  0  0  0  0  0  0  0
    0.8622  -34.8847   19.4974 H   0  0  0  0  0  0  0  0  0  0  0  0
   -0.3615  -37.3905   19.7137 O   0  0  0  0  0  0  0  0  0  0  0  0
   -0.0876  -37.5076   21.3172 P   0  0  0  0  0  0  0  0  0  0  0  0
    0.6278  -36.2159   21.6388 O   0  0  0  0  0  0  0  0  0  0  0  0
   -1.3955  -37.7063   22.0492 O   0  0  0  0  0  0  0  0  0  0  0  0
    0.7835  -38.7343   21.4710 O   0  0  0  0  0  0  0  0  0  0  0  0
   -1.2257  -37.7751   23.0017 H   0  0  0  0  0  0  0  0  0  0  0  0
    0.9896  -38.8689   22.4093 H   0  0  0  0  0  0  0  0  0  0  0  0
 34 35  2  0  0  0
 34 36  1  0  0  0
 34 37  1  0  0  0
 34 33  1  0  0  0
 29 30  2  0  0  0
 29 31  1  0  0  0
 29 33  1  0  0  0
 29 28  1  0  0  0
 24 25  2  0  0  0
 24 26  1  0  0  0
 24 28  1  0  0  0
 24 23  1  0  0  0
 23 22  1  0  0  0
 22  1  1  0  0  0
  1  2  1  0  0  0
  1  3  1  0  0  0
  2  7  1  0  0  0
  3  4  1  0  0  0
  3  5  1  0  0  0
  5  6  1  0  0  0
  5  7  1  0  0  0
  7 10  1  0  0  0
 10 11  1  0  0  0
 10 19  1  0  0  0
 11 12  2  0  0  0
 12 13  1  0  0  0
 13 14  1  0  0  0
 13 19  2  0  0  0
 14 15  1  0  0  0
 14 16  2  0  0  0
 16 17  1  0  0  0
 17 18  2  0  0  0
 18 19  1  0  0  0
 36 38  1  0  0  0
 37 39  1  0  0  0
 31 32  1  0  0  0
 26 27  1  0  0  0
  4  8  1  0  0  0
  6  9  1  0  0  0
 15 20  1  0  0  0
 15 21  1  0  0  0
M  END
> <minimizedAffinity>
-8.79428

$$$$
6CVV_ATP_A_301


 39 41  0  0  0  0  0  0  0  0999 V2000
   -7.7334  -36.4788   21.2184 C   0  0  0  0  0  0  0  0  0  0  0  0
   -6.8998  -37.3690   20.4617 O   0  0  0  0  0  0  0  0  0  0  0  0
   -8.4143  -37.3864   22.2318 C   0  0  0  0  0  0  0  0  0  0  0  0
   -9.7009  -36.9082   22.5747 O   0  0  0  0  0  0  0  0  0  0  0  0
   -8.6128  -38.6797   21.4733 C   0  0  0  0  0  0  0  0  0  0  0  0
   -9.9140  -38.7092   20.8743 O   0  0  0  0  0  0  0  0  0  0  0  0
   -7.5753  -38.6303   20.3658 C   0  0  0  0  0  0  0  0  0  0  0  0
  -10.2413  -36.8305   21.7729 H   0  0  0  0  0  0  0  0  0  0  0  0
  -10.0191  -37.9410   20.2914 H   0  0  0  0  0  0  0  0  0  0  0  0
   -6.6660  -39.7820   20.5390 N   0  0  0  0  0  0  0  0  0  0  0  0
   -5.3434  -39.6741   20.7960 C   0  0  0  0  0  0  0  0  0  0  0  0
   -4.7516  -40.8898   20.8749 N   0  0  0  0  0  0  0  0  0  0  0  0
   -5.7122  -41.8005   20.6506 C   0  0  0  0  0  0  0  0  0  0  0  0
   -5.7356  -43.2717   20.5920 C   0  0  0  0  0  0  0  0  0  0  0  0
   -4.5956  -43.9778   20.8015 N   0  0  0  0  0  0  0  0  0  0  0  0
   -6.9170  -43.8719   20.3316 N   0  0  0  0  0  0  0  0  0  0  0  0
   -8.0430  -43.1537   20.1260 C   0  0  0  0  0  0  0  0  0  0  0  0
   -8.1022  -41.8066   20.1653 N   0  0  0  0  0  0  0  0  0  0  0  0
   -6.9768  -41.0788   20.4150 C   0  0  0  0  0  0  0  0  0  0  0  0
   -3.7519  -43.5062   20.9888 H   0  0  0  0  0  0  0  0  0  0  0  0
   -4.6123  -44.9615   20.7662 H   0  0  0  0  0  0  0  0  0  0  0  0
   -6.9672  -35.2466   21.7223 C   0  0  0  0  0  0  0  0  0  0  0  0
   -5.7647  -35.5109   22.4527 O   0  0  0  0  0  0  0  0  0  0  0  0
   -4.3163  -35.1717   21.8075 P   0  0  0  0  0  0  0  0  0  0  0  0
   -4.6153  -34.8699   20.3606 O   0  0  0  0  0  0  0  0  0  0  0  0
   -3.3969  -34.2322   22.6122 O   0  0  0  0  0  0  0  0  0  0  0  0
   -2.5648  -34.1035   22.1305 H   0  0  0  0  0  0  0  0  0  0  0  0
   -3.6845  -36.6474   21.8561 O   0  0  0  0  0  0  0  0  0  0  0  0
   -2.4615  -37.0026   20.8934 P   0  0  0  0  0  0  0  0  0  0  0  0
   -1.8473  -38.2739   21.4182 O   0  0  0  0  0  0  0  0  0  0  0  0
   -3.0595  -37.0240   19.4963 O   0  0  0  0  0  0  0  0  0  0  0  0
   -2.3667  -37.2356   18.8512 H   0  0  0  0  0  0  0  0  0  0  0  0
   -1.4332  -35.7369   21.0204 O   0  0  0  0  0  0  0  0  0  0  0  0
   -0.8764  -34.8380   19.7789 P   0  0  0  0  0  0  0  0  0  0  0  0
   -0.3509  -35.8745   18.8127 O   0  0  0  0  0  0  0  0  0  0  0  0
   -1.9875  -33.9697   19.2335 O   0  0  0  0  0  0  0  0  0  0  0  0
    0.2068  -33.9733   20.3842 O   0  0  0  0  0  0  0  0  0  0  0  0
   -1.6499  -33.4380   18.4958 H   0  0  0  0  0  0  0  0  0  0  0  0
    0.5886  -33.4050   19.6970 H   0  0  0  0  0  0  0  0  0  0  0  0
 34 35  2  0  0  0
 34 36  1  0  0  0
 34 37  1  0  0  0
 34 33  1  0  0  0
 29 30  2  0  0  0
 29 31  1  0  0  0
 29 33  1  0  0  0
 29 28  1  0  0  0
 24 25  2  0  0  0
 24 26  1  0  0  0
 24 28  1  0  0  0
 24 23  1  0  0  0
 23 22  1  0  0  0
 22  1  1  0  0  0
  1  2  1  0  0  0
  1  3  1  0  0  0
  2  7  1  0  0  0
  3  4  1  0  0  0
  3  5  1  0  0  0
  5  6  1  0  0  0
  5  7  1  0  0  0
  7 10  1  0  0  0
 10 11  1  0  0  0
 10 19  1  0  0  0
 11 12  2  0  0  0
 12 13  1  0  0  0
 13 14  1  0  0  0
 13 19  2  0  0  0
 14 15  1  0  0  0
 14 16  2  0  0  0
 16 17  1  0  0  0
 17 18  2  0  0  0
 18 19  1  0  0  0
 36 38  1  0  0  0
 37 39  1  0  0  0
 31 32  1  0  0  0
 26 27  1  0  0  0
  4  8  1  0  0  0
  6  9  1  0  0  0
 15 20  1  0  0  0
 15 21  1  0  0  0
M  END
> <minimizedAffinity>
-8.78220

$$$$
