1PRO_A88_A_301


 46 50  0  0  0  0  0  0  0  0999 V2000
   -8.4844   17.3946   26.8336 N   0  0  0  0  0  0  0  0  0  0  0  0
   -8.5396   15.9470   26.6928 N   0  0  0  0  0  0  0  0  0  0  0  0
   -8.7328   15.0767   27.7134 C   0  0  0  0  0  0  0  0  0  0  0  0
   -8.1151   13.9836   27.6789 O   0  0  0  0  0  0  0  0  0  0  0  0
   -9.6098   15.4735   28.6685 N   0  0  0  0  0  0  0  0  0  0  0  0
  -10.6393   16.4021   28.6243 C   0  0  0  0  0  0  0  0  0  0  0  0
  -10.3445   17.9207   28.2082 C   0  0  0  0  0  0  0  0  0  0  0  0
  -11.5311   18.5838   28.5331 O   0  0  0  0  0  0  0  0  0  0  0  0
   -9.8176   18.1558   26.8074 C   0  0  0  0  0  0  0  0  0  0  0  0
  -12.2653   18.1979   28.0301 H   0  0  0  0  0  0  0  0  0  0  0  0
   -7.4416   17.9291   27.8145 C   0  0  0  0  0  0  0  0  0  0  0  0
   -6.1951   18.1829   26.9858 C   0  0  0  0  0  0  0  0  0  0  0  0
   -6.1003   19.3584   26.2184 C   0  0  0  0  0  0  0  0  0  0  0  0
   -4.9838   19.5645   25.4131 C   0  0  0  0  0  0  0  0  0  0  0  0
   -3.9685   18.6047   25.3902 C   0  0  0  0  0  0  0  0  0  0  0  0
   -4.0763   17.4433   26.1598 C   0  0  0  0  0  0  0  0  0  0  0  0
   -5.1805   17.2217   26.9647 C   0  0  0  0  0  0  0  0  0  0  0  0
  -11.7226   15.7155   27.7505 C   0  0  0  0  0  0  0  0  0  0  0  0
  -12.4574   14.5750   28.4767 C   0  0  0  0  0  0  0  0  0  0  0  0
  -13.4879   14.8531   29.3918 C   0  0  0  0  0  0  0  0  0  0  0  0
  -14.1502   13.7982   30.0316 C   0  0  0  0  0  0  0  0  0  0  0  0
  -13.7891   12.4763   29.7663 C   0  0  0  0  0  0  0  0  0  0  0  0
  -12.7665   12.2120   28.8579 C   0  0  0  0  0  0  0  0  0  0  0  0
  -12.0963   13.2489   28.2087 C   0  0  0  0  0  0  0  0  0  0  0  0
   -9.3664   14.6855   29.9742 C   0  0  0  0  0  0  0  0  0  0  0  0
   -9.5986   15.3359   31.3276 C   0  0  0  0  0  0  0  0  0  0  0  0
  -10.7898   15.1193   32.0075 C   0  0  0  0  0  0  0  0  0  0  0  0
  -10.9860   15.7345   33.2433 C   0  0  0  0  0  0  0  0  0  0  0  0
   -9.9839   16.5304   33.7894 C   0  0  0  0  0  0  0  0  0  0  0  0
   -8.7925   16.7570   33.1105 C   0  0  0  0  0  0  0  0  0  0  0  0
   -8.6061   16.1591   31.8713 C   0  0  0  0  0  0  0  0  0  0  0  0
  -10.1642   17.1137   34.9838 O   0  0  0  0  0  0  0  0  0  0  0  0
  -10.9601   16.9740   35.4581 H   0  0  0  0  0  0  0  0  0  0  0  0
  -12.2579   15.6240   33.8207 O   0  0  0  0  0  0  0  0  0  0  0  0
  -13.3580   14.7390   33.4667 C   0  0  0  0  0  0  0  0  0  0  0  0
   -7.8432   15.4516   25.4185 C   0  0  0  0  0  0  0  0  0  0  0  0
   -8.1575   16.1053   24.1005 C   0  0  0  0  0  0  0  0  0  0  0  0
   -9.3197   15.7578   23.3956 C   0  0  0  0  0  0  0  0  0  0  0  0
   -9.5831   16.3713   22.1726 C   0  0  0  0  0  0  0  0  0  0  0  0
   -8.6852   17.3209   21.6765 C   0  0  0  0  0  0  0  0  0  0  0  0
   -7.5384   17.6518   22.3876 C   0  0  0  0  0  0  0  0  0  0  0  0
   -7.2687   17.0420   23.5916 C   0  0  0  0  0  0  0  0  0  0  0  0
   -9.1647   17.7294   20.4885 O   0  0  0  0  0  0  0  0  0  0  0  0
   -9.9745   17.3850   20.1667 H   0  0  0  0  0  0  0  0  0  0  0  0
   -6.7502   18.6825   21.8832 O   0  0  0  0  0  0  0  0  0  0  0  0
   -5.3314   18.4331   21.6939 C   0  0  0  0  0  0  0  0  0  0  0  0
  1  2  1  0  0  0
  1  9  1  0  0  0
  1 11  1  0  0  0
  2  3  1  0  0  0
  2 36  1  0  0  0
  3  4  2  0  0  0
  3  5  1  0  0  0
  5  6  1  0  0  0
  5 25  1  0  0  0
  6  7  1  0  0  0
  6 18  1  0  0  0
  7  8  1  0  0  0
  7  9  1  0  0  0
 11 12  1  0  0  0
 12 13  2  0  0  0
 12 17  1  0  0  0
 13 14  1  0  0  0
 14 15  2  0  0  0
 15 16  1  0  0  0
 16 17  2  0  0  0
 18 19  1  0  0  0
 19 20  2  0  0  0
 19 24  1  0  0  0
 20 21  1  0  0  0
 21 22  2  0  0  0
 22 23  1  0  0  0
 23 24  2  0  0  0
 25 26  1  0  0  0
 26 27  2  0  0  0
 26 31  1  0  0  0
 27 28  1  0  0  0
 28 29  2  0  0  0
 28 34  1  0  0  0
 29 30  1  0  0  0
 29 32  1  0  0  0
 30 31  2  0  0  0
 34 35  1  0  0  0
 36 37  1  0  0  0
 37 38  2  0  0  0
 37 42  1  0  0  0
 38 39  1  0  0  0
 39 40  2  0  0  0
 40 41  1  0  0  0
 40 43  1  0  0  0
 41 42  2  0  0  0
 41 45  1  0  0  0
 45 46  1  0  0  0
  8 10  1  0  0  0
 32 33  1  0  0  0
 43 44  1  0  0  0
M  END
> <minimizedAffinity>
-12.82109

$$$$
1PRO_A88_A_301


 46 50  0  0  0  0  0  0  0  0999 V2000
  -10.8152   16.1187   28.6944 N   0  0  0  0  0  0  0  0  0  0  0  0
   -9.5550   15.4047   28.8372 N   0  0  0  0  0  0  0  0  0  0  0  0
   -8.7215   15.0931   27.8151 C   0  0  0  0  0  0  0  0  0  0  0  0
   -8.1182   13.9925   27.8632 O   0  0  0  0  0  0  0  0  0  0  0  0
   -8.6037   16.0315   26.8435 N   0  0  0  0  0  0  0  0  0  0  0  0
   -8.8496   17.3965   26.8670 C   0  0  0  0  0  0  0  0  0  0  0  0
  -10.2921   17.9537   27.2851 C   0  0  0  0  0  0  0  0  0  0  0  0
  -10.2324   19.3060   26.9374 O   0  0  0  0  0  0  0  0  0  0  0  0
  -10.7588   17.6533   28.6948 C   0  0  0  0  0  0  0  0  0  0  0  0
   -9.5135   19.7345   27.4278 H   0  0  0  0  0  0  0  0  0  0  0  0
  -11.8268   15.4985   27.7314 C   0  0  0  0  0  0  0  0  0  0  0  0
  -12.6145   14.4974   28.5572 C   0  0  0  0  0  0  0  0  0  0  0  0
  -12.2421   13.1406   28.5419 C   0  0  0  0  0  0  0  0  0  0  0  0
  -12.9987   12.2129   29.2522 C   0  0  0  0  0  0  0  0  0  0  0  0
  -14.1096   12.6475   29.9800 C   0  0  0  0  0  0  0  0  0  0  0  0
  -14.4653   13.9989   29.9871 C   0  0  0  0  0  0  0  0  0  0  0  0
  -13.7251   14.9344   29.2848 C   0  0  0  0  0  0  0  0  0  0  0  0
   -7.6882   17.9692   27.7225 C   0  0  0  0  0  0  0  0  0  0  0  0
   -6.3781   18.1401   26.9336 C   0  0  0  0  0  0  0  0  0  0  0  0
   -5.3633   17.1700   27.0085 C   0  0  0  0  0  0  0  0  0  0  0  0
   -4.1846   17.3415   26.2722 C   0  0  0  0  0  0  0  0  0  0  0  0
   -4.0143   18.4704   25.4693 C   0  0  0  0  0  0  0  0  0  0  0  0
   -5.0262   19.4255   25.4024 C   0  0  0  0  0  0  0  0  0  0  0  0
   -6.2084   19.2718   26.1265 C   0  0  0  0  0  0  0  0  0  0  0  0
   -8.0727   15.3877   25.5440 C   0  0  0  0  0  0  0  0  0  0  0  0
   -8.3527   16.0231   24.1926 C   0  0  0  0  0  0  0  0  0  0  0  0
   -7.4535   16.9331   23.6528 C   0  0  0  0  0  0  0  0  0  0  0  0
   -7.7357   17.5122   22.4162 C   0  0  0  0  0  0  0  0  0  0  0  0
   -8.8920   17.1547   21.7300 C   0  0  0  0  0  0  0  0  0  0  0  0
   -9.7996   16.2501   22.2683 C   0  0  0  0  0  0  0  0  0  0  0  0
   -9.5268   15.6886   23.5085 C   0  0  0  0  0  0  0  0  0  0  0  0
   -9.1604   17.7002   20.5343 O   0  0  0  0  0  0  0  0  0  0  0  0
   -8.5618   18.3123   20.1535 H   0  0  0  0  0  0  0  0  0  0  0  0
   -6.8905   18.5417   21.9815 O   0  0  0  0  0  0  0  0  0  0  0  0
   -5.4870   18.4837   21.5996 C   0  0  0  0  0  0  0  0  0  0  0  0
   -9.4913   14.5729   30.1250 C   0  0  0  0  0  0  0  0  0  0  0  0
   -9.8155   15.2219   31.4429 C   0  0  0  0  0  0  0  0  0  0  0  0
   -8.8741   16.0451   32.0788 C   0  0  0  0  0  0  0  0  0  0  0  0
   -9.1956   16.6270   33.3033 C   0  0  0  0  0  0  0  0  0  0  0  0
  -10.4495   16.3797   33.8698 C   0  0  0  0  0  0  0  0  0  0  0  0
  -11.3690   15.5606   33.2264 C   0  0  0  0  0  0  0  0  0  0  0  0
  -11.0530   14.9759   32.0213 C   0  0  0  0  0  0  0  0  0  0  0  0
  -10.4850   17.0359   35.0429 O   0  0  0  0  0  0  0  0  0  0  0  0
   -9.7506   17.5507   35.3141 H   0  0  0  0  0  0  0  0  0  0  0  0
  -12.6336   15.4495   33.7978 O   0  0  0  0  0  0  0  0  0  0  0  0
  -13.4003   14.2423   33.5407 C   0  0  0  0  0  0  0  0  0  0  0  0
  1  2  1  0  0  0
  1  9  1  0  0  0
  1 11  1  0  0  0
  2  3  1  0  0  0
  2 36  1  0  0  0
  3  4  2  0  0  0
  3  5  1  0  0  0
  5  6  1  0  0  0
  5 25  1  0  0  0
  6  7  1  0  0  0
  6 18  1  0  0  0
  7  8  1  0  0  0
  7  9  1  0  0  0
 11 12  1  0  0  0
 12 13  2  0  0  0
 12 17  1  0  0  0
 13 14  1  0  0  0
 14 15  2  0  0  0
 15 16  1  0  0  0
 16 17  2  0  0  0
 18 19  1  0  0  0
 19 20  2  0  0  0
 19 24  1  0  0  0
 20 21  1  0  0  0
 21 22  2  0  0  0
 22 23  1  0  0  0
 23 24  2  0  0  0
 25 26  1  0  0  0
 26 27  2  0  0  0
 26 31  1  0  0  0
 27 28  1  0  0  0
 28 29  2  0  0  0
 28 34  1  0  0  0
 29 30  1  0  0  0
 29 32  1  0  0  0
 30 31  2  0  0  0
 34 35  1  0  0  0
 36 37  1  0  0  0
 37 38  2  0  0  0
 37 42  1  0  0  0
 38 39  1  0  0  0
 39 40  2  0  0  0
 40 41  1  0  0  0
 40 43  1  0  0  0
 41 42  2  0  0  0
 41 45  1  0  0  0
 45 46  1  0  0  0
  8 10  1  0  0  0
 32 33  1  0  0  0
 43 44  1  0  0  0
M  END
> <minimizedAffinity>
-12.72285

$$$$
1PRO_A88_A_301


 46 50  0  0  0  0  0  0  0  0999 V2000
   -8.3670   17.2571   26.7556 N   0  0  0  0  0  0  0  0  0  0  0  0
   -8.4301   15.8108   26.6056 N   0  0  0  0  0  0  0  0  0  0  0  0
   -8.6492   14.9363   27.6174 C   0  0  0  0  0  0  0  0  0  0  0  0
   -8.0389   13.8390   27.5885 O   0  0  0  0  0  0  0  0  0  0  0  0
   -9.5414   15.3344   28.5578 N   0  0  0  0  0  0  0  0  0  0  0  0
  -10.5631   16.2708   28.4992 C   0  0  0  0  0  0  0  0  0  0  0  0
  -10.2493   17.7894   28.0975 C   0  0  0  0  0  0  0  0  0  0  0  0
  -11.4370   18.4595   28.4033 O   0  0  0  0  0  0  0  0  0  0  0  0
   -9.6940   18.0284   26.7083 C   0  0  0  0  0  0  0  0  0  0  0  0
  -12.1642   18.0818   27.8842 H   0  0  0  0  0  0  0  0  0  0  0  0
   -7.3393   17.7785   27.7593 C   0  0  0  0  0  0  0  0  0  0  0  0
   -6.1195   18.1523   26.9364 C   0  0  0  0  0  0  0  0  0  0  0  0
   -6.0952   19.3814   26.2520 C   0  0  0  0  0  0  0  0  0  0  0  0
   -5.0024   19.6995   25.4506 C   0  0  0  0  0  0  0  0  0  0  0  0
   -3.9407   18.7968   25.3493 C   0  0  0  0  0  0  0  0  0  0  0  0
   -3.9787   17.5809   26.0372 C   0  0  0  0  0  0  0  0  0  0  0  0
   -5.0584   17.2480   26.8369 C   0  0  0  0  0  0  0  0  0  0  0  0
  -11.6344   15.5971   27.6009 C   0  0  0  0  0  0  0  0  0  0  0  0
  -12.5349   14.6098   28.3640 C   0  0  0  0  0  0  0  0  0  0  0  0
  -12.2638   13.2304   28.3468 C   0  0  0  0  0  0  0  0  0  0  0  0
  -13.0904   12.3524   29.0586 C   0  0  0  0  0  0  0  0  0  0  0  0
  -14.1807   12.8414   29.7801 C   0  0  0  0  0  0  0  0  0  0  0  0
  -14.4403   14.2100   29.7903 C   0  0  0  0  0  0  0  0  0  0  0  0
  -13.6274   15.1009   29.0895 C   0  0  0  0  0  0  0  0  0  0  0  0
   -9.3288   14.5374   29.8634 C   0  0  0  0  0  0  0  0  0  0  0  0
   -9.9079   15.0329   31.1778 C   0  0  0  0  0  0  0  0  0  0  0  0
   -9.1958   15.9382   31.9535 C   0  0  0  0  0  0  0  0  0  0  0  0
   -9.7414   16.3715   33.1614 C   0  0  0  0  0  0  0  0  0  0  0  0
  -10.9944   15.9167   33.5599 C   0  0  0  0  0  0  0  0  0  0  0  0
  -11.7087   15.0049   32.7916 C   0  0  0  0  0  0  0  0  0  0  0  0
  -11.1558   14.5596   31.5983 C   0  0  0  0  0  0  0  0  0  0  0  0
  -11.5279   16.3411   34.7152 O   0  0  0  0  0  0  0  0  0  0  0  0
  -11.0629   16.9556   35.2481 H   0  0  0  0  0  0  0  0  0  0  0  0
   -8.9266   17.1546   33.9896 O   0  0  0  0  0  0  0  0  0  0  0  0
   -8.4853   16.9033   35.3538 C   0  0  0  0  0  0  0  0  0  0  0  0
   -7.7130   15.3173   25.3421 C   0  0  0  0  0  0  0  0  0  0  0  0
   -7.8603   16.0874   24.0581 C   0  0  0  0  0  0  0  0  0  0  0  0
   -6.7990   16.8654   23.5719 C   0  0  0  0  0  0  0  0  0  0  0  0
   -6.9642   17.5765   22.3851 C   0  0  0  0  0  0  0  0  0  0  0  0
   -8.1825   17.4971   21.7042 C   0  0  0  0  0  0  0  0  0  0  0  0
   -9.2232   16.7225   22.2013 C   0  0  0  0  0  0  0  0  0  0  0  0
   -9.0686   16.0256   23.3779 C   0  0  0  0  0  0  0  0  0  0  0  0
   -8.0772   18.2863   20.6206 O   0  0  0  0  0  0  0  0  0  0  0  0
   -7.2754   18.7390   20.4469 H   0  0  0  0  0  0  0  0  0  0  0  0
  -10.3650   16.6066   21.4131 O   0  0  0  0  0  0  0  0  0  0  0  0
  -10.2420   15.9654   20.1151 C   0  0  0  0  0  0  0  0  0  0  0  0
  1  2  1  0  0  0
  1  9  1  0  0  0
  1 11  1  0  0  0
  2  3  1  0  0  0
  2 36  1  0  0  0
  3  4  2  0  0  0
  3  5  1  0  0  0
  5  6  1  0  0  0
  5 25  1  0  0  0
  6  7  1  0  0  0
  6 18  1  0  0  0
  7  8  1  0  0  0
  7  9  1  0  0  0
 11 12  1  0  0  0
 12 13  2  0  0  0
 12 17  1  0  0  0
 13 14  1  0  0  0
 14 15  2  0  0  0
 15 16  1  0  0  0
 16 17  2  0  0  0
 18 19  1  0  0  0
 19 20  2  0  0  0
 19 24  1  0  0  0
 20 21  1  0  0  0
 21 22  2  0  0  0
 22 23  1  0  0  0
 23 24  2  0  0  0
 25 26  1  0  0  0
 26 27  2  0  0  0
 26 31  1  0  0  0
 27 28  1  0  0  0
 28 29  2  0  0  0
 28 34  1  0  0  0
 29 30  1  0  0  0
 29 32  1  0  0  0
 30 31  2  0  0  0
 34 35  1  0  0  0
 36 37  1  0  0  0
 37 38  2  0  0  0
 37 42  1  0  0  0
 38 39  1  0  0  0
 39 40  2  0  0  0
 40 41  1  0  0  0
 40 43  1  0  0  0
 41 42  2  0  0  0
 41 45  1  0  0  0
 45 46  1  0  0  0
  8 10  1  0  0  0
 32 33  1  0  0  0
 43 44  1  0  0  0
M  END
> <minimizedAffinity>
-11.85083

$$$$
1PRO_A88_A_301


 46 50  0  0  0  0  0  0  0  0999 V2000
   -8.4119   16.1380   25.7784 N   0  0  0  0  0  0  0  0  0  0  0  0
   -8.6149   17.4508   26.3731 N   0  0  0  0  0  0  0  0  0  0  0  0
   -9.6357   17.7752   27.2034 C   0  0  0  0  0  0  0  0  0  0  0  0
  -10.1297   18.9259   27.1061 O   0  0  0  0  0  0  0  0  0  0  0  0
  -10.0052   16.8148   28.0865 N   0  0  0  0  0  0  0  0  0  0  0  0
   -9.3085   15.7223   28.5818 C   0  0  0  0  0  0  0  0  0  0  0  0
   -8.7026   14.6262   27.5831 C   0  0  0  0  0  0  0  0  0  0  0  0
   -8.3264   13.5830   28.4336 O   0  0  0  0  0  0  0  0  0  0  0  0
   -7.6434   15.1001   26.6090 C   0  0  0  0  0  0  0  0  0  0  0  0
   -7.6704   13.9061   29.0710 H   0  0  0  0  0  0  0  0  0  0  0  0
   -9.5799   15.5900   24.9594 C   0  0  0  0  0  0  0  0  0  0  0  0
   -9.2711   15.9510   23.5175 C   0  0  0  0  0  0  0  0  0  0  0  0
   -7.9350   15.9617   23.0764 C   0  0  0  0  0  0  0  0  0  0  0  0
   -7.6460   16.3489   21.7710 C   0  0  0  0  0  0  0  0  0  0  0  0
   -8.6905   16.7087   20.9155 C   0  0  0  0  0  0  0  0  0  0  0  0
  -10.0127   16.6908   21.3678 C   0  0  0  0  0  0  0  0  0  0  0  0
  -10.3175   16.3101   22.6633 C   0  0  0  0  0  0  0  0  0  0  0  0
   -8.2538   16.3522   29.5302 C   0  0  0  0  0  0  0  0  0  0  0  0
   -8.5728   16.1414   31.0207 C   0  0  0  0  0  0  0  0  0  0  0  0
   -8.5714   17.2259   31.9155 C   0  0  0  0  0  0  0  0  0  0  0  0
   -8.8764   17.0115   33.2652 C   0  0  0  0  0  0  0  0  0  0  0  0
   -9.1777   15.7279   33.7233 C   0  0  0  0  0  0  0  0  0  0  0  0
   -9.1761   14.6604   32.8283 C   0  0  0  0  0  0  0  0  0  0  0  0
   -8.8771   14.8540   31.4796 C   0  0  0  0  0  0  0  0  0  0  0  0
  -11.4393   17.0820   28.5934 C   0  0  0  0  0  0  0  0  0  0  0  0
  -12.3160   15.9400   29.0789 C   0  0  0  0  0  0  0  0  0  0  0  0
  -12.1719   15.4545   30.3718 C   0  0  0  0  0  0  0  0  0  0  0  0
  -12.9796   14.3988   30.7930 C   0  0  0  0  0  0  0  0  0  0  0  0
  -13.9315   13.8657   29.9295 C   0  0  0  0  0  0  0  0  0  0  0  0
  -14.0754   14.3423   28.6318 C   0  0  0  0  0  0  0  0  0  0  0  0
  -13.2574   15.3809   28.2074 C   0  0  0  0  0  0  0  0  0  0  0  0
  -14.7189   12.8584   30.3354 O   0  0  0  0  0  0  0  0  0  0  0  0
  -14.6380   12.5223   31.2063 H   0  0  0  0  0  0  0  0  0  0  0  0
  -12.6953   13.8317   32.0423 O   0  0  0  0  0  0  0  0  0  0  0  0
  -12.9423   14.3636   33.3746 C   0  0  0  0  0  0  0  0  0  0  0  0
   -7.9141   18.5681   25.5890 C   0  0  0  0  0  0  0  0  0  0  0  0
   -6.4478   18.4458   25.2759 C   0  0  0  0  0  0  0  0  0  0  0  0
   -5.5321   18.1138   26.2856 C   0  0  0  0  0  0  0  0  0  0  0  0
   -4.1781   18.0159   25.9714 C   0  0  0  0  0  0  0  0  0  0  0  0
   -3.7626   18.2483   24.6570 C   0  0  0  0  0  0  0  0  0  0  0  0
   -4.6834   18.5775   23.6701 C   0  0  0  0  0  0  0  0  0  0  0  0
   -6.0207   18.6846   23.9770 C   0  0  0  0  0  0  0  0  0  0  0  0
   -2.4250   18.1119   24.6398 O   0  0  0  0  0  0  0  0  0  0  0  0
   -1.9677   17.8792   25.4238 H   0  0  0  0  0  0  0  0  0  0  0  0
   -4.2088   18.6870   22.3659 O   0  0  0  0  0  0  0  0  0  0  0  0
   -4.1335   17.4815   21.5584 C   0  0  0  0  0  0  0  0  0  0  0  0
  1  2  1  0  0  0
  1  9  1  0  0  0
  1 11  1  0  0  0
  2  3  1  0  0  0
  2 36  1  0  0  0
  3  4  2  0  0  0
  3  5  1  0  0  0
  5  6  1  0  0  0
  5 25  1  0  0  0
  6  7  1  0  0  0
  6 18  1  0  0  0
  7  8  1  0  0  0
  7  9  1  0  0  0
 11 12  1  0  0  0
 12 13  2  0  0  0
 12 17  1  0  0  0
 13 14  1  0  0  0
 14 15  2  0  0  0
 15 16  1  0  0  0
 16 17  2  0  0  0
 18 19  1  0  0  0
 19 20  2  0  0  0
 19 24  1  0  0  0
 20 21  1  0  0  0
 21 22  2  0  0  0
 22 23  1  0  0  0
 23 24  2  0  0  0
 25 26  1  0  0  0
 26 27  2  0  0  0
 26 31  1  0  0  0
 27 28  1  0  0  0
 28 29  2  0  0  0
 28 34  1  0  0  0
 29 30  1  0  0  0
 29 32  1  0  0  0
 30 31  2  0  0  0
 34 35  1  0  0  0
 36 37  1  0  0  0
 37 38  2  0  0  0
 37 42  1  0  0  0
 38 39  1  0  0  0
 39 40  2  0  0  0
 40 41  1  0  0  0
 40 43  1  0  0  0
 41 42  2  0  0  0
 41 45  1  0  0  0
 45 46  1  0  0  0
  8 10  1  0  0  0
 32 33  1  0  0  0
 43 44  1  0  0  0
M  END
> <minimizedAffinity>
-10.40622

$$$$
1PRO_A88_A_301


 46 50  0  0  0  0  0  0  0  0999 V2000
   -8.4283   16.1439   25.8013 N   0  0  0  0  0  0  0  0  0  0  0  0
   -8.7017   17.4184   26.4487 N   0  0  0  0  0  0  0  0  0  0  0  0
   -9.7171   17.6433   27.3176 C   0  0  0  0  0  0  0  0  0  0  0  0
  -10.2901   18.7602   27.2757 O   0  0  0  0  0  0  0  0  0  0  0  0
   -9.9947   16.6300   28.1749 N   0  0  0  0  0  0  0  0  0  0  0  0
   -9.2116   15.5713   28.6109 C   0  0  0  0  0  0  0  0  0  0  0  0
   -8.5629   14.5544   27.5568 C   0  0  0  0  0  0  0  0  0  0  0  0
   -8.0923   13.5106   28.3583 O   0  0  0  0  0  0  0  0  0  0  0  0
   -7.5673   15.1330   26.5723 C   0  0  0  0  0  0  0  0  0  0  0  0
   -7.4411   13.8556   28.9890 H   0  0  0  0  0  0  0  0  0  0  0  0
   -9.5803   15.5458   24.9947 C   0  0  0  0  0  0  0  0  0  0  0  0
   -9.3029   15.9193   23.5496 C   0  0  0  0  0  0  0  0  0  0  0  0
   -7.9760   15.9431   23.0823 C   0  0  0  0  0  0  0  0  0  0  0  0
   -7.7158   16.3416   21.7742 C   0  0  0  0  0  0  0  0  0  0  0  0
   -8.7797   16.6998   20.9422 C   0  0  0  0  0  0  0  0  0  0  0  0
  -10.0924   16.6689   21.4205 C   0  0  0  0  0  0  0  0  0  0  0  0
  -10.3687   16.2768   22.7190 C   0  0  0  0  0  0  0  0  0  0  0  0
   -8.1742   16.2388   29.5526 C   0  0  0  0  0  0  0  0  0  0  0  0
   -8.5172   16.0818   31.0445 C   0  0  0  0  0  0  0  0  0  0  0  0
   -8.8130   14.8176   31.5839 C   0  0  0  0  0  0  0  0  0  0  0  0
   -9.1105   14.6978   32.9469 C   0  0  0  0  0  0  0  0  0  0  0  0
   -9.1169   15.8267   33.7678 C   0  0  0  0  0  0  0  0  0  0  0  0
   -8.8225   17.0746   33.2230 C   0  0  0  0  0  0  0  0  0  0  0  0
   -8.5215   17.2143   31.8682 C   0  0  0  0  0  0  0  0  0  0  0  0
  -11.4280   16.7808   28.7298 C   0  0  0  0  0  0  0  0  0  0  0  0
  -12.1181   15.6178   29.4224 C   0  0  0  0  0  0  0  0  0  0  0  0
  -12.6845   14.5977   28.6695 C   0  0  0  0  0  0  0  0  0  0  0  0
  -13.3222   13.5454   29.3255 C   0  0  0  0  0  0  0  0  0  0  0  0
  -13.3603   13.5156   30.7160 C   0  0  0  0  0  0  0  0  0  0  0  0
  -12.8019   14.5373   31.4750 C   0  0  0  0  0  0  0  0  0  0  0  0
  -12.1838   15.5941   30.8200 C   0  0  0  0  0  0  0  0  0  0  0  0
  -13.9619   12.4984   31.3507 O   0  0  0  0  0  0  0  0  0  0  0  0
  -14.3448   11.7995   30.8579 H   0  0  0  0  0  0  0  0  0  0  0  0
  -14.0192   12.6234   28.5335 O   0  0  0  0  0  0  0  0  0  0  0  0
  -13.7457   12.1831   27.1733 C   0  0  0  0  0  0  0  0  0  0  0  0
   -8.1013   18.6074   25.6871 C   0  0  0  0  0  0  0  0  0  0  0  0
   -6.6491   18.5790   25.2953 C   0  0  0  0  0  0  0  0  0  0  0  0
   -5.6563   18.3768   26.2657 C   0  0  0  0  0  0  0  0  0  0  0  0
   -4.3180   18.3641   25.8780 C   0  0  0  0  0  0  0  0  0  0  0  0
   -3.9945   18.5506   24.5310 C   0  0  0  0  0  0  0  0  0  0  0  0
   -4.9909   18.7508   23.5836 C   0  0  0  0  0  0  0  0  0  0  0  0
   -6.3137   18.7737   23.9626 C   0  0  0  0  0  0  0  0  0  0  0  0
   -2.6532   18.5155   24.4424 O   0  0  0  0  0  0  0  0  0  0  0  0
   -2.1368   18.3642   25.2094 H   0  0  0  0  0  0  0  0  0  0  0  0
   -4.5983   18.8201   22.2498 O   0  0  0  0  0  0  0  0  0  0  0  0
   -4.3039   17.5787   21.5546 C   0  0  0  0  0  0  0  0  0  0  0  0
  1  2  1  0  0  0
  1  9  1  0  0  0
  1 11  1  0  0  0
  2  3  1  0  0  0
  2 36  1  0  0  0
  3  4  2  0  0  0
  3  5  1  0  0  0
  5  6  1  0  0  0
  5 25  1  0  0  0
  6  7  1  0  0  0
  6 18  1  0  0  0
  7  8  1  0  0  0
  7  9  1  0  0  0
 11 12  1  0  0  0
 12 13  2  0  0  0
 12 17  1  0  0  0
 13 14  1  0  0  0
 14 15  2  0  0  0
 15 16  1  0  0  0
 16 17  2  0  0  0
 18 19  1  0  0  0
 19 20  2  0  0  0
 19 24  1  0  0  0
 20 21  1  0  0  0
 21 22  2  0  0  0
 22 23  1  0  0  0
 23 24  2  0  0  0
 25 26  1  0  0  0
 26 27  2  0  0  0
 26 31  1  0  0  0
 27 28  1  0  0  0
 28 29  2  0  0  0
 28 34  1  0  0  0
 29 30  1  0  0  0
 29 32  1  0  0  0
 30 31  2  0  0  0
 34 35  1  0  0  0
 36 37  1  0  0  0
 37 38  2  0  0  0
 37 42  1  0  0  0
 38 39  1  0  0  0
 39 40  2  0  0  0
 40 41  1  0  0  0
 40 43  1  0  0  0
 41 42  2  0  0  0
 41 45  1  0  0  0
 45 46  1  0  0  0
  8 10  1  0  0  0
 32 33  1  0  0  0
 43 44  1  0  0  0
M  END
> <minimizedAffinity>
-9.92961

$$$$
