3B25_B2K_A_1


 20 21  0  0  0  0  0  0  0  0999 V2000
   64.2601   10.9233   25.1781 S   0  0  0  0  0  0  0  0  0  0  0  0
   63.4757    9.8882   24.4256 O   0  0  0  0  0  0  0  0  0  0  0  0
   64.2191   10.6654   26.6549 O   0  0  0  0  0  0  0  0  0  0  0  0
   65.9514   10.9719   24.6607 C   0  0  0  0  0  0  0  0  0  0  0  0
   66.9046   11.4285   25.5101 N   0  0  0  0  0  0  0  0  0  0  0  0
   66.2951   10.6084   23.3541 C   0  0  0  0  0  0  0  0  0  0  0  0
   67.6390   10.6488   22.9894 C   0  0  0  0  0  0  0  0  0  0  0  0
   68.0565   10.2335   21.5693 C   0  0  0  0  0  0  0  0  0  0  0  0
   68.5663   11.1207   23.8567 N   0  0  0  0  0  0  0  0  0  0  0  0
   68.2090   11.4646   25.1152 C   0  0  0  0  0  0  0  0  0  0  0  0
   69.1619   11.8388   25.9463 N   0  0  0  0  0  0  0  0  0  0  0  0
   68.9369   12.0957   26.8696 H   0  0  0  0  0  0  0  0  0  0  0  0
   70.0984   11.8612   25.6434 H   0  0  0  0  0  0  0  0  0  0  0  0
   64.3334   13.6413   24.9297 C   0  0  0  0  0  0  0  0  0  0  0  0
   63.7662   14.8904   24.6706 C   0  0  0  0  0  0  0  0  0  0  0  0
   62.4142   14.9993   24.3061 C   0  0  0  0  0  0  0  0  0  0  0  0
   61.8290   16.3743   23.9911 C   0  0  0  0  0  0  0  0  0  0  0  0
   61.6148   13.8570   24.2111 C   0  0  0  0  0  0  0  0  0  0  0  0
   62.1803   12.6119   24.5253 C   0  0  0  0  0  0  0  0  0  0  0  0
   63.5396   12.5037   24.8483 C   0  0  0  0  0  0  0  0  0  0  0  0
 14 15  2  0  0  0
 14 20  1  0  0  0
 15 16  1  0  0  0
 16 17  1  0  0  0
 16 18  2  0  0  0
 18 19  1  0  0  0
 19 20  2  0  0  0
 20  1  1  0  0  0
  1  2  2  0  0  0
  1  3  2  0  0  0
  1  4  1  0  0  0
  4  5  2  0  0  0
  4  6  1  0  0  0
  5 10  1  0  0  0
  6  7  2  0  0  0
  7  8  1  0  0  0
  7  9  1  0  0  0
  9 10  2  0  0  0
 10 11  1  0  0  0
 11 12  1  0  0  0
 11 13  1  0  0  0
M  END
> <minimizedAffinity>
-9.16919

$$$$
3B25_B2K_A_1


 20 21  0  0  0  0  0  0  0  0999 V2000
   64.7815   11.6643   25.9972 S   0  0  0  0  0  0  0  0  0  0  0  0
   63.9213   10.5815   26.5808 O   0  0  0  0  0  0  0  0  0  0  0  0
   65.6261   12.3126   27.0536 O   0  0  0  0  0  0  0  0  0  0  0  0
   65.8450   11.0462   24.7255 C   0  0  0  0  0  0  0  0  0  0  0  0
   67.1478   11.4206   24.6934 N   0  0  0  0  0  0  0  0  0  0  0  0
   65.3266   10.2306   23.7137 C   0  0  0  0  0  0  0  0  0  0  0  0
   66.1991    9.7547   22.7374 C   0  0  0  0  0  0  0  0  0  0  0  0
   65.6695    8.8367   21.6237 C   0  0  0  0  0  0  0  0  0  0  0  0
   67.4928   10.1561   22.7257 N   0  0  0  0  0  0  0  0  0  0  0  0
   67.9703   10.9439   23.7163 C   0  0  0  0  0  0  0  0  0  0  0  0
   69.2556   11.2382   23.7045 N   0  0  0  0  0  0  0  0  0  0  0  0
   69.6363   11.8092   24.4104 H   0  0  0  0  0  0  0  0  0  0  0  0
   69.8345   10.8871   22.9897 H   0  0  0  0  0  0  0  0  0  0  0  0
   64.2283   14.1425   24.9939 C   0  0  0  0  0  0  0  0  0  0  0  0
   63.3907   15.1059   24.4287 C   0  0  0  0  0  0  0  0  0  0  0  0
   62.0531   14.8014   24.1275 C   0  0  0  0  0  0  0  0  0  0  0  0
   61.1694   15.8620   23.4745 C   0  0  0  0  0  0  0  0  0  0  0  0
   61.5394   13.5312   24.4027 C   0  0  0  0  0  0  0  0  0  0  0  0
   62.3740   12.5870   25.0197 C   0  0  0  0  0  0  0  0  0  0  0  0
   63.7189   12.8819   25.2805 C   0  0  0  0  0  0  0  0  0  0  0  0
 14 15  2  0  0  0
 14 20  1  0  0  0
 15 16  1  0  0  0
 16 17  1  0  0  0
 16 18  2  0  0  0
 18 19  1  0  0  0
 19 20  2  0  0  0
 20  1  1  0  0  0
  1  2  2  0  0  0
  1  3  2  0  0  0
  1  4  1  0  0  0
  4  5  2  0  0  0
  4  6  1  0  0  0
  5 10  1  0  0  0
  6  7  2  0  0  0
  7  8  1  0  0  0
  7  9  1  0  0  0
  9 10  2  0  0  0
 10 11  1  0  0  0
 11 12  1  0  0  0
 11 13  1  0  0  0
M  END
> <minimizedAffinity>
-8.84379

$$$$
3B25_B2K_A_1


 20 21  0  0  0  0  0  0  0  0999 V2000
   64.0116   10.8105   25.2180 S   0  0  0  0  0  0  0  0  0  0  0  0
   63.4555    9.7277   24.3396 O   0  0  0  0  0  0  0  0  0  0  0  0
   63.8514   10.4658   26.6688 O   0  0  0  0  0  0  0  0  0  0  0  0
   65.7258   11.1050   24.8942 C   0  0  0  0  0  0  0  0  0  0  0  0
   66.2564   10.7560   23.6962 N   0  0  0  0  0  0  0  0  0  0  0  0
   66.5482   11.6302   25.8969 C   0  0  0  0  0  0  0  0  0  0  0  0
   67.8896   11.8586   25.5984 C   0  0  0  0  0  0  0  0  0  0  0  0
   68.8176   12.4571   26.6680 C   0  0  0  0  0  0  0  0  0  0  0  0
   68.3926   11.4885   24.3963 N   0  0  0  0  0  0  0  0  0  0  0  0
   67.5764   10.9841   23.4427 C   0  0  0  0  0  0  0  0  0  0  0  0
   68.0991   10.7174   22.2619 N   0  0  0  0  0  0  0  0  0  0  0  0
   67.5335   10.3494   21.5450 H   0  0  0  0  0  0  0  0  0  0  0  0
   69.0549   10.8863   22.0971 H   0  0  0  0  0  0  0  0  0  0  0  0
   63.8106   13.5098   24.8609 C   0  0  0  0  0  0  0  0  0  0  0  0
   63.1120   14.6886   24.5934 C   0  0  0  0  0  0  0  0  0  0  0  0
   61.7349   14.6562   24.3188 C   0  0  0  0  0  0  0  0  0  0  0  0
   61.0029   15.9561   23.9920 C   0  0  0  0  0  0  0  0  0  0  0  0
   61.0430   13.4421   24.3229 C   0  0  0  0  0  0  0  0  0  0  0  0
   61.7431   12.2696   24.6452 C   0  0  0  0  0  0  0  0  0  0  0  0
   63.1246   12.3015   24.8779 C   0  0  0  0  0  0  0  0  0  0  0  0
 14 15  2  0  0  0
 14 20  1  0  0  0
 15 16  1  0  0  0
 16 17  1  0  0  0
 16 18  2  0  0  0
 18 19  1  0  0  0
 19 20  2  0  0  0
 20  1  1  0  0  0
  1  2  2  0  0  0
  1  3  2  0  0  0
  1  4  1  0  0  0
  4  5  2  0  0  0
  4  6  1  0  0  0
  5 10  1  0  0  0
  6  7  2  0  0  0
  7  8  1  0  0  0
  7  9  1  0  0  0
  9 10  2  0  0  0
 10 11  1  0  0  0
 11 12  1  0  0  0
 11 13  1  0  0  0
M  END
> <minimizedAffinity>
-8.39404

$$$$
3B25_B2K_A_1


 20 21  0  0  0  0  0  0  0  0999 V2000
   64.5693   11.2132   25.7889 S   0  0  0  0  0  0  0  0  0  0  0  0
   63.6545   10.4103   26.6672 O   0  0  0  0  0  0  0  0  0  0  0  0
   65.7804   11.6722   26.5452 O   0  0  0  0  0  0  0  0  0  0  0  0
   65.1025   10.2907   24.3765 C   0  0  0  0  0  0  0  0  0  0  0  0
   64.4640    9.1431   24.0391 N   0  0  0  0  0  0  0  0  0  0  0  0
   66.2252   10.7053   23.6518 C   0  0  0  0  0  0  0  0  0  0  0  0
   66.6057    9.9583   22.5391 C   0  0  0  0  0  0  0  0  0  0  0  0
   67.8200   10.3975   21.7049 C   0  0  0  0  0  0  0  0  0  0  0  0
   65.9547    8.8102   22.2344 N   0  0  0  0  0  0  0  0  0  0  0  0
   64.8708    8.4314   22.9497 C   0  0  0  0  0  0  0  0  0  0  0  0
   64.2228    7.3506   22.5615 N   0  0  0  0  0  0  0  0  0  0  0  0
   63.4297    7.0468   23.0594 H   0  0  0  0  0  0  0  0  0  0  0  0
   64.5321    6.8476   21.7738 H   0  0  0  0  0  0  0  0  0  0  0  0
   64.3532   13.8271   25.0305 C   0  0  0  0  0  0  0  0  0  0  0  0
   63.6502   14.9456   24.5789 C   0  0  0  0  0  0  0  0  0  0  0  0
   62.2787   14.8581   24.2890 C   0  0  0  0  0  0  0  0  0  0  0  0
   61.5423   16.0870   23.7601 C   0  0  0  0  0  0  0  0  0  0  0  0
   61.5966   13.6508   24.4621 C   0  0  0  0  0  0  0  0  0  0  0  0
   62.3001   12.5468   24.9672 C   0  0  0  0  0  0  0  0  0  0  0  0
   63.6768   12.6276   25.2157 C   0  0  0  0  0  0  0  0  0  0  0  0
 14 15  2  0  0  0
 14 20  1  0  0  0
 15 16  1  0  0  0
 16 17  1  0  0  0
 16 18  2  0  0  0
 18 19  1  0  0  0
 19 20  2  0  0  0
 20  1  1  0  0  0
  1  2  2  0  0  0
  1  3  2  0  0  0
  1  4  1  0  0  0
  4  5  2  0  0  0
  4  6  1  0  0  0
  5 10  1  0  0  0
  6  7  2  0  0  0
  7  8  1  0  0  0
  7  9  1  0  0  0
  9 10  2  0  0  0
 10 11  1  0  0  0
 11 12  1  0  0  0
 11 13  1  0  0  0
M  END
> <minimizedAffinity>
-8.38604

$$$$
3B25_B2K_A_1


 20 21  0  0  0  0  0  0  0  0999 V2000
   64.1601   11.5216   25.9703 S   0  0  0  0  0  0  0  0  0  0  0  0
   65.0454   12.2881   26.9094 O   0  0  0  0  0  0  0  0  0  0  0  0
   63.5434   10.3375   26.6535 O   0  0  0  0  0  0  0  0  0  0  0  0
   62.8645   12.5326   25.3148 C   0  0  0  0  0  0  0  0  0  0  0  0
   61.6012   12.0460   25.2385 N   0  0  0  0  0  0  0  0  0  0  0  0
   63.1557   13.8044   24.8096 C   0  0  0  0  0  0  0  0  0  0  0  0
   62.1058   14.5739   24.3132 C   0  0  0  0  0  0  0  0  0  0  0  0
   62.3847   15.9856   23.7720 C   0  0  0  0  0  0  0  0  0  0  0  0
   60.8566   14.0554   24.2397 N   0  0  0  0  0  0  0  0  0  0  0  0
   60.6003   12.8236   24.7364 C   0  0  0  0  0  0  0  0  0  0  0  0
   59.3523   12.3981   24.7162 N   0  0  0  0  0  0  0  0  0  0  0  0
   59.1305   11.5064   25.0698 H   0  0  0  0  0  0  0  0  0  0  0  0
   58.6425   12.9721   24.3477 H   0  0  0  0  0  0  0  0  0  0  0  0
   66.4042   11.5234   24.4152 C   0  0  0  0  0  0  0  0  0  0  0  0
   67.1889   11.0796   23.3492 C   0  0  0  0  0  0  0  0  0  0  0  0
   66.7329   10.0538   22.5051 C   0  0  0  0  0  0  0  0  0  0  0  0
   67.6275    9.5612   21.3696 C   0  0  0  0  0  0  0  0  0  0  0  0
   65.4794    9.4726   22.7145 C   0  0  0  0  0  0  0  0  0  0  0  0
   64.6762    9.9621   23.7556 C   0  0  0  0  0  0  0  0  0  0  0  0
   65.1521   10.9568   24.6203 C   0  0  0  0  0  0  0  0  0  0  0  0
 14 15  2  0  0  0
 14 20  1  0  0  0
 15 16  1  0  0  0
 16 17  1  0  0  0
 16 18  2  0  0  0
 18 19  1  0  0  0
 19 20  2  0  0  0
 20  1  1  0  0  0
  1  2  2  0  0  0
  1  3  2  0  0  0
  1  4  1  0  0  0
  4  5  2  0  0  0
  4  6  1  0  0  0
  5 10  1  0  0  0
  6  7  2  0  0  0
  7  8  1  0  0  0
  7  9  1  0  0  0
  9 10  2  0  0  0
 10 11  1  0  0  0
 11 12  1  0  0  0
 11 13  1  0  0  0
M  END
> <minimizedAffinity>
-8.19733

$$$$
3B25_B2K_A_1


 20 21  0  0  0  0  0  0  0  0999 V2000
   64.7971   11.4008   25.5124 S   0  0  0  0  0  0  0  0  0  0  0  0
   65.6087   11.8059   26.7083 O   0  0  0  0  0  0  0  0  0  0  0  0
   65.6809   11.0397   24.3558 O   0  0  0  0  0  0  0  0  0  0  0  0
   63.7431   10.0250   25.8679 C   0  0  0  0  0  0  0  0  0  0  0  0
   63.1745    9.9089   27.0934 N   0  0  0  0  0  0  0  0  0  0  0  0
   63.5542    9.0215   24.9115 C   0  0  0  0  0  0  0  0  0  0  0  0
   62.7073    7.9609   25.2257 C   0  0  0  0  0  0  0  0  0  0  0  0
   62.4573    6.8523   24.1903 C   0  0  0  0  0  0  0  0  0  0  0  0
   62.1632    7.8670   26.4626 N   0  0  0  0  0  0  0  0  0  0  0  0
   62.3597    8.8513   27.3695 C   0  0  0  0  0  0  0  0  0  0  0  0
   61.7407    8.7532   28.5297 N   0  0  0  0  0  0  0  0  0  0  0  0
   61.8614    9.4519   29.2126 H   0  0  0  0  0  0  0  0  0  0  0  0
   61.1578    7.9813   28.7129 H   0  0  0  0  0  0  0  0  0  0  0  0
   64.3520   14.0266   24.9113 C   0  0  0  0  0  0  0  0  0  0  0  0
   63.5481   15.1093   24.5498 C   0  0  0  0  0  0  0  0  0  0  0  0
   62.1764   14.9306   24.3063 C   0  0  0  0  0  0  0  0  0  0  0  0
   61.3276   16.1247   23.8752 C   0  0  0  0  0  0  0  0  0  0  0  0
   61.5956   13.6662   24.4361 C   0  0  0  0  0  0  0  0  0  0  0  0
   62.4012   12.5951   24.8517 C   0  0  0  0  0  0  0  0  0  0  0  0
   63.7768   12.7698   25.0534 C   0  0  0  0  0  0  0  0  0  0  0  0
 14 15  2  0  0  0
 14 20  1  0  0  0
 15 16  1  0  0  0
 16 17  1  0  0  0
 16 18  2  0  0  0
 18 19  1  0  0  0
 19 20  2  0  0  0
 20  1  1  0  0  0
  1  2  2  0  0  0
  1  3  2  0  0  0
  1  4  1  0  0  0
  4  5  2  0  0  0
  4  6  1  0  0  0
  5 10  1  0  0  0
  6  7  2  0  0  0
  7  8  1  0  0  0
  7  9  1  0  0  0
  9 10  2  0  0  0
 10 11  1  0  0  0
 11 12  1  0  0  0
 11 13  1  0  0  0
M  END
> <minimizedAffinity>
-8.16350

$$$$
3B25_B2K_A_1


 20 21  0  0  0  0  0  0  0  0999 V2000
   65.6784   12.6718   25.7905 S   0  0  0  0  0  0  0  0  0  0  0  0
   65.5015   12.3781   27.2518 O   0  0  0  0  0  0  0  0  0  0  0  0
   66.8280   13.6075   25.5619 O   0  0  0  0  0  0  0  0  0  0  0  0
   65.9556   11.1979   24.8520 C   0  0  0  0  0  0  0  0  0  0  0  0
   66.6004   11.2668   23.6611 N   0  0  0  0  0  0  0  0  0  0  0  0
   65.4477    9.9745   25.3024 C   0  0  0  0  0  0  0  0  0  0  0  0
   65.6977    8.8351   24.5407 C   0  0  0  0  0  0  0  0  0  0  0  0
   65.1755    7.4699   25.0170 C   0  0  0  0  0  0  0  0  0  0  0  0
   66.3348    8.9382   23.3497 N   0  0  0  0  0  0  0  0  0  0  0  0
   66.8179   10.1323   22.9369 C   0  0  0  0  0  0  0  0  0  0  0  0
   67.5027   10.1643   21.8106 N   0  0  0  0  0  0  0  0  0  0  0  0
   67.8686   11.0168   21.4810 H   0  0  0  0  0  0  0  0  0  0  0  0
   67.6481    9.3357   21.2992 H   0  0  0  0  0  0  0  0  0  0  0  0
   63.0207   12.6827   25.1655 C   0  0  0  0  0  0  0  0  0  0  0  0
   61.8469   13.2771   24.6985 C   0  0  0  0  0  0  0  0  0  0  0  0
   61.8402   14.6211   24.2904 C   0  0  0  0  0  0  0  0  0  0  0  0
   60.5340   15.2572   23.8199 C   0  0  0  0  0  0  0  0  0  0  0  0
   63.0142   15.3777   24.3345 C   0  0  0  0  0  0  0  0  0  0  0  0
   64.2000   14.7562   24.7548 C   0  0  0  0  0  0  0  0  0  0  0  0
   64.1933   13.4275   25.1998 C   0  0  0  0  0  0  0  0  0  0  0  0
 14 15  2  0  0  0
 14 20  1  0  0  0
 15 16  1  0  0  0
 16 17  1  0  0  0
 16 18  2  0  0  0
 18 19  1  0  0  0
 19 20  2  0  0  0
 20  1  1  0  0  0
  1  2  2  0  0  0
  1  3  2  0  0  0
  1  4  1  0  0  0
  4  5  2  0  0  0
  4  6  1  0  0  0
  5 10  1  0  0  0
  6  7  2  0  0  0
  7  8  1  0  0  0
  7  9  1  0  0  0
  9 10  2  0  0  0
 10 11  1  0  0  0
 11 12  1  0  0  0
 11 13  1  0  0  0
M  END
> <minimizedAffinity>
-7.93314

$$$$
3B25_B2K_A_1


 20 21  0  0  0  0  0  0  0  0999 V2000
   63.6795   10.7584   25.5065 S   0  0  0  0  0  0  0  0  0  0  0  0
   63.2436   10.0186   26.7377 O   0  0  0  0  0  0  0  0  0  0  0  0
   63.7941    9.8334   24.3316 O   0  0  0  0  0  0  0  0  0  0  0  0
   62.5581   12.0622   25.0907 C   0  0  0  0  0  0  0  0  0  0  0  0
   61.2257   11.8160   25.0385 N   0  0  0  0  0  0  0  0  0  0  0  0
   63.0497   13.3260   24.7461 C   0  0  0  0  0  0  0  0  0  0  0  0
   62.1337   14.3289   24.4367 C   0  0  0  0  0  0  0  0  0  0  0  0
   62.6367   15.7363   24.0766 C   0  0  0  0  0  0  0  0  0  0  0  0
   60.8095   14.0488   24.3817 N   0  0  0  0  0  0  0  0  0  0  0  0
   60.3589   12.8192   24.7210 C   0  0  0  0  0  0  0  0  0  0  0  0
   59.0553   12.6216   24.7315 N   0  0  0  0  0  0  0  0  0  0  0  0
   58.6932   11.7387   24.9738 H   0  0  0  0  0  0  0  0  0  0  0  0
   58.4440   13.3569   24.4972 H   0  0  0  0  0  0  0  0  0  0  0  0
   66.3661   11.0403   25.1101 C   0  0  0  0  0  0  0  0  0  0  0  0
   67.6166   11.6063   25.3653 C   0  0  0  0  0  0  0  0  0  0  0  0
   67.7578   12.6253   26.3215 C   0  0  0  0  0  0  0  0  0  0  0  0
   69.1303   13.2533   26.5536 C   0  0  0  0  0  0  0  0  0  0  0  0
   66.6478   13.0770   27.0404 C   0  0  0  0  0  0  0  0  0  0  0  0
   65.4054   12.4651   26.8148 C   0  0  0  0  0  0  0  0  0  0  0  0
   65.2616   11.4777   25.8309 C   0  0  0  0  0  0  0  0  0  0  0  0
 14 15  2  0  0  0
 14 20  1  0  0  0
 15 16  1  0  0  0
 16 17  1  0  0  0
 16 18  2  0  0  0
 18 19  1  0  0  0
 19 20  2  0  0  0
 20  1  1  0  0  0
  1  2  2  0  0  0
  1  3  2  0  0  0
  1  4  1  0  0  0
  4  5  2  0  0  0
  4  6  1  0  0  0
  5 10  1  0  0  0
  6  7  2  0  0  0
  7  8  1  0  0  0
  7  9  1  0  0  0
  9 10  2  0  0  0
 10 11  1  0  0  0
 11 12  1  0  0  0
 11 13  1  0  0  0
M  END
> <minimizedAffinity>
-7.58365

$$$$
3B25_B2K_A_1


 20 21  0  0  0  0  0  0  0  0999 V2000
   64.3743   11.7190   25.9440 S   0  0  0  0  0  0  0  0  0  0  0  0
   65.2291   12.5217   26.8810 O   0  0  0  0  0  0  0  0  0  0  0  0
   63.7543   10.5478   26.6463 O   0  0  0  0  0  0  0  0  0  0  0  0
   63.0838   12.6963   25.2300 C   0  0  0  0  0  0  0  0  0  0  0  0
   63.3198   13.9905   24.9016 N   0  0  0  0  0  0  0  0  0  0  0  0
   61.8026   12.1570   25.0712 C   0  0  0  0  0  0  0  0  0  0  0  0
   60.8172   12.9550   24.4941 C   0  0  0  0  0  0  0  0  0  0  0  0
   59.4041   12.3878   24.2820 C   0  0  0  0  0  0  0  0  0  0  0  0
   61.0807   14.2478   24.1873 N   0  0  0  0  0  0  0  0  0  0  0  0
   62.3282   14.7454   24.3488 C   0  0  0  0  0  0  0  0  0  0  0  0
   62.5532   15.9843   23.9575 N   0  0  0  0  0  0  0  0  0  0  0  0
   63.4497   16.3779   24.0604 H   0  0  0  0  0  0  0  0  0  0  0  0
   61.8247   16.5158   23.5624 H   0  0  0  0  0  0  0  0  0  0  0  0
   64.9174   10.1444   23.7807 C   0  0  0  0  0  0  0  0  0  0  0  0
   65.7288    9.6751   22.7461 C   0  0  0  0  0  0  0  0  0  0  0  0
   67.0145   10.2055   22.5499 C   0  0  0  0  0  0  0  0  0  0  0  0
   67.8664    9.7009   21.3872 C   0  0  0  0  0  0  0  0  0  0  0  0
   67.5033   11.2027   23.3980 C   0  0  0  0  0  0  0  0  0  0  0  0
   66.7010   11.6298   24.4671 C   0  0  0  0  0  0  0  0  0  0  0  0
   65.4036   11.1274   24.6340 C   0  0  0  0  0  0  0  0  0  0  0  0
 14 15  2  0  0  0
 14 20  1  0  0  0
 15 16  1  0  0  0
 16 17  1  0  0  0
 16 18  2  0  0  0
 18 19  1  0  0  0
 19 20  2  0  0  0
 20  1  1  0  0  0
  1  2  2  0  0  0
  1  3  2  0  0  0
  1  4  1  0  0  0
  4  5  2  0  0  0
  4  6  1  0  0  0
  5 10  1  0  0  0
  6  7  2  0  0  0
  7  8  1  0  0  0
  7  9  1  0  0  0
  9 10  2  0  0  0
 10 11  1  0  0  0
 11 12  1  0  0  0
 11 13  1  0  0  0
M  END
> <minimizedAffinity>
-7.55864

$$$$
3B25_B2K_A_1


 20 21  0  0  0  0  0  0  0  0999 V2000
   65.1690   12.7833   25.7075 S   0  0  0  0  0  0  0  0  0  0  0  0
   65.2549   12.3461   27.1409 O   0  0  0  0  0  0  0  0  0  0  0  0
   65.7074   14.1721   25.5323 O   0  0  0  0  0  0  0  0  0  0  0  0
   66.0576   11.6941   24.6331 C   0  0  0  0  0  0  0  0  0  0  0  0
   67.3969   11.8409   24.4798 N   0  0  0  0  0  0  0  0  0  0  0  0
   65.3700   10.7300   23.8879 C   0  0  0  0  0  0  0  0  0  0  0  0
   66.1073    9.8839   23.0625 C   0  0  0  0  0  0  0  0  0  0  0  0
   65.3880    8.7971   22.2472 C   0  0  0  0  0  0  0  0  0  0  0  0
   67.4426   10.0631   22.9218 N   0  0  0  0  0  0  0  0  0  0  0  0
   68.0847   11.0015   23.6547 C   0  0  0  0  0  0  0  0  0  0  0  0
   69.3962   11.0801   23.5429 N   0  0  0  0  0  0  0  0  0  0  0  0
   69.8951   11.7516   24.0619 H   0  0  0  0  0  0  0  0  0  0  0  0
   69.8765   10.4673   22.9404 H   0  0  0  0  0  0  0  0  0  0  0  0
   62.9212   13.8776   24.6102 C   0  0  0  0  0  0  0  0  0  0  0  0
   61.5775   13.8613   24.2318 C   0  0  0  0  0  0  0  0  0  0  0  0
   60.7882   12.7199   24.4483 C   0  0  0  0  0  0  0  0  0  0  0  0
   59.3314   12.7154   23.9901 C   0  0  0  0  0  0  0  0  0  0  0  0
   61.3362   11.5885   25.0587 C   0  0  0  0  0  0  0  0  0  0  0  0
   62.6727   11.6339   25.4836 C   0  0  0  0  0  0  0  0  0  0  0  0
   63.4674   12.7594   25.2283 C   0  0  0  0  0  0  0  0  0  0  0  0
 14 15  2  0  0  0
 14 20  1  0  0  0
 15 16  1  0  0  0
 16 17  1  0  0  0
 16 18  2  0  0  0
 18 19  1  0  0  0
 19 20  2  0  0  0
 20  1  1  0  0  0
  1  2  2  0  0  0
  1  3  2  0  0  0
  1  4  1  0  0  0
  4  5  2  0  0  0
  4  6  1  0  0  0
  5 10  1  0  0  0
  6  7  2  0  0  0
  7  8  1  0  0  0
  7  9  1  0  0  0
  9 10  2  0  0  0
 10 11  1  0  0  0
 11 12  1  0  0  0
 11 13  1  0  0  0
M  END
> <minimizedAffinity>
-7.54574

$$$$
