186L_N4B_A_400


 10 10  0  0  0  0  0  0  0  0999 V2000
   27.1564    7.0769    4.2932 C   0  0  0  0  0  0  0  0  0  0  0  0
   26.6987    5.8965    3.6681 C   0  0  0  0  0  0  0  0  0  0  0  0
   25.9547    4.9874    4.3789 C   0  0  0  0  0  0  0  0  0  0  0  0
   25.6730    5.2272    5.7155 C   0  0  0  0  0  0  0  0  0  0  0  0
   26.0977    6.3821    6.3055 C   0  0  0  0  0  0  0  0  0  0  0  0
   26.8427    7.3059    5.6011 C   0  0  0  0  0  0  0  0  0  0  0  0
   28.0456    8.0585    3.5801 C   0  0  0  0  0  0  0  0  0  0  0  0
   28.2305    7.6088    2.1335 C   0  0  0  0  0  0  0  0  0  0  0  0
   27.8538    8.7000    1.1465 C   0  0  0  0  0  0  0  0  0  0  0  0
   27.5209    9.9992    1.8172 C   0  0  0  0  0  0  0  0  0  0  0  0
  1  2  2  0  0  0
  1  6  1  0  0  0
  1  7  1  0  0  0
  2  3  1  0  0  0
  3  4  2  0  0  0
  4  5  1  0  0  0
  5  6  2  0  0  0
  7  8  1  0  0  0
  8  9  1  0  0  0
  9 10  1  0  0  0
M  END
> <minimizedAffinity>
-7.29236

$$$$
186L_N4B_A_400


 10 10  0  0  0  0  0  0  0  0999 V2000
   27.1415    6.7989    3.8766 C   0  0  0  0  0  0  0  0  0  0  0  0
   27.0705    7.3995    5.1525 C   0  0  0  0  0  0  0  0  0  0  0  0
   26.3978    6.7704    6.1709 C   0  0  0  0  0  0  0  0  0  0  0  0
   25.7750    5.5543    5.9330 C   0  0  0  0  0  0  0  0  0  0  0  0
   25.8694    4.9685    4.7042 C   0  0  0  0  0  0  0  0  0  0  0  0
   26.5461    5.5882    3.6733 C   0  0  0  0  0  0  0  0  0  0  0  0
   27.7925    7.4899    2.7098 C   0  0  0  0  0  0  0  0  0  0  0  0
   27.8225    8.9933    2.9703 C   0  0  0  0  0  0  0  0  0  0  0  0
   27.3789    9.7895    1.7555 C   0  0  0  0  0  0  0  0  0  0  0  0
   27.4193    8.9871    0.4894 C   0  0  0  0  0  0  0  0  0  0  0  0
  1  2  2  0  0  0
  1  6  1  0  0  0
  1  7  1  0  0  0
  2  3  1  0  0  0
  3  4  2  0  0  0
  4  5  1  0  0  0
  5  6  2  0  0  0
  7  8  1  0  0  0
  8  9  1  0  0  0
  9 10  1  0  0  0
M  END
> <minimizedAffinity>
-7.24969

$$$$
186L_N4B_A_400


 10 10  0  0  0  0  0  0  0  0999 V2000
   26.8452    7.0940    4.3469 C   0  0  0  0  0  0  0  0  0  0  0  0
   26.5890    7.2219    5.7295 C   0  0  0  0  0  0  0  0  0  0  0  0
   26.0202    6.1812    6.4215 C   0  0  0  0  0  0  0  0  0  0  0  0
   25.6832    5.0148    5.7512 C   0  0  0  0  0  0  0  0  0  0  0  0
   25.9569    4.8897    4.4202 C   0  0  0  0  0  0  0  0  0  0  0  0
   26.5321    5.9265    3.7139 C   0  0  0  0  0  0  0  0  0  0  0  0
   27.3864    8.2363    3.5315 C   0  0  0  0  0  0  0  0  0  0  0  0
   28.3558    7.6914    2.4863 C   0  0  0  0  0  0  0  0  0  0  0  0
   28.0340    8.2012    1.0923 C   0  0  0  0  0  0  0  0  0  0  0  0
   27.7690    9.6768    1.0609 C   0  0  0  0  0  0  0  0  0  0  0  0
  1  2  2  0  0  0
  1  6  1  0  0  0
  1  7  1  0  0  0
  2  3  1  0  0  0
  3  4  2  0  0  0
  4  5  1  0  0  0
  5  6  2  0  0  0
  7  8  1  0  0  0
  8  9  1  0  0  0
  9 10  1  0  0  0
M  END
> <minimizedAffinity>
-6.87669

$$$$
186L_N4B_A_400


 10 10  0  0  0  0  0  0  0  0999 V2000
   27.8411    8.2495    3.3565 C   0  0  0  0  0  0  0  0  0  0  0  0
   27.1714    9.4149    2.9240 C   0  0  0  0  0  0  0  0  0  0  0  0
   27.1683    9.7508    1.5927 C   0  0  0  0  0  0  0  0  0  0  0  0
   27.8412    8.9502    0.6818 C   0  0  0  0  0  0  0  0  0  0  0  0
   28.4649    7.8123    1.1042 C   0  0  0  0  0  0  0  0  0  0  0  0
   28.4718    7.4611    2.4388 C   0  0  0  0  0  0  0  0  0  0  0  0
   27.9442    7.8883    4.8131 C   0  0  0  0  0  0  0  0  0  0  0  0
   26.5416    7.6939    5.3822 C   0  0  0  0  0  0  0  0  0  0  0  0
   26.4257    6.4075    6.1812 C   0  0  0  0  0  0  0  0  0  0  0  0
   25.6005    5.3656    5.4870 C   0  0  0  0  0  0  0  0  0  0  0  0
  1  2  2  0  0  0
  1  6  1  0  0  0
  1  7  1  0  0  0
  2  3  1  0  0  0
  3  4  2  0  0  0
  4  5  1  0  0  0
  5  6  2  0  0  0
  7  8  1  0  0  0
  8  9  1  0  0  0
  9 10  1  0  0  0
M  END
> <minimizedAffinity>
-6.84056

$$$$
186L_N4B_A_400


 10 10  0  0  0  0  0  0  0  0999 V2000
   27.9247    8.2844    3.4678 C   0  0  0  0  0  0  0  0  0  0  0  0
   28.5110    7.4847    2.4627 C   0  0  0  0  0  0  0  0  0  0  0  0
   28.3949    7.8460    1.1431 C   0  0  0  0  0  0  0  0  0  0  0  0
   27.6841    8.9877    0.8046 C   0  0  0  0  0  0  0  0  0  0  0  0
   27.1418    9.7687    1.7834 C   0  0  0  0  0  0  0  0  0  0  0  0
   27.2548    9.4190    3.1137 C   0  0  0  0  0  0  0  0  0  0  0  0
   27.9521    7.8831    4.9172 C   0  0  0  0  0  0  0  0  0  0  0  0
   26.5207    7.7048    5.4155 C   0  0  0  0  0  0  0  0  0  0  0  0
   26.3292    6.3795    6.1321 C   0  0  0  0  0  0  0  0  0  0  0  0
   25.5433    5.3909    5.3235 C   0  0  0  0  0  0  0  0  0  0  0  0
  1  2  2  0  0  0
  1  6  1  0  0  0
  1  7  1  0  0  0
  2  3  1  0  0  0
  3  4  2  0  0  0
  4  5  1  0  0  0
  5  6  2  0  0  0
  7  8  1  0  0  0
  8  9  1  0  0  0
  9 10  1  0  0  0
M  END
> <minimizedAffinity>
-6.75642

$$$$
186L_N4B_A_400


 10 10  0  0  0  0  0  0  0  0999 V2000
   27.4999    7.8950    3.0134 C   0  0  0  0  0  0  0  0  0  0  0  0
   28.2380    7.4301    1.9031 C   0  0  0  0  0  0  0  0  0  0  0  0
   28.4323    8.2474    0.8170 C   0  0  0  0  0  0  0  0  0  0  0  0
   27.8844    9.5214    0.8107 C   0  0  0  0  0  0  0  0  0  0  0  0
   27.1937    9.9723    1.8978 C   0  0  0  0  0  0  0  0  0  0  0  0
   26.9948    9.1624    2.9974 C   0  0  0  0  0  0  0  0  0  0  0  0
   27.1886    7.0071    4.1870 C   0  0  0  0  0  0  0  0  0  0  0  0
   26.6304    5.6809    3.6784 C   0  0  0  0  0  0  0  0  0  0  0  0
   25.6556    5.0595    4.6634 C   0  0  0  0  0  0  0  0  0  0  0  0
   25.8390    5.5697    6.0615 C   0  0  0  0  0  0  0  0  0  0  0  0
  1  2  2  0  0  0
  1  6  1  0  0  0
  1  7  1  0  0  0
  2  3  1  0  0  0
  3  4  2  0  0  0
  4  5  1  0  0  0
  5  6  2  0  0  0
  7  8  1  0  0  0
  8  9  1  0  0  0
  9 10  1  0  0  0
M  END
> <minimizedAffinity>
-6.53107

$$$$
186L_N4B_A_400


 10 10  0  0  0  0  0  0  0  0999 V2000
   27.5042    7.7304    4.5107 C   0  0  0  0  0  0  0  0  0  0  0  0
   26.4879    8.5946    4.0482 C   0  0  0  0  0  0  0  0  0  0  0  0
   26.5582    9.1213    2.7821 C   0  0  0  0  0  0  0  0  0  0  0  0
   27.6402    8.8143    1.9707 C   0  0  0  0  0  0  0  0  0  0  0  0
   28.6055    7.9586    2.4158 C   0  0  0  0  0  0  0  0  0  0  0  0
   28.5446    7.4191    3.6847 C   0  0  0  0  0  0  0  0  0  0  0  0
   27.5139    7.1990    5.9179 C   0  0  0  0  0  0  0  0  0  0  0  0
   26.1137    6.7116    6.2797 C   0  0  0  0  0  0  0  0  0  0  0  0
   25.8988    5.2597    5.8893 C   0  0  0  0  0  0  0  0  0  0  0  0
   25.2034    5.1108    4.5690 C   0  0  0  0  0  0  0  0  0  0  0  0
  1  2  2  0  0  0
  1  6  1  0  0  0
  1  7  1  0  0  0
  2  3  1  0  0  0
  3  4  2  0  0  0
  4  5  1  0  0  0
  5  6  2  0  0  0
  7  8  1  0  0  0
  8  9  1  0  0  0
  9 10  1  0  0  0
M  END
> <minimizedAffinity>
-6.16834

$$$$
186L_N4B_A_400


 10 10  0  0  0  0  0  0  0  0999 V2000
   26.5958    6.8424    4.4279 C   0  0  0  0  0  0  0  0  0  0  0  0
   25.8825    6.1917    5.4582 C   0  0  0  0  0  0  0  0  0  0  0  0
   25.6623    4.8381    5.3916 C   0  0  0  0  0  0  0  0  0  0  0  0
   26.1274    4.1204    4.2999 C   0  0  0  0  0  0  0  0  0  0  0  0
   26.8375    4.7522    3.3206 C   0  0  0  0  0  0  0  0  0  0  0  0
   27.0693    6.1115    3.3776 C   0  0  0  0  0  0  0  0  0  0  0  0
   26.7863    8.3344    4.4151 C   0  0  0  0  0  0  0  0  0  0  0  0
   28.2156    8.6540    3.9863 C   0  0  0  0  0  0  0  0  0  0  0  0
   28.2662    9.2971    2.6113 C   0  0  0  0  0  0  0  0  0  0  0  0
   26.9036    9.5556    2.0412 C   0  0  0  0  0  0  0  0  0  0  0  0
  1  2  2  0  0  0
  1  6  1  0  0  0
  1  7  1  0  0  0
  2  3  1  0  0  0
  3  4  2  0  0  0
  4  5  1  0  0  0
  5  6  2  0  0  0
  7  8  1  0  0  0
  8  9  1  0  0  0
  9 10  1  0  0  0
M  END
> <minimizedAffinity>
-6.12316

$$$$
186L_N4B_A_400


 10 10  0  0  0  0  0  0  0  0999 V2000
   27.0270    6.4621    3.1509 C   0  0  0  0  0  0  0  0  0  0  0  0
   26.6394    7.6869    3.7367 C   0  0  0  0  0  0  0  0  0  0  0  0
   27.1091    8.8715    3.2253 C   0  0  0  0  0  0  0  0  0  0  0  0
   27.9786    8.8553    2.1451 C   0  0  0  0  0  0  0  0  0  0  0  0
   28.3286    7.6688    1.5689 C   0  0  0  0  0  0  0  0  0  0  0  0
   27.8603    6.4715    2.0706 C   0  0  0  0  0  0  0  0  0  0  0  0
   26.6074    5.1384    3.7292 C   0  0  0  0  0  0  0  0  0  0  0  0
   25.2933    5.3151    4.4849 C   0  0  0  0  0  0  0  0  0  0  0  0
   25.4836    5.2103    5.9880 C   0  0  0  0  0  0  0  0  0  0  0  0
   26.8774    5.5533    6.4217 C   0  0  0  0  0  0  0  0  0  0  0  0
  1  2  2  0  0  0
  1  6  1  0  0  0
  1  7  1  0  0  0
  2  3  1  0  0  0
  3  4  2  0  0  0
  4  5  1  0  0  0
  5  6  2  0  0  0
  7  8  1  0  0  0
  8  9  1  0  0  0
  9 10  1  0  0  0
M  END
> <minimizedAffinity>
-5.07608

$$$$
186L_N4B_A_400


 10 10  0  0  0  0  0  0  0  0999 V2000
   26.5772    7.2746    4.4179 C   0  0  0  0  0  0  0  0  0  0  0  0
   25.6743    6.2424    4.0819 C   0  0  0  0  0  0  0  0  0  0  0  0
   25.2838    5.3347    5.0353 C   0  0  0  0  0  0  0  0  0  0  0  0
   25.7953    5.4276    6.3210 C   0  0  0  0  0  0  0  0  0  0  0  0
   26.6479    6.4429    6.6442 C   0  0  0  0  0  0  0  0  0  0  0  0
   27.0450    7.3641    5.6964 C   0  0  0  0  0  0  0  0  0  0  0  0
   27.0992    8.2383    3.3876 C   0  0  0  0  0  0  0  0  0  0  0  0
   27.5824    7.4568    2.1691 C   0  0  0  0  0  0  0  0  0  0  0  0
   28.4025    6.2405    2.5625 C   0  0  0  0  0  0  0  0  0  0  0  0
   27.7594    4.9496    2.1520 C   0  0  0  0  0  0  0  0  0  0  0  0
  1  2  2  0  0  0
  1  6  1  0  0  0
  1  7  1  0  0  0
  2  3  1  0  0  0
  3  4  2  0  0  0
  4  5  1  0  0  0
  5  6  2  0  0  0
  7  8  1  0  0  0
  8  9  1  0  0  0
  9 10  1  0  0  0
M  END
> <minimizedAffinity>
-4.93957

$$$$
