3IOG_SDF_A_311


 17 17  0  0  0  0  0  0  0  0999 V2000
    3.3941    4.0271   68.2652 S   0  0  0  0  0  0  0  0  0  0  0  0
    4.7496    3.6827   69.4162 C   0  0  0  0  0  0  0  0  0  0  0  0
    3.7435    3.6152   67.0171 H   0  0  0  0  0  0  0  0  0  0  0  0
    5.1191    2.2507   69.2172 C   0  0  0  0  0  0  0  0  0  0  0  0
    7.6962    2.9435   70.0424 Cl  0  0  0  0  0  0  0  0  0  0  0  0
    6.4502    1.8485   69.4011 C   0  0  0  0  0  0  0  0  0  0  0  0
    6.6040   -2.0808   68.4066 Cl  0  0  0  0  0  0  0  0  0  0  0  0
    6.8813    0.5440   69.1642 C   0  0  0  0  0  0  0  0  0  0  0  0
    5.9959   -0.4055   68.6905 C   0  0  0  0  0  0  0  0  0  0  0  0
    4.6750   -0.0167   68.4459 C   0  0  0  0  0  0  0  0  0  0  0  0
    4.2499    1.3025   68.6830 C   0  0  0  0  0  0  0  0  0  0  0  0
    4.3211    4.2188   71.0947 P   0  0  0  0  0  0  0  0  0  0  0  0
    5.5093    4.9398   71.6984 O   0  0  0  0  0  0  0  0  0  0  0  0
    3.1570    5.1540   70.8798 O   0  0  0  0  0  0  0  0  0  0  0  0
    4.0018    2.9783   71.9106 O   0  0  0  0  0  0  0  0  0  0  0  0
    6.2386    4.3127   71.8235 H   0  0  0  0  0  0  0  0  0  0  0  0
    4.8009    2.4357   72.0001 H   0  0  0  0  0  0  0  0  0  0  0  0
  4  2  1  0  0  0
  4 11  1  0  0  0
 12 13  1  0  0  0
 12 15  1  0  0  0
  1  2  1  0  0  0
  5  6  1  0  0  0
  6  4  2  0  0  0
  7  9  1  0  0  0
  8  6  1  0  0  0
  8  9  2  0  0  0
  9 10  1  0  0  0
 10 11  2  0  0  0
  2 12  1  0  0  0
 14 12  2  0  0  0
  1  3  1  0  0  0
 13 16  1  0  0  0
 15 17  1  0  0  0
M  END
> <minimizedAffinity>
-6.64792

$$$$
3IOG_SDF_A_311


 17 17  0  0  0  0  0  0  0  0999 V2000
    4.2814    3.9246   69.1213 S   0  0  0  0  0  0  0  0  0  0  0  0
    5.7065    2.8316   69.3559 C   0  0  0  0  0  0  0  0  0  0  0  0
    3.6409    3.5932   67.9682 H   0  0  0  0  0  0  0  0  0  0  0  0
    5.1994    1.4368   69.1996 C   0  0  0  0  0  0  0  0  0  0  0  0
    7.7109    0.7860   68.1646 Cl  0  0  0  0  0  0  0  0  0  0  0  0
    6.0148    0.4688   68.5950 C   0  0  0  0  0  0  0  0  0  0  0  0
    3.7821   -2.9079   68.3405 Cl  0  0  0  0  0  0  0  0  0  0  0  0
    5.5816   -0.8338   68.3517 C   0  0  0  0  0  0  0  0  0  0  0  0
    4.2899   -1.2078   68.6703 C   0  0  0  0  0  0  0  0  0  0  0  0
    3.4386   -0.2461   69.2235 C   0  0  0  0  0  0  0  0  0  0  0  0
    3.8823    1.0670   69.4609 C   0  0  0  0  0  0  0  0  0  0  0  0
    6.5884    3.2427   70.8861 P   0  0  0  0  0  0  0  0  0  0  0  0
    6.4365    2.0952   71.8640 O   0  0  0  0  0  0  0  0  0  0  0  0
    8.0199    3.4008   70.4365 O   0  0  0  0  0  0  0  0  0  0  0  0
    5.9574    4.4982   71.4623 O   0  0  0  0  0  0  0  0  0  0  0  0
    5.5075    2.0204   72.1329 H   0  0  0  0  0  0  0  0  0  0  0  0
    5.0429    4.3093   71.7245 H   0  0  0  0  0  0  0  0  0  0  0  0
  4  2  1  0  0  0
  4 11  1  0  0  0
 12 13  1  0  0  0
 12 15  1  0  0  0
  1  2  1  0  0  0
  5  6  1  0  0  0
  6  4  2  0  0  0
  7  9  1  0  0  0
  8  6  1  0  0  0
  8  9  2  0  0  0
  9 10  1  0  0  0
 10 11  2  0  0  0
  2 12  1  0  0  0
 14 12  2  0  0  0
  1  3  1  0  0  0
 13 16  1  0  0  0
 15 17  1  0  0  0
M  END
> <minimizedAffinity>
-6.37186

$$$$
3IOG_SDF_A_311


 17 17  0  0  0  0  0  0  0  0999 V2000
    4.9074    4.0054   70.9458 S   0  0  0  0  0  0  0  0  0  0  0  0
    6.0826    3.2415   69.7985 C   0  0  0  0  0  0  0  0  0  0  0  0
    3.7805    4.3590   70.2717 H   0  0  0  0  0  0  0  0  0  0  0  0
    5.3296    2.1813   69.0664 C   0  0  0  0  0  0  0  0  0  0  0  0
    5.0381    4.0195   66.9834 Cl  0  0  0  0  0  0  0  0  0  0  0  0
    4.7549    2.4767   67.8215 C   0  0  0  0  0  0  0  0  0  0  0  0
    2.7080   -0.8384   66.6931 Cl  0  0  0  0  0  0  0  0  0  0  0  0
    3.9788    1.5591   67.1148 C   0  0  0  0  0  0  0  0  0  0  0  0
    3.7126    0.3141   67.6522 C   0  0  0  0  0  0  0  0  0  0  0  0
    4.2279    0.0140   68.9172 C   0  0  0  0  0  0  0  0  0  0  0  0
    5.0056    0.9474   69.6252 C   0  0  0  0  0  0  0  0  0  0  0  0
    7.6015    2.7551   70.6615 P   0  0  0  0  0  0  0  0  0  0  0  0
    7.2340    2.1659   72.0083 O   0  0  0  0  0  0  0  0  0  0  0  0
    8.2078    1.7168   69.7502 O   0  0  0  0  0  0  0  0  0  0  0  0
    8.4439    4.0034   70.8574 O   0  0  0  0  0  0  0  0  0  0  0  0
    6.8480    2.8569   72.5691 H   0  0  0  0  0  0  0  0  0  0  0  0
    7.9829    4.6143   71.4533 H   0  0  0  0  0  0  0  0  0  0  0  0
  4  2  1  0  0  0
  4 11  1  0  0  0
 12 13  1  0  0  0
 12 15  1  0  0  0
  1  2  1  0  0  0
  5  6  1  0  0  0
  6  4  2  0  0  0
  7  9  1  0  0  0
  8  6  1  0  0  0
  8  9  2  0  0  0
  9 10  1  0  0  0
 10 11  2  0  0  0
  2 12  1  0  0  0
 14 12  2  0  0  0
  1  3  1  0  0  0
 13 16  1  0  0  0
 15 17  1  0  0  0
M  END
> <minimizedAffinity>
-6.19606

$$$$
3IOG_SDF_A_311


 17 17  0  0  0  0  0  0  0  0999 V2000
    1.4740    2.0051   68.4272 S   0  0  0  0  0  0  0  0  0  0  0  0
    2.5238    3.3762   68.9736 C   0  0  0  0  0  0  0  0  0  0  0  0
    2.1900    1.1814   67.6158 H   0  0  0  0  0  0  0  0  0  0  0  0
    3.7751    2.7633   69.5080 C   0  0  0  0  0  0  0  0  0  0  0  0
    5.1035    3.9163   67.3381 Cl  0  0  0  0  0  0  0  0  0  0  0  0
    4.9706    2.8921   68.7859 C   0  0  0  0  0  0  0  0  0  0  0  0
    7.7561    0.7331   70.7940 Cl  0  0  0  0  0  0  0  0  0  0  0  0
    6.1605    2.2865   69.1872 C   0  0  0  0  0  0  0  0  0  0  0  0
    6.1884    1.4882   70.3149 C   0  0  0  0  0  0  0  0  0  0  0  0
    4.9971    1.2983   71.0224 C   0  0  0  0  0  0  0  0  0  0  0  0
    3.8003    1.9089   70.6077 C   0  0  0  0  0  0  0  0  0  0  0  0
    1.6031    4.4991   70.0599 P   0  0  0  0  0  0  0  0  0  0  0  0
    0.8701    3.6812   71.1039 O   0  0  0  0  0  0  0  0  0  0  0  0
    2.6815    5.3514   70.6816 O   0  0  0  0  0  0  0  0  0  0  0  0
    0.6037    5.2572   69.2038 O   0  0  0  0  0  0  0  0  0  0  0  0
    0.1854    3.1459   70.6731 H   0  0  0  0  0  0  0  0  0  0  0  0
   -0.0506    4.6374   68.8452 H   0  0  0  0  0  0  0  0  0  0  0  0
  4  2  1  0  0  0
  4 11  1  0  0  0
 12 13  1  0  0  0
 12 15  1  0  0  0
  1  2  1  0  0  0
  5  6  1  0  0  0
  6  4  2  0  0  0
  7  9  1  0  0  0
  8  6  1  0  0  0
  8  9  2  0  0  0
  9 10  1  0  0  0
 10 11  2  0  0  0
  2 12  1  0  0  0
 14 12  2  0  0  0
  1  3  1  0  0  0
 13 16  1  0  0  0
 15 17  1  0  0  0
M  END
> <minimizedAffinity>
-6.13029

$$$$
3IOG_SDF_A_311


 17 17  0  0  0  0  0  0  0  0999 V2000
    2.4996    3.1899   69.9091 S   0  0  0  0  0  0  0  0  0  0  0  0
    4.2989    3.3538   69.7811 C   0  0  0  0  0  0  0  0  0  0  0  0
    1.9692    3.0331   68.6667 H   0  0  0  0  0  0  0  0  0  0  0  0
    4.7689    2.2096   68.9464 C   0  0  0  0  0  0  0  0  0  0  0  0
    5.0277    4.0289   66.8427 Cl  0  0  0  0  0  0  0  0  0  0  0  0
    5.0424    2.4133   67.5859 C   0  0  0  0  0  0  0  0  0  0  0  0
    5.9850   -1.2221   66.0535 Cl  0  0  0  0  0  0  0  0  0  0  0  0
    5.4160    1.3776   66.7306 C   0  0  0  0  0  0  0  0  0  0  0  0
    5.4904    0.0803   67.2009 C   0  0  0  0  0  0  0  0  0  0  0  0
    5.1689   -0.1587   68.5408 C   0  0  0  0  0  0  0  0  0  0  0  0
    4.7883    0.8912   69.3952 C   0  0  0  0  0  0  0  0  0  0  0  0
    5.0446    3.5651   71.4206 P   0  0  0  0  0  0  0  0  0  0  0  0
    5.3055    5.0393   71.6551 O   0  0  0  0  0  0  0  0  0  0  0  0
    3.9896    3.0337   72.3590 O   0  0  0  0  0  0  0  0  0  0  0  0
    6.3567    2.8006   71.4356 O   0  0  0  0  0  0  0  0  0  0  0  0
    5.9865    5.3493   71.0378 H   0  0  0  0  0  0  0  0  0  0  0  0
    6.9746    3.2064   70.8076 H   0  0  0  0  0  0  0  0  0  0  0  0
  4  2  1  0  0  0
  4 11  1  0  0  0
 12 13  1  0  0  0
 12 15  1  0  0  0
  1  2  1  0  0  0
  5  6  1  0  0  0
  6  4  2  0  0  0
  7  9  1  0  0  0
  8  6  1  0  0  0
  8  9  2  0  0  0
  9 10  1  0  0  0
 10 11  2  0  0  0
  2 12  1  0  0  0
 14 12  2  0  0  0
  1  3  1  0  0  0
 13 16  1  0  0  0
 15 17  1  0  0  0
M  END
> <minimizedAffinity>
-6.04919

$$$$
3IOG_SDF_A_311


 17 17  0  0  0  0  0  0  0  0999 V2000
    2.8372    4.0882   67.4753 S   0  0  0  0  0  0  0  0  0  0  0  0
    3.5208    3.7241   69.1126 C   0  0  0  0  0  0  0  0  0  0  0  0
    3.8046    3.9244   66.5335 H   0  0  0  0  0  0  0  0  0  0  0  0
    4.1905    2.3949   69.0048 C   0  0  0  0  0  0  0  0  0  0  0  0
    6.3959    3.5574   70.2646 Cl  0  0  0  0  0  0  0  0  0  0  0  0
    5.5201    2.2547   69.4287 C   0  0  0  0  0  0  0  0  0  0  0  0
    6.6077   -1.5501   68.5382 Cl  0  0  0  0  0  0  0  0  0  0  0  0
    6.2312    1.0633   69.2924 C   0  0  0  0  0  0  0  0  0  0  0  0
    5.6455   -0.0302   68.6835 C   0  0  0  0  0  0  0  0  0  0  0  0
    4.3390    0.1001   68.2018 C   0  0  0  0  0  0  0  0  0  0  0  0
    3.6308    1.3071   68.3390 C   0  0  0  0  0  0  0  0  0  0  0  0
    2.2587    3.9317   70.3981 P   0  0  0  0  0  0  0  0  0  0  0  0
    0.9363    3.4056   69.8777 O   0  0  0  0  0  0  0  0  0  0  0  0
    2.7771    3.0929   71.5400 O   0  0  0  0  0  0  0  0  0  0  0  0
    2.1411    5.4159   70.6976 O   0  0  0  0  0  0  0  0  0  0  0  0
    0.6311    3.9651   69.1464 H   0  0  0  0  0  0  0  0  0  0  0  0
    1.8025    5.8779   69.9148 H   0  0  0  0  0  0  0  0  0  0  0  0
  4  2  1  0  0  0
  4 11  1  0  0  0
 12 13  1  0  0  0
 12 15  1  0  0  0
  1  2  1  0  0  0
  5  6  1  0  0  0
  6  4  2  0  0  0
  7  9  1  0  0  0
  8  6  1  0  0  0
  8  9  2  0  0  0
  9 10  1  0  0  0
 10 11  2  0  0  0
  2 12  1  0  0  0
 14 12  2  0  0  0
  1  3  1  0  0  0
 13 16  1  0  0  0
 15 17  1  0  0  0
M  END
> <minimizedAffinity>
-5.88365

$$$$
3IOG_SDF_A_311


 17 17  0  0  0  0  0  0  0  0999 V2000
    4.8192    3.9734   70.9163 S   0  0  0  0  0  0  0  0  0  0  0  0
    6.0940    3.3739   69.7779 C   0  0  0  0  0  0  0  0  0  0  0  0
    3.7330    4.3809   70.2066 H   0  0  0  0  0  0  0  0  0  0  0  0
    5.4257    2.3922   68.8743 C   0  0  0  0  0  0  0  0  0  0  0  0
    4.4682    1.1330   71.1765 Cl  0  0  0  0  0  0  0  0  0  0  0  0
    4.7372    1.3021   69.4268 C   0  0  0  0  0  0  0  0  0  0  0  0
    3.4843   -0.9599   66.3017 Cl  0  0  0  0  0  0  0  0  0  0  0  0
    4.1506    0.3085   68.6444 C   0  0  0  0  0  0  0  0  0  0  0  0
    4.2679    0.3476   67.2680 C   0  0  0  0  0  0  0  0  0  0  0  0
    4.9967    1.3942   66.6941 C   0  0  0  0  0  0  0  0  0  0  0  0
    5.5893    2.3896   67.4912 C   0  0  0  0  0  0  0  0  0  0  0  0
    7.5615    2.8204   70.6881 P   0  0  0  0  0  0  0  0  0  0  0  0
    7.1344    2.3284   72.0562 O   0  0  0  0  0  0  0  0  0  0  0  0
    8.0998    1.6956   69.8388 O   0  0  0  0  0  0  0  0  0  0  0  0
    8.4924    4.0112   70.8359 O   0  0  0  0  0  0  0  0  0  0  0  0
    6.7941    3.0734   72.5759 H   0  0  0  0  0  0  0  0  0  0  0  0
    8.0710    4.6837   71.3936 H   0  0  0  0  0  0  0  0  0  0  0  0
  4  2  1  0  0  0
  4 11  1  0  0  0
 12 13  1  0  0  0
 12 15  1  0  0  0
  1  2  1  0  0  0
  5  6  1  0  0  0
  6  4  2  0  0  0
  7  9  1  0  0  0
  8  6  1  0  0  0
  8  9  2  0  0  0
  9 10  1  0  0  0
 10 11  2  0  0  0
  2 12  1  0  0  0
 14 12  2  0  0  0
  1  3  1  0  0  0
 13 16  1  0  0  0
 15 17  1  0  0  0
M  END
> <minimizedAffinity>
-5.64555

$$$$
3IOG_SDF_A_311


 17 17  0  0  0  0  0  0  0  0999 V2000
    6.4544    0.8254   68.9993 S   0  0  0  0  0  0  0  0  0  0  0  0
    5.6451    2.1220   69.9711 C   0  0  0  0  0  0  0  0  0  0  0  0
    5.5146    0.1144   68.3204 H   0  0  0  0  0  0  0  0  0  0  0  0
    4.7417    2.8510   69.0334 C   0  0  0  0  0  0  0  0  0  0  0  0
    2.8898    2.9624   71.1216 Cl  0  0  0  0  0  0  0  0  0  0  0  0
    3.4474    3.1963   69.4491 C   0  0  0  0  0  0  0  0  0  0  0  0
    1.6275    4.8796   66.2386 Cl  0  0  0  0  0  0  0  0  0  0  0  0
    2.5258    3.8135   68.6045 C   0  0  0  0  0  0  0  0  0  0  0  0
    2.8549    4.0732   67.2876 C   0  0  0  0  0  0  0  0  0  0  0  0
    4.1200    3.6887   66.8322 C   0  0  0  0  0  0  0  0  0  0  0  0
    5.0417    3.0621   67.6897 C   0  0  0  0  0  0  0  0  0  0  0  0
    6.8676    3.0941   70.8926 P   0  0  0  0  0  0  0  0  0  0  0  0
    6.1932    4.3324   71.4475 O   0  0  0  0  0  0  0  0  0  0  0  0
    7.3027    2.1600   71.9946 O   0  0  0  0  0  0  0  0  0  0  0  0
    7.9665    3.4956   69.9243 O   0  0  0  0  0  0  0  0  0  0  0  0
    5.9263    4.9105   70.7159 H   0  0  0  0  0  0  0  0  0  0  0  0
    7.6029    4.0930   69.2523 H   0  0  0  0  0  0  0  0  0  0  0  0
  4  2  1  0  0  0
  4 11  1  0  0  0
 12 13  1  0  0  0
 12 15  1  0  0  0
  1  2  1  0  0  0
  5  6  1  0  0  0
  6  4  2  0  0  0
  7  9  1  0  0  0
  8  6  1  0  0  0
  8  9  2  0  0  0
  9 10  1  0  0  0
 10 11  2  0  0  0
  2 12  1  0  0  0
 14 12  2  0  0  0
  1  3  1  0  0  0
 13 16  1  0  0  0
 15 17  1  0  0  0
M  END
> <minimizedAffinity>
-5.52570

$$$$
3IOG_SDF_A_311


 17 17  0  0  0  0  0  0  0  0999 V2000
    4.6975    4.1388   68.0494 S   0  0  0  0  0  0  0  0  0  0  0  0
    5.6313    3.4161   69.4229 C   0  0  0  0  0  0  0  0  0  0  0  0
    5.2782    3.7861   66.8712 H   0  0  0  0  0  0  0  0  0  0  0  0
    5.7846    1.9646   69.1119 C   0  0  0  0  0  0  0  0  0  0  0  0
    3.0107    1.8803   68.7943 Cl  0  0  0  0  0  0  0  0  0  0  0  0
    4.6423    1.1800   68.8950 C   0  0  0  0  0  0  0  0  0  0  0  0
    5.9499   -2.6267   68.3931 Cl  0  0  0  0  0  0  0  0  0  0  0  0
    4.7057   -0.1945   68.6706 C   0  0  0  0  0  0  0  0  0  0  0  0
    5.9232   -0.8477   68.6961 C   0  0  0  0  0  0  0  0  0  0  0  0
    7.0725   -0.0977   68.9653 C   0  0  0  0  0  0  0  0  0  0  0  0
    6.9989    1.2875   69.1954 C   0  0  0  0  0  0  0  0  0  0  0  0
    4.8867    3.8645   71.0144 P   0  0  0  0  0  0  0  0  0  0  0  0
    3.5291    4.4890   70.7629 O   0  0  0  0  0  0  0  0  0  0  0  0
    4.7635    2.5426   71.7310 O   0  0  0  0  0  0  0  0  0  0  0  0
    5.8015    4.8730   71.6870 O   0  0  0  0  0  0  0  0  0  0  0  0
    3.6428    5.3350   70.3021 H   0  0  0  0  0  0  0  0  0  0  0  0
    5.8231    5.6893   71.1635 H   0  0  0  0  0  0  0  0  0  0  0  0
  4  2  1  0  0  0
  4 11  1  0  0  0
 12 13  1  0  0  0
 12 15  1  0  0  0
  1  2  1  0  0  0
  5  6  1  0  0  0
  6  4  2  0  0  0
  7  9  1  0  0  0
  8  6  1  0  0  0
  8  9  2  0  0  0
  9 10  1  0  0  0
 10 11  2  0  0  0
  2 12  1  0  0  0
 14 12  2  0  0  0
  1  3  1  0  0  0
 13 16  1  0  0  0
 15 17  1  0  0  0
M  END
> <minimizedAffinity>
-5.42171

$$$$
3IOG_SDF_A_311


 17 17  0  0  0  0  0  0  0  0999 V2000
    1.5438    4.1466   67.8732 S   0  0  0  0  0  0  0  0  0  0  0  0
    3.0226    4.1075   68.9184 C   0  0  0  0  0  0  0  0  0  0  0  0
    1.9018    3.9613   66.5743 H   0  0  0  0  0  0  0  0  0  0  0  0
    3.7638    2.8642   68.5554 C   0  0  0  0  0  0  0  0  0  0  0  0
    5.1442    4.4004   66.6747 Cl  0  0  0  0  0  0  0  0  0  0  0  0
    4.6832    2.8922   67.4965 C   0  0  0  0  0  0  0  0  0  0  0  0
    6.0097   -0.9131   67.0351 Cl  0  0  0  0  0  0  0  0  0  0  0  0
    5.3580    1.7544   67.0563 C   0  0  0  0  0  0  0  0  0  0  0  0
    5.1043    0.5269   67.6383 C   0  0  0  0  0  0  0  0  0  0  0  0
    4.1509    0.4616   68.6594 C   0  0  0  0  0  0  0  0  0  0  0  0
    3.4714    1.6135   69.0939 C   0  0  0  0  0  0  0  0  0  0  0  0
    2.5858    4.3516   70.6614 P   0  0  0  0  0  0  0  0  0  0  0  0
    1.3315    3.5590   70.9690 O   0  0  0  0  0  0  0  0  0  0  0  0
    3.7808    3.8067   71.4040 O   0  0  0  0  0  0  0  0  0  0  0  0
    2.3242    5.8327   70.8712 O   0  0  0  0  0  0  0  0  0  0  0  0
    0.5837    3.9335   70.4776 H   0  0  0  0  0  0  0  0  0  0  0  0
    1.5432    6.0986   70.3612 H   0  0  0  0  0  0  0  0  0  0  0  0
  4  2  1  0  0  0
  4 11  1  0  0  0
 12 13  1  0  0  0
 12 15  1  0  0  0
  1  2  1  0  0  0
  5  6  1  0  0  0
  6  4  2  0  0  0
  7  9  1  0  0  0
  8  6  1  0  0  0
  8  9  2  0  0  0
  9 10  1  0  0  0
 10 11  2  0  0  0
  2 12  1  0  0  0
 14 12  2  0  0  0
  1  3  1  0  0  0
 13 16  1  0  0  0
 15 17  1  0  0  0
M  END
> <minimizedAffinity>
-5.28826

$$$$
