4RHX_3QF_A_301


 39 40  0  0  0  0  0  0  0  0999 V2000
   -5.6411   13.3690  123.0191 N   0  0  0  0  0  0  0  0  0  0  0  0
   -4.8348   12.8259  121.9234 C   0  0  0  0  0  0  0  0  0  0  0  0
   -5.2192   11.3449  121.6055 C   0  0  0  0  0  0  0  0  0  0  0  0
   -4.1032   10.7023  120.9210 N   0  0  0  0  0  0  0  0  0  0  0  0
   -3.8784    9.3699  121.5347 C   0  0  0  0  0  0  0  0  0  0  0  0
   -3.7902    9.4547  123.1100 C   0  0  0  0  0  0  0  0  0  0  0  0
   -4.6481    8.1078  125.3448 O   0  0  0  0  0  0  0  0  0  0  0  0
   -4.9265    8.1998  123.8756 P   0  0  0  0  0  0  0  0  0  0  0  0
   -4.7099    6.8531  123.2378 O   0  0  0  0  0  0  0  0  0  0  0  0
   -6.3436    8.6343  123.6643 O   0  0  0  0  0  0  0  0  0  0  0  0
   -3.7302    7.8263  125.4830 H   0  0  0  0  0  0  0  0  0  0  0  0
   -6.5250    8.6943  122.7133 H   0  0  0  0  0  0  0  0  0  0  0  0
   -4.3988   10.5531  119.4647 C   0  0  0  0  0  0  0  0  0  0  0  0
   -3.3496   11.3100  118.6304 C   0  0  0  0  0  0  0  0  0  0  0  0
   -3.0545   12.4911  118.9183 O   0  0  0  0  0  0  0  0  0  0  0  0
   -5.7223   14.7750  122.8918 C   0  0  0  0  0  0  0  0  0  0  0  0
   -5.3092   15.2053  121.4994 C   0  0  0  0  0  0  0  0  0  0  0  0
   -5.5161   17.0423  121.2267 P   0  0  0  0  0  0  0  0  0  0  0  0
   -5.2373   17.3581  119.7824 O   0  0  0  0  0  0  0  0  0  0  0  0
   -6.9403   17.4469  121.5743 O   0  0  0  0  0  0  0  0  0  0  0  0
   -4.5496   17.8140  122.0939 O   0  0  0  0  0  0  0  0  0  0  0  0
   -7.0491   18.4004  121.4332 H   0  0  0  0  0  0  0  0  0  0  0  0
   -4.6676   18.7648  121.9425 H   0  0  0  0  0  0  0  0  0  0  0  0
   -4.9948   13.0226  124.2924 C   0  0  0  0  0  0  0  0  0  0  0  0
   -3.9649   14.1086  124.7027 C   0  0  0  0  0  0  0  0  0  0  0  0
   -4.2274   14.5566  126.1032 N   0  0  0  0  0  0  0  0  0  0  0  0
   -4.1616   13.7767  127.2188 C   0  0  0  0  0  0  0  0  0  0  0  0
   -3.8640   12.4571  127.4905 N   0  0  0  0  0  0  0  0  0  0  0  0
   -3.8820   11.9808  128.7181 C   0  0  0  0  0  0  0  0  0  0  0  0
   -3.5687   10.6138  128.9376 N   0  0  0  0  0  0  0  0  0  0  0  0
   -4.1985   12.7679  129.7983 N   0  0  0  0  0  0  0  0  0  0  0  0
   -4.5003   14.0492  129.6522 C   0  0  0  0  0  0  0  0  0  0  0  0
   -4.8238   14.8480  130.7670 O   0  0  0  0  0  0  0  0  0  0  0  0
   -4.4880   14.6085  128.3047 C   0  0  0  0  0  0  0  0  0  0  0  0
   -4.7364   15.8517  127.7739 N   0  0  0  0  0  0  0  0  0  0  0  0
   -4.5792   15.8118  126.4658 C   0  0  0  0  0  0  0  0  0  0  0  0
   -3.3392   10.0330  128.1766 H   0  0  0  0  0  0  0  0  0  0  0  0
   -3.5808   10.2465  129.8510 H   0  0  0  0  0  0  0  0  0  0  0  0
   -4.2011   12.3716  130.6995 H   0  0  0  0  0  0  0  0  0  0  0  0
 15 14  2  0  0  0
 14 13  1  0  0  0
 13  4  1  0  0  0
 19 18  2  0  0  0
  4  3  1  0  0  0
  4  5  1  0  0  0
  3  2  1  0  0  0
 18 20  1  0  0  0
 18 21  1  0  0  0
 18 17  1  0  0  0
  6  5  1  0  0  0
  6  8  1  0  0  0
 17 16  1  0  0  0
 16  1  1  0  0  0
  2  1  1  0  0  0
  1 24  1  0  0  0
  9  8  2  0  0  0
  8 10  1  0  0  0
  8  7  1  0  0  0
 24 25  1  0  0  0
 25 26  1  0  0  0
 26 36  1  0  0  0
 26 27  1  0  0  0
 36 35  2  0  0  0
 27 28  1  0  0  0
 27 34  2  0  0  0
 28 29  2  0  0  0
 35 34  1  0  0  0
 34 32  1  0  0  0
 29 30  1  0  0  0
 29 31  1  0  0  0
 32 31  1  0  0  0
 32 33  2  0  0  0
  7 11  1  0  0  0
 10 12  1  0  0  0
 20 22  1  0  0  0
 21 23  1  0  0  0
 30 37  1  0  0  0
 30 38  1  0  0  0
 31 39  1  0  0  0
M  END
> <minimizedAffinity>
-8.58625

$$$$
4RHX_3QF_A_301


 39 40  0  0  0  0  0  0  0  0999 V2000
   -2.3418   12.9444  125.1667 N   0  0  0  0  0  0  0  0  0  0  0  0
   -2.0484   11.8870  124.1964 C   0  0  0  0  0  0  0  0  0  0  0  0
   -3.3511   11.3457  123.5240 C   0  0  0  0  0  0  0  0  0  0  0  0
   -3.0911   11.1107  122.1083 N   0  0  0  0  0  0  0  0  0  0  0  0
   -3.2820    9.6659  121.8278 C   0  0  0  0  0  0  0  0  0  0  0  0
   -3.2631    8.8018  123.1506 C   0  0  0  0  0  0  0  0  0  0  0  0
   -5.6581    8.4452  124.4470 O   0  0  0  0  0  0  0  0  0  0  0  0
   -4.8600    7.8672  123.3184 P   0  0  0  0  0  0  0  0  0  0  0  0
   -4.5789    6.4139  123.5943 O   0  0  0  0  0  0  0  0  0  0  0  0
   -5.6352    7.9964  122.0441 O   0  0  0  0  0  0  0  0  0  0  0  0
   -5.1569    8.3620  125.2733 H   0  0  0  0  0  0  0  0  0  0  0  0
   -5.1194    7.6226  121.3126 H   0  0  0  0  0  0  0  0  0  0  0  0
   -4.0166   11.9239  121.2644 C   0  0  0  0  0  0  0  0  0  0  0  0
   -5.0117   11.0054  120.5323 C   0  0  0  0  0  0  0  0  0  0  0  0
   -6.1913   10.9111  120.9381 O   0  0  0  0  0  0  0  0  0  0  0  0
   -3.6827   12.8270  125.5999 C   0  0  0  0  0  0  0  0  0  0  0  0
   -3.7372   12.5901  127.0950 C   0  0  0  0  0  0  0  0  0  0  0  0
   -3.4068   10.8082  127.5503 P   0  0  0  0  0  0  0  0  0  0  0  0
   -4.2414    9.9151  126.6731 O   0  0  0  0  0  0  0  0  0  0  0  0
   -1.9324   10.4990  127.3416 O   0  0  0  0  0  0  0  0  0  0  0  0
   -3.7720   10.5588  128.9946 O   0  0  0  0  0  0  0  0  0  0  0  0
   -1.7595    9.5742  127.5776 H   0  0  0  0  0  0  0  0  0  0  0  0
   -3.5958    9.6313  129.2172 H   0  0  0  0  0  0  0  0  0  0  0  0
   -2.1431   14.2462  124.5149 C   0  0  0  0  0  0  0  0  0  0  0  0
   -3.2002   15.2738  124.9996 C   0  0  0  0  0  0  0  0  0  0  0  0
   -3.6824   16.0914  123.8464 N   0  0  0  0  0  0  0  0  0  0  0  0
   -4.6860   15.7524  122.9889 C   0  0  0  0  0  0  0  0  0  0  0  0
   -5.5520   14.6877  122.8467 N   0  0  0  0  0  0  0  0  0  0  0  0
   -6.4495   14.6478  121.8839 C   0  0  0  0  0  0  0  0  0  0  0  0
   -7.3132   13.5255  121.7852 N   0  0  0  0  0  0  0  0  0  0  0  0
   -6.5757   15.6615  120.9657 N   0  0  0  0  0  0  0  0  0  0  0  0
   -5.7961   16.7312  121.0090 C   0  0  0  0  0  0  0  0  0  0  0  0
   -5.9336   17.7656  120.0621 O   0  0  0  0  0  0  0  0  0  0  0  0
   -4.7919   16.8071  122.0648 C   0  0  0  0  0  0  0  0  0  0  0  0
   -3.8348   17.7268  122.4215 N   0  0  0  0  0  0  0  0  0  0  0  0
   -3.1807   17.2936  123.4808 C   0  0  0  0  0  0  0  0  0  0  0  0
   -7.2386   12.7885  122.4337 H   0  0  0  0  0  0  0  0  0  0  0  0
   -7.9867   13.4842  121.0683 H   0  0  0  0  0  0  0  0  0  0  0  0
   -7.2596   15.5914  120.2610 H   0  0  0  0  0  0  0  0  0  0  0  0
 15 14  2  0  0  0
 14 13  1  0  0  0
 13  4  1  0  0  0
 19 18  2  0  0  0
  4  3  1  0  0  0
  4  5  1  0  0  0
  3  2  1  0  0  0
 18 20  1  0  0  0
 18 21  1  0  0  0
 18 17  1  0  0  0
  6  5  1  0  0  0
  6  8  1  0  0  0
 17 16  1  0  0  0
 16  1  1  0  0  0
  2  1  1  0  0  0
  1 24  1  0  0  0
  9  8  2  0  0  0
  8 10  1  0  0  0
  8  7  1  0  0  0
 24 25  1  0  0  0
 25 26  1  0  0  0
 26 36  1  0  0  0
 26 27  1  0  0  0
 36 35  2  0  0  0
 27 28  1  0  0  0
 27 34  2  0  0  0
 28 29  2  0  0  0
 35 34  1  0  0  0
 34 32  1  0  0  0
 29 30  1  0  0  0
 29 31  1  0  0  0
 32 31  1  0  0  0
 32 33  2  0  0  0
  7 11  1  0  0  0
 10 12  1  0  0  0
 20 22  1  0  0  0
 21 23  1  0  0  0
 30 37  1  0  0  0
 30 38  1  0  0  0
 31 39  1  0  0  0
M  END
> <minimizedAffinity>
-8.34021

$$$$
4RHX_3QF_A_301


 39 40  0  0  0  0  0  0  0  0999 V2000
   -1.6660   11.8338  122.5130 N   0  0  0  0  0  0  0  0  0  0  0  0
   -2.5425   11.3751  121.4327 C   0  0  0  0  0  0  0  0  0  0  0  0
   -2.1385    9.9520  120.9291 C   0  0  0  0  0  0  0  0  0  0  0  0
   -3.2273    9.4066  120.1266 N   0  0  0  0  0  0  0  0  0  0  0  0
   -3.9547    8.4013  120.9408 C   0  0  0  0  0  0  0  0  0  0  0  0
   -3.2055    7.0103  120.9657 C   0  0  0  0  0  0  0  0  0  0  0  0
   -2.2256    7.2538  123.5201 O   0  0  0  0  0  0  0  0  0  0  0  0
   -3.1206    6.3688  122.7073 P   0  0  0  0  0  0  0  0  0  0  0  0
   -2.5777    4.9643  122.7123 O   0  0  0  0  0  0  0  0  0  0  0  0
   -4.4970    6.3781  123.2964 O   0  0  0  0  0  0  0  0  0  0  0  0
   -1.3334    7.2486  123.1394 H   0  0  0  0  0  0  0  0  0  0  0  0
   -5.0774    5.8055  122.7710 H   0  0  0  0  0  0  0  0  0  0  0  0
   -4.1588   10.4935  119.7012 C   0  0  0  0  0  0  0  0  0  0  0  0
   -5.6164   10.0054  119.7842 C   0  0  0  0  0  0  0  0  0  0  0  0
   -6.4594   10.6599  120.4369 O   0  0  0  0  0  0  0  0  0  0  0  0
   -2.0947   11.2717  123.7377 C   0  0  0  0  0  0  0  0  0  0  0  0
   -3.3915   11.9115  124.1888 C   0  0  0  0  0  0  0  0  0  0  0  0
   -4.7845   10.6754  124.3421 P   0  0  0  0  0  0  0  0  0  0  0  0
   -4.2081    9.2857  124.3512 O   0  0  0  0  0  0  0  0  0  0  0  0
   -5.5407   10.9253  125.6377 O   0  0  0  0  0  0  0  0  0  0  0  0
   -5.7334   10.8062  123.1742 O   0  0  0  0  0  0  0  0  0  0  0  0
   -6.2641   10.2843  125.7186 H   0  0  0  0  0  0  0  0  0  0  0  0
   -6.4506   10.1596  123.2664 H   0  0  0  0  0  0  0  0  0  0  0  0
   -1.7410   13.2994  122.5865 C   0  0  0  0  0  0  0  0  0  0  0  0
   -1.9348   13.9142  121.1749 C   0  0  0  0  0  0  0  0  0  0  0  0
   -2.9058   15.0471  121.2414 N   0  0  0  0  0  0  0  0  0  0  0  0
   -4.2550   14.9369  121.3984 C   0  0  0  0  0  0  0  0  0  0  0  0
   -5.1550   13.9019  121.5481 N   0  0  0  0  0  0  0  0  0  0  0  0
   -6.4461   14.1204  121.6876 C   0  0  0  0  0  0  0  0  0  0  0  0
   -7.3256   13.0160  121.8362 N   0  0  0  0  0  0  0  0  0  0  0  0
   -6.9721   15.3892  121.6916 N   0  0  0  0  0  0  0  0  0  0  0  0
   -6.1989   16.4558  121.5554 C   0  0  0  0  0  0  0  0  0  0  0  0
   -6.7485   17.7533  121.5606 O   0  0  0  0  0  0  0  0  0  0  0  0
   -4.7631   16.2482  121.4002 C   0  0  0  0  0  0  0  0  0  0  0  0
   -3.6800   17.0790  121.2398 N   0  0  0  0  0  0  0  0  0  0  0  0
   -2.5810   16.3572  121.1465 C   0  0  0  0  0  0  0  0  0  0  0  0
   -6.9683   12.0986  121.8359 H   0  0  0  0  0  0  0  0  0  0  0  0
   -8.2929   13.1675  121.9394 H   0  0  0  0  0  0  0  0  0  0  0  0
   -7.9436   15.5081  121.7977 H   0  0  0  0  0  0  0  0  0  0  0  0
 15 14  2  0  0  0
 14 13  1  0  0  0
 13  4  1  0  0  0
 19 18  2  0  0  0
  4  3  1  0  0  0
  4  5  1  0  0  0
  3  2  1  0  0  0
 18 20  1  0  0  0
 18 21  1  0  0  0
 18 17  1  0  0  0
  6  5  1  0  0  0
  6  8  1  0  0  0
 17 16  1  0  0  0
 16  1  1  0  0  0
  2  1  1  0  0  0
  1 24  1  0  0  0
  9  8  2  0  0  0
  8 10  1  0  0  0
  8  7  1  0  0  0
 24 25  1  0  0  0
 25 26  1  0  0  0
 26 36  1  0  0  0
 26 27  1  0  0  0
 36 35  2  0  0  0
 27 28  1  0  0  0
 27 34  2  0  0  0
 28 29  2  0  0  0
 35 34  1  0  0  0
 34 32  1  0  0  0
 29 30  1  0  0  0
 29 31  1  0  0  0
 32 31  1  0  0  0
 32 33  2  0  0  0
  7 11  1  0  0  0
 10 12  1  0  0  0
 20 22  1  0  0  0
 21 23  1  0  0  0
 30 37  1  0  0  0
 30 38  1  0  0  0
 31 39  1  0  0  0
M  END
> <minimizedAffinity>
-8.14382

$$$$
4RHX_3QF_A_301


 39 40  0  0  0  0  0  0  0  0999 V2000
   -2.5862   12.5545  124.9512 N   0  0  0  0  0  0  0  0  0  0  0  0
   -3.3919   11.4645  124.3958 C   0  0  0  0  0  0  0  0  0  0  0  0
   -3.6141   11.6389  122.8588 C   0  0  0  0  0  0  0  0  0  0  0  0
   -4.4483   10.5454  122.3737 N   0  0  0  0  0  0  0  0  0  0  0  0
   -5.2882   10.0596  123.4967 C   0  0  0  0  0  0  0  0  0  0  0  0
   -5.7200    8.5525  123.2997 C   0  0  0  0  0  0  0  0  0  0  0  0
   -4.0643    7.4537  121.4036 O   0  0  0  0  0  0  0  0  0  0  0  0
   -4.2328    7.5167  122.8910 P   0  0  0  0  0  0  0  0  0  0  0  0
   -4.4102    6.1242  123.4360 O   0  0  0  0  0  0  0  0  0  0  0  0
   -3.0195    8.1454  123.5027 O   0  0  0  0  0  0  0  0  0  0  0  0
   -4.8498    7.0465  121.0061 H   0  0  0  0  0  0  0  0  0  0  0  0
   -3.1275    8.1867  124.4657 H   0  0  0  0  0  0  0  0  0  0  0  0
   -5.3141   11.0077  121.2481 C   0  0  0  0  0  0  0  0  0  0  0  0
   -5.7313   12.4732  121.4672 C   0  0  0  0  0  0  0  0  0  0  0  0
   -6.9342   12.7598  121.6564 O   0  0  0  0  0  0  0  0  0  0  0  0
   -3.1950   13.0347  126.1337 C   0  0  0  0  0  0  0  0  0  0  0  0
   -4.2300   12.0485  126.6345 C   0  0  0  0  0  0  0  0  0  0  0  0
   -3.4952   10.7469  127.7559 P   0  0  0  0  0  0  0  0  0  0  0  0
   -3.7427   11.1369  129.1878 O   0  0  0  0  0  0  0  0  0  0  0  0
   -4.1510    9.4051  127.4693 O   0  0  0  0  0  0  0  0  0  0  0  0
   -2.0062   10.6365  127.5271 O   0  0  0  0  0  0  0  0  0  0  0  0
   -3.7705    8.7284  128.0508 H   0  0  0  0  0  0  0  0  0  0  0  0
   -1.6381    9.9583  128.1148 H   0  0  0  0  0  0  0  0  0  0  0  0
   -2.5112   13.6345  123.9578 C   0  0  0  0  0  0  0  0  0  0  0  0
   -3.1090   14.9495  124.5251 C   0  0  0  0  0  0  0  0  0  0  0  0
   -4.2122   15.4308  123.6407 N   0  0  0  0  0  0  0  0  0  0  0  0
   -4.0627   15.9951  122.4093 C   0  0  0  0  0  0  0  0  0  0  0  0
   -3.0027   16.3049  121.5821 N   0  0  0  0  0  0  0  0  0  0  0  0
   -3.1832   16.8634  120.4033 C   0  0  0  0  0  0  0  0  0  0  0  0
   -2.0546   17.1615  119.5955 N   0  0  0  0  0  0  0  0  0  0  0  0
   -4.4350   17.1708  119.9290 N   0  0  0  0  0  0  0  0  0  0  0  0
   -5.5229   16.9164  120.6402 C   0  0  0  0  0  0  0  0  0  0  0  0
   -6.8026   17.2358  120.1445 O   0  0  0  0  0  0  0  0  0  0  0  0
   -5.3574   16.2963  121.9505 C   0  0  0  0  0  0  0  0  0  0  0  0
   -6.2188   15.8945  122.9433 N   0  0  0  0  0  0  0  0  0  0  0  0
   -5.5301   15.3815  123.9433 C   0  0  0  0  0  0  0  0  0  0  0  0
   -1.1488   16.9489  119.9175 H   0  0  0  0  0  0  0  0  0  0  0  0
   -2.1776   17.5807  118.7133 H   0  0  0  0  0  0  0  0  0  0  0  0
   -4.5255   17.5888  119.0422 H   0  0  0  0  0  0  0  0  0  0  0  0
 15 14  2  0  0  0
 14 13  1  0  0  0
 13  4  1  0  0  0
 19 18  2  0  0  0
  4  3  1  0  0  0
  4  5  1  0  0  0
  3  2  1  0  0  0
 18 20  1  0  0  0
 18 21  1  0  0  0
 18 17  1  0  0  0
  6  5  1  0  0  0
  6  8  1  0  0  0
 17 16  1  0  0  0
 16  1  1  0  0  0
  2  1  1  0  0  0
  1 24  1  0  0  0
  9  8  2  0  0  0
  8 10  1  0  0  0
  8  7  1  0  0  0
 24 25  1  0  0  0
 25 26  1  0  0  0
 26 36  1  0  0  0
 26 27  1  0  0  0
 36 35  2  0  0  0
 27 28  1  0  0  0
 27 34  2  0  0  0
 28 29  2  0  0  0
 35 34  1  0  0  0
 34 32  1  0  0  0
 29 30  1  0  0  0
 29 31  1  0  0  0
 32 31  1  0  0  0
 32 33  2  0  0  0
  7 11  1  0  0  0
 10 12  1  0  0  0
 20 22  1  0  0  0
 21 23  1  0  0  0
 30 37  1  0  0  0
 30 38  1  0  0  0
 31 39  1  0  0  0
M  END
> <minimizedAffinity>
-8.12913

$$$$
4RHX_3QF_A_301


 39 40  0  0  0  0  0  0  0  0999 V2000
   -2.7825   11.9129  124.6009 N   0  0  0  0  0  0  0  0  0  0  0  0
   -2.7468   11.1843  123.3307 C   0  0  0  0  0  0  0  0  0  0  0  0
   -3.7750   10.0076  123.3133 C   0  0  0  0  0  0  0  0  0  0  0  0
   -3.4868    9.1433  122.1746 N   0  0  0  0  0  0  0  0  0  0  0  0
   -2.4995    8.1194  122.5983 C   0  0  0  0  0  0  0  0  0  0  0  0
   -2.1599    7.1104  121.4307 C   0  0  0  0  0  0  0  0  0  0  0  0
   -1.3395    4.8118  122.6908 O   0  0  0  0  0  0  0  0  0  0  0  0
   -2.5282    5.3712  121.9706 P   0  0  0  0  0  0  0  0  0  0  0  0
   -2.8379    4.5150  120.7713 O   0  0  0  0  0  0  0  0  0  0  0  0
   -3.7065    5.3882  122.8942 O   0  0  0  0  0  0  0  0  0  0  0  0
   -0.5754    4.8004  122.0933 H   0  0  0  0  0  0  0  0  0  0  0  0
   -4.4768    5.7502  122.4290 H   0  0  0  0  0  0  0  0  0  0  0  0
   -4.7354    8.4826  121.6901 C   0  0  0  0  0  0  0  0  0  0  0  0
   -5.8231    8.5419  122.7778 C   0  0  0  0  0  0  0  0  0  0  0  0
   -6.9816    8.1421  122.5268 O   0  0  0  0  0  0  0  0  0  0  0  0
   -4.1058   11.9259  125.0991 C   0  0  0  0  0  0  0  0  0  0  0  0
   -4.1096   12.2256  126.5839 C   0  0  0  0  0  0  0  0  0  0  0  0
   -3.4629   10.7996  127.6038 P   0  0  0  0  0  0  0  0  0  0  0  0
   -3.6913   11.0959  129.0611 O   0  0  0  0  0  0  0  0  0  0  0  0
   -4.2008    9.5273  127.2175 O   0  0  0  0  0  0  0  0  0  0  0  0
   -1.9829   10.6129  127.3664 O   0  0  0  0  0  0  0  0  0  0  0  0
   -3.8661    8.7861  127.7463 H   0  0  0  0  0  0  0  0  0  0  0  0
   -1.6608    9.8706  127.9012 H   0  0  0  0  0  0  0  0  0  0  0  0
   -2.3280   13.2899  124.3637 C   0  0  0  0  0  0  0  0  0  0  0  0
   -1.9894   13.5097  122.8653 C   0  0  0  0  0  0  0  0  0  0  0  0
   -2.6763   14.7369  122.3623 N   0  0  0  0  0  0  0  0  0  0  0  0
   -3.9945   14.8378  122.0315 C   0  0  0  0  0  0  0  0  0  0  0  0
   -5.0841   13.9914  122.0285 N   0  0  0  0  0  0  0  0  0  0  0  0
   -6.2761   14.3970  121.6428 C   0  0  0  0  0  0  0  0  0  0  0  0
   -7.3606   13.4811  121.6590 N   0  0  0  0  0  0  0  0  0  0  0  0
   -6.5044   15.6840  121.2208 N   0  0  0  0  0  0  0  0  0  0  0  0
   -5.5297   16.5799  121.1839 C   0  0  0  0  0  0  0  0  0  0  0  0
   -5.7744   17.8977  120.7491 O   0  0  0  0  0  0  0  0  0  0  0  0
   -4.1969   16.1629  121.6063 C   0  0  0  0  0  0  0  0  0  0  0  0
   -2.9764   16.7874  121.7040 N   0  0  0  0  0  0  0  0  0  0  0  0
   -2.0791   15.9331  122.1540 C   0  0  0  0  0  0  0  0  0  0  0  0
   -7.2176   12.5541  121.9582 H   0  0  0  0  0  0  0  0  0  0  0  0
   -8.2557   13.7729  121.3711 H   0  0  0  0  0  0  0  0  0  0  0  0
   -7.4109   15.9458  120.9400 H   0  0  0  0  0  0  0  0  0  0  0  0
 15 14  2  0  0  0
 14 13  1  0  0  0
 13  4  1  0  0  0
 19 18  2  0  0  0
  4  3  1  0  0  0
  4  5  1  0  0  0
  3  2  1  0  0  0
 18 20  1  0  0  0
 18 21  1  0  0  0
 18 17  1  0  0  0
  6  5  1  0  0  0
  6  8  1  0  0  0
 17 16  1  0  0  0
 16  1  1  0  0  0
  2  1  1  0  0  0
  1 24  1  0  0  0
  9  8  2  0  0  0
  8 10  1  0  0  0
  8  7  1  0  0  0
 24 25  1  0  0  0
 25 26  1  0  0  0
 26 36  1  0  0  0
 26 27  1  0  0  0
 36 35  2  0  0  0
 27 28  1  0  0  0
 27 34  2  0  0  0
 28 29  2  0  0  0
 35 34  1  0  0  0
 34 32  1  0  0  0
 29 30  1  0  0  0
 29 31  1  0  0  0
 32 31  1  0  0  0
 32 33  2  0  0  0
  7 11  1  0  0  0
 10 12  1  0  0  0
 20 22  1  0  0  0
 21 23  1  0  0  0
 30 37  1  0  0  0
 30 38  1  0  0  0
 31 39  1  0  0  0
M  END
> <minimizedAffinity>
-8.02281

$$$$
4RHX_3QF_A_301


 39 40  0  0  0  0  0  0  0  0999 V2000
   -4.2484   14.9186  123.4078 N   0  0  0  0  0  0  0  0  0  0  0  0
   -3.4593   15.4915  124.5009 C   0  0  0  0  0  0  0  0  0  0  0  0
   -4.3458   15.7990  125.7505 C   0  0  0  0  0  0  0  0  0  0  0  0
   -3.4824   15.9711  126.9132 N   0  0  0  0  0  0  0  0  0  0  0  0
   -3.2383   14.6388  127.5200 C   0  0  0  0  0  0  0  0  0  0  0  0
   -4.5760   13.8151  127.6894 C   0  0  0  0  0  0  0  0  0  0  0  0
   -6.5812   14.4352  129.4611 O   0  0  0  0  0  0  0  0  0  0  0  0
   -5.1710   13.9294  129.4458 P   0  0  0  0  0  0  0  0  0  0  0  0
   -4.2914   14.8695  130.2267 O   0  0  0  0  0  0  0  0  0  0  0  0
   -5.1248   12.5668  130.0643 O   0  0  0  0  0  0  0  0  0  0  0  0
   -6.6124   15.3181  129.0606 H   0  0  0  0  0  0  0  0  0  0  0  0
   -4.2122   12.2382  130.0550 H   0  0  0  0  0  0  0  0  0  0  0  0
   -2.1871   16.5984  126.5146 C   0  0  0  0  0  0  0  0  0  0  0  0
   -1.6649   17.5018  127.6464 C   0  0  0  0  0  0  0  0  0  0  0  0
   -2.4128   17.8014  128.6034 O   0  0  0  0  0  0  0  0  0  0  0  0
   -5.6100   15.2583  123.5818 C   0  0  0  0  0  0  0  0  0  0  0  0
   -6.2095   15.7293  122.2729 C   0  0  0  0  0  0  0  0  0  0  0  0
   -5.0109   16.7439  121.2602 P   0  0  0  0  0  0  0  0  0  0  0  0
   -5.7477   17.3633  120.1039 O   0  0  0  0  0  0  0  0  0  0  0  0
   -4.4130   17.8372  122.1319 O   0  0  0  0  0  0  0  0  0  0  0  0
   -3.9033   15.8677  120.7245 O   0  0  0  0  0  0  0  0  0  0  0  0
   -3.7905   18.3648  121.6074 H   0  0  0  0  0  0  0  0  0  0  0  0
   -3.2891   16.4064  120.2014 H   0  0  0  0  0  0  0  0  0  0  0  0
   -4.0941   13.4576  123.4346 C   0  0  0  0  0  0  0  0  0  0  0  0
   -5.3663   12.7781  124.0073 C   0  0  0  0  0  0  0  0  0  0  0  0
   -5.1077   11.3254  124.2391 N   0  0  0  0  0  0  0  0  0  0  0  0
   -5.1593   10.3427  123.2963 C   0  0  0  0  0  0  0  0  0  0  0  0
   -5.4205   10.2791  121.9430 N   0  0  0  0  0  0  0  0  0  0  0  0
   -5.3891    9.1397  121.2836 C   0  0  0  0  0  0  0  0  0  0  0  0
   -5.6682    9.1345  119.8917 N   0  0  0  0  0  0  0  0  0  0  0  0
   -5.0959    7.9494  121.9032 N   0  0  0  0  0  0  0  0  0  0  0  0
   -4.8289    7.8949  123.1993 C   0  0  0  0  0  0  0  0  0  0  0  0
   -4.5294    6.6686  123.8254 O   0  0  0  0  0  0  0  0  0  0  0  0
   -4.8539    9.1404  123.9588 C   0  0  0  0  0  0  0  0  0  0  0  0
   -4.6372    9.4724  125.2748 N   0  0  0  0  0  0  0  0  0  0  0  0
   -4.7898   10.7722  125.4323 C   0  0  0  0  0  0  0  0  0  0  0  0
   -5.8806    9.9771  119.4291 H   0  0  0  0  0  0  0  0  0  0  0  0
   -5.6493    8.2882  119.3891 H   0  0  0  0  0  0  0  0  0  0  0  0
   -5.0839    7.1199  121.3731 H   0  0  0  0  0  0  0  0  0  0  0  0
 15 14  2  0  0  0
 14 13  1  0  0  0
 13  4  1  0  0  0
 19 18  2  0  0  0
  4  3  1  0  0  0
  4  5  1  0  0  0
  3  2  1  0  0  0
 18 20  1  0  0  0
 18 21  1  0  0  0
 18 17  1  0  0  0
  6  5  1  0  0  0
  6  8  1  0  0  0
 17 16  1  0  0  0
 16  1  1  0  0  0
  2  1  1  0  0  0
  1 24  1  0  0  0
  9  8  2  0  0  0
  8 10  1  0  0  0
  8  7  1  0  0  0
 24 25  1  0  0  0
 25 26  1  0  0  0
 26 36  1  0  0  0
 26 27  1  0  0  0
 36 35  2  0  0  0
 27 28  1  0  0  0
 27 34  2  0  0  0
 28 29  2  0  0  0
 35 34  1  0  0  0
 34 32  1  0  0  0
 29 30  1  0  0  0
 29 31  1  0  0  0
 32 31  1  0  0  0
 32 33  2  0  0  0
  7 11  1  0  0  0
 10 12  1  0  0  0
 20 22  1  0  0  0
 21 23  1  0  0  0
 30 37  1  0  0  0
 30 38  1  0  0  0
 31 39  1  0  0  0
M  END
> <minimizedAffinity>
-8.00458

$$$$
4RHX_3QF_A_301


 39 40  0  0  0  0  0  0  0  0999 V2000
   -3.0239   12.8703  125.7730 N   0  0  0  0  0  0  0  0  0  0  0  0
   -3.2295   11.6217  125.0352 C   0  0  0  0  0  0  0  0  0  0  0  0
   -3.4726   11.8856  123.5142 C   0  0  0  0  0  0  0  0  0  0  0  0
   -3.5766   10.6061  122.8221 N   0  0  0  0  0  0  0  0  0  0  0  0
   -5.0110   10.2369  122.7276 C   0  0  0  0  0  0  0  0  0  0  0  0
   -5.2045    8.6947  122.4436 C   0  0  0  0  0  0  0  0  0  0  0  0
   -2.7238    7.8832  123.2991 O   0  0  0  0  0  0  0  0  0  0  0  0
   -4.1742    7.6996  123.6269 P   0  0  0  0  0  0  0  0  0  0  0  0
   -4.5328    6.2410  123.5202 O   0  0  0  0  0  0  0  0  0  0  0  0
   -4.4337    8.1807  125.0207 O   0  0  0  0  0  0  0  0  0  0  0  0
   -2.5544    7.5718  122.3962 H   0  0  0  0  0  0  0  0  0  0  0  0
   -5.3725    8.0623  125.2341 H   0  0  0  0  0  0  0  0  0  0  0  0
   -2.9799   10.7001  121.4564 C   0  0  0  0  0  0  0  0  0  0  0  0
   -1.4433   10.7097  121.5485 C   0  0  0  0  0  0  0  0  0  0  0  0
   -0.8164    9.6329  121.6607 O   0  0  0  0  0  0  0  0  0  0  0  0
   -4.2063   13.2036  126.4733 C   0  0  0  0  0  0  0  0  0  0  0  0
   -4.1184   12.7381  127.9121 C   0  0  0  0  0  0  0  0  0  0  0  0
   -4.6019   14.0728  129.1273 P   0  0  0  0  0  0  0  0  0  0  0  0
   -6.0841   14.3117  129.0293 O   0  0  0  0  0  0  0  0  0  0  0  0
   -4.2468   13.6249  130.5365 O   0  0  0  0  0  0  0  0  0  0  0  0
   -3.8750   15.3587  128.8115 O   0  0  0  0  0  0  0  0  0  0  0  0
   -4.4973   14.3169  131.1685 H   0  0  0  0  0  0  0  0  0  0  0  0
   -4.1349   16.0420  129.4490 H   0  0  0  0  0  0  0  0  0  0  0  0
   -2.6997   13.9339  124.8123 C   0  0  0  0  0  0  0  0  0  0  0  0
   -3.3564   15.2760  125.2315 C   0  0  0  0  0  0  0  0  0  0  0  0
   -3.7283   16.0625  124.0175 N   0  0  0  0  0  0  0  0  0  0  0  0
   -4.6927   15.7311  123.1134 C   0  0  0  0  0  0  0  0  0  0  0  0
   -5.5977   14.7008  122.9611 N   0  0  0  0  0  0  0  0  0  0  0  0
   -6.4358   14.6584  121.9462 C   0  0  0  0  0  0  0  0  0  0  0  0
   -7.3439   13.5724  121.8399 N   0  0  0  0  0  0  0  0  0  0  0  0
   -6.4579   15.6351  120.9808 N   0  0  0  0  0  0  0  0  0  0  0  0
   -5.6327   16.6700  121.0288 C   0  0  0  0  0  0  0  0  0  0  0  0
   -5.6634   17.6666  120.0333 O   0  0  0  0  0  0  0  0  0  0  0  0
   -4.6923   16.7476  122.1416 C   0  0  0  0  0  0  0  0  0  0  0  0
   -3.7163   17.6386  122.5195 N   0  0  0  0  0  0  0  0  0  0  0  0
   -3.1491   17.2239  123.6348 C   0  0  0  0  0  0  0  0  0  0  0  0
   -7.3438   12.8622  122.5217 H   0  0  0  0  0  0  0  0  0  0  0  0
   -7.9737   13.5295  121.0845 H   0  0  0  0  0  0  0  0  0  0  0  0
   -7.1002   15.5646  120.2380 H   0  0  0  0  0  0  0  0  0  0  0  0
 15 14  2  0  0  0
 14 13  1  0  0  0
 13  4  1  0  0  0
 19 18  2  0  0  0
  4  3  1  0  0  0
  4  5  1  0  0  0
  3  2  1  0  0  0
 18 20  1  0  0  0
 18 21  1  0  0  0
 18 17  1  0  0  0
  6  5  1  0  0  0
  6  8  1  0  0  0
 17 16  1  0  0  0
 16  1  1  0  0  0
  2  1  1  0  0  0
  1 24  1  0  0  0
  9  8  2  0  0  0
  8 10  1  0  0  0
  8  7  1  0  0  0
 24 25  1  0  0  0
 25 26  1  0  0  0
 26 36  1  0  0  0
 26 27  1  0  0  0
 36 35  2  0  0  0
 27 28  1  0  0  0
 27 34  2  0  0  0
 28 29  2  0  0  0
 35 34  1  0  0  0
 34 32  1  0  0  0
 29 30  1  0  0  0
 29 31  1  0  0  0
 32 31  1  0  0  0
 32 33  2  0  0  0
  7 11  1  0  0  0
 10 12  1  0  0  0
 20 22  1  0  0  0
 21 23  1  0  0  0
 30 37  1  0  0  0
 30 38  1  0  0  0
 31 39  1  0  0  0
M  END
> <minimizedAffinity>
-7.96632

$$$$
4RHX_3QF_A_301


 39 40  0  0  0  0  0  0  0  0999 V2000
   -2.9383   10.6021  121.0234 N   0  0  0  0  0  0  0  0  0  0  0  0
   -2.6440    9.7377  119.8780 C   0  0  0  0  0  0  0  0  0  0  0  0
   -1.2101    9.1237  119.9741 C   0  0  0  0  0  0  0  0  0  0  0  0
   -1.3024    7.7957  120.5698 N   0  0  0  0  0  0  0  0  0  0  0  0
   -0.6606    6.8220  119.6519 C   0  0  0  0  0  0  0  0  0  0  0  0
   -1.0418    5.3320  120.0140 C   0  0  0  0  0  0  0  0  0  0  0  0
   -3.2107    3.6539  119.8584 O   0  0  0  0  0  0  0  0  0  0  0  0
   -2.8853    5.1143  119.9369 P   0  0  0  0  0  0  0  0  0  0  0  0
   -3.4361    5.8177  118.7247 O   0  0  0  0  0  0  0  0  0  0  0  0
   -3.4955    5.6938  121.1752 O   0  0  0  0  0  0  0  0  0  0  0  0
   -2.8159    3.2773  119.0564 H   0  0  0  0  0  0  0  0  0  0  0  0
   -3.2855    6.6393  121.2271 H   0  0  0  0  0  0  0  0  0  0  0  0
   -0.6241    7.7708  121.9001 C   0  0  0  0  0  0  0  0  0  0  0  0
   -1.6464    8.0294  123.0215 C   0  0  0  0  0  0  0  0  0  0  0  0
   -2.1705    7.0669  123.6248 O   0  0  0  0  0  0  0  0  0  0  0  0
   -4.3129   10.5096  121.3421 C   0  0  0  0  0  0  0  0  0  0  0  0
   -4.7875    9.0756  121.2281 C   0  0  0  0  0  0  0  0  0  0  0  0
   -5.7305    8.5112  122.7394 P   0  0  0  0  0  0  0  0  0  0  0  0
   -7.1486    8.2003  122.3447 O   0  0  0  0  0  0  0  0  0  0  0  0
   -5.0717    7.2644  123.3088 O   0  0  0  0  0  0  0  0  0  0  0  0
   -5.7394    9.5976  123.7888 O   0  0  0  0  0  0  0  0  0  0  0  0
   -5.5603    6.9702  124.0935 H   0  0  0  0  0  0  0  0  0  0  0  0
   -6.2315    9.2917  124.5667 H   0  0  0  0  0  0  0  0  0  0  0  0
   -2.6046   11.9869  120.6630 C   0  0  0  0  0  0  0  0  0  0  0  0
   -2.2738   12.8227  121.9280 C   0  0  0  0  0  0  0  0  0  0  0  0
   -2.8766   14.1843  121.8111 N   0  0  0  0  0  0  0  0  0  0  0  0
   -4.2063   14.4651  121.7106 C   0  0  0  0  0  0  0  0  0  0  0  0
   -5.3758   13.7333  121.6869 N   0  0  0  0  0  0  0  0  0  0  0  0
   -6.5538   14.3120  121.5806 C   0  0  0  0  0  0  0  0  0  0  0  0
   -7.7236   13.5079  121.5596 N   0  0  0  0  0  0  0  0  0  0  0  0
   -6.6877   15.6757  121.4864 N   0  0  0  0  0  0  0  0  0  0  0  0
   -5.6310   16.4741  121.4994 C   0  0  0  0  0  0  0  0  0  0  0  0
   -5.7792   17.8720  121.4020 O   0  0  0  0  0  0  0  0  0  0  0  0
   -4.3108   15.8644  121.6177 C   0  0  0  0  0  0  0  0  0  0  0  0
   -3.0253   16.3486  121.6652 N   0  0  0  0  0  0  0  0  0  0  0  0
   -2.1800   15.3438  121.7803 C   0  0  0  0  0  0  0  0  0  0  0  0
   -7.6489   12.5285  121.6260 H   0  0  0  0  0  0  0  0  0  0  0  0
   -8.6095   13.9297  121.4787 H   0  0  0  0  0  0  0  0  0  0  0  0
   -7.5873   16.0677  121.4075 H   0  0  0  0  0  0  0  0  0  0  0  0
 15 14  2  0  0  0
 14 13  1  0  0  0
 13  4  1  0  0  0
 19 18  2  0  0  0
  4  3  1  0  0  0
  4  5  1  0  0  0
  3  2  1  0  0  0
 18 20  1  0  0  0
 18 21  1  0  0  0
 18 17  1  0  0  0
  6  5  1  0  0  0
  6  8  1  0  0  0
 17 16  1  0  0  0
 16  1  1  0  0  0
  2  1  1  0  0  0
  1 24  1  0  0  0
  9  8  2  0  0  0
  8 10  1  0  0  0
  8  7  1  0  0  0
 24 25  1  0  0  0
 25 26  1  0  0  0
 26 36  1  0  0  0
 26 27  1  0  0  0
 36 35  2  0  0  0
 27 28  1  0  0  0
 27 34  2  0  0  0
 28 29  2  0  0  0
 35 34  1  0  0  0
 34 32  1  0  0  0
 29 30  1  0  0  0
 29 31  1  0  0  0
 32 31  1  0  0  0
 32 33  2  0  0  0
  7 11  1  0  0  0
 10 12  1  0  0  0
 20 22  1  0  0  0
 21 23  1  0  0  0
 30 37  1  0  0  0
 30 38  1  0  0  0
 31 39  1  0  0  0
M  END
> <minimizedAffinity>
-7.94759

$$$$
4RHX_3QF_A_301


 39 40  0  0  0  0  0  0  0  0999 V2000
   -2.1387   13.6806  123.0926 N   0  0  0  0  0  0  0  0  0  0  0  0
   -2.5912   12.2877  123.1144 C   0  0  0  0  0  0  0  0  0  0  0  0
   -2.4458   11.6578  124.5372 C   0  0  0  0  0  0  0  0  0  0  0  0
   -3.5896   10.7890  124.7899 N   0  0  0  0  0  0  0  0  0  0  0  0
   -4.6436   11.5832  125.4688 C   0  0  0  0  0  0  0  0  0  0  0  0
   -4.1906   12.0547  126.9072 C   0  0  0  0  0  0  0  0  0  0  0  0
   -4.2077    9.3498  127.3839 O   0  0  0  0  0  0  0  0  0  0  0  0
   -3.5525   10.6039  127.8766 P   0  0  0  0  0  0  0  0  0  0  0  0
   -3.8572   10.7886  129.3396 O   0  0  0  0  0  0  0  0  0  0  0  0
   -2.0718   10.5014  127.6802 O   0  0  0  0  0  0  0  0  0  0  0  0
   -5.1671    9.4150  127.5106 H   0  0  0  0  0  0  0  0  0  0  0  0
   -1.6464   11.3128  127.9989 H   0  0  0  0  0  0  0  0  0  0  0  0
   -4.1143   10.2291  123.5087 C   0  0  0  0  0  0  0  0  0  0  0  0
   -4.3940    8.7232  123.6632 C   0  0  0  0  0  0  0  0  0  0  0  0
   -4.2697    8.1751  124.7808 O   0  0  0  0  0  0  0  0  0  0  0  0
   -0.9013   13.7631  122.4133 C   0  0  0  0  0  0  0  0  0  0  0  0
   -0.8024   15.0675  121.6497 C   0  0  0  0  0  0  0  0  0  0  0  0
   -1.9004   15.0974  120.1380 P   0  0  0  0  0  0  0  0  0  0  0  0
   -1.1536   14.4978  118.9776 O   0  0  0  0  0  0  0  0  0  0  0  0
   -3.1581   14.2875  120.4117 O   0  0  0  0  0  0  0  0  0  0  0  0
   -2.2831   16.5177  119.7950 O   0  0  0  0  0  0  0  0  0  0  0  0
   -3.7291   14.3021  119.6276 H   0  0  0  0  0  0  0  0  0  0  0  0
   -2.8522   16.5186  119.0095 H   0  0  0  0  0  0  0  0  0  0  0  0
   -1.9758   14.1418  124.4782 C   0  0  0  0  0  0  0  0  0  0  0  0
   -3.2044   14.9746  124.9314 C   0  0  0  0  0  0  0  0  0  0  0  0
   -3.6426   15.8790  123.8264 N   0  0  0  0  0  0  0  0  0  0  0  0
   -4.6539   15.6354  122.9459 C   0  0  0  0  0  0  0  0  0  0  0  0
   -5.5641   14.6198  122.7370 N   0  0  0  0  0  0  0  0  0  0  0  0
   -6.4557   14.6759  121.7695 C   0  0  0  0  0  0  0  0  0  0  0  0
   -7.3665   13.6002  121.6007 N   0  0  0  0  0  0  0  0  0  0  0  0
   -6.5314   15.7465  120.9124 N   0  0  0  0  0  0  0  0  0  0  0  0
   -5.7065   16.7768  121.0225 C   0  0  0  0  0  0  0  0  0  0  0  0
   -5.7925   17.8702  120.1380 O   0  0  0  0  0  0  0  0  0  0  0  0
   -4.7075   16.7464  122.0854 C   0  0  0  0  0  0  0  0  0  0  0  0
   -3.7140   17.6007  122.5003 N   0  0  0  0  0  0  0  0  0  0  0  0
   -3.0867   17.0777  123.5349 C   0  0  0  0  0  0  0  0  0  0  0  0
   -7.3285   12.8236  122.2047 H   0  0  0  0  0  0  0  0  0  0  0  0
   -8.0361   13.6306  120.8796 H   0  0  0  0  0  0  0  0  0  0  0  0
   -7.2128   15.7481  120.2018 H   0  0  0  0  0  0  0  0  0  0  0  0
 15 14  2  0  0  0
 14 13  1  0  0  0
 13  4  1  0  0  0
 19 18  2  0  0  0
  4  3  1  0  0  0
  4  5  1  0  0  0
  3  2  1  0  0  0
 18 20  1  0  0  0
 18 21  1  0  0  0
 18 17  1  0  0  0
  6  5  1  0  0  0
  6  8  1  0  0  0
 17 16  1  0  0  0
 16  1  1  0  0  0
  2  1  1  0  0  0
  1 24  1  0  0  0
  9  8  2  0  0  0
  8 10  1  0  0  0
  8  7  1  0  0  0
 24 25  1  0  0  0
 25 26  1  0  0  0
 26 36  1  0  0  0
 26 27  1  0  0  0
 36 35  2  0  0  0
 27 28  1  0  0  0
 27 34  2  0  0  0
 28 29  2  0  0  0
 35 34  1  0  0  0
 34 32  1  0  0  0
 29 30  1  0  0  0
 29 31  1  0  0  0
 32 31  1  0  0  0
 32 33  2  0  0  0
  7 11  1  0  0  0
 10 12  1  0  0  0
 20 22  1  0  0  0
 21 23  1  0  0  0
 30 37  1  0  0  0
 30 38  1  0  0  0
 31 39  1  0  0  0
M  END
> <minimizedAffinity>
-7.90749

$$$$
4RHX_3QF_A_301


 39 40  0  0  0  0  0  0  0  0999 V2000
   -3.5569   11.2883  121.2714 N   0  0  0  0  0  0  0  0  0  0  0  0
   -3.5023   12.6908  121.6904 C   0  0  0  0  0  0  0  0  0  0  0  0
   -2.6469   13.5523  120.7064 C   0  0  0  0  0  0  0  0  0  0  0  0
   -3.0187   14.9543  120.8581 N   0  0  0  0  0  0  0  0  0  0  0  0
   -3.6460   15.1337  122.1911 C   0  0  0  0  0  0  0  0  0  0  0  0
   -4.3187   16.5558  122.3386 C   0  0  0  0  0  0  0  0  0  0  0  0
   -5.1266   17.2407  119.8043 O   0  0  0  0  0  0  0  0  0  0  0  0
   -5.6901   16.7384  121.0985 P   0  0  0  0  0  0  0  0  0  0  0  0
   -6.7196   17.7112  121.6096 O   0  0  0  0  0  0  0  0  0  0  0  0
   -6.3271   15.4016  120.8779 O   0  0  0  0  0  0  0  0  0  0  0  0
   -4.7135   18.1069  119.9461 H   0  0  0  0  0  0  0  0  0  0  0  0
   -6.6924   15.0753  121.7152 H   0  0  0  0  0  0  0  0  0  0  0  0
   -1.8159   15.8308  120.7349 C   0  0  0  0  0  0  0  0  0  0  0  0
   -1.8773   16.6342  119.4232 C   0  0  0  0  0  0  0  0  0  0  0  0
   -2.1839   17.8468  119.4459 O   0  0  0  0  0  0  0  0  0  0  0  0
   -4.8758   10.8020  121.4253 C   0  0  0  0  0  0  0  0  0  0  0  0
   -4.9026    9.2933  121.2926 C   0  0  0  0  0  0  0  0  0  0  0  0
   -5.8600    8.4701  122.6701 P   0  0  0  0  0  0  0  0  0  0  0  0
   -5.0629    7.3066  123.1940 O   0  0  0  0  0  0  0  0  0  0  0  0
   -6.0987    9.4730  123.7881 O   0  0  0  0  0  0  0  0  0  0  0  0
   -7.1880    7.9649  122.1574 O   0  0  0  0  0  0  0  0  0  0  0  0
   -6.5956    9.0469  124.5040 H   0  0  0  0  0  0  0  0  0  0  0  0
   -7.6739    7.5405  122.8818 H   0  0  0  0  0  0  0  0  0  0  0  0
   -2.6397   10.5112  122.1163 C   0  0  0  0  0  0  0  0  0  0  0  0
   -1.3427   10.1555  121.3420 C   0  0  0  0  0  0  0  0  0  0  0  0
   -0.9499    8.7430  121.6275 N   0  0  0  0  0  0  0  0  0  0  0  0
   -1.3401    7.6451  120.9207 C   0  0  0  0  0  0  0  0  0  0  0  0
   -2.1287    7.4066  119.8139 N   0  0  0  0  0  0  0  0  0  0  0  0
   -2.3207    6.1897  119.3486 C   0  0  0  0  0  0  0  0  0  0  0  0
   -3.1439    6.0043  118.2070 N   0  0  0  0  0  0  0  0  0  0  0  0
   -1.7491    5.0881  119.9370 N   0  0  0  0  0  0  0  0  0  0  0  0
   -0.9736    5.2020  121.0046 C   0  0  0  0  0  0  0  0  0  0  0  0
   -0.3921    4.0654  121.6009 O   0  0  0  0  0  0  0  0  0  0  0  0
   -0.7394    6.5371  121.5444 C   0  0  0  0  0  0  0  0  0  0  0  0
   -0.0181    7.0372  122.6020 N   0  0  0  0  0  0  0  0  0  0  0  0
   -0.1486    8.3482  122.6438 C   0  0  0  0  0  0  0  0  0  0  0  0
   -3.5628    6.7811  117.7707 H   0  0  0  0  0  0  0  0  0  0  0  0
   -3.2959    5.0988  117.8516 H   0  0  0  0  0  0  0  0  0  0  0  0
   -1.9193    4.1958  119.5575 H   0  0  0  0  0  0  0  0  0  0  0  0
 15 14  2  0  0  0
 14 13  1  0  0  0
 13  4  1  0  0  0
 19 18  2  0  0  0
  4  3  1  0  0  0
  4  5  1  0  0  0
  3  2  1  0  0  0
 18 20  1  0  0  0
 18 21  1  0  0  0
 18 17  1  0  0  0
  6  5  1  0  0  0
  6  8  1  0  0  0
 17 16  1  0  0  0
 16  1  1  0  0  0
  2  1  1  0  0  0
  1 24  1  0  0  0
  9  8  2  0  0  0
  8 10  1  0  0  0
  8  7  1  0  0  0
 24 25  1  0  0  0
 25 26  1  0  0  0
 26 36  1  0  0  0
 26 27  1  0  0  0
 36 35  2  0  0  0
 27 28  1  0  0  0
 27 34  2  0  0  0
 28 29  2  0  0  0
 35 34  1  0  0  0
 34 32  1  0  0  0
 29 30  1  0  0  0
 29 31  1  0  0  0
 32 31  1  0  0  0
 32 33  2  0  0  0
  7 11  1  0  0  0
 10 12  1  0  0  0
 20 22  1  0  0  0
 21 23  1  0  0  0
 30 37  1  0  0  0
 30 38  1  0  0  0
 31 39  1  0  0  0
M  END
> <minimizedAffinity>
-7.81658

$$$$
