3MMF_D9H_A_263


 27 28  0  0  0  0  0  0  0  0999 V2000
   -3.1301    4.1670   13.5033 N   0  0  0  0  0  0  0  0  0  0  0  0
   -3.0907    5.1473   13.5849 H   0  0  0  0  0  0  0  0  0  0  0  0
   -2.2965    3.5861   12.5622 C   0  0  0  0  0  0  0  0  0  0  0  0
   -2.7512    2.4321   12.0478 N   0  0  0  0  0  0  0  0  0  0  0  0
   -2.0079    1.7814   11.1547 C   0  0  0  0  0  0  0  0  0  0  0  0
   -0.8128    2.2636   10.8119 N   0  0  0  0  0  0  0  0  0  0  0  0
   -0.3909    3.4152   11.3371 C   0  0  0  0  0  0  0  0  0  0  0  0
    1.1511    3.9650   10.9249 Cl  0  0  0  0  0  0  0  0  0  0  0  0
   -1.1140    4.0894   12.2271 N   0  0  0  0  0  0  0  0  0  0  0  0
   -2.4680    0.5525   10.5993 N   0  0  0  0  0  0  0  0  0  0  0  0
   -2.0790    0.2114    9.7617 H   0  0  0  0  0  0  0  0  0  0  0  0
   -3.5019   -0.1854   11.2679 C   0  0  0  0  0  0  0  0  0  0  0  0
   -4.7792    0.0062   10.5118 C   0  0  0  0  0  0  0  0  0  0  0  0
   -5.4937    1.0703   11.0339 O   0  0  0  0  0  0  0  0  0  0  0  0
   -5.7068    0.8918   11.9632 H   0  0  0  0  0  0  0  0  0  0  0  0
   -5.5388    2.0723   16.2329 C   0  0  0  0  0  0  0  0  0  0  0  0
   -6.1408    2.9751   15.4010 C   0  0  0  0  0  0  0  0  0  0  0  0
   -5.3649    3.7387   14.4087 C   0  0  0  0  0  0  0  0  0  0  0  0
   -4.0218    3.5005   14.3492 C   0  0  0  0  0  0  0  0  0  0  0  0
   -3.3694    2.5427   15.2301 C   0  0  0  0  0  0  0  0  0  0  0  0
   -4.0991    1.8396   16.1283 C   0  0  0  0  0  0  0  0  0  0  0  0
   -5.6947   -0.1820   17.6525 N   0  0  0  0  0  0  0  0  0  0  0  0
   -7.7585    1.0004   16.8207 O   0  0  0  0  0  0  0  0  0  0  0  0
   -6.4346    1.1871   17.4554 S   0  0  0  0  0  0  0  0  0  0  0  0
   -6.3963    2.0248   18.6006 O   0  0  0  0  0  0  0  0  0  0  0  0
   -5.7611   -0.7308   16.7953 H   0  0  0  0  0  0  0  0  0  0  0  0
   -6.1285   -0.6955   18.4196 H   0  0  0  0  0  0  0  0  0  0  0  0
 21 16  2  0  0  0
 17 16  1  0  0  0
 16 24  1  0  0  0
 22 24  1  0  0  0
 23 24  2  0  0  0
 24 25  2  0  0  0
 18 17  2  0  0  0
 19 18  1  0  0  0
  1 19  1  0  0  0
 19 20  2  0  0  0
 20 21  1  0  0  0
  3  1  1  0  0  0
  4  3  2  0  0  0
  9  3  1  0  0  0
  5  4  1  0  0  0
 10  5  1  0  0  0
  6  5  2  0  0  0
 12 10  1  0  0  0
  6  7  1  0  0  0
  8  7  1  0  0  0
  7  9  2  0  0  0
 13 12  1  0  0  0
 13 14  1  0  0  0
 22 26  1  0  0  0
 22 27  1  0  0  0
  1  2  1  0  0  0
 10 11  1  0  0  0
 14 15  1  0  0  0
M  END
> <minimizedAffinity>
-7.93682

$$$$
3MMF_D9H_A_263


 27 28  0  0  0  0  0  0  0  0999 V2000
   -3.8175    4.7299   13.4195 N   0  0  0  0  0  0  0  0  0  0  0  0
   -3.6146    5.6503   13.7040 H   0  0  0  0  0  0  0  0  0  0  0  0
   -3.6114    4.4311   12.0830 C   0  0  0  0  0  0  0  0  0  0  0  0
   -2.8716    3.3325   11.8624 N   0  0  0  0  0  0  0  0  0  0  0  0
   -2.5938    2.9771   10.6094 C   0  0  0  0  0  0  0  0  0  0  0  0
   -3.0216    3.7327    9.5973 N   0  0  0  0  0  0  0  0  0  0  0  0
   -3.7587    4.8160    9.8488 C   0  0  0  0  0  0  0  0  0  0  0  0
   -4.2331    5.7805    8.5470 Cl  0  0  0  0  0  0  0  0  0  0  0  0
   -4.0562    5.1922   11.0896 N   0  0  0  0  0  0  0  0  0  0  0  0
   -1.8062    1.8178   10.3517 N   0  0  0  0  0  0  0  0  0  0  0  0
   -1.1214    1.8318    9.6445 H   0  0  0  0  0  0  0  0  0  0  0  0
   -2.0169    0.6297   11.1289 C   0  0  0  0  0  0  0  0  0  0  0  0
   -3.3669    0.0801   10.7896 C   0  0  0  0  0  0  0  0  0  0  0  0
   -3.3585   -0.4697    9.5195 O   0  0  0  0  0  0  0  0  0  0  0  0
   -3.1307    0.2157    8.8720 H   0  0  0  0  0  0  0  0  0  0  0  0
   -5.5375    2.1652   16.2662 C   0  0  0  0  0  0  0  0  0  0  0  0
   -4.1976    2.0500   16.0196 C   0  0  0  0  0  0  0  0  0  0  0  0
   -3.5201    2.9222   15.0448 C   0  0  0  0  0  0  0  0  0  0  0  0
   -4.2847    3.8552   14.4051 C   0  0  0  0  0  0  0  0  0  0  0  0
   -5.7121    3.9867   14.6586 C   0  0  0  0  0  0  0  0  0  0  0  0
   -6.3172    3.1855   15.5671 C   0  0  0  0  0  0  0  0  0  0  0  0
   -5.6128   -0.2655   17.3651 N   0  0  0  0  0  0  0  0  0  0  0  0
   -7.7205    0.9859   16.7814 O   0  0  0  0  0  0  0  0  0  0  0  0
   -6.3752    1.1053   17.3867 S   0  0  0  0  0  0  0  0  0  0  0  0
   -6.3021    1.7776   18.6346 O   0  0  0  0  0  0  0  0  0  0  0  0
   -5.7062   -0.6920   16.4433 H   0  0  0  0  0  0  0  0  0  0  0  0
   -6.0107   -0.8870   18.0692 H   0  0  0  0  0  0  0  0  0  0  0  0
 21 16  2  0  0  0
 17 16  1  0  0  0
 16 24  1  0  0  0
 22 24  1  0  0  0
 23 24  2  0  0  0
 24 25  2  0  0  0
 18 17  2  0  0  0
 19 18  1  0  0  0
  1 19  1  0  0  0
 19 20  2  0  0  0
 20 21  1  0  0  0
  3  1  1  0  0  0
  4  3  2  0  0  0
  9  3  1  0  0  0
  5  4  1  0  0  0
 10  5  1  0  0  0
  6  5  2  0  0  0
 12 10  1  0  0  0
  6  7  1  0  0  0
  8  7  1  0  0  0
  7  9  2  0  0  0
 13 12  1  0  0  0
 13 14  1  0  0  0
 22 26  1  0  0  0
 22 27  1  0  0  0
  1  2  1  0  0  0
 10 11  1  0  0  0
 14 15  1  0  0  0
M  END
> <minimizedAffinity>
-7.53531

$$$$
3MMF_D9H_A_263


 27 28  0  0  0  0  0  0  0  0999 V2000
   -3.2321    4.4011   13.6451 N   0  0  0  0  0  0  0  0  0  0  0  0
   -3.3257    5.3810   13.6608 H   0  0  0  0  0  0  0  0  0  0  0  0
   -2.2805    3.8796   12.7845 C   0  0  0  0  0  0  0  0  0  0  0  0
   -1.1477    4.5958   12.7021 N   0  0  0  0  0  0  0  0  0  0  0  0
   -0.1818    4.1914   11.8792 C   0  0  0  0  0  0  0  0  0  0  0  0
   -0.3661    3.1066   11.1258 N   0  0  0  0  0  0  0  0  0  0  0  0
   -1.5010    2.4136   11.2338 C   0  0  0  0  0  0  0  0  0  0  0  0
   -1.7233    1.0803   10.2226 Cl  0  0  0  0  0  0  0  0  0  0  0  0
   -2.4806    2.7907   12.0510 N   0  0  0  0  0  0  0  0  0  0  0  0
    1.0269    4.9385   11.7718 N   0  0  0  0  0  0  0  0  0  0  0  0
    1.4994    5.2348   12.5830 H   0  0  0  0  0  0  0  0  0  0  0  0
    1.5514    5.2564   10.4741 C   0  0  0  0  0  0  0  0  0  0  0  0
    2.8166    4.4819   10.2765 C   0  0  0  0  0  0  0  0  0  0  0  0
    2.5470    3.2613    9.6823 O   0  0  0  0  0  0  0  0  0  0  0  0
    1.9546    2.7476   10.2533 H   0  0  0  0  0  0  0  0  0  0  0  0
   -5.4776    2.1059   16.3524 C   0  0  0  0  0  0  0  0  0  0  0  0
   -6.1188    3.0917   15.6548 C   0  0  0  0  0  0  0  0  0  0  0  0
   -5.4018    3.9299   14.6785 C   0  0  0  0  0  0  0  0  0  0  0  0
   -4.0732    3.6751   14.4937 C   0  0  0  0  0  0  0  0  0  0  0  0
   -3.3796    2.6291   15.2312 C   0  0  0  0  0  0  0  0  0  0  0  0
   -4.0561    1.8590   16.1159 C   0  0  0  0  0  0  0  0  0  0  0  0
   -7.7396    0.8469   17.0002 N   0  0  0  0  0  0  0  0  0  0  0  0
   -6.3390    2.0219   18.7341 O   0  0  0  0  0  0  0  0  0  0  0  0
   -6.2997    1.1276   17.5556 S   0  0  0  0  0  0  0  0  0  0  0  0
   -5.4983   -0.0378   17.6744 O   0  0  0  0  0  0  0  0  0  0  0  0
   -8.2580    1.7233   16.9410 H   0  0  0  0  0  0  0  0  0  0  0  0
   -8.2265    0.2055   17.6263 H   0  0  0  0  0  0  0  0  0  0  0  0
 21 16  2  0  0  0
 17 16  1  0  0  0
 16 24  1  0  0  0
 22 24  1  0  0  0
 23 24  2  0  0  0
 24 25  2  0  0  0
 18 17  2  0  0  0
 19 18  1  0  0  0
  1 19  1  0  0  0
 19 20  2  0  0  0
 20 21  1  0  0  0
  3  1  1  0  0  0
  4  3  2  0  0  0
  9  3  1  0  0  0
  5  4  1  0  0  0
 10  5  1  0  0  0
  6  5  2  0  0  0
 12 10  1  0  0  0
  6  7  1  0  0  0
  8  7  1  0  0  0
  7  9  2  0  0  0
 13 12  1  0  0  0
 13 14  1  0  0  0
 22 26  1  0  0  0
 22 27  1  0  0  0
  1  2  1  0  0  0
 10 11  1  0  0  0
 14 15  1  0  0  0
M  END
> <minimizedAffinity>
-7.20915

$$$$
3MMF_D9H_A_263


 27 28  0  0  0  0  0  0  0  0999 V2000
   -4.7243    5.9800   12.9218 N   0  0  0  0  0  0  0  0  0  0  0  0
   -3.9927    6.5656   13.2234 H   0  0  0  0  0  0  0  0  0  0  0  0
   -4.9193    4.8088   13.6347 C   0  0  0  0  0  0  0  0  0  0  0  0
   -4.2811    3.7375   13.1368 N   0  0  0  0  0  0  0  0  0  0  0  0
   -4.4281    2.5572   13.7358 C   0  0  0  0  0  0  0  0  0  0  0  0
   -5.2312    2.4486   14.7949 N   0  0  0  0  0  0  0  0  0  0  0  0
   -5.8480    3.5326   15.2688 C   0  0  0  0  0  0  0  0  0  0  0  0
   -6.9020    3.3466   16.5742 Cl  0  0  0  0  0  0  0  0  0  0  0  0
   -5.7155    4.7250   14.6943 N   0  0  0  0  0  0  0  0  0  0  0  0
   -3.7644    1.4056   13.2220 N   0  0  0  0  0  0  0  0  0  0  0  0
   -3.3905    0.7341   13.8372 H   0  0  0  0  0  0  0  0  0  0  0  0
   -3.6440    1.2303   11.8025 C   0  0  0  0  0  0  0  0  0  0  0  0
   -4.9409    0.6923   11.2843 C   0  0  0  0  0  0  0  0  0  0  0  0
   -5.8047    1.7291   10.9771 O   0  0  0  0  0  0  0  0  0  0  0  0
   -5.9818    2.2499   11.7760 H   0  0  0  0  0  0  0  0  0  0  0  0
   -6.7776    7.0479    9.4170 C   0  0  0  0  0  0  0  0  0  0  0  0
   -7.2917    7.4564   10.6163 C   0  0  0  0  0  0  0  0  0  0  0  0
   -6.6220    7.1319   11.8875 C   0  0  0  0  0  0  0  0  0  0  0  0
   -5.4627    6.4140   11.8167 C   0  0  0  0  0  0  0  0  0  0  0  0
   -4.9062    5.9727   10.5461 C   0  0  0  0  0  0  0  0  0  0  0  0
   -5.5275    6.2902    9.3856 C   0  0  0  0  0  0  0  0  0  0  0  0
   -6.8921    8.6513    7.2869 N   0  0  0  0  0  0  0  0  0  0  0  0
   -8.9728    7.6690    8.3139 O   0  0  0  0  0  0  0  0  0  0  0  0
   -7.5834    7.3806    7.8936 S   0  0  0  0  0  0  0  0  0  0  0  0
   -7.3884    6.2043    7.1237 O   0  0  0  0  0  0  0  0  0  0  0  0
   -7.0720    9.4558    7.8876 H   0  0  0  0  0  0  0  0  0  0  0  0
   -7.2683    8.8312    6.3560 H   0  0  0  0  0  0  0  0  0  0  0  0
 21 16  2  0  0  0
 17 16  1  0  0  0
 16 24  1  0  0  0
 22 24  1  0  0  0
 23 24  2  0  0  0
 24 25  2  0  0  0
 18 17  2  0  0  0
 19 18  1  0  0  0
  1 19  1  0  0  0
 19 20  2  0  0  0
 20 21  1  0  0  0
  3  1  1  0  0  0
  4  3  2  0  0  0
  9  3  1  0  0  0
  5  4  1  0  0  0
 10  5  1  0  0  0
  6  5  2  0  0  0
 12 10  1  0  0  0
  6  7  1  0  0  0
  8  7  1  0  0  0
  7  9  2  0  0  0
 13 12  1  0  0  0
 13 14  1  0  0  0
 22 26  1  0  0  0
 22 27  1  0  0  0
  1  2  1  0  0  0
 10 11  1  0  0  0
 14 15  1  0  0  0
M  END
> <minimizedAffinity>
-7.17298

$$$$
3MMF_D9H_A_263


 27 28  0  0  0  0  0  0  0  0999 V2000
   -4.1870    4.7788   13.0880 N   0  0  0  0  0  0  0  0  0  0  0  0
   -4.5572    4.7168   12.1779 H   0  0  0  0  0  0  0  0  0  0  0  0
   -3.0903    5.6069   13.2595 C   0  0  0  0  0  0  0  0  0  0  0  0
   -2.0579    5.3455   12.4419 N   0  0  0  0  0  0  0  0  0  0  0  0
   -0.9452    6.0695   12.5483 C   0  0  0  0  0  0  0  0  0  0  0  0
   -0.8587    7.0154   13.4844 N   0  0  0  0  0  0  0  0  0  0  0  0
   -1.9036    7.2545   14.2788 C   0  0  0  0  0  0  0  0  0  0  0  0
   -1.7376    8.4186   15.4901 Cl  0  0  0  0  0  0  0  0  0  0  0  0
   -3.0292    6.5510   14.1917 N   0  0  0  0  0  0  0  0  0  0  0  0
    0.1649    5.8064   11.6945 N   0  0  0  0  0  0  0  0  0  0  0  0
    0.7044    6.5501   11.3406 H   0  0  0  0  0  0  0  0  0  0  0  0
    0.4921    4.4511   11.3533 C   0  0  0  0  0  0  0  0  0  0  0  0
    1.9466    4.3927   11.0056 C   0  0  0  0  0  0  0  0  0  0  0  0
    2.6859    3.9647   12.0946 O   0  0  0  0  0  0  0  0  0  0  0  0
    2.5673    4.5858   12.8301 H   0  0  0  0  0  0  0  0  0  0  0  0
   -5.7962    2.3377   16.1032 C   0  0  0  0  0  0  0  0  0  0  0  0
   -6.4634    3.4858   15.7773 C   0  0  0  0  0  0  0  0  0  0  0  0
   -5.9685    4.3865   14.7220 C   0  0  0  0  0  0  0  0  0  0  0  0
   -4.8210    4.0221   14.0780 C   0  0  0  0  0  0  0  0  0  0  0  0
   -4.1013    2.8029   14.4167 C   0  0  0  0  0  0  0  0  0  0  0  0
   -4.5766    1.9792   15.3807 C   0  0  0  0  0  0  0  0  0  0  0  0
   -5.3261    0.0790   17.4443 N   0  0  0  0  0  0  0  0  0  0  0  0
   -7.6699    0.8351   16.9113 O   0  0  0  0  0  0  0  0  0  0  0  0
   -6.3400    1.2746   17.3896 S   0  0  0  0  0  0  0  0  0  0  0  0
   -6.3249    2.0875   18.5530 O   0  0  0  0  0  0  0  0  0  0  0  0
   -5.3897   -0.4605   16.5809 H   0  0  0  0  0  0  0  0  0  0  0  0
   -5.5509   -0.5214   18.2377 H   0  0  0  0  0  0  0  0  0  0  0  0
 21 16  2  0  0  0
 17 16  1  0  0  0
 16 24  1  0  0  0
 22 24  1  0  0  0
 23 24  2  0  0  0
 24 25  2  0  0  0
 18 17  2  0  0  0
 19 18  1  0  0  0
  1 19  1  0  0  0
 19 20  2  0  0  0
 20 21  1  0  0  0
  3  1  1  0  0  0
  4  3  2  0  0  0
  9  3  1  0  0  0
  5  4  1  0  0  0
 10  5  1  0  0  0
  6  5  2  0  0  0
 12 10  1  0  0  0
  6  7  1  0  0  0
  8  7  1  0  0  0
  7  9  2  0  0  0
 13 12  1  0  0  0
 13 14  1  0  0  0
 22 26  1  0  0  0
 22 27  1  0  0  0
  1  2  1  0  0  0
 10 11  1  0  0  0
 14 15  1  0  0  0
M  END
> <minimizedAffinity>
-7.11399

$$$$
3MMF_D9H_A_263


 27 28  0  0  0  0  0  0  0  0999 V2000
   -4.4658    5.4954   13.5051 N   0  0  0  0  0  0  0  0  0  0  0  0
   -4.0009    6.2279   13.9703 H   0  0  0  0  0  0  0  0  0  0  0  0
   -4.5307    5.5760   12.1240 C   0  0  0  0  0  0  0  0  0  0  0  0
   -5.6440    6.1569   11.6487 N   0  0  0  0  0  0  0  0  0  0  0  0
   -5.8133    6.2566   10.3315 C   0  0  0  0  0  0  0  0  0  0  0  0
   -4.8965    5.7490    9.5067 N   0  0  0  0  0  0  0  0  0  0  0  0
   -3.7986    5.1819   10.0097 C   0  0  0  0  0  0  0  0  0  0  0  0
   -2.6884    4.4983    8.9374 Cl  0  0  0  0  0  0  0  0  0  0  0  0
   -3.6004    5.0730   11.3206 N   0  0  0  0  0  0  0  0  0  0  0  0
   -6.9893    6.8647    9.8045 N   0  0  0  0  0  0  0  0  0  0  0  0
   -7.8682    6.6706   10.2033 H   0  0  0  0  0  0  0  0  0  0  0  0
   -6.8851    7.7618    8.6889 C   0  0  0  0  0  0  0  0  0  0  0  0
   -7.6501    7.1770    7.5433 C   0  0  0  0  0  0  0  0  0  0  0  0
   -7.0053    6.0533    7.0564 O   0  0  0  0  0  0  0  0  0  0  0  0
   -6.1197    6.2980    6.7455 H   0  0  0  0  0  0  0  0  0  0  0  0
   -5.7422    2.2981   15.9110 C   0  0  0  0  0  0  0  0  0  0  0  0
   -6.5330    3.4115   15.8441 C   0  0  0  0  0  0  0  0  0  0  0  0
   -6.1590    4.5681   15.0121 C   0  0  0  0  0  0  0  0  0  0  0  0
   -4.9946    4.4777   14.3047 C   0  0  0  0  0  0  0  0  0  0  0  0
   -4.1440    3.2981   14.3687 C   0  0  0  0  0  0  0  0  0  0  0  0
   -4.5086    2.2382   15.1284 C   0  0  0  0  0  0  0  0  0  0  0  0
   -5.6602    1.2907   18.3807 N   0  0  0  0  0  0  0  0  0  0  0  0
   -5.3319   -0.1638   16.3495 O   0  0  0  0  0  0  0  0  0  0  0  0
   -6.1427    0.9283   16.9328 S   0  0  0  0  0  0  0  0  0  0  0  0
   -7.5514    0.7988   16.8180 O   0  0  0  0  0  0  0  0  0  0  0  0
   -4.6432    1.3678   18.3909 H   0  0  0  0  0  0  0  0  0  0  0  0
   -5.9523    0.5597   19.0293 H   0  0  0  0  0  0  0  0  0  0  0  0
 21 16  2  0  0  0
 17 16  1  0  0  0
 16 24  1  0  0  0
 22 24  1  0  0  0
 23 24  2  0  0  0
 24 25  2  0  0  0
 18 17  2  0  0  0
 19 18  1  0  0  0
  1 19  1  0  0  0
 19 20  2  0  0  0
 20 21  1  0  0  0
  3  1  1  0  0  0
  4  3  2  0  0  0
  9  3  1  0  0  0
  5  4  1  0  0  0
 10  5  1  0  0  0
  6  5  2  0  0  0
 12 10  1  0  0  0
  6  7  1  0  0  0
  8  7  1  0  0  0
  7  9  2  0  0  0
 13 12  1  0  0  0
 13 14  1  0  0  0
 22 26  1  0  0  0
 22 27  1  0  0  0
  1  2  1  0  0  0
 10 11  1  0  0  0
 14 15  1  0  0  0
M  END
> <minimizedAffinity>
-7.10983

$$$$
3MMF_D9H_A_263


 27 28  0  0  0  0  0  0  0  0999 V2000
   -4.1084    4.6901   13.3392 N   0  0  0  0  0  0  0  0  0  0  0  0
   -4.1804    5.6549   13.5218 H   0  0  0  0  0  0  0  0  0  0  0  0
   -3.6334    4.3260   12.0903 C   0  0  0  0  0  0  0  0  0  0  0  0
   -4.0941    5.0753   11.0757 N   0  0  0  0  0  0  0  0  0  0  0  0
   -3.7173    4.7865    9.8315 C   0  0  0  0  0  0  0  0  0  0  0  0
   -2.9205    3.7408    9.6077 N   0  0  0  0  0  0  0  0  0  0  0  0
   -2.4756    3.0183   10.6373 C   0  0  0  0  0  0  0  0  0  0  0  0
   -1.5168    1.6677   10.3117 Cl  0  0  0  0  0  0  0  0  0  0  0  0
   -2.8310    3.2867   11.8908 N   0  0  0  0  0  0  0  0  0  0  0  0
   -4.1976    5.5649    8.7388 N   0  0  0  0  0  0  0  0  0  0  0  0
   -4.2202    5.1835    7.8315 H   0  0  0  0  0  0  0  0  0  0  0  0
   -4.6483    6.9081    8.9685 C   0  0  0  0  0  0  0  0  0  0  0  0
   -6.1317    6.9453    8.7740 C   0  0  0  0  0  0  0  0  0  0  0  0
   -6.7538    6.0623    9.6394 O   0  0  0  0  0  0  0  0  0  0  0  0
   -6.4401    5.1615    9.4630 H   0  0  0  0  0  0  0  0  0  0  0  0
   -5.5967    2.1473   16.3324 C   0  0  0  0  0  0  0  0  0  0  0  0
   -4.2748    2.0460   15.9978 C   0  0  0  0  0  0  0  0  0  0  0  0
   -3.6769    2.9119   14.9669 C   0  0  0  0  0  0  0  0  0  0  0  0
   -4.4959    3.8247   14.3666 C   0  0  0  0  0  0  0  0  0  0  0  0
   -5.9048    3.9411   14.7137 C   0  0  0  0  0  0  0  0  0  0  0  0
   -6.4360    3.1462   15.6725 C   0  0  0  0  0  0  0  0  0  0  0  0
   -6.3679    1.8889   18.8739 N   0  0  0  0  0  0  0  0  0  0  0  0
   -5.4023   -0.0479   17.5834 O   0  0  0  0  0  0  0  0  0  0  0  0
   -6.3421    1.0938   17.5220 S   0  0  0  0  0  0  0  0  0  0  0  0
   -7.6323    0.8214   16.9971 O   0  0  0  0  0  0  0  0  0  0  0  0
   -5.4123    2.0493   19.1924 H   0  0  0  0  0  0  0  0  0  0  0  0
   -6.8742    1.3494   19.5761 H   0  0  0  0  0  0  0  0  0  0  0  0
 21 16  2  0  0  0
 17 16  1  0  0  0
 16 24  1  0  0  0
 22 24  1  0  0  0
 23 24  2  0  0  0
 24 25  2  0  0  0
 18 17  2  0  0  0
 19 18  1  0  0  0
  1 19  1  0  0  0
 19 20  2  0  0  0
 20 21  1  0  0  0
  3  1  1  0  0  0
  4  3  2  0  0  0
  9  3  1  0  0  0
  5  4  1  0  0  0
 10  5  1  0  0  0
  6  5  2  0  0  0
 12 10  1  0  0  0
  6  7  1  0  0  0
  8  7  1  0  0  0
  7  9  2  0  0  0
 13 12  1  0  0  0
 13 14  1  0  0  0
 22 26  1  0  0  0
 22 27  1  0  0  0
  1  2  1  0  0  0
 10 11  1  0  0  0
 14 15  1  0  0  0
M  END
> <minimizedAffinity>
-6.94641

$$$$
3MMF_D9H_A_263


 27 28  0  0  0  0  0  0  0  0999 V2000
   -3.9522    3.8062   10.5441 N   0  0  0  0  0  0  0  0  0  0  0  0
   -4.7628    4.3093   10.3013 H   0  0  0  0  0  0  0  0  0  0  0  0
   -2.8495    3.9668    9.7218 C   0  0  0  0  0  0  0  0  0  0  0  0
   -1.6816    3.5997   10.2732 N   0  0  0  0  0  0  0  0  0  0  0  0
   -0.5586    3.7422    9.5717 C   0  0  0  0  0  0  0  0  0  0  0  0
   -0.6047    4.2779    8.3513 N   0  0  0  0  0  0  0  0  0  0  0  0
   -1.7812    4.6285    7.8290 C   0  0  0  0  0  0  0  0  0  0  0  0
   -1.7951    5.3570    6.3062 Cl  0  0  0  0  0  0  0  0  0  0  0  0
   -2.9193    4.4928    8.5043 N   0  0  0  0  0  0  0  0  0  0  0  0
    0.6929    3.3640   10.1386 N   0  0  0  0  0  0  0  0  0  0  0  0
    0.9277    2.4122   10.2296 H   0  0  0  0  0  0  0  0  0  0  0  0
    1.6092    4.3785   10.5761 C   0  0  0  0  0  0  0  0  0  0  0  0
    2.8111    4.3413    9.6852 C   0  0  0  0  0  0  0  0  0  0  0  0
    3.1055    3.0373    9.3268 O   0  0  0  0  0  0  0  0  0  0  0  0
    3.2937    2.5175   10.1238 H   0  0  0  0  0  0  0  0  0  0  0  0
   -4.2385    1.6733   14.1508 C   0  0  0  0  0  0  0  0  0  0  0  0
   -4.3603    0.9793   12.9790 C   0  0  0  0  0  0  0  0  0  0  0  0
   -4.2587    1.6552   11.6741 C   0  0  0  0  0  0  0  0  0  0  0  0
   -4.0293    3.0012   11.6846 C   0  0  0  0  0  0  0  0  0  0  0  0
   -3.8989    3.7508   12.9256 C   0  0  0  0  0  0  0  0  0  0  0  0
   -3.9822    3.1123   14.1168 C   0  0  0  0  0  0  0  0  0  0  0  0
   -5.5985    1.6075   16.4459 N   0  0  0  0  0  0  0  0  0  0  0  0
   -3.1127    1.2022   16.3717 O   0  0  0  0  0  0  0  0  0  0  0  0
   -4.4046    0.8980   15.7167 S   0  0  0  0  0  0  0  0  0  0  0  0
   -4.6525   -0.4663   15.4137 O   0  0  0  0  0  0  0  0  0  0  0  0
   -5.3535    2.5799   16.6324 H   0  0  0  0  0  0  0  0  0  0  0  0
   -5.7909    1.1304   17.3267 H   0  0  0  0  0  0  0  0  0  0  0  0
 21 16  2  0  0  0
 17 16  1  0  0  0
 16 24  1  0  0  0
 22 24  1  0  0  0
 23 24  2  0  0  0
 24 25  2  0  0  0
 18 17  2  0  0  0
 19 18  1  0  0  0
  1 19  1  0  0  0
 19 20  2  0  0  0
 20 21  1  0  0  0
  3  1  1  0  0  0
  4  3  2  0  0  0
  9  3  1  0  0  0
  5  4  1  0  0  0
 10  5  1  0  0  0
  6  5  2  0  0  0
 12 10  1  0  0  0
  6  7  1  0  0  0
  8  7  1  0  0  0
  7  9  2  0  0  0
 13 12  1  0  0  0
 13 14  1  0  0  0
 22 26  1  0  0  0
 22 27  1  0  0  0
  1  2  1  0  0  0
 10 11  1  0  0  0
 14 15  1  0  0  0
M  END
> <minimizedAffinity>
-6.87875

$$$$
3MMF_D9H_A_263


 27 28  0  0  0  0  0  0  0  0999 V2000
   -2.7095    3.7993   11.8346 N   0  0  0  0  0  0  0  0  0  0  0  0
   -3.1710    4.6661   11.9050 H   0  0  0  0  0  0  0  0  0  0  0  0
   -3.2393    2.7499   12.5668 C   0  0  0  0  0  0  0  0  0  0  0  0
   -3.5710    1.6710   11.8397 N   0  0  0  0  0  0  0  0  0  0  0  0
   -4.1148    0.6190   12.4489 C   0  0  0  0  0  0  0  0  0  0  0  0
   -4.3542    0.6649   13.7600 N   0  0  0  0  0  0  0  0  0  0  0  0
   -4.0089    1.7496   14.4559 C   0  0  0  0  0  0  0  0  0  0  0  0
   -4.3803    1.7956   16.1020 Cl  0  0  0  0  0  0  0  0  0  0  0  0
   -3.4595    2.8128   13.8751 N   0  0  0  0  0  0  0  0  0  0  0  0
   -4.4793   -0.5349   11.6966 N   0  0  0  0  0  0  0  0  0  0  0  0
   -5.3884   -0.9058   11.7683 H   0  0  0  0  0  0  0  0  0  0  0  0
   -3.5135   -1.1535   10.8336 C   0  0  0  0  0  0  0  0  0  0  0  0
   -2.6487   -2.0500   11.6632 C   0  0  0  0  0  0  0  0  0  0  0  0
   -2.8188   -3.3701   11.2839 O   0  0  0  0  0  0  0  0  0  0  0  0
   -3.7454   -3.6267   11.4126 H   0  0  0  0  0  0  0  0  0  0  0  0
    0.4842    3.8186    9.1071 C   0  0  0  0  0  0  0  0  0  0  0  0
    0.7603    3.5686   10.4226 C   0  0  0  0  0  0  0  0  0  0  0  0
   -0.3079    3.5327   11.4363 C   0  0  0  0  0  0  0  0  0  0  0  0
   -1.5850    3.7509   11.0053 C   0  0  0  0  0  0  0  0  0  0  0  0
   -1.8911    4.0190    9.6077 C   0  0  0  0  0  0  0  0  0  0  0  0
   -0.8990    4.0360    8.6862 C   0  0  0  0  0  0  0  0  0  0  0  0
    1.2479    3.0789    6.6594 N   0  0  0  0  0  0  0  0  0  0  0  0
    2.8949    3.2634    8.5574 O   0  0  0  0  0  0  0  0  0  0  0  0
    1.7454    3.9145    7.8902 S   0  0  0  0  0  0  0  0  0  0  0  0
    1.8752    5.3021    7.6210 O   0  0  0  0  0  0  0  0  0  0  0  0
    1.1776    2.0958    6.9220 H   0  0  0  0  0  0  0  0  0  0  0  0
    1.9104    3.1789    5.8903 H   0  0  0  0  0  0  0  0  0  0  0  0
 21 16  2  0  0  0
 17 16  1  0  0  0
 16 24  1  0  0  0
 22 24  1  0  0  0
 23 24  2  0  0  0
 24 25  2  0  0  0
 18 17  2  0  0  0
 19 18  1  0  0  0
  1 19  1  0  0  0
 19 20  2  0  0  0
 20 21  1  0  0  0
  3  1  1  0  0  0
  4  3  2  0  0  0
  9  3  1  0  0  0
  5  4  1  0  0  0
 10  5  1  0  0  0
  6  5  2  0  0  0
 12 10  1  0  0  0
  6  7  1  0  0  0
  8  7  1  0  0  0
  7  9  2  0  0  0
 13 12  1  0  0  0
 13 14  1  0  0  0
 22 26  1  0  0  0
 22 27  1  0  0  0
  1  2  1  0  0  0
 10 11  1  0  0  0
 14 15  1  0  0  0
M  END
> <minimizedAffinity>
-6.60705

$$$$
3MMF_D9H_A_263


 27 28  0  0  0  0  0  0  0  0999 V2000
   -2.6080    3.4174   11.5235 N   0  0  0  0  0  0  0  0  0  0  0  0
   -3.0709    4.2287   11.8344 H   0  0  0  0  0  0  0  0  0  0  0  0
   -3.1258    2.2041   11.9452 C   0  0  0  0  0  0  0  0  0  0  0  0
   -3.7495    2.2442   13.1336 N   0  0  0  0  0  0  0  0  0  0  0  0
   -4.2574    1.1216   13.6390 C   0  0  0  0  0  0  0  0  0  0  0  0
   -4.1092   -0.0273   12.9785 N   0  0  0  0  0  0  0  0  0  0  0  0
   -3.4886   -0.0338   11.7975 C   0  0  0  0  0  0  0  0  0  0  0  0
   -3.2680   -1.5148   11.0179 Cl  0  0  0  0  0  0  0  0  0  0  0  0
   -2.9761    1.0727   11.2659 N   0  0  0  0  0  0  0  0  0  0  0  0
   -4.9190    1.1395   14.9010 N   0  0  0  0  0  0  0  0  0  0  0  0
   -5.4263    0.3525   15.2051 H   0  0  0  0  0  0  0  0  0  0  0  0
   -4.8416    2.3113   15.7262 C   0  0  0  0  0  0  0  0  0  0  0  0
   -6.1615    3.0142   15.6684 C   0  0  0  0  0  0  0  0  0  0  0  0
   -6.4514    3.3896   14.3682 O   0  0  0  0  0  0  0  0  0  0  0  0
   -5.7641    3.9930   14.0450 H   0  0  0  0  0  0  0  0  0  0  0  0
    0.9289    3.8392    9.2981 C   0  0  0  0  0  0  0  0  0  0  0  0
   -0.2646    3.9424    8.6391 C   0  0  0  0  0  0  0  0  0  0  0  0
   -1.5472    3.8186    9.3529 C   0  0  0  0  0  0  0  0  0  0  0  0
   -1.4935    3.6052   10.7005 C   0  0  0  0  0  0  0  0  0  0  0  0
   -0.2290    3.4926   11.4128 C   0  0  0  0  0  0  0  0  0  0  0  0
    0.9412    3.6214   10.7439 C   0  0  0  0  0  0  0  0  0  0  0  0
    2.2351    3.3581    7.0213 N   0  0  0  0  0  0  0  0  0  0  0  0
    3.3351    3.0448    9.2665 O   0  0  0  0  0  0  0  0  0  0  0  0
    2.4689    3.9346    8.4614 S   0  0  0  0  0  0  0  0  0  0  0  0
    2.7963    5.3156    8.4754 O   0  0  0  0  0  0  0  0  0  0  0  0
    2.0049    2.3665    7.0853 H   0  0  0  0  0  0  0  0  0  0  0  0
    3.0829    3.4753    6.4664 H   0  0  0  0  0  0  0  0  0  0  0  0
 21 16  2  0  0  0
 17 16  1  0  0  0
 16 24  1  0  0  0
 22 24  1  0  0  0
 23 24  2  0  0  0
 24 25  2  0  0  0
 18 17  2  0  0  0
 19 18  1  0  0  0
  1 19  1  0  0  0
 19 20  2  0  0  0
 20 21  1  0  0  0
  3  1  1  0  0  0
  4  3  2  0  0  0
  9  3  1  0  0  0
  5  4  1  0  0  0
 10  5  1  0  0  0
  6  5  2  0  0  0
 12 10  1  0  0  0
  6  7  1  0  0  0
  8  7  1  0  0  0
  7  9  2  0  0  0
 13 12  1  0  0  0
 13 14  1  0  0  0
 22 26  1  0  0  0
 22 27  1  0  0  0
  1  2  1  0  0  0
 10 11  1  0  0  0
 14 15  1  0  0  0
M  END
> <minimizedAffinity>
-6.57748

$$$$
