3VW1_CVI_B_301


 28 30  0  0  0  0  0  0  0  0999 V2000
  -12.8306    2.7298  -18.4436 C   0  0  0  0  0  0  0  0  0  0  0  0
  -12.0593    3.3673  -17.3671 C   0  0  0  0  0  0  0  0  0  0  0  0
  -11.0063    2.6836  -16.8063 C   0  0  0  0  0  0  0  0  0  0  0  0
  -10.2975    3.2687  -15.7302 C   0  0  0  0  0  0  0  0  0  0  0  0
  -10.6919    4.5581  -15.2972 C   0  0  0  0  0  0  0  0  0  0  0  0
  -11.7660    5.2348  -15.9141 C   0  0  0  0  0  0  0  0  0  0  0  0
  -12.4492    4.6180  -16.9466 C   0  0  0  0  0  0  0  0  0  0  0  0
   -8.6832    4.6826  -13.8234 C   0  0  0  0  0  0  0  0  0  0  0  0
  -10.5484    6.2977  -13.4905 C   0  0  0  0  0  0  0  0  0  0  0  0
  -10.0109    5.1646  -14.2291 N   0  0  0  0  0  0  0  0  0  0  0  0
  -14.2977    3.0481  -18.5494 C   0  0  0  0  0  0  0  0  0  0  0  0
  -14.7924    3.7420  -19.6618 C   0  0  0  0  0  0  0  0  0  0  0  0
  -16.1850    4.0382  -19.7300 C   0  0  0  0  0  0  0  0  0  0  0  0
  -17.0555    3.6701  -18.7061 C   0  0  0  0  0  0  0  0  0  0  0  0
  -16.5524    3.0050  -17.5960 C   0  0  0  0  0  0  0  0  0  0  0  0
  -15.1774    2.6864  -17.4901 C   0  0  0  0  0  0  0  0  0  0  0  0
  -18.9154    4.8802  -19.7362 C   0  0  0  0  0  0  0  0  0  0  0  0
  -19.1850    3.3258  -17.7114 C   0  0  0  0  0  0  0  0  0  0  0  0
  -18.3893    3.9611  -18.7453 N   0  0  0  0  0  0  0  0  0  0  0  0
  -12.1155    1.9089  -19.4281 C   0  0  0  0  0  0  0  0  0  0  0  0
  -10.7196    1.8066  -19.4404 C   0  0  0  0  0  0  0  0  0  0  0  0
  -10.1394    1.0146  -20.4573 C   0  0  0  0  0  0  0  0  0  0  0  0
  -10.9272    0.3120  -21.3929 C   0  0  0  0  0  0  0  0  0  0  0  0
  -12.2969    0.4355  -21.3288 C   0  0  0  0  0  0  0  0  0  0  0  0
  -12.8793    1.2344  -20.3590 C   0  0  0  0  0  0  0  0  0  0  0  0
   -8.8709   -0.4887  -22.5138 C   0  0  0  0  0  0  0  0  0  0  0  0
  -11.0399   -1.1094  -23.5393 C   0  0  0  0  0  0  0  0  0  0  0  0
  -10.3214   -0.4518  -22.4391 N   0  0  0  0  0  0  0  0  0  0  0  0
  1  2  2  0  0  0
  1 11  1  0  0  0
  1 20  1  0  0  0
  2  3  1  0  0  0
  2  7  1  0  0  0
  3  4  2  0  0  0
  4  5  1  0  0  0
  5  6  1  0  0  0
  5 10  2  0  0  0
  6  7  2  0  0  0
 11 12  2  0  0  0
 11 16  1  0  0  0
 12 13  1  0  0  0
 13 14  2  0  0  0
 14 15  1  0  0  0
 14 19  1  0  0  0
 15 16  2  0  0  0
 20 21  2  0  0  0
 20 25  1  0  0  0
 21 22  1  0  0  0
 22 23  2  0  0  0
 23 24  1  0  0  0
 23 28  1  0  0  0
 24 25  2  0  0  0
  8 10  1  0  0  0
  9 10  1  0  0  0
 17 19  1  0  0  0
 18 19  1  0  0  0
 26 28  1  0  0  0
 27 28  1  0  0  0
M  CHG 1  10   1
M  END
> <minimizedAffinity>
-11.30359

$$$$
3VW1_CVI_B_301


 28 30  0  0  0  0  0  0  0  0999 V2000
  -12.7848    2.9334  -18.5309 C   0  0  0  0  0  0  0  0  0  0  0  0
  -12.0790    3.5000  -17.3728 C   0  0  0  0  0  0  0  0  0  0  0  0
  -12.4361    4.7482  -16.9197 C   0  0  0  0  0  0  0  0  0  0  0  0
  -11.7207    5.3228  -15.8423 C   0  0  0  0  0  0  0  0  0  0  0  0
  -10.6789    4.5634  -15.2561 C   0  0  0  0  0  0  0  0  0  0  0  0
  -10.3575    3.2765  -15.7385 C   0  0  0  0  0  0  0  0  0  0  0  0
  -11.0644    2.7608  -16.8097 C   0  0  0  0  0  0  0  0  0  0  0  0
  -10.4799    6.2434  -13.4229 C   0  0  0  0  0  0  0  0  0  0  0  0
   -8.6606    4.5778  -13.7602 C   0  0  0  0  0  0  0  0  0  0  0  0
   -9.9475    5.1070  -14.1874 N   0  0  0  0  0  0  0  0  0  0  0  0
  -12.0164    2.0299  -19.4573 C   0  0  0  0  0  0  0  0  0  0  0  0
  -10.6175    1.9780  -19.3953 C   0  0  0  0  0  0  0  0  0  0  0  0
   -9.9159    1.1204  -20.2921 C   0  0  0  0  0  0  0  0  0  0  0  0
  -10.5914    0.3522  -21.2381 C   0  0  0  0  0  0  0  0  0  0  0  0
  -11.9759    0.4288  -21.3092 C   0  0  0  0  0  0  0  0  0  0  0  0
  -12.7122    1.2632  -20.4345 C   0  0  0  0  0  0  0  0  0  0  0  0
   -8.5293   -0.7651  -21.9338 C   0  0  0  0  0  0  0  0  0  0  0  0
  -10.7373   -0.9308  -23.2320 C   0  0  0  0  0  0  0  0  0  0  0  0
   -9.9355   -0.4614  -22.1175 N   0  0  0  0  0  0  0  0  0  0  0  0
  -14.2255    3.1803  -18.6645 C   0  0  0  0  0  0  0  0  0  0  0  0
  -14.7720    3.8175  -19.7845 C   0  0  0  0  0  0  0  0  0  0  0  0
  -16.1690    4.0325  -19.7871 C   0  0  0  0  0  0  0  0  0  0  0  0
  -16.9925    3.5819  -18.7343 C   0  0  0  0  0  0  0  0  0  0  0  0
  -16.4066    2.9481  -17.6617 C   0  0  0  0  0  0  0  0  0  0  0  0
  -15.0349    2.7595  -17.6288 C   0  0  0  0  0  0  0  0  0  0  0  0
  -18.9228    4.7840  -19.7114 C   0  0  0  0  0  0  0  0  0  0  0  0
  -19.3593    3.3417  -17.7440 C   0  0  0  0  0  0  0  0  0  0  0  0
  -18.3982    3.8442  -18.7355 N   0  0  0  0  0  0  0  0  0  0  0  0
  1  2  2  0  0  0
  1 11  1  0  0  0
  1 20  1  0  0  0
  2  3  1  0  0  0
  2  7  1  0  0  0
  3  4  2  0  0  0
  4  5  1  0  0  0
  5  6  1  0  0  0
  5 10  2  0  0  0
  6  7  2  0  0  0
 11 12  2  0  0  0
 11 16  1  0  0  0
 12 13  1  0  0  0
 13 14  2  0  0  0
 14 15  1  0  0  0
 14 19  1  0  0  0
 15 16  2  0  0  0
 20 21  2  0  0  0
 20 25  1  0  0  0
 21 22  1  0  0  0
 22 23  2  0  0  0
 23 24  1  0  0  0
 23 28  1  0  0  0
 24 25  2  0  0  0
  8 10  1  0  0  0
  9 10  1  0  0  0
 17 19  1  0  0  0
 18 19  1  0  0  0
 26 28  1  0  0  0
 27 28  1  0  0  0
M  CHG 1  10   1
M  END
> <minimizedAffinity>
-11.15518

$$$$
3VW1_CVI_B_301


 28 30  0  0  0  0  0  0  0  0999 V2000
  -12.6344    2.3813  -18.2505 C   0  0  0  0  0  0  0  0  0  0  0  0
  -12.0637    1.6204  -19.3710 C   0  0  0  0  0  0  0  0  0  0  0  0
  -10.7333    1.7829  -19.6783 C   0  0  0  0  0  0  0  0  0  0  0  0
  -10.1930    1.0976  -20.7923 C   0  0  0  0  0  0  0  0  0  0  0  0
  -11.0509    0.2439  -21.5277 C   0  0  0  0  0  0  0  0  0  0  0  0
  -12.4065    0.0893  -21.1662 C   0  0  0  0  0  0  0  0  0  0  0  0
  -12.9022    0.7961  -20.0855 C   0  0  0  0  0  0  0  0  0  0  0  0
   -9.0969   -0.6156  -22.8183 C   0  0  0  0  0  0  0  0  0  0  0  0
  -11.4022   -1.0511  -23.6516 C   0  0  0  0  0  0  0  0  0  0  0  0
  -10.5460   -0.4476  -22.6410 N   0  0  0  0  0  0  0  0  0  0  0  0
  -14.0762    2.8031  -18.3408 C   0  0  0  0  0  0  0  0  0  0  0  0
  -14.9652    2.5116  -17.2976 C   0  0  0  0  0  0  0  0  0  0  0  0
  -16.3273    2.9148  -17.4154 C   0  0  0  0  0  0  0  0  0  0  0  0
  -16.7929    3.5723  -18.5523 C   0  0  0  0  0  0  0  0  0  0  0  0
  -15.9107    3.8349  -19.5918 C   0  0  0  0  0  0  0  0  0  0  0  0
  -14.5489    3.4567  -19.5140 C   0  0  0  0  0  0  0  0  0  0  0  0
  -18.4936    4.8641  -19.7453 C   0  0  0  0  0  0  0  0  0  0  0  0
  -19.0012    3.4095  -17.6923 C   0  0  0  0  0  0  0  0  0  0  0  0
  -18.0980    3.9502  -18.6910 N   0  0  0  0  0  0  0  0  0  0  0  0
  -11.8110    2.5924  -17.0538 C   0  0  0  0  0  0  0  0  0  0  0  0
  -11.2121    3.8251  -16.7690 C   0  0  0  0  0  0  0  0  0  0  0  0
  -10.4123    3.9006  -15.6060 C   0  0  0  0  0  0  0  0  0  0  0  0
  -10.2599    2.8009  -14.7359 C   0  0  0  0  0  0  0  0  0  0  0  0
  -10.8815    1.6147  -15.0548 C   0  0  0  0  0  0  0  0  0  0  0  0
  -11.6414    1.5149  -16.2082 C   0  0  0  0  0  0  0  0  0  0  0  0
   -8.5262    4.0277  -13.4649 C   0  0  0  0  0  0  0  0  0  0  0  0
   -9.2646    1.8414  -12.5613 C   0  0  0  0  0  0  0  0  0  0  0  0
   -9.4143    2.8842  -13.5857 N   0  0  0  0  0  0  0  0  0  0  0  0
  1  2  2  0  0  0
  1 11  1  0  0  0
  1 20  1  0  0  0
  2  3  1  0  0  0
  2  7  1  0  0  0
  3  4  2  0  0  0
  4  5  1  0  0  0
  5  6  1  0  0  0
  5 10  2  0  0  0
  6  7  2  0  0  0
 11 12  2  0  0  0
 11 16  1  0  0  0
 12 13  1  0  0  0
 13 14  2  0  0  0
 14 15  1  0  0  0
 14 19  1  0  0  0
 15 16  2  0  0  0
 20 21  2  0  0  0
 20 25  1  0  0  0
 21 22  1  0  0  0
 22 23  2  0  0  0
 23 24  1  0  0  0
 23 28  1  0  0  0
 24 25  2  0  0  0
  8 10  1  0  0  0
  9 10  1  0  0  0
 17 19  1  0  0  0
 18 19  1  0  0  0
 26 28  1  0  0  0
 27 28  1  0  0  0
M  CHG 1  10   1
M  END
> <minimizedAffinity>
-10.85011

$$$$
3VW1_CVI_B_301


 28 30  0  0  0  0  0  0  0  0999 V2000
  -12.7353    2.1893  -18.4207 C   0  0  0  0  0  0  0  0  0  0  0  0
  -12.1046    1.5028  -19.5570 C   0  0  0  0  0  0  0  0  0  0  0  0
  -12.8694    0.6729  -20.3426 C   0  0  0  0  0  0  0  0  0  0  0  0
  -12.2543   -0.0357  -21.4019 C   0  0  0  0  0  0  0  0  0  0  0  0
  -10.8706    0.1691  -21.6235 C   0  0  0  0  0  0  0  0  0  0  0  0
  -10.1257    1.0461  -20.8061 C   0  0  0  0  0  0  0  0  0  0  0  0
  -10.7591    1.7010  -19.7654 C   0  0  0  0  0  0  0  0  0  0  0  0
  -11.0145   -1.1278  -23.7495 C   0  0  0  0  0  0  0  0  0  0  0  0
   -8.7831   -0.6579  -22.7504 C   0  0  0  0  0  0  0  0  0  0  0  0
  -10.2298   -0.5223  -22.6646 N   0  0  0  0  0  0  0  0  0  0  0  0
  -11.8974    2.4562  -17.1994 C   0  0  0  0  0  0  0  0  0  0  0  0
  -11.3228    3.7183  -16.9979 C   0  0  0  0  0  0  0  0  0  0  0  0
  -10.5258    3.9389  -15.8369 C   0  0  0  0  0  0  0  0  0  0  0  0
  -10.2922    2.9215  -14.9139 C   0  0  0  0  0  0  0  0  0  0  0  0
  -10.8449    1.6671  -15.1344 C   0  0  0  0  0  0  0  0  0  0  0  0
  -11.6468    1.4062  -16.2712 C   0  0  0  0  0  0  0  0  0  0  0  0
   -8.7408    4.3235  -13.6440 C   0  0  0  0  0  0  0  0  0  0  0  0
   -9.5081    1.9996  -12.8699 C   0  0  0  0  0  0  0  0  0  0  0  0
   -9.5167    3.1088  -13.8053 N   0  0  0  0  0  0  0  0  0  0  0  0
  -14.1095    2.6820  -18.5733 C   0  0  0  0  0  0  0  0  0  0  0  0
  -14.5306    3.3752  -19.7141 C   0  0  0  0  0  0  0  0  0  0  0  0
  -15.8679    3.8324  -19.7345 C   0  0  0  0  0  0  0  0  0  0  0  0
  -16.7622    3.5619  -18.6778 C   0  0  0  0  0  0  0  0  0  0  0  0
  -16.3015    2.8640  -17.5842 C   0  0  0  0  0  0  0  0  0  0  0  0
  -14.9846    2.4381  -17.5343 C   0  0  0  0  0  0  0  0  0  0  0  0
  -19.0395    3.5693  -17.7081 C   0  0  0  0  0  0  0  0  0  0  0  0
  -18.6569    4.9619  -19.7220 C   0  0  0  0  0  0  0  0  0  0  0  0
  -18.0999    4.0672  -18.6980 N   0  0  0  0  0  0  0  0  0  0  0  0
  1  2  2  0  0  0
  1 11  1  0  0  0
  1 20  1  0  0  0
  2  3  1  0  0  0
  2  7  1  0  0  0
  3  4  2  0  0  0
  4  5  1  0  0  0
  5  6  1  0  0  0
  5 10  2  0  0  0
  6  7  2  0  0  0
 11 12  2  0  0  0
 11 16  1  0  0  0
 12 13  1  0  0  0
 13 14  2  0  0  0
 14 15  1  0  0  0
 14 19  1  0  0  0
 15 16  2  0  0  0
 20 21  2  0  0  0
 20 25  1  0  0  0
 21 22  1  0  0  0
 22 23  2  0  0  0
 23 24  1  0  0  0
 23 28  1  0  0  0
 24 25  2  0  0  0
  8 10  1  0  0  0
  9 10  1  0  0  0
 17 19  1  0  0  0
 18 19  1  0  0  0
 26 28  1  0  0  0
 27 28  1  0  0  0
M  CHG 1  10   1
M  END
> <minimizedAffinity>
-10.68877

$$$$
3VW1_CVI_B_301


 28 30  0  0  0  0  0  0  0  0999 V2000
  -12.5400    2.1185  -18.6919 C   0  0  0  0  0  0  0  0  0  0  0  0
  -13.9700    2.4557  -18.7317 C   0  0  0  0  0  0  0  0  0  0  0  0
  -14.5314    2.8400  -19.9266 C   0  0  0  0  0  0  0  0  0  0  0  0
  -15.8937    3.2221  -19.9586 C   0  0  0  0  0  0  0  0  0  0  0  0
  -16.6297    3.1609  -18.7502 C   0  0  0  0  0  0  0  0  0  0  0  0
  -16.0202    2.7409  -17.5485 C   0  0  0  0  0  0  0  0  0  0  0  0
  -14.6798    2.3995  -17.5544 C   0  0  0  0  0  0  0  0  0  0  0  0
  -18.7380    3.6071  -20.0067 C   0  0  0  0  0  0  0  0  0  0  0  0
  -18.7149    3.8475  -17.5288 C   0  0  0  0  0  0  0  0  0  0  0  0
  -17.9829    3.5369  -18.7479 N   0  0  0  0  0  0  0  0  0  0  0  0
  -11.7756    2.4172  -17.4304 C   0  0  0  0  0  0  0  0  0  0  0  0
  -11.2145    3.6850  -17.2268 C   0  0  0  0  0  0  0  0  0  0  0  0
  -10.4873    3.9359  -16.0268 C   0  0  0  0  0  0  0  0  0  0  0  0
  -10.3079    2.9422  -15.0667 C   0  0  0  0  0  0  0  0  0  0  0  0
  -10.8460    1.6815  -15.2881 C   0  0  0  0  0  0  0  0  0  0  0  0
  -11.5795    1.3910  -16.4633 C   0  0  0  0  0  0  0  0  0  0  0  0
   -8.8633    4.3935  -13.7282 C   0  0  0  0  0  0  0  0  0  0  0  0
   -9.6143    2.0578  -12.9740 C   0  0  0  0  0  0  0  0  0  0  0  0
   -9.5991    3.1584  -13.9194 N   0  0  0  0  0  0  0  0  0  0  0  0
  -11.9550    1.4055  -19.8338 C   0  0  0  0  0  0  0  0  0  0  0  0
  -10.5714    1.2957  -20.0147 C   0  0  0  0  0  0  0  0  0  0  0  0
  -10.1235    0.6159  -21.1702 C   0  0  0  0  0  0  0  0  0  0  0  0
  -11.0240    0.0251  -22.0811 C   0  0  0  0  0  0  0  0  0  0  0  0
  -12.3754    0.1501  -21.8496 C   0  0  0  0  0  0  0  0  0  0  0  0
  -12.8306    0.8419  -20.7396 C   0  0  0  0  0  0  0  0  0  0  0  0
  -11.4329   -1.5719  -23.9272 C   0  0  0  0  0  0  0  0  0  0  0  0
   -9.1941   -0.5154  -23.8129 C   0  0  0  0  0  0  0  0  0  0  0  0
  -10.5534   -0.6237  -23.2653 N   0  0  0  0  0  0  0  0  0  0  0  0
  1  2  2  0  0  0
  1 11  1  0  0  0
  1 20  1  0  0  0
  2  3  1  0  0  0
  2  7  1  0  0  0
  3  4  2  0  0  0
  4  5  1  0  0  0
  5  6  1  0  0  0
  5 10  2  0  0  0
  6  7  2  0  0  0
 11 12  2  0  0  0
 11 16  1  0  0  0
 12 13  1  0  0  0
 13 14  2  0  0  0
 14 15  1  0  0  0
 14 19  1  0  0  0
 15 16  2  0  0  0
 20 21  2  0  0  0
 20 25  1  0  0  0
 21 22  1  0  0  0
 22 23  2  0  0  0
 23 24  1  0  0  0
 23 28  1  0  0  0
 24 25  2  0  0  0
  8 10  1  0  0  0
  9 10  1  0  0  0
 17 19  1  0  0  0
 18 19  1  0  0  0
 26 28  1  0  0  0
 27 28  1  0  0  0
M  CHG 1  10   1
M  END
> <minimizedAffinity>
-9.94709

$$$$
3VW1_CVI_B_301


 28 30  0  0  0  0  0  0  0  0999 V2000
  -12.6278    2.0890  -18.5474 C   0  0  0  0  0  0  0  0  0  0  0  0
  -14.0384    2.4990  -18.5959 C   0  0  0  0  0  0  0  0  0  0  0  0
  -14.7750    2.4923  -17.4347 C   0  0  0  0  0  0  0  0  0  0  0  0
  -16.1484    2.8298  -17.4860 C   0  0  0  0  0  0  0  0  0  0  0  0
  -16.6976    3.1915  -18.7403 C   0  0  0  0  0  0  0  0  0  0  0  0
  -15.9013    3.2054  -19.9055 C   0  0  0  0  0  0  0  0  0  0  0  0
  -14.5689    2.8449  -19.8174 C   0  0  0  0  0  0  0  0  0  0  0  0
  -18.8117    3.8928  -17.6172 C   0  0  0  0  0  0  0  0  0  0  0  0
  -18.7867    3.5640  -20.0850 C   0  0  0  0  0  0  0  0  0  0  0  0
  -18.0585    3.5283  -18.8252 N   0  0  0  0  0  0  0  0  0  0  0  0
  -12.0480    1.3988  -19.7526 C   0  0  0  0  0  0  0  0  0  0  0  0
  -12.8907    0.7986  -20.6976 C   0  0  0  0  0  0  0  0  0  0  0  0
  -12.3128    0.1435  -21.8239 C   0  0  0  0  0  0  0  0  0  0  0  0
  -10.9312    0.0718  -21.9906 C   0  0  0  0  0  0  0  0  0  0  0  0
  -10.1031    0.6476  -21.0363 C   0  0  0  0  0  0  0  0  0  0  0  0
  -10.6352    1.3123  -19.9056 C   0  0  0  0  0  0  0  0  0  0  0  0
  -11.1718   -1.3296  -23.9812 C   0  0  0  0  0  0  0  0  0  0  0  0
   -8.9143   -0.4530  -23.1305 C   0  0  0  0  0  0  0  0  0  0  0  0
  -10.3588   -0.5670  -23.0534 N   0  0  0  0  0  0  0  0  0  0  0  0
  -11.8252    2.4722  -17.3797 C   0  0  0  0  0  0  0  0  0  0  0  0
  -11.3170    3.7661  -17.2166 C   0  0  0  0  0  0  0  0  0  0  0  0
  -10.5281    4.0097  -16.0693 C   0  0  0  0  0  0  0  0  0  0  0  0
  -10.2999    3.0122  -15.0985 C   0  0  0  0  0  0  0  0  0  0  0  0
  -10.8340    1.7594  -15.2999 C   0  0  0  0  0  0  0  0  0  0  0  0
  -11.5814    1.4955  -16.4355 C   0  0  0  0  0  0  0  0  0  0  0  0
   -8.6777    4.4860  -13.9484 C   0  0  0  0  0  0  0  0  0  0  0  0
   -9.2300    2.3316  -12.8552 C   0  0  0  0  0  0  0  0  0  0  0  0
   -9.4659    3.2656  -13.9648 N   0  0  0  0  0  0  0  0  0  0  0  0
  1  2  2  0  0  0
  1 11  1  0  0  0
  1 20  1  0  0  0
  2  3  1  0  0  0
  2  7  1  0  0  0
  3  4  2  0  0  0
  4  5  1  0  0  0
  5  6  1  0  0  0
  5 10  2  0  0  0
  6  7  2  0  0  0
 11 12  2  0  0  0
 11 16  1  0  0  0
 12 13  1  0  0  0
 13 14  2  0  0  0
 14 15  1  0  0  0
 14 19  1  0  0  0
 15 16  2  0  0  0
 20 21  2  0  0  0
 20 25  1  0  0  0
 21 22  1  0  0  0
 22 23  2  0  0  0
 23 24  1  0  0  0
 23 28  1  0  0  0
 24 25  2  0  0  0
  8 10  1  0  0  0
  9 10  1  0  0  0
 17 19  1  0  0  0
 18 19  1  0  0  0
 26 28  1  0  0  0
 27 28  1  0  0  0
M  CHG 1  10   1
M  END
> <minimizedAffinity>
-9.93252

$$$$
3VW1_CVI_B_301


 28 30  0  0  0  0  0  0  0  0999 V2000
  -12.7609    1.4697  -18.0378 C   0  0  0  0  0  0  0  0  0  0  0  0
  -12.1965    1.1355  -16.7225 C   0  0  0  0  0  0  0  0  0  0  0  0
  -12.3972    1.9994  -15.6717 C   0  0  0  0  0  0  0  0  0  0  0  0
  -11.8066    1.7116  -14.4183 C   0  0  0  0  0  0  0  0  0  0  0  0
  -11.0534    0.5185  -14.2967 C   0  0  0  0  0  0  0  0  0  0  0  0
  -10.8887   -0.3522  -15.3954 C   0  0  0  0  0  0  0  0  0  0  0  0
  -11.4614   -0.0222  -16.6104 C   0  0  0  0  0  0  0  0  0  0  0  0
  -10.9011    0.8607  -11.8305 C   0  0  0  0  0  0  0  0  0  0  0  0
   -9.3892   -0.7804  -12.9347 C   0  0  0  0  0  0  0  0  0  0  0  0
  -10.4514    0.2060  -13.0668 N   0  0  0  0  0  0  0  0  0  0  0  0
  -12.0100    1.0279  -19.2649 C   0  0  0  0  0  0  0  0  0  0  0  0
  -10.6528    1.3426  -19.4151 C   0  0  0  0  0  0  0  0  0  0  0  0
   -9.9700    0.9196  -20.5927 C   0  0  0  0  0  0  0  0  0  0  0  0
  -10.6295    0.2200  -21.6012 C   0  0  0  0  0  0  0  0  0  0  0  0
  -11.9803   -0.0658  -21.4553 C   0  0  0  0  0  0  0  0  0  0  0  0
  -12.6955    0.3310  -20.3000 C   0  0  0  0  0  0  0  0  0  0  0  0
  -10.7320   -0.3092  -23.9874 C   0  0  0  0  0  0  0  0  0  0  0  0
   -8.5883   -0.4899  -22.5873 C   0  0  0  0  0  0  0  0  0  0  0  0
   -9.9967   -0.1778  -22.7443 N   0  0  0  0  0  0  0  0  0  0  0  0
  -14.0793    2.1126  -18.0930 C   0  0  0  0  0  0  0  0  0  0  0  0
  -14.9509    2.1213  -16.9978 C   0  0  0  0  0  0  0  0  0  0  0  0
  -16.2087    2.7403  -17.1789 C   0  0  0  0  0  0  0  0  0  0  0  0
  -16.5595    3.3703  -18.3911 C   0  0  0  0  0  0  0  0  0  0  0  0
  -15.6604    3.3454  -19.4334 C   0  0  0  0  0  0  0  0  0  0  0  0
  -14.4371    2.7138  -19.2826 C   0  0  0  0  0  0  0  0  0  0  0  0
  -18.9337    3.5131  -17.7064 C   0  0  0  0  0  0  0  0  0  0  0  0
  -18.2248    4.8863  -19.6437 C   0  0  0  0  0  0  0  0  0  0  0  0
  -17.8519    3.9561  -18.5690 N   0  0  0  0  0  0  0  0  0  0  0  0
  1  2  2  0  0  0
  1 11  1  0  0  0
  1 20  1  0  0  0
  2  3  1  0  0  0
  2  7  1  0  0  0
  3  4  2  0  0  0
  4  5  1  0  0  0
  5  6  1  0  0  0
  5 10  2  0  0  0
  6  7  2  0  0  0
 11 12  2  0  0  0
 11 16  1  0  0  0
 12 13  1  0  0  0
 13 14  2  0  0  0
 14 15  1  0  0  0
 14 19  1  0  0  0
 15 16  2  0  0  0
 20 21  2  0  0  0
 20 25  1  0  0  0
 21 22  1  0  0  0
 22 23  2  0  0  0
 23 24  1  0  0  0
 23 28  1  0  0  0
 24 25  2  0  0  0
  8 10  1  0  0  0
  9 10  1  0  0  0
 17 19  1  0  0  0
 18 19  1  0  0  0
 26 28  1  0  0  0
 27 28  1  0  0  0
M  CHG 1  10   1
M  END
> <minimizedAffinity>
-9.39271

$$$$
3VW1_CVI_B_301


 28 30  0  0  0  0  0  0  0  0999 V2000
  -12.7482    1.2463  -18.1659 C   0  0  0  0  0  0  0  0  0  0  0  0
  -12.1389    1.0002  -16.8512 C   0  0  0  0  0  0  0  0  0  0  0  0
  -11.3775   -0.1304  -16.6702 C   0  0  0  0  0  0  0  0  0  0  0  0
  -10.8373   -0.4019  -15.3907 C   0  0  0  0  0  0  0  0  0  0  0  0
  -11.0844    0.5300  -14.3534 C   0  0  0  0  0  0  0  0  0  0  0  0
  -11.8547    1.6895  -14.5865 C   0  0  0  0  0  0  0  0  0  0  0  0
  -12.3858    1.9058  -15.8452 C   0  0  0  0  0  0  0  0  0  0  0  0
   -9.4700   -0.6737  -12.8813 C   0  0  0  0  0  0  0  0  0  0  0  0
  -11.0460    0.9737  -11.8810 C   0  0  0  0  0  0  0  0  0  0  0  0
  -10.5652    0.2875  -13.0712 N   0  0  0  0  0  0  0  0  0  0  0  0
  -14.0736    1.9578  -18.2114 C   0  0  0  0  0  0  0  0  0  0  0  0
  -14.8959    1.9946  -17.0774 C   0  0  0  0  0  0  0  0  0  0  0  0
  -16.1503    2.6673  -17.1531 C   0  0  0  0  0  0  0  0  0  0  0  0
  -16.5803    3.2685  -18.3344 C   0  0  0  0  0  0  0  0  0  0  0  0
  -15.7701    3.2056  -19.4602 C   0  0  0  0  0  0  0  0  0  0  0  0
  -14.5149    2.5523  -19.4275 C   0  0  0  0  0  0  0  0  0  0  0  0
  -18.8803    3.5452  -17.5482 C   0  0  0  0  0  0  0  0  0  0  0  0
  -17.8762    4.8887  -19.4912 C   0  0  0  0  0  0  0  0  0  0  0  0
  -17.7865    3.9018  -18.4312 N   0  0  0  0  0  0  0  0  0  0  0  0
  -11.9866    0.8925  -19.3697 C   0  0  0  0  0  0  0  0  0  0  0  0
  -10.6317    1.2121  -19.5155 C   0  0  0  0  0  0  0  0  0  0  0  0
  -10.0110    0.8520  -20.7333 C   0  0  0  0  0  0  0  0  0  0  0  0
  -10.7052    0.1543  -21.7436 C   0  0  0  0  0  0  0  0  0  0  0  0
  -12.0334   -0.1484  -21.5448 C   0  0  0  0  0  0  0  0  0  0  0  0
  -12.6648    0.2271  -20.3708 C   0  0  0  0  0  0  0  0  0  0  0  0
  -10.8968   -0.2481  -24.1783 C   0  0  0  0  0  0  0  0  0  0  0  0
   -8.6633   -0.5511  -23.1483 C   0  0  0  0  0  0  0  0  0  0  0  0
  -10.0719   -0.1659  -22.9852 N   0  0  0  0  0  0  0  0  0  0  0  0
  1  2  2  0  0  0
  1 11  1  0  0  0
  1 20  1  0  0  0
  2  3  1  0  0  0
  2  7  1  0  0  0
  3  4  2  0  0  0
  4  5  1  0  0  0
  5  6  1  0  0  0
  5 10  2  0  0  0
  6  7  2  0  0  0
 11 12  2  0  0  0
 11 16  1  0  0  0
 12 13  1  0  0  0
 13 14  2  0  0  0
 14 15  1  0  0  0
 14 19  1  0  0  0
 15 16  2  0  0  0
 20 21  2  0  0  0
 20 25  1  0  0  0
 21 22  1  0  0  0
 22 23  2  0  0  0
 23 24  1  0  0  0
 23 28  1  0  0  0
 24 25  2  0  0  0
  8 10  1  0  0  0
  9 10  1  0  0  0
 17 19  1  0  0  0
 18 19  1  0  0  0
 26 28  1  0  0  0
 27 28  1  0  0  0
M  CHG 1  10   1
M  END
> <minimizedAffinity>
-8.81951

$$$$
