5O4F_8VE_B_305


 18 19  0  0  0  0  0  0  0  0999 V2000
   15.4926   69.7661   23.5422 N   0  0  0  0  0  0  0  0  0  0  0  0
   17.6601   68.3868   21.5379 N   0  0  0  0  0  0  0  0  0  0  0  0
   16.3192   67.6116   23.3954 C   0  0  0  0  0  0  0  0  0  0  0  0
   17.4846   67.1701   22.4658 C   0  0  0  0  0  0  0  0  0  0  0  0
   15.1243   71.1287   23.1816 C   0  0  0  0  0  0  0  0  0  0  0  0
   16.6107   68.3173   24.7343 C   0  0  0  0  0  0  0  0  0  0  0  0
   16.1395   69.5134   24.7491 N   0  0  0  0  0  0  0  0  0  0  0  0
   16.2533   68.9374   21.2957 C   0  0  0  0  0  0  0  0  0  0  0  0
   15.5146   68.6515   22.6255 C   0  0  0  0  0  0  0  0  0  0  0  0
   18.2449   69.0926   21.9854 H   0  0  0  0  0  0  0  0  0  0  0  0
   17.3802   67.6216   25.8462 C   0  0  0  0  0  0  0  0  0  0  0  0
   17.6312   66.3979   25.7163 O   0  0  0  0  0  0  0  0  0  0  0  0
   17.7389   68.3011   26.8374 O   0  0  0  0  0  0  0  0  0  0  0  0
   17.3389   65.9381   24.9540 H   0  0  0  0  0  0  0  0  0  0  0  0
   17.3142   65.8944   21.5874 C   0  0  0  0  0  0  0  0  0  0  0  0
   16.8423   64.8406   22.0859 O   0  0  0  0  0  0  0  0  0  0  0  0
   17.6586   65.9620   20.3866 O   0  0  0  0  0  0  0  0  0  0  0  0
   18.0071   66.7612   20.0434 H   0  0  0  0  0  0  0  0  0  0  0  0
  5  1  1  0  0  0
  7  1  1  0  0  0
  7  6  2  0  0  0
  1  9  1  0  0  0
 13 11  2  0  0  0
  8  2  1  0  0  0
  8  9  1  0  0  0
  6 11  1  0  0  0
  6  3  1  0  0  0
  2  4  1  0  0  0
 11 12  1  0  0  0
  9  3  1  0  0  0
  3  4  1  0  0  0
  4 15  1  0  0  0
 15 16  2  0  0  0
 15 17  1  0  0  0
  2 10  1  0  0  0
 12 14  1  0  0  0
 17 18  1  0  0  0
M  END
> <minimizedAffinity>
-8.26675

$$$$
5O4F_8VE_B_305


 18 19  0  0  0  0  0  0  0  0999 V2000
   15.1030   65.7293   23.7505 N   0  0  0  0  0  0  0  0  0  0  0  0
   16.6574   68.5904   23.6262 N   0  0  0  0  0  0  0  0  0  0  0  0
   15.1591   67.5295   25.2006 C   0  0  0  0  0  0  0  0  0  0  0  0
   15.8381   68.8943   24.8944 C   0  0  0  0  0  0  0  0  0  0  0  0
   15.4776   64.7966   22.6959 C   0  0  0  0  0  0  0  0  0  0  0  0
   13.7612   67.2072   24.6370 C   0  0  0  0  0  0  0  0  0  0  0  0
   13.7978   66.2082   23.8285 N   0  0  0  0  0  0  0  0  0  0  0  0
   17.1694   67.1579   23.7894 C   0  0  0  0  0  0  0  0  0  0  0  0
   16.0388   66.4530   24.5773 C   0  0  0  0  0  0  0  0  0  0  0  0
   16.0679   68.6640   22.7971 H   0  0  0  0  0  0  0  0  0  0  0  0
   12.5409   68.0265   25.0267 C   0  0  0  0  0  0  0  0  0  0  0  0
   12.3200   69.0933   24.4018 O   0  0  0  0  0  0  0  0  0  0  0  0
   11.8040   67.5968   25.9461 O   0  0  0  0  0  0  0  0  0  0  0  0
   12.9042   69.3679   23.7226 H   0  0  0  0  0  0  0  0  0  0  0  0
   16.7839   69.5279   25.9584 C   0  0  0  0  0  0  0  0  0  0  0  0
   17.5725   68.8025   26.6169 O   0  0  0  0  0  0  0  0  0  0  0  0
   16.7280   70.7664   26.1256 O   0  0  0  0  0  0  0  0  0  0  0  0
   16.1301   71.2810   25.6199 H   0  0  0  0  0  0  0  0  0  0  0  0
  5  1  1  0  0  0
  7  1  1  0  0  0
  7  6  2  0  0  0
  1  9  1  0  0  0
 13 11  2  0  0  0
  8  2  1  0  0  0
  8  9  1  0  0  0
  6 11  1  0  0  0
  6  3  1  0  0  0
  2  4  1  0  0  0
 11 12  1  0  0  0
  9  3  1  0  0  0
  3  4  1  0  0  0
  4 15  1  0  0  0
 15 16  2  0  0  0
 15 17  1  0  0  0
  2 10  1  0  0  0
 12 14  1  0  0  0
 17 18  1  0  0  0
M  END
> <minimizedAffinity>
-7.60768

$$$$
5O4F_8VE_B_305


 18 19  0  0  0  0  0  0  0  0999 V2000
   14.3924   66.1985   23.7560 N   0  0  0  0  0  0  0  0  0  0  0  0
   16.2362   67.7360   25.9593 N   0  0  0  0  0  0  0  0  0  0  0  0
   15.7157   68.0901   23.6242 C   0  0  0  0  0  0  0  0  0  0  0  0
   16.6632   68.5902   24.7509 C   0  0  0  0  0  0  0  0  0  0  0  0
   13.5759   65.1228   24.3026 C   0  0  0  0  0  0  0  0  0  0  0  0
   16.1478   66.9425   22.6904 C   0  0  0  0  0  0  0  0  0  0  0  0
   15.3839   65.9165   22.8198 N   0  0  0  0  0  0  0  0  0  0  0  0
   14.7206   67.5649   25.8388 C   0  0  0  0  0  0  0  0  0  0  0  0
   14.4770   67.5283   24.3106 C   0  0  0  0  0  0  0  0  0  0  0  0
   16.6989   66.8274   25.9325 H   0  0  0  0  0  0  0  0  0  0  0  0
   17.3502   67.0795   21.7696 C   0  0  0  0  0  0  0  0  0  0  0  0
   17.8012   68.2313   21.5525 O   0  0  0  0  0  0  0  0  0  0  0  0
   17.8445   66.0375   21.2767 O   0  0  0  0  0  0  0  0  0  0  0  0
   17.3926   68.9765   21.9471 H   0  0  0  0  0  0  0  0  0  0  0  0
   16.6255   70.0920   25.1644 C   0  0  0  0  0  0  0  0  0  0  0  0
   16.6404   70.4148   26.3799 O   0  0  0  0  0  0  0  0  0  0  0  0
   16.5826   70.9477   24.2529 O   0  0  0  0  0  0  0  0  0  0  0  0
   16.5726   70.6767   23.3560 H   0  0  0  0  0  0  0  0  0  0  0  0
  5  1  1  0  0  0
  7  1  1  0  0  0
  7  6  2  0  0  0
  1  9  1  0  0  0
 13 11  2  0  0  0
  8  2  1  0  0  0
  8  9  1  0  0  0
  6 11  1  0  0  0
  6  3  1  0  0  0
  2  4  1  0  0  0
 11 12  1  0  0  0
  9  3  1  0  0  0
  3  4  1  0  0  0
  4 15  1  0  0  0
 15 16  2  0  0  0
 15 17  1  0  0  0
  2 10  1  0  0  0
 12 14  1  0  0  0
 17 18  1  0  0  0
M  END
> <minimizedAffinity>
-7.52525

$$$$
5O4F_8VE_B_305


 18 19  0  0  0  0  0  0  0  0999 V2000
   16.1839   67.7204   21.7916 N   0  0  0  0  0  0  0  0  0  0  0  0
   17.7756   67.5689   24.6309 N   0  0  0  0  0  0  0  0  0  0  0  0
   15.7286   68.6124   23.8758 C   0  0  0  0  0  0  0  0  0  0  0  0
   16.6986   68.5695   25.0902 C   0  0  0  0  0  0  0  0  0  0  0  0
   16.7346   66.8652   20.7487 C   0  0  0  0  0  0  0  0  0  0  0  0
   15.9170   69.6595   22.7606 C   0  0  0  0  0  0  0  0  0  0  0  0
   16.1809   69.1036   21.6317 N   0  0  0  0  0  0  0  0  0  0  0  0
   17.0397   66.5033   23.8161 C   0  0  0  0  0  0  0  0  0  0  0  0
   15.8919   67.2895   23.1378 C   0  0  0  0  0  0  0  0  0  0  0  0
   18.4725   68.0387   24.0529 H   0  0  0  0  0  0  0  0  0  0  0  0
   15.8034   71.1492   23.0442 C   0  0  0  0  0  0  0  0  0  0  0  0
   16.6835   71.9104   22.5719 O   0  0  0  0  0  0  0  0  0  0  0  0
   14.8321   71.5528   23.7272 O   0  0  0  0  0  0  0  0  0  0  0  0
   17.3889   71.5550   22.0678 H   0  0  0  0  0  0  0  0  0  0  0  0
   16.1573   68.1158   26.4791 C   0  0  0  0  0  0  0  0  0  0  0  0
   16.9563   67.8084   27.4005 O   0  0  0  0  0  0  0  0  0  0  0  0
   14.9171   68.0727   26.6368 O   0  0  0  0  0  0  0  0  0  0  0  0
   14.3467   68.3077   25.9315 H   0  0  0  0  0  0  0  0  0  0  0  0
  5  1  1  0  0  0
  7  1  1  0  0  0
  7  6  2  0  0  0
  1  9  1  0  0  0
 13 11  2  0  0  0
  8  2  1  0  0  0
  8  9  1  0  0  0
  6 11  1  0  0  0
  6  3  1  0  0  0
  2  4  1  0  0  0
 11 12  1  0  0  0
  9  3  1  0  0  0
  3  4  1  0  0  0
  4 15  1  0  0  0
 15 16  2  0  0  0
 15 17  1  0  0  0
  2 10  1  0  0  0
 12 14  1  0  0  0
 17 18  1  0  0  0
M  END
> <minimizedAffinity>
-7.44637

$$$$
5O4F_8VE_B_305


 18 19  0  0  0  0  0  0  0  0999 V2000
   16.3211   68.3047   25.3898 N   0  0  0  0  0  0  0  0  0  0  0  0
   15.2981   66.3567   22.9864 N   0  0  0  0  0  0  0  0  0  0  0  0
   16.7836   68.2602   23.1247 C   0  0  0  0  0  0  0  0  0  0  0  0
   16.0678   67.3456   22.0910 C   0  0  0  0  0  0  0  0  0  0  0  0
   15.9133   67.8789   26.7220 C   0  0  0  0  0  0  0  0  0  0  0  0
   16.1153   69.5599   23.6144 C   0  0  0  0  0  0  0  0  0  0  0  0
   15.8711   69.5181   24.8759 N   0  0  0  0  0  0  0  0  0  0  0  0
   16.1977   66.0972   24.1965 C   0  0  0  0  0  0  0  0  0  0  0  0
   16.9302   67.4450   24.4035 C   0  0  0  0  0  0  0  0  0  0  0  0
   14.4117   66.7641   23.2843 H   0  0  0  0  0  0  0  0  0  0  0  0
   15.8025   70.6998   22.6576 C   0  0  0  0  0  0  0  0  0  0  0  0
   16.6489   71.6197   22.5361 O   0  0  0  0  0  0  0  0  0  0  0  0
   14.7200   70.6663   22.0252 O   0  0  0  0  0  0  0  0  0  0  0  0
   17.4424   71.5949   23.0338 H   0  0  0  0  0  0  0  0  0  0  0  0
   16.9243   66.5336   21.0737 C   0  0  0  0  0  0  0  0  0  0  0  0
   16.8771   65.2768   21.0672 O   0  0  0  0  0  0  0  0  0  0  0  0
   17.6464   67.1729   20.2769 O   0  0  0  0  0  0  0  0  0  0  0  0
   17.6607   68.1093   20.3057 H   0  0  0  0  0  0  0  0  0  0  0  0
  5  1  1  0  0  0
  7  1  1  0  0  0
  7  6  2  0  0  0
  1  9  1  0  0  0
 13 11  2  0  0  0
  8  2  1  0  0  0
  8  9  1  0  0  0
  6 11  1  0  0  0
  6  3  1  0  0  0
  2  4  1  0  0  0
 11 12  1  0  0  0
  9  3  1  0  0  0
  3  4  1  0  0  0
  4 15  1  0  0  0
 15 16  2  0  0  0
 15 17  1  0  0  0
  2 10  1  0  0  0
 12 14  1  0  0  0
 17 18  1  0  0  0
M  END
> <minimizedAffinity>
-7.41946

$$$$
5O4F_8VE_B_305


 18 19  0  0  0  0  0  0  0  0999 V2000
   14.9924   69.5802   23.6567 N   0  0  0  0  0  0  0  0  0  0  0  0
   16.0760   68.9679   26.6681 N   0  0  0  0  0  0  0  0  0  0  0  0
   15.1044   67.6340   24.9001 C   0  0  0  0  0  0  0  0  0  0  0  0
   15.5088   67.5614   26.3997 C   0  0  0  0  0  0  0  0  0  0  0  0
   15.2611   70.9324   23.1857 C   0  0  0  0  0  0  0  0  0  0  0  0
   13.6772   68.0507   24.4938 C   0  0  0  0  0  0  0  0  0  0  0  0
   13.6797   69.1447   23.8185 N   0  0  0  0  0  0  0  0  0  0  0  0
   16.8034   69.3797   25.3865 C   0  0  0  0  0  0  0  0  0  0  0  0
   15.9727   68.7123   24.2639 C   0  0  0  0  0  0  0  0  0  0  0  0
   15.3204   69.6219   26.8727 H   0  0  0  0  0  0  0  0  0  0  0  0
   12.4655   67.2236   24.8942 C   0  0  0  0  0  0  0  0  0  0  0  0
   12.2899   66.1175   24.3259 O   0  0  0  0  0  0  0  0  0  0  0  0
   11.7018   67.6765   25.7799 O   0  0  0  0  0  0  0  0  0  0  0  0
   12.8925   65.8271   23.6697 H   0  0  0  0  0  0  0  0  0  0  0  0
   16.5611   66.5053   26.8525 C   0  0  0  0  0  0  0  0  0  0  0  0
   17.4185   66.0762   26.0386 O   0  0  0  0  0  0  0  0  0  0  0  0
   16.5191   66.1106   28.0389 O   0  0  0  0  0  0  0  0  0  0  0  0
   15.8684   66.4486   28.6223 H   0  0  0  0  0  0  0  0  0  0  0  0
  5  1  1  0  0  0
  7  1  1  0  0  0
  7  6  2  0  0  0
  1  9  1  0  0  0
 13 11  2  0  0  0
  8  2  1  0  0  0
  8  9  1  0  0  0
  6 11  1  0  0  0
  6  3  1  0  0  0
  2  4  1  0  0  0
 11 12  1  0  0  0
  9  3  1  0  0  0
  3  4  1  0  0  0
  4 15  1  0  0  0
 15 16  2  0  0  0
 15 17  1  0  0  0
  2 10  1  0  0  0
 12 14  1  0  0  0
 17 18  1  0  0  0
M  END
> <minimizedAffinity>
-7.25111

$$$$
5O4F_8VE_B_305


 18 19  0  0  0  0  0  0  0  0999 V2000
   16.2907   66.5570   25.2176 N   0  0  0  0  0  0  0  0  0  0  0  0
   16.8311   69.7443   24.8088 N   0  0  0  0  0  0  0  0  0  0  0  0
   15.7438   68.0176   23.5106 C   0  0  0  0  0  0  0  0  0  0  0  0
   16.2320   69.4906   23.4128 C   0  0  0  0  0  0  0  0  0  0  0  0
   16.6591   66.0498   26.5327 C   0  0  0  0  0  0  0  0  0  0  0  0
   16.6664   66.8578   23.0872 C   0  0  0  0  0  0  0  0  0  0  0  0
   16.9451   66.0906   24.0804 N   0  0  0  0  0  0  0  0  0  0  0  0
   15.9445   68.9782   25.7926 C   0  0  0  0  0  0  0  0  0  0  0  0
   15.4918   67.7366   24.9867 C   0  0  0  0  0  0  0  0  0  0  0  0
   17.7896   69.3981   24.8516 H   0  0  0  0  0  0  0  0  0  0  0  0
   17.1556   66.7162   21.6543 C   0  0  0  0  0  0  0  0  0  0  0  0
   17.6226   67.7337   21.0852 O   0  0  0  0  0  0  0  0  0  0  0  0
   17.0810   65.5897   21.1083 O   0  0  0  0  0  0  0  0  0  0  0  0
   17.6547   68.5520   21.5405 H   0  0  0  0  0  0  0  0  0  0  0  0
   15.1984   70.6146   23.1027 C   0  0  0  0  0  0  0  0  0  0  0  0
   15.0600   71.5832   23.8928 O   0  0  0  0  0  0  0  0  0  0  0  0
   14.5256   70.5156   22.0527 O   0  0  0  0  0  0  0  0  0  0  0  0
   14.6510   69.7821   21.4833 H   0  0  0  0  0  0  0  0  0  0  0  0
  5  1  1  0  0  0
  7  1  1  0  0  0
  7  6  2  0  0  0
  1  9  1  0  0  0
 13 11  2  0  0  0
  8  2  1  0  0  0
  8  9  1  0  0  0
  6 11  1  0  0  0
  6  3  1  0  0  0
  2  4  1  0  0  0
 11 12  1  0  0  0
  9  3  1  0  0  0
  3  4  1  0  0  0
  4 15  1  0  0  0
 15 16  2  0  0  0
 15 17  1  0  0  0
  2 10  1  0  0  0
 12 14  1  0  0  0
 17 18  1  0  0  0
M  END
> <minimizedAffinity>
-7.06346

$$$$
5O4F_8VE_B_305


 18 19  0  0  0  0  0  0  0  0999 V2000
   15.9208   69.6176   22.2757 N   0  0  0  0  0  0  0  0  0  0  0  0
   14.7539   67.5251   24.4842 N   0  0  0  0  0  0  0  0  0  0  0  0
   16.8127   67.7088   23.2285 C   0  0  0  0  0  0  0  0  0  0  0  0
   16.0350   66.7348   24.1580 C   0  0  0  0  0  0  0  0  0  0  0  0
   15.0926   70.7987   22.0719 C   0  0  0  0  0  0  0  0  0  0  0  0
   16.6385   67.6371   21.6987 C   0  0  0  0  0  0  0  0  0  0  0  0
   16.1266   68.7199   21.2313 N   0  0  0  0  0  0  0  0  0  0  0  0
   15.1800   68.9905   24.5931 C   0  0  0  0  0  0  0  0  0  0  0  0
   16.3304   69.1143   23.5649 C   0  0  0  0  0  0  0  0  0  0  0  0
   14.0669   67.4100   23.7391 H   0  0  0  0  0  0  0  0  0  0  0  0
   17.0338   66.3966   20.9129 C   0  0  0  0  0  0  0  0  0  0  0  0
   17.2699   66.5235   19.6860 O   0  0  0  0  0  0  0  0  0  0  0  0
   17.1170   65.3053   21.5253 O   0  0  0  0  0  0  0  0  0  0  0  0
   17.1923   67.3637   19.2784 H   0  0  0  0  0  0  0  0  0  0  0  0
   16.6902   66.2745   25.4947 C   0  0  0  0  0  0  0  0  0  0  0  0
   15.9719   65.9900   26.4871 O   0  0  0  0  0  0  0  0  0  0  0  0
   17.9382   66.1995   25.5378 O   0  0  0  0  0  0  0  0  0  0  0  0
   18.4471   66.4180   24.7820 H   0  0  0  0  0  0  0  0  0  0  0  0
  5  1  1  0  0  0
  7  1  1  0  0  0
  7  6  2  0  0  0
  1  9  1  0  0  0
 13 11  2  0  0  0
  8  2  1  0  0  0
  8  9  1  0  0  0
  6 11  1  0  0  0
  6  3  1  0  0  0
  2  4  1  0  0  0
 11 12  1  0  0  0
  9  3  1  0  0  0
  3  4  1  0  0  0
  4 15  1  0  0  0
 15 16  2  0  0  0
 15 17  1  0  0  0
  2 10  1  0  0  0
 12 14  1  0  0  0
 17 18  1  0  0  0
M  END
> <minimizedAffinity>
-7.06087

$$$$
5O4F_8VE_B_305


 18 19  0  0  0  0  0  0  0  0999 V2000
   16.0668   67.5982   26.5435 N   0  0  0  0  0  0  0  0  0  0  0  0
   17.0081   66.1057   23.8041 N   0  0  0  0  0  0  0  0  0  0  0  0
   15.7651   68.1175   24.3106 C   0  0  0  0  0  0  0  0  0  0  0  0
   16.1515   67.1900   23.1241 C   0  0  0  0  0  0  0  0  0  0  0  0
   16.6168   67.0188   27.7618 C   0  0  0  0  0  0  0  0  0  0  0  0
   14.4584   67.8830   25.0937 C   0  0  0  0  0  0  0  0  0  0  0  0
   14.6921   67.5849   26.3223 N   0  0  0  0  0  0  0  0  0  0  0  0
   17.8008   66.8216   24.8996 C   0  0  0  0  0  0  0  0  0  0  0  0
   16.8412   67.9394   25.3743 C   0  0  0  0  0  0  0  0  0  0  0  0
   16.4112   65.3858   24.2113 H   0  0  0  0  0  0  0  0  0  0  0  0
   13.0995   67.9946   24.4203 C   0  0  0  0  0  0  0  0  0  0  0  0
   12.6585   69.1423   24.1639 O   0  0  0  0  0  0  0  0  0  0  0  0
   12.4845   66.9378   24.1415 O   0  0  0  0  0  0  0  0  0  0  0  0
   13.1603   69.8992   24.3945 H   0  0  0  0  0  0  0  0  0  0  0  0
   16.9552   67.7820   21.9276 C   0  0  0  0  0  0  0  0  0  0  0  0
   17.6105   67.0236   21.1678 O   0  0  0  0  0  0  0  0  0  0  0  0
   16.9202   69.0207   21.7565 O   0  0  0  0  0  0  0  0  0  0  0  0
   16.4230   69.5603   22.3393 H   0  0  0  0  0  0  0  0  0  0  0  0
  5  1  1  0  0  0
  7  1  1  0  0  0
  7  6  2  0  0  0
  1  9  1  0  0  0
 13 11  2  0  0  0
  8  2  1  0  0  0
  8  9  1  0  0  0
  6 11  1  0  0  0
  6  3  1  0  0  0
  2  4  1  0  0  0
 11 12  1  0  0  0
  9  3  1  0  0  0
  3  4  1  0  0  0
  4 15  1  0  0  0
 15 16  2  0  0  0
 15 17  1  0  0  0
  2 10  1  0  0  0
 12 14  1  0  0  0
 17 18  1  0  0  0
M  END
> <minimizedAffinity>
-7.02221

$$$$
5O4F_8VE_B_305


 18 19  0  0  0  0  0  0  0  0999 V2000
   15.7750   66.2953   23.1509 N   0  0  0  0  0  0  0  0  0  0  0  0
   15.8170   69.1769   21.6303 N   0  0  0  0  0  0  0  0  0  0  0  0
   15.4493   68.4553   23.9091 C   0  0  0  0  0  0  0  0  0  0  0  0
   15.3457   69.7097   22.9963 C   0  0  0  0  0  0  0  0  0  0  0  0
   16.2021   65.1743   22.3242 C   0  0  0  0  0  0  0  0  0  0  0  0
   14.2367   67.5227   24.0980 C   0  0  0  0  0  0  0  0  0  0  0  0
   14.4741   66.3431   23.6452 N   0  0  0  0  0  0  0  0  0  0  0  0
   16.9259   68.1670   21.9325 C   0  0  0  0  0  0  0  0  0  0  0  0
   16.4929   67.5407   23.2801 C   0  0  0  0  0  0  0  0  0  0  0  0
   15.0458   68.7213   21.1422 H   0  0  0  0  0  0  0  0  0  0  0  0
   12.9482   68.0170   24.7368 C   0  0  0  0  0  0  0  0  0  0  0  0
   12.4132   69.0513   24.2663 O   0  0  0  0  0  0  0  0  0  0  0  0
   12.4715   67.3657   25.6966 O   0  0  0  0  0  0  0  0  0  0  0  0
   12.8128   69.4998   23.5472 H   0  0  0  0  0  0  0  0  0  0  0  0
   16.1788   70.9779   23.3506 C   0  0  0  0  0  0  0  0  0  0  0  0
   16.3021   71.3404   24.5486 O   0  0  0  0  0  0  0  0  0  0  0  0
   16.7118   71.6078   22.4103 O   0  0  0  0  0  0  0  0  0  0  0  0
   16.6022   71.3133   21.5276 H   0  0  0  0  0  0  0  0  0  0  0  0
  5  1  1  0  0  0
  7  1  1  0  0  0
  7  6  2  0  0  0
  1  9  1  0  0  0
 13 11  2  0  0  0
  8  2  1  0  0  0
  8  9  1  0  0  0
  6 11  1  0  0  0
  6  3  1  0  0  0
  2  4  1  0  0  0
 11 12  1  0  0  0
  9  3  1  0  0  0
  3  4  1  0  0  0
  4 15  1  0  0  0
 15 16  2  0  0  0
 15 17  1  0  0  0
  2 10  1  0  0  0
 12 14  1  0  0  0
 17 18  1  0  0  0
M  END
> <minimizedAffinity>
-6.82651

$$$$
