5N3Y_8L2_E_411


 37 37  0  0  0  0  0  0  0  0999 V2000
   12.9994   39.4656   -7.7066 N   0  0  0  0  0  0  0  0  0  0  0  0
   13.7993   38.9333   -7.3642 H   0  0  0  0  0  0  0  0  0  0  0  0
   11.6560   39.0441   -6.7503 P   0  0  0  0  0  0  0  0  0  0  0  0
   10.5538   38.3838   -7.5419 O   0  0  0  0  0  0  0  0  0  0  0  0
   12.1310   38.1843   -5.6135 O   0  0  0  0  0  0  0  0  0  0  0  0
    9.8167   38.1658   -6.9502 H   0  0  0  0  0  0  0  0  0  0  0  0
   11.0636   40.6522   -6.1655 C   0  0  0  0  0  0  0  0  0  0  0  0
   10.0009   40.4768   -5.1959 N   0  0  0  0  0  0  0  0  0  0  0  0
    9.1606   41.4491   -4.8071 C   0  0  0  0  0  0  0  0  0  0  0  0
    9.1267   42.5636   -5.2540 O   0  0  0  0  0  0  0  0  0  0  0  0
    9.8876   39.5847   -4.7953 H   0  0  0  0  0  0  0  0  0  0  0  0
    8.3306   40.9787   -3.8313 O   0  0  0  0  0  0  0  0  0  0  0  0
    8.7463   41.1249   -2.4582 C   0  0  0  0  0  0  0  0  0  0  0  0
    9.1484   39.8001   -1.8495 C   0  0  0  0  0  0  0  0  0  0  0  0
    9.7842   39.7181   -0.5993 C   0  0  0  0  0  0  0  0  0  0  0  0
   10.1543   38.4966   -0.0535 C   0  0  0  0  0  0  0  0  0  0  0  0
    9.8904   37.3416   -0.7776 C   0  0  0  0  0  0  0  0  0  0  0  0
    9.2692   37.3979   -2.0399 C   0  0  0  0  0  0  0  0  0  0  0  0
    8.9244   38.6287   -2.5675 C   0  0  0  0  0  0  0  0  0  0  0  0
   12.8938   39.2242   -9.1603 C   0  0  0  0  0  0  0  0  0  0  0  0
   13.6627   37.9603   -9.5645 C   0  0  0  0  0  0  0  0  0  0  0  0
   13.4480   37.5536  -10.8536 N   0  0  0  0  0  0  0  0  0  0  0  0
   14.3633   37.3303   -8.7844 O   0  0  0  0  0  0  0  0  0  0  0  0
   12.8571   38.1093  -11.4116 H   0  0  0  0  0  0  0  0  0  0  0  0
   14.0233   36.3663  -11.4644 C   0  0  0  0  0  0  0  0  0  0  0  0
   13.2260   34.2829  -12.3870 N   0  0  0  0  0  0  0  0  0  0  0  0
   13.1204   35.7117  -12.4978 C   0  0  0  0  0  0  0  0  0  0  0  0
   12.6206   33.8425  -13.0798 H   0  0  0  0  0  0  0  0  0  0  0  0
   12.9402   33.9923  -11.4520 H   0  0  0  0  0  0  0  0  0  0  0  0
   15.2542   36.7934  -12.2463 C   0  0  0  0  0  0  0  0  0  0  0  0
   16.0279   37.6228  -11.8481 O   0  0  0  0  0  0  0  0  0  0  0  0
   15.3997   36.1564  -13.4044 O   0  0  0  0  0  0  0  0  0  0  0  0
   15.8805   38.0436  -11.0240 H   0  0  0  0  0  0  0  0  0  0  0  0
   13.4871   40.4309   -9.8642 C   0  0  0  0  0  0  0  0  0  0  0  0
   14.6058   42.4062   -8.7653 C   0  0  0  0  0  0  0  0  0  0  0  0
   15.9323   40.8396  -10.2748 C   0  0  0  0  0  0  0  0  0  0  0  0
   14.7889   40.9722   -9.2691 C   0  0  0  0  0  0  0  0  0  0  0  0
 16 15  2  0  0  0
 16 17  1  0  0  0
 15 14  1  0  0  0
 17 18  2  0  0  0
 14 13  1  0  0  0
 14 19  2  0  0  0
 13 12  1  0  0  0
 18 19  1  0  0  0
 12  9  1  0  0  0
 10  9  2  0  0  0
  9  8  1  0  0  0
  8  7  1  0  0  0
  7  3  1  0  0  0
  5  3  2  0  0  0
 32 30  2  0  0  0
  4  3  1  0  0  0
 31 30  1  0  0  0
  3  1  1  0  0  0
 30 25  1  0  0  0
  1 20  1  0  0  0
 25 22  1  0  0  0
 25 27  1  0  0  0
 22 21  1  0  0  0
 21 23  2  0  0  0
 21 20  1  0  0  0
 20 34  1  0  0  0
 27 26  1  0  0  0
 34 37  1  0  0  0
 36 37  1  0  0  0
 37 35  1  0  0  0
 22 24  1  0  0  0
 26 28  1  0  0  0
 26 29  1  0  0  0
  4  6  1  0  0  0
  8 11  1  0  0  0
  1  2  1  0  0  0
 31 33  1  0  0  0
M  END
> <minimizedAffinity>
-8.54397

$$$$
5N3Y_8L2_E_411


 37 37  0  0  0  0  0  0  0  0999 V2000
   14.5769   39.3208   -9.6940 N   0  0  0  0  0  0  0  0  0  0  0  0
   15.2934   38.7418  -10.1320 H   0  0  0  0  0  0  0  0  0  0  0  0
   13.5551   38.2884   -8.8069 P   0  0  0  0  0  0  0  0  0  0  0  0
   12.4680   37.6689   -9.6507 O   0  0  0  0  0  0  0  0  0  0  0  0
   14.4015   37.2526   -8.1229 O   0  0  0  0  0  0  0  0  0  0  0  0
   11.9179   37.0927   -9.0972 H   0  0  0  0  0  0  0  0  0  0  0  0
   12.7893   39.4152   -7.6142 C   0  0  0  0  0  0  0  0  0  0  0  0
   12.1658   38.6670   -6.5410 N   0  0  0  0  0  0  0  0  0  0  0  0
   11.2566   39.1726   -5.6923 C   0  0  0  0  0  0  0  0  0  0  0  0
   10.7873   40.2770   -5.7473 O   0  0  0  0  0  0  0  0  0  0  0  0
   12.4264   37.7245   -6.4266 H   0  0  0  0  0  0  0  0  0  0  0  0
   10.9268   38.2350   -4.7571 O   0  0  0  0  0  0  0  0  0  0  0  0
    9.5863   38.2489   -4.2256 C   0  0  0  0  0  0  0  0  0  0  0  0
    9.5814   38.2035   -2.7140 C   0  0  0  0  0  0  0  0  0  0  0  0
    9.2808   37.0278   -2.0059 C   0  0  0  0  0  0  0  0  0  0  0  0
    9.2733   36.9998   -0.6180 C   0  0  0  0  0  0  0  0  0  0  0  0
    9.5630   38.1714    0.0686 C   0  0  0  0  0  0  0  0  0  0  0  0
    9.8514   39.3667   -0.6174 C   0  0  0  0  0  0  0  0  0  0  0  0
    9.8373   39.3709   -2.0001 C   0  0  0  0  0  0  0  0  0  0  0  0
   13.9529   40.1360  -10.7566 C   0  0  0  0  0  0  0  0  0  0  0  0
   14.1784   39.5056  -12.1363 C   0  0  0  0  0  0  0  0  0  0  0  0
   13.7579   38.2074  -12.2423 N   0  0  0  0  0  0  0  0  0  0  0  0
   14.7420   40.0908  -13.0507 O   0  0  0  0  0  0  0  0  0  0  0  0
   13.3275   37.8046  -11.4538 H   0  0  0  0  0  0  0  0  0  0  0  0
   13.8964   37.3759  -13.4270 C   0  0  0  0  0  0  0  0  0  0  0  0
   15.7618   36.0023  -12.7482 N   0  0  0  0  0  0  0  0  0  0  0  0
   15.3306   36.9666  -13.7224 C   0  0  0  0  0  0  0  0  0  0  0  0
   16.7239   35.7268  -12.9452 H   0  0  0  0  0  0  0  0  0  0  0  0
   15.1576   35.1817  -12.7914 H   0  0  0  0  0  0  0  0  0  0  0  0
   13.1701   36.0670  -13.1661 C   0  0  0  0  0  0  0  0  0  0  0  0
   12.8508   35.7032  -12.0657 O   0  0  0  0  0  0  0  0  0  0  0  0
   12.9121   35.3696  -14.2684 O   0  0  0  0  0  0  0  0  0  0  0  0
   13.0561   36.2316  -11.3196 H   0  0  0  0  0  0  0  0  0  0  0  0
   14.5965   41.5097  -10.7105 C   0  0  0  0  0  0  0  0  0  0  0  0
   15.4822   42.8092   -8.7387 C   0  0  0  0  0  0  0  0  0  0  0  0
   17.0770   41.8314  -10.4688 C   0  0  0  0  0  0  0  0  0  0  0  0
   15.7537   41.6673   -9.7216 C   0  0  0  0  0  0  0  0  0  0  0  0
 16 15  2  0  0  0
 16 17  1  0  0  0
 15 14  1  0  0  0
 17 18  2  0  0  0
 14 13  1  0  0  0
 14 19  2  0  0  0
 13 12  1  0  0  0
 18 19  1  0  0  0
 12  9  1  0  0  0
 10  9  2  0  0  0
  9  8  1  0  0  0
  8  7  1  0  0  0
  7  3  1  0  0  0
  5  3  2  0  0  0
 32 30  2  0  0  0
  4  3  1  0  0  0
 31 30  1  0  0  0
  3  1  1  0  0  0
 30 25  1  0  0  0
  1 20  1  0  0  0
 25 22  1  0  0  0
 25 27  1  0  0  0
 22 21  1  0  0  0
 21 23  2  0  0  0
 21 20  1  0  0  0
 20 34  1  0  0  0
 27 26  1  0  0  0
 34 37  1  0  0  0
 36 37  1  0  0  0
 37 35  1  0  0  0
 22 24  1  0  0  0
 26 28  1  0  0  0
 26 29  1  0  0  0
  4  6  1  0  0  0
  8 11  1  0  0  0
  1  2  1  0  0  0
 31 33  1  0  0  0
M  END
> <minimizedAffinity>
-8.53423

$$$$
5N3Y_8L2_E_411


 37 37  0  0  0  0  0  0  0  0999 V2000
   12.2473   39.8600   -8.8141 N   0  0  0  0  0  0  0  0  0  0  0  0
   12.1691   40.8719   -8.7120 H   0  0  0  0  0  0  0  0  0  0  0  0
   11.8225   39.1601   -7.3219 P   0  0  0  0  0  0  0  0  0  0  0  0
   10.5622   38.3334   -7.3970 O   0  0  0  0  0  0  0  0  0  0  0  0
   12.9932   38.3646   -6.8180 O   0  0  0  0  0  0  0  0  0  0  0  0
   10.3679   37.9600   -6.5231 H   0  0  0  0  0  0  0  0  0  0  0  0
   11.5034   40.6066   -6.2804 C   0  0  0  0  0  0  0  0  0  0  0  0
   10.4387   40.3255   -5.3382 N   0  0  0  0  0  0  0  0  0  0  0  0
    9.4748   41.1969   -5.0005 C   0  0  0  0  0  0  0  0  0  0  0  0
    9.3209   42.2885   -5.4779 O   0  0  0  0  0  0  0  0  0  0  0  0
   10.4211   39.4356   -4.9174 H   0  0  0  0  0  0  0  0  0  0  0  0
    8.6764   40.6516   -4.0375 O   0  0  0  0  0  0  0  0  0  0  0  0
    8.7218   39.2228   -3.8473 C   0  0  0  0  0  0  0  0  0  0  0  0
    9.1187   38.8571   -2.4346 C   0  0  0  0  0  0  0  0  0  0  0  0
    9.5177   39.8266   -1.4991 C   0  0  0  0  0  0  0  0  0  0  0  0
    9.8859   39.4781   -0.2069 C   0  0  0  0  0  0  0  0  0  0  0  0
    9.8619   38.1361    0.1484 C   0  0  0  0  0  0  0  0  0  0  0  0
    9.4816   37.1436   -0.7751 C   0  0  0  0  0  0  0  0  0  0  0  0
    9.1340   37.5162   -2.0606 C   0  0  0  0  0  0  0  0  0  0  0  0
   13.5991   39.5686   -9.3344 C   0  0  0  0  0  0  0  0  0  0  0  0
   14.4454   40.8453   -9.4102 C   0  0  0  0  0  0  0  0  0  0  0  0
   13.8221   41.9680   -8.9365 N   0  0  0  0  0  0  0  0  0  0  0  0
   15.5625   40.8740   -9.9078 O   0  0  0  0  0  0  0  0  0  0  0  0
   12.9161   41.8612   -8.5663 H   0  0  0  0  0  0  0  0  0  0  0  0
   14.3917   43.3057   -8.9366 C   0  0  0  0  0  0  0  0  0  0  0  0
   13.4933   45.3648   -8.0531 N   0  0  0  0  0  0  0  0  0  0  0  0
   13.3613   44.4090   -9.1179 C   0  0  0  0  0  0  0  0  0  0  0  0
   12.8025   46.1055   -8.1736 H   0  0  0  0  0  0  0  0  0  0  0  0
   14.4303   45.7674   -8.0718 H   0  0  0  0  0  0  0  0  0  0  0  0
   14.9873   43.5595   -7.5620 C   0  0  0  0  0  0  0  0  0  0  0  0
   16.0299   44.1345   -7.3960 O   0  0  0  0  0  0  0  0  0  0  0  0
   14.2425   43.0963   -6.5626 O   0  0  0  0  0  0  0  0  0  0  0  0
   16.5181   44.4421   -8.1342 H   0  0  0  0  0  0  0  0  0  0  0  0
   13.4328   38.9818  -10.7241 C   0  0  0  0  0  0  0  0  0  0  0  0
   14.3840   36.8039   -9.8798 C   0  0  0  0  0  0  0  0  0  0  0  0
   13.4452   36.9793  -12.2421 C   0  0  0  0  0  0  0  0  0  0  0  0
   13.3428   37.4557  -10.7934 C   0  0  0  0  0  0  0  0  0  0  0  0
 16 15  2  0  0  0
 16 17  1  0  0  0
 15 14  1  0  0  0
 17 18  2  0  0  0
 14 13  1  0  0  0
 14 19  2  0  0  0
 13 12  1  0  0  0
 18 19  1  0  0  0
 12  9  1  0  0  0
 10  9  2  0  0  0
  9  8  1  0  0  0
  8  7  1  0  0  0
  7  3  1  0  0  0
  5  3  2  0  0  0
 32 30  2  0  0  0
  4  3  1  0  0  0
 31 30  1  0  0  0
  3  1  1  0  0  0
 30 25  1  0  0  0
  1 20  1  0  0  0
 25 22  1  0  0  0
 25 27  1  0  0  0
 22 21  1  0  0  0
 21 23  2  0  0  0
 21 20  1  0  0  0
 20 34  1  0  0  0
 27 26  1  0  0  0
 34 37  1  0  0  0
 36 37  1  0  0  0
 37 35  1  0  0  0
 22 24  1  0  0  0
 26 28  1  0  0  0
 26 29  1  0  0  0
  4  6  1  0  0  0
  8 11  1  0  0  0
  1  2  1  0  0  0
 31 33  1  0  0  0
M  END
> <minimizedAffinity>
-8.39024

$$$$
5N3Y_8L2_E_411


 37 37  0  0  0  0  0  0  0  0999 V2000
   13.6143   40.1297   -8.4528 N   0  0  0  0  0  0  0  0  0  0  0  0
   13.5658   39.2337   -7.9677 H   0  0  0  0  0  0  0  0  0  0  0  0
   12.6727   41.2409   -7.5722 P   0  0  0  0  0  0  0  0  0  0  0  0
   13.2132   41.5036   -6.1879 O   0  0  0  0  0  0  0  0  0  0  0  0
   12.5441   42.5016   -8.3792 O   0  0  0  0  0  0  0  0  0  0  0  0
   12.6408   42.1409   -5.7328 H   0  0  0  0  0  0  0  0  0  0  0  0
   11.0849   40.3839   -7.4194 C   0  0  0  0  0  0  0  0  0  0  0  0
   10.9676   39.7671   -6.1133 N   0  0  0  0  0  0  0  0  0  0  0  0
   11.4256   38.5423   -5.8088 C   0  0  0  0  0  0  0  0  0  0  0  0
   12.0499   37.8267   -6.5445 O   0  0  0  0  0  0  0  0  0  0  0  0
   10.5220   40.2808   -5.4013 H   0  0  0  0  0  0  0  0  0  0  0  0
   11.0898   38.2305   -4.5234 O   0  0  0  0  0  0  0  0  0  0  0  0
    9.8175   38.6902   -4.0238 C   0  0  0  0  0  0  0  0  0  0  0  0
    9.6576   38.4036   -2.5475 C   0  0  0  0  0  0  0  0  0  0  0  0
    9.8580   39.3940   -1.5712 C   0  0  0  0  0  0  0  0  0  0  0  0
    9.7145   39.1174   -0.2185 C   0  0  0  0  0  0  0  0  0  0  0  0
    9.3736   37.8256    0.1598 C   0  0  0  0  0  0  0  0  0  0  0  0
    9.1832   36.8112   -0.7980 C   0  0  0  0  0  0  0  0  0  0  0  0
    9.3473   37.1097   -2.1381 C   0  0  0  0  0  0  0  0  0  0  0  0
   13.2363   39.8939   -9.8615 C   0  0  0  0  0  0  0  0  0  0  0  0
   13.3696   38.4099  -10.2249 C   0  0  0  0  0  0  0  0  0  0  0  0
   13.5773   38.1683  -11.5560 N   0  0  0  0  0  0  0  0  0  0  0  0
   13.2412   37.5106   -9.4057 O   0  0  0  0  0  0  0  0  0  0  0  0
   13.6535   38.9485  -12.1516 H   0  0  0  0  0  0  0  0  0  0  0  0
   13.6943   36.8510  -12.1602 C   0  0  0  0  0  0  0  0  0  0  0  0
   14.6616   35.9735  -14.1904 N   0  0  0  0  0  0  0  0  0  0  0  0
   13.6615   36.8704  -13.6801 C   0  0  0  0  0  0  0  0  0  0  0  0
   14.6407   35.9856  -15.2101 H   0  0  0  0  0  0  0  0  0  0  0  0
   14.4721   35.0281  -13.8576 H   0  0  0  0  0  0  0  0  0  0  0  0
   15.0666   36.2986  -11.8132 C   0  0  0  0  0  0  0  0  0  0  0  0
   16.0553   36.9810  -11.7692 O   0  0  0  0  0  0  0  0  0  0  0  0
   15.0680   34.9947  -11.5528 O   0  0  0  0  0  0  0  0  0  0  0  0
   16.0017   37.8964  -11.9617 H   0  0  0  0  0  0  0  0  0  0  0  0
   14.1726   40.7183  -10.7258 C   0  0  0  0  0  0  0  0  0  0  0  0
   15.7984   42.3920   -9.7685 C   0  0  0  0  0  0  0  0  0  0  0  0
   16.6313   40.4200  -11.1506 C   0  0  0  0  0  0  0  0  0  0  0  0
   15.5804   40.9293  -10.1644 C   0  0  0  0  0  0  0  0  0  0  0  0
 16 15  2  0  0  0
 16 17  1  0  0  0
 15 14  1  0  0  0
 17 18  2  0  0  0
 14 13  1  0  0  0
 14 19  2  0  0  0
 13 12  1  0  0  0
 18 19  1  0  0  0
 12  9  1  0  0  0
 10  9  2  0  0  0
  9  8  1  0  0  0
  8  7  1  0  0  0
  7  3  1  0  0  0
  5  3  2  0  0  0
 32 30  2  0  0  0
  4  3  1  0  0  0
 31 30  1  0  0  0
  3  1  1  0  0  0
 30 25  1  0  0  0
  1 20  1  0  0  0
 25 22  1  0  0  0
 25 27  1  0  0  0
 22 21  1  0  0  0
 21 23  2  0  0  0
 21 20  1  0  0  0
 20 34  1  0  0  0
 27 26  1  0  0  0
 34 37  1  0  0  0
 36 37  1  0  0  0
 37 35  1  0  0  0
 22 24  1  0  0  0
 26 28  1  0  0  0
 26 29  1  0  0  0
  4  6  1  0  0  0
  8 11  1  0  0  0
  1  2  1  0  0  0
 31 33  1  0  0  0
M  END
> <minimizedAffinity>
-8.14302

$$$$
5N3Y_8L2_E_411


 37 37  0  0  0  0  0  0  0  0999 V2000
   13.4917   40.7741   -8.5632 N   0  0  0  0  0  0  0  0  0  0  0  0
   12.8200   40.0873   -8.9062 H   0  0  0  0  0  0  0  0  0  0  0  0
   12.7020   41.7219   -7.3906 P   0  0  0  0  0  0  0  0  0  0  0  0
   13.3559   41.6439   -6.0327 O   0  0  0  0  0  0  0  0  0  0  0  0
   12.6154   43.1334   -7.8979 O   0  0  0  0  0  0  0  0  0  0  0  0
   12.8673   42.2003   -5.4062 H   0  0  0  0  0  0  0  0  0  0  0  0
   11.0672   40.9497   -7.2898 C   0  0  0  0  0  0  0  0  0  0  0  0
   10.9490   40.1749   -6.0708 N   0  0  0  0  0  0  0  0  0  0  0  0
   11.2086   38.8608   -5.9790 C   0  0  0  0  0  0  0  0  0  0  0  0
   11.6369   38.1695   -6.8631 O   0  0  0  0  0  0  0  0  0  0  0  0
   10.6588   40.6437   -5.2552 H   0  0  0  0  0  0  0  0  0  0  0  0
   10.9276   38.4220   -4.7177 O   0  0  0  0  0  0  0  0  0  0  0  0
    9.7342   38.9171   -4.0771 C   0  0  0  0  0  0  0  0  0  0  0  0
    9.6612   38.4976   -2.6259 C   0  0  0  0  0  0  0  0  0  0  0  0
    9.3718   37.1759   -2.2471 C   0  0  0  0  0  0  0  0  0  0  0  0
    9.3012   36.8040   -0.9115 C   0  0  0  0  0  0  0  0  0  0  0  0
    9.5152   37.7751    0.0575 C   0  0  0  0  0  0  0  0  0  0  0  0
    9.7907   39.1100   -0.2957 C   0  0  0  0  0  0  0  0  0  0  0  0
    9.8404   39.4571   -1.6333 C   0  0  0  0  0  0  0  0  0  0  0  0
   14.0461   41.4789   -9.7374 C   0  0  0  0  0  0  0  0  0  0  0  0
   13.8221   40.6690  -11.0204 C   0  0  0  0  0  0  0  0  0  0  0  0
   13.9003   39.3125  -10.8557 N   0  0  0  0  0  0  0  0  0  0  0  0
   13.6480   41.1897  -12.1135 O   0  0  0  0  0  0  0  0  0  0  0  0
   14.0588   38.9750   -9.9445 H   0  0  0  0  0  0  0  0  0  0  0  0
   13.7679   38.3304  -11.9196 C   0  0  0  0  0  0  0  0  0  0  0  0
   15.6915   36.8936  -11.6686 N   0  0  0  0  0  0  0  0  0  0  0  0
   15.0962   37.8909  -12.5147 C   0  0  0  0  0  0  0  0  0  0  0  0
   16.5828   36.5979  -12.0668 H   0  0  0  0  0  0  0  0  0  0  0  0
   15.0670   36.0901  -11.5989 H   0  0  0  0  0  0  0  0  0  0  0  0
   13.1807   37.0654  -11.3166 C   0  0  0  0  0  0  0  0  0  0  0  0
   12.9116   36.0924  -11.9694 O   0  0  0  0  0  0  0  0  0  0  0  0
   13.0035   37.1326  -10.0005 O   0  0  0  0  0  0  0  0  0  0  0  0
   13.0553   36.0951  -12.8953 H   0  0  0  0  0  0  0  0  0  0  0  0
   15.5342   41.6568   -9.4980 C   0  0  0  0  0  0  0  0  0  0  0  0
   17.4014   43.1818  -10.2389 C   0  0  0  0  0  0  0  0  0  0  0  0
   16.0704   43.6935   -8.1272 C   0  0  0  0  0  0  0  0  0  0  0  0
   16.0443   43.0991   -9.5352 C   0  0  0  0  0  0  0  0  0  0  0  0
 16 15  2  0  0  0
 16 17  1  0  0  0
 15 14  1  0  0  0
 17 18  2  0  0  0
 14 13  1  0  0  0
 14 19  2  0  0  0
 13 12  1  0  0  0
 18 19  1  0  0  0
 12  9  1  0  0  0
 10  9  2  0  0  0
  9  8  1  0  0  0
  8  7  1  0  0  0
  7  3  1  0  0  0
  5  3  2  0  0  0
 32 30  2  0  0  0
  4  3  1  0  0  0
 31 30  1  0  0  0
  3  1  1  0  0  0
 30 25  1  0  0  0
  1 20  1  0  0  0
 25 22  1  0  0  0
 25 27  1  0  0  0
 22 21  1  0  0  0
 21 23  2  0  0  0
 21 20  1  0  0  0
 20 34  1  0  0  0
 27 26  1  0  0  0
 34 37  1  0  0  0
 36 37  1  0  0  0
 37 35  1  0  0  0
 22 24  1  0  0  0
 26 28  1  0  0  0
 26 29  1  0  0  0
  4  6  1  0  0  0
  8 11  1  0  0  0
  1  2  1  0  0  0
 31 33  1  0  0  0
M  END
> <minimizedAffinity>
-8.11328

$$$$
5N3Y_8L2_E_411


 37 37  0  0  0  0  0  0  0  0999 V2000
    9.0218   42.4347   -5.8580 N   0  0  0  0  0  0  0  0  0  0  0  0
    9.9918   42.1640   -5.6958 H   0  0  0  0  0  0  0  0  0  0  0  0
    9.0336   43.9794   -6.5728 P   0  0  0  0  0  0  0  0  0  0  0  0
    7.7658   44.2865   -7.3318 O   0  0  0  0  0  0  0  0  0  0  0  0
    9.3152   44.9971   -5.5041 O   0  0  0  0  0  0  0  0  0  0  0  0
    7.8265   45.1748   -7.7166 H   0  0  0  0  0  0  0  0  0  0  0  0
   10.4001   43.8604   -7.7549 C   0  0  0  0  0  0  0  0  0  0  0  0
   10.9176   42.5073   -7.7940 N   0  0  0  0  0  0  0  0  0  0  0  0
   11.3326   41.8858   -8.9094 C   0  0  0  0  0  0  0  0  0  0  0  0
   11.3991   42.3809  -10.0019 O   0  0  0  0  0  0  0  0  0  0  0  0
   10.9682   42.0103   -6.9457 H   0  0  0  0  0  0  0  0  0  0  0  0
   11.6872   40.6009   -8.6170 O   0  0  0  0  0  0  0  0  0  0  0  0
   13.0745   40.2317   -8.7544 C   0  0  0  0  0  0  0  0  0  0  0  0
   13.2967   39.3147   -9.9363 C   0  0  0  0  0  0  0  0  0  0  0  0
   13.7684   39.7926  -11.1705 C   0  0  0  0  0  0  0  0  0  0  0  0
   13.9626   38.9423  -12.2503 C   0  0  0  0  0  0  0  0  0  0  0  0
   13.6704   37.5942  -12.0913 C   0  0  0  0  0  0  0  0  0  0  0  0
   13.1811   37.0929  -10.8699 C   0  0  0  0  0  0  0  0  0  0  0  0
   12.9823   37.9640   -9.8146 C   0  0  0  0  0  0  0  0  0  0  0  0
    8.2996   42.2906   -4.5773 C   0  0  0  0  0  0  0  0  0  0  0  0
    8.4093   40.8571   -4.0432 C   0  0  0  0  0  0  0  0  0  0  0  0
    9.5348   40.1880   -4.4417 N   0  0  0  0  0  0  0  0  0  0  0  0
    7.5365   40.3310   -3.3667 O   0  0  0  0  0  0  0  0  0  0  0  0
   10.1808   40.6795   -4.9988 H   0  0  0  0  0  0  0  0  0  0  0  0
    9.8520   38.8089   -4.1077 C   0  0  0  0  0  0  0  0  0  0  0  0
   10.5629   38.5041   -6.3945 N   0  0  0  0  0  0  0  0  0  0  0  0
   10.8809   38.1772   -5.0318 C   0  0  0  0  0  0  0  0  0  0  0  0
   11.2525   38.0808   -7.0155 H   0  0  0  0  0  0  0  0  0  0  0  0
   10.5752   39.5171   -6.5128 H   0  0  0  0  0  0  0  0  0  0  0  0
   10.5100   38.8000   -2.7381 C   0  0  0  0  0  0  0  0  0  0  0  0
   11.6297   39.1936   -2.5468 O   0  0  0  0  0  0  0  0  0  0  0  0
    9.7280   38.3271   -1.7722 O   0  0  0  0  0  0  0  0  0  0  0  0
   12.1409   39.5178   -3.2620 H   0  0  0  0  0  0  0  0  0  0  0  0
    6.8433   42.6293   -4.8378 C   0  0  0  0  0  0  0  0  0  0  0  0
    4.7515   42.7736   -3.4362 C   0  0  0  0  0  0  0  0  0  0  0  0
    6.0574   44.8776   -4.0364 C   0  0  0  0  0  0  0  0  0  0  0  0
    6.1269   43.3847   -3.7162 C   0  0  0  0  0  0  0  0  0  0  0  0
 16 15  2  0  0  0
 16 17  1  0  0  0
 15 14  1  0  0  0
 17 18  2  0  0  0
 14 13  1  0  0  0
 14 19  2  0  0  0
 13 12  1  0  0  0
 18 19  1  0  0  0
 12  9  1  0  0  0
 10  9  2  0  0  0
  9  8  1  0  0  0
  8  7  1  0  0  0
  7  3  1  0  0  0
  5  3  2  0  0  0
 32 30  2  0  0  0
  4  3  1  0  0  0
 31 30  1  0  0  0
  3  1  1  0  0  0
 30 25  1  0  0  0
  1 20  1  0  0  0
 25 22  1  0  0  0
 25 27  1  0  0  0
 22 21  1  0  0  0
 21 23  2  0  0  0
 21 20  1  0  0  0
 20 34  1  0  0  0
 27 26  1  0  0  0
 34 37  1  0  0  0
 36 37  1  0  0  0
 37 35  1  0  0  0
 22 24  1  0  0  0
 26 28  1  0  0  0
 26 29  1  0  0  0
  4  6  1  0  0  0
  8 11  1  0  0  0
  1  2  1  0  0  0
 31 33  1  0  0  0
M  END
> <minimizedAffinity>
-8.06060

$$$$
5N3Y_8L2_E_411


 37 37  0  0  0  0  0  0  0  0999 V2000
    7.9705   42.6385   -5.6663 N   0  0  0  0  0  0  0  0  0  0  0  0
    8.3979   41.9718   -6.3091 H   0  0  0  0  0  0  0  0  0  0  0  0
    8.3195   44.2016   -6.2423 P   0  0  0  0  0  0  0  0  0  0  0  0
    7.0941   45.0755   -6.3531 O   0  0  0  0  0  0  0  0  0  0  0  0
    9.3723   44.8107   -5.3604 O   0  0  0  0  0  0  0  0  0  0  0  0
    7.3498   45.9505   -6.6845 H   0  0  0  0  0  0  0  0  0  0  0  0
    8.9520   43.8798   -7.9082 C   0  0  0  0  0  0  0  0  0  0  0  0
   10.4012   43.8708   -7.9052 N   0  0  0  0  0  0  0  0  0  0  0  0
   11.1526   42.8677   -7.4238 C   0  0  0  0  0  0  0  0  0  0  0  0
   10.7362   41.8234   -7.0006 O   0  0  0  0  0  0  0  0  0  0  0  0
   10.8660   44.6529   -8.2814 H   0  0  0  0  0  0  0  0  0  0  0  0
   12.4733   43.2027   -7.5003 O   0  0  0  0  0  0  0  0  0  0  0  0
   13.4261   42.1517   -7.7593 C   0  0  0  0  0  0  0  0  0  0  0  0
   14.7421   42.6993   -8.2646 C   0  0  0  0  0  0  0  0  0  0  0  0
   15.4058   42.1398   -9.3694 C   0  0  0  0  0  0  0  0  0  0  0  0
   16.6167   42.6472   -9.8204 C   0  0  0  0  0  0  0  0  0  0  0  0
   17.1735   43.7261   -9.1467 C   0  0  0  0  0  0  0  0  0  0  0  0
   16.5366   44.2945   -8.0270 C   0  0  0  0  0  0  0  0  0  0  0  0
   15.3387   43.7604   -7.5892 C   0  0  0  0  0  0  0  0  0  0  0  0
    8.4343   42.3033   -4.3042 C   0  0  0  0  0  0  0  0  0  0  0  0
    8.5532   40.7851   -4.1226 C   0  0  0  0  0  0  0  0  0  0  0  0
    9.7262   40.2492   -4.5813 N   0  0  0  0  0  0  0  0  0  0  0  0
    7.6522   40.0979   -3.6621 O   0  0  0  0  0  0  0  0  0  0  0  0
   10.3938   40.8704   -4.9522 H   0  0  0  0  0  0  0  0  0  0  0  0
   10.0645   38.8352   -4.5641 C   0  0  0  0  0  0  0  0  0  0  0  0
   10.6179   38.6301   -6.9048 N   0  0  0  0  0  0  0  0  0  0  0  0
   11.1324   38.4498   -5.5753 C   0  0  0  0  0  0  0  0  0  0  0  0
   11.3335   38.3719   -7.5843 H   0  0  0  0  0  0  0  0  0  0  0  0
   10.3583   39.6074   -7.0393 H   0  0  0  0  0  0  0  0  0  0  0  0
   10.6842   38.5200   -3.2130 C   0  0  0  0  0  0  0  0  0  0  0  0
   11.5744   39.1698   -2.7331 O   0  0  0  0  0  0  0  0  0  0  0  0
   10.1422   37.4668   -2.6087 O   0  0  0  0  0  0  0  0  0  0  0  0
   11.9227   39.9040   -3.1997 H   0  0  0  0  0  0  0  0  0  0  0  0
    7.4120   42.8567   -3.3286 C   0  0  0  0  0  0  0  0  0  0  0  0
    8.8459   42.6578   -1.2633 C   0  0  0  0  0  0  0  0  0  0  0  0
    6.8630   44.2572   -1.3156 C   0  0  0  0  0  0  0  0  0  0  0  0
    7.9838   43.5931   -2.1151 C   0  0  0  0  0  0  0  0  0  0  0  0
 16 15  2  0  0  0
 16 17  1  0  0  0
 15 14  1  0  0  0
 17 18  2  0  0  0
 14 13  1  0  0  0
 14 19  2  0  0  0
 13 12  1  0  0  0
 18 19  1  0  0  0
 12  9  1  0  0  0
 10  9  2  0  0  0
  9  8  1  0  0  0
  8  7  1  0  0  0
  7  3  1  0  0  0
  5  3  2  0  0  0
 32 30  2  0  0  0
  4  3  1  0  0  0
 31 30  1  0  0  0
  3  1  1  0  0  0
 30 25  1  0  0  0
  1 20  1  0  0  0
 25 22  1  0  0  0
 25 27  1  0  0  0
 22 21  1  0  0  0
 21 23  2  0  0  0
 21 20  1  0  0  0
 20 34  1  0  0  0
 27 26  1  0  0  0
 34 37  1  0  0  0
 36 37  1  0  0  0
 37 35  1  0  0  0
 22 24  1  0  0  0
 26 28  1  0  0  0
 26 29  1  0  0  0
  4  6  1  0  0  0
  8 11  1  0  0  0
  1  2  1  0  0  0
 31 33  1  0  0  0
M  END
> <minimizedAffinity>
-8.00559

$$$$
5N3Y_8L2_E_411


 37 37  0  0  0  0  0  0  0  0999 V2000
   12.6638   41.2305   -9.0236 N   0  0  0  0  0  0  0  0  0  0  0  0
   12.9391   42.1217   -9.4365 H   0  0  0  0  0  0  0  0  0  0  0  0
   12.2515   41.5241   -7.3986 P   0  0  0  0  0  0  0  0  0  0  0  0
   13.4037   42.0641   -6.5872 O   0  0  0  0  0  0  0  0  0  0  0  0
   11.0587   42.4370   -7.3669 O   0  0  0  0  0  0  0  0  0  0  0  0
   13.1141   42.2125   -5.6734 H   0  0  0  0  0  0  0  0  0  0  0  0
   11.8397   39.8700   -6.7875 C   0  0  0  0  0  0  0  0  0  0  0  0
   11.3103   39.9466   -5.4406 N   0  0  0  0  0  0  0  0  0  0  0  0
   10.4937   39.0322   -4.8933 C   0  0  0  0  0  0  0  0  0  0  0  0
   10.1504   38.0033   -5.4098 O   0  0  0  0  0  0  0  0  0  0  0  0
   11.5669   40.7212   -4.8898 H   0  0  0  0  0  0  0  0  0  0  0  0
   10.1182   39.4369   -3.6453 O   0  0  0  0  0  0  0  0  0  0  0  0
   10.9135   39.0029   -2.5233 C   0  0  0  0  0  0  0  0  0  0  0  0
   10.0641   38.3653   -1.4466 C   0  0  0  0  0  0  0  0  0  0  0  0
    9.8650   38.9758   -0.1970 C   0  0  0  0  0  0  0  0  0  0  0  0
    9.0882   38.3779    0.7859 C   0  0  0  0  0  0  0  0  0  0  0  0
    8.5105   37.1451    0.5134 C   0  0  0  0  0  0  0  0  0  0  0  0
    8.7080   36.5047   -0.7250 C   0  0  0  0  0  0  0  0  0  0  0  0
    9.4987   37.1150   -1.6812 C   0  0  0  0  0  0  0  0  0  0  0  0
   13.7541   40.2665   -9.2784 C   0  0  0  0  0  0  0  0  0  0  0  0
   15.0369   40.9892   -9.7078 C   0  0  0  0  0  0  0  0  0  0  0  0
   15.2295   42.2057   -9.1109 N   0  0  0  0  0  0  0  0  0  0  0  0
   15.7966   40.5464  -10.5581 O   0  0  0  0  0  0  0  0  0  0  0  0
   14.5620   42.4960   -8.4481 H   0  0  0  0  0  0  0  0  0  0  0  0
   16.3418   43.1032   -9.3780 C   0  0  0  0  0  0  0  0  0  0  0  0
   15.2993   45.1659  -10.0750 N   0  0  0  0  0  0  0  0  0  0  0  0
   16.0923   44.0589  -10.5339 C   0  0  0  0  0  0  0  0  0  0  0  0
   15.1312   45.8079  -10.8496 H   0  0  0  0  0  0  0  0  0  0  0  0
   15.7963   45.6545   -9.3303 H   0  0  0  0  0  0  0  0  0  0  0  0
   16.5160   44.0038   -8.1667 C   0  0  0  0  0  0  0  0  0  0  0  0
   15.7108   44.0671   -7.2763 O   0  0  0  0  0  0  0  0  0  0  0  0
   17.6458   44.7049   -8.1796 O   0  0  0  0  0  0  0  0  0  0  0  0
   14.9290   43.5520   -7.3142 H   0  0  0  0  0  0  0  0  0  0  0  0
   13.2911   39.3423  -10.3896 C   0  0  0  0  0  0  0  0  0  0  0  0
   14.1004   37.4892   -8.8824 C   0  0  0  0  0  0  0  0  0  0  0  0
   13.2715   36.9766  -11.2367 C   0  0  0  0  0  0  0  0  0  0  0  0
   13.1311   37.8700  -10.0044 C   0  0  0  0  0  0  0  0  0  0  0  0
 16 15  2  0  0  0
 16 17  1  0  0  0
 15 14  1  0  0  0
 17 18  2  0  0  0
 14 13  1  0  0  0
 14 19  2  0  0  0
 13 12  1  0  0  0
 18 19  1  0  0  0
 12  9  1  0  0  0
 10  9  2  0  0  0
  9  8  1  0  0  0
  8  7  1  0  0  0
  7  3  1  0  0  0
  5  3  2  0  0  0
 32 30  2  0  0  0
  4  3  1  0  0  0
 31 30  1  0  0  0
  3  1  1  0  0  0
 30 25  1  0  0  0
  1 20  1  0  0  0
 25 22  1  0  0  0
 25 27  1  0  0  0
 22 21  1  0  0  0
 21 23  2  0  0  0
 21 20  1  0  0  0
 20 34  1  0  0  0
 27 26  1  0  0  0
 34 37  1  0  0  0
 36 37  1  0  0  0
 37 35  1  0  0  0
 22 24  1  0  0  0
 26 28  1  0  0  0
 26 29  1  0  0  0
  4  6  1  0  0  0
  8 11  1  0  0  0
  1  2  1  0  0  0
 31 33  1  0  0  0
M  END
> <minimizedAffinity>
-7.87175

$$$$
5N3Y_8L2_E_411


 37 37  0  0  0  0  0  0  0  0999 V2000
   13.6971   40.7907   -8.6957 N   0  0  0  0  0  0  0  0  0  0  0  0
   13.4926   40.2836   -9.5567 H   0  0  0  0  0  0  0  0  0  0  0  0
   12.4510   40.4448   -7.5890 P   0  0  0  0  0  0  0  0  0  0  0  0
   12.5935   41.1965   -6.2882 O   0  0  0  0  0  0  0  0  0  0  0  0
   11.1322   40.7126   -8.2569 O   0  0  0  0  0  0  0  0  0  0  0  0
   11.8604   40.9627   -5.6976 H   0  0  0  0  0  0  0  0  0  0  0  0
   12.6860   38.6789   -7.2645 C   0  0  0  0  0  0  0  0  0  0  0  0
   12.3343   38.3661   -5.8938 N   0  0  0  0  0  0  0  0  0  0  0  0
   11.0758   38.2414   -5.4430 C   0  0  0  0  0  0  0  0  0  0  0  0
   10.0830   38.2998   -6.1168 O   0  0  0  0  0  0  0  0  0  0  0  0
   13.0676   38.2364   -5.2498 H   0  0  0  0  0  0  0  0  0  0  0  0
   11.0878   38.0202   -4.0964 O   0  0  0  0  0  0  0  0  0  0  0  0
   10.5362   39.0380   -3.2366 C   0  0  0  0  0  0  0  0  0  0  0  0
    9.9657   38.4501   -1.9654 C   0  0  0  0  0  0  0  0  0  0  0  0
    9.3295   37.1976   -1.9450 C   0  0  0  0  0  0  0  0  0  0  0  0
    8.8040   36.6709   -0.7731 C   0  0  0  0  0  0  0  0  0  0  0  0
    8.9110   37.4166    0.3933 C   0  0  0  0  0  0  0  0  0  0  0  0
    9.5294   38.6816    0.3963 C   0  0  0  0  0  0  0  0  0  0  0  0
   10.0310   39.1897   -0.7878 C   0  0  0  0  0  0  0  0  0  0  0  0
   13.9059   42.2089   -9.0534 C   0  0  0  0  0  0  0  0  0  0  0  0
   12.9021   42.6593  -10.1218 C   0  0  0  0  0  0  0  0  0  0  0  0
   11.8776   43.4330   -9.6473 N   0  0  0  0  0  0  0  0  0  0  0  0
   12.9737   42.3085  -11.2914 O   0  0  0  0  0  0  0  0  0  0  0  0
   11.8856   43.6575   -8.6887 H   0  0  0  0  0  0  0  0  0  0  0  0
   10.7783   43.9496  -10.4464 C   0  0  0  0  0  0  0  0  0  0  0  0
    8.4248   43.7542  -10.9468 N   0  0  0  0  0  0  0  0  0  0  0  0
    9.4050   43.5758   -9.9114 C   0  0  0  0  0  0  0  0  0  0  0  0
    7.5030   43.5038  -10.5891 H   0  0  0  0  0  0  0  0  0  0  0  0
    8.6556   43.1562  -11.7402 H   0  0  0  0  0  0  0  0  0  0  0  0
   10.8192   45.4667  -10.3711 C   0  0  0  0  0  0  0  0  0  0  0  0
   10.1162   46.1749  -11.0415 O   0  0  0  0  0  0  0  0  0  0  0  0
   11.6960   45.9348   -9.4879 O   0  0  0  0  0  0  0  0  0  0  0  0
    9.5136   45.7955  -11.6505 H   0  0  0  0  0  0  0  0  0  0  0  0
   15.3188   42.3367   -9.5926 C   0  0  0  0  0  0  0  0  0  0  0  0
   15.5467   44.2685   -7.9872 C   0  0  0  0  0  0  0  0  0  0  0  0
   17.4443   43.6770   -9.5814 C   0  0  0  0  0  0  0  0  0  0  0  0
   16.2855   43.1542   -8.7329 C   0  0  0  0  0  0  0  0  0  0  0  0
 16 15  2  0  0  0
 16 17  1  0  0  0
 15 14  1  0  0  0
 17 18  2  0  0  0
 14 13  1  0  0  0
 14 19  2  0  0  0
 13 12  1  0  0  0
 18 19  1  0  0  0
 12  9  1  0  0  0
 10  9  2  0  0  0
  9  8  1  0  0  0
  8  7  1  0  0  0
  7  3  1  0  0  0
  5  3  2  0  0  0
 32 30  2  0  0  0
  4  3  1  0  0  0
 31 30  1  0  0  0
  3  1  1  0  0  0
 30 25  1  0  0  0
  1 20  1  0  0  0
 25 22  1  0  0  0
 25 27  1  0  0  0
 22 21  1  0  0  0
 21 23  2  0  0  0
 21 20  1  0  0  0
 20 34  1  0  0  0
 27 26  1  0  0  0
 34 37  1  0  0  0
 36 37  1  0  0  0
 37 35  1  0  0  0
 22 24  1  0  0  0
 26 28  1  0  0  0
 26 29  1  0  0  0
  4  6  1  0  0  0
  8 11  1  0  0  0
  1  2  1  0  0  0
 31 33  1  0  0  0
M  END
> <minimizedAffinity>
-7.51584

$$$$
5N3Y_8L2_E_411


 37 37  0  0  0  0  0  0  0  0999 V2000
   13.9681   40.7347   -9.2681 N   0  0  0  0  0  0  0  0  0  0  0  0
   14.4723   39.9551   -8.8456 H   0  0  0  0  0  0  0  0  0  0  0  0
   12.6359   41.0854   -8.2686 P   0  0  0  0  0  0  0  0  0  0  0  0
   12.7986   42.3749   -7.5018 O   0  0  0  0  0  0  0  0  0  0  0  0
   11.3927   41.0803   -9.1121 O   0  0  0  0  0  0  0  0  0  0  0  0
   12.0142   42.5248   -6.9511 H   0  0  0  0  0  0  0  0  0  0  0  0
   12.6474   39.7085   -7.0926 C   0  0  0  0  0  0  0  0  0  0  0  0
   11.6109   39.8872   -6.0956 N   0  0  0  0  0  0  0  0  0  0  0  0
   10.9458   38.8820   -5.5042 C   0  0  0  0  0  0  0  0  0  0  0  0
   11.1627   37.7112   -5.6634 O   0  0  0  0  0  0  0  0  0  0  0  0
   11.3789   40.8076   -5.8344 H   0  0  0  0  0  0  0  0  0  0  0  0
    9.9876   39.3879   -4.6746 O   0  0  0  0  0  0  0  0  0  0  0  0
    9.0819   38.4623   -4.0400 C   0  0  0  0  0  0  0  0  0  0  0  0
    9.2833   38.4180   -2.5418 C   0  0  0  0  0  0  0  0  0  0  0  0
    9.0857   37.2420   -1.7988 C   0  0  0  0  0  0  0  0  0  0  0  0
    9.2675   37.2151   -0.4229 C   0  0  0  0  0  0  0  0  0  0  0  0
    9.6445   38.3881    0.2173 C   0  0  0  0  0  0  0  0  0  0  0  0
    9.8331   39.5837   -0.5021 C   0  0  0  0  0  0  0  0  0  0  0  0
    9.6306   39.5868   -1.8699 C   0  0  0  0  0  0  0  0  0  0  0  0
   13.6806   40.3705  -10.6708 C   0  0  0  0  0  0  0  0  0  0  0  0
   13.9061   38.8720  -10.9065 C   0  0  0  0  0  0  0  0  0  0  0  0
   15.0357   38.5737  -11.6195 N   0  0  0  0  0  0  0  0  0  0  0  0
   13.1134   38.0148  -10.5418 O   0  0  0  0  0  0  0  0  0  0  0  0
   15.6129   39.3243  -11.8890 H   0  0  0  0  0  0  0  0  0  0  0  0
   15.4508   37.2362  -12.0106 C   0  0  0  0  0  0  0  0  0  0  0  0
   14.1044   35.2375  -11.8707 N   0  0  0  0  0  0  0  0  0  0  0  0
   14.9166   36.1402  -11.1023 C   0  0  0  0  0  0  0  0  0  0  0  0
   13.7453   34.5016  -11.2625 H   0  0  0  0  0  0  0  0  0  0  0  0
   14.6673   34.8211  -12.6124 H   0  0  0  0  0  0  0  0  0  0  0  0
   14.8425   36.9377  -13.3706 C   0  0  0  0  0  0  0  0  0  0  0  0
   13.7686   37.3550  -13.7136 O   0  0  0  0  0  0  0  0  0  0  0  0
   15.6136   36.1824  -14.1472 O   0  0  0  0  0  0  0  0  0  0  0  0
   13.2629   37.8841  -13.1285 H   0  0  0  0  0  0  0  0  0  0  0  0
   14.6218   41.1739  -11.5495 C   0  0  0  0  0  0  0  0  0  0  0  0
   12.6513   42.6305  -12.1463 C   0  0  0  0  0  0  0  0  0  0  0  0
   13.7639   41.1679  -13.9114 C   0  0  0  0  0  0  0  0  0  0  0  0
   13.9560   42.0061  -12.6477 C   0  0  0  0  0  0  0  0  0  0  0  0
 16 15  2  0  0  0
 16 17  1  0  0  0
 15 14  1  0  0  0
 17 18  2  0  0  0
 14 13  1  0  0  0
 14 19  2  0  0  0
 13 12  1  0  0  0
 18 19  1  0  0  0
 12  9  1  0  0  0
 10  9  2  0  0  0
  9  8  1  0  0  0
  8  7  1  0  0  0
  7  3  1  0  0  0
  5  3  2  0  0  0
 32 30  2  0  0  0
  4  3  1  0  0  0
 31 30  1  0  0  0
  3  1  1  0  0  0
 30 25  1  0  0  0
  1 20  1  0  0  0
 25 22  1  0  0  0
 25 27  1  0  0  0
 22 21  1  0  0  0
 21 23  2  0  0  0
 21 20  1  0  0  0
 20 34  1  0  0  0
 27 26  1  0  0  0
 34 37  1  0  0  0
 36 37  1  0  0  0
 37 35  1  0  0  0
 22 24  1  0  0  0
 26 28  1  0  0  0
 26 29  1  0  0  0
  4  6  1  0  0  0
  8 11  1  0  0  0
  1  2  1  0  0  0
 31 33  1  0  0  0
M  END
> <minimizedAffinity>
-7.24990

$$$$
