6DH7_K13_A_103


 43 46  0  0  0  0  0  0  0  0999 V2000
   71.0027   57.4469   15.6229 C   0  0  0  0  0  0  0  0  0  0  0  0
   71.1735   58.4938   14.7123 O   0  0  0  0  0  0  0  0  0  0  0  0
   70.3526   59.0071   14.6521 H   0  0  0  0  0  0  0  0  0  0  0  0
   69.8595   56.5656   15.1314 C   0  0  0  0  0  0  0  0  0  0  0  0
   70.1689   55.1668   15.3879 N   0  0  0  0  0  0  0  0  0  0  0  0
   69.1060   54.3988   16.4541 S   0  0  0  0  0  0  0  0  0  0  0  0
   68.4012   55.4077   17.2813 O   0  0  0  0  0  0  0  0  0  0  0  0
   69.8249   53.5122   17.3604 O   0  0  0  0  0  0  0  0  0  0  0  0
   65.0030   51.3907   12.9140 N   0  0  0  0  0  0  0  0  0  0  0  0
   65.9770   52.0576   13.7357 C   0  0  0  0  0  0  0  0  0  0  0  0
   67.2334   51.3345   14.1796 C   0  0  0  0  0  0  0  0  0  0  0  0
   68.2290   52.0616   15.0402 C   0  0  0  0  0  0  0  0  0  0  0  0
   67.9426   53.4897   15.4630 C   0  0  0  0  0  0  0  0  0  0  0  0
   66.7042   54.2093   15.0273 C   0  0  0  0  0  0  0  0  0  0  0  0
   65.7135   53.4704   14.1611 C   0  0  0  0  0  0  0  0  0  0  0  0
   65.1566   50.4626   12.6235 H   0  0  0  0  0  0  0  0  0  0  0  0
   64.1827   51.8622   12.6420 H   0  0  0  0  0  0  0  0  0  0  0  0
   70.5898   54.3249   14.2907 C   0  0  0  0  0  0  0  0  0  0  0  0
   71.8992   53.6068   14.6099 C   0  0  0  0  0  0  0  0  0  0  0  0
   72.0194   52.3474   13.7505 C   0  0  0  0  0  0  0  0  0  0  0  0
   73.0811   54.5450   14.3562 C   0  0  0  0  0  0  0  0  0  0  0  0
   73.7765   54.9355   15.6584 C   0  0  0  0  0  0  0  0  0  0  0  0
   70.6894   57.9760   17.0161 C   0  0  0  0  0  0  0  0  0  0  0  0
   71.7572   58.8634   17.3727 N   0  0  0  0  0  0  0  0  0  0  0  0
   72.9176   58.4004   18.0659 C   0  0  0  0  0  0  0  0  0  0  0  0
   73.0033   57.2694   18.4636 O   0  0  0  0  0  0  0  0  0  0  0  0
   71.6893   59.8161   17.1338 H   0  0  0  0  0  0  0  0  0  0  0  0
   73.9036   59.3868   18.2066 O   0  0  0  0  0  0  0  0  0  0  0  0
   74.8738   59.3035   19.3373 C   0  0  0  0  0  0  0  0  0  0  0  0
   75.9976   59.8065   18.9554 C   0  0  0  0  0  0  0  0  0  0  0  0
   75.8334   61.4141   19.1255 O   0  0  0  0  0  0  0  0  0  0  0  0
   75.0277   61.5877   20.1231 C   0  0  0  0  0  0  0  0  0  0  0  0
   73.8127   62.4602   19.6993 O   0  0  0  0  0  0  0  0  0  0  0  0
   72.7531   61.6826   19.6492 C   0  0  0  0  0  0  0  0  0  0  0  0
   73.0819   60.4042   20.5656 C   0  0  0  0  0  0  0  0  0  0  0  0
   74.4167   60.2198   20.4931 C   0  0  0  0  0  0  0  0  0  0  0  0
   69.4243   58.8274   17.0220 C   0  0  0  0  0  0  0  0  0  0  0  0
   69.1777   58.5084   19.6396 C   0  0  0  0  0  0  0  0  0  0  0  0
   69.0165   59.1205   21.0204 C   0  0  0  0  0  0  0  0  0  0  0  0
   68.9127   60.6317   21.1769 C   0  0  0  0  0  0  0  0  0  0  0  0
   68.9834   61.5322   19.9564 C   0  0  0  0  0  0  0  0  0  0  0  0
   69.1526   60.9214   18.5768 C   0  0  0  0  0  0  0  0  0  0  0  0
   69.2621   59.4121   18.4184 C   0  0  0  0  0  0  0  0  0  0  0  0
  9 10  1  0  0  0
 10 11  2  0  0  0
 10 15  1  0  0  0
 11 12  1  0  0  0
 12 13  2  0  0  0
 13 14  1  0  0  0
 13  6  1  0  0  0
 14 15  2  0  0  0
  6  7  2  0  0  0
  6  8  2  0  0  0
  6  5  1  0  0  0
  5 18  1  0  0  0
  5  4  1  0  0  0
 18 19  1  0  0  0
 19 20  1  0  0  0
 19 21  1  0  0  0
 21 22  1  0  0  0
  4  1  1  0  0  0
  1  2  1  0  0  0
  1 23  1  0  0  0
 23 24  1  0  0  0
 23 37  1  0  0  0
 24 25  1  0  0  0
 25 26  2  0  0  0
 25 28  1  0  0  0
 28 29  1  0  0  0
 29 30  1  0  0  0
 29 36  1  0  0  0
 30 31  1  0  0  0
 31 32  1  0  0  0
 32 33  1  0  0  0
 32 36  1  0  0  0
 33 34  1  0  0  0
 34 35  1  0  0  0
 35 36  1  0  0  0
 37 43  1  0  0  0
 38 39  2  0  0  0
 38 43  1  0  0  0
 39 40  1  0  0  0
 40 41  2  0  0  0
 41 42  1  0  0  0
 42 43  2  0  0  0
  9 16  1  0  0  0
  9 17  1  0  0  0
  2  3  1  0  0  0
 24 27  1  0  0  0
M  END
> <minimizedAffinity>
-9.45458

$$$$
6DH7_K13_A_103


 43 46  0  0  0  0  0  0  0  0999 V2000
   71.3176   55.7479   18.1940 C   0  0  0  0  0  0  0  0  0  0  0  0
   71.6576   54.7991   19.1628 O   0  0  0  0  0  0  0  0  0  0  0  0
   71.8808   53.9604   18.7297 H   0  0  0  0  0  0  0  0  0  0  0  0
   70.1224   55.2218   17.4066 C   0  0  0  0  0  0  0  0  0  0  0  0
   69.4067   56.3318   16.7951 N   0  0  0  0  0  0  0  0  0  0  0  0
   69.0142   56.1001   15.1677 S   0  0  0  0  0  0  0  0  0  0  0  0
   70.0925   56.6396   14.3045 O   0  0  0  0  0  0  0  0  0  0  0  0
   67.7833   56.7999   14.8223 O   0  0  0  0  0  0  0  0  0  0  0  0
   68.2268   50.0137   14.3000 N   0  0  0  0  0  0  0  0  0  0  0  0
   68.4419   51.4242   14.4815 C   0  0  0  0  0  0  0  0  0  0  0  0
   69.6722   52.0952   13.9034 C   0  0  0  0  0  0  0  0  0  0  0  0
   69.8663   53.5711   14.1144 C   0  0  0  0  0  0  0  0  0  0  0  0
   68.8418   54.3476   14.9193 C   0  0  0  0  0  0  0  0  0  0  0  0
   67.6246   53.6908   15.4921 C   0  0  0  0  0  0  0  0  0  0  0  0
   67.4388   52.2095   15.2712 C   0  0  0  0  0  0  0  0  0  0  0  0
   68.8735   49.4794   13.7847 H   0  0  0  0  0  0  0  0  0  0  0  0
   67.4328   49.5825   14.6911 H   0  0  0  0  0  0  0  0  0  0  0  0
   68.3691   57.0014   17.5465 C   0  0  0  0  0  0  0  0  0  0  0  0
   68.9390   58.1374   18.3931 C   0  0  0  0  0  0  0  0  0  0  0  0
   68.9605   59.4294   17.5750 C   0  0  0  0  0  0  0  0  0  0  0  0
   68.0957   58.3163   19.6573 C   0  0  0  0  0  0  0  0  0  0  0  0
   68.8673   59.0597   20.7454 C   0  0  0  0  0  0  0  0  0  0  0  0
   72.4844   56.0141   17.2522 C   0  0  0  0  0  0  0  0  0  0  0  0
   73.1535   57.1837   17.7411 N   0  0  0  0  0  0  0  0  0  0  0  0
   72.9944   58.4569   17.1125 C   0  0  0  0  0  0  0  0  0  0  0  0
   72.3710   58.5814   16.0923 O   0  0  0  0  0  0  0  0  0  0  0  0
   73.7375   57.1078   18.5300 H   0  0  0  0  0  0  0  0  0  0  0  0
   73.6208   59.4973   17.8125 O   0  0  0  0  0  0  0  0  0  0  0  0
   74.4921   59.1795   18.9815 C   0  0  0  0  0  0  0  0  0  0  0  0
   75.6747   59.6385   18.7524 C   0  0  0  0  0  0  0  0  0  0  0  0
   75.6112   61.2147   19.1420 O   0  0  0  0  0  0  0  0  0  0  0  0
   74.7447   61.3121   20.0982 C   0  0  0  0  0  0  0  0  0  0  0  0
   73.6305   62.3303   19.7248 O   0  0  0  0  0  0  0  0  0  0  0  0
   72.5261   61.6552   19.4920 C   0  0  0  0  0  0  0  0  0  0  0  0
   72.6920   60.2393   20.2336 C   0  0  0  0  0  0  0  0  0  0  0  0
   74.0122   59.9598   20.2247 C   0  0  0  0  0  0  0  0  0  0  0  0
   73.5169   54.8933   17.3067 C   0  0  0  0  0  0  0  0  0  0  0  0
   73.3304   52.6169   15.9660 C   0  0  0  0  0  0  0  0  0  0  0  0
   73.2658   51.8862   14.6359 C   0  0  0  0  0  0  0  0  0  0  0  0
   73.3483   52.6680   13.3318 C   0  0  0  0  0  0  0  0  0  0  0  0
   73.4818   54.1803   13.3556 C   0  0  0  0  0  0  0  0  0  0  0  0
   73.5384   54.9121   14.6847 C   0  0  0  0  0  0  0  0  0  0  0  0
   73.4505   54.1335   15.9889 C   0  0  0  0  0  0  0  0  0  0  0  0
  9 10  1  0  0  0
 10 11  2  0  0  0
 10 15  1  0  0  0
 11 12  1  0  0  0
 12 13  2  0  0  0
 13 14  1  0  0  0
 13  6  1  0  0  0
 14 15  2  0  0  0
  6  7  2  0  0  0
  6  8  2  0  0  0
  6  5  1  0  0  0
  5 18  1  0  0  0
  5  4  1  0  0  0
 18 19  1  0  0  0
 19 20  1  0  0  0
 19 21  1  0  0  0
 21 22  1  0  0  0
  4  1  1  0  0  0
  1  2  1  0  0  0
  1 23  1  0  0  0
 23 24  1  0  0  0
 23 37  1  0  0  0
 24 25  1  0  0  0
 25 26  2  0  0  0
 25 28  1  0  0  0
 28 29  1  0  0  0
 29 30  1  0  0  0
 29 36  1  0  0  0
 30 31  1  0  0  0
 31 32  1  0  0  0
 32 33  1  0  0  0
 32 36  1  0  0  0
 33 34  1  0  0  0
 34 35  1  0  0  0
 35 36  1  0  0  0
 37 43  1  0  0  0
 38 39  2  0  0  0
 38 43  1  0  0  0
 39 40  1  0  0  0
 40 41  2  0  0  0
 41 42  1  0  0  0
 42 43  2  0  0  0
  9 16  1  0  0  0
  9 17  1  0  0  0
  2  3  1  0  0  0
 24 27  1  0  0  0
M  END
> <minimizedAffinity>
-9.25064

$$$$
6DH7_K13_A_103


 43 46  0  0  0  0  0  0  0  0999 V2000
   71.4677   57.6760   15.8082 C   0  0  0  0  0  0  0  0  0  0  0  0
   71.2232   58.7579   14.9571 O   0  0  0  0  0  0  0  0  0  0  0  0
   70.2773   58.7956   14.7457 H   0  0  0  0  0  0  0  0  0  0  0  0
   71.0304   56.3993   15.0984 C   0  0  0  0  0  0  0  0  0  0  0  0
   70.4137   55.4901   16.0529 N   0  0  0  0  0  0  0  0  0  0  0  0
   68.7795   55.1725   15.7620 S   0  0  0  0  0  0  0  0  0  0  0  0
   68.2021   56.2341   14.9025 O   0  0  0  0  0  0  0  0  0  0  0  0
   68.0211   55.1539   17.0065 O   0  0  0  0  0  0  0  0  0  0  0  0
   68.3106   49.6592   12.9691 N   0  0  0  0  0  0  0  0  0  0  0  0
   68.4411   50.9507   13.5884 C   0  0  0  0  0  0  0  0  0  0  0  0
   69.2612   52.0413   12.9277 C   0  0  0  0  0  0  0  0  0  0  0  0
   69.3781   53.3787   13.6044 C   0  0  0  0  0  0  0  0  0  0  0  0
   68.6945   53.5976   14.9405 C   0  0  0  0  0  0  0  0  0  0  0  0
   67.8828   52.5250   15.5976 C   0  0  0  0  0  0  0  0  0  0  0  0
   67.7700   51.1875   14.9075 C   0  0  0  0  0  0  0  0  0  0  0  0
   68.7435   49.4827   12.1027 H   0  0  0  0  0  0  0  0  0  0  0  0
   67.7884   48.9516   13.4116 H   0  0  0  0  0  0  0  0  0  0  0  0
   71.1528   54.3319   16.5024 C   0  0  0  0  0  0  0  0  0  0  0  0
   72.4481   54.1565   15.7128 C   0  0  0  0  0  0  0  0  0  0  0  0
   73.6467   54.4452   16.6178 C   0  0  0  0  0  0  0  0  0  0  0  0
   72.5271   52.7342   15.1542 C   0  0  0  0  0  0  0  0  0  0  0  0
   73.1320   52.7153   13.7522 C   0  0  0  0  0  0  0  0  0  0  0  0
   70.7100   57.8271   17.1205 C   0  0  0  0  0  0  0  0  0  0  0  0
   71.5837   58.5118   18.0276 N   0  0  0  0  0  0  0  0  0  0  0  0
   72.4432   57.8017   18.9212 C   0  0  0  0  0  0  0  0  0  0  0  0
   72.3996   56.6044   19.0177 O   0  0  0  0  0  0  0  0  0  0  0  0
   71.5917   59.4962   18.0349 H   0  0  0  0  0  0  0  0  0  0  0  0
   73.3125   58.6417   19.6309 O   0  0  0  0  0  0  0  0  0  0  0  0
   73.9757   59.7791   18.9285 C   0  0  0  0  0  0  0  0  0  0  0  0
   73.4570   60.8824   19.3473 C   0  0  0  0  0  0  0  0  0  0  0  0
   74.2152   61.2150   20.7454 O   0  0  0  0  0  0  0  0  0  0  0  0
   75.4113   60.7357   20.6263 C   0  0  0  0  0  0  0  0  0  0  0  0
   75.7229   59.7487   21.7865 O   0  0  0  0  0  0  0  0  0  0  0  0
   75.7448   58.5316   21.2884 C   0  0  0  0  0  0  0  0  0  0  0  0
   76.0081   58.6890   19.7111 C   0  0  0  0  0  0  0  0  0  0  0  0
   75.4583   59.8677   19.3513 C   0  0  0  0  0  0  0  0  0  0  0  0
   69.4889   58.7269   16.9635 C   0  0  0  0  0  0  0  0  0  0  0  0
   69.2650   60.8340   18.5523 C   0  0  0  0  0  0  0  0  0  0  0  0
   68.9476   61.4089   19.9220 C   0  0  0  0  0  0  0  0  0  0  0  0
   68.5698   60.4816   21.0692 C   0  0  0  0  0  0  0  0  0  0  0  0
   68.4957   58.9816   20.8454 C   0  0  0  0  0  0  0  0  0  0  0  0
   68.8048   58.4069   19.4745 C   0  0  0  0  0  0  0  0  0  0  0  0
   69.1772   59.3320   18.3254 C   0  0  0  0  0  0  0  0  0  0  0  0
  9 10  1  0  0  0
 10 11  2  0  0  0
 10 15  1  0  0  0
 11 12  1  0  0  0
 12 13  2  0  0  0
 13 14  1  0  0  0
 13  6  1  0  0  0
 14 15  2  0  0  0
  6  7  2  0  0  0
  6  8  2  0  0  0
  6  5  1  0  0  0
  5 18  1  0  0  0
  5  4  1  0  0  0
 18 19  1  0  0  0
 19 20  1  0  0  0
 19 21  1  0  0  0
 21 22  1  0  0  0
  4  1  1  0  0  0
  1  2  1  0  0  0
  1 23  1  0  0  0
 23 24  1  0  0  0
 23 37  1  0  0  0
 24 25  1  0  0  0
 25 26  2  0  0  0
 25 28  1  0  0  0
 28 29  1  0  0  0
 29 30  1  0  0  0
 29 36  1  0  0  0
 30 31  1  0  0  0
 31 32  1  0  0  0
 32 33  1  0  0  0
 32 36  1  0  0  0
 33 34  1  0  0  0
 34 35  1  0  0  0
 35 36  1  0  0  0
 37 43  1  0  0  0
 38 39  2  0  0  0
 38 43  1  0  0  0
 39 40  1  0  0  0
 40 41  2  0  0  0
 41 42  1  0  0  0
 42 43  2  0  0  0
  9 16  1  0  0  0
  9 17  1  0  0  0
  2  3  1  0  0  0
 24 27  1  0  0  0
M  END
> <minimizedAffinity>
-8.97639

$$$$
6DH7_K13_A_103


 43 46  0  0  0  0  0  0  0  0999 V2000
   71.5185   58.1834   17.1432 C   0  0  0  0  0  0  0  0  0  0  0  0
   70.4678   59.0490   16.8252 O   0  0  0  0  0  0  0  0  0  0  0  0
   70.0149   59.3205   17.6390 H   0  0  0  0  0  0  0  0  0  0  0  0
   70.9387   56.9685   17.8594 C   0  0  0  0  0  0  0  0  0  0  0  0
   70.6075   55.9351   16.8896 N   0  0  0  0  0  0  0  0  0  0  0  0
   68.9982   55.9489   16.3737 S   0  0  0  0  0  0  0  0  0  0  0  0
   68.8061   56.9955   15.3411 O   0  0  0  0  0  0  0  0  0  0  0  0
   68.0977   56.2516   17.4791 O   0  0  0  0  0  0  0  0  0  0  0  0
   67.9513   50.3665   13.8921 N   0  0  0  0  0  0  0  0  0  0  0  0
   68.1816   51.6489   14.5014 C   0  0  0  0  0  0  0  0  0  0  0  0
   67.8579   51.8742   15.9653 C   0  0  0  0  0  0  0  0  0  0  0  0
   68.1091   53.2281   16.5688 C   0  0  0  0  0  0  0  0  0  0  0  0
   68.6563   54.3409   15.6955 C   0  0  0  0  0  0  0  0  0  0  0  0
   68.9785   54.1244   14.2497 C   0  0  0  0  0  0  0  0  0  0  0  0
   68.7252   52.7604   13.6556 C   0  0  0  0  0  0  0  0  0  0  0  0
   67.5947   49.6230   14.4299 H   0  0  0  0  0  0  0  0  0  0  0  0
   68.1504   50.2323   12.9374 H   0  0  0  0  0  0  0  0  0  0  0  0
   71.5467   55.6324   15.8331 C   0  0  0  0  0  0  0  0  0  0  0  0
   72.5345   54.5485   16.2593 C   0  0  0  0  0  0  0  0  0  0  0  0
   72.3170   53.2919   15.4152 C   0  0  0  0  0  0  0  0  0  0  0  0
   73.9677   55.0607   16.1006 C   0  0  0  0  0  0  0  0  0  0  0  0
   74.9879   53.9416   16.2969 C   0  0  0  0  0  0  0  0  0  0  0  0
   72.5462   58.8701   18.0328 C   0  0  0  0  0  0  0  0  0  0  0  0
   71.8218   59.4798   19.1091 N   0  0  0  0  0  0  0  0  0  0  0  0
   71.9904   60.8595   19.4402 C   0  0  0  0  0  0  0  0  0  0  0  0
   72.8161   61.5412   18.8940 O   0  0  0  0  0  0  0  0  0  0  0  0
   71.1921   58.9341   19.6334 H   0  0  0  0  0  0  0  0  0  0  0  0
   71.1019   61.2991   20.4313 O   0  0  0  0  0  0  0  0  0  0  0  0
   69.7675   61.8391   20.0383 C   0  0  0  0  0  0  0  0  0  0  0  0
   69.4261   61.3164   18.9104 C   0  0  0  0  0  0  0  0  0  0  0  0
   68.8044   59.8608   19.2774 O   0  0  0  0  0  0  0  0  0  0  0  0
   68.2629   59.9875   20.4458 C   0  0  0  0  0  0  0  0  0  0  0  0
   68.8438   58.9376   21.4345 O   0  0  0  0  0  0  0  0  0  0  0  0
   69.6114   59.5715   22.2940 C   0  0  0  0  0  0  0  0  0  0  0  0
   69.1435   61.1087   22.2761 C   0  0  0  0  0  0  0  0  0  0  0  0
   68.6883   61.3513   21.0292 C   0  0  0  0  0  0  0  0  0  0  0  0
   73.4867   57.8626   18.6853 C   0  0  0  0  0  0  0  0  0  0  0  0
   74.7809   58.4951   20.9077 C   0  0  0  0  0  0  0  0  0  0  0  0
   75.8776   59.2855   21.6004 C   0  0  0  0  0  0  0  0  0  0  0  0
   76.7510   60.2413   20.7988 C   0  0  0  0  0  0  0  0  0  0  0  0
   76.5382   60.3976   19.3035 C   0  0  0  0  0  0  0  0  0  0  0  0
   75.4475   59.6019   18.6091 C   0  0  0  0  0  0  0  0  0  0  0  0
   74.5773   58.6422   19.4070 C   0  0  0  0  0  0  0  0  0  0  0  0
  9 10  1  0  0  0
 10 11  2  0  0  0
 10 15  1  0  0  0
 11 12  1  0  0  0
 12 13  2  0  0  0
 13 14  1  0  0  0
 13  6  1  0  0  0
 14 15  2  0  0  0
  6  7  2  0  0  0
  6  8  2  0  0  0
  6  5  1  0  0  0
  5 18  1  0  0  0
  5  4  1  0  0  0
 18 19  1  0  0  0
 19 20  1  0  0  0
 19 21  1  0  0  0
 21 22  1  0  0  0
  4  1  1  0  0  0
  1  2  1  0  0  0
  1 23  1  0  0  0
 23 24  1  0  0  0
 23 37  1  0  0  0
 24 25  1  0  0  0
 25 26  2  0  0  0
 25 28  1  0  0  0
 28 29  1  0  0  0
 29 30  1  0  0  0
 29 36  1  0  0  0
 30 31  1  0  0  0
 31 32  1  0  0  0
 32 33  1  0  0  0
 32 36  1  0  0  0
 33 34  1  0  0  0
 34 35  1  0  0  0
 35 36  1  0  0  0
 37 43  1  0  0  0
 38 39  2  0  0  0
 38 43  1  0  0  0
 39 40  1  0  0  0
 40 41  2  0  0  0
 41 42  1  0  0  0
 42 43  2  0  0  0
  9 16  1  0  0  0
  9 17  1  0  0  0
  2  3  1  0  0  0
 24 27  1  0  0  0
M  END
> <minimizedAffinity>
-8.93387

$$$$
6DH7_K13_A_103


 43 46  0  0  0  0  0  0  0  0999 V2000
   69.7172   56.8429   17.7758 C   0  0  0  0  0  0  0  0  0  0  0  0
   68.8919   57.0642   18.8823 O   0  0  0  0  0  0  0  0  0  0  0  0
   68.1907   57.6901   18.6426 H   0  0  0  0  0  0  0  0  0  0  0  0
   70.3188   58.1782   17.3517 C   0  0  0  0  0  0  0  0  0  0  0  0
   71.2995   58.6126   18.3354 N   0  0  0  0  0  0  0  0  0  0  0  0
   72.8723   58.0669   18.0442 S   0  0  0  0  0  0  0  0  0  0  0  0
   73.2300   58.2873   16.6221 O   0  0  0  0  0  0  0  0  0  0  0  0
   72.9875   56.6385   18.3099 O   0  0  0  0  0  0  0  0  0  0  0  0
   76.7211   61.1642   21.7873 N   0  0  0  0  0  0  0  0  0  0  0  0
   75.8262   60.4761   20.8961 C   0  0  0  0  0  0  0  0  0  0  0  0
   75.2902   61.1683   19.6583 C   0  0  0  0  0  0  0  0  0  0  0  0
   74.3548   60.4196   18.7501 C   0  0  0  0  0  0  0  0  0  0  0  0
   73.9511   59.0014   19.1051 C   0  0  0  0  0  0  0  0  0  0  0  0
   74.4775   58.3122   20.3253 C   0  0  0  0  0  0  0  0  0  0  0  0
   75.4182   59.0725   21.2280 C   0  0  0  0  0  0  0  0  0  0  0  0
   77.0015   62.0866   21.5878 H   0  0  0  0  0  0  0  0  0  0  0  0
   77.0532   60.7129   22.5967 H   0  0  0  0  0  0  0  0  0  0  0  0
   71.2451   59.9683   18.8344 C   0  0  0  0  0  0  0  0  0  0  0  0
   70.5596   60.0332   20.1974 C   0  0  0  0  0  0  0  0  0  0  0  0
   71.3299   60.9816   21.1173 C   0  0  0  0  0  0  0  0  0  0  0  0
   69.1135   60.5046   20.0294 C   0  0  0  0  0  0  0  0  0  0  0  0
   69.0397   61.8271   19.2696 C   0  0  0  0  0  0  0  0  0  0  0  0
   68.9346   56.2344   16.6196 C   0  0  0  0  0  0  0  0  0  0  0  0
   69.7822   55.2462   16.0196 N   0  0  0  0  0  0  0  0  0  0  0  0
   70.4872   55.5011   14.8032 C   0  0  0  0  0  0  0  0  0  0  0  0
   70.3239   56.5174   14.1826 O   0  0  0  0  0  0  0  0  0  0  0  0
   69.8810   54.3696   16.4567 H   0  0  0  0  0  0  0  0  0  0  0  0
   71.3627   54.4656   14.4484 O   0  0  0  0  0  0  0  0  0  0  0  0
   72.8171   54.7545   14.2812 C   0  0  0  0  0  0  0  0  0  0  0  0
   73.3366   54.9473   15.4452 C   0  0  0  0  0  0  0  0  0  0  0  0
   73.6303   53.4642   16.0403 O   0  0  0  0  0  0  0  0  0  0  0  0
   73.8901   52.7139   15.0184 C   0  0  0  0  0  0  0  0  0  0  0  0
   72.9413   51.4825   14.9889 O   0  0  0  0  0  0  0  0  0  0  0  0
   72.0933   51.6480   13.9973 C   0  0  0  0  0  0  0  0  0  0  0  0
   72.7741   52.6934   12.9846 C   0  0  0  0  0  0  0  0  0  0  0  0
   73.5444   53.5047   13.7392 C   0  0  0  0  0  0  0  0  0  0  0  0
   67.7031   55.4807   17.1101 C   0  0  0  0  0  0  0  0  0  0  0  0
   68.0724   52.9621   16.3789 C   0  0  0  0  0  0  0  0  0  0  0  0
   67.7979   51.8325   15.4013 C   0  0  0  0  0  0  0  0  0  0  0  0
   66.9217   52.0770   14.1801 C   0  0  0  0  0  0  0  0  0  0  0  0
   66.3086   53.4457   13.9424 C   0  0  0  0  0  0  0  0  0  0  0  0
   66.5759   54.5731   14.9235 C   0  0  0  0  0  0  0  0  0  0  0  0
   67.4466   54.3296   16.1472 C   0  0  0  0  0  0  0  0  0  0  0  0
  9 10  1  0  0  0
 10 11  2  0  0  0
 10 15  1  0  0  0
 11 12  1  0  0  0
 12 13  2  0  0  0
 13 14  1  0  0  0
 13  6  1  0  0  0
 14 15  2  0  0  0
  6  7  2  0  0  0
  6  8  2  0  0  0
  6  5  1  0  0  0
  5 18  1  0  0  0
  5  4  1  0  0  0
 18 19  1  0  0  0
 19 20  1  0  0  0
 19 21  1  0  0  0
 21 22  1  0  0  0
  4  1  1  0  0  0
  1  2  1  0  0  0
  1 23  1  0  0  0
 23 24  1  0  0  0
 23 37  1  0  0  0
 24 25  1  0  0  0
 25 26  2  0  0  0
 25 28  1  0  0  0
 28 29  1  0  0  0
 29 30  1  0  0  0
 29 36  1  0  0  0
 30 31  1  0  0  0
 31 32  1  0  0  0
 32 33  1  0  0  0
 32 36  1  0  0  0
 33 34  1  0  0  0
 34 35  1  0  0  0
 35 36  1  0  0  0
 37 43  1  0  0  0
 38 39  2  0  0  0
 38 43  1  0  0  0
 39 40  1  0  0  0
 40 41  2  0  0  0
 41 42  1  0  0  0
 42 43  2  0  0  0
  9 16  1  0  0  0
  9 17  1  0  0  0
  2  3  1  0  0  0
 24 27  1  0  0  0
M  END
> <minimizedAffinity>
-8.85465

$$$$
6DH7_K13_A_103


 43 46  0  0  0  0  0  0  0  0999 V2000
   71.2367   55.5785   17.7808 C   0  0  0  0  0  0  0  0  0  0  0  0
   71.5947   54.9848   18.9948 O   0  0  0  0  0  0  0  0  0  0  0  0
   72.1235   54.1900   18.8225 H   0  0  0  0  0  0  0  0  0  0  0  0
   70.4299   54.5682   16.9725 C   0  0  0  0  0  0  0  0  0  0  0  0
   69.0681   55.0507   16.7972 N   0  0  0  0  0  0  0  0  0  0  0  0
   68.9529   56.5768   16.0802 S   0  0  0  0  0  0  0  0  0  0  0  0
   67.7119   56.6653   15.2734 O   0  0  0  0  0  0  0  0  0  0  0  0
   70.0772   56.8198   15.1850 O   0  0  0  0  0  0  0  0  0  0  0  0
   68.7940   60.8664   20.5513 N   0  0  0  0  0  0  0  0  0  0  0  0
   68.8183   59.8452   19.5388 C   0  0  0  0  0  0  0  0  0  0  0  0
   68.4093   58.4235   19.8702 C   0  0  0  0  0  0  0  0  0  0  0  0
   68.4492   57.3809   18.7877 C   0  0  0  0  0  0  0  0  0  0  0  0
   68.9194   57.7692   17.3990 C   0  0  0  0  0  0  0  0  0  0  0  0
   69.3237   59.1715   17.0654 C   0  0  0  0  0  0  0  0  0  0  0  0
   69.2768   60.2102   18.1592 C   0  0  0  0  0  0  0  0  0  0  0  0
   68.4962   60.6478   21.4639 H   0  0  0  0  0  0  0  0  0  0  0  0
   69.0750   61.7840   20.3318 H   0  0  0  0  0  0  0  0  0  0  0  0
   68.0450   54.1299   16.3554 C   0  0  0  0  0  0  0  0  0  0  0  0
   68.6357   53.0059   15.5069 C   0  0  0  0  0  0  0  0  0  0  0  0
   67.7488   51.7639   15.6068 C   0  0  0  0  0  0  0  0  0  0  0  0
   68.7578   53.4632   14.0518 C   0  0  0  0  0  0  0  0  0  0  0  0
   69.4611   52.4153   13.1921 C   0  0  0  0  0  0  0  0  0  0  0  0
   72.4684   56.0085   16.9950 C   0  0  0  0  0  0  0  0  0  0  0  0
   72.9975   57.1664   17.6540 N   0  0  0  0  0  0  0  0  0  0  0  0
   72.9504   58.4604   17.0499 C   0  0  0  0  0  0  0  0  0  0  0  0
   72.5537   58.6160   15.9260 O   0  0  0  0  0  0  0  0  0  0  0  0
   73.4035   57.0675   18.5454 H   0  0  0  0  0  0  0  0  0  0  0  0
   73.3958   59.4807   17.9017 O   0  0  0  0  0  0  0  0  0  0  0  0
   74.3265   59.1529   19.0211 C   0  0  0  0  0  0  0  0  0  0  0  0
   75.5082   59.5630   18.7095 C   0  0  0  0  0  0  0  0  0  0  0  0
   75.5263   61.1476   19.0685 O   0  0  0  0  0  0  0  0  0  0  0  0
   74.7254   61.2955   20.0741 C   0  0  0  0  0  0  0  0  0  0  0  0
   73.6275   62.3473   19.7487 O   0  0  0  0  0  0  0  0  0  0  0  0
   72.4870   61.7097   19.5992 C   0  0  0  0  0  0  0  0  0  0  0  0
   72.6478   60.3030   20.3592 C   0  0  0  0  0  0  0  0  0  0  0  0
   73.9539   59.9743   20.2746 C   0  0  0  0  0  0  0  0  0  0  0  0
   73.5704   54.9564   17.0585 C   0  0  0  0  0  0  0  0  0  0  0  0
   73.2955   52.5533   15.9795 C   0  0  0  0  0  0  0  0  0  0  0  0
   73.1586   51.6863   14.7398 C   0  0  0  0  0  0  0  0  0  0  0  0
   73.1856   52.3235   13.3570 C   0  0  0  0  0  0  0  0  0  0  0  0
   73.3356   53.8276   13.2125 C   0  0  0  0  0  0  0  0  0  0  0  0
   73.4643   54.6957   14.4514 C   0  0  0  0  0  0  0  0  0  0  0  0
   73.4321   54.0618   15.8343 C   0  0  0  0  0  0  0  0  0  0  0  0
  9 10  1  0  0  0
 10 11  2  0  0  0
 10 15  1  0  0  0
 11 12  1  0  0  0
 12 13  2  0  0  0
 13 14  1  0  0  0
 13  6  1  0  0  0
 14 15  2  0  0  0
  6  7  2  0  0  0
  6  8  2  0  0  0
  6  5  1  0  0  0
  5 18  1  0  0  0
  5  4  1  0  0  0
 18 19  1  0  0  0
 19 20  1  0  0  0
 19 21  1  0  0  0
 21 22  1  0  0  0
  4  1  1  0  0  0
  1  2  1  0  0  0
  1 23  1  0  0  0
 23 24  1  0  0  0
 23 37  1  0  0  0
 24 25  1  0  0  0
 25 26  2  0  0  0
 25 28  1  0  0  0
 28 29  1  0  0  0
 29 30  1  0  0  0
 29 36  1  0  0  0
 30 31  1  0  0  0
 31 32  1  0  0  0
 32 33  1  0  0  0
 32 36  1  0  0  0
 33 34  1  0  0  0
 34 35  1  0  0  0
 35 36  1  0  0  0
 37 43  1  0  0  0
 38 39  2  0  0  0
 38 43  1  0  0  0
 39 40  1  0  0  0
 40 41  2  0  0  0
 41 42  1  0  0  0
 42 43  2  0  0  0
  9 16  1  0  0  0
  9 17  1  0  0  0
  2  3  1  0  0  0
 24 27  1  0  0  0
M  END
> <minimizedAffinity>
-8.82133

$$$$
6DH7_K13_A_103


 43 46  0  0  0  0  0  0  0  0999 V2000
   70.2821   58.1221   17.5222 C   0  0  0  0  0  0  0  0  0  0  0  0
   69.6015   58.9324   16.6087 O   0  0  0  0  0  0  0  0  0  0  0  0
   68.6571   58.9464   16.8298 H   0  0  0  0  0  0  0  0  0  0  0  0
   69.6972   56.7161   17.4445 C   0  0  0  0  0  0  0  0  0  0  0  0
   70.3028   55.9897   16.3383 N   0  0  0  0  0  0  0  0  0  0  0  0
   69.3346   55.8828   14.9573 S   0  0  0  0  0  0  0  0  0  0  0  0
   70.0463   56.4635   13.7932 O   0  0  0  0  0  0  0  0  0  0  0  0
   68.0938   56.6277   15.1300 O   0  0  0  0  0  0  0  0  0  0  0  0
   68.0147   49.8974   14.0354 N   0  0  0  0  0  0  0  0  0  0  0  0
   68.3495   51.2833   14.2243 C   0  0  0  0  0  0  0  0  0  0  0  0
   69.5076   51.9048   13.4687 C   0  0  0  0  0  0  0  0  0  0  0  0
   69.8309   53.3560   13.6923 C   0  0  0  0  0  0  0  0  0  0  0  0
   69.0083   54.1561   14.6841 C   0  0  0  0  0  0  0  0  0  0  0  0
   67.8631   53.5484   15.4326 C   0  0  0  0  0  0  0  0  0  0  0  0
   67.5460   52.0917   15.1977 C   0  0  0  0  0  0  0  0  0  0  0  0
   68.5299   49.3486   13.4008 H   0  0  0  0  0  0  0  0  0  0  0  0
   67.2705   49.4975   14.5408 H   0  0  0  0  0  0  0  0  0  0  0  0
   71.7033   56.1935   16.0436 C   0  0  0  0  0  0  0  0  0  0  0  0
   72.4306   54.8651   15.8476 C   0  0  0  0  0  0  0  0  0  0  0  0
   73.0098   54.7980   14.4337 C   0  0  0  0  0  0  0  0  0  0  0  0
   73.5413   54.7225   16.8904 C   0  0  0  0  0  0  0  0  0  0  0  0
   74.7799   54.0506   16.3018 C   0  0  0  0  0  0  0  0  0  0  0  0
   70.1509   58.6624   18.9400 C   0  0  0  0  0  0  0  0  0  0  0  0
   71.3814   59.3319   19.2443 N   0  0  0  0  0  0  0  0  0  0  0  0
   72.6109   58.6167   19.3800 C   0  0  0  0  0  0  0  0  0  0  0  0
   72.6480   57.4160   19.3405 O   0  0  0  0  0  0  0  0  0  0  0  0
   71.3792   60.3092   19.3628 H   0  0  0  0  0  0  0  0  0  0  0  0
   73.7200   59.4577   19.5465 O   0  0  0  0  0  0  0  0  0  0  0  0
   74.9402   58.9414   20.2331 C   0  0  0  0  0  0  0  0  0  0  0  0
   75.8384   58.6875   19.3439 C   0  0  0  0  0  0  0  0  0  0  0  0
   76.5428   60.1152   19.0188 O   0  0  0  0  0  0  0  0  0  0  0  0
   76.4870   60.7994   20.1157 C   0  0  0  0  0  0  0  0  0  0  0  0
   75.7820   62.1639   19.8737 O   0  0  0  0  0  0  0  0  0  0  0  0
   74.6015   62.1183   20.4519 C   0  0  0  0  0  0  0  0  0  0  0  0
   74.6838   60.9634   21.5661 C   0  0  0  0  0  0  0  0  0  0  0  0
   75.5659   60.0531   21.1034 C   0  0  0  0  0  0  0  0  0  0  0  0
   69.0648   59.7284   19.0365 C   0  0  0  0  0  0  0  0  0  0  0  0
   68.6653   61.6679   20.7952 C   0  0  0  0  0  0  0  0  0  0  0  0
   68.6329   62.1338   22.2406 C   0  0  0  0  0  0  0  0  0  0  0  0
   68.9854   61.1656   23.3619 C   0  0  0  0  0  0  0  0  0  0  0  0
   69.3570   59.7288   23.0409 C   0  0  0  0  0  0  0  0  0  0  0  0
   69.3818   59.2602   21.5970 C   0  0  0  0  0  0  0  0  0  0  0  0
   69.0246   60.2243   20.4755 C   0  0  0  0  0  0  0  0  0  0  0  0
  9 10  1  0  0  0
 10 11  2  0  0  0
 10 15  1  0  0  0
 11 12  1  0  0  0
 12 13  2  0  0  0
 13 14  1  0  0  0
 13  6  1  0  0  0
 14 15  2  0  0  0
  6  7  2  0  0  0
  6  8  2  0  0  0
  6  5  1  0  0  0
  5 18  1  0  0  0
  5  4  1  0  0  0
 18 19  1  0  0  0
 19 20  1  0  0  0
 19 21  1  0  0  0
 21 22  1  0  0  0
  4  1  1  0  0  0
  1  2  1  0  0  0
  1 23  1  0  0  0
 23 24  1  0  0  0
 23 37  1  0  0  0
 24 25  1  0  0  0
 25 26  2  0  0  0
 25 28  1  0  0  0
 28 29  1  0  0  0
 29 30  1  0  0  0
 29 36  1  0  0  0
 30 31  1  0  0  0
 31 32  1  0  0  0
 32 33  1  0  0  0
 32 36  1  0  0  0
 33 34  1  0  0  0
 34 35  1  0  0  0
 35 36  1  0  0  0
 37 43  1  0  0  0
 38 39  2  0  0  0
 38 43  1  0  0  0
 39 40  1  0  0  0
 40 41  2  0  0  0
 41 42  1  0  0  0
 42 43  2  0  0  0
  9 16  1  0  0  0
  9 17  1  0  0  0
  2  3  1  0  0  0
 24 27  1  0  0  0
M  END
> <minimizedAffinity>
-8.75353

$$$$
6DH7_K13_A_103


 43 46  0  0  0  0  0  0  0  0999 V2000
   71.4074   58.5269   17.3882 C   0  0  0  0  0  0  0  0  0  0  0  0
   70.4873   57.8311   18.1781 O   0  0  0  0  0  0  0  0  0  0  0  0
   70.9429   57.1187   18.6535 H   0  0  0  0  0  0  0  0  0  0  0  0
   72.0323   57.5452   16.4029 C   0  0  0  0  0  0  0  0  0  0  0  0
   71.2418   56.3243   16.3537 N   0  0  0  0  0  0  0  0  0  0  0  0
   69.9769   56.3538   15.2333 S   0  0  0  0  0  0  0  0  0  0  0  0
   70.4758   56.8234   13.9182 O   0  0  0  0  0  0  0  0  0  0  0  0
   68.9250   57.2695   15.6567 O   0  0  0  0  0  0  0  0  0  0  0  0
   67.9883   50.5078   14.6982 N   0  0  0  0  0  0  0  0  0  0  0  0
   68.4292   51.8679   14.8542 C   0  0  0  0  0  0  0  0  0  0  0  0
   67.9459   52.7039   16.0228 C   0  0  0  0  0  0  0  0  0  0  0  0
   68.4253   54.1229   16.1535 C   0  0  0  0  0  0  0  0  0  0  0  0
   69.3597   54.6911   15.1026 C   0  0  0  0  0  0  0  0  0  0  0  0
   69.8411   53.8704   13.9468 C   0  0  0  0  0  0  0  0  0  0  0  0
   69.3557   52.4464   13.8277 C   0  0  0  0  0  0  0  0  0  0  0  0
   67.3797   50.1085   15.3611 H   0  0  0  0  0  0  0  0  0  0  0  0
   68.2952   49.9760   13.9285 H   0  0  0  0  0  0  0  0  0  0  0  0
   71.9130   55.0461   16.4287 C   0  0  0  0  0  0  0  0  0  0  0  0
   73.2998   55.1068   15.7921 C   0  0  0  0  0  0  0  0  0  0  0  0
   74.2785   54.2593   16.6064 C   0  0  0  0  0  0  0  0  0  0  0  0
   73.2302   54.6075   14.3474 C   0  0  0  0  0  0  0  0  0  0  0  0
   73.5221   53.1114   14.2566 C   0  0  0  0  0  0  0  0  0  0  0  0
   72.4926   59.1670   18.2436 C   0  0  0  0  0  0  0  0  0  0  0  0
   71.8289   59.8337   19.3253 N   0  0  0  0  0  0  0  0  0  0  0  0
   72.0375   61.2218   19.5920 C   0  0  0  0  0  0  0  0  0  0  0  0
   72.8499   61.8644   18.9822 O   0  0  0  0  0  0  0  0  0  0  0  0
   71.2137   59.3221   19.8989 H   0  0  0  0  0  0  0  0  0  0  0  0
   71.2030   61.7185   20.6028 O   0  0  0  0  0  0  0  0  0  0  0  0
   71.2662   61.1234   21.9698 C   0  0  0  0  0  0  0  0  0  0  0  0
   71.6802   62.0242   22.7938 C   0  0  0  0  0  0  0  0  0  0  0  0
   70.3684   62.9080   23.1654 O   0  0  0  0  0  0  0  0  0  0  0  0
   69.3616   62.0976   23.1020 C   0  0  0  0  0  0  0  0  0  0  0  0
   68.2834   62.6406   22.1221 O   0  0  0  0  0  0  0  0  0  0  0  0
   68.2958   61.8842   21.0463 C   0  0  0  0  0  0  0  0  0  0  0  0
   68.9670   60.4893   21.4772 C   0  0  0  0  0  0  0  0  0  0  0  0
   69.8435   60.7790   22.4615 C   0  0  0  0  0  0  0  0  0  0  0  0
   73.3887   58.1173   18.8920 C   0  0  0  0  0  0  0  0  0  0  0  0
   74.7638   58.7516   21.0648 C   0  0  0  0  0  0  0  0  0  0  0  0
   75.9294   59.4860   21.7045 C   0  0  0  0  0  0  0  0  0  0  0  0
   76.8610   60.3317   20.8466 C   0  0  0  0  0  0  0  0  0  0  0  0
   76.6367   60.4330   19.3483 C   0  0  0  0  0  0  0  0  0  0  0  0
   75.4767   59.6927   18.7070 C   0  0  0  0  0  0  0  0  0  0  0  0
   74.5479   58.8428   19.5614 C   0  0  0  0  0  0  0  0  0  0  0  0
  9 10  1  0  0  0
 10 11  2  0  0  0
 10 15  1  0  0  0
 11 12  1  0  0  0
 12 13  2  0  0  0
 13 14  1  0  0  0
 13  6  1  0  0  0
 14 15  2  0  0  0
  6  7  2  0  0  0
  6  8  2  0  0  0
  6  5  1  0  0  0
  5 18  1  0  0  0
  5  4  1  0  0  0
 18 19  1  0  0  0
 19 20  1  0  0  0
 19 21  1  0  0  0
 21 22  1  0  0  0
  4  1  1  0  0  0
  1  2  1  0  0  0
  1 23  1  0  0  0
 23 24  1  0  0  0
 23 37  1  0  0  0
 24 25  1  0  0  0
 25 26  2  0  0  0
 25 28  1  0  0  0
 28 29  1  0  0  0
 29 30  1  0  0  0
 29 36  1  0  0  0
 30 31  1  0  0  0
 31 32  1  0  0  0
 32 33  1  0  0  0
 32 36  1  0  0  0
 33 34  1  0  0  0
 34 35  1  0  0  0
 35 36  1  0  0  0
 37 43  1  0  0  0
 38 39  2  0  0  0
 38 43  1  0  0  0
 39 40  1  0  0  0
 40 41  2  0  0  0
 41 42  1  0  0  0
 42 43  2  0  0  0
  9 16  1  0  0  0
  9 17  1  0  0  0
  2  3  1  0  0  0
 24 27  1  0  0  0
M  END
> <minimizedAffinity>
-8.67521

$$$$
6DH7_K13_A_103


 43 46  0  0  0  0  0  0  0  0999 V2000
   69.0402   56.9269   17.7172 C   0  0  0  0  0  0  0  0  0  0  0  0
   68.0435   57.0951   18.6830 O   0  0  0  0  0  0  0  0  0  0  0  0
   67.2862   57.5559   18.2892 H   0  0  0  0  0  0  0  0  0  0  0  0
   69.4588   58.3046   17.2152 C   0  0  0  0  0  0  0  0  0  0  0  0
   70.4177   58.8956   18.1368 N   0  0  0  0  0  0  0  0  0  0  0  0
   69.7691   60.0702   19.1642 S   0  0  0  0  0  0  0  0  0  0  0  0
   68.9614   59.4240   20.2267 O   0  0  0  0  0  0  0  0  0  0  0  0
   68.8907   60.9757   18.4341 O   0  0  0  0  0  0  0  0  0  0  0  0
   74.5129   63.0499   21.8163 N   0  0  0  0  0  0  0  0  0  0  0  0
   73.4310   62.3589   21.1679 C   0  0  0  0  0  0  0  0  0  0  0  0
   73.5103   62.0180   19.6928 C   0  0  0  0  0  0  0  0  0  0  0  0
   72.3598   61.2971   19.0469 C   0  0  0  0  0  0  0  0  0  0  0  0
   71.1397   60.9500   19.8782 C   0  0  0  0  0  0  0  0  0  0  0  0
   71.0557   61.2833   21.3352 C   0  0  0  0  0  0  0  0  0  0  0  0
   72.2179   62.0042   21.9735 C   0  0  0  0  0  0  0  0  0  0  0  0
   75.3189   63.2922   21.3054 H   0  0  0  0  0  0  0  0  0  0  0  0
   74.4476   63.2807   22.7711 H   0  0  0  0  0  0  0  0  0  0  0  0
   71.3936   58.0451   18.7804 C   0  0  0  0  0  0  0  0  0  0  0  0
   72.5211   57.6667   17.8225 C   0  0  0  0  0  0  0  0  0  0  0  0
   72.4933   58.5896   16.6032 C   0  0  0  0  0  0  0  0  0  0  0  0
   73.8683   57.7667   18.5411 C   0  0  0  0  0  0  0  0  0  0  0  0
   73.7038   58.2710   19.9730 C   0  0  0  0  0  0  0  0  0  0  0  0
   68.5414   56.0792   16.5546 C   0  0  0  0  0  0  0  0  0  0  0  0
   69.5987   55.1709   16.2199 N   0  0  0  0  0  0  0  0  0  0  0  0
   70.4026   55.3527   15.0528 C   0  0  0  0  0  0  0  0  0  0  0  0
   70.1643   56.2179   14.2532 O   0  0  0  0  0  0  0  0  0  0  0  0
   69.7754   54.4023   16.8092 H   0  0  0  0  0  0  0  0  0  0  0  0
   71.4640   54.4408   14.9693 O   0  0  0  0  0  0  0  0  0  0  0  0
   72.8331   54.9315   14.6354 C   0  0  0  0  0  0  0  0  0  0  0  0
   73.4980   55.0778   15.7302 C   0  0  0  0  0  0  0  0  0  0  0  0
   74.0472   53.5954   16.1055 O   0  0  0  0  0  0  0  0  0  0  0  0
   74.2329   52.9870   14.9786 C   0  0  0  0  0  0  0  0  0  0  0  0
   73.4385   51.6510   14.9411 O   0  0  0  0  0  0  0  0  0  0  0  0
   72.4361   51.7989   14.1026 C   0  0  0  0  0  0  0  0  0  0  0  0
   72.8302   53.0165   13.1308 C   0  0  0  0  0  0  0  0  0  0  0  0
   73.6081   53.8450   13.8586 C   0  0  0  0  0  0  0  0  0  0  0  0
   67.3595   55.2063   16.9626 C   0  0  0  0  0  0  0  0  0  0  0  0
   66.4677   54.2658   14.6530 C   0  0  0  0  0  0  0  0  0  0  0  0
   66.3684   53.1205   13.6602 C   0  0  0  0  0  0  0  0  0  0  0  0
   67.0192   51.7802   13.9749 C   0  0  0  0  0  0  0  0  0  0  0  0
   67.7805   51.5878   15.2744 C   0  0  0  0  0  0  0  0  0  0  0  0
   67.8871   52.7347   16.2636 C   0  0  0  0  0  0  0  0  0  0  0  0
   67.2423   54.0764   15.9488 C   0  0  0  0  0  0  0  0  0  0  0  0
  9 10  1  0  0  0
 10 11  2  0  0  0
 10 15  1  0  0  0
 11 12  1  0  0  0
 12 13  2  0  0  0
 13 14  1  0  0  0
 13  6  1  0  0  0
 14 15  2  0  0  0
  6  7  2  0  0  0
  6  8  2  0  0  0
  6  5  1  0  0  0
  5 18  1  0  0  0
  5  4  1  0  0  0
 18 19  1  0  0  0
 19 20  1  0  0  0
 19 21  1  0  0  0
 21 22  1  0  0  0
  4  1  1  0  0  0
  1  2  1  0  0  0
  1 23  1  0  0  0
 23 24  1  0  0  0
 23 37  1  0  0  0
 24 25  1  0  0  0
 25 26  2  0  0  0
 25 28  1  0  0  0
 28 29  1  0  0  0
 29 30  1  0  0  0
 29 36  1  0  0  0
 30 31  1  0  0  0
 31 32  1  0  0  0
 32 33  1  0  0  0
 32 36  1  0  0  0
 33 34  1  0  0  0
 34 35  1  0  0  0
 35 36  1  0  0  0
 37 43  1  0  0  0
 38 39  2  0  0  0
 38 43  1  0  0  0
 39 40  1  0  0  0
 40 41  2  0  0  0
 41 42  1  0  0  0
 42 43  2  0  0  0
  9 16  1  0  0  0
  9 17  1  0  0  0
  2  3  1  0  0  0
 24 27  1  0  0  0
M  END
> <minimizedAffinity>
-8.40507

$$$$
6DH7_K13_A_103


 43 46  0  0  0  0  0  0  0  0999 V2000
   71.5173   55.7503   18.1113 C   0  0  0  0  0  0  0  0  0  0  0  0
   71.6202   55.0339   19.3074 O   0  0  0  0  0  0  0  0  0  0  0  0
   72.0419   54.1773   19.1360 H   0  0  0  0  0  0  0  0  0  0  0  0
   70.6811   54.9325   17.1330 C   0  0  0  0  0  0  0  0  0  0  0  0
   69.3366   55.4839   17.0516 N   0  0  0  0  0  0  0  0  0  0  0  0
   69.2390   56.9781   16.2680 S   0  0  0  0  0  0  0  0  0  0  0  0
   68.0271   57.0245   15.4147 O   0  0  0  0  0  0  0  0  0  0  0  0
   70.3932   57.1914   15.4040 O   0  0  0  0  0  0  0  0  0  0  0  0
   68.8305   61.4259   20.5654 N   0  0  0  0  0  0  0  0  0  0  0  0
   68.9264   60.3677   19.5959 C   0  0  0  0  0  0  0  0  0  0  0  0
   69.0254   58.9223   20.0422 C   0  0  0  0  0  0  0  0  0  0  0  0
   69.1267   57.8419   19.0015 C   0  0  0  0  0  0  0  0  0  0  0  0
   69.1518   58.2239   17.5340 C   0  0  0  0  0  0  0  0  0  0  0  0
   69.0538   59.6493   17.0870 C   0  0  0  0  0  0  0  0  0  0  0  0
   68.9494   60.7250   18.1404 C   0  0  0  0  0  0  0  0  0  0  0  0
   68.8140   61.2129   21.5264 H   0  0  0  0  0  0  0  0  0  0  0  0
   68.7814   62.3630   20.2679 H   0  0  0  0  0  0  0  0  0  0  0  0
   68.2305   54.6035   16.7497 C   0  0  0  0  0  0  0  0  0  0  0  0
   68.6858   53.3972   15.9314 C   0  0  0  0  0  0  0  0  0  0  0  0
   68.0048   52.1320   16.4555 C   0  0  0  0  0  0  0  0  0  0  0  0
   68.3505   53.6151   14.4545 C   0  0  0  0  0  0  0  0  0  0  0  0
   66.8506   53.4915   14.1959 C   0  0  0  0  0  0  0  0  0  0  0  0
   72.8916   56.0265   17.5163 C   0  0  0  0  0  0  0  0  0  0  0  0
   73.0170   55.1926   16.3571 N   0  0  0  0  0  0  0  0  0  0  0  0
   73.9665   54.1265   16.2990 C   0  0  0  0  0  0  0  0  0  0  0  0
   74.7642   53.9458   17.1797 O   0  0  0  0  0  0  0  0  0  0  0  0
   72.4340   55.3587   15.5813 H   0  0  0  0  0  0  0  0  0  0  0  0
   73.8465   53.3465   15.1405 O   0  0  0  0  0  0  0  0  0  0  0  0
   72.8669   53.7392   14.0855 C   0  0  0  0  0  0  0  0  0  0  0  0
   73.5127   54.0182   13.0052 C   0  0  0  0  0  0  0  0  0  0  0  0
   73.8077   52.5872   12.2943 O   0  0  0  0  0  0  0  0  0  0  0  0
   72.8169   51.8184   12.6135 C   0  0  0  0  0  0  0  0  0  0  0  0
   73.3309   50.5177   13.2927 O   0  0  0  0  0  0  0  0  0  0  0  0
   73.0209   50.5774   14.5694 C   0  0  0  0  0  0  0  0  0  0  0  0
   71.8136   51.6302   14.6969 C   0  0  0  0  0  0  0  0  0  0  0  0
   71.9880   52.5280   13.7046 C   0  0  0  0  0  0  0  0  0  0  0  0
   73.0062   57.4601   17.0092 C   0  0  0  0  0  0  0  0  0  0  0  0
   74.6813   58.0754   18.9661 C   0  0  0  0  0  0  0  0  0  0  0  0
   75.0505   58.9715   20.1357 C   0  0  0  0  0  0  0  0  0  0  0  0
   74.1290   60.1139   20.5415 C   0  0  0  0  0  0  0  0  0  0  0  0
   72.8457   60.3698   19.7712 C   0  0  0  0  0  0  0  0  0  0  0  0
   72.4800   59.4795   18.5970 C   0  0  0  0  0  0  0  0  0  0  0  0
   73.4020   58.3409   18.1863 C   0  0  0  0  0  0  0  0  0  0  0  0
  9 10  1  0  0  0
 10 11  2  0  0  0
 10 15  1  0  0  0
 11 12  1  0  0  0
 12 13  2  0  0  0
 13 14  1  0  0  0
 13  6  1  0  0  0
 14 15  2  0  0  0
  6  7  2  0  0  0
  6  8  2  0  0  0
  6  5  1  0  0  0
  5 18  1  0  0  0
  5  4  1  0  0  0
 18 19  1  0  0  0
 19 20  1  0  0  0
 19 21  1  0  0  0
 21 22  1  0  0  0
  4  1  1  0  0  0
  1  2  1  0  0  0
  1 23  1  0  0  0
 23 24  1  0  0  0
 23 37  1  0  0  0
 24 25  1  0  0  0
 25 26  2  0  0  0
 25 28  1  0  0  0
 28 29  1  0  0  0
 29 30  1  0  0  0
 29 36  1  0  0  0
 30 31  1  0  0  0
 31 32  1  0  0  0
 32 33  1  0  0  0
 32 36  1  0  0  0
 33 34  1  0  0  0
 34 35  1  0  0  0
 35 36  1  0  0  0
 37 43  1  0  0  0
 38 39  2  0  0  0
 38 43  1  0  0  0
 39 40  1  0  0  0
 40 41  2  0  0  0
 41 42  1  0  0  0
 42 43  2  0  0  0
  9 16  1  0  0  0
  9 17  1  0  0  0
  2  3  1  0  0  0
 24 27  1  0  0  0
M  END
> <minimizedAffinity>
-8.33405

$$$$
