4A6S_GS9_A_1123


 26 28  0  0  0  0  0  0  0  0999 V2000
   15.1558   13.4619   65.9886 C   0  0  0  0  0  0  0  0  0  0  0  0
   14.7944   12.7418   67.1849 O   0  0  0  0  0  0  0  0  0  0  0  0
   14.0327   13.1573   65.0439 C   0  0  0  0  0  0  0  0  0  0  0  0
   14.3178   13.7127   63.7711 O   0  0  0  0  0  0  0  0  0  0  0  0
   12.7768   13.8233   65.6267 C   0  0  0  0  0  0  0  0  0  0  0  0
   11.7561   13.5897   64.6678 O   0  0  0  0  0  0  0  0  0  0  0  0
   12.4248   13.2155   66.9869 C   0  0  0  0  0  0  0  0  0  0  0  0
   11.9603   11.8743   66.7766 O   0  0  0  0  0  0  0  0  0  0  0  0
   13.6584   13.2357   67.9118 C   0  0  0  0  0  0  0  0  0  0  0  0
   14.4445   14.6705   63.8573 H   0  0  0  0  0  0  0  0  0  0  0  0
   11.6539   12.6349   64.5304 H   0  0  0  0  0  0  0  0  0  0  0  0
   12.6572   11.3546   66.3464 H   0  0  0  0  0  0  0  0  0  0  0  0
   12.2916   12.5480   69.7747 O   0  0  0  0  0  0  0  0  0  0  0  0
   13.5704   12.3146   69.1248 C   0  0  0  0  0  0  0  0  0  0  0  0
   12.2135   11.9715   70.5509 H   0  0  0  0  0  0  0  0  0  0  0  0
   16.7616   12.8354   65.3231 S   0  0  0  0  0  0  0  0  0  0  0  0
   18.9204   13.5067   66.5752 C   0  0  0  0  0  0  0  0  0  0  0  0
   19.8818   14.4204   67.0184 C   0  0  0  0  0  0  0  0  0  0  0  0
   17.8236   13.9433   65.8070 C   0  0  0  0  0  0  0  0  0  0  0  0
   17.7026   15.2938   65.4189 C   0  0  0  0  0  0  0  0  0  0  0  0
   18.6557   16.2215   65.8173 C   0  0  0  0  0  0  0  0  0  0  0  0
   19.7921   15.7830   66.6602 C   0  0  0  0  0  0  0  0  0  0  0  0
   20.7838   16.7042   67.0762 C   0  0  0  0  0  0  0  0  0  0  0  0
   20.6455   18.0380   66.6721 C   0  0  0  0  0  0  0  0  0  0  0  0
   19.5485   18.4531   65.9019 C   0  0  0  0  0  0  0  0  0  0  0  0
   18.5526   17.5665   65.4482 C   0  0  0  0  0  0  0  0  0  0  0  0
  1  2  1  0  0  0
  1 16  1  0  0  0
  1  3  1  0  0  0
  2  9  1  0  0  0
 16 19  1  0  0  0
  3  4  1  0  0  0
  3  5  1  0  0  0
  5  6  1  0  0  0
  5  7  1  0  0  0
  7  8  1  0  0  0
  7  9  1  0  0  0
 17 18  2  0  0  0
 17 19  1  0  0  0
  9 14  1  0  0  0
 18 22  1  0  0  0
 23 22  1  0  0  0
 13 14  1  0  0  0
 19 20  2  0  0  0
 20 21  1  0  0  0
 21 26  1  0  0  0
 21 22  2  0  0  0
 26 25  2  0  0  0
 25 24  1  0  0  0
 24 23  2  0  0  0
  4 10  1  0  0  0
  6 11  1  0  0  0
  8 12  1  0  0  0
 13 15  1  0  0  0
M  END
> <minimizedAffinity>
-6.86118

$$$$
4A6S_GS9_A_1123


 26 28  0  0  0  0  0  0  0  0999 V2000
   15.7468   14.7330   66.2172 C   0  0  0  0  0  0  0  0  0  0  0  0
   14.8101   13.8337   66.8450 O   0  0  0  0  0  0  0  0  0  0  0  0
   15.6277   14.4014   64.7603 C   0  0  0  0  0  0  0  0  0  0  0  0
   16.5900   15.1380   64.0247 O   0  0  0  0  0  0  0  0  0  0  0  0
   14.2152   14.8244   64.3286 C   0  0  0  0  0  0  0  0  0  0  0  0
   14.1668   14.5777   62.9312 O   0  0  0  0  0  0  0  0  0  0  0  0
   13.1553   14.0172   65.0826 C   0  0  0  0  0  0  0  0  0  0  0  0
   13.1995   12.6623   64.6124 O   0  0  0  0  0  0  0  0  0  0  0  0
   13.4175   14.0855   66.6005 C   0  0  0  0  0  0  0  0  0  0  0  0
   16.4540   16.0868   64.1737 H   0  0  0  0  0  0  0  0  0  0  0  0
   14.3542   13.6412   62.7615 H   0  0  0  0  0  0  0  0  0  0  0  0
   14.0815   12.2926   64.7741 H   0  0  0  0  0  0  0  0  0  0  0  0
   11.4926   12.6389   66.7176 O   0  0  0  0  0  0  0  0  0  0  0  0
   12.7017   13.0217   67.4273 C   0  0  0  0  0  0  0  0  0  0  0  0
   11.0199   11.9615   67.2261 H   0  0  0  0  0  0  0  0  0  0  0  0
   17.4595   14.4041   66.8275 S   0  0  0  0  0  0  0  0  0  0  0  0
   17.0697   11.9114   67.3871 C   0  0  0  0  0  0  0  0  0  0  0  0
   17.2112   10.5380   67.1648 C   0  0  0  0  0  0  0  0  0  0  0  0
   17.6725   12.8398   66.5162 C   0  0  0  0  0  0  0  0  0  0  0  0
   18.3775   12.4089   65.3733 C   0  0  0  0  0  0  0  0  0  0  0  0
   18.5116   11.0528   65.1071 C   0  0  0  0  0  0  0  0  0  0  0  0
   17.9177   10.0651   66.0377 C   0  0  0  0  0  0  0  0  0  0  0  0
   18.0314    8.6757   65.7894 C   0  0  0  0  0  0  0  0  0  0  0  0
   18.7301    8.2729   64.6444 C   0  0  0  0  0  0  0  0  0  0  0  0
   19.3190    9.2130   63.7852 C   0  0  0  0  0  0  0  0  0  0  0  0
   19.2110   10.6034   63.9825 C   0  0  0  0  0  0  0  0  0  0  0  0
  1  2  1  0  0  0
  1 16  1  0  0  0
  1  3  1  0  0  0
  2  9  1  0  0  0
 16 19  1  0  0  0
  3  4  1  0  0  0
  3  5  1  0  0  0
  5  6  1  0  0  0
  5  7  1  0  0  0
  7  8  1  0  0  0
  7  9  1  0  0  0
 17 18  2  0  0  0
 17 19  1  0  0  0
  9 14  1  0  0  0
 18 22  1  0  0  0
 23 22  1  0  0  0
 13 14  1  0  0  0
 19 20  2  0  0  0
 20 21  1  0  0  0
 21 26  1  0  0  0
 21 22  2  0  0  0
 26 25  2  0  0  0
 25 24  1  0  0  0
 24 23  2  0  0  0
  4 10  1  0  0  0
  6 11  1  0  0  0
  8 12  1  0  0  0
 13 15  1  0  0  0
M  END
> <minimizedAffinity>
-6.25563

$$$$
4A6S_GS9_A_1123


 26 28  0  0  0  0  0  0  0  0999 V2000
   13.8269   13.8796   67.7855 C   0  0  0  0  0  0  0  0  0  0  0  0
   14.8568   14.6635   67.1491 O   0  0  0  0  0  0  0  0  0  0  0  0
   12.6959   13.9234   66.8029 C   0  0  0  0  0  0  0  0  0  0  0  0
   11.5591   13.2829   67.3571 O   0  0  0  0  0  0  0  0  0  0  0  0
   13.1657   13.1533   65.5592 C   0  0  0  0  0  0  0  0  0  0  0  0
   12.0448   13.1401   64.6878 O   0  0  0  0  0  0  0  0  0  0  0  0
   14.3719   13.8452   64.9189 C   0  0  0  0  0  0  0  0  0  0  0  0
   13.9286   15.0787   64.3354 O   0  0  0  0  0  0  0  0  0  0  0  0
   15.4640   14.0947   65.9785 C   0  0  0  0  0  0  0  0  0  0  0  0
   11.7826   12.3666   67.5836 H   0  0  0  0  0  0  0  0  0  0  0  0
   11.7752   14.0515   64.4941 H   0  0  0  0  0  0  0  0  0  0  0  0
   13.5443   15.6428   65.0246 H   0  0  0  0  0  0  0  0  0  0  0  0
   16.6195   15.1281   64.1323 O   0  0  0  0  0  0  0  0  0  0  0  0
   16.5254   15.1165   65.5825 C   0  0  0  0  0  0  0  0  0  0  0  0
   17.2902   15.7724   63.8570 H   0  0  0  0  0  0  0  0  0  0  0  0
   13.3327   14.6510   69.3901 S   0  0  0  0  0  0  0  0  0  0  0  0
   15.2755   16.3139   69.7630 C   0  0  0  0  0  0  0  0  0  0  0  0
   15.8772   17.5749   69.7038 C   0  0  0  0  0  0  0  0  0  0  0  0
   13.9577   16.1311   69.3005 C   0  0  0  0  0  0  0  0  0  0  0  0
   13.2410   17.1957   68.7157 C   0  0  0  0  0  0  0  0  0  0  0  0
   13.8201   18.4535   68.6147 C   0  0  0  0  0  0  0  0  0  0  0  0
   15.1902   18.6691   69.1349 C   0  0  0  0  0  0  0  0  0  0  0  0
   15.8102   19.9386   69.0398 C   0  0  0  0  0  0  0  0  0  0  0  0
   15.0809   20.9779   68.4486 C   0  0  0  0  0  0  0  0  0  0  0  0
   13.7709   20.7751   67.9885 C   0  0  0  0  0  0  0  0  0  0  0  0
   13.1255   19.5244   68.0432 C   0  0  0  0  0  0  0  0  0  0  0  0
  1  2  1  0  0  0
  1 16  1  0  0  0
  1  3  1  0  0  0
  2  9  1  0  0  0
 16 19  1  0  0  0
  3  4  1  0  0  0
  3  5  1  0  0  0
  5  6  1  0  0  0
  5  7  1  0  0  0
  7  8  1  0  0  0
  7  9  1  0  0  0
 17 18  2  0  0  0
 17 19  1  0  0  0
  9 14  1  0  0  0
 18 22  1  0  0  0
 23 22  1  0  0  0
 13 14  1  0  0  0
 19 20  2  0  0  0
 20 21  1  0  0  0
 21 26  1  0  0  0
 21 22  2  0  0  0
 26 25  2  0  0  0
 25 24  1  0  0  0
 24 23  2  0  0  0
  4 10  1  0  0  0
  6 11  1  0  0  0
  8 12  1  0  0  0
 13 15  1  0  0  0
M  END
> <minimizedAffinity>
-6.23529

$$$$
4A6S_GS9_A_1123


 26 28  0  0  0  0  0  0  0  0999 V2000
   13.9701   12.3714   67.1721 C   0  0  0  0  0  0  0  0  0  0  0  0
   14.9952   13.3772   67.0393 O   0  0  0  0  0  0  0  0  0  0  0  0
   12.7567   13.0286   66.5870 C   0  0  0  0  0  0  0  0  0  0  0  0
   11.6295   12.1864   66.7597 O   0  0  0  0  0  0  0  0  0  0  0  0
   13.0376   13.2120   65.0876 C   0  0  0  0  0  0  0  0  0  0  0  0
   11.8403   13.7549   64.5513 O   0  0  0  0  0  0  0  0  0  0  0  0
   14.2295   14.1481   64.8718 C   0  0  0  0  0  0  0  0  0  0  0  0
   13.8363   15.4755   65.2489 O   0  0  0  0  0  0  0  0  0  0  0  0
   15.4363   13.6704   65.7043 C   0  0  0  0  0  0  0  0  0  0  0  0
   11.7966   11.3312   66.3336 H   0  0  0  0  0  0  0  0  0  0  0  0
   11.6302   14.5858   65.0055 H   0  0  0  0  0  0  0  0  0  0  0  0
   13.5692   15.4809   66.1814 H   0  0  0  0  0  0  0  0  0  0  0  0
   16.7091   15.4240   64.6476 O   0  0  0  0  0  0  0  0  0  0  0  0
   16.5359   14.7094   65.9013 C   0  0  0  0  0  0  0  0  0  0  0  0
   17.4053   16.0916   64.7495 H   0  0  0  0  0  0  0  0  0  0  0  0
   13.7001   11.9618   68.9535 S   0  0  0  0  0  0  0  0  0  0  0  0
   14.8329   14.0345   70.0019 C   0  0  0  0  0  0  0  0  0  0  0  0
   14.8294   15.2935   70.6106 C   0  0  0  0  0  0  0  0  0  0  0  0
   13.6201   13.4053   69.6602 C   0  0  0  0  0  0  0  0  0  0  0  0
   12.3844   14.0525   69.8679 C   0  0  0  0  0  0  0  0  0  0  0  0
   12.3472   15.3156   70.4432 C   0  0  0  0  0  0  0  0  0  0  0  0
   13.6133   15.9711   70.8451 C   0  0  0  0  0  0  0  0  0  0  0  0
   13.6082   17.2618   71.4275 C   0  0  0  0  0  0  0  0  0  0  0  0
   12.3694   17.8869   71.6170 C   0  0  0  0  0  0  0  0  0  0  0  0
   11.1717   17.2463   71.2649 C   0  0  0  0  0  0  0  0  0  0  0  0
   11.1328   15.9734   70.6630 C   0  0  0  0  0  0  0  0  0  0  0  0
  1  2  1  0  0  0
  1 16  1  0  0  0
  1  3  1  0  0  0
  2  9  1  0  0  0
 16 19  1  0  0  0
  3  4  1  0  0  0
  3  5  1  0  0  0
  5  6  1  0  0  0
  5  7  1  0  0  0
  7  8  1  0  0  0
  7  9  1  0  0  0
 17 18  2  0  0  0
 17 19  1  0  0  0
  9 14  1  0  0  0
 18 22  1  0  0  0
 23 22  1  0  0  0
 13 14  1  0  0  0
 19 20  2  0  0  0
 20 21  1  0  0  0
 21 26  1  0  0  0
 21 22  2  0  0  0
 26 25  2  0  0  0
 25 24  1  0  0  0
 24 23  2  0  0  0
  4 10  1  0  0  0
  6 11  1  0  0  0
  8 12  1  0  0  0
 13 15  1  0  0  0
M  END
> <minimizedAffinity>
-6.23315

$$$$
4A6S_GS9_A_1123


 26 28  0  0  0  0  0  0  0  0999 V2000
   14.1178   13.5467   67.4979 C   0  0  0  0  0  0  0  0  0  0  0  0
   15.2113   14.1308   66.7609 O   0  0  0  0  0  0  0  0  0  0  0  0
   12.9069   13.9720   66.7236 C   0  0  0  0  0  0  0  0  0  0  0  0
   11.7357   13.5612   67.4086 O   0  0  0  0  0  0  0  0  0  0  0  0
   12.9842   13.2611   65.3637 C   0  0  0  0  0  0  0  0  0  0  0  0
   11.7844   13.6161   64.6928 O   0  0  0  0  0  0  0  0  0  0  0  0
   14.2225   13.7149   64.5865 C   0  0  0  0  0  0  0  0  0  0  0  0
   14.0281   15.0774   64.1812 O   0  0  0  0  0  0  0  0  0  0  0  0
   15.4815   13.5728   65.4653 C   0  0  0  0  0  0  0  0  0  0  0  0
   11.7495   12.5982   67.5238 H   0  0  0  0  0  0  0  0  0  0  0  0
   11.7298   14.5816   64.6170 H   0  0  0  0  0  0  0  0  0  0  0  0
   13.9014   15.6333   64.9660 H   0  0  0  0  0  0  0  0  0  0  0  0
   16.7005   15.6454   65.6386 O   0  0  0  0  0  0  0  0  0  0  0  0
   16.6997   14.3510   64.9777 C   0  0  0  0  0  0  0  0  0  0  0  0
   17.4684   16.1589   65.3429 H   0  0  0  0  0  0  0  0  0  0  0  0
   14.0688   14.2230   69.2167 S   0  0  0  0  0  0  0  0  0  0  0  0
   13.1273   16.6158   68.9590 C   0  0  0  0  0  0  0  0  0  0  0  0
   13.2436   17.9982   68.7830 C   0  0  0  0  0  0  0  0  0  0  0  0
   14.2774   15.8039   69.0016 C   0  0  0  0  0  0  0  0  0  0  0  0
   15.5670   16.3702   68.9285 C   0  0  0  0  0  0  0  0  0  0  0  0
   15.7184   17.7427   68.7831 C   0  0  0  0  0  0  0  0  0  0  0  0
   14.5161   18.6034   68.6954 C   0  0  0  0  0  0  0  0  0  0  0  0
   14.6383   20.0071   68.5543 C   0  0  0  0  0  0  0  0  0  0  0  0
   15.9293   20.5463   68.4912 C   0  0  0  0  0  0  0  0  0  0  0  0
   17.0635   19.7217   68.5410 C   0  0  0  0  0  0  0  0  0  0  0  0
   16.9876   18.3246   68.7033 C   0  0  0  0  0  0  0  0  0  0  0  0
  1  2  1  0  0  0
  1 16  1  0  0  0
  1  3  1  0  0  0
  2  9  1  0  0  0
 16 19  1  0  0  0
  3  4  1  0  0  0
  3  5  1  0  0  0
  5  6  1  0  0  0
  5  7  1  0  0  0
  7  8  1  0  0  0
  7  9  1  0  0  0
 17 18  2  0  0  0
 17 19  1  0  0  0
  9 14  1  0  0  0
 18 22  1  0  0  0
 23 22  1  0  0  0
 13 14  1  0  0  0
 19 20  2  0  0  0
 20 21  1  0  0  0
 21 26  1  0  0  0
 21 22  2  0  0  0
 26 25  2  0  0  0
 25 24  1  0  0  0
 24 23  2  0  0  0
  4 10  1  0  0  0
  6 11  1  0  0  0
  8 12  1  0  0  0
 13 15  1  0  0  0
M  END
> <minimizedAffinity>
-6.17497

$$$$
4A6S_GS9_A_1123


 26 28  0  0  0  0  0  0  0  0999 V2000
   15.1655   13.1730   65.8696 C   0  0  0  0  0  0  0  0  0  0  0  0
   14.7689   12.4418   67.0479 O   0  0  0  0  0  0  0  0  0  0  0  0
   13.9997   13.0027   64.9430 C   0  0  0  0  0  0  0  0  0  0  0  0
   14.3042   13.5795   63.6843 O   0  0  0  0  0  0  0  0  0  0  0  0
   12.8197   13.7519   65.5809 C   0  0  0  0  0  0  0  0  0  0  0  0
   11.7618   13.6440   64.6401 O   0  0  0  0  0  0  0  0  0  0  0  0
   12.4459   13.1255   66.9267 C   0  0  0  0  0  0  0  0  0  0  0  0
   11.8618   11.8384   66.6799 O   0  0  0  0  0  0  0  0  0  0  0  0
   13.6965   13.0038   67.8204 C   0  0  0  0  0  0  0  0  0  0  0  0
   14.5159   14.5188   63.8018 H   0  0  0  0  0  0  0  0  0  0  0  0
   11.5738   12.7076   64.4710 H   0  0  0  0  0  0  0  0  0  0  0  0
   12.5011   11.2772   66.2138 H   0  0  0  0  0  0  0  0  0  0  0  0
   12.8943   12.7623   70.0808 O   0  0  0  0  0  0  0  0  0  0  0  0
   13.5551   12.0483   69.0012 C   0  0  0  0  0  0  0  0  0  0  0  0
   12.7935   12.1726   70.8444 H   0  0  0  0  0  0  0  0  0  0  0  0
   16.6956   12.4360   65.1418 S   0  0  0  0  0  0  0  0  0  0  0  0
   17.6509   14.7215   65.8785 C   0  0  0  0  0  0  0  0  0  0  0  0
   18.6348   15.5551   66.4194 C   0  0  0  0  0  0  0  0  0  0  0  0
   17.8755   13.3357   65.7645 C   0  0  0  0  0  0  0  0  0  0  0  0
   19.0663   12.7528   66.2454 C   0  0  0  0  0  0  0  0  0  0  0  0
   20.0513   13.5484   66.8149 C   0  0  0  0  0  0  0  0  0  0  0  0
   19.8450   15.0126   66.9032 C   0  0  0  0  0  0  0  0  0  0  0  0
   20.8280   15.8493   67.4853 C   0  0  0  0  0  0  0  0  0  0  0  0
   21.9986   15.2461   67.9620 C   0  0  0  0  0  0  0  0  0  0  0  0
   22.2020   13.8627   67.8446 C   0  0  0  0  0  0  0  0  0  0  0  0
   21.2418   12.9920   67.2934 C   0  0  0  0  0  0  0  0  0  0  0  0
  1  2  1  0  0  0
  1 16  1  0  0  0
  1  3  1  0  0  0
  2  9  1  0  0  0
 16 19  1  0  0  0
  3  4  1  0  0  0
  3  5  1  0  0  0
  5  6  1  0  0  0
  5  7  1  0  0  0
  7  8  1  0  0  0
  7  9  1  0  0  0
 17 18  2  0  0  0
 17 19  1  0  0  0
  9 14  1  0  0  0
 18 22  1  0  0  0
 23 22  1  0  0  0
 13 14  1  0  0  0
 19 20  2  0  0  0
 20 21  1  0  0  0
 21 26  1  0  0  0
 21 22  2  0  0  0
 26 25  2  0  0  0
 25 24  1  0  0  0
 24 23  2  0  0  0
  4 10  1  0  0  0
  6 11  1  0  0  0
  8 12  1  0  0  0
 13 15  1  0  0  0
M  END
> <minimizedAffinity>
-5.98411

$$$$
4A6S_GS9_A_1123


 26 28  0  0  0  0  0  0  0  0999 V2000
   14.0715   14.1966   65.8959 C   0  0  0  0  0  0  0  0  0  0  0  0
   14.8436   14.0824   67.1088 O   0  0  0  0  0  0  0  0  0  0  0  0
   13.3621   12.8792   65.8071 C   0  0  0  0  0  0  0  0  0  0  0  0
   12.6473   12.8052   64.5851 O   0  0  0  0  0  0  0  0  0  0  0  0
   12.3759   12.8322   66.9843 C   0  0  0  0  0  0  0  0  0  0  0  0
   11.6631   11.6152   66.8205 O   0  0  0  0  0  0  0  0  0  0  0  0
   13.1249   12.8738   68.3187 C   0  0  0  0  0  0  0  0  0  0  0  0
   13.8216   11.6306   68.4854 O   0  0  0  0  0  0  0  0  0  0  0  0
   14.1043   14.0646   68.3399 C   0  0  0  0  0  0  0  0  0  0  0  0
   12.0160   13.5398   64.5348 H   0  0  0  0  0  0  0  0  0  0  0  0
   12.2876   10.8730   66.8149 H   0  0  0  0  0  0  0  0  0  0  0  0
   14.4460   11.5092   67.7530 H   0  0  0  0  0  0  0  0  0  0  0  0
   14.5731   13.4865   70.6328 O   0  0  0  0  0  0  0  0  0  0  0  0
   15.1842   13.9926   69.4152 C   0  0  0  0  0  0  0  0  0  0  0  0
   15.2430   13.4321   71.3323 H   0  0  0  0  0  0  0  0  0  0  0  0
   15.1888   14.4396   64.4445 S   0  0  0  0  0  0  0  0  0  0  0  0
   17.4742   14.4031   65.6505 C   0  0  0  0  0  0  0  0  0  0  0  0
   18.6631   13.7972   66.0689 C   0  0  0  0  0  0  0  0  0  0  0  0
   16.5393   13.6821   64.8824 C   0  0  0  0  0  0  0  0  0  0  0  0
   16.7519   12.3232   64.5708 C   0  0  0  0  0  0  0  0  0  0  0  0
   17.9083   11.6832   64.9961 C   0  0  0  0  0  0  0  0  0  0  0  0
   18.9188   12.4416   65.7693 C   0  0  0  0  0  0  0  0  0  0  0  0
   20.1046   11.8146   66.2230 C   0  0  0  0  0  0  0  0  0  0  0  0
   20.2896   10.4628   65.9070 C   0  0  0  0  0  0  0  0  0  0  0  0
   19.3440    9.7594   65.1454 C   0  0  0  0  0  0  0  0  0  0  0  0
   18.1417   10.3378   64.6938 C   0  0  0  0  0  0  0  0  0  0  0  0
  1  2  1  0  0  0
  1 16  1  0  0  0
  1  3  1  0  0  0
  2  9  1  0  0  0
 16 19  1  0  0  0
  3  4  1  0  0  0
  3  5  1  0  0  0
  5  6  1  0  0  0
  5  7  1  0  0  0
  7  8  1  0  0  0
  7  9  1  0  0  0
 17 18  2  0  0  0
 17 19  1  0  0  0
  9 14  1  0  0  0
 18 22  1  0  0  0
 23 22  1  0  0  0
 13 14  1  0  0  0
 19 20  2  0  0  0
 20 21  1  0  0  0
 21 26  1  0  0  0
 21 22  2  0  0  0
 26 25  2  0  0  0
 25 24  1  0  0  0
 24 23  2  0  0  0
  4 10  1  0  0  0
  6 11  1  0  0  0
  8 12  1  0  0  0
 13 15  1  0  0  0
M  END
> <minimizedAffinity>
-5.97113

$$$$
4A6S_GS9_A_1123


 26 28  0  0  0  0  0  0  0  0999 V2000
   13.8773   14.6947   65.0700 C   0  0  0  0  0  0  0  0  0  0  0  0
   14.5501   15.2605   66.2134 O   0  0  0  0  0  0  0  0  0  0  0  0
   13.2098   13.4731   65.6257 C   0  0  0  0  0  0  0  0  0  0  0  0
   12.5994   12.7446   64.5738 O   0  0  0  0  0  0  0  0  0  0  0  0
   12.1320   13.9684   66.6022 C   0  0  0  0  0  0  0  0  0  0  0  0
   11.4648   12.7948   67.0419 O   0  0  0  0  0  0  0  0  0  0  0  0
   12.7681   14.7283   67.7689 C   0  0  0  0  0  0  0  0  0  0  0  0
   13.4788   13.7882   68.5873 O   0  0  0  0  0  0  0  0  0  0  0  0
   13.7132   15.8237   67.2357 C   0  0  0  0  0  0  0  0  0  0  0  0
   11.9566   13.3108   64.1188 H   0  0  0  0  0  0  0  0  0  0  0  0
   12.1054   12.1932   67.4525 H   0  0  0  0  0  0  0  0  0  0  0  0
   14.1637   13.3512   68.0574 H   0  0  0  0  0  0  0  0  0  0  0  0
   13.9889   16.5888   69.5051 O   0  0  0  0  0  0  0  0  0  0  0  0
   14.7029   16.3752   68.2574 C   0  0  0  0  0  0  0  0  0  0  0  0
   14.6001   16.9402   70.1713 H   0  0  0  0  0  0  0  0  0  0  0  0
   15.1035   14.2369   63.7657 S   0  0  0  0  0  0  0  0  0  0  0  0
   16.4965   12.2116   64.5634 C   0  0  0  0  0  0  0  0  0  0  0  0
   17.5440   11.6069   65.2652 C   0  0  0  0  0  0  0  0  0  0  0  0
   16.3241   13.6089   64.6053 C   0  0  0  0  0  0  0  0  0  0  0  0
   17.2339   14.4304   65.3026 C   0  0  0  0  0  0  0  0  0  0  0  0
   18.3020   13.8644   65.9857 C   0  0  0  0  0  0  0  0  0  0  0  0
   18.4709   12.3928   65.9838 C   0  0  0  0  0  0  0  0  0  0  0  0
   19.5542   11.7867   66.6651 C   0  0  0  0  0  0  0  0  0  0  0  0
   20.4481   12.6240   67.3442 C   0  0  0  0  0  0  0  0  0  0  0  0
   20.2630   14.0147   67.3699 C   0  0  0  0  0  0  0  0  0  0  0  0
   19.2130   14.6599   66.6879 C   0  0  0  0  0  0  0  0  0  0  0  0
  1  2  1  0  0  0
  1 16  1  0  0  0
  1  3  1  0  0  0
  2  9  1  0  0  0
 16 19  1  0  0  0
  3  4  1  0  0  0
  3  5  1  0  0  0
  5  6  1  0  0  0
  5  7  1  0  0  0
  7  8  1  0  0  0
  7  9  1  0  0  0
 17 18  2  0  0  0
 17 19  1  0  0  0
  9 14  1  0  0  0
 18 22  1  0  0  0
 23 22  1  0  0  0
 13 14  1  0  0  0
 19 20  2  0  0  0
 20 21  1  0  0  0
 21 26  1  0  0  0
 21 22  2  0  0  0
 26 25  2  0  0  0
 25 24  1  0  0  0
 24 23  2  0  0  0
  4 10  1  0  0  0
  6 11  1  0  0  0
  8 12  1  0  0  0
 13 15  1  0  0  0
M  END
> <minimizedAffinity>
-5.93386

$$$$
4A6S_GS9_A_1123


 26 28  0  0  0  0  0  0  0  0999 V2000
   14.6296   13.9648   67.2739 C   0  0  0  0  0  0  0  0  0  0  0  0
   14.7002   14.5022   65.9373 O   0  0  0  0  0  0  0  0  0  0  0  0
   13.1790   13.6257   67.4387 C   0  0  0  0  0  0  0  0  0  0  0  0
   12.9401   13.1902   68.7665 O   0  0  0  0  0  0  0  0  0  0  0  0
   12.8829   12.4792   66.4597 C   0  0  0  0  0  0  0  0  0  0  0  0
   11.5293   12.1264   66.7028 O   0  0  0  0  0  0  0  0  0  0  0  0
   13.0980   12.9343   65.0139 C   0  0  0  0  0  0  0  0  0  0  0  0
   12.0629   13.8683   64.6750 O   0  0  0  0  0  0  0  0  0  0  0  0
   14.4927   13.5738   64.8614 C   0  0  0  0  0  0  0  0  0  0  0  0
   13.4975   12.4201   68.9594 H   0  0  0  0  0  0  0  0  0  0  0  0
   10.9633   12.9021   66.5657 H   0  0  0  0  0  0  0  0  0  0  0  0
   12.1037   14.6284   65.2762 H   0  0  0  0  0  0  0  0  0  0  0  0
   15.9837   15.0584   63.6849 O   0  0  0  0  0  0  0  0  0  0  0  0
   14.6807   14.4195   63.6057 C   0  0  0  0  0  0  0  0  0  0  0  0
   16.1254   15.6029   62.8947 H   0  0  0  0  0  0  0  0  0  0  0  0
   15.1499   15.2395   68.5062 S   0  0  0  0  0  0  0  0  0  0  0  0
   17.5944   14.5867   67.9797 C   0  0  0  0  0  0  0  0  0  0  0  0
   18.9054   14.8546   67.5736 C   0  0  0  0  0  0  0  0  0  0  0  0
   16.6416   15.6223   68.0397 C   0  0  0  0  0  0  0  0  0  0  0  0
   16.9702   16.9333   67.6367 C   0  0  0  0  0  0  0  0  0  0  0  0
   18.2551   17.2269   67.2002 C   0  0  0  0  0  0  0  0  0  0  0  0
   19.2778   16.1556   67.1715 C   0  0  0  0  0  0  0  0  0  0  0  0
   20.5946   16.4226   66.7245 C   0  0  0  0  0  0  0  0  0  0  0  0
   20.8945   17.7303   66.3228 C   0  0  0  0  0  0  0  0  0  0  0  0
   19.9302   18.7477   66.3844 C   0  0  0  0  0  0  0  0  0  0  0  0
   18.6039   18.5210   66.8008 C   0  0  0  0  0  0  0  0  0  0  0  0
  1  2  1  0  0  0
  1 16  1  0  0  0
  1  3  1  0  0  0
  2  9  1  0  0  0
 16 19  1  0  0  0
  3  4  1  0  0  0
  3  5  1  0  0  0
  5  6  1  0  0  0
  5  7  1  0  0  0
  7  8  1  0  0  0
  7  9  1  0  0  0
 17 18  2  0  0  0
 17 19  1  0  0  0
  9 14  1  0  0  0
 18 22  1  0  0  0
 23 22  1  0  0  0
 13 14  1  0  0  0
 19 20  2  0  0  0
 20 21  1  0  0  0
 21 26  1  0  0  0
 21 22  2  0  0  0
 26 25  2  0  0  0
 25 24  1  0  0  0
 24 23  2  0  0  0
  4 10  1  0  0  0
  6 11  1  0  0  0
  8 12  1  0  0  0
 13 15  1  0  0  0
M  END
> <minimizedAffinity>
-5.92539

$$$$
4A6S_GS9_A_1123


 26 28  0  0  0  0  0  0  0  0999 V2000
   13.9199   12.5828   66.3469 C   0  0  0  0  0  0  0  0  0  0  0  0
   15.1227   13.1936   66.8570 O   0  0  0  0  0  0  0  0  0  0  0  0
   13.5868   13.4152   65.1457 C   0  0  0  0  0  0  0  0  0  0  0  0
   12.3454   12.9950   64.6052 O   0  0  0  0  0  0  0  0  0  0  0  0
   14.7042   13.1712   64.1198 C   0  0  0  0  0  0  0  0  0  0  0  0
   14.3138   13.9033   62.9676 O   0  0  0  0  0  0  0  0  0  0  0  0
   16.0520   13.6505   64.6647 C   0  0  0  0  0  0  0  0  0  0  0  0
   16.0322   15.0839   64.7238 O   0  0  0  0  0  0  0  0  0  0  0  0
   16.3069   13.0422   66.0585 C   0  0  0  0  0  0  0  0  0  0  0  0
   12.3969   12.0556   64.3691 H   0  0  0  0  0  0  0  0  0  0  0  0
   14.2058   14.8388   63.2001 H   0  0  0  0  0  0  0  0  0  0  0  0
   15.3122   15.3736   65.3057 H   0  0  0  0  0  0  0  0  0  0  0  0
   18.4525   14.1375   65.9676 O   0  0  0  0  0  0  0  0  0  0  0  0
   17.3919   13.7358   66.8765 C   0  0  0  0  0  0  0  0  0  0  0  0
   19.1553   14.5818   66.4670 H   0  0  0  0  0  0  0  0  0  0  0  0
   12.5698   12.6758   67.6049 S   0  0  0  0  0  0  0  0  0  0  0  0
   13.4275   13.7835   69.7765 C   0  0  0  0  0  0  0  0  0  0  0  0
   13.7835   14.8774   70.5715 C   0  0  0  0  0  0  0  0  0  0  0  0
   12.9513   13.9806   68.4657 C   0  0  0  0  0  0  0  0  0  0  0  0
   12.8800   15.2739   67.9077 C   0  0  0  0  0  0  0  0  0  0  0  0
   13.2538   16.3793   68.6601 C   0  0  0  0  0  0  0  0  0  0  0  0
   13.7173   16.1892   70.0541 C   0  0  0  0  0  0  0  0  0  0  0  0
   14.1121   17.2962   70.8439 C   0  0  0  0  0  0  0  0  0  0  0  0
   14.0391   18.5695   70.2652 C   0  0  0  0  0  0  0  0  0  0  0  0
   13.5673   18.7455   68.9555 C   0  0  0  0  0  0  0  0  0  0  0  0
   13.1861   17.6710   68.1284 C   0  0  0  0  0  0  0  0  0  0  0  0
  1  2  1  0  0  0
  1 16  1  0  0  0
  1  3  1  0  0  0
  2  9  1  0  0  0
 16 19  1  0  0  0
  3  4  1  0  0  0
  3  5  1  0  0  0
  5  6  1  0  0  0
  5  7  1  0  0  0
  7  8  1  0  0  0
  7  9  1  0  0  0
 17 18  2  0  0  0
 17 19  1  0  0  0
  9 14  1  0  0  0
 18 22  1  0  0  0
 23 22  1  0  0  0
 13 14  1  0  0  0
 19 20  2  0  0  0
 20 21  1  0  0  0
 21 26  1  0  0  0
 21 22  2  0  0  0
 26 25  2  0  0  0
 25 24  1  0  0  0
 24 23  2  0  0  0
  4 10  1  0  0  0
  6 11  1  0  0  0
  8 12  1  0  0  0
 13 15  1  0  0  0
M  END
> <minimizedAffinity>
-5.72876

$$$$
