5LD8_6U5_A_502


 19 20  0  0  0  0  0  0  0  0999 V2000
   11.3890   30.3782   -4.4184 N   0  0  0  0  0  0  0  0  0  0  0  0
    9.0917   27.5864   -7.2897 C   0  0  0  0  0  0  0  0  0  0  0  0
    8.2278   27.5229   -6.1951 C   0  0  0  0  0  0  0  0  0  0  0  0
    8.5097   28.2265   -5.0379 C   0  0  0  0  0  0  0  0  0  0  0  0
    9.6612   29.0065   -4.9494 C   0  0  0  0  0  0  0  0  0  0  0  0
   10.2636   29.8545   -3.9846 C   0  0  0  0  0  0  0  0  0  0  0  0
   10.5236   29.0538   -6.0485 C   0  0  0  0  0  0  0  0  0  0  0  0
   10.2604   28.3506   -7.2184 C   0  0  0  0  0  0  0  0  0  0  0  0
   11.5584   29.8894   -5.6976 N   0  0  0  0  0  0  0  0  0  0  0  0
   12.7310   30.2978   -6.4566 C   0  0  0  0  0  0  0  0  0  0  0  0
    8.7435   26.8709   -8.4764 N   0  0  0  0  0  0  0  0  0  0  0  0
    9.2919   26.0829   -8.6946 H   0  0  0  0  0  0  0  0  0  0  0  0
    7.8322   26.8164  -10.8536 O   0  0  0  0  0  0  0  0  0  0  0  0
    7.5097   27.2326   -9.5234 S   0  0  0  0  0  0  0  0  0  0  0  0
    6.2855   26.7912   -8.9296 O   0  0  0  0  0  0  0  0  0  0  0  0
    7.5440   29.0085   -9.4729 C   0  0  0  0  0  0  0  0  0  0  0  0
    6.8295   29.6398  -10.6610 C   0  0  0  0  0  0  0  0  0  0  0  0
    7.7559   30.4694  -11.5419 C   0  0  0  0  0  0  0  0  0  0  0  0
    7.1383   31.7595  -12.0110 C   0  0  0  0  0  0  0  0  0  0  0  0
  6  1  2  0  0  0
  6  5  1  0  0  0
  4  5  2  0  0  0
  4  3  1  0  0  0
  1  9  1  0  0  0
  5  7  1  0  0  0
  3  2  2  0  0  0
  9  7  1  0  0  0
  9 10  1  0  0  0
  7  8  2  0  0  0
  2  8  1  0  0  0
  2 11  1  0  0  0
 11 14  1  0  0  0
 14 13  2  0  0  0
 14 16  1  0  0  0
 14 15  2  0  0  0
 16 17  1  0  0  0
 17 18  1  0  0  0
 18 19  1  0  0  0
 11 12  1  0  0  0
M  END
> <minimizedAffinity>
-7.04854

$$$$
5LD8_6U5_A_502


 19 20  0  0  0  0  0  0  0  0999 V2000
   14.0025   26.1427   -4.6885 N   0  0  0  0  0  0  0  0  0  0  0  0
   10.9574   28.7184   -7.0143 C   0  0  0  0  0  0  0  0  0  0  0  0
   11.8281   29.7318   -6.6101 C   0  0  0  0  0  0  0  0  0  0  0  0
   12.9448   29.4346   -5.8498 C   0  0  0  0  0  0  0  0  0  0  0  0
   13.2140   28.1193   -5.4758 C   0  0  0  0  0  0  0  0  0  0  0  0
   14.2237   27.4375   -4.7488 C   0  0  0  0  0  0  0  0  0  0  0  0
   12.3291   27.1148   -5.8780 C   0  0  0  0  0  0  0  0  0  0  0  0
   11.1993   27.3936   -6.6384 C   0  0  0  0  0  0  0  0  0  0  0  0
   12.8313   25.9321   -5.3868 N   0  0  0  0  0  0  0  0  0  0  0  0
   12.3176   24.5756   -5.5051 C   0  0  0  0  0  0  0  0  0  0  0  0
    9.8353   29.0666   -7.8273 N   0  0  0  0  0  0  0  0  0  0  0  0
    9.8772   29.9343   -8.2906 H   0  0  0  0  0  0  0  0  0  0  0  0
    8.7983   26.8864   -8.6372 O   0  0  0  0  0  0  0  0  0  0  0  0
    8.4697   28.1580   -8.0700 S   0  0  0  0  0  0  0  0  0  0  0  0
    7.6890   28.2093   -6.8726 O   0  0  0  0  0  0  0  0  0  0  0  0
    7.6465   29.1250   -9.3129 C   0  0  0  0  0  0  0  0  0  0  0  0
    7.9974   28.6788  -10.7265 C   0  0  0  0  0  0  0  0  0  0  0  0
    8.5549   29.8065  -11.5867 C   0  0  0  0  0  0  0  0  0  0  0  0
    7.6106   30.9695  -11.7336 C   0  0  0  0  0  0  0  0  0  0  0  0
  6  1  2  0  0  0
  6  5  1  0  0  0
  4  5  2  0  0  0
  4  3  1  0  0  0
  1  9  1  0  0  0
  5  7  1  0  0  0
  3  2  2  0  0  0
  9  7  1  0  0  0
  9 10  1  0  0  0
  7  8  2  0  0  0
  2  8  1  0  0  0
  2 11  1  0  0  0
 11 14  1  0  0  0
 14 13  2  0  0  0
 14 16  1  0  0  0
 14 15  2  0  0  0
 16 17  1  0  0  0
 17 18  1  0  0  0
 18 19  1  0  0  0
 11 12  1  0  0  0
M  END
> <minimizedAffinity>
-6.92374

$$$$
5LD8_6U5_A_502


 19 20  0  0  0  0  0  0  0  0999 V2000
   12.9839   27.2531   -4.5054 N   0  0  0  0  0  0  0  0  0  0  0  0
    9.6362   26.9106   -7.6665 C   0  0  0  0  0  0  0  0  0  0  0  0
    9.5053   28.2671   -7.3644 C   0  0  0  0  0  0  0  0  0  0  0  0
   10.3296   28.8586   -6.4241 C   0  0  0  0  0  0  0  0  0  0  0  0
   11.3003   28.1070   -5.7645 C   0  0  0  0  0  0  0  0  0  0  0  0
   12.3075   28.3433   -4.7936 C   0  0  0  0  0  0  0  0  0  0  0  0
   11.4147   26.7474   -6.0683 C   0  0  0  0  0  0  0  0  0  0  0  0
   10.5932   26.1336   -7.0066 C   0  0  0  0  0  0  0  0  0  0  0  0
   12.4393   26.2584   -5.2914 N   0  0  0  0  0  0  0  0  0  0  0  0
   12.9867   24.9129   -5.2019 C   0  0  0  0  0  0  0  0  0  0  0  0
    8.7867   26.3495   -8.6689 N   0  0  0  0  0  0  0  0  0  0  0  0
    9.1362   26.3385   -9.5892 H   0  0  0  0  0  0  0  0  0  0  0  0
    7.2936   24.2895   -8.5607 O   0  0  0  0  0  0  0  0  0  0  0  0
    7.2721   25.7148   -8.4400 S   0  0  0  0  0  0  0  0  0  0  0  0
    6.7200   26.3089   -7.2617 O   0  0  0  0  0  0  0  0  0  0  0  0
    6.4192   26.3793   -9.8501 C   0  0  0  0  0  0  0  0  0  0  0  0
    7.3296   27.2125  -10.7432 C   0  0  0  0  0  0  0  0  0  0  0  0
    7.0409   28.7066  -10.6608 C   0  0  0  0  0  0  0  0  0  0  0  0
    8.1767   29.5631  -11.1528 C   0  0  0  0  0  0  0  0  0  0  0  0
  6  1  2  0  0  0
  6  5  1  0  0  0
  4  5  2  0  0  0
  4  3  1  0  0  0
  1  9  1  0  0  0
  5  7  1  0  0  0
  3  2  2  0  0  0
  9  7  1  0  0  0
  9 10  1  0  0  0
  7  8  2  0  0  0
  2  8  1  0  0  0
  2 11  1  0  0  0
 11 14  1  0  0  0
 14 13  2  0  0  0
 14 16  1  0  0  0
 14 15  2  0  0  0
 16 17  1  0  0  0
 17 18  1  0  0  0
 18 19  1  0  0  0
 11 12  1  0  0  0
M  END
> <minimizedAffinity>
-6.83640

$$$$
5LD8_6U5_A_502


 19 20  0  0  0  0  0  0  0  0999 V2000
   13.4083   24.6432   -4.8638 N   0  0  0  0  0  0  0  0  0  0  0  0
   10.6681   27.8252   -6.7828 C   0  0  0  0  0  0  0  0  0  0  0  0
   11.3826   28.6545   -5.9167 C   0  0  0  0  0  0  0  0  0  0  0  0
   12.3613   28.1297   -5.0919 C   0  0  0  0  0  0  0  0  0  0  0  0
   12.6453   26.7655   -5.1138 C   0  0  0  0  0  0  0  0  0  0  0  0
   13.5504   25.8876   -4.4634 C   0  0  0  0  0  0  0  0  0  0  0  0
   11.9159   25.9439   -5.9780 C   0  0  0  0  0  0  0  0  0  0  0  0
   10.9256   26.4512   -6.8112 C   0  0  0  0  0  0  0  0  0  0  0  0
   12.3987   24.6676   -5.8039 N   0  0  0  0  0  0  0  0  0  0  0  0
   12.0058   23.4220   -6.4460 C   0  0  0  0  0  0  0  0  0  0  0  0
    9.6903   28.4154   -7.6413 N   0  0  0  0  0  0  0  0  0  0  0  0
    9.9890   29.1699   -8.1987 H   0  0  0  0  0  0  0  0  0  0  0  0
    7.6664   27.2412   -6.6363 O   0  0  0  0  0  0  0  0  0  0  0  0
    8.1037   27.9589   -7.7941 S   0  0  0  0  0  0  0  0  0  0  0  0
    7.3587   29.0981   -8.2337 O   0  0  0  0  0  0  0  0  0  0  0  0
    8.2188   26.8132   -9.1475 C   0  0  0  0  0  0  0  0  0  0  0  0
    6.8599   26.4906   -9.7559 C   0  0  0  0  0  0  0  0  0  0  0  0
    6.3037   25.1487   -9.2953 C   0  0  0  0  0  0  0  0  0  0  0  0
    5.1857   25.2762   -8.2955 C   0  0  0  0  0  0  0  0  0  0  0  0
  6  1  2  0  0  0
  6  5  1  0  0  0
  4  5  2  0  0  0
  4  3  1  0  0  0
  1  9  1  0  0  0
  5  7  1  0  0  0
  3  2  2  0  0  0
  9  7  1  0  0  0
  9 10  1  0  0  0
  7  8  2  0  0  0
  2  8  1  0  0  0
  2 11  1  0  0  0
 11 14  1  0  0  0
 14 13  2  0  0  0
 14 16  1  0  0  0
 14 15  2  0  0  0
 16 17  1  0  0  0
 17 18  1  0  0  0
 18 19  1  0  0  0
 11 12  1  0  0  0
M  END
> <minimizedAffinity>
-6.53792

$$$$
5LD8_6U5_A_502


 19 20  0  0  0  0  0  0  0  0999 V2000
    9.5262   23.6478  -10.0013 N   0  0  0  0  0  0  0  0  0  0  0  0
   10.8770   26.4054   -6.5534 C   0  0  0  0  0  0  0  0  0  0  0  0
    9.6713   27.0341   -6.8684 C   0  0  0  0  0  0  0  0  0  0  0  0
    8.8729   26.5483   -7.8883 C   0  0  0  0  0  0  0  0  0  0  0  0
    9.2633   25.4257   -8.6160 C   0  0  0  0  0  0  0  0  0  0  0  0
    8.7334   24.6451   -9.6756 C   0  0  0  0  0  0  0  0  0  0  0  0
   10.4778   24.8110   -8.2978 C   0  0  0  0  0  0  0  0  0  0  0  0
   11.2961   25.2865   -7.2797 C   0  0  0  0  0  0  0  0  0  0  0  0
   10.6096   23.7409   -9.1519 N   0  0  0  0  0  0  0  0  0  0  0  0
   11.6768   22.7576   -9.2636 C   0  0  0  0  0  0  0  0  0  0  0  0
   11.6529   26.9208   -5.4700 N   0  0  0  0  0  0  0  0  0  0  0  0
   11.6404   26.4042   -4.6321 H   0  0  0  0  0  0  0  0  0  0  0  0
   12.7808   28.7635   -6.8180 O   0  0  0  0  0  0  0  0  0  0  0  0
   12.5723   28.3006   -5.4804 S   0  0  0  0  0  0  0  0  0  0  0  0
   12.0307   29.1972   -4.5063 O   0  0  0  0  0  0  0  0  0  0  0  0
   14.1157   27.6736   -4.8623 C   0  0  0  0  0  0  0  0  0  0  0  0
   14.0009   26.2440   -4.3488 C   0  0  0  0  0  0  0  0  0  0  0  0
   14.9655   25.2844   -5.0353 C   0  0  0  0  0  0  0  0  0  0  0  0
   16.2008   25.9585   -5.5694 C   0  0  0  0  0  0  0  0  0  0  0  0
  6  1  2  0  0  0
  6  5  1  0  0  0
  4  5  2  0  0  0
  4  3  1  0  0  0
  1  9  1  0  0  0
  5  7  1  0  0  0
  3  2  2  0  0  0
  9  7  1  0  0  0
  9 10  1  0  0  0
  7  8  2  0  0  0
  2  8  1  0  0  0
  2 11  1  0  0  0
 11 14  1  0  0  0
 14 13  2  0  0  0
 14 16  1  0  0  0
 14 15  2  0  0  0
 16 17  1  0  0  0
 17 18  1  0  0  0
 18 19  1  0  0  0
 11 12  1  0  0  0
M  END
> <minimizedAffinity>
-6.47750

$$$$
5LD8_6U5_A_502


 19 20  0  0  0  0  0  0  0  0999 V2000
    7.6622   28.3241   -6.3282 N   0  0  0  0  0  0  0  0  0  0  0  0
   12.2086   29.0228   -5.9295 C   0  0  0  0  0  0  0  0  0  0  0  0
   11.9077   28.8081   -4.5835 C   0  0  0  0  0  0  0  0  0  0  0  0
   10.6076   28.5490   -4.1884 C   0  0  0  0  0  0  0  0  0  0  0  0
    9.5807   28.5010   -5.1294 C   0  0  0  0  0  0  0  0  0  0  0  0
    8.1835   28.2546   -5.1229 C   0  0  0  0  0  0  0  0  0  0  0  0
    9.8930   28.7279   -6.4729 C   0  0  0  0  0  0  0  0  0  0  0  0
   11.1922   28.9942   -6.8893 C   0  0  0  0  0  0  0  0  0  0  0  0
    8.7139   28.6154   -7.1725 N   0  0  0  0  0  0  0  0  0  0  0  0
    8.4537   28.7536   -8.5977 C   0  0  0  0  0  0  0  0  0  0  0  0
   13.5702   29.2529   -6.2962 N   0  0  0  0  0  0  0  0  0  0  0  0
   13.7766   30.1240   -6.7060 H   0  0  0  0  0  0  0  0  0  0  0  0
   15.9505   28.5910   -6.9131 O   0  0  0  0  0  0  0  0  0  0  0  0
   14.8380   28.2021   -6.1020 S   0  0  0  0  0  0  0  0  0  0  0  0
   15.0314   28.0010   -4.6991 O   0  0  0  0  0  0  0  0  0  0  0  0
   14.1433   26.7167   -6.7865 C   0  0  0  0  0  0  0  0  0  0  0  0
   13.8105   25.6825   -5.7187 C   0  0  0  0  0  0  0  0  0  0  0  0
   12.3471   25.2574   -5.7358 C   0  0  0  0  0  0  0  0  0  0  0  0
   11.7224   25.3189   -7.1039 C   0  0  0  0  0  0  0  0  0  0  0  0
  6  1  2  0  0  0
  6  5  1  0  0  0
  4  5  2  0  0  0
  4  3  1  0  0  0
  1  9  1  0  0  0
  5  7  1  0  0  0
  3  2  2  0  0  0
  9  7  1  0  0  0
  9 10  1  0  0  0
  7  8  2  0  0  0
  2  8  1  0  0  0
  2 11  1  0  0  0
 11 14  1  0  0  0
 14 13  2  0  0  0
 14 16  1  0  0  0
 14 15  2  0  0  0
 16 17  1  0  0  0
 17 18  1  0  0  0
 18 19  1  0  0  0
 11 12  1  0  0  0
M  END
> <minimizedAffinity>
-6.38699

$$$$
5LD8_6U5_A_502


 19 20  0  0  0  0  0  0  0  0999 V2000
   11.2924   29.9654   -4.3403 N   0  0  0  0  0  0  0  0  0  0  0  0
    8.8813   27.3834   -7.3129 C   0  0  0  0  0  0  0  0  0  0  0  0
    8.0708   27.2247   -6.1876 C   0  0  0  0  0  0  0  0  0  0  0  0
    8.4023   27.8381   -4.9928 C   0  0  0  0  0  0  0  0  0  0  0  0
    9.5512   28.6211   -4.8968 C   0  0  0  0  0  0  0  0  0  0  0  0
   10.1926   29.3970   -3.8971 C   0  0  0  0  0  0  0  0  0  0  0  0
   10.3600   28.7641   -6.0279 C   0  0  0  0  0  0  0  0  0  0  0  0
   10.0466   28.1523   -7.2361 C   0  0  0  0  0  0  0  0  0  0  0  0
   11.4043   29.5807   -5.6606 N   0  0  0  0  0  0  0  0  0  0  0  0
   12.5367   30.0602   -6.4390 C   0  0  0  0  0  0  0  0  0  0  0  0
    8.4822   26.7598   -8.5349 N   0  0  0  0  0  0  0  0  0  0  0  0
    8.9175   25.9055   -8.7581 H   0  0  0  0  0  0  0  0  0  0  0  0
    6.9404   28.6505   -9.2648 O   0  0  0  0  0  0  0  0  0  0  0  0
    7.3606   27.3287   -9.6154 S   0  0  0  0  0  0  0  0  0  0  0  0
    7.8542   27.0782  -10.9344 O   0  0  0  0  0  0  0  0  0  0  0  0
    6.0102   26.2159   -9.3060 C   0  0  0  0  0  0  0  0  0  0  0  0
    6.4670   24.9041   -8.6806 C   0  0  0  0  0  0  0  0  0  0  0  0
    5.3890   23.8269   -8.7000 C   0  0  0  0  0  0  0  0  0  0  0  0
    5.5748   22.7757   -7.6388 C   0  0  0  0  0  0  0  0  0  0  0  0
  6  1  2  0  0  0
  6  5  1  0  0  0
  4  5  2  0  0  0
  4  3  1  0  0  0
  1  9  1  0  0  0
  5  7  1  0  0  0
  3  2  2  0  0  0
  9  7  1  0  0  0
  9 10  1  0  0  0
  7  8  2  0  0  0
  2  8  1  0  0  0
  2 11  1  0  0  0
 11 14  1  0  0  0
 14 13  2  0  0  0
 14 16  1  0  0  0
 14 15  2  0  0  0
 16 17  1  0  0  0
 17 18  1  0  0  0
 18 19  1  0  0  0
 11 12  1  0  0  0
M  END
> <minimizedAffinity>
-6.37882

$$$$
5LD8_6U5_A_502


 19 20  0  0  0  0  0  0  0  0999 V2000
   12.0740   29.2191   -4.6413 N   0  0  0  0  0  0  0  0  0  0  0  0
    8.4126   28.3652   -7.3213 C   0  0  0  0  0  0  0  0  0  0  0  0
    7.9947   27.6948   -6.1705 C   0  0  0  0  0  0  0  0  0  0  0  0
    8.7981   27.6668   -5.0448 C   0  0  0  0  0  0  0  0  0  0  0  0
   10.0363   28.3062   -5.0457 C   0  0  0  0  0  0  0  0  0  0  0  0
   11.0937   28.5126   -4.1226 C   0  0  0  0  0  0  0  0  0  0  0  0
   10.4481   28.9655   -6.2075 C   0  0  0  0  0  0  0  0  0  0  0  0
    9.6575   29.0012   -7.3502 C   0  0  0  0  0  0  0  0  0  0  0  0
   11.6828   29.5062   -5.9330 N   0  0  0  0  0  0  0  0  0  0  0  0
   12.5693   30.2933   -6.7773 C   0  0  0  0  0  0  0  0  0  0  0  0
    7.5358   28.3974   -8.4489 N   0  0  0  0  0  0  0  0  0  0  0  0
    7.1638   29.2751   -8.6949 H   0  0  0  0  0  0  0  0  0  0  0  0
    6.1025   26.3092   -8.7126 O   0  0  0  0  0  0  0  0  0  0  0  0
    7.0811   27.1069   -9.3854 S   0  0  0  0  0  0  0  0  0  0  0  0
    6.8018   27.5949  -10.7007 O   0  0  0  0  0  0  0  0  0  0  0  0
    8.6017   26.1893   -9.4436 C   0  0  0  0  0  0  0  0  0  0  0  0
    8.5021   24.8491   -8.7264 C   0  0  0  0  0  0  0  0  0  0  0  0
    9.8610   24.2746   -8.3444 C   0  0  0  0  0  0  0  0  0  0  0  0
   10.7561   25.2665   -7.6511 C   0  0  0  0  0  0  0  0  0  0  0  0
  6  1  2  0  0  0
  6  5  1  0  0  0
  4  5  2  0  0  0
  4  3  1  0  0  0
  1  9  1  0  0  0
  5  7  1  0  0  0
  3  2  2  0  0  0
  9  7  1  0  0  0
  9 10  1  0  0  0
  7  8  2  0  0  0
  2  8  1  0  0  0
  2 11  1  0  0  0
 11 14  1  0  0  0
 14 13  2  0  0  0
 14 16  1  0  0  0
 14 15  2  0  0  0
 16 17  1  0  0  0
 17 18  1  0  0  0
 18 19  1  0  0  0
 11 12  1  0  0  0
M  END
> <minimizedAffinity>
-6.35063

$$$$
5LD8_6U5_A_502


 19 20  0  0  0  0  0  0  0  0999 V2000
    7.2385   27.3106  -10.8830 N   0  0  0  0  0  0  0  0  0  0  0  0
    8.9893   28.4084   -6.7543 C   0  0  0  0  0  0  0  0  0  0  0  0
    8.3668   27.2078   -6.4088 C   0  0  0  0  0  0  0  0  0  0  0  0
    7.6758   26.4776   -7.3590 C   0  0  0  0  0  0  0  0  0  0  0  0
    7.5907   26.9324   -8.6735 C   0  0  0  0  0  0  0  0  0  0  0  0
    7.0163   26.4789   -9.8890 C   0  0  0  0  0  0  0  0  0  0  0  0
    8.2096   28.1412   -9.0048 C   0  0  0  0  0  0  0  0  0  0  0  0
    8.9046   28.8917   -8.0636 C   0  0  0  0  0  0  0  0  0  0  0  0
    7.9788   28.3436  -10.3457 N   0  0  0  0  0  0  0  0  0  0  0  0
    8.3920   29.4372  -11.2125 C   0  0  0  0  0  0  0  0  0  0  0  0
    9.7208   29.1121   -5.7488 N   0  0  0  0  0  0  0  0  0  0  0  0
    9.2301   29.8019   -5.2463 H   0  0  0  0  0  0  0  0  0  0  0  0
   12.0788   30.0632   -5.6083 O   0  0  0  0  0  0  0  0  0  0  0  0
   11.3121   28.8851   -5.3421 S   0  0  0  0  0  0  0  0  0  0  0  0
   11.3535   28.3037   -4.0358 O   0  0  0  0  0  0  0  0  0  0  0  0
   11.7795   27.6398   -6.5204 C   0  0  0  0  0  0  0  0  0  0  0  0
   12.0632   26.2941   -5.8654 C   0  0  0  0  0  0  0  0  0  0  0  0
   12.2767   25.1726   -6.8749 C   0  0  0  0  0  0  0  0  0  0  0  0
   11.0637   24.8898   -7.7201 C   0  0  0  0  0  0  0  0  0  0  0  0
  6  1  2  0  0  0
  6  5  1  0  0  0
  4  5  2  0  0  0
  4  3  1  0  0  0
  1  9  1  0  0  0
  5  7  1  0  0  0
  3  2  2  0  0  0
  9  7  1  0  0  0
  9 10  1  0  0  0
  7  8  2  0  0  0
  2  8  1  0  0  0
  2 11  1  0  0  0
 11 14  1  0  0  0
 14 13  2  0  0  0
 14 16  1  0  0  0
 14 15  2  0  0  0
 16 17  1  0  0  0
 17 18  1  0  0  0
 18 19  1  0  0  0
 11 12  1  0  0  0
M  END
> <minimizedAffinity>
-6.34832

$$$$
5LD8_6U5_A_502


 19 20  0  0  0  0  0  0  0  0999 V2000
   14.9288   27.2493   -4.4625 N   0  0  0  0  0  0  0  0  0  0  0  0
   11.3127   28.7998   -6.8784 C   0  0  0  0  0  0  0  0  0  0  0  0
   12.0579   29.9791   -6.8308 C   0  0  0  0  0  0  0  0  0  0  0  0
   13.2776   30.0118   -6.1790 C   0  0  0  0  0  0  0  0  0  0  0  0
   13.7774   28.8677   -5.5597 C   0  0  0  0  0  0  0  0  0  0  0  0
   14.9461   28.5089   -4.8398 C   0  0  0  0  0  0  0  0  0  0  0  0
   13.0171   27.6956   -5.6055 C   0  0  0  0  0  0  0  0  0  0  0  0
   11.7873   27.6436   -6.2514 C   0  0  0  0  0  0  0  0  0  0  0  0
   13.7379   26.7358   -4.9336 N   0  0  0  0  0  0  0  0  0  0  0  0
   13.4243   25.3382   -4.6761 C   0  0  0  0  0  0  0  0  0  0  0  0
   10.0747   28.8029   -7.5917 N   0  0  0  0  0  0  0  0  0  0  0  0
   10.1011   29.1251   -8.5216 H   0  0  0  0  0  0  0  0  0  0  0  0
    8.5534   28.4180   -5.5862 O   0  0  0  0  0  0  0  0  0  0  0  0
    8.5983   28.3192   -7.0127 S   0  0  0  0  0  0  0  0  0  0  0  0
    7.5874   28.9662   -7.7909 O   0  0  0  0  0  0  0  0  0  0  0  0
    8.6203   26.5971   -7.4502 C   0  0  0  0  0  0  0  0  0  0  0  0
    7.5262   26.2342   -8.4460 C   0  0  0  0  0  0  0  0  0  0  0  0
    8.0199   26.1975   -9.8874 C   0  0  0  0  0  0  0  0  0  0  0  0
    7.3154   27.1783  -10.7860 C   0  0  0  0  0  0  0  0  0  0  0  0
  6  1  2  0  0  0
  6  5  1  0  0  0
  4  5  2  0  0  0
  4  3  1  0  0  0
  1  9  1  0  0  0
  5  7  1  0  0  0
  3  2  2  0  0  0
  9  7  1  0  0  0
  9 10  1  0  0  0
  7  8  2  0  0  0
  2  8  1  0  0  0
  2 11  1  0  0  0
 11 14  1  0  0  0
 14 13  2  0  0  0
 14 16  1  0  0  0
 14 15  2  0  0  0
 16 17  1  0  0  0
 17 18  1  0  0  0
 18 19  1  0  0  0
 11 12  1  0  0  0
M  END
> <minimizedAffinity>
-6.34526

$$$$
