3MHI_J90_A_263


 26 27  0  0  0  0  0  0  0  0999 V2000
   -3.8823    4.5224   12.0435 N   0  0  0  0  0  0  0  0  0  0  0  0
   -4.6204    4.8387   11.4739 H   0  0  0  0  0  0  0  0  0  0  0  0
   -1.1064    1.7471   10.6096 N   0  0  0  0  0  0  0  0  0  0  0  0
   -0.8296    3.0194   10.7640 C   0  0  0  0  0  0  0  0  0  0  0  0
   -1.7343    3.8669   11.2161 N   0  0  0  0  0  0  0  0  0  0  0  0
   -3.0018    3.5470   11.5264 C   0  0  0  0  0  0  0  0  0  0  0  0
   -3.3690    2.2017   11.4264 C   0  0  0  0  0  0  0  0  0  0  0  0
   -2.3579    1.3393   10.9542 C   0  0  0  0  0  0  0  0  0  0  0  0
   -2.6807    0.0095   10.7802 O   0  0  0  0  0  0  0  0  0  0  0  0
   -0.4381    1.1146   10.2596 H   0  0  0  0  0  0  0  0  0  0  0  0
   -4.7640    1.6841   11.7827 N   0  0  0  0  0  0  0  0  0  0  0  0
   -5.5347    2.0012   10.9262 O   0  0  0  0  0  0  0  0  0  0  0  0
   -4.7275    1.1093   12.8021 O   0  0  0  0  0  0  0  0  0  0  0  0
   -3.7515    5.0653   13.3422 C   0  0  0  0  0  0  0  0  0  0  0  0
   -4.4102    4.1923   14.4111 C   0  0  0  0  0  0  0  0  0  0  0  0
   -3.6160    3.2797   15.1999 C   0  0  0  0  0  0  0  0  0  0  0  0
   -4.2583    2.4534   16.1908 C   0  0  0  0  0  0  0  0  0  0  0  0
   -5.6377    2.5417   16.3080 C   0  0  0  0  0  0  0  0  0  0  0  0
   -6.3719    3.4091   15.5119 C   0  0  0  0  0  0  0  0  0  0  0  0
   -5.7810    4.2655   14.5371 C   0  0  0  0  0  0  0  0  0  0  0  0
   -6.5270    1.4914   17.4664 S   0  0  0  0  0  0  0  0  0  0  0  0
   -6.4466    2.2079   18.7718 O   0  0  0  0  0  0  0  0  0  0  0  0
   -7.8664    1.2372   16.8489 O   0  0  0  0  0  0  0  0  0  0  0  0
   -5.5663    0.1396   17.6515 N   0  0  0  0  0  0  0  0  0  0  0  0
   -4.6793    0.4085   18.0773 H   0  0  0  0  0  0  0  0  0  0  0  0
   -5.3917   -0.2810   16.7388 H   0  0  0  0  0  0  0  0  0  0  0  0
  3  4  1  0  0  0
  3  8  1  0  0  0
  4  5  2  0  0  0
  5  6  1  0  0  0
  6  7  2  0  0  0
  6  1  1  0  0  0
  7  8  1  0  0  0
  7 11  1  0  0  0
  8  9  2  0  0  0
  1 14  1  0  0  0
 15 16  2  0  0  0
 15 20  1  0  0  0
 15 14  1  0  0  0
 16 17  1  0  0  0
 17 18  2  0  0  0
 18 19  1  0  0  0
 18 21  1  0  0  0
 19 20  2  0  0  0
 21 22  2  0  0  0
 21 23  2  0  0  0
 21 24  1  0  0  0
 11 12  1  0  0  0
 11 13  2  0  0  0
  3 10  1  0  0  0
  1  2  1  0  0  0
 24 25  1  0  0  0
 24 26  1  0  0  0
M  CHG 1  11   1
M  CHG 1  12  -1
M  END
> <minimizedAffinity>
-7.99074

$$$$
3MHI_J90_A_263


 26 27  0  0  0  0  0  0  0  0999 V2000
   -3.8164    4.6425   12.0499 N   0  0  0  0  0  0  0  0  0  0  0  0
   -4.5073    5.0183   11.4577 H   0  0  0  0  0  0  0  0  0  0  0  0
   -1.0559    1.8534   10.6130 N   0  0  0  0  0  0  0  0  0  0  0  0
   -0.7576    3.1140   10.8157 C   0  0  0  0  0  0  0  0  0  0  0  0
   -1.6581    3.9666   11.2670 N   0  0  0  0  0  0  0  0  0  0  0  0
   -2.9409    3.6646   11.5289 C   0  0  0  0  0  0  0  0  0  0  0  0
   -3.3326    2.3314   11.3755 C   0  0  0  0  0  0  0  0  0  0  0  0
   -2.3255    1.4624   10.9068 C   0  0  0  0  0  0  0  0  0  0  0  0
   -2.6703    0.1459   10.6813 O   0  0  0  0  0  0  0  0  0  0  0  0
   -0.3903    1.2177   10.2634 H   0  0  0  0  0  0  0  0  0  0  0  0
   -4.7482    1.8333   11.6732 N   0  0  0  0  0  0  0  0  0  0  0  0
   -4.7232    1.1180   12.6301 O   0  0  0  0  0  0  0  0  0  0  0  0
   -5.4991    2.2758   10.8913 O   0  0  0  0  0  0  0  0  0  0  0  0
   -3.7455    5.1060   13.3835 C   0  0  0  0  0  0  0  0  0  0  0  0
   -4.4664    4.1806   14.3645 C   0  0  0  0  0  0  0  0  0  0  0  0
   -5.9010    4.2514   14.5154 C   0  0  0  0  0  0  0  0  0  0  0  0
   -6.5597    3.3821   15.4576 C   0  0  0  0  0  0  0  0  0  0  0  0
   -5.7656    2.5388   16.2209 C   0  0  0  0  0  0  0  0  0  0  0  0
   -4.3866    2.5192   16.0695 C   0  0  0  0  0  0  0  0  0  0  0  0
   -3.6909    3.3395   15.1335 C   0  0  0  0  0  0  0  0  0  0  0  0
   -6.4991    1.4760   17.4732 S   0  0  0  0  0  0  0  0  0  0  0  0
   -6.3884    2.2491   18.7436 O   0  0  0  0  0  0  0  0  0  0  0  0
   -7.8529    1.1022   16.9561 O   0  0  0  0  0  0  0  0  0  0  0  0
   -5.4316    0.2047   17.6424 N   0  0  0  0  0  0  0  0  0  0  0  0
   -4.5414    0.5533   17.9981 H   0  0  0  0  0  0  0  0  0  0  0  0
   -5.2852   -0.2393   16.7359 H   0  0  0  0  0  0  0  0  0  0  0  0
  3  4  1  0  0  0
  3  8  1  0  0  0
  4  5  2  0  0  0
  5  6  1  0  0  0
  6  7  2  0  0  0
  6  1  1  0  0  0
  7  8  1  0  0  0
  7 11  1  0  0  0
  8  9  2  0  0  0
  1 14  1  0  0  0
 15 16  2  0  0  0
 15 20  1  0  0  0
 15 14  1  0  0  0
 16 17  1  0  0  0
 17 18  2  0  0  0
 18 19  1  0  0  0
 18 21  1  0  0  0
 19 20  2  0  0  0
 21 22  2  0  0  0
 21 23  2  0  0  0
 21 24  1  0  0  0
 11 12  1  0  0  0
 11 13  2  0  0  0
  3 10  1  0  0  0
  1  2  1  0  0  0
 24 25  1  0  0  0
 24 26  1  0  0  0
M  CHG 1  11   1
M  CHG 1  12  -1
M  END
> <minimizedAffinity>
-7.97633

$$$$
3MHI_J90_A_263


 26 27  0  0  0  0  0  0  0  0999 V2000
   -4.3878    4.5402   11.7226 N   0  0  0  0  0  0  0  0  0  0  0  0
   -4.6918    5.1203   10.9875 H   0  0  0  0  0  0  0  0  0  0  0  0
   -3.9721    0.4818   10.8166 N   0  0  0  0  0  0  0  0  0  0  0  0
   -5.1374    1.0691   10.9448 C   0  0  0  0  0  0  0  0  0  0  0  0
   -5.2287    2.3530   11.2356 N   0  0  0  0  0  0  0  0  0  0  0  0
   -4.1840    3.1680   11.4585 C   0  0  0  0  0  0  0  0  0  0  0  0
   -2.9031    2.6296   11.3041 C   0  0  0  0  0  0  0  0  0  0  0  0
   -2.8663    1.2582   10.9770 C   0  0  0  0  0  0  0  0  0  0  0  0
   -1.6285    0.6591   10.8688 O   0  0  0  0  0  0  0  0  0  0  0  0
   -3.9004   -0.4788   10.6132 H   0  0  0  0  0  0  0  0  0  0  0  0
   -1.6222    3.4460   11.4872 N   0  0  0  0  0  0  0  0  0  0  0  0
   -1.4022    4.0665   10.4899 O   0  0  0  0  0  0  0  0  0  0  0  0
   -1.1793    3.2586   12.5547 O   0  0  0  0  0  0  0  0  0  0  0  0
   -4.1749    5.1183   12.9950 C   0  0  0  0  0  0  0  0  0  0  0  0
   -4.7099    4.2465   14.1315 C   0  0  0  0  0  0  0  0  0  0  0  0
   -3.8217    3.3728   14.8621 C   0  0  0  0  0  0  0  0  0  0  0  0
   -4.3488    2.5466   15.9189 C   0  0  0  0  0  0  0  0  0  0  0  0
   -5.7149    2.5961   16.1555 C   0  0  0  0  0  0  0  0  0  0  0  0
   -6.5425    3.4262   15.4132 C   0  0  0  0  0  0  0  0  0  0  0  0
   -6.0661    4.2813   14.3765 C   0  0  0  0  0  0  0  0  0  0  0  0
   -6.4662    1.5419   17.4044 S   0  0  0  0  0  0  0  0  0  0  0  0
   -6.3947    2.3332   18.6664 O   0  0  0  0  0  0  0  0  0  0  0  0
   -7.8029    1.1455   16.8603 O   0  0  0  0  0  0  0  0  0  0  0  0
   -5.3889    0.2853   17.6164 N   0  0  0  0  0  0  0  0  0  0  0  0
   -4.5114    0.6489   17.9884 H   0  0  0  0  0  0  0  0  0  0  0  0
   -5.2157   -0.1691   16.7198 H   0  0  0  0  0  0  0  0  0  0  0  0
  3  4  1  0  0  0
  3  8  1  0  0  0
  4  5  2  0  0  0
  5  6  1  0  0  0
  6  7  2  0  0  0
  6  1  1  0  0  0
  7  8  1  0  0  0
  7 11  1  0  0  0
  8  9  2  0  0  0
  1 14  1  0  0  0
 15 16  2  0  0  0
 15 20  1  0  0  0
 15 14  1  0  0  0
 16 17  1  0  0  0
 17 18  2  0  0  0
 18 19  1  0  0  0
 18 21  1  0  0  0
 19 20  2  0  0  0
 21 22  2  0  0  0
 21 23  2  0  0  0
 21 24  1  0  0  0
 11 12  1  0  0  0
 11 13  2  0  0  0
  3 10  1  0  0  0
  1  2  1  0  0  0
 24 25  1  0  0  0
 24 26  1  0  0  0
M  CHG 1  11   1
M  CHG 1  12  -1
M  END
> <minimizedAffinity>
-7.86324

$$$$
3MHI_J90_A_263


 26 27  0  0  0  0  0  0  0  0999 V2000
   -4.1210    1.6182   13.3544 N   0  0  0  0  0  0  0  0  0  0  0  0
   -3.6017    0.8704   13.7290 H   0  0  0  0  0  0  0  0  0  0  0  0
   -6.6226    3.9505   15.7558 N   0  0  0  0  0  0  0  0  0  0  0  0
   -6.3054    4.2773   14.5262 C   0  0  0  0  0  0  0  0  0  0  0  0
   -5.5086    3.5168   13.7996 N   0  0  0  0  0  0  0  0  0  0  0  0
   -4.9260    2.3837   14.2262 C   0  0  0  0  0  0  0  0  0  0  0  0
   -5.2423    1.9430   15.5148 C   0  0  0  0  0  0  0  0  0  0  0  0
   -6.1105    2.7861   16.2388 C   0  0  0  0  0  0  0  0  0  0  0  0
   -6.4118    2.4312   17.5373 O   0  0  0  0  0  0  0  0  0  0  0  0
   -7.2057    4.5225   16.3054 H   0  0  0  0  0  0  0  0  0  0  0  0
   -4.6863    0.6526   16.1202 N   0  0  0  0  0  0  0  0  0  0  0  0
   -5.5860   -0.1042   16.3340 O   0  0  0  0  0  0  0  0  0  0  0  0
   -3.5224    0.7296   16.2225 O   0  0  0  0  0  0  0  0  0  0  0  0
   -4.0272    1.8775   11.9678 C   0  0  0  0  0  0  0  0  0  0  0  0
   -2.6756    2.4739   11.5734 C   0  0  0  0  0  0  0  0  0  0  0  0
   -2.2515    3.7438   12.1153 C   0  0  0  0  0  0  0  0  0  0  0  0
   -0.9813    4.2968   11.7181 C   0  0  0  0  0  0  0  0  0  0  0  0
   -0.2364    3.5940   10.7824 C   0  0  0  0  0  0  0  0  0  0  0  0
   -0.6896    2.3908   10.2609 C   0  0  0  0  0  0  0  0  0  0  0  0
   -1.9251    1.7895   10.6414 C   0  0  0  0  0  0  0  0  0  0  0  0
    1.3245    4.2502   10.1751 S   0  0  0  0  0  0  0  0  0  0  0  0
    1.8472    3.2017    9.2525 O   0  0  0  0  0  0  0  0  0  0  0  0
    1.0187    5.6140    9.6398 O   0  0  0  0  0  0  0  0  0  0  0  0
    2.3487    4.2215   11.4922 N   0  0  0  0  0  0  0  0  0  0  0  0
    2.4984    3.2562   11.7855 H   0  0  0  0  0  0  0  0  0  0  0  0
    1.9314    4.7491   12.2590 H   0  0  0  0  0  0  0  0  0  0  0  0
  3  4  1  0  0  0
  3  8  1  0  0  0
  4  5  2  0  0  0
  5  6  1  0  0  0
  6  7  2  0  0  0
  6  1  1  0  0  0
  7  8  1  0  0  0
  7 11  1  0  0  0
  8  9  2  0  0  0
  1 14  1  0  0  0
 15 16  2  0  0  0
 15 20  1  0  0  0
 15 14  1  0  0  0
 16 17  1  0  0  0
 17 18  2  0  0  0
 18 19  1  0  0  0
 18 21  1  0  0  0
 19 20  2  0  0  0
 21 22  2  0  0  0
 21 23  2  0  0  0
 21 24  1  0  0  0
 11 12  1  0  0  0
 11 13  2  0  0  0
  3 10  1  0  0  0
  1  2  1  0  0  0
 24 25  1  0  0  0
 24 26  1  0  0  0
M  CHG 1  11   1
M  CHG 1  12  -1
M  END
> <minimizedAffinity>
-7.67276

$$$$
3MHI_J90_A_263


 26 27  0  0  0  0  0  0  0  0999 V2000
   -4.3357    6.1588   12.6749 N   0  0  0  0  0  0  0  0  0  0  0  0
   -5.1350    6.6950   12.4679 H   0  0  0  0  0  0  0  0  0  0  0  0
   -2.2379    4.1509    9.6696 N   0  0  0  0  0  0  0  0  0  0  0  0
   -1.8598    4.1530   10.9251 C   0  0  0  0  0  0  0  0  0  0  0  0
   -2.5466    4.8025   11.8459 N   0  0  0  0  0  0  0  0  0  0  0  0
   -3.6482    5.5348   11.6109 C   0  0  0  0  0  0  0  0  0  0  0  0
   -4.1413    5.5543   10.3028 C   0  0  0  0  0  0  0  0  0  0  0  0
   -3.3769    4.8299    9.3648 C   0  0  0  0  0  0  0  0  0  0  0  0
   -3.7837    4.8610    8.0471 O   0  0  0  0  0  0  0  0  0  0  0  0
   -1.7204    3.6788    8.9779 H   0  0  0  0  0  0  0  0  0  0  0  0
   -5.4062    6.3119    9.8942 N   0  0  0  0  0  0  0  0  0  0  0  0
   -6.3151    5.5421    9.7977 O   0  0  0  0  0  0  0  0  0  0  0  0
   -5.1676    7.4523    9.7782 O   0  0  0  0  0  0  0  0  0  0  0  0
   -3.9278    6.0480   14.0240 C   0  0  0  0  0  0  0  0  0  0  0  0
   -4.5307    4.8272   14.7199 C   0  0  0  0  0  0  0  0  0  0  0  0
   -5.9249    4.8158   15.0969 C   0  0  0  0  0  0  0  0  0  0  0  0
   -6.4699    3.6621   15.7670 C   0  0  0  0  0  0  0  0  0  0  0  0
   -5.6035    2.6205   16.0651 C   0  0  0  0  0  0  0  0  0  0  0  0
   -4.2626    2.6791   15.7136 C   0  0  0  0  0  0  0  0  0  0  0  0
   -3.6818    3.7853   15.0268 C   0  0  0  0  0  0  0  0  0  0  0  0
   -6.1843    1.1765   16.9668 S   0  0  0  0  0  0  0  0  0  0  0  0
   -5.6221    1.3309   18.3394 O   0  0  0  0  0  0  0  0  0  0  0  0
   -7.6689    1.1428   16.7804 O   0  0  0  0  0  0  0  0  0  0  0  0
   -5.3591   -0.1117   16.3005 N   0  0  0  0  0  0  0  0  0  0  0  0
   -4.3603   -0.0033   16.4764 H   0  0  0  0  0  0  0  0  0  0  0  0
   -5.5262   -0.1388   15.2946 H   0  0  0  0  0  0  0  0  0  0  0  0
  3  4  1  0  0  0
  3  8  1  0  0  0
  4  5  2  0  0  0
  5  6  1  0  0  0
  6  7  2  0  0  0
  6  1  1  0  0  0
  7  8  1  0  0  0
  7 11  1  0  0  0
  8  9  2  0  0  0
  1 14  1  0  0  0
 15 16  2  0  0  0
 15 20  1  0  0  0
 15 14  1  0  0  0
 16 17  1  0  0  0
 17 18  2  0  0  0
 18 19  1  0  0  0
 18 21  1  0  0  0
 19 20  2  0  0  0
 21 22  2  0  0  0
 21 23  2  0  0  0
 21 24  1  0  0  0
 11 12  1  0  0  0
 11 13  2  0  0  0
  3 10  1  0  0  0
  1  2  1  0  0  0
 24 25  1  0  0  0
 24 26  1  0  0  0
M  CHG 1  11   1
M  CHG 1  12  -1
M  END
> <minimizedAffinity>
-7.24921

$$$$
3MHI_J90_A_263


 26 27  0  0  0  0  0  0  0  0999 V2000
   -3.2957    5.5131   12.6296 N   0  0  0  0  0  0  0  0  0  0  0  0
   -2.5563    4.9312   12.9192 H   0  0  0  0  0  0  0  0  0  0  0  0
   -3.2974    6.8395    8.6666 N   0  0  0  0  0  0  0  0  0  0  0  0
   -3.0507    7.6292    9.6838 C   0  0  0  0  0  0  0  0  0  0  0  0
   -3.0631    7.1744   10.9225 N   0  0  0  0  0  0  0  0  0  0  0  0
   -3.3507    5.9103   11.2756 C   0  0  0  0  0  0  0  0  0  0  0  0
   -3.5884    4.9931   10.2476 C   0  0  0  0  0  0  0  0  0  0  0  0
   -3.5461    5.5310    8.9446 C   0  0  0  0  0  0  0  0  0  0  0  0
   -3.8302    4.6844    7.8932 O   0  0  0  0  0  0  0  0  0  0  0  0
   -3.3025    7.1785    7.7423 H   0  0  0  0  0  0  0  0  0  0  0  0
   -3.8898    3.5139   10.4962 N   0  0  0  0  0  0  0  0  0  0  0  0
   -2.9036    2.8696   10.2951 O   0  0  0  0  0  0  0  0  0  0  0  0
   -5.0076    3.3837   10.8195 O   0  0  0  0  0  0  0  0  0  0  0  0
   -4.2548    5.9135   13.5879 C   0  0  0  0  0  0  0  0  0  0  0  0
   -4.7084    4.7581   14.4809 C   0  0  0  0  0  0  0  0  0  0  0  0
   -3.7725    3.7335   14.8812 C   0  0  0  0  0  0  0  0  0  0  0  0
   -4.2238    2.6437   15.7094 C   0  0  0  0  0  0  0  0  0  0  0  0
   -5.5685    2.6056   16.0484 C   0  0  0  0  0  0  0  0  0  0  0  0
   -6.4450    3.5924   15.6207 C   0  0  0  0  0  0  0  0  0  0  0  0
   -6.0426    4.7037   14.8232 C   0  0  0  0  0  0  0  0  0  0  0  0
   -6.2302    1.2407   17.0152 S   0  0  0  0  0  0  0  0  0  0  0  0
   -5.6946    1.4514   18.3910 O   0  0  0  0  0  0  0  0  0  0  0  0
   -7.7101    1.2562   16.7925 O   0  0  0  0  0  0  0  0  0  0  0  0
   -5.4441   -0.1161   16.4448 N   0  0  0  0  0  0  0  0  0  0  0  0
   -4.4460   -0.0381   16.6402 H   0  0  0  0  0  0  0  0  0  0  0  0
   -5.5883   -0.1946   15.4381 H   0  0  0  0  0  0  0  0  0  0  0  0
  3  4  1  0  0  0
  3  8  1  0  0  0
  4  5  2  0  0  0
  5  6  1  0  0  0
  6  7  2  0  0  0
  6  1  1  0  0  0
  7  8  1  0  0  0
  7 11  1  0  0  0
  8  9  2  0  0  0
  1 14  1  0  0  0
 15 16  2  0  0  0
 15 20  1  0  0  0
 15 14  1  0  0  0
 16 17  1  0  0  0
 17 18  2  0  0  0
 18 19  1  0  0  0
 18 21  1  0  0  0
 19 20  2  0  0  0
 21 22  2  0  0  0
 21 23  2  0  0  0
 21 24  1  0  0  0
 11 12  1  0  0  0
 11 13  2  0  0  0
  3 10  1  0  0  0
  1  2  1  0  0  0
 24 25  1  0  0  0
 24 26  1  0  0  0
M  CHG 1  11   1
M  CHG 1  12  -1
M  END
> <minimizedAffinity>
-7.20951

$$$$
3MHI_J90_A_263


 26 27  0  0  0  0  0  0  0  0999 V2000
   -3.6481    5.4648   12.4949 N   0  0  0  0  0  0  0  0  0  0  0  0
   -4.3115    5.1389   11.8446 H   0  0  0  0  0  0  0  0  0  0  0  0
    0.4293    5.5828   11.5867 N   0  0  0  0  0  0  0  0  0  0  0  0
   -0.1965    6.5644   12.1901 C   0  0  0  0  0  0  0  0  0  0  0  0
   -1.4869    6.4922   12.4568 N   0  0  0  0  0  0  0  0  0  0  0  0
   -2.2850    5.4633   12.1259 C   0  0  0  0  0  0  0  0  0  0  0  0
   -1.6887    4.3573   11.5130 C   0  0  0  0  0  0  0  0  0  0  0  0
   -0.3056    4.4832   11.2675 C   0  0  0  0  0  0  0  0  0  0  0  0
    0.3251    3.4459   10.6124 O   0  0  0  0  0  0  0  0  0  0  0  0
    1.3889    5.6390   11.3739 H   0  0  0  0  0  0  0  0  0  0  0  0
   -2.4636    3.0995   11.1152 N   0  0  0  0  0  0  0  0  0  0  0  0
   -2.4086    2.3029   12.0042 O   0  0  0  0  0  0  0  0  0  0  0  0
   -2.9144    3.2316   10.0427 O   0  0  0  0  0  0  0  0  0  0  0  0
   -4.1029    5.9134   13.7560 C   0  0  0  0  0  0  0  0  0  0  0  0
   -4.6108    4.7706   14.6360 C   0  0  0  0  0  0  0  0  0  0  0  0
   -3.7315    3.6852   15.0032 C   0  0  0  0  0  0  0  0  0  0  0  0
   -4.2343    2.6091   15.8194 C   0  0  0  0  0  0  0  0  0  0  0  0
   -5.5735    2.6443   16.1794 C   0  0  0  0  0  0  0  0  0  0  0  0
   -6.3962    3.6889   15.7832 C   0  0  0  0  0  0  0  0  0  0  0  0
   -5.9406    4.7890   14.9988 C   0  0  0  0  0  0  0  0  0  0  0  0
   -6.3005    1.3035   17.1329 S   0  0  0  0  0  0  0  0  0  0  0  0
   -7.7183    1.2339   16.6758 O   0  0  0  0  0  0  0  0  0  0  0  0
   -5.4049    0.1213   16.9324 O   0  0  0  0  0  0  0  0  0  0  0  0
   -6.3753    1.8757   18.6986 N   0  0  0  0  0  0  0  0  0  0  0  0
   -7.0056    2.6767   18.7382 H   0  0  0  0  0  0  0  0  0  0  0  0
   -5.4438    2.1608   19.0013 H   0  0  0  0  0  0  0  0  0  0  0  0
  3  4  1  0  0  0
  3  8  1  0  0  0
  4  5  2  0  0  0
  5  6  1  0  0  0
  6  7  2  0  0  0
  6  1  1  0  0  0
  7  8  1  0  0  0
  7 11  1  0  0  0
  8  9  2  0  0  0
  1 14  1  0  0  0
 15 16  2  0  0  0
 15 20  1  0  0  0
 15 14  1  0  0  0
 16 17  1  0  0  0
 17 18  2  0  0  0
 18 19  1  0  0  0
 18 21  1  0  0  0
 19 20  2  0  0  0
 21 22  2  0  0  0
 21 23  2  0  0  0
 21 24  1  0  0  0
 11 12  1  0  0  0
 11 13  2  0  0  0
  3 10  1  0  0  0
  1  2  1  0  0  0
 24 25  1  0  0  0
 24 26  1  0  0  0
M  CHG 1  11   1
M  CHG 1  12  -1
M  END
> <minimizedAffinity>
-6.97524

$$$$
3MHI_J90_A_263


 26 27  0  0  0  0  0  0  0  0999 V2000
   -3.0282    5.2447   12.8490 N   0  0  0  0  0  0  0  0  0  0  0  0
   -2.3556    5.1268   13.5582 H   0  0  0  0  0  0  0  0  0  0  0  0
   -1.6639    5.4629    8.9049 N   0  0  0  0  0  0  0  0  0  0  0  0
   -2.0615    6.5130    9.5821 C   0  0  0  0  0  0  0  0  0  0  0  0
   -2.4899    6.4039   10.8254 N   0  0  0  0  0  0  0  0  0  0  0  0
   -2.5967    5.2494   11.5044 C   0  0  0  0  0  0  0  0  0  0  0  0
   -2.1570    4.0851   10.8675 C   0  0  0  0  0  0  0  0  0  0  0  0
   -1.6946    4.2638    9.5472 C   0  0  0  0  0  0  0  0  0  0  0  0
   -1.3020    3.1408    8.8490 O   0  0  0  0  0  0  0  0  0  0  0  0
   -1.3567    5.5388    7.9727 H   0  0  0  0  0  0  0  0  0  0  0  0
   -2.1815    2.7061   11.5298 N   0  0  0  0  0  0  0  0  0  0  0  0
   -3.2965    2.2765   11.5088 O   0  0  0  0  0  0  0  0  0  0  0  0
   -1.1056    2.4181   11.8908 O   0  0  0  0  0  0  0  0  0  0  0  0
   -4.3826    5.4018   13.2224 C   0  0  0  0  0  0  0  0  0  0  0  0
   -4.7978    4.4420   14.3380 C   0  0  0  0  0  0  0  0  0  0  0  0
   -3.8713    3.4492   14.8298 C   0  0  0  0  0  0  0  0  0  0  0  0
   -4.2876    2.5430   15.8702 C   0  0  0  0  0  0  0  0  0  0  0  0
   -5.5952    2.6385   16.3233 C   0  0  0  0  0  0  0  0  0  0  0  0
   -6.4668    3.5861   15.8062 C   0  0  0  0  0  0  0  0  0  0  0  0
   -6.0955    4.5216   14.7963 C   0  0  0  0  0  0  0  0  0  0  0  0
   -6.2192    1.4969   17.5655 S   0  0  0  0  0  0  0  0  0  0  0  0
   -5.2921    0.3300   17.5128 O   0  0  0  0  0  0  0  0  0  0  0  0
   -6.3349    2.2869   18.8314 O   0  0  0  0  0  0  0  0  0  0  0  0
   -7.6641    0.9334   16.9498 N   0  0  0  0  0  0  0  0  0  0  0  0
   -7.4873    0.4100   16.0923 H   0  0  0  0  0  0  0  0  0  0  0  0
   -8.2777    1.7223   16.7462 H   0  0  0  0  0  0  0  0  0  0  0  0
  3  4  1  0  0  0
  3  8  1  0  0  0
  4  5  2  0  0  0
  5  6  1  0  0  0
  6  7  2  0  0  0
  6  1  1  0  0  0
  7  8  1  0  0  0
  7 11  1  0  0  0
  8  9  2  0  0  0
  1 14  1  0  0  0
 15 16  2  0  0  0
 15 20  1  0  0  0
 15 14  1  0  0  0
 16 17  1  0  0  0
 17 18  2  0  0  0
 18 19  1  0  0  0
 18 21  1  0  0  0
 19 20  2  0  0  0
 21 22  2  0  0  0
 21 23  2  0  0  0
 21 24  1  0  0  0
 11 12  1  0  0  0
 11 13  2  0  0  0
  3 10  1  0  0  0
  1  2  1  0  0  0
 24 25  1  0  0  0
 24 26  1  0  0  0
M  CHG 1  11   1
M  CHG 1  12  -1
M  END
> <minimizedAffinity>
-6.96482

$$$$
3MHI_J90_A_263


 26 27  0  0  0  0  0  0  0  0999 V2000
   -4.8277    3.3721   14.4001 N   0  0  0  0  0  0  0  0  0  0  0  0
   -4.9546    3.0157   13.4912 H   0  0  0  0  0  0  0  0  0  0  0  0
   -7.1588    1.7705   17.4767 N   0  0  0  0  0  0  0  0  0  0  0  0
   -7.2990    2.9989   17.0400 C   0  0  0  0  0  0  0  0  0  0  0  0
   -6.5409    3.4708   16.0685 N   0  0  0  0  0  0  0  0  0  0  0  0
   -5.5554    2.7891   15.4607 C   0  0  0  0  0  0  0  0  0  0  0  0
   -5.3646    1.4574   15.8409 C   0  0  0  0  0  0  0  0  0  0  0  0
   -6.2133    1.0020   16.8710 C   0  0  0  0  0  0  0  0  0  0  0  0
   -6.0315   -0.2870   17.3272 O   0  0  0  0  0  0  0  0  0  0  0  0
   -7.7133    1.4196   18.2106 H   0  0  0  0  0  0  0  0  0  0  0  0
   -4.3082    0.5480   15.2100 N   0  0  0  0  0  0  0  0  0  0  0  0
   -4.4798    0.5022   14.0283 O   0  0  0  0  0  0  0  0  0  0  0  0
   -3.5989    0.1255   16.0403 O   0  0  0  0  0  0  0  0  0  0  0  0
   -3.9252    4.4445   14.5850 C   0  0  0  0  0  0  0  0  0  0  0  0
   -2.8369    4.4858   13.5117 C   0  0  0  0  0  0  0  0  0  0  0  0
   -2.8726    3.5651   12.3994 C   0  0  0  0  0  0  0  0  0  0  0  0
   -1.8282    3.6092   11.4072 C   0  0  0  0  0  0  0  0  0  0  0  0
   -0.7964    4.5168   11.5971 C   0  0  0  0  0  0  0  0  0  0  0  0
   -0.7800    5.3660   12.6942 C   0  0  0  0  0  0  0  0  0  0  0  0
   -1.8023    5.3796   13.6880 C   0  0  0  0  0  0  0  0  0  0  0  0
    0.5853    4.5854   10.4474 S   0  0  0  0  0  0  0  0  0  0  0  0
    0.5340    3.2903    9.7099 O   0  0  0  0  0  0  0  0  0  0  0  0
    0.4306    5.8680    9.6918 O   0  0  0  0  0  0  0  0  0  0  0  0
    1.9498    4.4886   11.4031 N   0  0  0  0  0  0  0  0  0  0  0  0
    1.9701    3.5853   11.8764 H   0  0  0  0  0  0  0  0  0  0  0  0
    1.9324    5.2358   12.0973 H   0  0  0  0  0  0  0  0  0  0  0  0
  3  4  1  0  0  0
  3  8  1  0  0  0
  4  5  2  0  0  0
  5  6  1  0  0  0
  6  7  2  0  0  0
  6  1  1  0  0  0
  7  8  1  0  0  0
  7 11  1  0  0  0
  8  9  2  0  0  0
  1 14  1  0  0  0
 15 16  2  0  0  0
 15 20  1  0  0  0
 15 14  1  0  0  0
 16 17  1  0  0  0
 17 18  2  0  0  0
 18 19  1  0  0  0
 18 21  1  0  0  0
 19 20  2  0  0  0
 21 22  2  0  0  0
 21 23  2  0  0  0
 21 24  1  0  0  0
 11 12  1  0  0  0
 11 13  2  0  0  0
  3 10  1  0  0  0
  1  2  1  0  0  0
 24 25  1  0  0  0
 24 26  1  0  0  0
M  CHG 1  11   1
M  CHG 1  12  -1
M  END
> <minimizedAffinity>
-6.88841

$$$$
3MHI_J90_A_263


 26 27  0  0  0  0  0  0  0  0999 V2000
   -4.3737    2.6130   12.4312 N   0  0  0  0  0  0  0  0  0  0  0  0
   -4.6905    3.5416   12.3501 H   0  0  0  0  0  0  0  0  0  0  0  0
   -4.8378    0.4659   15.9864 N   0  0  0  0  0  0  0  0  0  0  0  0
   -4.3558   -0.0656   14.8889 C   0  0  0  0  0  0  0  0  0  0  0  0
   -4.2278    0.6437   13.7836 N   0  0  0  0  0  0  0  0  0  0  0  0
   -4.5917    1.9300   13.6479 C   0  0  0  0  0  0  0  0  0  0  0  0
   -5.0800    2.5840   14.7829 C   0  0  0  0  0  0  0  0  0  0  0  0
   -5.1797    1.7821   15.9387 C   0  0  0  0  0  0  0  0  0  0  0  0
   -5.7096    2.3589   17.0742 O   0  0  0  0  0  0  0  0  0  0  0  0
   -4.9474   -0.0640   16.8088 H   0  0  0  0  0  0  0  0  0  0  0  0
   -5.4964    4.0562   14.7888 N   0  0  0  0  0  0  0  0  0  0  0  0
   -6.6510    4.1424   14.4930 O   0  0  0  0  0  0  0  0  0  0  0  0
   -4.5825    4.7276   15.0801 O   0  0  0  0  0  0  0  0  0  0  0  0
   -3.7210    2.0232   11.3246 C   0  0  0  0  0  0  0  0  0  0  0  0
   -2.3214    2.5955   11.0966 C   0  0  0  0  0  0  0  0  0  0  0  0
   -1.8584    3.7231   11.8713 C   0  0  0  0  0  0  0  0  0  0  0  0
   -0.5422    4.2583   11.6296 C   0  0  0  0  0  0  0  0  0  0  0  0
    0.2105    3.6852   10.6150 C   0  0  0  0  0  0  0  0  0  0  0  0
   -0.2791    2.6213    9.8711 C   0  0  0  0  0  0  0  0  0  0  0  0
   -1.5624    2.0395   10.0891 C   0  0  0  0  0  0  0  0  0  0  0  0
    1.8326    4.3406   10.1968 S   0  0  0  0  0  0  0  0  0  0  0  0
    2.4889    3.2608    9.4048 O   0  0  0  0  0  0  0  0  0  0  0  0
    1.5881    5.6733    9.5610 O   0  0  0  0  0  0  0  0  0  0  0  0
    2.6663    4.3894   11.6415 N   0  0  0  0  0  0  0  0  0  0  0  0
    2.7850    3.4410   11.9977 H   0  0  0  0  0  0  0  0  0  0  0  0
    2.1416    4.9436   12.3182 H   0  0  0  0  0  0  0  0  0  0  0  0
  3  4  1  0  0  0
  3  8  1  0  0  0
  4  5  2  0  0  0
  5  6  1  0  0  0
  6  7  2  0  0  0
  6  1  1  0  0  0
  7  8  1  0  0  0
  7 11  1  0  0  0
  8  9  2  0  0  0
  1 14  1  0  0  0
 15 16  2  0  0  0
 15 20  1  0  0  0
 15 14  1  0  0  0
 16 17  1  0  0  0
 17 18  2  0  0  0
 18 19  1  0  0  0
 18 21  1  0  0  0
 19 20  2  0  0  0
 21 22  2  0  0  0
 21 23  2  0  0  0
 21 24  1  0  0  0
 11 12  1  0  0  0
 11 13  2  0  0  0
  3 10  1  0  0  0
  1  2  1  0  0  0
 24 25  1  0  0  0
 24 26  1  0  0  0
M  CHG 1  11   1
M  CHG 1  12  -1
M  END
> <minimizedAffinity>
-6.83106

$$$$
