3IW6_PP0_A_361


 29 31  0  0  0  0  0  0  0  0999 V2000
  -18.7315   -1.8908    7.1556 O   0  0  0  0  0  0  0  0  0  0  0  0
  -18.5578   -3.6840    2.9764 C   0  0  0  0  0  0  0  0  0  0  0  0
  -16.6588   -3.7200    4.5803 C   0  0  0  0  0  0  0  0  0  0  0  0
  -19.0187   -2.3678    3.6012 C   0  0  0  0  0  0  0  0  0  0  0  0
  -17.0073   -2.3623    5.1170 C   0  0  0  0  0  0  0  0  0  0  0  0
  -19.2390   -1.9853    6.0448 C   0  0  0  0  0  0  0  0  0  0  0  0
  -17.0938   -3.8785    3.1754 N   0  0  0  0  0  0  0  0  0  0  0  0
  -18.4680   -2.2222    4.9637 N   0  0  0  0  0  0  0  0  0  0  0  0
  -20.8239    0.5350    4.9418 C   0  0  0  0  0  0  0  0  0  0  0  0
  -21.4199   -4.1839    6.8503 C   0  0  0  0  0  0  0  0  0  0  0  0
  -21.4527   -0.7583    5.4595 C   0  0  0  0  0  0  0  0  0  0  0  0
  -21.6913   -2.8025    6.2822 C   0  0  0  0  0  0  0  0  0  0  0  0
  -20.7510   -1.8482    5.9273 C   0  0  0  0  0  0  0  0  0  0  0  0
  -22.8054   -1.0952    5.5518 C   0  0  0  0  0  0  0  0  0  0  0  0
  -22.9010   -2.3342    6.0425 N   0  0  0  0  0  0  0  0  0  0  0  0
  -24.9845   -3.2963    5.0207 C   0  0  0  0  0  0  0  0  0  0  0  0
  -24.1444   -3.0777    6.3100 C   0  0  0  0  0  0  0  0  0  0  0  0
  -24.7584    0.2268    5.9854 O   0  0  0  0  0  0  0  0  0  0  0  0
  -24.0106   -0.2523    5.1291 C   0  0  0  0  0  0  0  0  0  0  0  0
  -24.2043   -0.0044    3.7907 O   0  0  0  0  0  0  0  0  0  0  0  0
  -25.9155   -0.9770    2.2839 C   0  0  0  0  0  0  0  0  0  0  0  0
  -25.5794    0.1348    3.3074 C   0  0  0  0  0  0  0  0  0  0  0  0
  -16.8590   -5.2743    2.7858 C   0  0  0  0  0  0  0  0  0  0  0  0
  -12.6894   -6.2605    2.0312 C   0  0  0  0  0  0  0  0  0  0  0  0
  -13.4809   -7.0729    2.8538 C   0  0  0  0  0  0  0  0  0  0  0  0
  -13.2558   -5.1157    1.4594 C   0  0  0  0  0  0  0  0  0  0  0  0
  -14.8164   -6.7395    3.0991 C   0  0  0  0  0  0  0  0  0  0  0  0
  -14.5999   -4.7809    1.6937 C   0  0  0  0  0  0  0  0  0  0  0  0
  -15.3713   -5.5981    2.5216 C   0  0  0  0  0  0  0  0  0  0  0  0
 22 21  1  0  0  0
 16 17  1  0  0  0
  9 11  1  0  0  0
 12 10  1  0  0  0
 18 19  2  0  0  0
  6  1  2  0  0  0
 26 24  2  0  0  0
 24 25  1  0  0  0
 25 27  2  0  0  0
 26 28  1  0  0  0
 29 27  1  0  0  0
 28 29  2  0  0  0
 22 20  1  0  0  0
 15 17  1  0  0  0
  2  7  1  0  0  0
  2  4  1  0  0  0
  7  3  1  0  0  0
  3  5  1  0  0  0
  4  8  1  0  0  0
  8  5  1  0  0  0
 29 23  1  0  0  0
 23  7  1  0  0  0
 19 20  1  0  0  0
 19 14  1  0  0  0
  8  6  1  0  0  0
 13  6  1  0  0  0
 11 14  2  0  0  0
 11 13  1  0  0  0
 13 12  2  0  0  0
 15 12  1  0  0  0
 14 15  1  0  0  0
M  END
> <minimizedAffinity>
-9.20900

$$$$
3IW6_PP0_A_361


 29 31  0  0  0  0  0  0  0  0999 V2000
  -18.7257   -2.3510    7.2232 O   0  0  0  0  0  0  0  0  0  0  0  0
  -18.5102   -3.5708    2.8440 C   0  0  0  0  0  0  0  0  0  0  0  0
  -16.6361   -3.8471    4.4539 C   0  0  0  0  0  0  0  0  0  0  0  0
  -18.9650   -2.3439    3.6334 C   0  0  0  0  0  0  0  0  0  0  0  0
  -16.9767   -2.5688    5.1630 C   0  0  0  0  0  0  0  0  0  0  0  0
  -19.2176   -2.2891    6.1031 C   0  0  0  0  0  0  0  0  0  0  0  0
  -17.0517   -3.8101    3.0346 N   0  0  0  0  0  0  0  0  0  0  0  0
  -18.4332   -2.3896    5.0104 N   0  0  0  0  0  0  0  0  0  0  0  0
  -21.4150   -4.5292    6.5861 C   0  0  0  0  0  0  0  0  0  0  0  0
  -20.7737    0.3987    5.3330 C   0  0  0  0  0  0  0  0  0  0  0  0
  -21.6904   -3.0811    6.1823 C   0  0  0  0  0  0  0  0  0  0  0  0
  -21.3943   -0.9509    5.6463 C   0  0  0  0  0  0  0  0  0  0  0  0
  -20.7259   -2.1168    5.9848 C   0  0  0  0  0  0  0  0  0  0  0  0
  -22.9193   -2.4579    5.9513 C   0  0  0  0  0  0  0  0  0  0  0  0
  -22.6938   -1.1781    5.6411 N   0  0  0  0  0  0  0  0  0  0  0  0
  -24.0854   -0.1753    3.8058 C   0  0  0  0  0  0  0  0  0  0  0  0
  -23.7102   -0.1630    5.3141 C   0  0  0  0  0  0  0  0  0  0  0  0
  -24.7702   -3.3596    7.1806 O   0  0  0  0  0  0  0  0  0  0  0  0
  -24.3163   -3.0709    6.0703 C   0  0  0  0  0  0  0  0  0  0  0  0
  -25.0610   -3.2405    4.9271 O   0  0  0  0  0  0  0  0  0  0  0  0
  -27.1294   -2.3593    3.8831 C   0  0  0  0  0  0  0  0  0  0  0  0
  -26.5198   -3.1874    5.0404 C   0  0  0  0  0  0  0  0  0  0  0  0
  -16.8274   -5.1442    2.4647 C   0  0  0  0  0  0  0  0  0  0  0  0
  -12.6604   -6.3912    2.3788 C   0  0  0  0  0  0  0  0  0  0  0  0
  -13.6254   -7.1601    3.0427 C   0  0  0  0  0  0  0  0  0  0  0  0
  -13.0525   -5.2051    1.7482 C   0  0  0  0  0  0  0  0  0  0  0  0
  -14.9596   -6.7432    3.0741 C   0  0  0  0  0  0  0  0  0  0  0  0
  -14.3933   -4.7862    1.7674 C   0  0  0  0  0  0  0  0  0  0  0  0
  -15.3397   -5.5613    2.4396 C   0  0  0  0  0  0  0  0  0  0  0  0
 22 21  1  0  0  0
 16 17  1  0  0  0
  9 11  1  0  0  0
 12 10  1  0  0  0
 18 19  2  0  0  0
  6  1  2  0  0  0
 26 24  2  0  0  0
 24 25  1  0  0  0
 25 27  2  0  0  0
 26 28  1  0  0  0
 29 27  1  0  0  0
 28 29  2  0  0  0
 22 20  1  0  0  0
 15 17  1  0  0  0
  2  7  1  0  0  0
  2  4  1  0  0  0
  7  3  1  0  0  0
  3  5  1  0  0  0
  4  8  1  0  0  0
  8  5  1  0  0  0
 29 23  1  0  0  0
 23  7  1  0  0  0
 19 20  1  0  0  0
 19 14  1  0  0  0
  8  6  1  0  0  0
 13  6  1  0  0  0
 11 14  2  0  0  0
 11 13  1  0  0  0
 13 12  2  0  0  0
 15 12  1  0  0  0
 14 15  1  0  0  0
M  END
> <minimizedAffinity>
-9.11725

$$$$
3IW6_PP0_A_361


 29 31  0  0  0  0  0  0  0  0999 V2000
  -18.1062   -0.4543    4.5831 O   0  0  0  0  0  0  0  0  0  0  0  0
  -20.9013   -3.8741    5.6805 C   0  0  0  0  0  0  0  0  0  0  0  0
  -21.3740   -1.4841    6.1753 C   0  0  0  0  0  0  0  0  0  0  0  0
  -19.4091   -3.5735    5.8149 C   0  0  0  0  0  0  0  0  0  0  0  0
  -19.9277   -1.1923    6.4508 C   0  0  0  0  0  0  0  0  0  0  0  0
  -18.2669   -1.6612    4.7173 C   0  0  0  0  0  0  0  0  0  0  0  0
  -21.7092   -2.8960    6.4625 N   0  0  0  0  0  0  0  0  0  0  0  0
  -19.1529   -2.1324    5.6186 N   0  0  0  0  0  0  0  0  0  0  0  0
  -16.0590   -3.7290    5.6817 C   0  0  0  0  0  0  0  0  0  0  0  0
  -18.4801   -1.9345    1.5363 C   0  0  0  0  0  0  0  0  0  0  0  0
  -16.4923   -3.4960    4.2346 C   0  0  0  0  0  0  0  0  0  0  0  0
  -17.5527   -2.7113    2.4535 C   0  0  0  0  0  0  0  0  0  0  0  0
  -17.4593   -2.6005    3.8318 C   0  0  0  0  0  0  0  0  0  0  0  0
  -16.0295   -4.1202    3.0735 C   0  0  0  0  0  0  0  0  0  0  0  0
  -16.7001   -3.6244    2.0298 N   0  0  0  0  0  0  0  0  0  0  0  0
  -15.3045   -3.2775   -0.0300 C   0  0  0  0  0  0  0  0  0  0  0  0
  -16.5215   -3.9973    0.6157 C   0  0  0  0  0  0  0  0  0  0  0  0
  -15.2937   -6.4007    3.1615 O   0  0  0  0  0  0  0  0  0  0  0  0
  -14.9770   -5.2253    2.9613 C   0  0  0  0  0  0  0  0  0  0  0  0
  -13.6994   -4.8826    2.5861 O   0  0  0  0  0  0  0  0  0  0  0  0
  -11.8888   -6.5407    2.9283 C   0  0  0  0  0  0  0  0  0  0  0  0
  -12.8788   -5.8996    1.9256 C   0  0  0  0  0  0  0  0  0  0  0  0
  -23.0887   -3.1308    6.0188 C   0  0  0  0  0  0  0  0  0  0  0  0
  -25.7723   -4.5356    9.1415 C   0  0  0  0  0  0  0  0  0  0  0  0
  -26.2598   -3.7943    8.0571 C   0  0  0  0  0  0  0  0  0  0  0  0
  -24.4025   -4.8124    9.2146 C   0  0  0  0  0  0  0  0  0  0  0  0
  -25.3862   -3.3375    7.0656 C   0  0  0  0  0  0  0  0  0  0  0  0
  -23.5212   -4.3651    8.2162 C   0  0  0  0  0  0  0  0  0  0  0  0
  -24.0236   -3.6219    7.1469 C   0  0  0  0  0  0  0  0  0  0  0  0
 22 21  1  0  0  0
 16 17  1  0  0  0
  9 11  1  0  0  0
 12 10  1  0  0  0
 18 19  2  0  0  0
  6  1  2  0  0  0
 26 24  2  0  0  0
 24 25  1  0  0  0
 25 27  2  0  0  0
 26 28  1  0  0  0
 29 27  1  0  0  0
 28 29  2  0  0  0
 22 20  1  0  0  0
 15 17  1  0  0  0
  2  7  1  0  0  0
  2  4  1  0  0  0
  7  3  1  0  0  0
  3  5  1  0  0  0
  4  8  1  0  0  0
  8  5  1  0  0  0
 29 23  1  0  0  0
 23  7  1  0  0  0
 19 20  1  0  0  0
 19 14  1  0  0  0
  8  6  1  0  0  0
 13  6  1  0  0  0
 11 14  2  0  0  0
 11 13  1  0  0  0
 13 12  2  0  0  0
 15 12  1  0  0  0
 14 15  1  0  0  0
M  END
> <minimizedAffinity>
-7.37050

$$$$
3IW6_PP0_A_361


 29 31  0  0  0  0  0  0  0  0999 V2000
  -17.9496   -0.4690    4.9685 O   0  0  0  0  0  0  0  0  0  0  0  0
  -20.7643   -4.0099    5.4691 C   0  0  0  0  0  0  0  0  0  0  0  0
  -21.2111   -1.7433    6.3872 C   0  0  0  0  0  0  0  0  0  0  0  0
  -19.2683   -3.7486    5.6386 C   0  0  0  0  0  0  0  0  0  0  0  0
  -19.7598   -1.5155    6.6945 C   0  0  0  0  0  0  0  0  0  0  0  0
  -18.1197   -1.6793    4.8871 C   0  0  0  0  0  0  0  0  0  0  0  0
  -21.5560   -3.1814    6.4217 N   0  0  0  0  0  0  0  0  0  0  0  0
  -19.0012   -2.2974    5.6996 N   0  0  0  0  0  0  0  0  0  0  0  0
  -18.5982   -1.6305    1.7488 C   0  0  0  0  0  0  0  0  0  0  0  0
  -15.6553   -3.6472    5.4282 C   0  0  0  0  0  0  0  0  0  0  0  0
  -17.5305   -2.4470    2.4763 C   0  0  0  0  0  0  0  0  0  0  0  0
  -16.2649   -3.3060    4.0803 C   0  0  0  0  0  0  0  0  0  0  0  0
  -17.3289   -2.4512    3.8396 C   0  0  0  0  0  0  0  0  0  0  0  0
  -16.5734   -3.3101    1.9369 C   0  0  0  0  0  0  0  0  0  0  0  0
  -15.8303   -3.7960    2.9352 N   0  0  0  0  0  0  0  0  0  0  0  0
  -15.2024   -6.2244    2.7967 C   0  0  0  0  0  0  0  0  0  0  0  0
  -14.7135   -4.7490    2.8133 C   0  0  0  0  0  0  0  0  0  0  0  0
  -15.2205   -3.4650   -0.0369 O   0  0  0  0  0  0  0  0  0  0  0  0
  -16.3356   -3.6389    0.4614 C   0  0  0  0  0  0  0  0  0  0  0  0
  -17.3700   -4.1741   -0.2692 O   0  0  0  0  0  0  0  0  0  0  0  0
  -18.8459   -4.3112   -2.2561 C   0  0  0  0  0  0  0  0  0  0  0  0
  -17.7586   -3.5003   -1.5098 C   0  0  0  0  0  0  0  0  0  0  0  0
  -22.9417   -3.3236    5.9583 C   0  0  0  0  0  0  0  0  0  0  0  0
  -25.6764   -4.3638    9.1780 C   0  0  0  0  0  0  0  0  0  0  0  0
  -24.3299   -4.7479    9.2287 C   0  0  0  0  0  0  0  0  0  0  0  0
  -26.1370   -3.6459    8.0686 C   0  0  0  0  0  0  0  0  0  0  0  0
  -23.4629   -4.4186    8.1824 C   0  0  0  0  0  0  0  0  0  0  0  0
  -25.2685   -3.3031    7.0190 C   0  0  0  0  0  0  0  0  0  0  0  0
  -23.9319   -3.7002    7.0832 C   0  0  0  0  0  0  0  0  0  0  0  0
 22 21  1  0  0  0
 16 17  1  0  0  0
  9 11  1  0  0  0
 12 10  1  0  0  0
 18 19  2  0  0  0
  6  1  2  0  0  0
 26 24  2  0  0  0
 24 25  1  0  0  0
 25 27  2  0  0  0
 26 28  1  0  0  0
 29 27  1  0  0  0
 28 29  2  0  0  0
 22 20  1  0  0  0
 15 17  1  0  0  0
  2  7  1  0  0  0
  2  4  1  0  0  0
  7  3  1  0  0  0
  3  5  1  0  0  0
  4  8  1  0  0  0
  8  5  1  0  0  0
 29 23  1  0  0  0
 23  7  1  0  0  0
 19 20  1  0  0  0
 19 14  1  0  0  0
  8  6  1  0  0  0
 13  6  1  0  0  0
 11 14  2  0  0  0
 11 13  1  0  0  0
 13 12  2  0  0  0
 15 12  1  0  0  0
 14 15  1  0  0  0
M  END
> <minimizedAffinity>
-7.31321

$$$$
3IW6_PP0_A_361


 29 31  0  0  0  0  0  0  0  0999 V2000
  -24.9361   -3.3361    5.8897 O   0  0  0  0  0  0  0  0  0  0  0  0
  -21.9586   -0.0730    4.7951 C   0  0  0  0  0  0  0  0  0  0  0  0
  -21.3254   -2.4361    5.2366 C   0  0  0  0  0  0  0  0  0  0  0  0
  -23.1177   -0.2336    5.7778 C   0  0  0  0  0  0  0  0  0  0  0  0
  -22.3667   -2.5784    6.3081 C   0  0  0  0  0  0  0  0  0  0  0  0
  -24.7093   -2.1396    5.7579 C   0  0  0  0  0  0  0  0  0  0  0  0
  -20.8651   -1.0362    5.1068 N   0  0  0  0  0  0  0  0  0  0  0  0
  -23.4619   -1.6604    5.9415 N   0  0  0  0  0  0  0  0  0  0  0  0
  -25.2428   -0.9044    2.8822 C   0  0  0  0  0  0  0  0  0  0  0  0
  -27.0574   -1.1071    7.6708 C   0  0  0  0  0  0  0  0  0  0  0  0
  -26.1010   -0.6741    4.1257 C   0  0  0  0  0  0  0  0  0  0  0  0
  -26.8738   -0.7769    6.2005 C   0  0  0  0  0  0  0  0  0  0  0  0
  -25.8618   -1.2247    5.3662 C   0  0  0  0  0  0  0  0  0  0  0  0
  -27.2591    0.0965    4.2567 C   0  0  0  0  0  0  0  0  0  0  0  0
  -27.6932   -0.0017    5.5164 N   0  0  0  0  0  0  0  0  0  0  0  0
  -30.1698   -0.1851    5.8949 C   0  0  0  0  0  0  0  0  0  0  0  0
  -28.8790    0.6588    6.0890 C   0  0  0  0  0  0  0  0  0  0  0  0
  -28.7141    0.3125    2.3629 O   0  0  0  0  0  0  0  0  0  0  0  0
  -27.9810    0.8930    3.1677 C   0  0  0  0  0  0  0  0  0  0  0  0
  -27.8331    2.2597    3.1435 O   0  0  0  0  0  0  0  0  0  0  0  0
  -25.9755    2.6214    1.5424 C   0  0  0  0  0  0  0  0  0  0  0  0
  -26.4821    2.8042    2.9939 C   0  0  0  0  0  0  0  0  0  0  0  0
  -19.9748   -0.9608    3.9420 C   0  0  0  0  0  0  0  0  0  0  0  0
  -16.3339   -3.3146    4.3028 C   0  0  0  0  0  0  0  0  0  0  0  0
  -17.2894   -3.6175    3.3239 C   0  0  0  0  0  0  0  0  0  0  0  0
  -16.5697   -2.2461    5.1751 C   0  0  0  0  0  0  0  0  0  0  0  0
  -18.4616   -2.8617    3.2251 C   0  0  0  0  0  0  0  0  0  0  0  0
  -17.7407   -1.4765    5.0742 C   0  0  0  0  0  0  0  0  0  0  0  0
  -18.6848   -1.7972    4.0974 C   0  0  0  0  0  0  0  0  0  0  0  0
 22 21  1  0  0  0
 16 17  1  0  0  0
  9 11  1  0  0  0
 12 10  1  0  0  0
 18 19  2  0  0  0
  6  1  2  0  0  0
 26 24  2  0  0  0
 24 25  1  0  0  0
 25 27  2  0  0  0
 26 28  1  0  0  0
 29 27  1  0  0  0
 28 29  2  0  0  0
 22 20  1  0  0  0
 15 17  1  0  0  0
  2  7  1  0  0  0
  2  4  1  0  0  0
  7  3  1  0  0  0
  3  5  1  0  0  0
  4  8  1  0  0  0
  8  5  1  0  0  0
 29 23  1  0  0  0
 23  7  1  0  0  0
 19 20  1  0  0  0
 19 14  1  0  0  0
  8  6  1  0  0  0
 13  6  1  0  0  0
 11 14  2  0  0  0
 11 13  1  0  0  0
 13 12  2  0  0  0
 15 12  1  0  0  0
 14 15  1  0  0  0
M  END
> <minimizedAffinity>
-6.62112

$$$$
3IW6_PP0_A_361


 29 31  0  0  0  0  0  0  0  0999 V2000
  -19.1726   -2.5082    7.5713 O   0  0  0  0  0  0  0  0  0  0  0  0
  -18.0686   -2.5631    3.1565 C   0  0  0  0  0  0  0  0  0  0  0  0
  -16.5086   -3.2019    4.9836 C   0  0  0  0  0  0  0  0  0  0  0  0
  -18.7461   -1.5887    4.1192 C   0  0  0  0  0  0  0  0  0  0  0  0
  -17.0630   -2.1549    5.9052 C   0  0  0  0  0  0  0  0  0  0  0  0
  -19.4527   -2.1724    6.4271 C   0  0  0  0  0  0  0  0  0  0  0  0
  -16.6571   -2.8122    3.5644 N   0  0  0  0  0  0  0  0  0  0  0  0
  -18.4753   -1.9736    5.5190 N   0  0  0  0  0  0  0  0  0  0  0  0
  -20.8463    0.4753    5.3651 C   0  0  0  0  0  0  0  0  0  0  0  0
  -21.7167   -4.4290    6.5718 C   0  0  0  0  0  0  0  0  0  0  0  0
  -21.5421   -0.8636    5.6084 C   0  0  0  0  0  0  0  0  0  0  0  0
  -21.8991   -2.9879    6.1307 C   0  0  0  0  0  0  0  0  0  0  0  0
  -20.9217   -2.0077    6.0616 C   0  0  0  0  0  0  0  0  0  0  0  0
  -22.8861   -1.1959    5.4205 C   0  0  0  0  0  0  0  0  0  0  0  0
  -23.0528   -2.4829    5.7379 N   0  0  0  0  0  0  0  0  0  0  0  0
  -25.1095   -3.1340    7.0249 C   0  0  0  0  0  0  0  0  0  0  0  0
  -24.3155   -3.2405    5.6929 C   0  0  0  0  0  0  0  0  0  0  0  0
  -24.7394    0.3025    5.6848 O   0  0  0  0  0  0  0  0  0  0  0  0
  -24.0072   -0.2975    4.8937 C   0  0  0  0  0  0  0  0  0  0  0  0
  -24.1408   -0.1393    3.5345 O   0  0  0  0  0  0  0  0  0  0  0  0
  -25.9505   -1.6405    2.7495 C   0  0  0  0  0  0  0  0  0  0  0  0
  -25.4893   -0.1785    2.9653 C   0  0  0  0  0  0  0  0  0  0  0  0
  -16.2384   -3.9512    2.7382 C   0  0  0  0  0  0  0  0  0  0  0  0
  -16.5787   -3.2735   -1.5457 C   0  0  0  0  0  0  0  0  0  0  0  0
  -15.3666   -3.0520   -0.8787 C   0  0  0  0  0  0  0  0  0  0  0  0
  -17.6884   -3.7082   -0.8122 C   0  0  0  0  0  0  0  0  0  0  0  0
  -15.2722   -3.2614    0.5004 C   0  0  0  0  0  0  0  0  0  0  0  0
  -17.5971   -3.9304    0.5719 C   0  0  0  0  0  0  0  0  0  0  0  0
  -16.3834   -3.6978    1.2208 C   0  0  0  0  0  0  0  0  0  0  0  0
 22 21  1  0  0  0
 16 17  1  0  0  0
  9 11  1  0  0  0
 12 10  1  0  0  0
 18 19  2  0  0  0
  6  1  2  0  0  0
 26 24  2  0  0  0
 24 25  1  0  0  0
 25 27  2  0  0  0
 26 28  1  0  0  0
 29 27  1  0  0  0
 28 29  2  0  0  0
 22 20  1  0  0  0
 15 17  1  0  0  0
  2  7  1  0  0  0
  2  4  1  0  0  0
  7  3  1  0  0  0
  3  5  1  0  0  0
  4  8  1  0  0  0
  8  5  1  0  0  0
 29 23  1  0  0  0
 23  7  1  0  0  0
 19 20  1  0  0  0
 19 14  1  0  0  0
  8  6  1  0  0  0
 13  6  1  0  0  0
 11 14  2  0  0  0
 11 13  1  0  0  0
 13 12  2  0  0  0
 15 12  1  0  0  0
 14 15  1  0  0  0
M  END
> <minimizedAffinity>
-6.60936

$$$$
