3WTJ_TH4_A_301


 16 17  0  0  0  0  0  0  0  0999 V2000
   29.6039  -26.2437  -27.4585 C   0  0  0  0  0  0  0  0  0  0  0  0
   29.6382  -24.6923  -29.5059 C   0  0  0  0  0  0  0  0  0  0  0  0
   29.7642  -24.5118  -30.9111 C   0  0  0  0  0  0  0  0  0  0  0  0
   29.9499  -25.6534  -31.7351 C   0  0  0  0  0  0  0  0  0  0  0  0
   30.1401  -25.4779  -33.5061 Cl  0  0  0  0  0  0  0  0  0  0  0  0
   29.9960  -26.9145  -31.1676 N   0  0  0  0  0  0  0  0  0  0  0  0
   29.8768  -27.1108  -29.8234 C   0  0  0  0  0  0  0  0  0  0  0  0
   29.7002  -26.0085  -28.9557 C   0  0  0  0  0  0  0  0  0  0  0  0
   30.7899  -26.7800  -26.7964 N   0  0  0  0  0  0  0  0  0  0  0  0
   31.7894  -25.8244  -26.2964 C   0  0  0  0  0  0  0  0  0  0  0  0
   32.9147  -26.6388  -25.6473 C   0  0  0  0  0  0  0  0  0  0  0  0
   32.4651  -28.3250  -25.8123 S   0  0  0  0  0  0  0  0  0  0  0  0
   31.0199  -28.0863  -26.6092 C   0  0  0  0  0  0  0  0  0  0  0  0
   30.2194  -29.0216  -26.9964 N   0  0  0  0  0  0  0  0  0  0  0  0
   30.4356  -30.2175  -26.8218 C   0  0  0  0  0  0  0  0  0  0  0  0
   30.6295  -31.3518  -26.6721 N   0  0  0  0  0  0  0  0  0  0  0  0
  3  2  2  0  0  0
  2  8  1  0  0  0
  3  4  1  0  0  0
  5  4  1  0  0  0
  4  6  2  0  0  0
  6  7  1  0  0  0
  8  7  2  0  0  0
  8  1  1  0  0  0
  1  9  1  0  0  0
  9 13  1  0  0  0
  9 10  1  0  0  0
 10 11  1  0  0  0
 12 11  1  0  0  0
 13 12  1  0  0  0
 14 13  2  0  0  0
 14 15  1  0  0  0
 15 16  3  0  0  0
M  END
> <minimizedAffinity>
-6.78554

$$$$
3WTJ_TH4_A_301


 16 17  0  0  0  0  0  0  0  0999 V2000
   28.7305  -26.5477  -29.9286 C   0  0  0  0  0  0  0  0  0  0  0  0
   29.5984  -25.5847  -27.7107 C   0  0  0  0  0  0  0  0  0  0  0  0
   30.5634  -25.5782  -26.6658 C   0  0  0  0  0  0  0  0  0  0  0  0
   31.6636  -26.4728  -26.7429 C   0  0  0  0  0  0  0  0  0  0  0  0
   32.8910  -26.5223  -25.4411 Cl  0  0  0  0  0  0  0  0  0  0  0  0
   31.7868  -27.3239  -27.8268 N   0  0  0  0  0  0  0  0  0  0  0  0
   30.8742  -27.3467  -28.8398 C   0  0  0  0  0  0  0  0  0  0  0  0
   29.7543  -26.4841  -28.8087 C   0  0  0  0  0  0  0  0  0  0  0  0
   29.2259  -26.3520  -31.2884 N   0  0  0  0  0  0  0  0  0  0  0  0
   29.4854  -27.5475  -32.1043 C   0  0  0  0  0  0  0  0  0  0  0  0
   29.9841  -27.0671  -33.4722 C   0  0  0  0  0  0  0  0  0  0  0  0
   30.0029  -25.3155  -33.4058 S   0  0  0  0  0  0  0  0  0  0  0  0
   29.4507  -25.1527  -31.8409 C   0  0  0  0  0  0  0  0  0  0  0  0
   29.2578  -24.0313  -31.2319 N   0  0  0  0  0  0  0  0  0  0  0  0
   29.4655  -22.9348  -31.7438 C   0  0  0  0  0  0  0  0  0  0  0  0
   29.6504  -21.8904  -32.2145 N   0  0  0  0  0  0  0  0  0  0  0  0
  3  2  2  0  0  0
  2  8  1  0  0  0
  3  4  1  0  0  0
  5  4  1  0  0  0
  4  6  2  0  0  0
  6  7  1  0  0  0
  8  7  2  0  0  0
  8  1  1  0  0  0
  1  9  1  0  0  0
  9 13  1  0  0  0
  9 10  1  0  0  0
 10 11  1  0  0  0
 12 11  1  0  0  0
 13 12  1  0  0  0
 14 13  2  0  0  0
 14 15  1  0  0  0
 15 16  3  0  0  0
M  END
> <minimizedAffinity>
-6.53488

$$$$
3WTJ_TH4_A_301


 16 17  0  0  0  0  0  0  0  0999 V2000
   28.8347  -26.4539  -29.6152 C   0  0  0  0  0  0  0  0  0  0  0  0
   31.0270  -27.2916  -28.5704 C   0  0  0  0  0  0  0  0  0  0  0  0
   31.9795  -27.2560  -27.5146 C   0  0  0  0  0  0  0  0  0  0  0  0
   31.7430  -26.4000  -26.4064 C   0  0  0  0  0  0  0  0  0  0  0  0
   32.9233  -26.2989  -25.0647 Cl  0  0  0  0  0  0  0  0  0  0  0  0
   30.5965  -25.6266  -26.3636 N   0  0  0  0  0  0  0  0  0  0  0  0
   29.6699  -25.6454  -27.3640 C   0  0  0  0  0  0  0  0  0  0  0  0
   29.8602  -26.4720  -28.4953 C   0  0  0  0  0  0  0  0  0  0  0  0
   29.2349  -25.8176  -30.8672 N   0  0  0  0  0  0  0  0  0  0  0  0
   29.4001  -24.3565  -30.8737 C   0  0  0  0  0  0  0  0  0  0  0  0
   29.8253  -23.9515  -32.2901 C   0  0  0  0  0  0  0  0  0  0  0  0
   29.9124  -25.4324  -33.2240 S   0  0  0  0  0  0  0  0  0  0  0  0
   29.4684  -26.4819  -32.0066 C   0  0  0  0  0  0  0  0  0  0  0  0
   29.3629  -27.7624  -32.1287 N   0  0  0  0  0  0  0  0  0  0  0  0
   29.5786  -28.3659  -33.1759 C   0  0  0  0  0  0  0  0  0  0  0  0
   29.7854  -28.9523  -34.1557 N   0  0  0  0  0  0  0  0  0  0  0  0
  3  2  2  0  0  0
  2  8  1  0  0  0
  3  4  1  0  0  0
  5  4  1  0  0  0
  4  6  2  0  0  0
  6  7  1  0  0  0
  8  7  2  0  0  0
  8  1  1  0  0  0
  1  9  1  0  0  0
  9 13  1  0  0  0
  9 10  1  0  0  0
 10 11  1  0  0  0
 12 11  1  0  0  0
 13 12  1  0  0  0
 14 13  2  0  0  0
 14 15  1  0  0  0
 15 16  3  0  0  0
M  END
> <minimizedAffinity>
-6.41837

$$$$
3WTJ_TH4_A_301


 16 17  0  0  0  0  0  0  0  0999 V2000
   28.6024  -26.2656  -29.6080 C   0  0  0  0  0  0  0  0  0  0  0  0
   29.4477  -25.7311  -27.2417 C   0  0  0  0  0  0  0  0  0  0  0  0
   30.4488  -25.8445  -26.2376 C   0  0  0  0  0  0  0  0  0  0  0  0
   31.6395  -26.5594  -26.5343 C   0  0  0  0  0  0  0  0  0  0  0  0
   32.9183  -26.7534  -25.2971 Cl  0  0  0  0  0  0  0  0  0  0  0  0
   31.8131  -27.1225  -27.7862 N   0  0  0  0  0  0  0  0  0  0  0  0
   30.8671  -27.0256  -28.7636 C   0  0  0  0  0  0  0  0  0  0  0  0
   29.6586  -26.3337  -28.5188 C   0  0  0  0  0  0  0  0  0  0  0  0
   28.9949  -25.6461  -30.8709 N   0  0  0  0  0  0  0  0  0  0  0  0
   29.0645  -24.1782  -30.9242 C   0  0  0  0  0  0  0  0  0  0  0  0
   29.5015  -23.7933  -32.3426 C   0  0  0  0  0  0  0  0  0  0  0  0
   29.7110  -25.2954  -33.2216 S   0  0  0  0  0  0  0  0  0  0  0  0
   29.3029  -26.3310  -31.9800 C   0  0  0  0  0  0  0  0  0  0  0  0
   29.2846  -27.6190  -32.0599 N   0  0  0  0  0  0  0  0  0  0  0  0
   29.5682  -28.2413  -33.0795 C   0  0  0  0  0  0  0  0  0  0  0  0
   29.8544  -28.8305  -34.0375 N   0  0  0  0  0  0  0  0  0  0  0  0
  3  2  2  0  0  0
  2  8  1  0  0  0
  3  4  1  0  0  0
  5  4  1  0  0  0
  4  6  2  0  0  0
  6  7  1  0  0  0
  8  7  2  0  0  0
  8  1  1  0  0  0
  1  9  1  0  0  0
  9 13  1  0  0  0
  9 10  1  0  0  0
 10 11  1  0  0  0
 12 11  1  0  0  0
 13 12  1  0  0  0
 14 13  2  0  0  0
 14 15  1  0  0  0
 15 16  3  0  0  0
M  END
> <minimizedAffinity>
-5.82989

$$$$
3WTJ_TH4_A_301


 16 17  0  0  0  0  0  0  0  0999 V2000
   30.4982  -27.5914  -28.8387 C   0  0  0  0  0  0  0  0  0  0  0  0
   32.0128  -26.3839  -27.1513 C   0  0  0  0  0  0  0  0  0  0  0  0
   32.6056  -26.3136  -25.8602 C   0  0  0  0  0  0  0  0  0  0  0  0
   32.3491  -27.3557  -24.9303 C   0  0  0  0  0  0  0  0  0  0  0  0
   33.0497  -27.3012  -23.2841 Cl  0  0  0  0  0  0  0  0  0  0  0  0
   31.5419  -28.4200  -25.2911 N   0  0  0  0  0  0  0  0  0  0  0  0
   30.9639  -28.5081  -26.5231 C   0  0  0  0  0  0  0  0  0  0  0  0
   31.1778  -27.4932  -27.4841 C   0  0  0  0  0  0  0  0  0  0  0  0
   30.1145  -26.3357  -29.4778 N   0  0  0  0  0  0  0  0  0  0  0  0
   29.6871  -25.2263  -28.6124 C   0  0  0  0  0  0  0  0  0  0  0  0
   29.3513  -24.0398  -29.5237 C   0  0  0  0  0  0  0  0  0  0  0  0
   29.6420  -24.5785  -31.1663 S   0  0  0  0  0  0  0  0  0  0  0  0
   30.1352  -26.1290  -30.8011 C   0  0  0  0  0  0  0  0  0  0  0  0
   30.4944  -27.0191  -31.6639 N   0  0  0  0  0  0  0  0  0  0  0  0
   30.5116  -26.8236  -32.8758 C   0  0  0  0  0  0  0  0  0  0  0  0
   30.5231  -26.6571  -34.0242 N   0  0  0  0  0  0  0  0  0  0  0  0
  3  2  2  0  0  0
  2  8  1  0  0  0
  3  4  1  0  0  0
  5  4  1  0  0  0
  4  6  2  0  0  0
  6  7  1  0  0  0
  8  7  2  0  0  0
  8  1  1  0  0  0
  1  9  1  0  0  0
  9 13  1  0  0  0
  9 10  1  0  0  0
 10 11  1  0  0  0
 12 11  1  0  0  0
 13 12  1  0  0  0
 14 13  2  0  0  0
 14 15  1  0  0  0
 15 16  3  0  0  0
M  END
> <minimizedAffinity>
-5.59343

$$$$
3WTJ_TH4_A_301


 16 17  0  0  0  0  0  0  0  0999 V2000
   29.4926  -25.0564  -28.0673 C   0  0  0  0  0  0  0  0  0  0  0  0
   29.5501  -26.4966  -30.1938 C   0  0  0  0  0  0  0  0  0  0  0  0
   29.6434  -26.5975  -31.6095 C   0  0  0  0  0  0  0  0  0  0  0  0
   29.8056  -25.4108  -32.3724 C   0  0  0  0  0  0  0  0  0  0  0  0
   29.9017  -25.4813  -34.1583 Cl  0  0  0  0  0  0  0  0  0  0  0  0
   29.8797  -24.1849  -31.7350 N   0  0  0  0  0  0  0  0  0  0  0  0
   29.7932  -24.0648  -30.3793 C   0  0  0  0  0  0  0  0  0  0  0  0
   29.6213  -25.2131  -29.5723 C   0  0  0  0  0  0  0  0  0  0  0  0
   29.8422  -26.2152  -27.2502 N   0  0  0  0  0  0  0  0  0  0  0  0
   28.7488  -26.9550  -26.6027 C   0  0  0  0  0  0  0  0  0  0  0  0
   29.3809  -28.1134  -25.8221 C   0  0  0  0  0  0  0  0  0  0  0  0
   31.1110  -27.9994  -26.0802 S   0  0  0  0  0  0  0  0  0  0  0  0
   31.0947  -26.6506  -27.0606 C   0  0  0  0  0  0  0  0  0  0  0  0
   32.1375  -26.0924  -27.5769 N   0  0  0  0  0  0  0  0  0  0  0  0
   33.2833  -26.4963  -27.3997 C   0  0  0  0  0  0  0  0  0  0  0  0
   34.3609  -26.8852  -27.2153 N   0  0  0  0  0  0  0  0  0  0  0  0
  3  2  2  0  0  0
  2  8  1  0  0  0
  3  4  1  0  0  0
  5  4  1  0  0  0
  4  6  2  0  0  0
  6  7  1  0  0  0
  8  7  2  0  0  0
  8  1  1  0  0  0
  1  9  1  0  0  0
  9 13  1  0  0  0
  9 10  1  0  0  0
 10 11  1  0  0  0
 12 11  1  0  0  0
 13 12  1  0  0  0
 14 13  2  0  0  0
 14 15  1  0  0  0
 15 16  3  0  0  0
M  END
> <minimizedAffinity>
-4.57067

$$$$
3WTJ_TH4_A_301


 16 17  0  0  0  0  0  0  0  0999 V2000
   30.8855  -27.1640  -33.5061 C   0  0  0  0  0  0  0  0  0  0  0  0
   28.7068  -28.4898  -33.8140 C   0  0  0  0  0  0  0  0  0  0  0  0
   28.0368  -29.6838  -34.1996 C   0  0  0  0  0  0  0  0  0  0  0  0
   28.8087  -30.7916  -34.6397 C   0  0  0  0  0  0  0  0  0  0  0  0
   28.0127  -32.3076  -35.1608 Cl  0  0  0  0  0  0  0  0  0  0  0  0
   30.1888  -30.6998  -34.6784 N   0  0  0  0  0  0  0  0  0  0  0  0
   30.8517  -29.5655  -34.3129 C   0  0  0  0  0  0  0  0  0  0  0  0
   30.1319  -28.4294  -33.8764 C   0  0  0  0  0  0  0  0  0  0  0  0
   30.1387  -26.1380  -32.7835 N   0  0  0  0  0  0  0  0  0  0  0  0
   29.5304  -25.0514  -33.5655 C   0  0  0  0  0  0  0  0  0  0  0  0
   28.8090  -24.1267  -32.5779 C   0  0  0  0  0  0  0  0  0  0  0  0
   29.0558  -24.8143  -30.9844 S   0  0  0  0  0  0  0  0  0  0  0  0
   29.9667  -26.1292  -31.4551 C   0  0  0  0  0  0  0  0  0  0  0  0
   30.4452  -27.0268  -30.6607 N   0  0  0  0  0  0  0  0  0  0  0  0
   30.2839  -27.0136  -29.4437 C   0  0  0  0  0  0  0  0  0  0  0  0
   30.1152  -27.0106  -28.2956 N   0  0  0  0  0  0  0  0  0  0  0  0
  3  2  2  0  0  0
  2  8  1  0  0  0
  3  4  1  0  0  0
  5  4  1  0  0  0
  4  6  2  0  0  0
  6  7  1  0  0  0
  8  7  2  0  0  0
  8  1  1  0  0  0
  1  9  1  0  0  0
  9 13  1  0  0  0
  9 10  1  0  0  0
 10 11  1  0  0  0
 12 11  1  0  0  0
 13 12  1  0  0  0
 14 13  2  0  0  0
 14 15  1  0  0  0
 15 16  3  0  0  0
M  END
> <minimizedAffinity>
-4.20879

$$$$
3WTJ_TH4_A_301


 16 17  0  0  0  0  0  0  0  0999 V2000
   30.0844  -26.0785  -27.5011 C   0  0  0  0  0  0  0  0  0  0  0  0
   29.7633  -24.5861  -29.5673 C   0  0  0  0  0  0  0  0  0  0  0  0
   29.7476  -24.4281  -30.9808 C   0  0  0  0  0  0  0  0  0  0  0  0
   29.9949  -25.5613  -31.8001 C   0  0  0  0  0  0  0  0  0  0  0  0
   30.0124  -25.4102  -33.5835 Cl  0  0  0  0  0  0  0  0  0  0  0  0
   30.2361  -26.7939  -31.2195 N   0  0  0  0  0  0  0  0  0  0  0  0
   30.2552  -26.9683  -29.8672 C   0  0  0  0  0  0  0  0  0  0  0  0
   30.0252  -25.8719  -29.0045 C   0  0  0  0  0  0  0  0  0  0  0  0
   30.5225  -27.3900  -27.0313 N   0  0  0  0  0  0  0  0  0  0  0  0
   30.0523  -28.5750  -27.7639 C   0  0  0  0  0  0  0  0  0  0  0  0
   30.6566  -29.8056  -27.0772 C   0  0  0  0  0  0  0  0  0  0  0  0
   31.6235  -29.2047  -25.7443 S   0  0  0  0  0  0  0  0  0  0  0  0
   31.3314  -27.5801  -25.9807 C   0  0  0  0  0  0  0  0  0  0  0  0
   31.8141  -26.6239  -25.2607 N   0  0  0  0  0  0  0  0  0  0  0  0
   32.5555  -26.8044  -24.2988 C   0  0  0  0  0  0  0  0  0  0  0  0
   33.2701  -26.9658  -23.3989 N   0  0  0  0  0  0  0  0  0  0  0  0
  3  2  2  0  0  0
  2  8  1  0  0  0
  3  4  1  0  0  0
  5  4  1  0  0  0
  4  6  2  0  0  0
  6  7  1  0  0  0
  8  7  2  0  0  0
  8  1  1  0  0  0
  1  9  1  0  0  0
  9 13  1  0  0  0
  9 10  1  0  0  0
 10 11  1  0  0  0
 12 11  1  0  0  0
 13 12  1  0  0  0
 14 13  2  0  0  0
 14 15  1  0  0  0
 15 16  3  0  0  0
M  END
> <minimizedAffinity>
-3.83675

$$$$
3WTJ_TH4_A_301


 16 17  0  0  0  0  0  0  0  0999 V2000
   30.6659  -27.8113  -29.2167 C   0  0  0  0  0  0  0  0  0  0  0  0
   32.5823  -27.0763  -27.6719 C   0  0  0  0  0  0  0  0  0  0  0  0
   33.1223  -26.9322  -26.3639 C   0  0  0  0  0  0  0  0  0  0  0  0
   32.3605  -27.3843  -25.2540 C   0  0  0  0  0  0  0  0  0  0  0  0
   32.9836  -27.2021  -23.5860 Cl  0  0  0  0  0  0  0  0  0  0  0  0
   31.1197  -27.9618  -25.4574 N   0  0  0  0  0  0  0  0  0  0  0  0
   30.5831  -28.1104  -26.7022 C   0  0  0  0  0  0  0  0  0  0  0  0
   31.2943  -27.6686  -27.8416 C   0  0  0  0  0  0  0  0  0  0  0  0
   30.2905  -26.5779  -29.9026 N   0  0  0  0  0  0  0  0  0  0  0  0
   30.4967  -26.5098  -31.3570 C   0  0  0  0  0  0  0  0  0  0  0  0
   30.0197  -25.1287  -31.8215 C   0  0  0  0  0  0  0  0  0  0  0  0
   29.4533  -24.2922  -30.3889 S   0  0  0  0  0  0  0  0  0  0  0  0
   29.7632  -25.5089  -29.2916 C   0  0  0  0  0  0  0  0  0  0  0  0
   29.5294  -25.4460  -28.0239 N   0  0  0  0  0  0  0  0  0  0  0  0
   29.0456  -24.4632  -27.4694 C   0  0  0  0  0  0  0  0  0  0  0  0
   28.5711  -23.5426  -26.9460 N   0  0  0  0  0  0  0  0  0  0  0  0
  3  2  2  0  0  0
  2  8  1  0  0  0
  3  4  1  0  0  0
  5  4  1  0  0  0
  4  6  2  0  0  0
  6  7  1  0  0  0
  8  7  2  0  0  0
  8  1  1  0  0  0
  1  9  1  0  0  0
  9 13  1  0  0  0
  9 10  1  0  0  0
 10 11  1  0  0  0
 12 11  1  0  0  0
 13 12  1  0  0  0
 14 13  2  0  0  0
 14 15  1  0  0  0
 15 16  3  0  0  0
M  END
> <minimizedAffinity>
-3.80459

$$$$
