1C5C_TK4_L_1001


 25 26  0  0  0  0  0  0  0  0999 V2000
   20.5919   15.4635  158.4058 C   0  0  0  0  0  0  0  0  0  0  0  0
   21.5587   16.0885  157.6310 C   0  0  0  0  0  0  0  0  0  0  0  0
   22.8664   16.3428  158.1921 C   0  0  0  0  0  0  0  0  0  0  0  0
   23.1362   15.9604  159.4941 C   0  0  0  0  0  0  0  0  0  0  0  0
   22.3654   14.8956  161.6583 C   0  0  0  0  0  0  0  0  0  0  0  0
   21.3888   14.2732  162.4178 C   0  0  0  0  0  0  0  0  0  0  0  0
   20.1026   14.0276  161.8531 C   0  0  0  0  0  0  0  0  0  0  0  0
   19.8211   14.4064  160.5494 C   0  0  0  0  0  0  0  0  0  0  0  0
   20.8511   15.0580  159.7630 C   0  0  0  0  0  0  0  0  0  0  0  0
   22.1406   15.3143  160.3004 C   0  0  0  0  0  0  0  0  0  0  0  0
   18.9012   15.1031  157.7675 S   0  0  0  0  0  0  0  0  0  0  0  0
   17.9782   15.0513  158.9938 O   0  0  0  0  0  0  0  0  0  0  0  0
   18.4097   16.1402  156.8449 O   0  0  0  0  0  0  0  0  0  0  0  0
   19.0108   13.7163  157.2455 O   0  0  0  0  0  0  0  0  0  0  0  0
   17.8820   15.9427  159.3640 H   0  0  0  0  0  0  0  0  0  0  0  0
   21.2490   16.4808  156.2640 N   0  0  0  0  0  0  0  0  0  0  0  0
   21.4039   15.6213  155.1411 C   0  0  0  0  0  0  0  0  0  0  0  0
   21.7159   14.4427  155.2653 O   0  0  0  0  0  0  0  0  0  0  0  0
   21.1867   16.2323  153.7756 C   0  0  0  0  0  0  0  0  0  0  0  0
   20.9131   17.3929  156.1076 H   0  0  0  0  0  0  0  0  0  0  0  0
   24.0081   15.2124  162.3728 S   0  0  0  0  0  0  0  0  0  0  0  0
   23.8445   15.1684  163.8632 O   0  0  0  0  0  0  0  0  0  0  0  0
   24.9922   14.1791  161.9331 O   0  0  0  0  0  0  0  0  0  0  0  0
   24.3627   16.5852  161.9241 O   0  0  0  0  0  0  0  0  0  0  0  0
   23.6137   14.2668  164.1368 H   0  0  0  0  0  0  0  0  0  0  0  0
  1  2  2  0  0  0
  1  9  1  0  0  0
  1 11  1  0  0  0
  2  3  1  0  0  0
  2 16  1  0  0  0
  3  4  2  0  0  0
  4 10  1  0  0  0
  5  6  2  0  0  0
  5 10  1  0  0  0
  5 21  1  0  0  0
  6  7  1  0  0  0
  7  8  2  0  0  0
  8  9  1  0  0  0
  9 10  2  0  0  0
 11 12  1  0  0  0
 11 13  2  0  0  0
 11 14  2  0  0  0
 16 17  1  0  0  0
 17 18  2  0  0  0
 17 19  1  0  0  0
 21 22  1  0  0  0
 21 23  2  0  0  0
 21 24  2  0  0  0
 12 15  1  0  0  0
 16 20  1  0  0  0
 22 25  1  0  0  0
M  END
> <minimizedAffinity>
-10.26237

$$$$
1C5C_TK4_L_1001


 25 26  0  0  0  0  0  0  0  0999 V2000
   21.9858   15.9817  158.5412 C   0  0  0  0  0  0  0  0  0  0  0  0
   21.0725   16.0247  157.4973 C   0  0  0  0  0  0  0  0  0  0  0  0
   19.7479   15.4778  157.6866 C   0  0  0  0  0  0  0  0  0  0  0  0
   19.4087   14.9183  158.9057 C   0  0  0  0  0  0  0  0  0  0  0  0
   20.0510   14.3012  161.2761 C   0  0  0  0  0  0  0  0  0  0  0  0
   20.9748   14.2662  162.3073 C   0  0  0  0  0  0  0  0  0  0  0  0
   22.2784   14.8091  162.1083 C   0  0  0  0  0  0  0  0  0  0  0  0
   22.6292   15.3723  160.8909 C   0  0  0  0  0  0  0  0  0  0  0  0
   21.6541   15.4034  159.8176 C   0  0  0  0  0  0  0  0  0  0  0  0
   20.3487   14.8704  159.9888 C   0  0  0  0  0  0  0  0  0  0  0  0
   23.6935   16.6557  158.3828 S   0  0  0  0  0  0  0  0  0  0  0  0
   23.5615   17.9999  157.6521 O   0  0  0  0  0  0  0  0  0  0  0  0
   24.3371   16.8839  159.6874 O   0  0  0  0  0  0  0  0  0  0  0  0
   24.3577   15.7134  157.4453 O   0  0  0  0  0  0  0  0  0  0  0  0
   23.1302   18.6439  158.2353 H   0  0  0  0  0  0  0  0  0  0  0  0
   21.4547   16.6189  156.2248 N   0  0  0  0  0  0  0  0  0  0  0  0
   21.8230   15.8618  155.0782 C   0  0  0  0  0  0  0  0  0  0  0  0
   21.7425   14.6391  155.0558 O   0  0  0  0  0  0  0  0  0  0  0  0
   22.3423   16.6325  153.8860 C   0  0  0  0  0  0  0  0  0  0  0  0
   21.4587   17.6008  156.1535 H   0  0  0  0  0  0  0  0  0  0  0  0
   18.3866   13.6100  161.5230 S   0  0  0  0  0  0  0  0  0  0  0  0
   18.2886   13.2318  162.9713 O   0  0  0  0  0  0  0  0  0  0  0  0
   17.3338   14.6121  161.1812 O   0  0  0  0  0  0  0  0  0  0  0  0
   18.3427   12.3994  160.6604 O   0  0  0  0  0  0  0  0  0  0  0  0
   18.3188   14.0329  163.5175 H   0  0  0  0  0  0  0  0  0  0  0  0
  1  2  2  0  0  0
  1  9  1  0  0  0
  1 11  1  0  0  0
  2  3  1  0  0  0
  2 16  1  0  0  0
  3  4  2  0  0  0
  4 10  1  0  0  0
  5  6  2  0  0  0
  5 10  1  0  0  0
  5 21  1  0  0  0
  6  7  1  0  0  0
  7  8  2  0  0  0
  8  9  1  0  0  0
  9 10  2  0  0  0
 11 12  1  0  0  0
 11 13  2  0  0  0
 11 14  2  0  0  0
 16 17  1  0  0  0
 17 18  2  0  0  0
 17 19  1  0  0  0
 21 22  1  0  0  0
 21 23  2  0  0  0
 21 24  2  0  0  0
 12 15  1  0  0  0
 16 20  1  0  0  0
 22 25  1  0  0  0
M  END
> <minimizedAffinity>
-9.56006

$$$$
1C5C_TK4_L_1001


 25 26  0  0  0  0  0  0  0  0999 V2000
   22.0206   16.1720  157.3051 C   0  0  0  0  0  0  0  0  0  0  0  0
   21.0452   16.1282  156.3189 C   0  0  0  0  0  0  0  0  0  0  0  0
   19.7310   15.6183  156.6389 C   0  0  0  0  0  0  0  0  0  0  0  0
   19.4635   15.1803  157.9238 C   0  0  0  0  0  0  0  0  0  0  0  0
   20.2459   14.7809  160.2987 C   0  0  0  0  0  0  0  0  0  0  0  0
   21.2310   14.8313  161.2708 C   0  0  0  0  0  0  0  0  0  0  0  0
   22.5236   15.3366  160.9429 C   0  0  0  0  0  0  0  0  0  0  0  0
   22.8029   15.7783  159.6587 C   0  0  0  0  0  0  0  0  0  0  0  0
   21.7639   15.7206  158.6482 C   0  0  0  0  0  0  0  0  0  0  0  0
   20.4679   15.2226  158.9476 C   0  0  0  0  0  0  0  0  0  0  0  0
   23.7199   16.8064  156.9806 S   0  0  0  0  0  0  0  0  0  0  0  0
   24.6832   15.8468  157.6945 O   0  0  0  0  0  0  0  0  0  0  0  0
   24.0514   16.8341  155.5460 O   0  0  0  0  0  0  0  0  0  0  0  0
   23.7612   18.0950  157.7194 O   0  0  0  0  0  0  0  0  0  0  0  0
   24.6835   14.9906  157.2387 H   0  0  0  0  0  0  0  0  0  0  0  0
   21.3527   16.5952  154.9751 N   0  0  0  0  0  0  0  0  0  0  0  0
   20.3780   17.1068  154.0741 C   0  0  0  0  0  0  0  0  0  0  0  0
   19.2137   17.2860  154.4124 O   0  0  0  0  0  0  0  0  0  0  0  0
   20.8364   17.4027  152.6644 C   0  0  0  0  0  0  0  0  0  0  0  0
   22.2887   16.5547  154.6724 H   0  0  0  0  0  0  0  0  0  0  0  0
   18.5950   14.1371  160.7102 S   0  0  0  0  0  0  0  0  0  0  0  0
   17.6601   15.3101  160.6956 O   0  0  0  0  0  0  0  0  0  0  0  0
   18.1542   13.1162  159.7138 O   0  0  0  0  0  0  0  0  0  0  0  0
   18.7293   13.5901  162.0866 O   0  0  0  0  0  0  0  0  0  0  0  0
   17.5853   15.6527  159.7913 H   0  0  0  0  0  0  0  0  0  0  0  0
  1  2  2  0  0  0
  1  9  1  0  0  0
  1 11  1  0  0  0
  2  3  1  0  0  0
  2 16  1  0  0  0
  3  4  2  0  0  0
  4 10  1  0  0  0
  5  6  2  0  0  0
  5 10  1  0  0  0
  5 21  1  0  0  0
  6  7  1  0  0  0
  7  8  2  0  0  0
  8  9  1  0  0  0
  9 10  2  0  0  0
 11 12  1  0  0  0
 11 13  2  0  0  0
 11 14  2  0  0  0
 16 17  1  0  0  0
 17 18  2  0  0  0
 17 19  1  0  0  0
 21 22  1  0  0  0
 21 23  2  0  0  0
 21 24  2  0  0  0
 12 15  1  0  0  0
 16 20  1  0  0  0
 22 25  1  0  0  0
M  END
> <minimizedAffinity>
-9.54722

$$$$
1C5C_TK4_L_1001


 25 26  0  0  0  0  0  0  0  0999 V2000
   20.3881   15.2427  158.2090 C   0  0  0  0  0  0  0  0  0  0  0  0
   20.8647   15.2972  159.5112 C   0  0  0  0  0  0  0  0  0  0  0  0
   22.2039   15.7811  159.7600 C   0  0  0  0  0  0  0  0  0  0  0  0
   22.9927   16.1827  158.6965 C   0  0  0  0  0  0  0  0  0  0  0  0
   23.2810   16.5323  156.2053 C   0  0  0  0  0  0  0  0  0  0  0  0
   22.7898   16.4710  154.9118 C   0  0  0  0  0  0  0  0  0  0  0  0
   21.4669   15.9919  154.6792 C   0  0  0  0  0  0  0  0  0  0  0  0
   20.6676   15.5869  155.7372 C   0  0  0  0  0  0  0  0  0  0  0  0
   21.1922   15.6548  157.0878 C   0  0  0  0  0  0  0  0  0  0  0  0
   22.5058   16.1283  157.3479 C   0  0  0  0  0  0  0  0  0  0  0  0
   18.6945   14.6389  157.8057 S   0  0  0  0  0  0  0  0  0  0  0  0
   17.9342   14.5628  159.1378 O   0  0  0  0  0  0  0  0  0  0  0  0
   17.9713   15.5427  156.8954 O   0  0  0  0  0  0  0  0  0  0  0  0
   18.9182   13.2420  157.3512 O   0  0  0  0  0  0  0  0  0  0  0  0
   17.7690   15.4600  159.4675 H   0  0  0  0  0  0  0  0  0  0  0  0
   20.0144   14.8686  160.6120 N   0  0  0  0  0  0  0  0  0  0  0  0
   20.5063   14.2569  161.7984 C   0  0  0  0  0  0  0  0  0  0  0  0
   21.7065   14.1422  162.0187 O   0  0  0  0  0  0  0  0  0  0  0  0
   19.4791   13.7307  162.7745 C   0  0  0  0  0  0  0  0  0  0  0  0
   19.0435   15.0100  160.5309 H   0  0  0  0  0  0  0  0  0  0  0  0
   24.9677   17.1419  156.5090 S   0  0  0  0  0  0  0  0  0  0  0  0
   24.8285   18.4929  157.1459 O   0  0  0  0  0  0  0  0  0  0  0  0
   25.7155   16.2210  157.4156 O   0  0  0  0  0  0  0  0  0  0  0  0
   25.5816   17.2588  155.1594 O   0  0  0  0  0  0  0  0  0  0  0  0
   24.4271   18.3967  158.0237 H   0  0  0  0  0  0  0  0  0  0  0  0
  1  2  2  0  0  0
  1  9  1  0  0  0
  1 11  1  0  0  0
  2  3  1  0  0  0
  2 16  1  0  0  0
  3  4  2  0  0  0
  4 10  1  0  0  0
  5  6  2  0  0  0
  5 10  1  0  0  0
  5 21  1  0  0  0
  6  7  1  0  0  0
  7  8  2  0  0  0
  8  9  1  0  0  0
  9 10  2  0  0  0
 11 12  1  0  0  0
 11 13  2  0  0  0
 11 14  2  0  0  0
 16 17  1  0  0  0
 17 18  2  0  0  0
 17 19  1  0  0  0
 21 22  1  0  0  0
 21 23  2  0  0  0
 21 24  2  0  0  0
 12 15  1  0  0  0
 16 20  1  0  0  0
 22 25  1  0  0  0
M  END
> <minimizedAffinity>
-9.36319

$$$$
1C5C_TK4_L_1001


 25 26  0  0  0  0  0  0  0  0999 V2000
   21.0905   15.7836  158.4419 C   0  0  0  0  0  0  0  0  0  0  0  0
   22.4161   16.1938  158.4324 C   0  0  0  0  0  0  0  0  0  0  0  0
   23.2383   15.9737  159.6008 C   0  0  0  0  0  0  0  0  0  0  0  0
   22.6923   15.3579  160.7130 C   0  0  0  0  0  0  0  0  0  0  0  0
   20.7025   14.2875  161.8563 C   0  0  0  0  0  0  0  0  0  0  0  0
   19.3775   13.8847  161.8490 C   0  0  0  0  0  0  0  0  0  0  0  0
   18.5766   14.1071  160.6902 C   0  0  0  0  0  0  0  0  0  0  0  0
   19.1132   14.7233  159.5701 C   0  0  0  0  0  0  0  0  0  0  0  0
   20.5019   15.1416  159.5887 C   0  0  0  0  0  0  0  0  0  0  0  0
   21.3222   14.9319  160.7291 C   0  0  0  0  0  0  0  0  0  0  0  0
   19.9751   16.0265  156.9954 S   0  0  0  0  0  0  0  0  0  0  0  0
   20.5926   15.2320  155.8352 O   0  0  0  0  0  0  0  0  0  0  0  0
   18.6109   15.5290  157.2404 O   0  0  0  0  0  0  0  0  0  0  0  0
   20.1317   17.4676  156.6688 O   0  0  0  0  0  0  0  0  0  0  0  0
   20.5089   14.2822  156.0132 H   0  0  0  0  0  0  0  0  0  0  0  0
   22.9659   16.8394  157.2495 N   0  0  0  0  0  0  0  0  0  0  0  0
   24.3303   16.7430  156.8589 C   0  0  0  0  0  0  0  0  0  0  0  0
   25.1224   16.0148  157.4456 O   0  0  0  0  0  0  0  0  0  0  0  0
   24.7716   17.5992  155.6939 C   0  0  0  0  0  0  0  0  0  0  0  0
   22.3588   17.3733  156.6876 H   0  0  0  0  0  0  0  0  0  0  0  0
   21.7296   14.0073  163.3313 S   0  0  0  0  0  0  0  0  0  0  0  0
   22.2959   15.3406  163.7207 O   0  0  0  0  0  0  0  0  0  0  0  0
   20.9171   13.4471  164.4518 O   0  0  0  0  0  0  0  0  0  0  0  0
   22.8095   13.0907  162.8777 O   0  0  0  0  0  0  0  0  0  0  0  0
   21.5781   15.9238  164.0132 H   0  0  0  0  0  0  0  0  0  0  0  0
  1  2  2  0  0  0
  1  9  1  0  0  0
  1 11  1  0  0  0
  2  3  1  0  0  0
  2 16  1  0  0  0
  3  4  2  0  0  0
  4 10  1  0  0  0
  5  6  2  0  0  0
  5 10  1  0  0  0
  5 21  1  0  0  0
  6  7  1  0  0  0
  7  8  2  0  0  0
  8  9  1  0  0  0
  9 10  2  0  0  0
 11 12  1  0  0  0
 11 13  2  0  0  0
 11 14  2  0  0  0
 16 17  1  0  0  0
 17 18  2  0  0  0
 17 19  1  0  0  0
 21 22  1  0  0  0
 21 23  2  0  0  0
 21 24  2  0  0  0
 12 15  1  0  0  0
 16 20  1  0  0  0
 22 25  1  0  0  0
M  END
> <minimizedAffinity>
-9.05144

$$$$
1C5C_TK4_L_1001


 25 26  0  0  0  0  0  0  0  0999 V2000
   20.1242   14.4752  160.6936 C   0  0  0  0  0  0  0  0  0  0  0  0
   20.9477   14.2745  161.7924 C   0  0  0  0  0  0  0  0  0  0  0  0
   22.3089   14.7601  161.7606 C   0  0  0  0  0  0  0  0  0  0  0  0
   22.7724   15.4178  160.6351 C   0  0  0  0  0  0  0  0  0  0  0  0
   22.3544   16.3042  158.3002 C   0  0  0  0  0  0  0  0  0  0  0  0
   21.5192   16.4957  157.2122 C   0  0  0  0  0  0  0  0  0  0  0  0
   20.1783   16.0121  157.2556 C   0  0  0  0  0  0  0  0  0  0  0  0
   19.7031   15.3517  158.3782 C   0  0  0  0  0  0  0  0  0  0  0  0
   20.5864   15.1562  159.5119 C   0  0  0  0  0  0  0  0  0  0  0  0
   21.9260   15.6280  159.4957 C   0  0  0  0  0  0  0  0  0  0  0  0
   18.3781   13.8880  160.6525 S   0  0  0  0  0  0  0  0  0  0  0  0
   18.1666   13.2576  159.2682 O   0  0  0  0  0  0  0  0  0  0  0  0
   18.0947   12.8767  161.6847 O   0  0  0  0  0  0  0  0  0  0  0  0
   17.5840   15.1435  160.6856 O   0  0  0  0  0  0  0  0  0  0  0  0
   18.6719   12.4318  159.2083 H   0  0  0  0  0  0  0  0  0  0  0  0
   20.4352   13.5795  162.9640 N   0  0  0  0  0  0  0  0  0  0  0  0
   20.2960   14.1849  164.2437 C   0  0  0  0  0  0  0  0  0  0  0  0
   20.5055   15.3792  164.4218 O   0  0  0  0  0  0  0  0  0  0  0  0
   19.8962   13.2826  165.3887 C   0  0  0  0  0  0  0  0  0  0  0  0
   20.1698   12.6366  162.8652 H   0  0  0  0  0  0  0  0  0  0  0  0
   24.0661   16.9180  158.2513 S   0  0  0  0  0  0  0  0  0  0  0  0
   24.9057   15.8066  157.6946 O   0  0  0  0  0  0  0  0  0  0  0  0
   24.1767   18.1291  157.3850 O   0  0  0  0  0  0  0  0  0  0  0  0
   24.4193   17.1816  159.6717 O   0  0  0  0  0  0  0  0  0  0  0  0
   24.6616   15.6493  156.7691 H   0  0  0  0  0  0  0  0  0  0  0  0
  1  2  2  0  0  0
  1  9  1  0  0  0
  1 11  1  0  0  0
  2  3  1  0  0  0
  2 16  1  0  0  0
  3  4  2  0  0  0
  4 10  1  0  0  0
  5  6  2  0  0  0
  5 10  1  0  0  0
  5 21  1  0  0  0
  6  7  1  0  0  0
  7  8  2  0  0  0
  8  9  1  0  0  0
  9 10  2  0  0  0
 11 12  1  0  0  0
 11 13  2  0  0  0
 11 14  2  0  0  0
 16 17  1  0  0  0
 17 18  2  0  0  0
 17 19  1  0  0  0
 21 22  1  0  0  0
 21 23  2  0  0  0
 21 24  2  0  0  0
 12 15  1  0  0  0
 16 20  1  0  0  0
 22 25  1  0  0  0
M  END
> <minimizedAffinity>
-8.74291

$$$$
1C5C_TK4_L_1001


 25 26  0  0  0  0  0  0  0  0999 V2000
   22.0253   15.0197  161.0977 C   0  0  0  0  0  0  0  0  0  0  0  0
   20.8036   14.4754  161.4678 C   0  0  0  0  0  0  0  0  0  0  0  0
   19.7076   14.4783  160.5252 C   0  0  0  0  0  0  0  0  0  0  0  0
   19.8912   15.0242  159.2672 C   0  0  0  0  0  0  0  0  0  0  0  0
   21.3991   16.1694  157.5859 C   0  0  0  0  0  0  0  0  0  0  0  0
   22.6249   16.7087  157.2330 C   0  0  0  0  0  0  0  0  0  0  0  0
   23.6985   16.6999  158.1716 C   0  0  0  0  0  0  0  0  0  0  0  0
   23.5259   16.1554  159.4350 C   0  0  0  0  0  0  0  0  0  0  0  0
   22.2378   15.5936  159.7942 C   0  0  0  0  0  0  0  0  0  0  0  0
   21.1518   15.5889  158.8788 C   0  0  0  0  0  0  0  0  0  0  0  0
   23.4720   15.0563  162.2384 S   0  0  0  0  0  0  0  0  0  0  0  0
   22.9086   15.3187  163.6427 O   0  0  0  0  0  0  0  0  0  0  0  0
   24.2155   13.7853  162.2534 O   0  0  0  0  0  0  0  0  0  0  0  0
   24.2111   16.2789  161.8298 O   0  0  0  0  0  0  0  0  0  0  0  0
   22.4171   14.5389  163.9449 H   0  0  0  0  0  0  0  0  0  0  0  0
   20.6369   13.9075  162.7975 N   0  0  0  0  0  0  0  0  0  0  0  0
   19.5373   14.2025  163.6504 C   0  0  0  0  0  0  0  0  0  0  0  0
   18.5912   14.8854  163.2754 O   0  0  0  0  0  0  0  0  0  0  0  0
   19.5945   13.6523  165.0572 C   0  0  0  0  0  0  0  0  0  0  0  0
   21.3242   13.2835  163.1253 H   0  0  0  0  0  0  0  0  0  0  0  0
   20.0253   16.1779  156.3936 S   0  0  0  0  0  0  0  0  0  0  0  0
   19.2988   14.8767  156.5653 O   0  0  0  0  0  0  0  0  0  0  0  0
   19.0997   17.3210  156.6504 O   0  0  0  0  0  0  0  0  0  0  0  0
   20.6771   16.2427  155.0584 O   0  0  0  0  0  0  0  0  0  0  0  0
   18.8808   14.8528  157.4403 H   0  0  0  0  0  0  0  0  0  0  0  0
  1  2  2  0  0  0
  1  9  1  0  0  0
  1 11  1  0  0  0
  2  3  1  0  0  0
  2 16  1  0  0  0
  3  4  2  0  0  0
  4 10  1  0  0  0
  5  6  2  0  0  0
  5 10  1  0  0  0
  5 21  1  0  0  0
  6  7  1  0  0  0
  7  8  2  0  0  0
  8  9  1  0  0  0
  9 10  2  0  0  0
 11 12  1  0  0  0
 11 13  2  0  0  0
 11 14  2  0  0  0
 16 17  1  0  0  0
 17 18  2  0  0  0
 17 19  1  0  0  0
 21 22  1  0  0  0
 21 23  2  0  0  0
 21 24  2  0  0  0
 12 15  1  0  0  0
 16 20  1  0  0  0
 22 25  1  0  0  0
M  END
> <minimizedAffinity>
-8.57124

$$$$
1C5C_TK4_L_1001


 25 26  0  0  0  0  0  0  0  0999 V2000
   21.6779   14.8071  161.2661 C   0  0  0  0  0  0  0  0  0  0  0  0
   20.4379   14.2891  161.6122 C   0  0  0  0  0  0  0  0  0  0  0  0
   19.3447   14.3681  160.6697 C   0  0  0  0  0  0  0  0  0  0  0  0
   19.5493   14.9595  159.4357 C   0  0  0  0  0  0  0  0  0  0  0  0
   21.0983   16.1226  157.8049 C   0  0  0  0  0  0  0  0  0  0  0  0
   22.3422   16.6348  157.4758 C   0  0  0  0  0  0  0  0  0  0  0  0
   23.4129   16.5508  158.4141 C   0  0  0  0  0  0  0  0  0  0  0  0
   23.2194   15.9602  159.6535 C   0  0  0  0  0  0  0  0  0  0  0  0
   21.9124   15.4274  159.9879 C   0  0  0  0  0  0  0  0  0  0  0  0
   20.8289   15.4973  159.0723 C   0  0  0  0  0  0  0  0  0  0  0  0
   23.1226   14.7475  162.4085 S   0  0  0  0  0  0  0  0  0  0  0  0
   23.5535   13.2755  162.4839 O   0  0  0  0  0  0  0  0  0  0  0  0
   24.2588   15.5525  161.9295 O   0  0  0  0  0  0  0  0  0  0  0  0
   22.5408   15.0995  163.7297 O   0  0  0  0  0  0  0  0  0  0  0  0
   23.9401   13.0079  161.6355 H   0  0  0  0  0  0  0  0  0  0  0  0
   20.2494   13.6721  162.9169 N   0  0  0  0  0  0  0  0  0  0  0  0
   20.0974   12.2715  163.1139 C   0  0  0  0  0  0  0  0  0  0  0  0
   20.2197   11.4707  162.1943 O   0  0  0  0  0  0  0  0  0  0  0  0
   19.7550   11.8095  164.5119 C   0  0  0  0  0  0  0  0  0  0  0  0
   20.2256   14.2575  163.7081 H   0  0  0  0  0  0  0  0  0  0  0  0
   19.7281   16.2269  156.6129 S   0  0  0  0  0  0  0  0  0  0  0  0
   20.2203   15.6104  155.3370 O   0  0  0  0  0  0  0  0  0  0  0  0
   18.5280   15.4906  157.1099 O   0  0  0  0  0  0  0  0  0  0  0  0
   19.4869   17.6833  156.4330 O   0  0  0  0  0  0  0  0  0  0  0  0
   20.3717   14.6621  155.4735 H   0  0  0  0  0  0  0  0  0  0  0  0
  1  2  2  0  0  0
  1  9  1  0  0  0
  1 11  1  0  0  0
  2  3  1  0  0  0
  2 16  1  0  0  0
  3  4  2  0  0  0
  4 10  1  0  0  0
  5  6  2  0  0  0
  5 10  1  0  0  0
  5 21  1  0  0  0
  6  7  1  0  0  0
  7  8  2  0  0  0
  8  9  1  0  0  0
  9 10  2  0  0  0
 11 12  1  0  0  0
 11 13  2  0  0  0
 11 14  2  0  0  0
 16 17  1  0  0  0
 17 18  2  0  0  0
 17 19  1  0  0  0
 21 22  1  0  0  0
 21 23  2  0  0  0
 21 24  2  0  0  0
 12 15  1  0  0  0
 16 20  1  0  0  0
 22 25  1  0  0  0
M  END
> <minimizedAffinity>
-8.19315

$$$$
1C5C_TK4_L_1001


 25 26  0  0  0  0  0  0  0  0999 V2000
   19.7374   14.4803  160.4404 C   0  0  0  0  0  0  0  0  0  0  0  0
   18.5301   14.1044  159.8685 C   0  0  0  0  0  0  0  0  0  0  0  0
   18.3219   14.2995  158.4513 C   0  0  0  0  0  0  0  0  0  0  0  0
   19.3287   14.8589  157.6846 C   0  0  0  0  0  0  0  0  0  0  0  0
   21.6592   15.8357  157.5221 C   0  0  0  0  0  0  0  0  0  0  0  0
   22.8578   16.2055  158.1092 C   0  0  0  0  0  0  0  0  0  0  0  0
   23.0513   16.0078  159.5082 C   0  0  0  0  0  0  0  0  0  0  0  0
   22.0495   15.4481  160.2862 C   0  0  0  0  0  0  0  0  0  0  0  0
   20.7980   15.0648  159.6613 C   0  0  0  0  0  0  0  0  0  0  0  0
   20.5788   15.2500  158.2702 C   0  0  0  0  0  0  0  0  0  0  0  0
   20.0833   14.2664  162.2377 S   0  0  0  0  0  0  0  0  0  0  0  0
   19.9499   12.7643  162.5278 O   0  0  0  0  0  0  0  0  0  0  0  0
   21.4385   14.7051  162.6111 O   0  0  0  0  0  0  0  0  0  0  0  0
   18.9368   14.9416  162.8992 O   0  0  0  0  0  0  0  0  0  0  0  0
   20.6842   12.2878  162.1100 H   0  0  0  0  0  0  0  0  0  0  0  0
   17.4875   13.5182  160.6976 N   0  0  0  0  0  0  0  0  0  0  0  0
   17.1390   12.1393  160.6713 C   0  0  0  0  0  0  0  0  0  0  0  0
   17.7732   11.3230  160.0127 O   0  0  0  0  0  0  0  0  0  0  0  0
   15.9311   11.7223  161.4788 C   0  0  0  0  0  0  0  0  0  0  0  0
   16.9953   14.1097  161.3117 H   0  0  0  0  0  0  0  0  0  0  0  0
   21.4056   16.0855  155.7382 S   0  0  0  0  0  0  0  0  0  0  0  0
   21.2996   14.7212  155.1238 O   0  0  0  0  0  0  0  0  0  0  0  0
   20.1587   16.8646  155.4779 O   0  0  0  0  0  0  0  0  0  0  0  0
   22.6356   16.7779  155.2697 O   0  0  0  0  0  0  0  0  0  0  0  0
   20.4928   14.2857  155.4405 H   0  0  0  0  0  0  0  0  0  0  0  0
  1  2  2  0  0  0
  1  9  1  0  0  0
  1 11  1  0  0  0
  2  3  1  0  0  0
  2 16  1  0  0  0
  3  4  2  0  0  0
  4 10  1  0  0  0
  5  6  2  0  0  0
  5 10  1  0  0  0
  5 21  1  0  0  0
  6  7  1  0  0  0
  7  8  2  0  0  0
  8  9  1  0  0  0
  9 10  2  0  0  0
 11 12  1  0  0  0
 11 13  2  0  0  0
 11 14  2  0  0  0
 16 17  1  0  0  0
 17 18  2  0  0  0
 17 19  1  0  0  0
 21 22  1  0  0  0
 21 23  2  0  0  0
 21 24  2  0  0  0
 12 15  1  0  0  0
 16 20  1  0  0  0
 22 25  1  0  0  0
M  END
> <minimizedAffinity>
-8.15464

$$$$
1C5C_TK4_L_1001


 25 26  0  0  0  0  0  0  0  0999 V2000
   20.6637   14.4811  161.6254 C   0  0  0  0  0  0  0  0  0  0  0  0
   19.3511   14.1033  161.3805 C   0  0  0  0  0  0  0  0  0  0  0  0
   18.7854   14.3046  160.0655 C   0  0  0  0  0  0  0  0  0  0  0  0
   19.5600   14.8718  159.0692 C   0  0  0  0  0  0  0  0  0  0  0  0
   21.7681   15.8587  158.3194 C   0  0  0  0  0  0  0  0  0  0  0  0
   23.0763   16.2304  158.5811 C   0  0  0  0  0  0  0  0  0  0  0  0
   23.6231   16.0265  159.8823 C   0  0  0  0  0  0  0  0  0  0  0  0
   22.8562   15.4589  160.8882 C   0  0  0  0  0  0  0  0  0  0  0  0
   21.4871   15.0738  160.6034 C   0  0  0  0  0  0  0  0  0  0  0  0
   20.9176   15.2650  159.3164 C   0  0  0  0  0  0  0  0  0  0  0  0
   21.4602   14.2597  163.2722 S   0  0  0  0  0  0  0  0  0  0  0  0
   22.4961   15.3855  163.4062 O   0  0  0  0  0  0  0  0  0  0  0  0
   20.5010   14.3602  164.3850 O   0  0  0  0  0  0  0  0  0  0  0  0
   22.2149   12.9877  163.1296 O   0  0  0  0  0  0  0  0  0  0  0  0
   22.0391   16.2357  163.5018 H   0  0  0  0  0  0  0  0  0  0  0  0
   18.5579   13.5088  162.4462 N   0  0  0  0  0  0  0  0  0  0  0  0
   17.4794   14.1734  163.0932 C   0  0  0  0  0  0  0  0  0  0  0  0
   17.0757   15.2687  162.7199 O   0  0  0  0  0  0  0  0  0  0  0  0
   16.8606   13.4770  164.2836 C   0  0  0  0  0  0  0  0  0  0  0  0
   18.7803   12.5945  162.7357 H   0  0  0  0  0  0  0  0  0  0  0  0
   21.0642   16.1164  156.6620 S   0  0  0  0  0  0  0  0  0  0  0  0
   22.1915   16.5681  155.7815 O   0  0  0  0  0  0  0  0  0  0  0  0
   20.4703   14.8542  156.1296 O   0  0  0  0  0  0  0  0  0  0  0  0
   20.0651   17.2044  156.8350 O   0  0  0  0  0  0  0  0  0  0  0  0
   22.8319   15.8466  155.6804 H   0  0  0  0  0  0  0  0  0  0  0  0
  1  2  2  0  0  0
  1  9  1  0  0  0
  1 11  1  0  0  0
  2  3  1  0  0  0
  2 16  1  0  0  0
  3  4  2  0  0  0
  4 10  1  0  0  0
  5  6  2  0  0  0
  5 10  1  0  0  0
  5 21  1  0  0  0
  6  7  1  0  0  0
  7  8  2  0  0  0
  8  9  1  0  0  0
  9 10  2  0  0  0
 11 12  1  0  0  0
 11 13  2  0  0  0
 11 14  2  0  0  0
 16 17  1  0  0  0
 17 18  2  0  0  0
 17 19  1  0  0  0
 21 22  1  0  0  0
 21 23  2  0  0  0
 21 24  2  0  0  0
 12 15  1  0  0  0
 16 20  1  0  0  0
 22 25  1  0  0  0
M  END
> <minimizedAffinity>
-7.88654

$$$$
