4DQ2_BTX_A_500


 44 48  0  0  0  0  0  0  0  0999 V2000
   53.2225   19.4684   18.5423 O   0  0  0  0  0  0  0  0  0  0  0  0
   52.8880   18.3270   17.4962 P   0  0  0  0  0  0  0  0  0  0  0  0
   52.4920   18.8761   16.1975 O   0  0  0  0  0  0  0  0  0  0  0  0
   54.2613   17.7391   17.7243 O   0  0  0  0  0  0  0  0  0  0  0  0
   54.9301   18.3133   17.3195 H   0  0  0  0  0  0  0  0  0  0  0  0
   51.7925   17.3524   18.1796 O   0  0  0  0  0  0  0  0  0  0  0  0
   50.3629   16.9649   17.9782 C   0  0  0  0  0  0  0  0  0  0  0  0
   49.8836   17.1104   19.1466 C   0  0  0  0  0  0  0  0  0  0  0  0
   49.4523   17.2474   20.3430 C   0  0  0  0  0  0  0  0  0  0  0  0
   48.4412   16.5663   21.1508 C   0  0  0  0  0  0  0  0  0  0  0  0
   48.5740   16.9969   22.6135 C   0  0  0  0  0  0  0  0  0  0  0  0
   47.3425   16.5035   23.3433 C   0  0  0  0  0  0  0  0  0  0  0  0
   47.1440   17.3539   24.8670 S   0  0  0  0  0  0  0  0  0  0  0  0
   46.0282   16.0367   25.1779 C   0  0  0  0  0  0  0  0  0  0  0  0
   46.7364   14.7369   24.8460 C   0  0  0  0  0  0  0  0  0  0  0  0
   47.7228   14.3182   25.8162 N   0  0  0  0  0  0  0  0  0  0  0  0
   48.9844   14.3822   25.3562 C   0  0  0  0  0  0  0  0  0  0  0  0
   50.0246   14.0469   26.0304 O   0  0  0  0  0  0  0  0  0  0  0  0
   48.9712   14.9289   24.0995 N   0  0  0  0  0  0  0  0  0  0  0  0
   47.5979   15.0364   23.6115 C   0  0  0  0  0  0  0  0  0  0  0  0
   47.4933   14.0158   26.7245 H   0  0  0  0  0  0  0  0  0  0  0  0
   49.7710   15.2086   23.5982 H   0  0  0  0  0  0  0  0  0  0  0  0
   54.3102   19.6151   19.3041 C   0  0  0  0  0  0  0  0  0  0  0  0
   55.2649   20.6768   18.8517 C   0  0  0  0  0  0  0  0  0  0  0  0
   54.3189   21.8032   18.9269 O   0  0  0  0  0  0  0  0  0  0  0  0
   56.4354   21.0879   19.6706 C   0  0  0  0  0  0  0  0  0  0  0  0
   57.6874   20.8128   19.0833 O   0  0  0  0  0  0  0  0  0  0  0  0
   56.3442   22.6097   19.5870 C   0  0  0  0  0  0  0  0  0  0  0  0
   56.6472   23.0423   18.2695 O   0  0  0  0  0  0  0  0  0  0  0  0
   54.8721   22.9446   19.5534 C   0  0  0  0  0  0  0  0  0  0  0  0
   57.7413   21.2481   18.2181 H   0  0  0  0  0  0  0  0  0  0  0  0
   56.0418   22.6170   17.6422 H   0  0  0  0  0  0  0  0  0  0  0  0
   54.1954   23.0297   20.8712 N   0  0  0  0  0  0  0  0  0  0  0  0
   54.5284   22.4375   22.0310 C   0  0  0  0  0  0  0  0  0  0  0  0
   53.6244   22.8446   22.9310 N   0  0  0  0  0  0  0  0  0  0  0  0
   52.7281   23.6543   22.3517 C   0  0  0  0  0  0  0  0  0  0  0  0
   51.5727   24.4035   22.8028 C   0  0  0  0  0  0  0  0  0  0  0  0
   51.1041   24.3788   24.0632 N   0  0  0  0  0  0  0  0  0  0  0  0
   50.9377   25.1674   21.9267 N   0  0  0  0  0  0  0  0  0  0  0  0
   51.3399   25.3468   20.5587 C   0  0  0  0  0  0  0  0  0  0  0  0
   52.5104   24.6173   20.2061 N   0  0  0  0  0  0  0  0  0  0  0  0
   53.1147   23.7886   21.0489 C   0  0  0  0  0  0  0  0  0  0  0  0
   51.5491   23.8231   24.7431 H   0  0  0  0  0  0  0  0  0  0  0  0
   50.3159   24.9165   24.3059 H   0  0  0  0  0  0  0  0  0  0  0  0
  2  3  2  0  0  0
  2  4  1  0  0  0
  2  1  1  0  0  0
  2  6  1  0  0  0
  1 23  1  0  0  0
 23 24  1  0  0  0
 24 25  1  0  0  0
 24 26  1  0  0  0
 25 30  1  0  0  0
 26 27  1  0  0  0
 26 28  1  0  0  0
 28 29  1  0  0  0
 28 30  1  0  0  0
 30 33  1  0  0  0
 33 34  1  0  0  0
 33 42  1  0  0  0
 34 35  2  0  0  0
 35 36  1  0  0  0
 36 37  1  0  0  0
 36 42  2  0  0  0
 37 38  1  0  0  0
 37 39  2  0  0  0
 39 40  1  0  0  0
 40 41  2  0  0  0
 41 42  1  0  0  0
  7  6  1  0  0  0
  7  8  1  0  0  0
  8  9  1  0  0  0
  9 10  1  0  0  0
 10 11  1  0  0  0
 11 12  1  0  0  0
 12 13  1  0  0  0
 12 20  1  0  0  0
 13 14  1  0  0  0
 14 15  1  0  0  0
 15 16  1  0  0  0
 15 20  1  0  0  0
 16 17  1  0  0  0
 17 18  2  0  0  0
 17 19  1  0  0  0
 19 20  1  0  0  0
  4  5  1  0  0  0
 27 31  1  0  0  0
 29 32  1  0  0  0
 38 43  1  0  0  0
 38 44  1  0  0  0
 16 21  1  0  0  0
 19 22  1  0  0  0
M  END
> <minimizedAffinity>
-12.55032

$$$$
4DQ2_BTX_A_500


 44 48  0  0  0  0  0  0  0  0999 V2000
   53.1195   19.3418   16.0215 O   0  0  0  0  0  0  0  0  0  0  0  0
   52.8824   18.5478   17.3716 P   0  0  0  0  0  0  0  0  0  0  0  0
   53.5917   17.2666   17.3828 O   0  0  0  0  0  0  0  0  0  0  0  0
   53.3902   19.7434   18.1438 O   0  0  0  0  0  0  0  0  0  0  0  0
   54.3492   19.8236   18.0218 H   0  0  0  0  0  0  0  0  0  0  0  0
   51.2836   18.4364   17.5911 O   0  0  0  0  0  0  0  0  0  0  0  0
   50.2331   17.3736   17.6277 C   0  0  0  0  0  0  0  0  0  0  0  0
   50.0068   17.2698   18.8744 C   0  0  0  0  0  0  0  0  0  0  0  0
   49.7245   17.1705   20.1180 C   0  0  0  0  0  0  0  0  0  0  0  0
   48.5853   16.6460   20.8703 C   0  0  0  0  0  0  0  0  0  0  0  0
   48.8322   16.8236   22.3702 C   0  0  0  0  0  0  0  0  0  0  0  0
   47.5484   16.4591   23.0856 C   0  0  0  0  0  0  0  0  0  0  0  0
   47.3653   17.4097   24.5510 S   0  0  0  0  0  0  0  0  0  0  0  0
   46.1516   16.1921   24.8992 C   0  0  0  0  0  0  0  0  0  0  0  0
   46.7768   14.8298   24.6656 C   0  0  0  0  0  0  0  0  0  0  0  0
   47.7028   14.4031   25.6903 N   0  0  0  0  0  0  0  0  0  0  0  0
   48.9787   14.3538   25.2696 C   0  0  0  0  0  0  0  0  0  0  0  0
   49.9728   13.9890   25.9961 O   0  0  0  0  0  0  0  0  0  0  0  0
   49.0404   14.8249   23.9841 N   0  0  0  0  0  0  0  0  0  0  0  0
   47.6928   14.9965   23.4453 C   0  0  0  0  0  0  0  0  0  0  0  0
   47.4262   14.1712   26.6063 H   0  0  0  0  0  0  0  0  0  0  0  0
   49.8720   15.0194   23.4945 H   0  0  0  0  0  0  0  0  0  0  0  0
   53.7565   18.9449   14.9162 C   0  0  0  0  0  0  0  0  0  0  0  0
   54.2719   20.0509   14.0476 C   0  0  0  0  0  0  0  0  0  0  0  0
   54.1127   21.1335   15.0335 O   0  0  0  0  0  0  0  0  0  0  0  0
   55.6917   20.1176   13.6124 C   0  0  0  0  0  0  0  0  0  0  0  0
   55.8850   19.9919   12.2213 O   0  0  0  0  0  0  0  0  0  0  0  0
   56.0197   21.5859   13.8730 C   0  0  0  0  0  0  0  0  0  0  0  0
   55.3154   22.4105   12.9572 O   0  0  0  0  0  0  0  0  0  0  0  0
   55.2431   21.9810   15.1064 C   0  0  0  0  0  0  0  0  0  0  0  0
   55.3830   20.6828   11.7614 H   0  0  0  0  0  0  0  0  0  0  0  0
   54.3635   22.2417   13.0361 H   0  0  0  0  0  0  0  0  0  0  0  0
   55.8834   21.6623   16.4066 N   0  0  0  0  0  0  0  0  0  0  0  0
   56.8338   20.7515   16.6788 C   0  0  0  0  0  0  0  0  0  0  0  0
   57.0946   20.8640   17.9873 N   0  0  0  0  0  0  0  0  0  0  0  0
   56.3132   21.8043   18.5349 C   0  0  0  0  0  0  0  0  0  0  0  0
   56.1609   22.3760   19.8576 C   0  0  0  0  0  0  0  0  0  0  0  0
   56.8530   21.9712   20.9375 N   0  0  0  0  0  0  0  0  0  0  0  0
   55.2930   23.3633   20.0196 N   0  0  0  0  0  0  0  0  0  0  0  0
   54.5157   23.9475   18.9613 C   0  0  0  0  0  0  0  0  0  0  0  0
   54.7576   23.3652   17.6851 N   0  0  0  0  0  0  0  0  0  0  0  0
   55.5662   22.3257   17.5176 C   0  0  0  0  0  0  0  0  0  0  0  0
   57.5073   21.2400   20.8571 H   0  0  0  0  0  0  0  0  0  0  0  0
   56.7053   22.4061   21.8083 H   0  0  0  0  0  0  0  0  0  0  0  0
  2  3  2  0  0  0
  2  4  1  0  0  0
  2  1  1  0  0  0
  2  6  1  0  0  0
  1 23  1  0  0  0
 23 24  1  0  0  0
 24 25  1  0  0  0
 24 26  1  0  0  0
 25 30  1  0  0  0
 26 27  1  0  0  0
 26 28  1  0  0  0
 28 29  1  0  0  0
 28 30  1  0  0  0
 30 33  1  0  0  0
 33 34  1  0  0  0
 33 42  1  0  0  0
 34 35  2  0  0  0
 35 36  1  0  0  0
 36 37  1  0  0  0
 36 42  2  0  0  0
 37 38  1  0  0  0
 37 39  2  0  0  0
 39 40  1  0  0  0
 40 41  2  0  0  0
 41 42  1  0  0  0
  7  6  1  0  0  0
  7  8  1  0  0  0
  8  9  1  0  0  0
  9 10  1  0  0  0
 10 11  1  0  0  0
 11 12  1  0  0  0
 12 13  1  0  0  0
 12 20  1  0  0  0
 13 14  1  0  0  0
 14 15  1  0  0  0
 15 16  1  0  0  0
 15 20  1  0  0  0
 16 17  1  0  0  0
 17 18  2  0  0  0
 17 19  1  0  0  0
 19 20  1  0  0  0
  4  5  1  0  0  0
 27 31  1  0  0  0
 29 32  1  0  0  0
 38 43  1  0  0  0
 38 44  1  0  0  0
 16 21  1  0  0  0
 19 22  1  0  0  0
M  END
> <minimizedAffinity>
-10.87890

$$$$
4DQ2_BTX_A_500


 44 48  0  0  0  0  0  0  0  0999 V2000
   54.3965   19.0669   18.2009 O   0  0  0  0  0  0  0  0  0  0  0  0
   53.2950   18.5000   17.2137 P   0  0  0  0  0  0  0  0  0  0  0  0
   53.2215   19.2766   15.9743 O   0  0  0  0  0  0  0  0  0  0  0  0
   53.9692   17.1485   17.2650 O   0  0  0  0  0  0  0  0  0  0  0  0
   54.8047   17.1851   16.7735 H   0  0  0  0  0  0  0  0  0  0  0  0
   51.9065   18.4126   18.0392 O   0  0  0  0  0  0  0  0  0  0  0  0
   50.4481   18.2470   17.7565 C   0  0  0  0  0  0  0  0  0  0  0  0
   49.9931   17.9259   18.8993 C   0  0  0  0  0  0  0  0  0  0  0  0
   49.5086   17.6520   20.0510 C   0  0  0  0  0  0  0  0  0  0  0  0
   49.3835   16.4300   20.8445 C   0  0  0  0  0  0  0  0  0  0  0  0
   49.0627   16.7892   22.2973 C   0  0  0  0  0  0  0  0  0  0  0  0
   49.2131   15.5261   23.1188 C   0  0  0  0  0  0  0  0  0  0  0  0
   48.0716   14.3022   22.5866 S   0  0  0  0  0  0  0  0  0  0  0  0
   48.5187   13.5676   24.1153 C   0  0  0  0  0  0  0  0  0  0  0  0
   48.4117   14.6302   25.1927 C   0  0  0  0  0  0  0  0  0  0  0  0
   47.0609   14.9624   25.5856 N   0  0  0  0  0  0  0  0  0  0  0  0
   46.6883   16.2015   25.2204 C   0  0  0  0  0  0  0  0  0  0  0  0
   45.5423   16.7229   25.4730 O   0  0  0  0  0  0  0  0  0  0  0  0
   47.6942   16.7673   24.4812 N   0  0  0  0  0  0  0  0  0  0  0  0
   48.8929   15.9336   24.5403 C   0  0  0  0  0  0  0  0  0  0  0  0
   46.4715   14.3423   26.0728 H   0  0  0  0  0  0  0  0  0  0  0  0
   47.6199   17.6129   23.9826 H   0  0  0  0  0  0  0  0  0  0  0  0
   54.3339   20.1329   19.0038 C   0  0  0  0  0  0  0  0  0  0  0  0
   55.4332   21.1333   18.8193 C   0  0  0  0  0  0  0  0  0  0  0  0
   54.6034   22.3369   18.9983 O   0  0  0  0  0  0  0  0  0  0  0  0
   56.5471   21.2722   19.7938 C   0  0  0  0  0  0  0  0  0  0  0  0
   57.8195   20.9478   19.2799 O   0  0  0  0  0  0  0  0  0  0  0  0
   56.6195   22.7886   19.9570 C   0  0  0  0  0  0  0  0  0  0  0  0
   57.1010   23.3829   18.7613 O   0  0  0  0  0  0  0  0  0  0  0  0
   55.2005   23.2942   19.8517 C   0  0  0  0  0  0  0  0  0  0  0  0
   58.0074   21.5033   18.5073 H   0  0  0  0  0  0  0  0  0  0  0  0
   56.5247   23.1342   18.0218 H   0  0  0  0  0  0  0  0  0  0  0  0
   54.4016   23.2513   21.1015 N   0  0  0  0  0  0  0  0  0  0  0  0
   54.6649   22.6045   22.2500 C   0  0  0  0  0  0  0  0  0  0  0  0
   53.6575   22.8964   23.0822 N   0  0  0  0  0  0  0  0  0  0  0  0
   52.7669   23.6877   22.4697 C   0  0  0  0  0  0  0  0  0  0  0  0
   51.5282   24.3350   22.8524 C   0  0  0  0  0  0  0  0  0  0  0  0
   50.9485   24.1989   24.0584 N   0  0  0  0  0  0  0  0  0  0  0  0
   50.9274   25.1159   21.9673 N   0  0  0  0  0  0  0  0  0  0  0  0
   51.4409   25.4092   20.6573 C   0  0  0  0  0  0  0  0  0  0  0  0
   52.6841   24.7759   20.3750 N   0  0  0  0  0  0  0  0  0  0  0  0
   53.2617   23.9308   21.2204 C   0  0  0  0  0  0  0  0  0  0  0  0
   51.3649   23.6270   24.7430 H   0  0  0  0  0  0  0  0  0  0  0  0
   50.1078   24.6714   24.2565 H   0  0  0  0  0  0  0  0  0  0  0  0
  2  3  2  0  0  0
  2  4  1  0  0  0
  2  1  1  0  0  0
  2  6  1  0  0  0
  1 23  1  0  0  0
 23 24  1  0  0  0
 24 25  1  0  0  0
 24 26  1  0  0  0
 25 30  1  0  0  0
 26 27  1  0  0  0
 26 28  1  0  0  0
 28 29  1  0  0  0
 28 30  1  0  0  0
 30 33  1  0  0  0
 33 34  1  0  0  0
 33 42  1  0  0  0
 34 35  2  0  0  0
 35 36  1  0  0  0
 36 37  1  0  0  0
 36 42  2  0  0  0
 37 38  1  0  0  0
 37 39  2  0  0  0
 39 40  1  0  0  0
 40 41  2  0  0  0
 41 42  1  0  0  0
  7  6  1  0  0  0
  7  8  1  0  0  0
  8  9  1  0  0  0
  9 10  1  0  0  0
 10 11  1  0  0  0
 11 12  1  0  0  0
 12 13  1  0  0  0
 12 20  1  0  0  0
 13 14  1  0  0  0
 14 15  1  0  0  0
 15 16  1  0  0  0
 15 20  1  0  0  0
 16 17  1  0  0  0
 17 18  2  0  0  0
 17 19  1  0  0  0
 19 20  1  0  0  0
  4  5  1  0  0  0
 27 31  1  0  0  0
 29 32  1  0  0  0
 38 43  1  0  0  0
 38 44  1  0  0  0
 16 21  1  0  0  0
 19 22  1  0  0  0
M  END
> <minimizedAffinity>
-10.56951

$$$$
4DQ2_BTX_A_500


 44 48  0  0  0  0  0  0  0  0999 V2000
   54.0353   19.3378   18.0041 O   0  0  0  0  0  0  0  0  0  0  0  0
   53.0823   18.3655   17.1945 P   0  0  0  0  0  0  0  0  0  0  0  0
   52.7685   18.8918   15.8644 O   0  0  0  0  0  0  0  0  0  0  0  0
   54.0821   17.2495   17.3913 O   0  0  0  0  0  0  0  0  0  0  0  0
   54.8624   17.4133   16.8389 H   0  0  0  0  0  0  0  0  0  0  0  0
   51.7926   18.0691   18.1249 O   0  0  0  0  0  0  0  0  0  0  0  0
   50.4515   17.4206   18.0006 C   0  0  0  0  0  0  0  0  0  0  0  0
   50.0486   17.4157   19.2062 C   0  0  0  0  0  0  0  0  0  0  0  0
   49.6383   17.4664   20.4168 C   0  0  0  0  0  0  0  0  0  0  0  0
   48.4563   16.9677   21.1187 C   0  0  0  0  0  0  0  0  0  0  0  0
   48.7016   17.0002   22.6290 C   0  0  0  0  0  0  0  0  0  0  0  0
   47.4361   16.5130   23.3028 C   0  0  0  0  0  0  0  0  0  0  0  0
   47.1779   17.3588   24.8201 S   0  0  0  0  0  0  0  0  0  0  0  0
   46.0403   16.0487   25.0769 C   0  0  0  0  0  0  0  0  0  0  0  0
   46.7529   14.7450   24.7704 C   0  0  0  0  0  0  0  0  0  0  0  0
   47.6934   14.3153   25.7806 N   0  0  0  0  0  0  0  0  0  0  0  0
   48.9742   14.3719   25.3759 C   0  0  0  0  0  0  0  0  0  0  0  0
   49.9818   14.0263   26.0931 O   0  0  0  0  0  0  0  0  0  0  0  0
   49.0192   14.9235   24.1222 N   0  0  0  0  0  0  0  0  0  0  0  0
   47.6692   15.0430   23.5756 C   0  0  0  0  0  0  0  0  0  0  0  0
   47.4226   14.0111   26.6769 H   0  0  0  0  0  0  0  0  0  0  0  0
   49.8419   15.1993   23.6571 H   0  0  0  0  0  0  0  0  0  0  0  0
   53.7577   20.0804   19.0795 C   0  0  0  0  0  0  0  0  0  0  0  0
   54.9442   20.4716   19.9057 C   0  0  0  0  0  0  0  0  0  0  0  0
   55.9467   20.3590   18.8325 O   0  0  0  0  0  0  0  0  0  0  0  0
   55.1062   21.8428   20.4562 C   0  0  0  0  0  0  0  0  0  0  0  0
   55.0871   21.9152   21.8643 O   0  0  0  0  0  0  0  0  0  0  0  0
   56.5662   22.1346   20.1175 C   0  0  0  0  0  0  0  0  0  0  0  0
   57.4196   21.3189   20.9056 O   0  0  0  0  0  0  0  0  0  0  0  0
   56.8380   21.4570   18.7957 C   0  0  0  0  0  0  0  0  0  0  0  0
   55.7847   21.3470   22.2268 H   0  0  0  0  0  0  0  0  0  0  0  0
   57.2022   20.3854   20.7571 H   0  0  0  0  0  0  0  0  0  0  0  0
   56.4589   22.2236   17.5830 N   0  0  0  0  0  0  0  0  0  0  0  0
   55.2600   22.7279   17.2436 C   0  0  0  0  0  0  0  0  0  0  0  0
   55.4361   23.3534   16.0729 N   0  0  0  0  0  0  0  0  0  0  0  0
   56.7073   23.2284   15.6691 C   0  0  0  0  0  0  0  0  0  0  0  0
   57.4799   23.6976   14.5366 C   0  0  0  0  0  0  0  0  0  0  0  0
   56.9674   24.4127   13.5193 N   0  0  0  0  0  0  0  0  0  0  0  0
   58.7732   23.4142   14.4972 N   0  0  0  0  0  0  0  0  0  0  0  0
   59.4849   22.7080   15.5268 C   0  0  0  0  0  0  0  0  0  0  0  0
   58.6675   22.3241   16.6273 N   0  0  0  0  0  0  0  0  0  0  0  0
   57.3566   22.5327   16.6484 C   0  0  0  0  0  0  0  0  0  0  0  0
   56.0103   24.6433   13.5128 H   0  0  0  0  0  0  0  0  0  0  0  0
   57.5494   24.7057   12.7812 H   0  0  0  0  0  0  0  0  0  0  0  0
  2  3  2  0  0  0
  2  4  1  0  0  0
  2  1  1  0  0  0
  2  6  1  0  0  0
  1 23  1  0  0  0
 23 24  1  0  0  0
 24 25  1  0  0  0
 24 26  1  0  0  0
 25 30  1  0  0  0
 26 27  1  0  0  0
 26 28  1  0  0  0
 28 29  1  0  0  0
 28 30  1  0  0  0
 30 33  1  0  0  0
 33 34  1  0  0  0
 33 42  1  0  0  0
 34 35  2  0  0  0
 35 36  1  0  0  0
 36 37  1  0  0  0
 36 42  2  0  0  0
 37 38  1  0  0  0
 37 39  2  0  0  0
 39 40  1  0  0  0
 40 41  2  0  0  0
 41 42  1  0  0  0
  7  6  1  0  0  0
  7  8  1  0  0  0
  8  9  1  0  0  0
  9 10  1  0  0  0
 10 11  1  0  0  0
 11 12  1  0  0  0
 12 13  1  0  0  0
 12 20  1  0  0  0
 13 14  1  0  0  0
 14 15  1  0  0  0
 15 16  1  0  0  0
 15 20  1  0  0  0
 16 17  1  0  0  0
 17 18  2  0  0  0
 17 19  1  0  0  0
 19 20  1  0  0  0
  4  5  1  0  0  0
 27 31  1  0  0  0
 29 32  1  0  0  0
 38 43  1  0  0  0
 38 44  1  0  0  0
 16 21  1  0  0  0
 19 22  1  0  0  0
M  END
> <minimizedAffinity>
-10.23874

$$$$
4DQ2_BTX_A_500


 44 48  0  0  0  0  0  0  0  0999 V2000
   53.5599   19.3414   16.8684 O   0  0  0  0  0  0  0  0  0  0  0  0
   53.0018   17.8823   16.6068 P   0  0  0  0  0  0  0  0  0  0  0  0
   52.9687   17.5587   15.1789 O   0  0  0  0  0  0  0  0  0  0  0  0
   54.0691   17.3284   17.5220 O   0  0  0  0  0  0  0  0  0  0  0  0
   54.9330   17.3887   17.0848 H   0  0  0  0  0  0  0  0  0  0  0  0
   51.5733   17.7705   17.3577 O   0  0  0  0  0  0  0  0  0  0  0  0
   50.7919   18.5203   18.3881 C   0  0  0  0  0  0  0  0  0  0  0  0
   50.2151   17.5786   19.0178 C   0  0  0  0  0  0  0  0  0  0  0  0
   49.6806   16.5999   19.6445 C   0  0  0  0  0  0  0  0  0  0  0  0
   48.4798   16.4428   20.4644 C   0  0  0  0  0  0  0  0  0  0  0  0
   48.8271   15.6839   21.7473 C   0  0  0  0  0  0  0  0  0  0  0  0
   47.5960   15.6996   22.6287 C   0  0  0  0  0  0  0  0  0  0  0  0
   47.6570   17.0474   23.7529 S   0  0  0  0  0  0  0  0  0  0  0  0
   46.3765   16.1384   24.5343 C   0  0  0  0  0  0  0  0  0  0  0  0
   46.8423   14.7015   24.6737 C   0  0  0  0  0  0  0  0  0  0  0  0
   47.8253   14.4798   25.7101 N   0  0  0  0  0  0  0  0  0  0  0  0
   49.0402   14.1572   25.2332 C   0  0  0  0  0  0  0  0  0  0  0  0
   50.0655   13.9001   25.9623 O   0  0  0  0  0  0  0  0  0  0  0  0
   49.0121   14.2261   23.8647 N   0  0  0  0  0  0  0  0  0  0  0  0
   47.6381   14.3968   23.3970 C   0  0  0  0  0  0  0  0  0  0  0  0
   47.6249   14.5575   26.6709 H   0  0  0  0  0  0  0  0  0  0  0  0
   49.8030   14.1689   23.2812 H   0  0  0  0  0  0  0  0  0  0  0  0
   54.7496   19.7099   17.3519 C   0  0  0  0  0  0  0  0  0  0  0  0
   55.4795   20.7311   16.5348 C   0  0  0  0  0  0  0  0  0  0  0  0
   55.0735   21.9064   17.3243 O   0  0  0  0  0  0  0  0  0  0  0  0
   56.9640   20.7851   16.4798 C   0  0  0  0  0  0  0  0  0  0  0  0
   57.5135   20.5199   15.2087 O   0  0  0  0  0  0  0  0  0  0  0  0
   57.2197   22.2796   16.6591 C   0  0  0  0  0  0  0  0  0  0  0  0
   56.7833   22.9880   15.5090 O   0  0  0  0  0  0  0  0  0  0  0  0
   56.1497   22.7828   17.5984 C   0  0  0  0  0  0  0  0  0  0  0  0
   57.1526   21.1474   14.5630 H   0  0  0  0  0  0  0  0  0  0  0  0
   55.8430   22.8063   15.3549 H   0  0  0  0  0  0  0  0  0  0  0  0
   56.4263   22.6159   19.0467 N   0  0  0  0  0  0  0  0  0  0  0  0
   57.5588   22.2142   19.6490 C   0  0  0  0  0  0  0  0  0  0  0  0
   57.3148   22.2507   20.9651 N   0  0  0  0  0  0  0  0  0  0  0  0
   56.0536   22.6421   21.1903 C   0  0  0  0  0  0  0  0  0  0  0  0
   55.2461   22.8906   22.3675 C   0  0  0  0  0  0  0  0  0  0  0  0
   55.6746   22.7025   23.6284 N   0  0  0  0  0  0  0  0  0  0  0  0
   54.0105   23.3372   22.1994 N   0  0  0  0  0  0  0  0  0  0  0  0
   53.4194   23.6407   20.9251 C   0  0  0  0  0  0  0  0  0  0  0  0
   54.2914   23.4175   19.8222 N   0  0  0  0  0  0  0  0  0  0  0  0
   55.5049   22.8988   19.9665 C   0  0  0  0  0  0  0  0  0  0  0  0
   56.5869   22.3716   23.7941 H   0  0  0  0  0  0  0  0  0  0  0  0
   55.0760   22.8957   24.3857 H   0  0  0  0  0  0  0  0  0  0  0  0
  2  3  2  0  0  0
  2  4  1  0  0  0
  2  1  1  0  0  0
  2  6  1  0  0  0
  1 23  1  0  0  0
 23 24  1  0  0  0
 24 25  1  0  0  0
 24 26  1  0  0  0
 25 30  1  0  0  0
 26 27  1  0  0  0
 26 28  1  0  0  0
 28 29  1  0  0  0
 28 30  1  0  0  0
 30 33  1  0  0  0
 33 34  1  0  0  0
 33 42  1  0  0  0
 34 35  2  0  0  0
 35 36  1  0  0  0
 36 37  1  0  0  0
 36 42  2  0  0  0
 37 38  1  0  0  0
 37 39  2  0  0  0
 39 40  1  0  0  0
 40 41  2  0  0  0
 41 42  1  0  0  0
  7  6  1  0  0  0
  7  8  1  0  0  0
  8  9  1  0  0  0
  9 10  1  0  0  0
 10 11  1  0  0  0
 11 12  1  0  0  0
 12 13  1  0  0  0
 12 20  1  0  0  0
 13 14  1  0  0  0
 14 15  1  0  0  0
 15 16  1  0  0  0
 15 20  1  0  0  0
 16 17  1  0  0  0
 17 18  2  0  0  0
 17 19  1  0  0  0
 19 20  1  0  0  0
  4  5  1  0  0  0
 27 31  1  0  0  0
 29 32  1  0  0  0
 38 43  1  0  0  0
 38 44  1  0  0  0
 16 21  1  0  0  0
 19 22  1  0  0  0
M  END
> <minimizedAffinity>
-9.98064

$$$$
4DQ2_BTX_A_500


 44 48  0  0  0  0  0  0  0  0999 V2000
   53.4750   19.4196   17.3937 O   0  0  0  0  0  0  0  0  0  0  0  0
   52.8755   18.0505   16.8691 P   0  0  0  0  0  0  0  0  0  0  0  0
   52.9399   17.9503   15.4094 O   0  0  0  0  0  0  0  0  0  0  0  0
   53.8428   17.3055   17.7596 O   0  0  0  0  0  0  0  0  0  0  0  0
   54.7399   17.3836   17.3991 H   0  0  0  0  0  0  0  0  0  0  0  0
   51.3892   17.9050   17.4909 O   0  0  0  0  0  0  0  0  0  0  0  0
   50.6007   18.4496   18.6381 C   0  0  0  0  0  0  0  0  0  0  0  0
   50.0627   17.3990   19.1102 C   0  0  0  0  0  0  0  0  0  0  0  0
   49.5672   16.3133   19.5705 C   0  0  0  0  0  0  0  0  0  0  0  0
   48.4282   15.9913   20.4294 C   0  0  0  0  0  0  0  0  0  0  0  0
   48.8627   16.0261   21.8965 C   0  0  0  0  0  0  0  0  0  0  0  0
   47.6090   15.9376   22.7411 C   0  0  0  0  0  0  0  0  0  0  0  0
   47.6069   17.1844   23.9779 S   0  0  0  0  0  0  0  0  0  0  0  0
   46.3298   16.1824   24.6423 C   0  0  0  0  0  0  0  0  0  0  0  0
   46.8278   14.7498   24.6711 C   0  0  0  0  0  0  0  0  0  0  0  0
   47.7888   14.4619   25.7119 N   0  0  0  0  0  0  0  0  0  0  0  0
   49.0233   14.2095   25.2434 C   0  0  0  0  0  0  0  0  0  0  0  0
   50.0354   13.9138   25.9763 O   0  0  0  0  0  0  0  0  0  0  0  0
   49.0291   14.3956   23.8856 N   0  0  0  0  0  0  0  0  0  0  0  0
   47.6639   14.5746   23.3959 C   0  0  0  0  0  0  0  0  0  0  0  0
   47.5615   14.4518   26.6698 H   0  0  0  0  0  0  0  0  0  0  0  0
   49.8361   14.4070   23.3218 H   0  0  0  0  0  0  0  0  0  0  0  0
   54.7362   19.7107   17.7242 C   0  0  0  0  0  0  0  0  0  0  0  0
   55.3473   20.8463   16.9623 C   0  0  0  0  0  0  0  0  0  0  0  0
   55.4345   21.7860   18.0931 O   0  0  0  0  0  0  0  0  0  0  0  0
   56.7223   20.7728   16.4021 C   0  0  0  0  0  0  0  0  0  0  0  0
   56.7852   20.8238   14.9944 O   0  0  0  0  0  0  0  0  0  0  0  0
   57.2925   22.1260   16.8203 C   0  0  0  0  0  0  0  0  0  0  0  0
   56.6551   23.1663   16.0948 O   0  0  0  0  0  0  0  0  0  0  0  0
   56.6844   22.4445   18.1653 C   0  0  0  0  0  0  0  0  0  0  0  0
   56.3619   21.6384   14.6811 H   0  0  0  0  0  0  0  0  0  0  0  0
   55.6976   23.1250   16.2441 H   0  0  0  0  0  0  0  0  0  0  0  0
   57.3668   21.8530   19.3428 N   0  0  0  0  0  0  0  0  0  0  0  0
   57.1392   20.6736   19.9460 C   0  0  0  0  0  0  0  0  0  0  0  0
   58.0280   20.5870   20.9437 N   0  0  0  0  0  0  0  0  0  0  0  0
   58.7830   21.6928   20.9870 C   0  0  0  0  0  0  0  0  0  0  0  0
   59.8916   22.1529   21.7987 C   0  0  0  0  0  0  0  0  0  0  0  0
   60.4053   21.4632   22.8328 N   0  0  0  0  0  0  0  0  0  0  0  0
   60.4429   23.3210   21.5058 N   0  0  0  0  0  0  0  0  0  0  0  0
   60.0497   24.1547   20.4031 C   0  0  0  0  0  0  0  0  0  0  0  0
   58.9886   23.6114   19.6250 N   0  0  0  0  0  0  0  0  0  0  0  0
   58.3744   22.4799   19.9486 C   0  0  0  0  0  0  0  0  0  0  0  0
   60.0226   20.5908   23.0813 H   0  0  0  0  0  0  0  0  0  0  0  0
   61.1639   21.8308   23.3413 H   0  0  0  0  0  0  0  0  0  0  0  0
  2  3  2  0  0  0
  2  4  1  0  0  0
  2  1  1  0  0  0
  2  6  1  0  0  0
  1 23  1  0  0  0
 23 24  1  0  0  0
 24 25  1  0  0  0
 24 26  1  0  0  0
 25 30  1  0  0  0
 26 27  1  0  0  0
 26 28  1  0  0  0
 28 29  1  0  0  0
 28 30  1  0  0  0
 30 33  1  0  0  0
 33 34  1  0  0  0
 33 42  1  0  0  0
 34 35  2  0  0  0
 35 36  1  0  0  0
 36 37  1  0  0  0
 36 42  2  0  0  0
 37 38  1  0  0  0
 37 39  2  0  0  0
 39 40  1  0  0  0
 40 41  2  0  0  0
 41 42  1  0  0  0
  7  6  1  0  0  0
  7  8  1  0  0  0
  8  9  1  0  0  0
  9 10  1  0  0  0
 10 11  1  0  0  0
 11 12  1  0  0  0
 12 13  1  0  0  0
 12 20  1  0  0  0
 13 14  1  0  0  0
 14 15  1  0  0  0
 15 16  1  0  0  0
 15 20  1  0  0  0
 16 17  1  0  0  0
 17 18  2  0  0  0
 17 19  1  0  0  0
 19 20  1  0  0  0
  4  5  1  0  0  0
 27 31  1  0  0  0
 29 32  1  0  0  0
 38 43  1  0  0  0
 38 44  1  0  0  0
 16 21  1  0  0  0
 19 22  1  0  0  0
M  END
> <minimizedAffinity>
-9.67833

$$$$
