6MJF_SAH_A_500


 33 35  0  0  0  0  0  0  0  0999 V2000
  -62.2143   31.8890   -8.5730 C   0  0  0  0  0  0  0  0  0  0  0  0
  -61.0172   31.5620   -7.8883 O   0  0  0  0  0  0  0  0  0  0  0  0
  -61.7986   32.2930   -9.9784 C   0  0  0  0  0  0  0  0  0  0  0  0
  -62.6545   33.2688  -10.5207 O   0  0  0  0  0  0  0  0  0  0  0  0
  -60.4052   32.8411   -9.7882 C   0  0  0  0  0  0  0  0  0  0  0  0
  -60.4572   34.2124   -9.4716 O   0  0  0  0  0  0  0  0  0  0  0  0
  -59.8986   32.0867   -8.5787 C   0  0  0  0  0  0  0  0  0  0  0  0
  -62.6645   34.0475   -9.9424 H   0  0  0  0  0  0  0  0  0  0  0  0
  -61.0039   34.3411   -8.6807 H   0  0  0  0  0  0  0  0  0  0  0  0
  -59.0541   30.9879   -9.0717 N   0  0  0  0  0  0  0  0  0  0  0  0
  -59.4488   29.6977   -9.3130 C   0  0  0  0  0  0  0  0  0  0  0  0
  -58.3835   29.0032   -9.7742 N   0  0  0  0  0  0  0  0  0  0  0  0
  -57.3230   29.8379   -9.8423 C   0  0  0  0  0  0  0  0  0  0  0  0
  -56.0091   29.6507  -10.2439 C   0  0  0  0  0  0  0  0  0  0  0  0
  -55.5962   28.4586  -10.6640 N   0  0  0  0  0  0  0  0  0  0  0  0
  -55.1333   30.7141  -10.2032 N   0  0  0  0  0  0  0  0  0  0  0  0
  -55.5583   31.9519   -9.7698 C   0  0  0  0  0  0  0  0  0  0  0  0
  -56.8661   32.1302   -9.3743 N   0  0  0  0  0  0  0  0  0  0  0  0
  -57.7318   31.0895   -9.4079 C   0  0  0  0  0  0  0  0  0  0  0  0
  -56.2249   27.7015  -10.6916 H   0  0  0  0  0  0  0  0  0  0  0  0
  -54.6618   28.3331  -10.9475 H   0  0  0  0  0  0  0  0  0  0  0  0
  -63.1729   30.7029   -8.5567 C   0  0  0  0  0  0  0  0  0  0  0  0
  -64.2624   30.7380   -7.1097 S   0  0  0  0  0  0  0  0  0  0  0  0
  -63.3892   29.3451   -6.3503 C   0  0  0  0  0  0  0  0  0  0  0  0
  -62.2182   29.7907   -5.4803 C   0  0  0  0  0  0  0  0  0  0  0  0
  -62.1823   27.5480   -4.4840 N   0  0  0  0  0  0  0  0  0  0  0  0
  -61.3527   28.6567   -4.9427 C   0  0  0  0  0  0  0  0  0  0  0  0
  -62.7736   27.2260   -5.2502 H   0  0  0  0  0  0  0  0  0  0  0  0
  -62.7688   27.8598   -3.7099 H   0  0  0  0  0  0  0  0  0  0  0  0
  -60.4506   29.1717   -3.8289 C   0  0  0  0  0  0  0  0  0  0  0  0
  -59.5393   29.9649   -4.0661 O   0  0  0  0  0  0  0  0  0  0  0  0
  -60.6099   28.7965   -2.6677 O   0  0  0  0  0  0  0  0  0  0  0  0
  -61.2961   28.1931   -2.4603 H   0  0  0  0  0  0  0  0  0  0  0  0
 26 27  1  0  0  0
 27 25  1  0  0  0
 27 30  1  0  0  0
 25 24  1  0  0  0
 24 23  1  0  0  0
 23 22  1  0  0  0
 30 31  2  0  0  0
 30 32  1  0  0  0
 22  1  1  0  0  0
  1  2  1  0  0  0
  1  3  1  0  0  0
  2  7  1  0  0  0
  3  4  1  0  0  0
  3  5  1  0  0  0
  5  6  1  0  0  0
  5  7  1  0  0  0
  7 10  1  0  0  0
 10 11  1  0  0  0
 10 19  1  0  0  0
 11 12  2  0  0  0
 12 13  1  0  0  0
 13 14  1  0  0  0
 13 19  2  0  0  0
 14 15  1  0  0  0
 14 16  2  0  0  0
 16 17  1  0  0  0
 17 18  2  0  0  0
 18 19  1  0  0  0
 26 28  1  0  0  0
 26 29  1  0  0  0
 32 33  1  0  0  0
  4  8  1  0  0  0
  6  9  1  0  0  0
 15 20  1  0  0  0
 15 21  1  0  0  0
M  END
> <minimizedAffinity>
-9.69502

$$$$
6MJF_SAH_A_500


 33 35  0  0  0  0  0  0  0  0999 V2000
  -62.2339   31.7481   -8.3310 C   0  0  0  0  0  0  0  0  0  0  0  0
  -60.9768   31.4802   -7.7338 O   0  0  0  0  0  0  0  0  0  0  0  0
  -61.9423   32.1268   -9.7742 C   0  0  0  0  0  0  0  0  0  0  0  0
  -62.8713   33.0582  -10.2724 O   0  0  0  0  0  0  0  0  0  0  0  0
  -60.5586   32.7261   -9.7069 C   0  0  0  0  0  0  0  0  0  0  0  0
  -60.6346   34.1031   -9.4215 O   0  0  0  0  0  0  0  0  0  0  0  0
  -59.9340   32.0227   -8.5221 C   0  0  0  0  0  0  0  0  0  0  0  0
  -62.8643   33.8518   -9.7146 H   0  0  0  0  0  0  0  0  0  0  0  0
  -61.1230   34.2353   -8.5939 H   0  0  0  0  0  0  0  0  0  0  0  0
  -59.0917   30.9394   -9.0519 N   0  0  0  0  0  0  0  0  0  0  0  0
  -59.4883   29.6582   -9.3342 C   0  0  0  0  0  0  0  0  0  0  0  0
  -58.4247   28.9778   -9.8194 N   0  0  0  0  0  0  0  0  0  0  0  0
  -57.3632   29.8130   -9.8621 C   0  0  0  0  0  0  0  0  0  0  0  0
  -56.0502   29.6374  -10.2718 C   0  0  0  0  0  0  0  0  0  0  0  0
  -55.6394   28.4590  -10.7310 N   0  0  0  0  0  0  0  0  0  0  0  0
  -55.1731   30.6979  -10.1981 N   0  0  0  0  0  0  0  0  0  0  0  0
  -55.5958   31.9215   -9.7242 C   0  0  0  0  0  0  0  0  0  0  0  0
  -56.9027   32.0884   -9.3209 N   0  0  0  0  0  0  0  0  0  0  0  0
  -57.7698   31.0503   -9.3867 C   0  0  0  0  0  0  0  0  0  0  0  0
  -56.2691   27.7040  -10.7821 H   0  0  0  0  0  0  0  0  0  0  0  0
  -54.7056   28.3417  -11.0200 H   0  0  0  0  0  0  0  0  0  0  0  0
  -63.1459   30.5316   -8.2106 C   0  0  0  0  0  0  0  0  0  0  0  0
  -63.3277   29.9946   -6.4899 S   0  0  0  0  0  0  0  0  0  0  0  0
  -64.5547   28.7455   -6.9521 C   0  0  0  0  0  0  0  0  0  0  0  0
  -65.4421   29.1945   -8.1086 C   0  0  0  0  0  0  0  0  0  0  0  0
  -66.8853   30.7691   -6.8997 N   0  0  0  0  0  0  0  0  0  0  0  0
  -66.8690   29.5600   -7.7155 C   0  0  0  0  0  0  0  0  0  0  0  0
  -66.4398   31.5306   -7.4116 H   0  0  0  0  0  0  0  0  0  0  0  0
  -66.3775   30.6003   -6.0314 H   0  0  0  0  0  0  0  0  0  0  0  0
  -67.5256   28.3929   -6.9899 C   0  0  0  0  0  0  0  0  0  0  0  0
  -67.9816   27.4340   -7.6129 O   0  0  0  0  0  0  0  0  0  0  0  0
  -67.6213   28.3902   -5.7629 O   0  0  0  0  0  0  0  0  0  0  0  0
  -67.2824   29.1080   -5.2649 H   0  0  0  0  0  0  0  0  0  0  0  0
 26 27  1  0  0  0
 27 25  1  0  0  0
 27 30  1  0  0  0
 25 24  1  0  0  0
 24 23  1  0  0  0
 23 22  1  0  0  0
 30 31  2  0  0  0
 30 32  1  0  0  0
 22  1  1  0  0  0
  1  2  1  0  0  0
  1  3  1  0  0  0
  2  7  1  0  0  0
  3  4  1  0  0  0
  3  5  1  0  0  0
  5  6  1  0  0  0
  5  7  1  0  0  0
  7 10  1  0  0  0
 10 11  1  0  0  0
 10 19  1  0  0  0
 11 12  2  0  0  0
 12 13  1  0  0  0
 13 14  1  0  0  0
 13 19  2  0  0  0
 14 15  1  0  0  0
 14 16  2  0  0  0
 16 17  1  0  0  0
 17 18  2  0  0  0
 18 19  1  0  0  0
 26 28  1  0  0  0
 26 29  1  0  0  0
 32 33  1  0  0  0
  4  8  1  0  0  0
  6  9  1  0  0  0
 15 20  1  0  0  0
 15 21  1  0  0  0
M  END
> <minimizedAffinity>
-8.63000

$$$$
6MJF_SAH_A_500


 33 35  0  0  0  0  0  0  0  0999 V2000
  -62.2190   31.8524   -8.4790 C   0  0  0  0  0  0  0  0  0  0  0  0
  -60.9926   31.5733   -7.8258 O   0  0  0  0  0  0  0  0  0  0  0  0
  -61.8599   32.2188   -9.9101 C   0  0  0  0  0  0  0  0  0  0  0  0
  -62.7550   33.1581  -10.4537 O   0  0  0  0  0  0  0  0  0  0  0  0
  -60.4733   32.8021   -9.7856 C   0  0  0  0  0  0  0  0  0  0  0  0
  -60.5451   34.1816   -9.5114 O   0  0  0  0  0  0  0  0  0  0  0  0
  -59.9098   32.0986   -8.5707 C   0  0  0  0  0  0  0  0  0  0  0  0
  -62.7628   33.9550   -9.9006 H   0  0  0  0  0  0  0  0  0  0  0  0
  -61.0676   34.3246   -8.7068 H   0  0  0  0  0  0  0  0  0  0  0  0
  -59.0582   31.0022   -9.0570 N   0  0  0  0  0  0  0  0  0  0  0  0
  -59.4420   29.7054   -9.2800 C   0  0  0  0  0  0  0  0  0  0  0  0
  -58.3734   29.0159   -9.7408 N   0  0  0  0  0  0  0  0  0  0  0  0
  -57.3217   29.8600   -9.8267 C   0  0  0  0  0  0  0  0  0  0  0  0
  -56.0090   29.6808  -10.2360 C   0  0  0  0  0  0  0  0  0  0  0  0
  -55.5875   28.4879  -10.6451 N   0  0  0  0  0  0  0  0  0  0  0  0
  -55.1434   30.7531  -10.2144 N   0  0  0  0  0  0  0  0  0  0  0  0
  -55.5773   31.9918   -9.7926 C   0  0  0  0  0  0  0  0  0  0  0  0
  -56.8838   32.1621   -9.3894 N   0  0  0  0  0  0  0  0  0  0  0  0
  -57.7395   31.1127   -9.4042 C   0  0  0  0  0  0  0  0  0  0  0  0
  -56.2090   27.7244  -10.6590 H   0  0  0  0  0  0  0  0  0  0  0  0
  -54.6541   28.3681  -10.9340 H   0  0  0  0  0  0  0  0  0  0  0  0
  -63.1500   30.6476   -8.3919 C   0  0  0  0  0  0  0  0  0  0  0  0
  -64.3434   30.6194   -9.7546 S   0  0  0  0  0  0  0  0  0  0  0  0
  -65.4224   29.4740   -8.8584 C   0  0  0  0  0  0  0  0  0  0  0  0
  -65.2094   29.5268   -7.3490 C   0  0  0  0  0  0  0  0  0  0  0  0
  -66.2778   27.7464   -6.0404 N   0  0  0  0  0  0  0  0  0  0  0  0
  -65.0362   28.1682   -6.6794 C   0  0  0  0  0  0  0  0  0  0  0  0
  -67.0254   27.7205   -6.7338 H   0  0  0  0  0  0  0  0  0  0  0  0
  -66.5215   28.4067   -5.3021 H   0  0  0  0  0  0  0  0  0  0  0  0
  -63.8885   28.2217   -5.6796 C   0  0  0  0  0  0  0  0  0  0  0  0
  -63.2840   27.2003   -5.3524 O   0  0  0  0  0  0  0  0  0  0  0  0
  -63.5482   29.2894   -5.1709 O   0  0  0  0  0  0  0  0  0  0  0  0
  -63.9920   30.0814   -5.4028 H   0  0  0  0  0  0  0  0  0  0  0  0
 26 27  1  0  0  0
 27 25  1  0  0  0
 27 30  1  0  0  0
 25 24  1  0  0  0
 24 23  1  0  0  0
 23 22  1  0  0  0
 30 31  2  0  0  0
 30 32  1  0  0  0
 22  1  1  0  0  0
  1  2  1  0  0  0
  1  3  1  0  0  0
  2  7  1  0  0  0
  3  4  1  0  0  0
  3  5  1  0  0  0
  5  6  1  0  0  0
  5  7  1  0  0  0
  7 10  1  0  0  0
 10 11  1  0  0  0
 10 19  1  0  0  0
 11 12  2  0  0  0
 12 13  1  0  0  0
 13 14  1  0  0  0
 13 19  2  0  0  0
 14 15  1  0  0  0
 14 16  2  0  0  0
 16 17  1  0  0  0
 17 18  2  0  0  0
 18 19  1  0  0  0
 26 28  1  0  0  0
 26 29  1  0  0  0
 32 33  1  0  0  0
  4  8  1  0  0  0
  6  9  1  0  0  0
 15 20  1  0  0  0
 15 21  1  0  0  0
M  END
> <minimizedAffinity>
-8.62518

$$$$
6MJF_SAH_A_500


 33 35  0  0  0  0  0  0  0  0999 V2000
  -60.2186   31.8922   -9.3563 C   0  0  0  0  0  0  0  0  0  0  0  0
  -61.1561   30.8769   -9.6709 O   0  0  0  0  0  0  0  0  0  0  0  0
  -61.0344   33.1361   -9.0429 C   0  0  0  0  0  0  0  0  0  0  0  0
  -60.3590   34.3148   -9.4082 O   0  0  0  0  0  0  0  0  0  0  0  0
  -62.2855   32.9520   -9.8670 C   0  0  0  0  0  0  0  0  0  0  0  0
  -62.0991   33.4711  -11.1629 O   0  0  0  0  0  0  0  0  0  0  0  0
  -62.4172   31.4482   -9.9651 C   0  0  0  0  0  0  0  0  0  0  0  0
  -60.1493   34.2871  -10.3548 H   0  0  0  0  0  0  0  0  0  0  0  0
  -61.3323   33.0435  -11.5753 H   0  0  0  0  0  0  0  0  0  0  0  0
  -63.4037   31.0297   -8.9575 N   0  0  0  0  0  0  0  0  0  0  0  0
  -63.6234   31.6122   -7.7364 C   0  0  0  0  0  0  0  0  0  0  0  0
  -64.6243   30.9451   -7.1177 N   0  0  0  0  0  0  0  0  0  0  0  0
  -65.0517   29.9571   -7.9345 C   0  0  0  0  0  0  0  0  0  0  0  0
  -66.0405   28.9942   -7.8007 C   0  0  0  0  0  0  0  0  0  0  0  0
  -66.7768   28.9336   -6.6951 N   0  0  0  0  0  0  0  0  0  0  0  0
  -66.2530   28.0986   -8.8264 N   0  0  0  0  0  0  0  0  0  0  0  0
  -65.4928   28.1594   -9.9747 C   0  0  0  0  0  0  0  0  0  0  0  0
  -64.5136   29.1205  -10.1009 N   0  0  0  0  0  0  0  0  0  0  0  0
  -64.2960   30.0019   -9.0961 C   0  0  0  0  0  0  0  0  0  0  0  0
  -66.6218   29.5753   -5.9646 H   0  0  0  0  0  0  0  0  0  0  0  0
  -67.4769   28.2471   -6.6069 H   0  0  0  0  0  0  0  0  0  0  0  0
  -59.3361   31.4538   -8.1923 C   0  0  0  0  0  0  0  0  0  0  0  0
  -59.8195   29.8277   -7.5564 S   0  0  0  0  0  0  0  0  0  0  0  0
  -60.5987   30.5686   -6.0992 C   0  0  0  0  0  0  0  0  0  0  0  0
  -61.6790   29.6775   -5.4947 C   0  0  0  0  0  0  0  0  0  0  0  0
  -62.3003   27.4229   -4.7500 N   0  0  0  0  0  0  0  0  0  0  0  0
  -61.1826   28.3328   -4.9757 C   0  0  0  0  0  0  0  0  0  0  0  0
  -62.8267   27.3096   -5.6163 H   0  0  0  0  0  0  0  0  0  0  0  0
  -62.9110   27.8068   -4.0288 H   0  0  0  0  0  0  0  0  0  0  0  0
  -60.3657   28.5328   -3.7059 C   0  0  0  0  0  0  0  0  0  0  0  0
  -59.1351   28.5142   -3.7336 O   0  0  0  0  0  0  0  0  0  0  0  0
  -60.9223   28.7085   -2.6223 O   0  0  0  0  0  0  0  0  0  0  0  0
  -61.8579   28.7269   -2.5737 H   0  0  0  0  0  0  0  0  0  0  0  0
 26 27  1  0  0  0
 27 25  1  0  0  0
 27 30  1  0  0  0
 25 24  1  0  0  0
 24 23  1  0  0  0
 23 22  1  0  0  0
 30 31  2  0  0  0
 30 32  1  0  0  0
 22  1  1  0  0  0
  1  2  1  0  0  0
  1  3  1  0  0  0
  2  7  1  0  0  0
  3  4  1  0  0  0
  3  5  1  0  0  0
  5  6  1  0  0  0
  5  7  1  0  0  0
  7 10  1  0  0  0
 10 11  1  0  0  0
 10 19  1  0  0  0
 11 12  2  0  0  0
 12 13  1  0  0  0
 13 14  1  0  0  0
 13 19  2  0  0  0
 14 15  1  0  0  0
 14 16  2  0  0  0
 16 17  1  0  0  0
 17 18  2  0  0  0
 18 19  1  0  0  0
 26 28  1  0  0  0
 26 29  1  0  0  0
 32 33  1  0  0  0
  4  8  1  0  0  0
  6  9  1  0  0  0
 15 20  1  0  0  0
 15 21  1  0  0  0
M  END
> <minimizedAffinity>
-8.48858

$$$$
6MJF_SAH_A_500


 33 35  0  0  0  0  0  0  0  0999 V2000
  -62.3516   31.8339   -8.8685 C   0  0  0  0  0  0  0  0  0  0  0  0
  -61.2554   31.4102   -8.0764 O   0  0  0  0  0  0  0  0  0  0  0  0
  -61.7561   32.3601  -10.1646 C   0  0  0  0  0  0  0  0  0  0  0  0
  -62.5222   33.4064  -10.7096 O   0  0  0  0  0  0  0  0  0  0  0  0
  -60.3898   32.8494   -9.7495 C   0  0  0  0  0  0  0  0  0  0  0  0
  -60.4612   34.1848   -9.3076 O   0  0  0  0  0  0  0  0  0  0  0  0
  -60.0511   31.9686   -8.5673 C   0  0  0  0  0  0  0  0  0  0  0  0
  -62.5936   34.1258  -10.0628 H   0  0  0  0  0  0  0  0  0  0  0  0
  -61.1014   34.2514   -8.5819 H   0  0  0  0  0  0  0  0  0  0  0  0
  -59.1674   30.9000   -9.0580 N   0  0  0  0  0  0  0  0  0  0  0  0
  -59.5162   29.5969   -9.3007 C   0  0  0  0  0  0  0  0  0  0  0  0
  -58.4261   28.9401   -9.7589 N   0  0  0  0  0  0  0  0  0  0  0  0
  -57.3951   29.8112   -9.8237 C   0  0  0  0  0  0  0  0  0  0  0  0
  -56.0743   29.6700  -10.2215 C   0  0  0  0  0  0  0  0  0  0  0  0
  -55.6189   28.4931  -10.6407 N   0  0  0  0  0  0  0  0  0  0  0  0
  -55.2362   30.7633  -10.1781 N   0  0  0  0  0  0  0  0  0  0  0  0
  -55.7053   31.9854   -9.7457 C   0  0  0  0  0  0  0  0  0  0  0  0
  -57.0196   32.1179   -9.3540 N   0  0  0  0  0  0  0  0  0  0  0  0
  -57.8485   31.0477   -9.3903 C   0  0  0  0  0  0  0  0  0  0  0  0
  -56.2208   27.7146  -10.6702 H   0  0  0  0  0  0  0  0  0  0  0  0
  -54.6799   28.4003  -10.9215 H   0  0  0  0  0  0  0  0  0  0  0  0
  -63.3220   30.6782   -9.0890 C   0  0  0  0  0  0  0  0  0  0  0  0
  -64.1877   30.2260   -7.5631 S   0  0  0  0  0  0  0  0  0  0  0  0
  -65.3502   29.1741   -8.4696 C   0  0  0  0  0  0  0  0  0  0  0  0
  -65.3929   29.4959   -9.9600 C   0  0  0  0  0  0  0  0  0  0  0  0
  -64.4624   27.3314  -10.6474 N   0  0  0  0  0  0  0  0  0  0  0  0
  -65.5442   28.2837  -10.8721 C   0  0  0  0  0  0  0  0  0  0  0  0
  -64.4529   27.0527   -9.6663 H   0  0  0  0  0  0  0  0  0  0  0  0
  -63.5713   27.7667  -10.8859 H   0  0  0  0  0  0  0  0  0  0  0  0
  -65.5972   28.7292  -12.3275 C   0  0  0  0  0  0  0  0  0  0  0  0
  -66.5250   28.3889  -13.0619 O   0  0  0  0  0  0  0  0  0  0  0  0
  -64.7058   29.4328  -12.8017 O   0  0  0  0  0  0  0  0  0  0  0  0
  -63.9884   29.7056  -12.2642 H   0  0  0  0  0  0  0  0  0  0  0  0
 26 27  1  0  0  0
 27 25  1  0  0  0
 27 30  1  0  0  0
 25 24  1  0  0  0
 24 23  1  0  0  0
 23 22  1  0  0  0
 30 31  2  0  0  0
 30 32  1  0  0  0
 22  1  1  0  0  0
  1  2  1  0  0  0
  1  3  1  0  0  0
  2  7  1  0  0  0
  3  4  1  0  0  0
  3  5  1  0  0  0
  5  6  1  0  0  0
  5  7  1  0  0  0
  7 10  1  0  0  0
 10 11  1  0  0  0
 10 19  1  0  0  0
 11 12  2  0  0  0
 12 13  1  0  0  0
 13 14  1  0  0  0
 13 19  2  0  0  0
 14 15  1  0  0  0
 14 16  2  0  0  0
 16 17  1  0  0  0
 17 18  2  0  0  0
 18 19  1  0  0  0
 26 28  1  0  0  0
 26 29  1  0  0  0
 32 33  1  0  0  0
  4  8  1  0  0  0
  6  9  1  0  0  0
 15 20  1  0  0  0
 15 21  1  0  0  0
M  END
> <minimizedAffinity>
-8.32668

$$$$
6MJF_SAH_A_500


 33 35  0  0  0  0  0  0  0  0999 V2000
  -62.2647   31.8346   -8.7150 C   0  0  0  0  0  0  0  0  0  0  0  0
  -61.1237   31.4480   -7.9685 O   0  0  0  0  0  0  0  0  0  0  0  0
  -61.7435   32.3306  -10.0543 C   0  0  0  0  0  0  0  0  0  0  0  0
  -62.5512   33.3508  -10.5887 O   0  0  0  0  0  0  0  0  0  0  0  0
  -60.3650   32.8491   -9.7240 C   0  0  0  0  0  0  0  0  0  0  0  0
  -60.4328   34.1956   -9.3169 O   0  0  0  0  0  0  0  0  0  0  0  0
  -59.9540   32.0073   -8.5362 C   0  0  0  0  0  0  0  0  0  0  0  0
  -62.5998   34.0876   -9.9596 H   0  0  0  0  0  0  0  0  0  0  0  0
  -61.0360   34.2751   -8.5615 H   0  0  0  0  0  0  0  0  0  0  0  0
  -59.0813   30.9362   -9.0412 N   0  0  0  0  0  0  0  0  0  0  0  0
  -59.4418   29.6383   -9.2942 C   0  0  0  0  0  0  0  0  0  0  0  0
  -58.3593   28.9771   -9.7639 N   0  0  0  0  0  0  0  0  0  0  0  0
  -57.3216   29.8405   -9.8257 C   0  0  0  0  0  0  0  0  0  0  0  0
  -56.0040   29.6924  -10.2314 C   0  0  0  0  0  0  0  0  0  0  0  0
  -55.5601   28.5159  -10.6637 N   0  0  0  0  0  0  0  0  0  0  0  0
  -55.1569   30.7785  -10.1820 N   0  0  0  0  0  0  0  0  0  0  0  0
  -55.6140   32.0002   -9.7360 C   0  0  0  0  0  0  0  0  0  0  0  0
  -56.9253   32.1396   -9.3365 N   0  0  0  0  0  0  0  0  0  0  0  0
  -57.7629   31.0765   -9.3786 C   0  0  0  0  0  0  0  0  0  0  0  0
  -56.1684   27.7425  -10.6975 H   0  0  0  0  0  0  0  0  0  0  0  0
  -54.6233   28.4181  -10.9500 H   0  0  0  0  0  0  0  0  0  0  0  0
  -63.2285   30.6606   -8.8526 C   0  0  0  0  0  0  0  0  0  0  0  0
  -64.0306   30.2604   -7.2781 S   0  0  0  0  0  0  0  0  0  0  0  0
  -65.5370   29.7141   -8.1218 C   0  0  0  0  0  0  0  0  0  0  0  0
  -65.4306   29.8199   -9.6397 C   0  0  0  0  0  0  0  0  0  0  0  0
  -66.7593   28.9529  -11.5122 N   0  0  0  0  0  0  0  0  0  0  0  0
  -66.7663   29.8640  -10.3731 C   0  0  0  0  0  0  0  0  0  0  0  0
  -66.5489   28.0081  -11.1906 H   0  0  0  0  0  0  0  0  0  0  0  0
  -66.0490   29.2504  -12.1812 H   0  0  0  0  0  0  0  0  0  0  0  0
  -67.0769   31.2907  -10.8064 C   0  0  0  0  0  0  0  0  0  0  0  0
  -68.2343   31.7101  -10.8265 O   0  0  0  0  0  0  0  0  0  0  0  0
  -66.1745   32.0517  -11.1547 O   0  0  0  0  0  0  0  0  0  0  0  0
  -65.2850   31.7573  -11.1486 H   0  0  0  0  0  0  0  0  0  0  0  0
 26 27  1  0  0  0
 27 25  1  0  0  0
 27 30  1  0  0  0
 25 24  1  0  0  0
 24 23  1  0  0  0
 23 22  1  0  0  0
 30 31  2  0  0  0
 30 32  1  0  0  0
 22  1  1  0  0  0
  1  2  1  0  0  0
  1  3  1  0  0  0
  2  7  1  0  0  0
  3  4  1  0  0  0
  3  5  1  0  0  0
  5  6  1  0  0  0
  5  7  1  0  0  0
  7 10  1  0  0  0
 10 11  1  0  0  0
 10 19  1  0  0  0
 11 12  2  0  0  0
 12 13  1  0  0  0
 13 14  1  0  0  0
 13 19  2  0  0  0
 14 15  1  0  0  0
 14 16  2  0  0  0
 16 17  1  0  0  0
 17 18  2  0  0  0
 18 19  1  0  0  0
 26 28  1  0  0  0
 26 29  1  0  0  0
 32 33  1  0  0  0
  4  8  1  0  0  0
  6  9  1  0  0  0
 15 20  1  0  0  0
 15 21  1  0  0  0
M  END
> <minimizedAffinity>
-8.30763

$$$$
6MJF_SAH_A_500


 33 35  0  0  0  0  0  0  0  0999 V2000
  -63.8885   30.7991   -9.9475 C   0  0  0  0  0  0  0  0  0  0  0  0
  -63.7304   29.3970  -10.0816 O   0  0  0  0  0  0  0  0  0  0  0  0
  -65.2806   31.1175  -10.4689 C   0  0  0  0  0  0  0  0  0  0  0  0
  -65.3417   32.3907  -11.0640 O   0  0  0  0  0  0  0  0  0  0  0  0
  -65.5306   30.0319  -11.4873 C   0  0  0  0  0  0  0  0  0  0  0  0
  -65.0332   30.4181  -12.7471 O   0  0  0  0  0  0  0  0  0  0  0  0
  -64.6980   28.8777  -10.9744 C   0  0  0  0  0  0  0  0  0  0  0  0
  -64.6982   32.4403  -11.7882 H   0  0  0  0  0  0  0  0  0  0  0  0
  -64.0892   30.6280  -12.6715 H   0  0  0  0  0  0  0  0  0  0  0  0
  -65.6057   27.9700  -10.2561 N   0  0  0  0  0  0  0  0  0  0  0  0
  -66.5447   27.1418  -10.8137 C   0  0  0  0  0  0  0  0  0  0  0  0
  -67.1579   26.4593   -9.8199 N   0  0  0  0  0  0  0  0  0  0  0  0
  -66.6116   26.8322   -8.6416 C   0  0  0  0  0  0  0  0  0  0  0  0
  -66.8586   26.4482   -7.3323 C   0  0  0  0  0  0  0  0  0  0  0  0
  -67.7938   25.5428   -7.0607 N   0  0  0  0  0  0  0  0  0  0  0  0
  -66.1242   27.0151   -6.3131 N   0  0  0  0  0  0  0  0  0  0  0  0
  -65.1527   27.9528   -6.5911 C   0  0  0  0  0  0  0  0  0  0  0  0
  -64.9119   28.3277   -7.8949 N   0  0  0  0  0  0  0  0  0  0  0  0
  -65.6316   27.7780   -8.9017 C   0  0  0  0  0  0  0  0  0  0  0  0
  -68.3162   25.1401   -7.7916 H   0  0  0  0  0  0  0  0  0  0  0  0
  -67.9638   25.2750   -6.1287 H   0  0  0  0  0  0  0  0  0  0  0  0
  -63.6907   31.2163   -8.4940 C   0  0  0  0  0  0  0  0  0  0  0  0
  -61.9387   31.4412   -8.0909 S   0  0  0  0  0  0  0  0  0  0  0  0
  -62.1576   30.6724   -6.4659 C   0  0  0  0  0  0  0  0  0  0  0  0
  -60.9671   29.8096   -6.0600 C   0  0  0  0  0  0  0  0  0  0  0  0
  -62.6653   28.8394   -4.5771 N   0  0  0  0  0  0  0  0  0  0  0  0
  -61.2731   28.7533   -5.0041 C   0  0  0  0  0  0  0  0  0  0  0  0
  -63.2764   28.7355   -5.3871 H   0  0  0  0  0  0  0  0  0  0  0  0
  -62.8314   29.7459   -4.1399 H   0  0  0  0  0  0  0  0  0  0  0  0
  -60.3213   28.9035   -3.8246 C   0  0  0  0  0  0  0  0  0  0  0  0
  -59.1756   29.3253   -3.9835 O   0  0  0  0  0  0  0  0  0  0  0  0
  -60.6775   28.5964   -2.6873 O   0  0  0  0  0  0  0  0  0  0  0  0
  -61.5442   28.2727   -2.5391 H   0  0  0  0  0  0  0  0  0  0  0  0
 26 27  1  0  0  0
 27 25  1  0  0  0
 27 30  1  0  0  0
 25 24  1  0  0  0
 24 23  1  0  0  0
 23 22  1  0  0  0
 30 31  2  0  0  0
 30 32  1  0  0  0
 22  1  1  0  0  0
  1  2  1  0  0  0
  1  3  1  0  0  0
  2  7  1  0  0  0
  3  4  1  0  0  0
  3  5  1  0  0  0
  5  6  1  0  0  0
  5  7  1  0  0  0
  7 10  1  0  0  0
 10 11  1  0  0  0
 10 19  1  0  0  0
 11 12  2  0  0  0
 12 13  1  0  0  0
 13 14  1  0  0  0
 13 19  2  0  0  0
 14 15  1  0  0  0
 14 16  2  0  0  0
 16 17  1  0  0  0
 17 18  2  0  0  0
 18 19  1  0  0  0
 26 28  1  0  0  0
 26 29  1  0  0  0
 32 33  1  0  0  0
  4  8  1  0  0  0
  6  9  1  0  0  0
 15 20  1  0  0  0
 15 21  1  0  0  0
M  END
> <minimizedAffinity>
-8.16446

$$$$
6MJF_SAH_A_500


 33 35  0  0  0  0  0  0  0  0999 V2000
  -65.3577   29.6905   -8.0516 C   0  0  0  0  0  0  0  0  0  0  0  0
  -66.2359   29.4813   -9.1441 O   0  0  0  0  0  0  0  0  0  0  0  0
  -65.1966   28.3383   -7.3759 C   0  0  0  0  0  0  0  0  0  0  0  0
  -64.9992   28.4628   -5.9887 O   0  0  0  0  0  0  0  0  0  0  0  0
  -66.4999   27.6386   -7.6762 C   0  0  0  0  0  0  0  0  0  0  0  0
  -67.4605   27.9501   -6.6945 O   0  0  0  0  0  0  0  0  0  0  0  0
  -66.9320   28.2591   -8.9864 C   0  0  0  0  0  0  0  0  0  0  0  0
  -65.7471   28.9408   -5.5974 H   0  0  0  0  0  0  0  0  0  0  0  0
  -67.5732   28.9123   -6.6462 H   0  0  0  0  0  0  0  0  0  0  0  0
  -66.5527   27.3252  -10.0578 N   0  0  0  0  0  0  0  0  0  0  0  0
  -66.6907   25.9617  -10.0414 C   0  0  0  0  0  0  0  0  0  0  0  0
  -66.2426   25.4718  -11.2199 N   0  0  0  0  0  0  0  0  0  0  0  0
  -65.8359   26.5060  -11.9886 C   0  0  0  0  0  0  0  0  0  0  0  0
  -65.3039   26.5689  -13.2675 C   0  0  0  0  0  0  0  0  0  0  0  0
  -65.1102   25.4580  -13.9722 N   0  0  0  0  0  0  0  0  0  0  0  0
  -64.9769   27.7963  -13.8025 N   0  0  0  0  0  0  0  0  0  0  0  0
  -65.1780   28.9502  -13.0756 C   0  0  0  0  0  0  0  0  0  0  0  0
  -65.7090   28.8795  -11.8061 N   0  0  0  0  0  0  0  0  0  0  0  0
  -66.0295   27.6771  -11.2719 C   0  0  0  0  0  0  0  0  0  0  0  0
  -65.3451   24.5832  -13.5864 H   0  0  0  0  0  0  0  0  0  0  0  0
  -64.7319   25.5103  -14.8796 H   0  0  0  0  0  0  0  0  0  0  0  0
  -64.0343   30.2694   -8.5411 C   0  0  0  0  0  0  0  0  0  0  0  0
  -63.3656   31.4924   -7.3837 S   0  0  0  0  0  0  0  0  0  0  0  0
  -61.9816   30.4074   -6.9517 C   0  0  0  0  0  0  0  0  0  0  0  0
  -61.9324   30.0841   -5.4619 C   0  0  0  0  0  0  0  0  0  0  0  0
  -62.2904   27.7157   -4.9270 N   0  0  0  0  0  0  0  0  0  0  0  0
  -61.2797   28.7500   -5.1179 C   0  0  0  0  0  0  0  0  0  0  0  0
  -62.8609   27.6382   -5.7690 H   0  0  0  0  0  0  0  0  0  0  0  0
  -62.8844   27.9627   -4.1354 H   0  0  0  0  0  0  0  0  0  0  0  0
  -60.4017   28.9017   -3.8827 C   0  0  0  0  0  0  0  0  0  0  0  0
  -59.2573   29.3475   -3.9685 O   0  0  0  0  0  0  0  0  0  0  0  0
  -60.8176   28.5718   -2.7723 O   0  0  0  0  0  0  0  0  0  0  0  0
  -61.6849   28.2296   -2.6796 H   0  0  0  0  0  0  0  0  0  0  0  0
 26 27  1  0  0  0
 27 25  1  0  0  0
 27 30  1  0  0  0
 25 24  1  0  0  0
 24 23  1  0  0  0
 23 22  1  0  0  0
 30 31  2  0  0  0
 30 32  1  0  0  0
 22  1  1  0  0  0
  1  2  1  0  0  0
  1  3  1  0  0  0
  2  7  1  0  0  0
  3  4  1  0  0  0
  3  5  1  0  0  0
  5  6  1  0  0  0
  5  7  1  0  0  0
  7 10  1  0  0  0
 10 11  1  0  0  0
 10 19  1  0  0  0
 11 12  2  0  0  0
 12 13  1  0  0  0
 13 14  1  0  0  0
 13 19  2  0  0  0
 14 15  1  0  0  0
 14 16  2  0  0  0
 16 17  1  0  0  0
 17 18  2  0  0  0
 18 19  1  0  0  0
 26 28  1  0  0  0
 26 29  1  0  0  0
 32 33  1  0  0  0
  4  8  1  0  0  0
  6  9  1  0  0  0
 15 20  1  0  0  0
 15 21  1  0  0  0
M  END
> <minimizedAffinity>
-8.02758

$$$$
6MJF_SAH_A_500


 33 35  0  0  0  0  0  0  0  0999 V2000
  -61.3420   30.7716   -7.6019 C   0  0  0  0  0  0  0  0  0  0  0  0
  -62.7521   30.9133   -7.5829 O   0  0  0  0  0  0  0  0  0  0  0  0
  -61.0109   29.7151   -6.5600 C   0  0  0  0  0  0  0  0  0  0  0  0
  -59.7633   29.9468   -5.9531 O   0  0  0  0  0  0  0  0  0  0  0  0
  -62.1325   29.8466   -5.5585 C   0  0  0  0  0  0  0  0  0  0  0  0
  -61.8133   30.8185   -4.5905 O   0  0  0  0  0  0  0  0  0  0  0  0
  -63.2844   30.3597   -6.3941 C   0  0  0  0  0  0  0  0  0  0  0  0
  -59.7611   30.8263   -5.5440 H   0  0  0  0  0  0  0  0  0  0  0  0
  -61.6244   31.6625   -5.0297 H   0  0  0  0  0  0  0  0  0  0  0  0
  -64.1372   29.2056   -6.7175 N   0  0  0  0  0  0  0  0  0  0  0  0
  -64.2991   28.0716   -5.9649 C   0  0  0  0  0  0  0  0  0  0  0  0
  -65.1784   27.2606   -6.5964 N   0  0  0  0  0  0  0  0  0  0  0  0
  -65.5871   27.8702   -7.7310 C   0  0  0  0  0  0  0  0  0  0  0  0
  -66.4710   27.4921   -8.7302 C   0  0  0  0  0  0  0  0  0  0  0  0
  -67.0986   26.3215   -8.6672 N   0  0  0  0  0  0  0  0  0  0  0  0
  -66.6931   28.3428   -9.7916 N   0  0  0  0  0  0  0  0  0  0  0  0
  -66.0456   29.5579   -9.8594 C   0  0  0  0  0  0  0  0  0  0  0  0
  -65.1702   29.9271   -8.8614 N   0  0  0  0  0  0  0  0  0  0  0  0
  -64.9438   29.0954   -7.8170 C   0  0  0  0  0  0  0  0  0  0  0  0
  -66.9372   25.7167   -7.9074 H   0  0  0  0  0  0  0  0  0  0  0  0
  -67.7247   26.0597   -9.3804 H   0  0  0  0  0  0  0  0  0  0  0  0
  -60.8681   30.3926   -9.0011 C   0  0  0  0  0  0  0  0  0  0  0  0
  -59.1956   31.0044   -9.3338 S   0  0  0  0  0  0  0  0  0  0  0  0
  -58.4917   29.3472   -9.1388 C   0  0  0  0  0  0  0  0  0  0  0  0
  -56.9672   29.3478   -9.1887 C   0  0  0  0  0  0  0  0  0  0  0  0
  -55.5058   29.3685  -11.1604 N   0  0  0  0  0  0  0  0  0  0  0  0
  -56.3642   30.1860  -10.3103 C   0  0  0  0  0  0  0  0  0  0  0  0
  -56.0436   28.5872  -11.5355 H   0  0  0  0  0  0  0  0  0  0  0  0
  -54.7245   29.0107  -10.6109 H   0  0  0  0  0  0  0  0  0  0  0  0
  -55.6018   31.3681   -9.7263 C   0  0  0  0  0  0  0  0  0  0  0  0
  -54.7431   31.2037   -8.8595 O   0  0  0  0  0  0  0  0  0  0  0  0
  -55.8368   32.5155  -10.1045 O   0  0  0  0  0  0  0  0  0  0  0  0
  -56.4856   32.6681  -10.7630 H   0  0  0  0  0  0  0  0  0  0  0  0
 26 27  1  0  0  0
 27 25  1  0  0  0
 27 30  1  0  0  0
 25 24  1  0  0  0
 24 23  1  0  0  0
 23 22  1  0  0  0
 30 31  2  0  0  0
 30 32  1  0  0  0
 22  1  1  0  0  0
  1  2  1  0  0  0
  1  3  1  0  0  0
  2  7  1  0  0  0
  3  4  1  0  0  0
  3  5  1  0  0  0
  5  6  1  0  0  0
  5  7  1  0  0  0
  7 10  1  0  0  0
 10 11  1  0  0  0
 10 19  1  0  0  0
 11 12  2  0  0  0
 12 13  1  0  0  0
 13 14  1  0  0  0
 13 19  2  0  0  0
 14 15  1  0  0  0
 14 16  2  0  0  0
 16 17  1  0  0  0
 17 18  2  0  0  0
 18 19  1  0  0  0
 26 28  1  0  0  0
 26 29  1  0  0  0
 32 33  1  0  0  0
  4  8  1  0  0  0
  6  9  1  0  0  0
 15 20  1  0  0  0
 15 21  1  0  0  0
M  END
> <minimizedAffinity>
-7.99352

$$$$
6MJF_SAH_A_500


 33 35  0  0  0  0  0  0  0  0999 V2000
  -62.4015   31.5879   -7.2813 C   0  0  0  0  0  0  0  0  0  0  0  0
  -63.8035   31.5445   -7.4840 O   0  0  0  0  0  0  0  0  0  0  0  0
  -61.9745   30.1594   -6.9844 C   0  0  0  0  0  0  0  0  0  0  0  0
  -60.8768   30.1096   -6.1061 O   0  0  0  0  0  0  0  0  0  0  0  0
  -63.2020   29.5508   -6.3511 C   0  0  0  0  0  0  0  0  0  0  0  0
  -63.2004   29.7790   -4.9613 O   0  0  0  0  0  0  0  0  0  0  0  0
  -64.3365   30.3395   -6.9670 C   0  0  0  0  0  0  0  0  0  0  0  0
  -61.1026   30.5654   -5.2802 H   0  0  0  0  0  0  0  0  0  0  0  0
  -63.1440   30.7321   -4.7902 H   0  0  0  0  0  0  0  0  0  0  0  0
  -64.8896   29.5268   -8.0611 N   0  0  0  0  0  0  0  0  0  0  0  0
  -64.8439   29.8172   -9.3998 C   0  0  0  0  0  0  0  0  0  0  0  0
  -65.4463   28.8129  -10.0767 N   0  0  0  0  0  0  0  0  0  0  0  0
  -65.8607   27.8833   -9.1877 C   0  0  0  0  0  0  0  0  0  0  0  0
  -66.5194   26.6725   -9.3383 C   0  0  0  0  0  0  0  0  0  0  0  0
  -66.8618   26.2375  -10.5473 N   0  0  0  0  0  0  0  0  0  0  0  0
  -66.8168   25.9229   -8.2207 N   0  0  0  0  0  0  0  0  0  0  0  0
  -66.4619   26.3699   -6.9658 C   0  0  0  0  0  0  0  0  0  0  0  0
  -65.8057   27.5732   -6.8247 N   0  0  0  0  0  0  0  0  0  0  0  0
  -65.5131   28.3175   -7.9176 C   0  0  0  0  0  0  0  0  0  0  0  0
  -66.6475   26.7760  -11.3431 H   0  0  0  0  0  0  0  0  0  0  0  0
  -67.3295   25.3769  -10.6465 H   0  0  0  0  0  0  0  0  0  0  0  0
  -61.7082   32.1704   -8.5085 C   0  0  0  0  0  0  0  0  0  0  0  0
  -61.1764   30.8758   -9.6588 S   0  0  0  0  0  0  0  0  0  0  0  0
  -59.4311   31.1920   -9.2936 C   0  0  0  0  0  0  0  0  0  0  0  0
  -58.5351   30.0074   -9.6407 C   0  0  0  0  0  0  0  0  0  0  0  0
  -56.7586   31.6955   -9.7747 N   0  0  0  0  0  0  0  0  0  0  0  0
  -57.0395   30.2841   -9.5360 C   0  0  0  0  0  0  0  0  0  0  0  0
  -57.2837   32.2638   -9.1101 H   0  0  0  0  0  0  0  0  0  0  0  0
  -57.0351   31.9412  -10.7252 H   0  0  0  0  0  0  0  0  0  0  0  0
  -56.2750   29.3947  -10.5077 C   0  0  0  0  0  0  0  0  0  0  0  0
  -56.5986   28.2196  -10.6813 O   0  0  0  0  0  0  0  0  0  0  0  0
  -55.3100   29.8327  -11.1335 O   0  0  0  0  0  0  0  0  0  0  0  0
  -55.0430   30.7236  -11.0196 H   0  0  0  0  0  0  0  0  0  0  0  0
 26 27  1  0  0  0
 27 25  1  0  0  0
 27 30  1  0  0  0
 25 24  1  0  0  0
 24 23  1  0  0  0
 23 22  1  0  0  0
 30 31  2  0  0  0
 30 32  1  0  0  0
 22  1  1  0  0  0
  1  2  1  0  0  0
  1  3  1  0  0  0
  2  7  1  0  0  0
  3  4  1  0  0  0
  3  5  1  0  0  0
  5  6  1  0  0  0
  5  7  1  0  0  0
  7 10  1  0  0  0
 10 11  1  0  0  0
 10 19  1  0  0  0
 11 12  2  0  0  0
 12 13  1  0  0  0
 13 14  1  0  0  0
 13 19  2  0  0  0
 14 15  1  0  0  0
 14 16  2  0  0  0
 16 17  1  0  0  0
 17 18  2  0  0  0
 18 19  1  0  0  0
 26 28  1  0  0  0
 26 29  1  0  0  0
 32 33  1  0  0  0
  4  8  1  0  0  0
  6  9  1  0  0  0
 15 20  1  0  0  0
 15 21  1  0  0  0
M  END
> <minimizedAffinity>
-7.91726

$$$$
