4W9F_3JU_C_301


 31 33  0  0  0  0  0  0  0  0999 V2000
   -6.1415   34.8404    1.9660 C   0  0  0  0  0  0  0  0  0  0  0  0
   -5.0833   34.4472    1.5016 O   0  0  0  0  0  0  0  0  0  0  0  0
   -6.2293   35.6378    3.0412 N   0  0  0  0  0  0  0  0  0  0  0  0
   -7.1269   35.8703    3.3721 H   0  0  0  0  0  0  0  0  0  0  0  0
   -7.1538   34.8384   -0.9704 C   0  0  0  0  0  0  0  0  0  0  0  0
   -6.8928   36.0183   -0.7382 O   0  0  0  0  0  0  0  0  0  0  0  0
   -7.3716   33.9452    0.0226 N   0  0  0  0  0  0  0  0  0  0  0  0
   -7.7624   32.5016   -0.0697 C   0  0  0  0  0  0  0  0  0  0  0  0
   -8.4869   32.2218    1.2127 C   0  0  0  0  0  0  0  0  0  0  0  0
   -9.8522   32.6034    1.0921 O   0  0  0  0  0  0  0  0  0  0  0  0
   -7.7661   33.0978    2.2102 C   0  0  0  0  0  0  0  0  0  0  0  0
   -7.3694   34.3649    1.4589 C   0  0  0  0  0  0  0  0  0  0  0  0
   -9.9055   33.5382    0.8386 H   0  0  0  0  0  0  0  0  0  0  0  0
   -7.2899   34.3306   -2.4423 C   0  0  0  0  0  0  0  0  0  0  0  0
   -6.0621   33.4122   -4.3337 C   0  0  0  0  0  0  0  0  0  0  0  0
   -5.9269   34.2672   -3.0748 C   0  0  0  0  0  0  0  0  0  0  0  0
   -5.4454   35.6640   -3.5096 C   0  0  0  0  0  0  0  0  0  0  0  0
   -4.9242   33.6023   -2.1120 C   0  0  0  0  0  0  0  0  0  0  0  0
   -5.0756   36.1815    3.7504 C   0  0  0  0  0  0  0  0  0  0  0  0
   -4.8618   35.4187    4.9269 C   0  0  0  0  0  0  0  0  0  0  0  0
   -5.9653   34.9169    5.6132 C   0  0  0  0  0  0  0  0  0  0  0  0
   -5.8071   34.1716    6.7901 C   0  0  0  0  0  0  0  0  0  0  0  0
   -3.5908   35.1497    5.4605 C   0  0  0  0  0  0  0  0  0  0  0  0
   -3.4384   34.4114    6.6419 C   0  0  0  0  0  0  0  0  0  0  0  0
   -4.5363   33.8985    7.3243 C   0  0  0  0  0  0  0  0  0  0  0  0
   -4.3798   33.1825    8.4646 C   0  0  0  0  0  0  0  0  0  0  0  0
   -3.4668   33.6370    9.8135 S   0  0  0  0  0  0  0  0  0  0  0  0
   -3.7967   32.3166   10.7158 C   0  0  0  0  0  0  0  0  0  0  0  0
   -4.6003   31.5226   10.0062 N   0  0  0  0  0  0  0  0  0  0  0  0
   -4.9187   31.9842    8.7806 C   0  0  0  0  0  0  0  0  0  0  0  0
   -5.8344   31.1506    7.8748 C   0  0  0  0  0  0  0  0  0  0  0  0
 15 16  1  0  0  0
 17 16  1  0  0  0
 16 14  1  0  0  0
 16 18  1  0  0  0
 14  5  1  0  0  0
  5  6  2  0  0  0
  5  7  1  0  0  0
  8  7  1  0  0  0
  8  9  1  0  0  0
  7 12  1  0  0  0
 10  9  1  0  0  0
  9 11  1  0  0  0
 12  1  1  0  0  0
 12 11  1  0  0  0
  2  1  2  0  0  0
  1  3  1  0  0  0
  3 19  1  0  0  0
 19 20  1  0  0  0
 20 23  2  0  0  0
 20 21  1  0  0  0
 23 24  1  0  0  0
 21 22  2  0  0  0
 24 25  2  0  0  0
 22 25  1  0  0  0
 25 26  1  0  0  0
 26 27  1  0  0  0
 26 30  2  0  0  0
 27 28  1  0  0  0
 30 31  1  0  0  0
 30 29  1  0  0  0
 28 29  2  0  0  0
 10 13  1  0  0  0
  3  4  1  0  0  0
M  END
> <minimizedAffinity>
-8.71825

$$$$
4W9F_3JU_C_301


 31 33  0  0  0  0  0  0  0  0999 V2000
   -6.5131   34.6564    2.7151 C   0  0  0  0  0  0  0  0  0  0  0  0
   -6.9850   33.7506    2.0467 O   0  0  0  0  0  0  0  0  0  0  0  0
   -6.5100   34.6649    4.0566 N   0  0  0  0  0  0  0  0  0  0  0  0
   -6.1462   35.4578    4.5129 H   0  0  0  0  0  0  0  0  0  0  0  0
   -4.6764   34.9393    0.2264 C   0  0  0  0  0  0  0  0  0  0  0  0
   -4.0289   34.2414    1.0060 O   0  0  0  0  0  0  0  0  0  0  0  0
   -5.6944   35.7255    0.6467 N   0  0  0  0  0  0  0  0  0  0  0  0
   -6.5405   36.6813   -0.1381 C   0  0  0  0  0  0  0  0  0  0  0  0
   -6.9899   37.7015    0.8643 C   0  0  0  0  0  0  0  0  0  0  0  0
   -5.9920   38.7041    1.0173 O   0  0  0  0  0  0  0  0  0  0  0  0
   -7.1425   36.8920    2.1305 C   0  0  0  0  0  0  0  0  0  0  0  0
   -6.0430   35.8350    2.0978 C   0  0  0  0  0  0  0  0  0  0  0  0
   -5.1525   38.2888    1.2697 H   0  0  0  0  0  0  0  0  0  0  0  0
   -4.3126   34.9782   -1.2932 C   0  0  0  0  0  0  0  0  0  0  0  0
   -4.8971   33.9873   -3.4390 C   0  0  0  0  0  0  0  0  0  0  0  0
   -4.7604   33.6990   -1.9449 C   0  0  0  0  0  0  0  0  0  0  0  0
   -3.7074   32.5872   -1.7793 C   0  0  0  0  0  0  0  0  0  0  0  0
   -6.1277   33.2655   -1.3820 C   0  0  0  0  0  0  0  0  0  0  0  0
   -7.0129   33.5706    4.8807 C   0  0  0  0  0  0  0  0  0  0  0  0
   -6.2264   33.4873    6.0582 C   0  0  0  0  0  0  0  0  0  0  0  0
   -6.3763   32.3805    6.8906 C   0  0  0  0  0  0  0  0  0  0  0  0
   -5.6343   32.2601    8.0740 C   0  0  0  0  0  0  0  0  0  0  0  0
   -5.3071   34.4734    6.4520 C   0  0  0  0  0  0  0  0  0  0  0  0
   -4.5740   34.3524    7.6404 C   0  0  0  0  0  0  0  0  0  0  0  0
   -4.7116   33.2438    8.4687 C   0  0  0  0  0  0  0  0  0  0  0  0
   -3.9962   33.1332    9.6147 C   0  0  0  0  0  0  0  0  0  0  0  0
   -2.7451   34.1549   10.1152 S   0  0  0  0  0  0  0  0  0  0  0  0
   -2.4425   33.3998   11.5311 C   0  0  0  0  0  0  0  0  0  0  0  0
   -3.2849   32.3710   11.6380 N   0  0  0  0  0  0  0  0  0  0  0  0
   -4.1297   32.2171   10.5991 C   0  0  0  0  0  0  0  0  0  0  0  0
   -5.1406   31.0630   10.6132 C   0  0  0  0  0  0  0  0  0  0  0  0
 15 16  1  0  0  0
 17 16  1  0  0  0
 16 14  1  0  0  0
 16 18  1  0  0  0
 14  5  1  0  0  0
  5  6  2  0  0  0
  5  7  1  0  0  0
  8  7  1  0  0  0
  8  9  1  0  0  0
  7 12  1  0  0  0
 10  9  1  0  0  0
  9 11  1  0  0  0
 12  1  1  0  0  0
 12 11  1  0  0  0
  2  1  2  0  0  0
  1  3  1  0  0  0
  3 19  1  0  0  0
 19 20  1  0  0  0
 20 23  2  0  0  0
 20 21  1  0  0  0
 23 24  1  0  0  0
 21 22  2  0  0  0
 24 25  2  0  0  0
 22 25  1  0  0  0
 25 26  1  0  0  0
 26 27  1  0  0  0
 26 30  2  0  0  0
 27 28  1  0  0  0
 30 31  1  0  0  0
 30 29  1  0  0  0
 28 29  2  0  0  0
 10 13  1  0  0  0
  3  4  1  0  0  0
M  END
> <minimizedAffinity>
-7.44144

$$$$
4W9F_3JU_C_301


 31 33  0  0  0  0  0  0  0  0999 V2000
   -5.1356   35.6851    3.4538 C   0  0  0  0  0  0  0  0  0  0  0  0
   -4.7932   36.8562    3.4903 O   0  0  0  0  0  0  0  0  0  0  0  0
   -5.8531   35.0914    4.4194 N   0  0  0  0  0  0  0  0  0  0  0  0
   -6.0474   34.1308    4.3265 H   0  0  0  0  0  0  0  0  0  0  0  0
   -6.4995   35.0137    0.7453 C   0  0  0  0  0  0  0  0  0  0  0  0
   -7.3389   34.7119    1.5930 O   0  0  0  0  0  0  0  0  0  0  0  0
   -5.1861   35.1310    1.0493 N   0  0  0  0  0  0  0  0  0  0  0  0
   -4.0262   35.4212    0.1462 C   0  0  0  0  0  0  0  0  0  0  0  0
   -2.8480   34.7928    0.8279 C   0  0  0  0  0  0  0  0  0  0  0  0
   -2.7709   33.4129    0.4903 O   0  0  0  0  0  0  0  0  0  0  0  0
   -3.1646   34.9748    2.2936 C   0  0  0  0  0  0  0  0  0  0  0  0
   -4.6780   34.8346    2.4252 C   0  0  0  0  0  0  0  0  0  0  0  0
   -3.6046   32.9757    0.7244 H   0  0  0  0  0  0  0  0  0  0  0  0
   -6.9192   35.2318   -0.7444 C   0  0  0  0  0  0  0  0  0  0  0  0
   -7.9436   34.1283   -2.6578 C   0  0  0  0  0  0  0  0  0  0  0  0
   -7.0857   33.8961   -1.4150 C   0  0  0  0  0  0  0  0  0  0  0  0
   -5.7314   33.3311   -1.8826 C   0  0  0  0  0  0  0  0  0  0  0  0
   -7.8083   32.9142   -0.4727 C   0  0  0  0  0  0  0  0  0  0  0  0
   -6.3633   35.7826    5.5991 C   0  0  0  0  0  0  0  0  0  0  0  0
   -5.5932   35.3932    6.7249 C   0  0  0  0  0  0  0  0  0  0  0  0
   -5.0932   34.0943    6.7814 C   0  0  0  0  0  0  0  0  0  0  0  0
   -4.3409   33.6564    7.8804 C   0  0  0  0  0  0  0  0  0  0  0  0
   -5.3154   36.2413    7.8094 C   0  0  0  0  0  0  0  0  0  0  0  0
   -4.5702   35.7961    8.9096 C   0  0  0  0  0  0  0  0  0  0  0  0
   -4.0590   34.5039    8.9653 C   0  0  0  0  0  0  0  0  0  0  0  0
   -3.3363   34.0825   10.0318 C   0  0  0  0  0  0  0  0  0  0  0  0
   -1.9113   34.7826   10.6139 S   0  0  0  0  0  0  0  0  0  0  0  0
   -1.6978   33.7573   11.8669 C   0  0  0  0  0  0  0  0  0  0  0  0
   -2.7019   32.8790   11.8567 N   0  0  0  0  0  0  0  0  0  0  0  0
   -3.5942   33.0466   10.8605 C   0  0  0  0  0  0  0  0  0  0  0  0
   -4.7889   32.0904   10.7490 C   0  0  0  0  0  0  0  0  0  0  0  0
 15 16  1  0  0  0
 17 16  1  0  0  0
 16 14  1  0  0  0
 16 18  1  0  0  0
 14  5  1  0  0  0
  5  6  2  0  0  0
  5  7  1  0  0  0
  8  7  1  0  0  0
  8  9  1  0  0  0
  7 12  1  0  0  0
 10  9  1  0  0  0
  9 11  1  0  0  0
 12  1  1  0  0  0
 12 11  1  0  0  0
  2  1  2  0  0  0
  1  3  1  0  0  0
  3 19  1  0  0  0
 19 20  1  0  0  0
 20 23  2  0  0  0
 20 21  1  0  0  0
 23 24  1  0  0  0
 21 22  2  0  0  0
 24 25  2  0  0  0
 22 25  1  0  0  0
 25 26  1  0  0  0
 26 27  1  0  0  0
 26 30  2  0  0  0
 27 28  1  0  0  0
 30 31  1  0  0  0
 30 29  1  0  0  0
 28 29  2  0  0  0
 10 13  1  0  0  0
  3  4  1  0  0  0
M  END
> <minimizedAffinity>
-7.20537

$$$$
4W9F_3JU_C_301


 31 33  0  0  0  0  0  0  0  0999 V2000
   -4.1355   35.6081    1.6168 C   0  0  0  0  0  0  0  0  0  0  0  0
   -3.4746   36.5987    1.3489 O   0  0  0  0  0  0  0  0  0  0  0  0
   -4.6735   35.3794    2.8243 N   0  0  0  0  0  0  0  0  0  0  0  0
   -5.1556   34.5322    2.9625 H   0  0  0  0  0  0  0  0  0  0  0  0
   -6.1358   35.3663   -0.7470 C   0  0  0  0  0  0  0  0  0  0  0  0
   -6.8499   35.5296    0.2418 O   0  0  0  0  0  0  0  0  0  0  0  0
   -4.8592   34.9297   -0.6431 N   0  0  0  0  0  0  0  0  0  0  0  0
   -3.8745   34.6127   -1.7271 C   0  0  0  0  0  0  0  0  0  0  0  0
   -2.9546   33.5968   -1.1191 C   0  0  0  0  0  0  0  0  0  0  0  0
   -3.5173   32.2961   -1.2441 O   0  0  0  0  0  0  0  0  0  0  0  0
   -2.8875   34.0207    0.3293 C   0  0  0  0  0  0  0  0  0  0  0  0
   -4.2703   34.5599    0.6819 C   0  0  0  0  0  0  0  0  0  0  0  0
   -4.3969   32.2836   -0.8355 H   0  0  0  0  0  0  0  0  0  0  0  0
   -6.6994   35.6178   -2.1829 C   0  0  0  0  0  0  0  0  0  0  0  0
   -8.6742   34.7746   -3.3307 C   0  0  0  0  0  0  0  0  0  0  0  0
   -7.3510   34.3605   -2.6890 C   0  0  0  0  0  0  0  0  0  0  0  0
   -6.4961   33.6854   -3.7778 C   0  0  0  0  0  0  0  0  0  0  0  0
   -7.6311   33.3983   -1.5184 C   0  0  0  0  0  0  0  0  0  0  0  0
   -4.5879   36.3096    3.9454 C   0  0  0  0  0  0  0  0  0  0  0  0
   -4.4308   35.5671    5.1437 C   0  0  0  0  0  0  0  0  0  0  0  0
   -5.4958   35.5018    6.0393 C   0  0  0  0  0  0  0  0  0  0  0  0
   -5.3844   34.7947    7.2447 C   0  0  0  0  0  0  0  0  0  0  0  0
   -3.2464   34.9000    5.4970 C   0  0  0  0  0  0  0  0  0  0  0  0
   -3.1372   34.2018    6.7072 C   0  0  0  0  0  0  0  0  0  0  0  0
   -4.2014   34.1240    7.5991 C   0  0  0  0  0  0  0  0  0  0  0  0
   -4.0884   33.4436    8.7660 C   0  0  0  0  0  0  0  0  0  0  0  0
   -3.2544   33.9552   10.1452 S   0  0  0  0  0  0  0  0  0  0  0  0
   -3.6027   32.6535   11.0677 C   0  0  0  0  0  0  0  0  0  0  0  0
   -4.3531   31.8229   10.3420 N   0  0  0  0  0  0  0  0  0  0  0  0
   -4.6182   32.2432    9.0891 C   0  0  0  0  0  0  0  0  0  0  0  0
   -5.4698   31.3649    8.1631 C   0  0  0  0  0  0  0  0  0  0  0  0
 15 16  1  0  0  0
 17 16  1  0  0  0
 16 14  1  0  0  0
 16 18  1  0  0  0
 14  5  1  0  0  0
  5  6  2  0  0  0
  5  7  1  0  0  0
  8  7  1  0  0  0
  8  9  1  0  0  0
  7 12  1  0  0  0
 10  9  1  0  0  0
  9 11  1  0  0  0
 12  1  1  0  0  0
 12 11  1  0  0  0
  2  1  2  0  0  0
  1  3  1  0  0  0
  3 19  1  0  0  0
 19 20  1  0  0  0
 20 23  2  0  0  0
 20 21  1  0  0  0
 23 24  1  0  0  0
 21 22  2  0  0  0
 24 25  2  0  0  0
 22 25  1  0  0  0
 25 26  1  0  0  0
 26 27  1  0  0  0
 26 30  2  0  0  0
 27 28  1  0  0  0
 30 31  1  0  0  0
 30 29  1  0  0  0
 28 29  2  0  0  0
 10 13  1  0  0  0
  3  4  1  0  0  0
M  END
> <minimizedAffinity>
-6.93794

$$$$
4W9F_3JU_C_301


 31 33  0  0  0  0  0  0  0  0999 V2000
   -4.5826   37.1948    7.0579 C   0  0  0  0  0  0  0  0  0  0  0  0
   -3.4711   37.6970    7.0099 O   0  0  0  0  0  0  0  0  0  0  0  0
   -5.4809   37.2847    6.0655 N   0  0  0  0  0  0  0  0  0  0  0  0
   -6.3692   36.8851    6.2087 H   0  0  0  0  0  0  0  0  0  0  0  0
   -4.6627   34.1719    7.7667 C   0  0  0  0  0  0  0  0  0  0  0  0
   -5.3014   34.2567    6.7184 O   0  0  0  0  0  0  0  0  0  0  0  0
   -4.4516   35.2444    8.5644 N   0  0  0  0  0  0  0  0  0  0  0  0
   -3.7638   35.3164    9.8937 C   0  0  0  0  0  0  0  0  0  0  0  0
   -4.3849   36.4964   10.5790 C   0  0  0  0  0  0  0  0  0  0  0  0
   -5.5929   36.1047   11.2206 O   0  0  0  0  0  0  0  0  0  0  0  0
   -4.6615   37.4470    9.4381 C   0  0  0  0  0  0  0  0  0  0  0  0
   -5.0429   36.5805    8.2419 C   0  0  0  0  0  0  0  0  0  0  0  0
   -6.1898   35.7043   10.5692 H   0  0  0  0  0  0  0  0  0  0  0  0
   -4.1021   32.7935    8.2449 C   0  0  0  0  0  0  0  0  0  0  0  0
   -5.8080   32.2935    9.9087 C   0  0  0  0  0  0  0  0  0  0  0  0
   -5.2483   31.8696    8.5518 C   0  0  0  0  0  0  0  0  0  0  0  0
   -6.3783   32.0151    7.5155 C   0  0  0  0  0  0  0  0  0  0  0  0
   -4.7498   30.4141    8.6379 C   0  0  0  0  0  0  0  0  0  0  0  0
   -5.2218   37.9385    4.7869 C   0  0  0  0  0  0  0  0  0  0  0  0
   -5.6618   37.0869    3.7413 C   0  0  0  0  0  0  0  0  0  0  0  0
   -6.6361   37.5510    2.8606 C   0  0  0  0  0  0  0  0  0  0  0  0
   -7.1160   36.7414    1.8214 C   0  0  0  0  0  0  0  0  0  0  0  0
   -5.1834   35.7808    3.5473 C   0  0  0  0  0  0  0  0  0  0  0  0
   -5.6725   34.9725    2.5122 C   0  0  0  0  0  0  0  0  0  0  0  0
   -6.6368   35.4353    1.6233 C   0  0  0  0  0  0  0  0  0  0  0  0
   -7.1019   34.6480    0.6228 C   0  0  0  0  0  0  0  0  0  0  0  0
   -6.7257   34.7912   -1.0196 S   0  0  0  0  0  0  0  0  0  0  0  0
   -7.6191   33.5220   -1.5272 C   0  0  0  0  0  0  0  0  0  0  0  0
   -8.2074   32.9789   -0.4601 N   0  0  0  0  0  0  0  0  0  0  0  0
   -7.9345   33.5872    0.7113 C   0  0  0  0  0  0  0  0  0  0  0  0
   -8.5608   33.0495    2.0046 C   0  0  0  0  0  0  0  0  0  0  0  0
 15 16  1  0  0  0
 17 16  1  0  0  0
 16 14  1  0  0  0
 16 18  1  0  0  0
 14  5  1  0  0  0
  5  6  2  0  0  0
  5  7  1  0  0  0
  8  7  1  0  0  0
  8  9  1  0  0  0
  7 12  1  0  0  0
 10  9  1  0  0  0
  9 11  1  0  0  0
 12  1  1  0  0  0
 12 11  1  0  0  0
  2  1  2  0  0  0
  1  3  1  0  0  0
  3 19  1  0  0  0
 19 20  1  0  0  0
 20 23  2  0  0  0
 20 21  1  0  0  0
 23 24  1  0  0  0
 21 22  2  0  0  0
 24 25  2  0  0  0
 22 25  1  0  0  0
 25 26  1  0  0  0
 26 27  1  0  0  0
 26 30  2  0  0  0
 27 28  1  0  0  0
 30 31  1  0  0  0
 30 29  1  0  0  0
 28 29  2  0  0  0
 10 13  1  0  0  0
  3  4  1  0  0  0
M  END
> <minimizedAffinity>
-6.81048

$$$$
4W9F_3JU_C_301


 31 33  0  0  0  0  0  0  0  0999 V2000
   -3.7777   36.7141    2.0596 C   0  0  0  0  0  0  0  0  0  0  0  0
   -3.8396   37.9248    1.9170 O   0  0  0  0  0  0  0  0  0  0  0  0
   -3.7588   36.1079    3.2562 N   0  0  0  0  0  0  0  0  0  0  0  0
   -3.6639   35.1282    3.2766 H   0  0  0  0  0  0  0  0  0  0  0  0
   -5.9290   35.2900    0.3302 C   0  0  0  0  0  0  0  0  0  0  0  0
   -6.1590   34.9099    1.4777 O   0  0  0  0  0  0  0  0  0  0  0  0
   -4.7277   35.8004   -0.0269 N   0  0  0  0  0  0  0  0  0  0  0  0
   -4.2502   36.2466   -1.3754 C   0  0  0  0  0  0  0  0  0  0  0  0
   -2.7622   36.0704   -1.3285 C   0  0  0  0  0  0  0  0  0  0  0  0
   -2.4222   34.7263   -1.6483 O   0  0  0  0  0  0  0  0  0  0  0  0
   -2.4261   36.3862    0.1100 C   0  0  0  0  0  0  0  0  0  0  0  0
   -3.5926   35.8681    0.9456 C   0  0  0  0  0  0  0  0  0  0  0  0
   -2.8808   34.1238   -1.0421 H   0  0  0  0  0  0  0  0  0  0  0  0
   -7.0168   35.1537   -0.7838 C   0  0  0  0  0  0  0  0  0  0  0  0
   -7.8343   33.7231   -2.5763 C   0  0  0  0  0  0  0  0  0  0  0  0
   -7.0744   33.7254   -1.2509 C   0  0  0  0  0  0  0  0  0  0  0  0
   -5.6648   33.1669   -1.5210 C   0  0  0  0  0  0  0  0  0  0  0  0
   -7.8338   32.8608   -0.2261 C   0  0  0  0  0  0  0  0  0  0  0  0
   -3.8703   36.8120    4.5296 C   0  0  0  0  0  0  0  0  0  0  0  0
   -3.9558   35.8558    5.5738 C   0  0  0  0  0  0  0  0  0  0  0  0
   -5.1305   35.7757    6.3182 C   0  0  0  0  0  0  0  0  0  0  0  0
   -5.2580   34.8590    7.3713 C   0  0  0  0  0  0  0  0  0  0  0  0
   -2.9093   34.9858    5.9208 C   0  0  0  0  0  0  0  0  0  0  0  0
   -3.0387   34.0772    6.9799 C   0  0  0  0  0  0  0  0  0  0  0  0
   -4.2135   33.9854    7.7185 C   0  0  0  0  0  0  0  0  0  0  0  0
   -4.3314   33.1013    8.7391 C   0  0  0  0  0  0  0  0  0  0  0  0
   -3.5961   33.2224   10.2571 S   0  0  0  0  0  0  0  0  0  0  0  0
   -4.2276   31.8515   10.8805 C   0  0  0  0  0  0  0  0  0  0  0  0
   -5.0001   31.2922    9.9477 N   0  0  0  0  0  0  0  0  0  0  0  0
   -5.0587   31.9631    8.7802 C   0  0  0  0  0  0  0  0  0  0  0  0
   -5.9146   31.4089    7.6337 C   0  0  0  0  0  0  0  0  0  0  0  0
 15 16  1  0  0  0
 17 16  1  0  0  0
 16 14  1  0  0  0
 16 18  1  0  0  0
 14  5  1  0  0  0
  5  6  2  0  0  0
  5  7  1  0  0  0
  8  7  1  0  0  0
  8  9  1  0  0  0
  7 12  1  0  0  0
 10  9  1  0  0  0
  9 11  1  0  0  0
 12  1  1  0  0  0
 12 11  1  0  0  0
  2  1  2  0  0  0
  1  3  1  0  0  0
  3 19  1  0  0  0
 19 20  1  0  0  0
 20 23  2  0  0  0
 20 21  1  0  0  0
 23 24  1  0  0  0
 21 22  2  0  0  0
 24 25  2  0  0  0
 22 25  1  0  0  0
 25 26  1  0  0  0
 26 27  1  0  0  0
 26 30  2  0  0  0
 27 28  1  0  0  0
 30 31  1  0  0  0
 30 29  1  0  0  0
 28 29  2  0  0  0
 10 13  1  0  0  0
  3  4  1  0  0  0
M  END
> <minimizedAffinity>
-6.79200

$$$$
4W9F_3JU_C_301


 31 33  0  0  0  0  0  0  0  0999 V2000
   -5.9588   35.1930    2.8883 C   0  0  0  0  0  0  0  0  0  0  0  0
   -4.8800   34.6869    2.6237 O   0  0  0  0  0  0  0  0  0  0  0  0
   -7.1244   34.7626    2.3825 N   0  0  0  0  0  0  0  0  0  0  0  0
   -7.9416   35.2587    2.6176 H   0  0  0  0  0  0  0  0  0  0  0  0
   -5.8166   35.4857    5.9772 C   0  0  0  0  0  0  0  0  0  0  0  0
   -6.7489   34.7055    5.7871 O   0  0  0  0  0  0  0  0  0  0  0  0
   -5.3680   36.3144    5.0060 N   0  0  0  0  0  0  0  0  0  0  0  0
   -4.3018   37.3652    5.0740 C   0  0  0  0  0  0  0  0  0  0  0  0
   -4.6793   38.3579    4.0159 C   0  0  0  0  0  0  0  0  0  0  0  0
   -5.6289   39.2821    4.5339 O   0  0  0  0  0  0  0  0  0  0  0  0
   -5.2956   37.4936    2.9412 C   0  0  0  0  0  0  0  0  0  0  0  0
   -6.0295   36.3690    3.6649 C   0  0  0  0  0  0  0  0  0  0  0  0
   -6.3986   38.7989    4.8730 H   0  0  0  0  0  0  0  0  0  0  0  0
   -5.1359   35.5817    7.3809 C   0  0  0  0  0  0  0  0  0  0  0  0
   -3.7471   34.4584    9.0355 C   0  0  0  0  0  0  0  0  0  0  0  0
   -4.3183   34.3430    7.6232 C   0  0  0  0  0  0  0  0  0  0  0  0
   -5.1930   33.0762    7.5764 C   0  0  0  0  0  0  0  0  0  0  0  0
   -3.1604   34.2633    6.6097 C   0  0  0  0  0  0  0  0  0  0  0  0
   -7.2550   33.6039    1.5050 C   0  0  0  0  0  0  0  0  0  0  0  0
   -7.3274   34.0543    0.1619 C   0  0  0  0  0  0  0  0  0  0  0  0
   -7.7612   33.1690   -0.8222 C   0  0  0  0  0  0  0  0  0  0  0  0
   -7.8341   33.5612   -2.1662 C   0  0  0  0  0  0  0  0  0  0  0  0
   -6.9666   35.3490   -0.2458 C   0  0  0  0  0  0  0  0  0  0  0  0
   -7.0331   35.7334   -1.5919 C   0  0  0  0  0  0  0  0  0  0  0  0
   -7.4765   34.8568   -2.5763 C   0  0  0  0  0  0  0  0  0  0  0  0
   -7.5410   35.2380   -3.8755 C   0  0  0  0  0  0  0  0  0  0  0  0
   -6.2287   35.4621   -4.9183 S   0  0  0  0  0  0  0  0  0  0  0  0
   -7.1040   35.8700   -6.2351 C   0  0  0  0  0  0  0  0  0  0  0  0
   -8.3945   35.8386   -5.8983 N   0  0  0  0  0  0  0  0  0  0  0  0
   -8.6400   35.4998   -4.6170 C   0  0  0  0  0  0  0  0  0  0  0  0
  -10.0894   35.4358   -4.1180 C   0  0  0  0  0  0  0  0  0  0  0  0
 15 16  1  0  0  0
 17 16  1  0  0  0
 16 14  1  0  0  0
 16 18  1  0  0  0
 14  5  1  0  0  0
  5  6  2  0  0  0
  5  7  1  0  0  0
  8  7  1  0  0  0
  8  9  1  0  0  0
  7 12  1  0  0  0
 10  9  1  0  0  0
  9 11  1  0  0  0
 12  1  1  0  0  0
 12 11  1  0  0  0
  2  1  2  0  0  0
  1  3  1  0  0  0
  3 19  1  0  0  0
 19 20  1  0  0  0
 20 23  2  0  0  0
 20 21  1  0  0  0
 23 24  1  0  0  0
 21 22  2  0  0  0
 24 25  2  0  0  0
 22 25  1  0  0  0
 25 26  1  0  0  0
 26 27  1  0  0  0
 26 30  2  0  0  0
 27 28  1  0  0  0
 30 31  1  0  0  0
 30 29  1  0  0  0
 28 29  2  0  0  0
 10 13  1  0  0  0
  3  4  1  0  0  0
M  END
> <minimizedAffinity>
-6.79158

$$$$
4W9F_3JU_C_301


 31 33  0  0  0  0  0  0  0  0999 V2000
   -6.2388   33.9403    5.7901 C   0  0  0  0  0  0  0  0  0  0  0  0
   -6.8197   33.1818    6.5499 O   0  0  0  0  0  0  0  0  0  0  0  0
   -6.5461   34.0681    4.4905 N   0  0  0  0  0  0  0  0  0  0  0  0
   -5.9955   34.6730    3.9427 H   0  0  0  0  0  0  0  0  0  0  0  0
   -6.1015   36.7021    7.2046 C   0  0  0  0  0  0  0  0  0  0  0  0
   -6.7249   36.9213    6.1666 O   0  0  0  0  0  0  0  0  0  0  0  0
   -5.3089   35.6146    7.3468 N   0  0  0  0  0  0  0  0  0  0  0  0
   -4.4331   35.2237    8.4981 C   0  0  0  0  0  0  0  0  0  0  0  0
   -3.3512   34.3864    7.8849 C   0  0  0  0  0  0  0  0  0  0  0  0
   -2.3183   35.2231    7.3779 O   0  0  0  0  0  0  0  0  0  0  0  0
   -4.0674   33.6708    6.7639 C   0  0  0  0  0  0  0  0  0  0  0  0
   -5.0994   34.6535    6.2192 C   0  0  0  0  0  0  0  0  0  0  0  0
   -2.6949   35.8544    6.7450 H   0  0  0  0  0  0  0  0  0  0  0  0
   -6.1678   37.7095    8.3977 C   0  0  0  0  0  0  0  0  0  0  0  0
   -4.3065   38.8500    9.4761 C   0  0  0  0  0  0  0  0  0  0  0  0
   -5.1388   38.7876    8.1965 C   0  0  0  0  0  0  0  0  0  0  0  0
   -4.1855   38.4430    7.0369 C   0  0  0  0  0  0  0  0  0  0  0  0
   -5.8293   40.1464    7.9704 C   0  0  0  0  0  0  0  0  0  0  0  0
   -7.6468   33.3652    3.8393 C   0  0  0  0  0  0  0  0  0  0  0  0
   -7.4710   33.4444    2.4340 C   0  0  0  0  0  0  0  0  0  0  0  0
   -6.7488   34.5119    1.9053 C   0  0  0  0  0  0  0  0  0  0  0  0
   -6.5619   34.6437    0.5221 C   0  0  0  0  0  0  0  0  0  0  0  0
   -8.0026   32.5113    1.5289 C   0  0  0  0  0  0  0  0  0  0  0  0
   -7.8202   32.6523    0.1465 C   0  0  0  0  0  0  0  0  0  0  0  0
   -7.0902   33.7098   -0.3854 C   0  0  0  0  0  0  0  0  0  0  0  0
   -6.9156   33.8368   -1.7235 C   0  0  0  0  0  0  0  0  0  0  0  0
   -8.0421   34.4509   -2.8252 S   0  0  0  0  0  0  0  0  0  0  0  0
   -7.1056   34.2989   -4.1543 C   0  0  0  0  0  0  0  0  0  0  0  0
   -5.9340   33.7847   -3.7764 N   0  0  0  0  0  0  0  0  0  0  0  0
   -5.8243   33.5273   -2.4580 C   0  0  0  0  0  0  0  0  0  0  0  0
   -4.5208   32.9302   -1.9117 C   0  0  0  0  0  0  0  0  0  0  0  0
 15 16  1  0  0  0
 17 16  1  0  0  0
 16 14  1  0  0  0
 16 18  1  0  0  0
 14  5  1  0  0  0
  5  6  2  0  0  0
  5  7  1  0  0  0
  8  7  1  0  0  0
  8  9  1  0  0  0
  7 12  1  0  0  0
 10  9  1  0  0  0
  9 11  1  0  0  0
 12  1  1  0  0  0
 12 11  1  0  0  0
  2  1  2  0  0  0
  1  3  1  0  0  0
  3 19  1  0  0  0
 19 20  1  0  0  0
 20 23  2  0  0  0
 20 21  1  0  0  0
 23 24  1  0  0  0
 21 22  2  0  0  0
 24 25  2  0  0  0
 22 25  1  0  0  0
 25 26  1  0  0  0
 26 27  1  0  0  0
 26 30  2  0  0  0
 27 28  1  0  0  0
 30 31  1  0  0  0
 30 29  1  0  0  0
 28 29  2  0  0  0
 10 13  1  0  0  0
  3  4  1  0  0  0
M  END
> <minimizedAffinity>
-6.54585

$$$$
4W9F_3JU_C_301


 31 33  0  0  0  0  0  0  0  0999 V2000
   -6.7925   34.1847    4.9940 C   0  0  0  0  0  0  0  0  0  0  0  0
   -7.1182   33.2340    5.6869 O   0  0  0  0  0  0  0  0  0  0  0  0
   -6.9129   34.2049    3.6580 N   0  0  0  0  0  0  0  0  0  0  0  0
   -6.5842   34.9981    3.1763 H   0  0  0  0  0  0  0  0  0  0  0  0
   -4.4837   34.2205    7.0713 C   0  0  0  0  0  0  0  0  0  0  0  0
   -5.3737   33.5678    7.6153 O   0  0  0  0  0  0  0  0  0  0  0  0
   -4.7410   35.0654    6.0461 N   0  0  0  0  0  0  0  0  0  0  0  0
   -3.8068   35.9804    5.3143 C   0  0  0  0  0  0  0  0  0  0  0  0
   -4.6805   37.0880    4.8068 C   0  0  0  0  0  0  0  0  0  0  0  0
   -4.8559   38.0711    5.8202 O   0  0  0  0  0  0  0  0  0  0  0  0
   -5.9824   36.3845    4.5039 C   0  0  0  0  0  0  0  0  0  0  0  0
   -6.1381   35.2977    5.5632 C   0  0  0  0  0  0  0  0  0  0  0  0
   -5.2205   37.6534    6.6162 H   0  0  0  0  0  0  0  0  0  0  0  0
   -3.0090   34.1304    7.5813 C   0  0  0  0  0  0  0  0  0  0  0  0
   -1.4931   35.2449    9.1267 C   0  0  0  0  0  0  0  0  0  0  0  0
   -2.9212   34.7287    8.9582 C   0  0  0  0  0  0  0  0  0  0  0  0
   -3.8720   35.9309    9.1085 C   0  0  0  0  0  0  0  0  0  0  0  0
   -3.2037   33.6529   10.0246 C   0  0  0  0  0  0  0  0  0  0  0  0
   -7.5013   33.1231    2.8751 C   0  0  0  0  0  0  0  0  0  0  0  0
   -7.4585   33.4775    1.5024 C   0  0  0  0  0  0  0  0  0  0  0  0
   -7.9623   32.5832    0.5606 C   0  0  0  0  0  0  0  0  0  0  0  0
   -7.9274   32.8800   -0.8092 C   0  0  0  0  0  0  0  0  0  0  0  0
   -6.9157   34.6819    1.0256 C   0  0  0  0  0  0  0  0  0  0  0  0
   -6.8755   34.9701   -0.3454 C   0  0  0  0  0  0  0  0  0  0  0  0
   -7.3876   34.0857   -1.2886 C   0  0  0  0  0  0  0  0  0  0  0  0
   -7.3477   34.3738   -2.6125 C   0  0  0  0  0  0  0  0  0  0  0  0
   -8.5354   35.1938   -3.4937 S   0  0  0  0  0  0  0  0  0  0  0  0
   -7.7602   35.1576   -4.9306 C   0  0  0  0  0  0  0  0  0  0  0  0
   -6.5975   34.5274   -4.7559 N   0  0  0  0  0  0  0  0  0  0  0  0
   -6.3676   34.0951   -3.5001 C   0  0  0  0  0  0  0  0  0  0  0  0
   -5.0624   33.3528   -3.1847 C   0  0  0  0  0  0  0  0  0  0  0  0
 15 16  1  0  0  0
 17 16  1  0  0  0
 16 14  1  0  0  0
 16 18  1  0  0  0
 14  5  1  0  0  0
  5  6  2  0  0  0
  5  7  1  0  0  0
  8  7  1  0  0  0
  8  9  1  0  0  0
  7 12  1  0  0  0
 10  9  1  0  0  0
  9 11  1  0  0  0
 12  1  1  0  0  0
 12 11  1  0  0  0
  2  1  2  0  0  0
  1  3  1  0  0  0
  3 19  1  0  0  0
 19 20  1  0  0  0
 20 23  2  0  0  0
 20 21  1  0  0  0
 23 24  1  0  0  0
 21 22  2  0  0  0
 24 25  2  0  0  0
 22 25  1  0  0  0
 25 26  1  0  0  0
 26 27  1  0  0  0
 26 30  2  0  0  0
 27 28  1  0  0  0
 30 31  1  0  0  0
 30 29  1  0  0  0
 28 29  2  0  0  0
 10 13  1  0  0  0
  3  4  1  0  0  0
M  END
> <minimizedAffinity>
-6.39444

$$$$
4W9F_3JU_C_301


 31 33  0  0  0  0  0  0  0  0999 V2000
   -5.2354   39.3145    6.1636 C   0  0  0  0  0  0  0  0  0  0  0  0
   -4.1421   39.8103    5.9431 O   0  0  0  0  0  0  0  0  0  0  0  0
   -6.1738   39.1380    5.2213 N   0  0  0  0  0  0  0  0  0  0  0  0
   -7.0436   38.7694    5.4985 H   0  0  0  0  0  0  0  0  0  0  0  0
   -5.6766   36.5208    7.4472 C   0  0  0  0  0  0  0  0  0  0  0  0
   -6.4212   36.5277    6.4676 O   0  0  0  0  0  0  0  0  0  0  0  0
   -5.2100   37.6649    7.9991 N   0  0  0  0  0  0  0  0  0  0  0  0
   -4.3589   37.8511    9.2183 C   0  0  0  0  0  0  0  0  0  0  0  0
   -4.7068   39.2209    9.7184 C   0  0  0  0  0  0  0  0  0  0  0  0
   -5.8701   39.1586   10.5351 O   0  0  0  0  0  0  0  0  0  0  0  0
   -4.9785   39.9898    8.4469 C   0  0  0  0  0  0  0  0  0  0  0  0
   -5.6309   39.0045    7.4821 C   0  0  0  0  0  0  0  0  0  0  0  0
   -6.5966   38.7574   10.0329 H   0  0  0  0  0  0  0  0  0  0  0  0
   -5.2726   35.1728    8.1274 C   0  0  0  0  0  0  0  0  0  0  0  0
   -4.4144   32.9195    7.7893 C   0  0  0  0  0  0  0  0  0  0  0  0
   -4.9261   34.1645    7.0667 C   0  0  0  0  0  0  0  0  0  0  0  0
   -6.1695   33.7546    6.2556 C   0  0  0  0  0  0  0  0  0  0  0  0
   -3.8156   34.7156    6.1516 C   0  0  0  0  0  0  0  0  0  0  0  0
   -5.9840   39.4589    3.8104 C   0  0  0  0  0  0  0  0  0  0  0  0
   -6.1732   38.2800    3.0447 C   0  0  0  0  0  0  0  0  0  0  0  0
   -7.2765   38.1973    2.1982 C   0  0  0  0  0  0  0  0  0  0  0  0
   -7.5164   37.0469    1.4336 C   0  0  0  0  0  0  0  0  0  0  0  0
   -5.3163   37.1687    3.1013 C   0  0  0  0  0  0  0  0  0  0  0  0
   -5.5653   36.0178    2.3414 C   0  0  0  0  0  0  0  0  0  0  0  0
   -6.6589   35.9349    1.4862 C   0  0  0  0  0  0  0  0  0  0  0  0
   -6.8904   34.8191    0.7522 C   0  0  0  0  0  0  0  0  0  0  0  0
   -6.5955   34.6314   -0.9023 S   0  0  0  0  0  0  0  0  0  0  0  0
   -7.0902   33.0786   -1.0053 C   0  0  0  0  0  0  0  0  0  0  0  0
   -7.4805   32.6889    0.2094 N   0  0  0  0  0  0  0  0  0  0  0  0
   -7.3786   33.6299    1.1689 C   0  0  0  0  0  0  0  0  0  0  0  0
   -7.8036   33.2931    2.6042 C   0  0  0  0  0  0  0  0  0  0  0  0
 15 16  1  0  0  0
 17 16  1  0  0  0
 16 14  1  0  0  0
 16 18  1  0  0  0
 14  5  1  0  0  0
  5  6  2  0  0  0
  5  7  1  0  0  0
  8  7  1  0  0  0
  8  9  1  0  0  0
  7 12  1  0  0  0
 10  9  1  0  0  0
  9 11  1  0  0  0
 12  1  1  0  0  0
 12 11  1  0  0  0
  2  1  2  0  0  0
  1  3  1  0  0  0
  3 19  1  0  0  0
 19 20  1  0  0  0
 20 23  2  0  0  0
 20 21  1  0  0  0
 23 24  1  0  0  0
 21 22  2  0  0  0
 24 25  2  0  0  0
 22 25  1  0  0  0
 25 26  1  0  0  0
 26 27  1  0  0  0
 26 30  2  0  0  0
 27 28  1  0  0  0
 30 31  1  0  0  0
 30 29  1  0  0  0
 28 29  2  0  0  0
 10 13  1  0  0  0
  3  4  1  0  0  0
M  END
> <minimizedAffinity>
-6.14632

$$$$
