4DJY_0KR_A_501


 28 31  0  0  0  0  0  0  0  0999 V2000
   23.5140   10.9459   20.3144 C   0  0  0  0  0  0  0  0  0  0  0  0
   24.8662   10.9097   20.6619 C   0  0  0  0  0  0  0  0  0  0  0  0
   25.8545   11.1922   19.7122 C   0  0  0  0  0  0  0  0  0  0  0  0
   25.4612   11.4934   18.4032 C   0  0  0  0  0  0  0  0  0  0  0  0
   24.1226   11.5396   18.0582 C   0  0  0  0  0  0  0  0  0  0  0  0
   23.1523   11.2696   19.0067 C   0  0  0  0  0  0  0  0  0  0  0  0
   22.4458   10.6871   21.3799 C   0  0  0  0  0  0  0  0  0  0  0  0
   22.8723    9.5868   22.3324 N   0  0  0  0  0  0  0  0  0  0  0  0
   22.8780   10.0881   23.5688 C   0  0  0  0  0  0  0  0  0  0  0  0
   22.6643   11.4917   23.5946 N   0  0  0  0  0  0  0  0  0  0  0  0
   22.3800   11.9301   22.3220 C   0  0  0  0  0  0  0  0  0  0  0  0
   22.1474   13.0840   22.0100 O   0  0  0  0  0  0  0  0  0  0  0  0
   23.1356    9.4169   24.6949 N   0  0  0  0  0  0  0  0  0  0  0  0
   22.6949   12.3707   24.7691 C   0  0  0  0  0  0  0  0  0  0  0  0
   23.1045    8.6634   22.0820 H   0  0  0  0  0  0  0  0  0  0  0  0
   23.2822    8.4438   24.6654 H   0  0  0  0  0  0  0  0  0  0  0  0
   20.9987   10.4803   20.8427 C   0  0  0  0  0  0  0  0  0  0  0  0
   19.9606    9.7068   21.6109 C   0  0  0  0  0  0  0  0  0  0  0  0
   20.5510    9.1347   20.3551 C   0  0  0  0  0  0  0  0  0  0  0  0
   27.2921   11.2504   20.1210 C   0  0  0  0  0  0  0  0  0  0  0  0
   27.7681   10.4482   21.1629 C   0  0  0  0  0  0  0  0  0  0  0  0
   29.1027   10.5492   21.5549 C   0  0  0  0  0  0  0  0  0  0  0  0
   29.9175   11.4597   20.8760 C   0  0  0  0  0  0  0  0  0  0  0  0
   28.1974   12.1167   19.5145 C   0  0  0  0  0  0  0  0  0  0  0  0
   29.4825   12.2280   19.8732 N   0  0  0  0  0  0  0  0  0  0  0  0
   29.6165    9.7328   22.6226 C   0  0  0  0  0  0  0  0  0  0  0  0
   30.1008    9.0421   23.4602 C   0  0  0  0  0  0  0  0  0  0  0  0
   30.7298    8.1870   24.4694 C   0  0  0  0  0  0  0  0  0  0  0  0
  5  4  2  0  0  0
  5  6  1  0  0  0
  4  3  1  0  0  0
  6  1  2  0  0  0
 24 25  2  0  0  0
 24 20  1  0  0  0
  3 20  1  0  0  0
  3  2  2  0  0  0
 25 23  1  0  0  0
 20 21  2  0  0  0
  1  2  1  0  0  0
  1  7  1  0  0  0
 23 22  2  0  0  0
 19 17  1  0  0  0
 19 18  1  0  0  0
 21 22  1  0  0  0
 17  7  1  0  0  0
 17 18  1  0  0  0
 22 26  1  0  0  0
  7  8  1  0  0  0
  7 11  1  0  0  0
 12 11  2  0  0  0
  8  9  1  0  0  0
 26 27  3  0  0  0
 11 10  1  0  0  0
 27 28  1  0  0  0
  9 10  1  0  0  0
  9 13  2  0  0  0
 10 14  1  0  0  0
  8 15  1  0  0  0
 13 16  1  0  0  0
M  END
> <minimizedAffinity>
-9.65708

$$$$
4DJY_0KR_A_501


 28 31  0  0  0  0  0  0  0  0999 V2000
   23.4372   10.9902   20.3485 C   0  0  0  0  0  0  0  0  0  0  0  0
   24.7965   11.0358   20.6667 C   0  0  0  0  0  0  0  0  0  0  0  0
   25.7504   11.3163   19.6820 C   0  0  0  0  0  0  0  0  0  0  0  0
   25.3166   11.5318   18.3690 C   0  0  0  0  0  0  0  0  0  0  0  0
   23.9707   11.4971   18.0525 C   0  0  0  0  0  0  0  0  0  0  0  0
   23.0339   11.2298   19.0350 C   0  0  0  0  0  0  0  0  0  0  0  0
   22.4046   10.7354   21.4495 C   0  0  0  0  0  0  0  0  0  0  0  0
   22.8492    9.6191   22.3748 N   0  0  0  0  0  0  0  0  0  0  0  0
   22.9069   10.1072   23.6152 C   0  0  0  0  0  0  0  0  0  0  0  0
   22.7148   11.5133   23.6628 N   0  0  0  0  0  0  0  0  0  0  0  0
   22.3911   11.9692   22.4058 C   0  0  0  0  0  0  0  0  0  0  0  0
   22.1643   13.1295   22.1141 O   0  0  0  0  0  0  0  0  0  0  0  0
   23.1953    9.4206   24.7244 N   0  0  0  0  0  0  0  0  0  0  0  0
   22.8007   12.3794   24.8442 C   0  0  0  0  0  0  0  0  0  0  0  0
   23.0587    8.6952   22.1069 H   0  0  0  0  0  0  0  0  0  0  0  0
   23.3265    8.4458   24.6798 H   0  0  0  0  0  0  0  0  0  0  0  0
   20.9362   10.5549   20.9632 C   0  0  0  0  0  0  0  0  0  0  0  0
   19.8822    9.9032   21.8180 C   0  0  0  0  0  0  0  0  0  0  0  0
   20.4128    9.1960   20.6051 C   0  0  0  0  0  0  0  0  0  0  0  0
   27.1915   11.4631   20.0548 C   0  0  0  0  0  0  0  0  0  0  0  0
   27.9488   12.5297   19.5602 C   0  0  0  0  0  0  0  0  0  0  0  0
   29.3013   12.6235   19.8875 C   0  0  0  0  0  0  0  0  0  0  0  0
   29.8463   11.6337   20.7102 C   0  0  0  0  0  0  0  0  0  0  0  0
   27.8406   10.5403   20.8703 C   0  0  0  0  0  0  0  0  0  0  0  0
   29.1366   10.6126   21.1986 N   0  0  0  0  0  0  0  0  0  0  0  0
   30.1008   13.7128   19.3928 C   0  0  0  0  0  0  0  0  0  0  0  0
   30.7187   14.6121   18.9209 C   0  0  0  0  0  0  0  0  0  0  0  0
   31.4544   15.7211   18.3090 C   0  0  0  0  0  0  0  0  0  0  0  0
  5  4  2  0  0  0
  5  6  1  0  0  0
  4  3  1  0  0  0
  6  1  2  0  0  0
 24 25  2  0  0  0
 24 20  1  0  0  0
  3 20  1  0  0  0
  3  2  2  0  0  0
 25 23  1  0  0  0
 20 21  2  0  0  0
  1  2  1  0  0  0
  1  7  1  0  0  0
 23 22  2  0  0  0
 19 17  1  0  0  0
 19 18  1  0  0  0
 21 22  1  0  0  0
 17  7  1  0  0  0
 17 18  1  0  0  0
 22 26  1  0  0  0
  7  8  1  0  0  0
  7 11  1  0  0  0
 12 11  2  0  0  0
  8  9  1  0  0  0
 26 27  3  0  0  0
 11 10  1  0  0  0
 27 28  1  0  0  0
  9 10  1  0  0  0
  9 13  2  0  0  0
 10 14  1  0  0  0
  8 15  1  0  0  0
 13 16  1  0  0  0
M  END
> <minimizedAffinity>
-9.02713

$$$$
4DJY_0KR_A_501


 28 31  0  0  0  0  0  0  0  0999 V2000
   21.8319   11.9346   20.7575 C   0  0  0  0  0  0  0  0  0  0  0  0
   21.0236   12.0135   21.8937 C   0  0  0  0  0  0  0  0  0  0  0  0
   20.2195   10.9330   22.2734 C   0  0  0  0  0  0  0  0  0  0  0  0
   20.2277    9.7791   21.4814 C   0  0  0  0  0  0  0  0  0  0  0  0
   21.0343    9.6940   20.3611 C   0  0  0  0  0  0  0  0  0  0  0  0
   21.8343   10.7635   19.9998 C   0  0  0  0  0  0  0  0  0  0  0  0
   22.7453   13.1064   20.3887 C   0  0  0  0  0  0  0  0  0  0  0  0
   22.0595   14.4373   20.6303 N   0  0  0  0  0  0  0  0  0  0  0  0
   22.8029   15.1366   21.4895 C   0  0  0  0  0  0  0  0  0  0  0  0
   23.8750   14.3801   22.0322 N   0  0  0  0  0  0  0  0  0  0  0  0
   23.9229   13.1529   21.4123 C   0  0  0  0  0  0  0  0  0  0  0  0
   24.7298   12.2732   21.6529 O   0  0  0  0  0  0  0  0  0  0  0  0
   22.5710   16.3853   21.9043 N   0  0  0  0  0  0  0  0  0  0  0  0
   24.8280   14.8077   23.0628 C   0  0  0  0  0  0  0  0  0  0  0  0
   21.2131   14.7335   20.2239 H   0  0  0  0  0  0  0  0  0  0  0  0
   21.8248   16.9007   21.5212 H   0  0  0  0  0  0  0  0  0  0  0  0
   23.4054   13.0250   18.9804 C   0  0  0  0  0  0  0  0  0  0  0  0
   24.2863   14.1209   18.4426 C   0  0  0  0  0  0  0  0  0  0  0  0
   22.9216   13.8960   17.8597 C   0  0  0  0  0  0  0  0  0  0  0  0
   19.4374   10.9919   23.5470 C   0  0  0  0  0  0  0  0  0  0  0  0
   20.0312   11.4550   24.7254 C   0  0  0  0  0  0  0  0  0  0  0  0
   19.2955   11.4620   25.9102 C   0  0  0  0  0  0  0  0  0  0  0  0
   17.9765   11.0016   25.8649 C   0  0  0  0  0  0  0  0  0  0  0  0
   18.1150   10.5631   23.6216 C   0  0  0  0  0  0  0  0  0  0  0  0
   17.3902   10.5635   24.7472 N   0  0  0  0  0  0  0  0  0  0  0  0
   19.8837   11.9360   27.1349 C   0  0  0  0  0  0  0  0  0  0  0  0
   20.4006   12.3847   28.1069 C   0  0  0  0  0  0  0  0  0  0  0  0
   21.0494   12.9689   29.2830 C   0  0  0  0  0  0  0  0  0  0  0  0
  5  4  2  0  0  0
  5  6  1  0  0  0
  4  3  1  0  0  0
  6  1  2  0  0  0
 24 25  2  0  0  0
 24 20  1  0  0  0
  3 20  1  0  0  0
  3  2  2  0  0  0
 25 23  1  0  0  0
 20 21  2  0  0  0
  1  2  1  0  0  0
  1  7  1  0  0  0
 23 22  2  0  0  0
 19 17  1  0  0  0
 19 18  1  0  0  0
 21 22  1  0  0  0
 17  7  1  0  0  0
 17 18  1  0  0  0
 22 26  1  0  0  0
  7  8  1  0  0  0
  7 11  1  0  0  0
 12 11  2  0  0  0
  8  9  1  0  0  0
 26 27  3  0  0  0
 11 10  1  0  0  0
 27 28  1  0  0  0
  9 10  1  0  0  0
  9 13  2  0  0  0
 10 14  1  0  0  0
  8 15  1  0  0  0
 13 16  1  0  0  0
M  END
> <minimizedAffinity>
-8.39233

$$$$
4DJY_0KR_A_501


 28 31  0  0  0  0  0  0  0  0999 V2000
   20.5078   11.6199   22.5275 C   0  0  0  0  0  0  0  0  0  0  0  0
   21.5063   12.2040   21.7447 C   0  0  0  0  0  0  0  0  0  0  0  0
   21.9973   11.5491   20.6096 C   0  0  0  0  0  0  0  0  0  0  0  0
   21.4809   10.2893   20.2854 C   0  0  0  0  0  0  0  0  0  0  0  0
   20.4853    9.7124   21.0528 C   0  0  0  0  0  0  0  0  0  0  0  0
   19.9983   10.3724   22.1670 C   0  0  0  0  0  0  0  0  0  0  0  0
   19.9453   12.3754   23.7341 C   0  0  0  0  0  0  0  0  0  0  0  0
   18.5374   11.9180   24.0637 N   0  0  0  0  0  0  0  0  0  0  0  0
   18.5307   11.4700   25.3204 C   0  0  0  0  0  0  0  0  0  0  0  0
   19.8316   11.3950   25.8848 N   0  0  0  0  0  0  0  0  0  0  0  0
   20.7396   11.9352   25.0038 C   0  0  0  0  0  0  0  0  0  0  0  0
   21.9396   12.0204   25.1928 O   0  0  0  0  0  0  0  0  0  0  0  0
   17.4656   11.0405   26.0030 N   0  0  0  0  0  0  0  0  0  0  0  0
   20.1949   10.8686   27.2054 C   0  0  0  0  0  0  0  0  0  0  0  0
   17.7633   11.9466   23.4561 H   0  0  0  0  0  0  0  0  0  0  0  0
   16.5683   11.0973   25.6019 H   0  0  0  0  0  0  0  0  0  0  0  0
   20.0664   13.9268   23.6702 C   0  0  0  0  0  0  0  0  0  0  0  0
   20.0310   14.7860   24.9057 C   0  0  0  0  0  0  0  0  0  0  0  0
   18.8768   14.7969   23.9464 C   0  0  0  0  0  0  0  0  0  0  0  0
   22.9919   12.2292   19.7235 C   0  0  0  0  0  0  0  0  0  0  0  0
   24.3545   11.9305   19.8234 C   0  0  0  0  0  0  0  0  0  0  0  0
   25.2685   12.6071   19.0160 C   0  0  0  0  0  0  0  0  0  0  0  0
   24.7732   13.5658   18.1275 C   0  0  0  0  0  0  0  0  0  0  0  0
   22.6147   13.1987   18.7984 C   0  0  0  0  0  0  0  0  0  0  0  0
   23.4747   13.8583   18.0124 N   0  0  0  0  0  0  0  0  0  0  0  0
   26.6752   12.3159   19.0989 C   0  0  0  0  0  0  0  0  0  0  0  0
   27.8258   12.0520   19.2391 C   0  0  0  0  0  0  0  0  0  0  0  0
   29.2351   11.7116   19.4474 C   0  0  0  0  0  0  0  0  0  0  0  0
  5  4  2  0  0  0
  5  6  1  0  0  0
  4  3  1  0  0  0
  6  1  2  0  0  0
 24 25  2  0  0  0
 24 20  1  0  0  0
  3 20  1  0  0  0
  3  2  2  0  0  0
 25 23  1  0  0  0
 20 21  2  0  0  0
  1  2  1  0  0  0
  1  7  1  0  0  0
 23 22  2  0  0  0
 19 17  1  0  0  0
 19 18  1  0  0  0
 21 22  1  0  0  0
 17  7  1  0  0  0
 17 18  1  0  0  0
 22 26  1  0  0  0
  7  8  1  0  0  0
  7 11  1  0  0  0
 12 11  2  0  0  0
  8  9  1  0  0  0
 26 27  3  0  0  0
 11 10  1  0  0  0
 27 28  1  0  0  0
  9 10  1  0  0  0
  9 13  2  0  0  0
 10 14  1  0  0  0
  8 15  1  0  0  0
 13 16  1  0  0  0
M  END
> <minimizedAffinity>
-8.08973

$$$$
4DJY_0KR_A_501


 28 31  0  0  0  0  0  0  0  0999 V2000
   23.4147   11.8070   20.3391 C   0  0  0  0  0  0  0  0  0  0  0  0
   24.7613   11.7148   20.6979 C   0  0  0  0  0  0  0  0  0  0  0  0
   25.7414   11.4625   19.7314 C   0  0  0  0  0  0  0  0  0  0  0  0
   25.3429   11.2861   18.4014 C   0  0  0  0  0  0  0  0  0  0  0  0
   24.0114   11.3864   18.0411 C   0  0  0  0  0  0  0  0  0  0  0  0
   23.0507   11.6471   19.0021 C   0  0  0  0  0  0  0  0  0  0  0  0
   22.3634   12.1373   21.4016 C   0  0  0  0  0  0  0  0  0  0  0  0
   21.0431   11.4538   21.1021 N   0  0  0  0  0  0  0  0  0  0  0  0
   20.7301   10.6820   22.1445 C   0  0  0  0  0  0  0  0  0  0  0  0
   21.7751   10.6008   23.1025 N   0  0  0  0  0  0  0  0  0  0  0  0
   22.7884   11.4583   22.7415 C   0  0  0  0  0  0  0  0  0  0  0  0
   23.8262   11.6215   23.3574 O   0  0  0  0  0  0  0  0  0  0  0  0
   19.6114    9.9670   22.2936 N   0  0  0  0  0  0  0  0  0  0  0  0
   21.8010    9.7778   24.3171 C   0  0  0  0  0  0  0  0  0  0  0  0
   20.5099   11.5609   20.2815 H   0  0  0  0  0  0  0  0  0  0  0  0
   18.8933   10.0310   21.6232 H   0  0  0  0  0  0  0  0  0  0  0  0
   22.1891   13.6507   21.7252 C   0  0  0  0  0  0  0  0  0  0  0  0
   22.1818   14.7053   20.6511 C   0  0  0  0  0  0  0  0  0  0  0  0
   23.3450   14.5969   21.5934 C   0  0  0  0  0  0  0  0  0  0  0  0
   27.1879   11.4678   20.1116 C   0  0  0  0  0  0  0  0  0  0  0  0
   27.6621   10.6186   21.1165 C   0  0  0  0  0  0  0  0  0  0  0  0
   29.0066   10.6701   21.4835 C   0  0  0  0  0  0  0  0  0  0  0  0
   29.8328   11.5801   20.8178 C   0  0  0  0  0  0  0  0  0  0  0  0
   28.1048   12.3288   19.5150 C   0  0  0  0  0  0  0  0  0  0  0  0
   29.3994   12.3929   19.8501 N   0  0  0  0  0  0  0  0  0  0  0  0
   29.5187    9.8048   22.5128 C   0  0  0  0  0  0  0  0  0  0  0  0
   30.0112    9.1186   23.3494 C   0  0  0  0  0  0  0  0  0  0  0  0
   30.6525    8.2920   24.3745 C   0  0  0  0  0  0  0  0  0  0  0  0
  5  4  2  0  0  0
  5  6  1  0  0  0
  4  3  1  0  0  0
  6  1  2  0  0  0
 24 25  2  0  0  0
 24 20  1  0  0  0
  3 20  1  0  0  0
  3  2  2  0  0  0
 25 23  1  0  0  0
 20 21  2  0  0  0
  1  2  1  0  0  0
  1  7  1  0  0  0
 23 22  2  0  0  0
 19 17  1  0  0  0
 19 18  1  0  0  0
 21 22  1  0  0  0
 17  7  1  0  0  0
 17 18  1  0  0  0
 22 26  1  0  0  0
  7  8  1  0  0  0
  7 11  1  0  0  0
 12 11  2  0  0  0
  8  9  1  0  0  0
 26 27  3  0  0  0
 11 10  1  0  0  0
 27 28  1  0  0  0
  9 10  1  0  0  0
  9 13  2  0  0  0
 10 14  1  0  0  0
  8 15  1  0  0  0
 13 16  1  0  0  0
M  END
> <minimizedAffinity>
-8.00280

$$$$
4DJY_0KR_A_501


 28 31  0  0  0  0  0  0  0  0999 V2000
   25.2593   13.4116   19.7396 C   0  0  0  0  0  0  0  0  0  0  0  0
   24.3587   12.6092   20.4437 C   0  0  0  0  0  0  0  0  0  0  0  0
   23.0334   12.4779   20.0137 C   0  0  0  0  0  0  0  0  0  0  0  0
   22.6243   13.1813   18.8750 C   0  0  0  0  0  0  0  0  0  0  0  0
   23.5161   13.9690   18.1699 C   0  0  0  0  0  0  0  0  0  0  0  0
   24.8273   14.0839   18.5964 C   0  0  0  0  0  0  0  0  0  0  0  0
   26.7184   13.4998   20.1942 C   0  0  0  0  0  0  0  0  0  0  0  0
   26.8209   13.5885   21.7047 N   0  0  0  0  0  0  0  0  0  0  0  0
   27.5600   12.5628   22.1309 C   0  0  0  0  0  0  0  0  0  0  0  0
   27.8642   11.6369   21.0981 N   0  0  0  0  0  0  0  0  0  0  0  0
   27.4092   12.1317   19.8977 C   0  0  0  0  0  0  0  0  0  0  0  0
   27.5165   11.5747   18.8201 O   0  0  0  0  0  0  0  0  0  0  0  0
   27.9345   12.3254   23.3912 N   0  0  0  0  0  0  0  0  0  0  0  0
   28.5785   10.3624   21.2334 C   0  0  0  0  0  0  0  0  0  0  0  0
   26.4131   14.2821   22.2720 H   0  0  0  0  0  0  0  0  0  0  0  0
   27.7183   12.9742   24.0994 H   0  0  0  0  0  0  0  0  0  0  0  0
   27.5808   14.5793   19.4756 C   0  0  0  0  0  0  0  0  0  0  0  0
   28.7114   15.2936   20.1666 C   0  0  0  0  0  0  0  0  0  0  0  0
   27.4451   16.0285   19.8365 C   0  0  0  0  0  0  0  0  0  0  0  0
   22.1073   11.5366   20.7161 C   0  0  0  0  0  0  0  0  0  0  0  0
   21.4922   10.4918   20.0192 C   0  0  0  0  0  0  0  0  0  0  0  0
   20.6000    9.6517   20.6850 C   0  0  0  0  0  0  0  0  0  0  0  0
   20.3597    9.8938   22.0405 C   0  0  0  0  0  0  0  0  0  0  0  0
   21.7955   11.6776   22.0656 C   0  0  0  0  0  0  0  0  0  0  0  0
   20.9443   10.8815   22.7245 N   0  0  0  0  0  0  0  0  0  0  0  0
   19.9564    8.5684   19.9902 C   0  0  0  0  0  0  0  0  0  0  0  0
   19.4010    7.7241   19.3642 C   0  0  0  0  0  0  0  0  0  0  0  0
   18.7088    6.7106   18.5647 C   0  0  0  0  0  0  0  0  0  0  0  0
  5  4  2  0  0  0
  5  6  1  0  0  0
  4  3  1  0  0  0
  6  1  2  0  0  0
 24 25  2  0  0  0
 24 20  1  0  0  0
  3 20  1  0  0  0
  3  2  2  0  0  0
 25 23  1  0  0  0
 20 21  2  0  0  0
  1  2  1  0  0  0
  1  7  1  0  0  0
 23 22  2  0  0  0
 19 17  1  0  0  0
 19 18  1  0  0  0
 21 22  1  0  0  0
 17  7  1  0  0  0
 17 18  1  0  0  0
 22 26  1  0  0  0
  7  8  1  0  0  0
  7 11  1  0  0  0
 12 11  2  0  0  0
  8  9  1  0  0  0
 26 27  3  0  0  0
 11 10  1  0  0  0
 27 28  1  0  0  0
  9 10  1  0  0  0
  9 13  2  0  0  0
 10 14  1  0  0  0
  8 15  1  0  0  0
 13 16  1  0  0  0
M  END
> <minimizedAffinity>
-7.91394

$$$$
4DJY_0KR_A_501


 28 31  0  0  0  0  0  0  0  0999 V2000
   25.3569   12.0907   20.2447 C   0  0  0  0  0  0  0  0  0  0  0  0
   24.5962   11.6454   21.3281 C   0  0  0  0  0  0  0  0  0  0  0  0
   23.2766   11.2171   21.1450 C   0  0  0  0  0  0  0  0  0  0  0  0
   22.7288   11.2615   19.8578 C   0  0  0  0  0  0  0  0  0  0  0  0
   23.4825   11.6927   18.7813 C   0  0  0  0  0  0  0  0  0  0  0  0
   24.7899   12.1039   18.9703 C   0  0  0  0  0  0  0  0  0  0  0  0
   26.8157   12.5039   20.4559 C   0  0  0  0  0  0  0  0  0  0  0  0
   27.0497   12.9972   21.8708 N   0  0  0  0  0  0  0  0  0  0  0  0
   27.9953   12.2358   22.4240 C   0  0  0  0  0  0  0  0  0  0  0  0
   28.3533   11.1266   21.6129 N   0  0  0  0  0  0  0  0  0  0  0  0
   27.7026   11.2203   20.4044 C   0  0  0  0  0  0  0  0  0  0  0  0
   27.7987   10.4232   19.4889 O   0  0  0  0  0  0  0  0  0  0  0  0
   28.5281   12.3918   23.6393 N   0  0  0  0  0  0  0  0  0  0  0  0
   29.2895   10.0483   21.9503 C   0  0  0  0  0  0  0  0  0  0  0  0
   26.5848   13.7484   22.3053 H   0  0  0  0  0  0  0  0  0  0  0  0
   28.2727   13.1646   24.1932 H   0  0  0  0  0  0  0  0  0  0  0  0
   27.4006   13.4715   19.3848 C   0  0  0  0  0  0  0  0  0  0  0  0
   28.4778   14.4715   19.7098 C   0  0  0  0  0  0  0  0  0  0  0  0
   27.0796   14.9358   19.4231 C   0  0  0  0  0  0  0  0  0  0  0  0
   22.5073   10.6471   22.2941 C   0  0  0  0  0  0  0  0  0  0  0  0
   21.1134   10.7511   22.3381 C   0  0  0  0  0  0  0  0  0  0  0  0
   20.4202   10.2494   23.4393 C   0  0  0  0  0  0  0  0  0  0  0  0
   21.1612    9.6531   24.4636 C   0  0  0  0  0  0  0  0  0  0  0  0
   23.1378   10.0278   23.3697 C   0  0  0  0  0  0  0  0  0  0  0  0
   22.4919    9.5374   24.4350 N   0  0  0  0  0  0  0  0  0  0  0  0
   18.9858   10.3425   23.5066 C   0  0  0  0  0  0  0  0  0  0  0  0
   17.7972   10.3583   23.5167 C   0  0  0  0  0  0  0  0  0  0  0  0
   16.3326   10.3437   23.5087 C   0  0  0  0  0  0  0  0  0  0  0  0
  5  4  2  0  0  0
  5  6  1  0  0  0
  4  3  1  0  0  0
  6  1  2  0  0  0
 24 25  2  0  0  0
 24 20  1  0  0  0
  3 20  1  0  0  0
  3  2  2  0  0  0
 25 23  1  0  0  0
 20 21  2  0  0  0
  1  2  1  0  0  0
  1  7  1  0  0  0
 23 22  2  0  0  0
 19 17  1  0  0  0
 19 18  1  0  0  0
 21 22  1  0  0  0
 17  7  1  0  0  0
 17 18  1  0  0  0
 22 26  1  0  0  0
  7  8  1  0  0  0
  7 11  1  0  0  0
 12 11  2  0  0  0
  8  9  1  0  0  0
 26 27  3  0  0  0
 11 10  1  0  0  0
 27 28  1  0  0  0
  9 10  1  0  0  0
  9 13  2  0  0  0
 10 14  1  0  0  0
  8 15  1  0  0  0
 13 16  1  0  0  0
M  END
> <minimizedAffinity>
-7.87080

$$$$
4DJY_0KR_A_501


 28 31  0  0  0  0  0  0  0  0999 V2000
   25.8891   12.4411   19.6786 C   0  0  0  0  0  0  0  0  0  0  0  0
   24.7518   12.2769   20.4725 C   0  0  0  0  0  0  0  0  0  0  0  0
   23.5877   11.7092   19.9424 C   0  0  0  0  0  0  0  0  0  0  0  0
   23.5804   11.3265   18.5962 C   0  0  0  0  0  0  0  0  0  0  0  0
   24.7079   11.4786   17.8099 C   0  0  0  0  0  0  0  0  0  0  0  0
   25.8578   12.0308   18.3458 C   0  0  0  0  0  0  0  0  0  0  0  0
   27.1699   13.0139   20.2906 C   0  0  0  0  0  0  0  0  0  0  0  0
   27.0380   13.1778   21.7925 N   0  0  0  0  0  0  0  0  0  0  0  0
   28.0027   12.4626   22.3737 C   0  0  0  0  0  0  0  0  0  0  0  0
   28.7204   11.6550   21.4522 N   0  0  0  0  0  0  0  0  0  0  0  0
   28.2943   11.9372   20.1750 C   0  0  0  0  0  0  0  0  0  0  0  0
   28.7153   11.4126   19.1599 O   0  0  0  0  0  0  0  0  0  0  0  0
   28.2632   12.3993   23.6826 N   0  0  0  0  0  0  0  0  0  0  0  0
   29.7798   10.6877   21.7604 C   0  0  0  0  0  0  0  0  0  0  0  0
   26.3588   13.7178   22.2575 H   0  0  0  0  0  0  0  0  0  0  0  0
   27.7595   12.9637   24.3126 H   0  0  0  0  0  0  0  0  0  0  0  0
   27.7296   14.2929   19.6001 C   0  0  0  0  0  0  0  0  0  0  0  0
   27.8982   15.5943   20.3376 C   0  0  0  0  0  0  0  0  0  0  0  0
   26.8279   15.4516   19.2950 C   0  0  0  0  0  0  0  0  0  0  0  0
   22.4120   11.4452   20.8284 C   0  0  0  0  0  0  0  0  0  0  0  0
   21.8688   12.4677   21.6128 C   0  0  0  0  0  0  0  0  0  0  0  0
   20.7989   12.1888   22.4628 C   0  0  0  0  0  0  0  0  0  0  0  0
   20.3083   10.8802   22.4905 C   0  0  0  0  0  0  0  0  0  0  0  0
   21.8371   10.1818   20.9351 C   0  0  0  0  0  0  0  0  0  0  0  0
   20.8089    9.8928   21.7424 N   0  0  0  0  0  0  0  0  0  0  0  0
   20.2215   13.2245   23.2779 C   0  0  0  0  0  0  0  0  0  0  0  0
   19.7363   14.1220   23.8880 C   0  0  0  0  0  0  0  0  0  0  0  0
   19.1314   15.2466   24.6055 C   0  0  0  0  0  0  0  0  0  0  0  0
  5  4  2  0  0  0
  5  6  1  0  0  0
  4  3  1  0  0  0
  6  1  2  0  0  0
 24 25  2  0  0  0
 24 20  1  0  0  0
  3 20  1  0  0  0
  3  2  2  0  0  0
 25 23  1  0  0  0
 20 21  2  0  0  0
  1  2  1  0  0  0
  1  7  1  0  0  0
 23 22  2  0  0  0
 19 17  1  0  0  0
 19 18  1  0  0  0
 21 22  1  0  0  0
 17  7  1  0  0  0
 17 18  1  0  0  0
 22 26  1  0  0  0
  7  8  1  0  0  0
  7 11  1  0  0  0
 12 11  2  0  0  0
  8  9  1  0  0  0
 26 27  3  0  0  0
 11 10  1  0  0  0
 27 28  1  0  0  0
  9 10  1  0  0  0
  9 13  2  0  0  0
 10 14  1  0  0  0
  8 15  1  0  0  0
 13 16  1  0  0  0
M  END
> <minimizedAffinity>
-7.83140

$$$$
4DJY_0KR_A_501


 28 31  0  0  0  0  0  0  0  0999 V2000
   20.3713   10.7921   22.3489 C   0  0  0  0  0  0  0  0  0  0  0  0
   21.3716   11.5109   21.6905 C   0  0  0  0  0  0  0  0  0  0  0  0
   21.8531   11.0875   20.4467 C   0  0  0  0  0  0  0  0  0  0  0  0
   21.3254    9.9193   19.8848 C   0  0  0  0  0  0  0  0  0  0  0  0
   20.3280    9.2106   20.5294 C   0  0  0  0  0  0  0  0  0  0  0  0
   19.8504    9.6431   21.7538 C   0  0  0  0  0  0  0  0  0  0  0  0
   19.8192   11.3008   23.6830 C   0  0  0  0  0  0  0  0  0  0  0  0
   20.4157   10.5410   24.8521 N   0  0  0  0  0  0  0  0  0  0  0  0
   21.0203   11.4205   25.6528 C   0  0  0  0  0  0  0  0  0  0  0  0
   21.0729   12.7259   25.0963 N   0  0  0  0  0  0  0  0  0  0  0  0
   20.3601   12.7459   23.9198 C   0  0  0  0  0  0  0  0  0  0  0  0
   20.2133   13.7182   23.2016 O   0  0  0  0  0  0  0  0  0  0  0  0
   21.6096   11.1535   26.8217 N   0  0  0  0  0  0  0  0  0  0  0  0
   21.7366   13.9047   25.6645 C   0  0  0  0  0  0  0  0  0  0  0  0
   20.3654    9.5683   24.9954 H   0  0  0  0  0  0  0  0  0  0  0  0
   21.5668   10.2448   27.1983 H   0  0  0  0  0  0  0  0  0  0  0  0
   18.2678   11.4048   23.7711 C   0  0  0  0  0  0  0  0  0  0  0  0
   17.5397   11.4430   25.0880 C   0  0  0  0  0  0  0  0  0  0  0  0
   17.4482   10.2285   24.2109 C   0  0  0  0  0  0  0  0  0  0  0  0
   22.8500   11.9207   19.7057 C   0  0  0  0  0  0  0  0  0  0  0  0
   24.2115   11.6035   19.7453 C   0  0  0  0  0  0  0  0  0  0  0  0
   25.1278   12.4186   19.0811 C   0  0  0  0  0  0  0  0  0  0  0  0
   24.6358   13.5312   18.3927 C   0  0  0  0  0  0  0  0  0  0  0  0
   22.4762   13.0505   18.9834 C   0  0  0  0  0  0  0  0  0  0  0  0
   23.3384   13.8450   18.3369 N   0  0  0  0  0  0  0  0  0  0  0  0
   26.5334   12.1117   19.1052 C   0  0  0  0  0  0  0  0  0  0  0  0
   27.6965   11.8839   19.1970 C   0  0  0  0  0  0  0  0  0  0  0  0
   29.1280   11.6130   19.3485 C   0  0  0  0  0  0  0  0  0  0  0  0
  5  4  2  0  0  0
  5  6  1  0  0  0
  4  3  1  0  0  0
  6  1  2  0  0  0
 24 25  2  0  0  0
 24 20  1  0  0  0
  3 20  1  0  0  0
  3  2  2  0  0  0
 25 23  1  0  0  0
 20 21  2  0  0  0
  1  2  1  0  0  0
  1  7  1  0  0  0
 23 22  2  0  0  0
 19 17  1  0  0  0
 19 18  1  0  0  0
 21 22  1  0  0  0
 17  7  1  0  0  0
 17 18  1  0  0  0
 22 26  1  0  0  0
  7  8  1  0  0  0
  7 11  1  0  0  0
 12 11  2  0  0  0
  8  9  1  0  0  0
 26 27  3  0  0  0
 11 10  1  0  0  0
 27 28  1  0  0  0
  9 10  1  0  0  0
  9 13  2  0  0  0
 10 14  1  0  0  0
  8 15  1  0  0  0
 13 16  1  0  0  0
M  END
> <minimizedAffinity>
-7.74165

$$$$
4DJY_0KR_A_501


 28 31  0  0  0  0  0  0  0  0999 V2000
   20.3667   11.4828   22.8280 C   0  0  0  0  0  0  0  0  0  0  0  0
   21.3623   12.0573   22.0347 C   0  0  0  0  0  0  0  0  0  0  0  0
   21.7886   11.4291   20.8591 C   0  0  0  0  0  0  0  0  0  0  0  0
   21.2104   10.2049   20.5045 C   0  0  0  0  0  0  0  0  0  0  0  0
   20.2175    9.6381   21.2826 C   0  0  0  0  0  0  0  0  0  0  0  0
   19.7947   10.2721   22.4375 C   0  0  0  0  0  0  0  0  0  0  0  0
   19.8755   12.2115   24.0814 C   0  0  0  0  0  0  0  0  0  0  0  0
   20.2309   13.6852   24.0374 N   0  0  0  0  0  0  0  0  0  0  0  0
   19.1000   14.3871   24.1288 C   0  0  0  0  0  0  0  0  0  0  0  0
   17.9392   13.5718   24.0621 N   0  0  0  0  0  0  0  0  0  0  0  0
   18.3152   12.2485   24.0487 C   0  0  0  0  0  0  0  0  0  0  0  0
   17.5531   11.3002   23.9962 O   0  0  0  0  0  0  0  0  0  0  0  0
   18.9959   15.7176   24.1908 N   0  0  0  0  0  0  0  0  0  0  0  0
   16.5421   14.0199   24.0450 C   0  0  0  0  0  0  0  0  0  0  0  0
   21.1380   14.0587   23.9555 H   0  0  0  0  0  0  0  0  0  0  0  0
   19.8073   16.2733   24.2367 H   0  0  0  0  0  0  0  0  0  0  0  0
   20.2594   11.5478   25.4371 C   0  0  0  0  0  0  0  0  0  0  0  0
   21.2607   12.1642   26.3771 C   0  0  0  0  0  0  0  0  0  0  0  0
   21.6058   10.9140   25.6218 C   0  0  0  0  0  0  0  0  0  0  0  0
   22.7810   12.1037   19.9663 C   0  0  0  0  0  0  0  0  0  0  0  0
   24.1367   11.7658   20.0266 C   0  0  0  0  0  0  0  0  0  0  0  0
   25.0502   12.4372   19.2143 C   0  0  0  0  0  0  0  0  0  0  0  0
   24.5614   13.4308   18.3612 C   0  0  0  0  0  0  0  0  0  0  0  0
   22.4096   13.1059   19.0742 C   0  0  0  0  0  0  0  0  0  0  0  0
   23.2692   13.7612   18.2841 N   0  0  0  0  0  0  0  0  0  0  0  0
   26.4498   12.1059   19.2566 C   0  0  0  0  0  0  0  0  0  0  0  0
   27.6029   11.8196   19.2163 C   0  0  0  0  0  0  0  0  0  0  0  0
   29.0212   11.4646   19.1272 C   0  0  0  0  0  0  0  0  0  0  0  0
  5  4  2  0  0  0
  5  6  1  0  0  0
  4  3  1  0  0  0
  6  1  2  0  0  0
 24 25  2  0  0  0
 24 20  1  0  0  0
  3 20  1  0  0  0
  3  2  2  0  0  0
 25 23  1  0  0  0
 20 21  2  0  0  0
  1  2  1  0  0  0
  1  7  1  0  0  0
 23 22  2  0  0  0
 19 17  1  0  0  0
 19 18  1  0  0  0
 21 22  1  0  0  0
 17  7  1  0  0  0
 17 18  1  0  0  0
 22 26  1  0  0  0
  7  8  1  0  0  0
  7 11  1  0  0  0
 12 11  2  0  0  0
  8  9  1  0  0  0
 26 27  3  0  0  0
 11 10  1  0  0  0
 27 28  1  0  0  0
  9 10  1  0  0  0
  9 13  2  0  0  0
 10 14  1  0  0  0
  8 15  1  0  0  0
 13 16  1  0  0  0
M  END
> <minimizedAffinity>
-7.65513

$$$$
