1BV7_XV6_A_638


 58 64  0  0  0  0  0  0  0  0999 V2000
   -8.1769   14.1122   27.8154 O   0  0  0  0  0  0  0  0  0  0  0  0
  -10.0522   19.4084   26.6688 O   0  0  0  0  0  0  0  0  0  0  0  0
  -11.4685   18.6249   28.9234 O   0  0  0  0  0  0  0  0  0  0  0  0
   -8.5841   15.9825   26.7155 N   0  0  0  0  0  0  0  0  0  0  0  0
   -9.4221   15.5627   28.8995 N   0  0  0  0  0  0  0  0  0  0  0  0
   -8.7153   15.2089   27.8102 C   0  0  0  0  0  0  0  0  0  0  0  0
   -8.6912   17.4451   26.6925 C   0  0  0  0  0  0  0  0  0  0  0  0
  -10.0390   18.0535   27.0655 C   0  0  0  0  0  0  0  0  0  0  0  0
  -10.3101   17.9339   28.5506 C   0  0  0  0  0  0  0  0  0  0  0  0
  -10.5895   16.4881   28.8960 C   0  0  0  0  0  0  0  0  0  0  0  0
   -9.8773   19.4682   25.7165 H   0  0  0  0  0  0  0  0  0  0  0  0
  -11.3589   19.5687   28.7283 H   0  0  0  0  0  0  0  0  0  0  0  0
   -8.1541   15.3127   25.4820 C   0  0  0  0  0  0  0  0  0  0  0  0
   -8.7273   15.8201   24.1848 C   0  0  0  0  0  0  0  0  0  0  0  0
   -7.8568   16.3893   23.2460 C   0  0  0  0  0  0  0  0  0  0  0  0
   -8.3559   16.8410   22.0055 C   0  0  0  0  0  0  0  0  0  0  0  0
   -9.7241   16.7128   21.6978 C   0  0  0  0  0  0  0  0  0  0  0  0
  -10.5964   16.1377   22.6363 C   0  0  0  0  0  0  0  0  0  0  0  0
  -10.1032   15.7032   23.8793 C   0  0  0  0  0  0  0  0  0  0  0  0
   -7.4443   17.4997   21.0263 C   0  0  0  0  0  0  0  0  0  0  0  0
   -7.8010   18.3165   20.1896 O   0  0  0  0  0  0  0  0  0  0  0  0
   -6.1817   17.0659   21.1422 N   0  0  0  0  0  0  0  0  0  0  0  0
   -5.9723   16.4632   21.8919 H   0  0  0  0  0  0  0  0  0  0  0  0
   -4.4238   18.5941   20.2486 N   0  0  0  0  0  0  0  0  0  0  0  0
   -5.0911   17.4248   20.2326 C   0  0  0  0  0  0  0  0  0  0  0  0
   -3.5047   18.6879   19.2324 C   0  0  0  0  0  0  0  0  0  0  0  0
   -4.5549   16.4587   18.9648 S   0  0  0  0  0  0  0  0  0  0  0  0
   -3.4240   17.5670   18.3800 C   0  0  0  0  0  0  0  0  0  0  0  0
   -9.1510   14.7870   30.1164 C   0  0  0  0  0  0  0  0  0  0  0  0
   -9.1737   15.5474   31.4022 C   0  0  0  0  0  0  0  0  0  0  0  0
  -10.0576   15.1217   32.3877 C   0  0  0  0  0  0  0  0  0  0  0  0
  -10.1666   15.8510   33.5917 C   0  0  0  0  0  0  0  0  0  0  0  0
   -9.3736   17.0066   33.8157 C   0  0  0  0  0  0  0  0  0  0  0  0
   -8.4635   17.4232   32.8260 C   0  0  0  0  0  0  0  0  0  0  0  0
   -8.3630   16.6896   31.6260 C   0  0  0  0  0  0  0  0  0  0  0  0
  -11.1321   15.3998   34.6312 C   0  0  0  0  0  0  0  0  0  0  0  0
  -11.5953   16.1414   35.4770 O   0  0  0  0  0  0  0  0  0  0  0  0
  -11.4711   14.1085   34.5538 N   0  0  0  0  0  0  0  0  0  0  0  0
  -11.0866   13.5502   33.8400 H   0  0  0  0  0  0  0  0  0  0  0  0
  -13.6427   13.1000   35.2189 N   0  0  0  0  0  0  0  0  0  0  0  0
  -12.4001   13.5116   35.5074 C   0  0  0  0  0  0  0  0  0  0  0  0
  -14.2482   12.4991   36.2920 C   0  0  0  0  0  0  0  0  0  0  0  0
  -12.0070   13.1601   37.1127 S   0  0  0  0  0  0  0  0  0  0  0  0
  -13.4815   12.4307   37.4732 C   0  0  0  0  0  0  0  0  0  0  0  0
   -7.4220   17.9863   27.3914 C   0  0  0  0  0  0  0  0  0  0  0  0
   -6.1824   17.7777   26.5272 C   0  0  0  0  0  0  0  0  0  0  0  0
   -6.0100   18.5200   25.3309 C   0  0  0  0  0  0  0  0  0  0  0  0
   -4.8372   18.3696   24.5657 C   0  0  0  0  0  0  0  0  0  0  0  0
   -3.8420   17.4686   24.9880 C   0  0  0  0  0  0  0  0  0  0  0  0
   -4.0066   16.7114   26.1727 C   0  0  0  0  0  0  0  0  0  0  0  0
   -5.1752   16.8661   26.9460 C   0  0  0  0  0  0  0  0  0  0  0  0
  -11.8050   15.8774   28.1239 C   0  0  0  0  0  0  0  0  0  0  0  0
  -12.4013   14.6019   28.7133 C   0  0  0  0  0  0  0  0  0  0  0  0
  -12.3634   13.4027   27.9780 C   0  0  0  0  0  0  0  0  0  0  0  0
  -12.8650   12.2102   28.5302 C   0  0  0  0  0  0  0  0  0  0  0  0
  -13.4018   12.2216   29.8274 C   0  0  0  0  0  0  0  0  0  0  0  0
  -13.4450   13.4144   30.5680 C   0  0  0  0  0  0  0  0  0  0  0  0
  -12.9538   14.6125   30.0144 C   0  0  0  0  0  0  0  0  0  0  0  0
  1  6  2  0  0  0
  2  8  1  0  0  0
  3  9  1  0  0  0
  4  6  1  0  0  0
  4 13  1  0  0  0
  4  7  1  0  0  0
  5  6  1  0  0  0
  5 10  1  0  0  0
  5 29  1  0  0  0
 13 14  1  0  0  0
  7  8  1  0  0  0
  7 45  1  0  0  0
  8  9  1  0  0  0
  9 10  1  0  0  0
 10 52  1  0  0  0
 29 30  1  0  0  0
 45 46  1  0  0  0
 46 47  2  0  0  0
 46 51  1  0  0  0
 47 48  1  0  0  0
 48 49  2  0  0  0
 49 50  1  0  0  0
 50 51  2  0  0  0
 52 53  1  0  0  0
 53 54  2  0  0  0
 53 58  1  0  0  0
 54 55  1  0  0  0
 55 56  2  0  0  0
 56 57  1  0  0  0
 57 58  2  0  0  0
 14 15  2  0  0  0
 14 19  1  0  0  0
 15 16  1  0  0  0
 16 17  2  0  0  0
 16 20  1  0  0  0
 17 18  1  0  0  0
 18 19  2  0  0  0
 20 21  2  0  0  0
 20 22  1  0  0  0
 22 25  1  0  0  0
 24 25  2  0  0  0
 24 26  1  0  0  0
 25 27  1  0  0  0
 26 28  2  0  0  0
 27 28  1  0  0  0
 30 31  2  0  0  0
 30 35  1  0  0  0
 31 32  1  0  0  0
 32 33  2  0  0  0
 32 36  1  0  0  0
 33 34  1  0  0  0
 34 35  2  0  0  0
 36 37  2  0  0  0
 36 38  1  0  0  0
 38 41  1  0  0  0
 40 41  2  0  0  0
 40 42  1  0  0  0
 41 43  1  0  0  0
 42 44  2  0  0  0
 43 44  1  0  0  0
  2 11  1  0  0  0
  3 12  1  0  0  0
 22 23  1  0  0  0
 38 39  1  0  0  0
M  END
> <minimizedAffinity>
-14.16986

$$$$
