2AFW_AHN_A_1501


 13 13  0  0  0  0  0  0  0  0999 V2000
  -13.0140    4.9272   23.6939 C   0  0  0  0  0  0  0  0  0  0  0  0
  -13.6581    4.4611   24.9677 C   0  0  0  0  0  0  0  0  0  0  0  0
  -13.4825    3.3382   25.7015 C   0  0  0  0  0  0  0  0  0  0  0  0
  -14.6084    5.2041   25.6335 N   0  0  0  0  0  0  0  0  0  0  0  0
  -14.9798    4.5711   26.7331 C   0  0  0  0  0  0  0  0  0  0  0  0
  -14.3098    3.4337   26.7998 N   0  0  0  0  0  0  0  0  0  0  0  0
  -14.3888    2.7639   27.5169 H   0  0  0  0  0  0  0  0  0  0  0  0
  -13.8642    4.6412   22.4308 C   0  0  0  0  0  0  0  0  0  0  0  0
  -16.0615    3.5843   22.2232 C   0  0  0  0  0  0  0  0  0  0  0  0
  -17.2904    3.4453   22.5163 O   0  0  0  0  0  0  0  0  0  0  0  0
  -15.3929    2.6972   21.1866 C   0  0  0  0  0  0  0  0  0  0  0  0
  -15.2705    4.5110   22.7725 N   0  0  0  0  0  0  0  0  0  0  0  0
  -15.6557    5.1296   23.4344 H   0  0  0  0  0  0  0  0  0  0  0  0
  9 10  2  0  0  0
  9 11  1  0  0  0
  9 12  1  0  0  0
 12  8  1  0  0  0
  8  1  1  0  0  0
  1  2  1  0  0  0
  2  3  2  0  0  0
  2  4  1  0  0  0
  3  6  1  0  0  0
  4  5  2  0  0  0
  5  6  1  0  0  0
 12 13  1  0  0  0
  6  7  1  0  0  0
M  END
> <minimizedAffinity>
-5.43341

$$$$
2AFW_AHN_A_1501


 13 13  0  0  0  0  0  0  0  0999 V2000
  -13.8235    4.6285   22.3394 C   0  0  0  0  0  0  0  0  0  0  0  0
  -14.9845    3.6850   22.2108 C   0  0  0  0  0  0  0  0  0  0  0  0
  -15.0382    2.3349   22.1416 C   0  0  0  0  0  0  0  0  0  0  0  0
  -16.2906    4.1196   22.1511 N   0  0  0  0  0  0  0  0  0  0  0  0
  -17.1035    3.0801   22.0694 C   0  0  0  0  0  0  0  0  0  0  0  0
  -16.3681    1.9819   22.0627 N   0  0  0  0  0  0  0  0  0  0  0  0
  -16.7140    1.0617   22.0099 H   0  0  0  0  0  0  0  0  0  0  0  0
  -13.9301    5.5768   23.5597 C   0  0  0  0  0  0  0  0  0  0  0  0
  -14.9815    5.5004   25.7682 C   0  0  0  0  0  0  0  0  0  0  0  0
  -15.4445    4.9007   26.7887 O   0  0  0  0  0  0  0  0  0  0  0  0
  -14.9924    7.0167   25.6722 C   0  0  0  0  0  0  0  0  0  0  0  0
  -14.4405    4.8692   24.7217 N   0  0  0  0  0  0  0  0  0  0  0  0
  -14.3855    3.8864   24.7389 H   0  0  0  0  0  0  0  0  0  0  0  0
  9 10  2  0  0  0
  9 11  1  0  0  0
  9 12  1  0  0  0
 12  8  1  0  0  0
  8  1  1  0  0  0
  1  2  1  0  0  0
  2  3  2  0  0  0
  2  4  1  0  0  0
  3  6  1  0  0  0
  4  5  2  0  0  0
  5  6  1  0  0  0
 12 13  1  0  0  0
  6  7  1  0  0  0
M  END
> <minimizedAffinity>
-5.39868

$$$$
2AFW_AHN_A_1501


 13 13  0  0  0  0  0  0  0  0999 V2000
  -13.4200    4.8157   23.5050 C   0  0  0  0  0  0  0  0  0  0  0  0
  -14.1009    5.2544   24.7693 C   0  0  0  0  0  0  0  0  0  0  0  0
  -14.6438    6.4402   25.1293 C   0  0  0  0  0  0  0  0  0  0  0  0
  -14.2921    4.4094   25.8406 N   0  0  0  0  0  0  0  0  0  0  0  0
  -14.9395    5.0464   26.8014 C   0  0  0  0  0  0  0  0  0  0  0  0
  -15.1668    6.2832   26.3948 N   0  0  0  0  0  0  0  0  0  0  0  0
  -15.6337    6.9790   26.9116 H   0  0  0  0  0  0  0  0  0  0  0  0
  -14.0696    3.5692   22.8537 C   0  0  0  0  0  0  0  0  0  0  0  0
  -16.3836    3.0704   22.2334 C   0  0  0  0  0  0  0  0  0  0  0  0
  -17.6346    3.0163   22.4516 O   0  0  0  0  0  0  0  0  0  0  0  0
  -15.7948    2.6234   20.9060 C   0  0  0  0  0  0  0  0  0  0  0  0
  -15.4972    3.5302   23.1216 N   0  0  0  0  0  0  0  0  0  0  0  0
  -15.8243    3.8553   23.9914 H   0  0  0  0  0  0  0  0  0  0  0  0
  9 10  2  0  0  0
  9 11  1  0  0  0
  9 12  1  0  0  0
 12  8  1  0  0  0
  8  1  1  0  0  0
  1  2  1  0  0  0
  2  3  2  0  0  0
  2  4  1  0  0  0
  3  6  1  0  0  0
  4  5  2  0  0  0
  5  6  1  0  0  0
 12 13  1  0  0  0
  6  7  1  0  0  0
M  END
> <minimizedAffinity>
-5.24465

$$$$
2AFW_AHN_A_1501


 13 13  0  0  0  0  0  0  0  0999 V2000
  -14.2560    4.2927   24.0552 C   0  0  0  0  0  0  0  0  0  0  0  0
  -12.8681    4.1446   23.5017 C   0  0  0  0  0  0  0  0  0  0  0  0
  -11.6533    4.2781   24.0820 C   0  0  0  0  0  0  0  0  0  0  0  0
  -12.6254    3.8051   22.1886 N   0  0  0  0  0  0  0  0  0  0  0  0
  -11.3222    3.7167   21.9841 C   0  0  0  0  0  0  0  0  0  0  0  0
  -10.7072    3.9985   23.1196 N   0  0  0  0  0  0  0  0  0  0  0  0
   -9.7322    4.0073   23.2557 H   0  0  0  0  0  0  0  0  0  0  0  0
  -15.3129    4.6589   22.9834 C   0  0  0  0  0  0  0  0  0  0  0  0
  -16.7986    2.8853   22.1861 C   0  0  0  0  0  0  0  0  0  0  0  0
  -17.8116    2.1228   22.2751 O   0  0  0  0  0  0  0  0  0  0  0  0
  -15.8600    2.8136   20.9935 C   0  0  0  0  0  0  0  0  0  0  0  0
  -16.4849    3.8079   23.1007 N   0  0  0  0  0  0  0  0  0  0  0  0
  -17.0708    3.9152   23.8846 H   0  0  0  0  0  0  0  0  0  0  0  0
  9 10  2  0  0  0
  9 11  1  0  0  0
  9 12  1  0  0  0
 12  8  1  0  0  0
  8  1  1  0  0  0
  1  2  1  0  0  0
  2  3  2  0  0  0
  2  4  1  0  0  0
  3  6  1  0  0  0
  4  5  2  0  0  0
  5  6  1  0  0  0
 12 13  1  0  0  0
  6  7  1  0  0  0
M  END
> <minimizedAffinity>
-5.15538

$$$$
2AFW_AHN_A_1501


 13 13  0  0  0  0  0  0  0  0999 V2000
  -14.8053    5.8977   24.9642 C   0  0  0  0  0  0  0  0  0  0  0  0
  -13.8451    6.8612   24.3284 C   0  0  0  0  0  0  0  0  0  0  0  0
  -13.8629    8.2105   24.2309 C   0  0  0  0  0  0  0  0  0  0  0  0
  -12.6881    6.4513   23.7025 N   0  0  0  0  0  0  0  0  0  0  0  0
  -12.0222    7.5049   23.2615 C   0  0  0  0  0  0  0  0  0  0  0  0
  -12.7137    8.5880   23.5702 N   0  0  0  0  0  0  0  0  0  0  0  0
  -12.4508    9.5137   23.3622 H   0  0  0  0  0  0  0  0  0  0  0  0
  -14.8365    4.5107   24.2747 C   0  0  0  0  0  0  0  0  0  0  0  0
  -15.9964    4.0274   22.1749 C   0  0  0  0  0  0  0  0  0  0  0  0
  -17.0332    3.8793   21.4547 O   0  0  0  0  0  0  0  0  0  0  0  0
  -14.6026    3.8511   21.5962 C   0  0  0  0  0  0  0  0  0  0  0  0
  -16.0360    4.3607   23.4685 N   0  0  0  0  0  0  0  0  0  0  0  0
  -16.9122    4.5105   23.8918 H   0  0  0  0  0  0  0  0  0  0  0  0
  9 10  2  0  0  0
  9 11  1  0  0  0
  9 12  1  0  0  0
 12  8  1  0  0  0
  8  1  1  0  0  0
  1  2  1  0  0  0
  2  3  2  0  0  0
  2  4  1  0  0  0
  3  6  1  0  0  0
  4  5  2  0  0  0
  5  6  1  0  0  0
 12 13  1  0  0  0
  6  7  1  0  0  0
M  END
> <minimizedAffinity>
-4.91824

$$$$
2AFW_AHN_A_1501


 13 13  0  0  0  0  0  0  0  0999 V2000
  -13.4179    4.1596   21.7401 C   0  0  0  0  0  0  0  0  0  0  0  0
  -14.7193    3.4220   21.8697 C   0  0  0  0  0  0  0  0  0  0  0  0
  -14.9911    2.1067   22.0324 C   0  0  0  0  0  0  0  0  0  0  0  0
  -15.9397    4.0613   21.8486 N   0  0  0  0  0  0  0  0  0  0  0  0
  -16.9093    3.1773   22.0110 C   0  0  0  0  0  0  0  0  0  0  0  0
  -16.3604    1.9805   22.1263 N   0  0  0  0  0  0  0  0  0  0  0  0
  -16.8498    1.1364   22.2577 H   0  0  0  0  0  0  0  0  0  0  0  0
  -12.8644    4.6785   23.0908 C   0  0  0  0  0  0  0  0  0  0  0  0
  -13.4524    6.9323   23.8412 C   0  0  0  0  0  0  0  0  0  0  0  0
  -14.2358    7.7956   24.3475 O   0  0  0  0  0  0  0  0  0  0  0  0
  -12.0533    7.3092   23.3840 C   0  0  0  0  0  0  0  0  0  0  0  0
  -13.7728    5.6442   23.6854 N   0  0  0  0  0  0  0  0  0  0  0  0
  -14.6590    5.3376   23.9853 H   0  0  0  0  0  0  0  0  0  0  0  0
  9 10  2  0  0  0
  9 11  1  0  0  0
  9 12  1  0  0  0
 12  8  1  0  0  0
  8  1  1  0  0  0
  1  2  1  0  0  0
  2  3  2  0  0  0
  2  4  1  0  0  0
  3  6  1  0  0  0
  4  5  2  0  0  0
  5  6  1  0  0  0
 12 13  1  0  0  0
  6  7  1  0  0  0
M  END
> <minimizedAffinity>
-4.87698

$$$$
2AFW_AHN_A_1501


 13 13  0  0  0  0  0  0  0  0999 V2000
  -13.3071    3.9980   21.6367 C   0  0  0  0  0  0  0  0  0  0  0  0
  -14.7540    3.7987   21.9853 C   0  0  0  0  0  0  0  0  0  0  0  0
  -15.4355    4.0089   23.1349 C   0  0  0  0  0  0  0  0  0  0  0  0
  -15.6793    3.3354   21.0756 N   0  0  0  0  0  0  0  0  0  0  0  0
  -16.8736    3.2848   21.6404 C   0  0  0  0  0  0  0  0  0  0  0  0
  -16.7543    3.6899   22.8928 N   0  0  0  0  0  0  0  0  0  0  0  0
  -17.4880    3.7534   23.5462 H   0  0  0  0  0  0  0  0  0  0  0  0
  -12.3727    4.0307   22.8719 C   0  0  0  0  0  0  0  0  0  0  0  0
   -9.9388    3.9388   23.1090 C   0  0  0  0  0  0  0  0  0  0  0  0
   -8.7860    3.4720   22.8468 O   0  0  0  0  0  0  0  0  0  0  0  0
  -10.1214    5.0829   24.0920 C   0  0  0  0  0  0  0  0  0  0  0  0
  -11.0642    3.4897   22.5452 N   0  0  0  0  0  0  0  0  0  0  0  0
  -11.0044    2.7640   21.8826 H   0  0  0  0  0  0  0  0  0  0  0  0
  9 10  2  0  0  0
  9 11  1  0  0  0
  9 12  1  0  0  0
 12  8  1  0  0  0
  8  1  1  0  0  0
  1  2  1  0  0  0
  2  3  2  0  0  0
  2  4  1  0  0  0
  3  6  1  0  0  0
  4  5  2  0  0  0
  5  6  1  0  0  0
 12 13  1  0  0  0
  6  7  1  0  0  0
M  END
> <minimizedAffinity>
-4.76922

$$$$
2AFW_AHN_A_1501


 13 13  0  0  0  0  0  0  0  0999 V2000
  -14.4447    5.0563   24.3728 C   0  0  0  0  0  0  0  0  0  0  0  0
  -14.5466    6.5203   24.6905 C   0  0  0  0  0  0  0  0  0  0  0  0
  -15.2325    7.1830   25.6501 C   0  0  0  0  0  0  0  0  0  0  0  0
  -13.8712    7.4838   23.9737 N   0  0  0  0  0  0  0  0  0  0  0  0
  -14.1193    8.6770   24.4862 C   0  0  0  0  0  0  0  0  0  0  0  0
  -14.9437    8.5231   25.5077 N   0  0  0  0  0  0  0  0  0  0  0  0
  -15.2944    9.2477   26.0745 H   0  0  0  0  0  0  0  0  0  0  0  0
  -14.9752    4.6914   22.9638 C   0  0  0  0  0  0  0  0  0  0  0  0
  -14.8924    2.3575   22.2327 C   0  0  0  0  0  0  0  0  0  0  0  0
  -15.3098    1.1573   22.2055 O   0  0  0  0  0  0  0  0  0  0  0  0
  -13.6769    2.7879   21.4290 C   0  0  0  0  0  0  0  0  0  0  0  0
  -15.4798    3.3290   22.9378 N   0  0  0  0  0  0  0  0  0  0  0  0
  -16.2859    3.1131   23.4602 H   0  0  0  0  0  0  0  0  0  0  0  0
  9 10  2  0  0  0
  9 11  1  0  0  0
  9 12  1  0  0  0
 12  8  1  0  0  0
  8  1  1  0  0  0
  1  2  1  0  0  0
  2  3  2  0  0  0
  2  4  1  0  0  0
  3  6  1  0  0  0
  4  5  2  0  0  0
  5  6  1  0  0  0
 12 13  1  0  0  0
  6  7  1  0  0  0
M  END
> <minimizedAffinity>
-4.64525

$$$$
2AFW_AHN_A_1501


 13 13  0  0  0  0  0  0  0  0999 V2000
  -15.6858    4.8042   23.1833 C   0  0  0  0  0  0  0  0  0  0  0  0
  -15.3318    3.5716   22.4023 C   0  0  0  0  0  0  0  0  0  0  0  0
  -16.0994    2.5732   21.9081 C   0  0  0  0  0  0  0  0  0  0  0  0
  -14.0376    3.2703   22.0381 N   0  0  0  0  0  0  0  0  0  0  0  0
  -14.0208    2.1496   21.3369 C   0  0  0  0  0  0  0  0  0  0  0  0
  -15.2617    1.7047   21.2419 N   0  0  0  0  0  0  0  0  0  0  0  0
  -15.5421    0.8864   20.7718 H   0  0  0  0  0  0  0  0  0  0  0  0
  -14.6113    5.2059   24.2245 C   0  0  0  0  0  0  0  0  0  0  0  0
  -14.8253    7.4124   25.2608 C   0  0  0  0  0  0  0  0  0  0  0  0
  -15.3040    8.2316   26.1065 O   0  0  0  0  0  0  0  0  0  0  0  0
  -13.7946    7.8511   24.2343 C   0  0  0  0  0  0  0  0  0  0  0  0
  -15.1625    6.1202   25.2103 N   0  0  0  0  0  0  0  0  0  0  0  0
  -15.8096    5.7742   25.8666 H   0  0  0  0  0  0  0  0  0  0  0  0
  9 10  2  0  0  0
  9 11  1  0  0  0
  9 12  1  0  0  0
 12  8  1  0  0  0
  8  1  1  0  0  0
  1  2  1  0  0  0
  2  3  2  0  0  0
  2  4  1  0  0  0
  3  6  1  0  0  0
  4  5  2  0  0  0
  5  6  1  0  0  0
 12 13  1  0  0  0
  6  7  1  0  0  0
M  END
> <minimizedAffinity>
-4.63085

$$$$
2AFW_AHN_A_1501


 13 13  0  0  0  0  0  0  0  0999 V2000
  -15.2225    4.9687   23.9598 C   0  0  0  0  0  0  0  0  0  0  0  0
  -15.6437    4.1079   22.8039 C   0  0  0  0  0  0  0  0  0  0  0  0
  -14.9608    3.6591   21.7257 C   0  0  0  0  0  0  0  0  0  0  0  0
  -16.9182    3.5980   22.6843 N   0  0  0  0  0  0  0  0  0  0  0  0
  -17.0014    2.8563   21.5931 C   0  0  0  0  0  0  0  0  0  0  0  0
  -15.8248    2.8753   20.9914 N   0  0  0  0  0  0  0  0  0  0  0  0
  -15.6017    2.4062   20.1552 H   0  0  0  0  0  0  0  0  0  0  0  0
  -13.9363    5.7871   23.6843 C   0  0  0  0  0  0  0  0  0  0  0  0
  -11.5794    5.1618   23.8912 C   0  0  0  0  0  0  0  0  0  0  0  0
  -10.5757    4.6957   24.5163 O   0  0  0  0  0  0  0  0  0  0  0  0
  -11.4558    5.6605   22.4613 C   0  0  0  0  0  0  0  0  0  0  0  0
  -12.8069    5.2370   24.4146 N   0  0  0  0  0  0  0  0  0  0  0  0
  -12.9515    4.9069   25.3307 H   0  0  0  0  0  0  0  0  0  0  0  0
  9 10  2  0  0  0
  9 11  1  0  0  0
  9 12  1  0  0  0
 12  8  1  0  0  0
  8  1  1  0  0  0
  1  2  1  0  0  0
  2  3  2  0  0  0
  2  4  1  0  0  0
  3  6  1  0  0  0
  4  5  2  0  0  0
  5  6  1  0  0  0
 12 13  1  0  0  0
  6  7  1  0  0  0
M  END
> <minimizedAffinity>
-4.50025

$$$$
