3RF5_FUZ_A_202


 18 19  0  0  0  0  0  0  0  0999 V2000
   21.4711  -18.4267   32.0941 C   0  0  0  0  0  0  0  0  0  0  0  0
   21.8396  -19.2305   33.1837 C   0  0  0  0  0  0  0  0  0  0  0  0
   22.2881  -18.3476   30.9570 C   0  0  0  0  0  0  0  0  0  0  0  0
   23.0626  -19.9380   33.1365 C   0  0  0  0  0  0  0  0  0  0  0  0
   23.4891  -19.0523   30.8793 C   0  0  0  0  0  0  0  0  0  0  0  0
   23.8822  -19.8372   31.9821 C   0  0  0  0  0  0  0  0  0  0  0  0
   26.2473  -20.0171   31.5080 O   0  0  0  0  0  0  0  0  0  0  0  0
   25.2067  -21.8367   32.2801 O   0  0  0  0  0  0  0  0  0  0  0  0
   25.2300  -20.6282   31.9220 C   0  0  0  0  0  0  0  0  0  0  0  0
   24.4060  -22.2217   32.5780 H   0  0  0  0  0  0  0  0  0  0  0  0
   24.2826  -18.9694   29.7800 N   0  0  0  0  0  0  0  0  0  0  0  0
   24.8880  -19.7128   29.5564 H   0  0  0  0  0  0  0  0  0  0  0  0
   24.2420  -17.7520   28.9048 C   0  0  0  0  0  0  0  0  0  0  0  0
   22.3459  -18.1068   25.7531 C   0  0  0  0  0  0  0  0  0  0  0  0
   23.4388  -18.7965   25.4169 C   0  0  0  0  0  0  0  0  0  0  0  0
   22.4861  -17.6595   27.0228 C   0  0  0  0  0  0  0  0  0  0  0  0
   24.3386  -18.7832   26.5236 O   0  0  0  0  0  0  0  0  0  0  0  0
   23.6663  -18.0583   27.5081 C   0  0  0  0  0  0  0  0  0  0  0  0
  7  9  2  0  0  0
  9  8  1  0  0  0
  3  1  2  0  0  0
  1  2  1  0  0  0
  4  2  2  0  0  0
 14 15  2  0  0  0
 14 16  1  0  0  0
 15 17  1  0  0  0
 16 18  2  0  0  0
  5  3  1  0  0  0
  6  4  1  0  0  0
 18 13  1  0  0  0
 13 11  1  0  0  0
 11  5  1  0  0  0
 17 18  1  0  0  0
  9  6  1  0  0  0
  5  6  2  0  0  0
  8 10  1  0  0  0
 11 12  1  0  0  0
M  END
> <minimizedAffinity>
-7.25671

$$$$
3RF5_FUZ_A_202


 18 19  0  0  0  0  0  0  0  0999 V2000
   20.2292  -18.9808   32.4137 C   0  0  0  0  0  0  0  0  0  0  0  0
   20.6551  -20.2297   32.8911 C   0  0  0  0  0  0  0  0  0  0  0  0
   21.0766  -18.1927   31.6217 C   0  0  0  0  0  0  0  0  0  0  0  0
   21.9633  -20.6735   32.5907 C   0  0  0  0  0  0  0  0  0  0  0  0
   22.3640  -18.6185   31.2955 C   0  0  0  0  0  0  0  0  0  0  0  0
   22.8111  -19.8575   31.7972 C   0  0  0  0  0  0  0  0  0  0  0  0
   24.9272  -20.8764   32.3759 O   0  0  0  0  0  0  0  0  0  0  0  0
   24.6583  -20.1764   30.2717 O   0  0  0  0  0  0  0  0  0  0  0  0
   24.2547  -20.3511   31.4532 C   0  0  0  0  0  0  0  0  0  0  0  0
   24.0954  -19.7760   29.6386 H   0  0  0  0  0  0  0  0  0  0  0  0
   23.1861  -17.8509   30.5340 N   0  0  0  0  0  0  0  0  0  0  0  0
   24.1572  -17.8654   30.6951 H   0  0  0  0  0  0  0  0  0  0  0  0
   22.6234  -16.9815   29.4491 C   0  0  0  0  0  0  0  0  0  0  0  0
   23.8298  -18.5399   26.3234 C   0  0  0  0  0  0  0  0  0  0  0  0
   22.5819  -18.2531   25.9445 C   0  0  0  0  0  0  0  0  0  0  0  0
   24.0048  -18.1227   27.5990 C   0  0  0  0  0  0  0  0  0  0  0  0
   21.9108  -17.6291   27.0376 O   0  0  0  0  0  0  0  0  0  0  0  0
   22.8737  -17.5670   28.0453 C   0  0  0  0  0  0  0  0  0  0  0  0
  7  9  2  0  0  0
  9  8  1  0  0  0
  3  1  2  0  0  0
  1  2  1  0  0  0
  4  2  2  0  0  0
 14 15  2  0  0  0
 14 16  1  0  0  0
 15 17  1  0  0  0
 16 18  2  0  0  0
  5  3  1  0  0  0
  6  4  1  0  0  0
 18 13  1  0  0  0
 13 11  1  0  0  0
 11  5  1  0  0  0
 17 18  1  0  0  0
  9  6  1  0  0  0
  5  6  2  0  0  0
  8 10  1  0  0  0
 11 12  1  0  0  0
M  END
> <minimizedAffinity>
-6.44343

$$$$
3RF5_FUZ_A_202


 18 19  0  0  0  0  0  0  0  0999 V2000
   22.8172  -17.3152   28.8005 C   0  0  0  0  0  0  0  0  0  0  0  0
   23.8265  -18.1733   28.3380 C   0  0  0  0  0  0  0  0  0  0  0  0
   22.3440  -17.4143   30.1169 C   0  0  0  0  0  0  0  0  0  0  0  0
   24.3416  -19.1633   29.2058 C   0  0  0  0  0  0  0  0  0  0  0  0
   22.8511  -18.3697   30.9974 C   0  0  0  0  0  0  0  0  0  0  0  0
   23.8427  -19.2563   30.5313 C   0  0  0  0  0  0  0  0  0  0  0  0
   25.6688  -20.4277   31.6011 O   0  0  0  0  0  0  0  0  0  0  0  0
   23.5905  -21.0760   32.1018 O   0  0  0  0  0  0  0  0  0  0  0  0
   24.4190  -20.3427   31.4975 C   0  0  0  0  0  0  0  0  0  0  0  0
   22.6712  -20.9500   31.9716 H   0  0  0  0  0  0  0  0  0  0  0  0
   22.3869  -18.4689   32.2700 N   0  0  0  0  0  0  0  0  0  0  0  0
   23.0225  -18.5383   33.0187 H   0  0  0  0  0  0  0  0  0  0  0  0
   20.9119  -18.4733   32.5418 C   0  0  0  0  0  0  0  0  0  0  0  0
   19.0510  -21.6336   32.9928 C   0  0  0  0  0  0  0  0  0  0  0  0
   20.2566  -22.0429   33.3959 C   0  0  0  0  0  0  0  0  0  0  0  0
   19.1267  -20.3267   32.6495 C   0  0  0  0  0  0  0  0  0  0  0  0
   21.1622  -20.9456   33.2953 O   0  0  0  0  0  0  0  0  0  0  0  0
   20.3774  -19.8902   32.8296 C   0  0  0  0  0  0  0  0  0  0  0  0
  7  9  2  0  0  0
  9  8  1  0  0  0
  3  1  2  0  0  0
  1  2  1  0  0  0
  4  2  2  0  0  0
 14 15  2  0  0  0
 14 16  1  0  0  0
 15 17  1  0  0  0
 16 18  2  0  0  0
  5  3  1  0  0  0
  6  4  1  0  0  0
 18 13  1  0  0  0
 13 11  1  0  0  0
 11  5  1  0  0  0
 17 18  1  0  0  0
  9  6  1  0  0  0
  5  6  2  0  0  0
  8 10  1  0  0  0
 11 12  1  0  0  0
M  END
> <minimizedAffinity>
-6.12078

$$$$
3RF5_FUZ_A_202


 18 19  0  0  0  0  0  0  0  0999 V2000
   22.9527  -17.3778   28.6368 C   0  0  0  0  0  0  0  0  0  0  0  0
   23.8748  -18.3887   28.3258 C   0  0  0  0  0  0  0  0  0  0  0  0
   22.3402  -17.3338   29.8976 C   0  0  0  0  0  0  0  0  0  0  0  0
   24.1578  -19.3843   29.2888 C   0  0  0  0  0  0  0  0  0  0  0  0
   22.6189  -18.2933   30.8706 C   0  0  0  0  0  0  0  0  0  0  0  0
   23.5200  -19.3302   30.5555 C   0  0  0  0  0  0  0  0  0  0  0  0
   25.0185  -20.4894   32.0595 O   0  0  0  0  0  0  0  0  0  0  0  0
   22.8958  -21.1807   31.9793 O   0  0  0  0  0  0  0  0  0  0  0  0
   23.8401  -20.4234   31.6272 C   0  0  0  0  0  0  0  0  0  0  0  0
   22.0421  -21.0679   31.6100 H   0  0  0  0  0  0  0  0  0  0  0  0
   22.0196  -18.2531   32.0889 N   0  0  0  0  0  0  0  0  0  0  0  0
   22.5397  -17.9871   32.8814 H   0  0  0  0  0  0  0  0  0  0  0  0
   20.5705  -18.6115   32.2342 C   0  0  0  0  0  0  0  0  0  0  0  0
   18.6653  -15.4472   32.3402 C   0  0  0  0  0  0  0  0  0  0  0  0
   18.2698  -15.9671   33.5049 C   0  0  0  0  0  0  0  0  0  0  0  0
   19.5291  -16.3061   31.7504 C   0  0  0  0  0  0  0  0  0  0  0  0
   18.9015  -17.2352   33.6704 O   0  0  0  0  0  0  0  0  0  0  0  0
   19.6931  -17.3793   32.5305 C   0  0  0  0  0  0  0  0  0  0  0  0
  7  9  2  0  0  0
  9  8  1  0  0  0
  3  1  2  0  0  0
  1  2  1  0  0  0
  4  2  2  0  0  0
 14 15  2  0  0  0
 14 16  1  0  0  0
 15 17  1  0  0  0
 16 18  2  0  0  0
  5  3  1  0  0  0
  6  4  1  0  0  0
 18 13  1  0  0  0
 13 11  1  0  0  0
 11  5  1  0  0  0
 17 18  1  0  0  0
  9  6  1  0  0  0
  5  6  2  0  0  0
  8 10  1  0  0  0
 11 12  1  0  0  0
M  END
> <minimizedAffinity>
-5.81351

$$$$
3RF5_FUZ_A_202


 18 19  0  0  0  0  0  0  0  0999 V2000
   23.2083  -19.8359   32.4494 C   0  0  0  0  0  0  0  0  0  0  0  0
   22.2021  -19.7875   33.4263 C   0  0  0  0  0  0  0  0  0  0  0  0
   23.1385  -19.0189   31.3118 C   0  0  0  0  0  0  0  0  0  0  0  0
   21.0972  -18.9263   33.2363 C   0  0  0  0  0  0  0  0  0  0  0  0
   22.0685  -18.1468   31.1127 C   0  0  0  0  0  0  0  0  0  0  0  0
   21.0377  -18.1149   32.0734 C   0  0  0  0  0  0  0  0  0  0  0  0
   20.0682  -15.9333   31.6835 O   0  0  0  0  0  0  0  0  0  0  0  0
   18.6696  -17.6602   31.9106 O   0  0  0  0  0  0  0  0  0  0  0  0
   19.8226  -17.1523   31.8663 C   0  0  0  0  0  0  0  0  0  0  0  0
   18.5683  -18.5810   32.0512 H   0  0  0  0  0  0  0  0  0  0  0  0
   21.9990  -17.3610   30.0069 N   0  0  0  0  0  0  0  0  0  0  0  0
   21.1256  -17.0289   29.6969 H   0  0  0  0  0  0  0  0  0  0  0  0
   23.2447  -16.9962   29.2555 C   0  0  0  0  0  0  0  0  0  0  0  0
   22.7893  -18.3537   25.8491 C   0  0  0  0  0  0  0  0  0  0  0  0
   24.0295  -18.7904   26.0828 C   0  0  0  0  0  0  0  0  0  0  0  0
   22.3540  -17.6754   26.9363 C   0  0  0  0  0  0  0  0  0  0  0  0
   24.4210  -18.3603   27.3852 O   0  0  0  0  0  0  0  0  0  0  0  0
   23.3089  -17.6726   27.8719 C   0  0  0  0  0  0  0  0  0  0  0  0
  7  9  2  0  0  0
  9  8  1  0  0  0
  3  1  2  0  0  0
  1  2  1  0  0  0
  4  2  2  0  0  0
 14 15  2  0  0  0
 14 16  1  0  0  0
 15 17  1  0  0  0
 16 18  2  0  0  0
  5  3  1  0  0  0
  6  4  1  0  0  0
 18 13  1  0  0  0
 13 11  1  0  0  0
 11  5  1  0  0  0
 17 18  1  0  0  0
  9  6  1  0  0  0
  5  6  2  0  0  0
  8 10  1  0  0  0
 11 12  1  0  0  0
M  END
> <minimizedAffinity>
-5.81192

$$$$
3RF5_FUZ_A_202


 18 19  0  0  0  0  0  0  0  0999 V2000
   23.1763  -19.9521   32.9163 C   0  0  0  0  0  0  0  0  0  0  0  0
   24.1681  -20.3285   31.9977 C   0  0  0  0  0  0  0  0  0  0  0  0
   22.2161  -18.9887   32.5750 C   0  0  0  0  0  0  0  0  0  0  0  0
   24.2089  -19.7017   30.7312 C   0  0  0  0  0  0  0  0  0  0  0  0
   22.2240  -18.3715   31.3244 C   0  0  0  0  0  0  0  0  0  0  0  0
   23.2357  -18.7207   30.4073 C   0  0  0  0  0  0  0  0  0  0  0  0
   23.3652  -16.7813   28.9674 O   0  0  0  0  0  0  0  0  0  0  0  0
   23.1876  -18.7829   27.9917 O   0  0  0  0  0  0  0  0  0  0  0  0
   23.2710  -18.0342   29.0025 C   0  0  0  0  0  0  0  0  0  0  0  0
   23.1200  -19.7111   28.1005 H   0  0  0  0  0  0  0  0  0  0  0  0
   21.2973  -17.4336   30.9979 N   0  0  0  0  0  0  0  0  0  0  0  0
   21.4120  -16.8961   30.1811 H   0  0  0  0  0  0  0  0  0  0  0  0
   20.1004  -17.2120   31.8741 C   0  0  0  0  0  0  0  0  0  0  0  0
   18.5972  -13.9886   30.8720 C   0  0  0  0  0  0  0  0  0  0  0  0
   17.5752  -14.7955   30.5760 C   0  0  0  0  0  0  0  0  0  0  0  0
   19.6101  -14.7337   31.3726 C   0  0  0  0  0  0  0  0  0  0  0  0
   17.9525  -16.1348   30.8897 O   0  0  0  0  0  0  0  0  0  0  0  0
   19.2456  -16.0197   31.4010 C   0  0  0  0  0  0  0  0  0  0  0  0
  7  9  2  0  0  0
  9  8  1  0  0  0
  3  1  2  0  0  0
  1  2  1  0  0  0
  4  2  2  0  0  0
 14 15  2  0  0  0
 14 16  1  0  0  0
 15 17  1  0  0  0
 16 18  2  0  0  0
  5  3  1  0  0  0
  6  4  1  0  0  0
 18 13  1  0  0  0
 13 11  1  0  0  0
 11  5  1  0  0  0
 17 18  1  0  0  0
  9  6  1  0  0  0
  5  6  2  0  0  0
  8 10  1  0  0  0
 11 12  1  0  0  0
M  END
> <minimizedAffinity>
-5.59071

$$$$
3RF5_FUZ_A_202


 18 19  0  0  0  0  0  0  0  0999 V2000
   20.4988  -19.5874   34.1001 C   0  0  0  0  0  0  0  0  0  0  0  0
   19.3651  -18.8554   34.4848 C   0  0  0  0  0  0  0  0  0  0  0  0
   21.2470  -19.2065   32.9769 C   0  0  0  0  0  0  0  0  0  0  0  0
   18.9650  -17.7443   33.7076 C   0  0  0  0  0  0  0  0  0  0  0  0
   20.8834  -18.1022   32.2066 C   0  0  0  0  0  0  0  0  0  0  0  0
   19.7279  -17.3802   32.5675 C   0  0  0  0  0  0  0  0  0  0  0  0
   18.8235  -16.3627   30.5680 O   0  0  0  0  0  0  0  0  0  0  0  0
   19.4600  -15.0031   32.2223 O   0  0  0  0  0  0  0  0  0  0  0  0
   19.2947  -16.1443   31.7126 C   0  0  0  0  0  0  0  0  0  0  0  0
   19.8184  -14.9225   33.0843 H   0  0  0  0  0  0  0  0  0  0  0  0
   21.6053  -17.7385   31.1150 N   0  0  0  0  0  0  0  0  0  0  0  0
   21.3481  -16.9381   30.6027 H   0  0  0  0  0  0  0  0  0  0  0  0
   22.7918  -18.5490   30.6853 C   0  0  0  0  0  0  0  0  0  0  0  0
   23.2580  -17.4553   27.1866 C   0  0  0  0  0  0  0  0  0  0  0  0
   24.0566  -18.5256   27.1780 C   0  0  0  0  0  0  0  0  0  0  0  0
   22.7069  -17.3326   28.4166 C   0  0  0  0  0  0  0  0  0  0  0  0
   24.0301  -19.1184   28.4750 O   0  0  0  0  0  0  0  0  0  0  0  0
   23.1467  -18.3205   29.2027 C   0  0  0  0  0  0  0  0  0  0  0  0
  7  9  2  0  0  0
  9  8  1  0  0  0
  3  1  2  0  0  0
  1  2  1  0  0  0
  4  2  2  0  0  0
 14 15  2  0  0  0
 14 16  1  0  0  0
 15 17  1  0  0  0
 16 18  2  0  0  0
  5  3  1  0  0  0
  6  4  1  0  0  0
 18 13  1  0  0  0
 13 11  1  0  0  0
 11  5  1  0  0  0
 17 18  1  0  0  0
  9  6  1  0  0  0
  5  6  2  0  0  0
  8 10  1  0  0  0
 11 12  1  0  0  0
M  END
> <minimizedAffinity>
-5.18852

$$$$
3RF5_FUZ_A_202


 18 19  0  0  0  0  0  0  0  0999 V2000
   22.6124  -17.1468   29.4763 C   0  0  0  0  0  0  0  0  0  0  0  0
   23.9418  -17.3855   29.0958 C   0  0  0  0  0  0  0  0  0  0  0  0
   22.0328  -17.8637   30.5331 C   0  0  0  0  0  0  0  0  0  0  0  0
   24.6841  -18.3818   29.7703 C   0  0  0  0  0  0  0  0  0  0  0  0
   22.7518  -18.8370   31.2264 C   0  0  0  0  0  0  0  0  0  0  0  0
   24.0776  -19.1053   30.8300 C   0  0  0  0  0  0  0  0  0  0  0  0
   24.2674  -21.1640   32.0858 O   0  0  0  0  0  0  0  0  0  0  0  0
   26.1480  -20.0367   31.6589 O   0  0  0  0  0  0  0  0  0  0  0  0
   24.9001  -20.1998   31.5861 C   0  0  0  0  0  0  0  0  0  0  0  0
   26.5469  -19.2891   31.2589 H   0  0  0  0  0  0  0  0  0  0  0  0
   22.1869  -19.5353   32.2453 N   0  0  0  0  0  0  0  0  0  0  0  0
   22.0190  -20.5000   32.1433 H   0  0  0  0  0  0  0  0  0  0  0  0
   21.8172  -18.8457   33.5248 C   0  0  0  0  0  0  0  0  0  0  0  0
   21.5207  -20.9082   36.5764 C   0  0  0  0  0  0  0  0  0  0  0  0
   20.5611  -21.4802   35.8448 C   0  0  0  0  0  0  0  0  0  0  0  0
   22.0884  -19.9162   35.8517 C   0  0  0  0  0  0  0  0  0  0  0  0
   20.4966  -20.8139   34.5853 O   0  0  0  0  0  0  0  0  0  0  0  0
   21.4987  -19.8456   34.6539 C   0  0  0  0  0  0  0  0  0  0  0  0
  7  9  2  0  0  0
  9  8  1  0  0  0
  3  1  2  0  0  0
  1  2  1  0  0  0
  4  2  2  0  0  0
 14 15  2  0  0  0
 14 16  1  0  0  0
 15 17  1  0  0  0
 16 18  2  0  0  0
  5  3  1  0  0  0
  6  4  1  0  0  0
 18 13  1  0  0  0
 13 11  1  0  0  0
 11  5  1  0  0  0
 17 18  1  0  0  0
  9  6  1  0  0  0
  5  6  2  0  0  0
  8 10  1  0  0  0
 11 12  1  0  0  0
M  END
> <minimizedAffinity>
-5.07424

$$$$
3RF5_FUZ_A_202


 18 19  0  0  0  0  0  0  0  0999 V2000
   22.0181  -19.2454   35.5184 C   0  0  0  0  0  0  0  0  0  0  0  0
   20.6952  -18.9467   35.8786 C   0  0  0  0  0  0  0  0  0  0  0  0
   22.3170  -19.7273   34.2358 C   0  0  0  0  0  0  0  0  0  0  0  0
   19.6589  -19.1668   34.9427 C   0  0  0  0  0  0  0  0  0  0  0  0
   21.3139  -19.9332   33.2890 C   0  0  0  0  0  0  0  0  0  0  0  0
   19.9787  -19.6657   33.6531 C   0  0  0  0  0  0  0  0  0  0  0  0
   18.5520  -21.0863   32.3124 O   0  0  0  0  0  0  0  0  0  0  0  0
   18.2801  -18.8770   32.1253 O   0  0  0  0  0  0  0  0  0  0  0  0
   18.8358  -19.8990   32.6113 C   0  0  0  0  0  0  0  0  0  0  0  0
   18.5486  -18.0224   32.4001 H   0  0  0  0  0  0  0  0  0  0  0  0
   21.6042  -20.4065   32.0493 N   0  0  0  0  0  0  0  0  0  0  0  0
   20.8810  -20.7434   31.4725 H   0  0  0  0  0  0  0  0  0  0  0  0
   23.0198  -20.4189   31.5540 C   0  0  0  0  0  0  0  0  0  0  0  0
   23.2484  -17.5019   29.2972 C   0  0  0  0  0  0  0  0  0  0  0  0
   23.9712  -18.3715   28.5867 C   0  0  0  0  0  0  0  0  0  0  0  0
   22.8164  -18.1129   30.4249 C   0  0  0  0  0  0  0  0  0  0  0  0
   24.0196  -19.6061   29.2995 O   0  0  0  0  0  0  0  0  0  0  0  0
   23.2576  -19.3748   30.4452 C   0  0  0  0  0  0  0  0  0  0  0  0
  7  9  2  0  0  0
  9  8  1  0  0  0
  3  1  2  0  0  0
  1  2  1  0  0  0
  4  2  2  0  0  0
 14 15  2  0  0  0
 14 16  1  0  0  0
 15 17  1  0  0  0
 16 18  2  0  0  0
  5  3  1  0  0  0
  6  4  1  0  0  0
 18 13  1  0  0  0
 13 11  1  0  0  0
 11  5  1  0  0  0
 17 18  1  0  0  0
  9  6  1  0  0  0
  5  6  2  0  0  0
  8 10  1  0  0  0
 11 12  1  0  0  0
M  END
> <minimizedAffinity>
-5.03706

$$$$
3RF5_FUZ_A_202


 18 19  0  0  0  0  0  0  0  0999 V2000
   24.6180  -20.2643   32.0308 C   0  0  0  0  0  0  0  0  0  0  0  0
   25.3118  -19.5606   31.0346 C   0  0  0  0  0  0  0  0  0  0  0  0
   23.2469  -20.0502   32.2324 C   0  0  0  0  0  0  0  0  0  0  0  0
   24.6189  -18.6071   30.2540 C   0  0  0  0  0  0  0  0  0  0  0  0
   22.5379  -19.1295   31.4612 C   0  0  0  0  0  0  0  0  0  0  0  0
   23.2338  -18.3955   30.4796 C   0  0  0  0  0  0  0  0  0  0  0  0
   21.6597  -16.5808   30.1965 O   0  0  0  0  0  0  0  0  0  0  0  0
   22.6835  -17.3554   28.3685 O   0  0  0  0  0  0  0  0  0  0  0  0
   22.4619  -17.3500   29.6095 C   0  0  0  0  0  0  0  0  0  0  0  0
   23.2985  -17.9618   28.0050 H   0  0  0  0  0  0  0  0  0  0  0  0
   21.2113  -18.9184   31.6622 N   0  0  0  0  0  0  0  0  0  0  0  0
   20.6091  -18.8185   30.8897 H   0  0  0  0  0  0  0  0  0  0  0  0
   20.6581  -18.8364   33.0539 C   0  0  0  0  0  0  0  0  0  0  0  0
   18.2811  -21.6600   33.2304 C   0  0  0  0  0  0  0  0  0  0  0  0
   18.7936  -21.7426   34.4607 C   0  0  0  0  0  0  0  0  0  0  0  0
   18.8650  -20.6244   32.5836 C   0  0  0  0  0  0  0  0  0  0  0  0
   19.7700  -20.7139   34.6125 O   0  0  0  0  0  0  0  0  0  0  0  0
   19.7532  -20.0375   33.3922 C   0  0  0  0  0  0  0  0  0  0  0  0
  7  9  2  0  0  0
  9  8  1  0  0  0
  3  1  2  0  0  0
  1  2  1  0  0  0
  4  2  2  0  0  0
 14 15  2  0  0  0
 14 16  1  0  0  0
 15 17  1  0  0  0
 16 18  2  0  0  0
  5  3  1  0  0  0
  6  4  1  0  0  0
 18 13  1  0  0  0
 13 11  1  0  0  0
 11  5  1  0  0  0
 17 18  1  0  0  0
  9  6  1  0  0  0
  5  6  2  0  0  0
  8 10  1  0  0  0
 11 12  1  0  0  0
M  END
> <minimizedAffinity>
-4.67147

$$$$
