1NLI_ADE_A_248


 13 14  0  0  0  0  0  0  0  0999 V2000
    4.8125   32.4360    0.1271 N   0  0  0  0  0  0  0  0  0  0  0  0
    3.5590   32.4129   -0.4383 C   0  0  0  0  0  0  0  0  0  0  0  0
    2.9852   33.6020   -0.5908 N   0  0  0  0  0  0  0  0  0  0  0  0
    3.9470   34.4698   -0.0863 C   0  0  0  0  0  0  0  0  0  0  0  0
    3.9768   35.8697   -0.0097 C   0  0  0  0  0  0  0  0  0  0  0  0
    2.8950   36.5812   -0.3963 N   0  0  0  0  0  0  0  0  0  0  0  0
    5.1044   36.4563    0.4983 N   0  0  0  0  0  0  0  0  0  0  0  0
    6.0970   35.6410    0.8971 C   0  0  0  0  0  0  0  0  0  0  0  0
    6.1441   34.2890    0.8707 N   0  0  0  0  0  0  0  0  0  0  0  0
    5.0649   33.7621    0.3564 C   0  0  0  0  0  0  0  0  0  0  0  0
    5.3982   31.6694    0.3234 H   0  0  0  0  0  0  0  0  0  0  0  0
    2.1044   36.1183   -0.7565 H   0  0  0  0  0  0  0  0  0  0  0  0
    2.8976   37.5626   -0.3177 H   0  0  0  0  0  0  0  0  0  0  0  0
  1  2  1  0  0  0
  1 10  1  0  0  0
  2  3  2  0  0  0
  3  4  1  0  0  0
  4  5  1  0  0  0
  4 10  2  0  0  0
  5  6  1  0  0  0
  5  7  2  0  0  0
  7  8  1  0  0  0
  8  9  2  0  0  0
  9 10  1  0  0  0
  1 11  1  0  0  0
  6 12  1  0  0  0
  6 13  1  0  0  0
M  END
> <minimizedAffinity>
-4.98010

$$$$
1NLI_ADE_A_248


 13 14  0  0  0  0  0  0  0  0999 V2000
    4.7422   29.3531    0.8514 N   0  0  0  0  0  0  0  0  0  0  0  0
    5.7345   30.2938    0.7028 C   0  0  0  0  0  0  0  0  0  0  0  0
    5.3270   31.4820    0.2683 N   0  0  0  0  0  0  0  0  0  0  0  0
    3.9561   31.2993    0.1266 C   0  0  0  0  0  0  0  0  0  0  0  0
    2.9406   32.1914   -0.2466 C   0  0  0  0  0  0  0  0  0  0  0  0
    3.2636   33.4466   -0.6287 N   0  0  0  0  0  0  0  0  0  0  0  0
    1.6525   31.7281   -0.2433 N   0  0  0  0  0  0  0  0  0  0  0  0
    1.4602   30.4443    0.1082 C   0  0  0  0  0  0  0  0  0  0  0  0
    2.3791   29.5180    0.4667 N   0  0  0  0  0  0  0  0  0  0  0  0
    3.5938   29.9990    0.4791 C   0  0  0  0  0  0  0  0  0  0  0  0
    4.8368   28.4222    1.1575 H   0  0  0  0  0  0  0  0  0  0  0  0
    4.2038   33.7385   -0.6157 H   0  0  0  0  0  0  0  0  0  0  0  0
    2.5589   34.0691   -0.9202 H   0  0  0  0  0  0  0  0  0  0  0  0
  1  2  1  0  0  0
  1 10  1  0  0  0
  2  3  2  0  0  0
  3  4  1  0  0  0
  4  5  1  0  0  0
  4 10  2  0  0  0
  5  6  1  0  0  0
  5  7  2  0  0  0
  7  8  1  0  0  0
  8  9  2  0  0  0
  9 10  1  0  0  0
  1 11  1  0  0  0
  6 12  1  0  0  0
  6 13  1  0  0  0
M  END
> <minimizedAffinity>
-4.62631

$$$$
1NLI_ADE_A_248


 13 14  0  0  0  0  0  0  0  0999 V2000
    2.1584   29.5945    0.5479 N   0  0  0  0  0  0  0  0  0  0  0  0
    1.1403   30.3835    0.0659 C   0  0  0  0  0  0  0  0  0  0  0  0
    1.5023   31.6047   -0.3136 N   0  0  0  0  0  0  0  0  0  0  0  0
    2.8694   31.6082   -0.0608 C   0  0  0  0  0  0  0  0  0  0  0  0
    3.8479   32.5852   -0.2938 C   0  0  0  0  0  0  0  0  0  0  0  0
    3.4810   33.7950   -0.7712 N   0  0  0  0  0  0  0  0  0  0  0  0
    5.1447   32.2748    0.0154 N   0  0  0  0  0  0  0  0  0  0  0  0
    5.3803   31.0555    0.5318 C   0  0  0  0  0  0  0  0  0  0  0  0
    4.4983   30.0648    0.7994 N   0  0  0  0  0  0  0  0  0  0  0  0
    3.2752   30.3827    0.4684 C   0  0  0  0  0  0  0  0  0  0  0  0
    2.0978   28.6686    0.8771 H   0  0  0  0  0  0  0  0  0  0  0  0
    2.5362   33.9756   -0.9807 H   0  0  0  0  0  0  0  0  0  0  0  0
    4.1586   34.4957   -0.9094 H   0  0  0  0  0  0  0  0  0  0  0  0
  1  2  1  0  0  0
  1 10  1  0  0  0
  2  3  2  0  0  0
  3  4  1  0  0  0
  4  5  1  0  0  0
  4 10  2  0  0  0
  5  6  1  0  0  0
  5  7  2  0  0  0
  7  8  1  0  0  0
  8  9  2  0  0  0
  9 10  1  0  0  0
  1 11  1  0  0  0
  6 12  1  0  0  0
  6 13  1  0  0  0
M  END
> <minimizedAffinity>
-4.60869

$$$$
1NLI_ADE_A_248


 13 14  0  0  0  0  0  0  0  0999 V2000
    3.1343   33.3652   -0.5982 N   0  0  0  0  0  0  0  0  0  0  0  0
    4.4970   33.4919   -0.4622 C   0  0  0  0  0  0  0  0  0  0  0  0
    5.1230   32.4114   -0.0071 N   0  0  0  0  0  0  0  0  0  0  0  0
    4.0813   31.5065    0.1628 C   0  0  0  0  0  0  0  0  0  0  0  0
    4.0829   30.1637    0.5670 C   0  0  0  0  0  0  0  0  0  0  0  0
    5.2414   29.5859    0.9542 N   0  0  0  0  0  0  0  0  0  0  0  0
    2.8843   29.5030    0.5875 N   0  0  0  0  0  0  0  0  0  0  0  0
    1.7909   30.1985    0.2278 C   0  0  0  0  0  0  0  0  0  0  0  0
    1.6999   31.4917   -0.1600 N   0  0  0  0  0  0  0  0  0  0  0  0
    2.8632   32.0853   -0.1944 C   0  0  0  0  0  0  0  0  0  0  0  0
    2.4956   34.0440   -0.9154 H   0  0  0  0  0  0  0  0  0  0  0  0
    6.0815   30.0983    0.9234 H   0  0  0  0  0  0  0  0  0  0  0  0
    5.2454   28.6525    1.2673 H   0  0  0  0  0  0  0  0  0  0  0  0
  1  2  1  0  0  0
  1 10  1  0  0  0
  2  3  2  0  0  0
  3  4  1  0  0  0
  4  5  1  0  0  0
  4 10  2  0  0  0
  5  6  1  0  0  0
  5  7  2  0  0  0
  7  8  1  0  0  0
  8  9  2  0  0  0
  9 10  1  0  0  0
  1 11  1  0  0  0
  6 12  1  0  0  0
  6 13  1  0  0  0
M  END
> <minimizedAffinity>
-4.60105

$$$$
1NLI_ADE_A_248


 13 14  0  0  0  0  0  0  0  0999 V2000
    5.0743   29.2954    0.8665 N   0  0  0  0  0  0  0  0  0  0  0  0
    3.7928   28.8212    1.0225 C   0  0  0  0  0  0  0  0  0  0  0  0
    2.8292   29.6914    0.7382 N   0  0  0  0  0  0  0  0  0  0  0  0
    3.5438   30.8233    0.3627 C   0  0  0  0  0  0  0  0  0  0  0  0
    3.1127   32.0732   -0.1044 C   0  0  0  0  0  0  0  0  0  0  0  0
    1.7900   32.3446   -0.1576 N   0  0  0  0  0  0  0  0  0  0  0  0
    4.0695   32.9878   -0.4530 N   0  0  0  0  0  0  0  0  0  0  0  0
    5.3552   32.6200   -0.3095 C   0  0  0  0  0  0  0  0  0  0  0  0
    5.8544   31.4467    0.1435 N   0  0  0  0  0  0  0  0  0  0  0  0
    4.9166   30.5875    0.4420 C   0  0  0  0  0  0  0  0  0  0  0  0
    5.9178   28.8129    1.0249 H   0  0  0  0  0  0  0  0  0  0  0  0
    1.1355   31.6567    0.1025 H   0  0  0  0  0  0  0  0  0  0  0  0
    1.4808   33.2302   -0.4565 H   0  0  0  0  0  0  0  0  0  0  0  0
  1  2  1  0  0  0
  1 10  1  0  0  0
  2  3  2  0  0  0
  3  4  1  0  0  0
  4  5  1  0  0  0
  4 10  2  0  0  0
  5  6  1  0  0  0
  5  7  2  0  0  0
  7  8  1  0  0  0
  8  9  2  0  0  0
  9 10  1  0  0  0
  1 11  1  0  0  0
  6 12  1  0  0  0
  6 13  1  0  0  0
M  END
> <minimizedAffinity>
-4.50783

$$$$
1NLI_ADE_A_248


 13 14  0  0  0  0  0  0  0  0999 V2000
    1.7073   30.9287    0.3045 N   0  0  0  0  0  0  0  0  0  0  0  0
    1.8580   29.6543    0.7992 C   0  0  0  0  0  0  0  0  0  0  0  0
    3.1155   29.2526    0.9536 N   0  0  0  0  0  0  0  0  0  0  0  0
    3.8418   30.3588    0.5277 C   0  0  0  0  0  0  0  0  0  0  0  0
    5.2232   30.5973    0.4927 C   0  0  0  0  0  0  0  0  0  0  0  0
    6.0787   29.6104    0.8393 N   0  0  0  0  0  0  0  0  0  0  0  0
    5.6470   31.8264    0.0645 N   0  0  0  0  0  0  0  0  0  0  0  0
    4.7025   32.7108   -0.3021 C   0  0  0  0  0  0  0  0  0  0  0  0
    3.3580   32.5581   -0.3116 N   0  0  0  0  0  0  0  0  0  0  0  0
    2.9859   31.3852    0.1273 C   0  0  0  0  0  0  0  0  0  0  0  0
    0.8667   31.4066    0.1190 H   0  0  0  0  0  0  0  0  0  0  0  0
    5.7304   28.7408    1.1422 H   0  0  0  0  0  0  0  0  0  0  0  0
    7.0503   29.7610    0.7889 H   0  0  0  0  0  0  0  0  0  0  0  0
  1  2  1  0  0  0
  1 10  1  0  0  0
  2  3  2  0  0  0
  3  4  1  0  0  0
  4  5  1  0  0  0
  4 10  2  0  0  0
  5  6  1  0  0  0
  5  7  2  0  0  0
  7  8  1  0  0  0
  8  9  2  0  0  0
  9 10  1  0  0  0
  1 11  1  0  0  0
  6 12  1  0  0  0
  6 13  1  0  0  0
M  END
> <minimizedAffinity>
-4.45200

$$$$
1NLI_ADE_A_248


 13 14  0  0  0  0  0  0  0  0999 V2000
    5.6327   35.4034    0.9336 N   0  0  0  0  0  0  0  0  0  0  0  0
    4.7309   36.2461    0.3267 C   0  0  0  0  0  0  0  0  0  0  0  0
    3.7895   35.6437   -0.3926 N   0  0  0  0  0  0  0  0  0  0  0  0
    4.1032   34.2983   -0.2370 C   0  0  0  0  0  0  0  0  0  0  0  0
    3.4610   33.1418   -0.7023 C   0  0  0  0  0  0  0  0  0  0  0  0
    2.3886   33.2570   -1.5163 N   0  0  0  0  0  0  0  0  0  0  0  0
    3.9837   31.9312   -0.3351 N   0  0  0  0  0  0  0  0  0  0  0  0
    5.0844   31.9439    0.4376 C   0  0  0  0  0  0  0  0  0  0  0  0
    5.7702   33.0075    0.9164 N   0  0  0  0  0  0  0  0  0  0  0  0
    5.2307   34.1459    0.5705 C   0  0  0  0  0  0  0  0  0  0  0  0
    6.3974   35.6497    1.5026 H   0  0  0  0  0  0  0  0  0  0  0  0
    2.0452   34.1482   -1.7550 H   0  0  0  0  0  0  0  0  0  0  0  0
    1.9506   32.4496   -1.8706 H   0  0  0  0  0  0  0  0  0  0  0  0
  1  2  1  0  0  0
  1 10  1  0  0  0
  2  3  2  0  0  0
  3  4  1  0  0  0
  4  5  1  0  0  0
  4 10  2  0  0  0
  5  6  1  0  0  0
  5  7  2  0  0  0
  7  8  1  0  0  0
  8  9  2  0  0  0
  9 10  1  0  0  0
  1 11  1  0  0  0
  6 12  1  0  0  0
  6 13  1  0  0  0
M  END
> <minimizedAffinity>
-4.39121

$$$$
1NLI_ADE_A_248


 13 14  0  0  0  0  0  0  0  0999 V2000
    4.9832   32.9626   -0.0982 N   0  0  0  0  0  0  0  0  0  0  0  0
    3.8188   33.4271   -0.6640 C   0  0  0  0  0  0  0  0  0  0  0  0
    2.7980   32.5764   -0.6366 N   0  0  0  0  0  0  0  0  0  0  0  0
    3.3430   31.4691    0.0034 C   0  0  0  0  0  0  0  0  0  0  0  0
    2.7666   30.2502    0.3887 C   0  0  0  0  0  0  0  0  0  0  0  0
    1.4853   29.9833    0.0525 N   0  0  0  0  0  0  0  0  0  0  0  0
    3.5547   29.3579    1.0643 N   0  0  0  0  0  0  0  0  0  0  0  0
    4.8300   29.7156    1.2977 C   0  0  0  0  0  0  0  0  0  0  0  0
    5.4655   30.8588    0.9511 N   0  0  0  0  0  0  0  0  0  0  0  0
    4.6793   31.6988    0.3322 C   0  0  0  0  0  0  0  0  0  0  0  0
    5.8439   33.4340   -0.0201 H   0  0  0  0  0  0  0  0  0  0  0  0
    0.9540   30.6545   -0.4339 H   0  0  0  0  0  0  0  0  0  0  0  0
    1.0831   29.1178    0.2938 H   0  0  0  0  0  0  0  0  0  0  0  0
  1  2  1  0  0  0
  1 10  1  0  0  0
  2  3  2  0  0  0
  3  4  1  0  0  0
  4  5  1  0  0  0
  4 10  2  0  0  0
  5  6  1  0  0  0
  5  7  2  0  0  0
  7  8  1  0  0  0
  8  9  2  0  0  0
  9 10  1  0  0  0
  1 11  1  0  0  0
  6 12  1  0  0  0
  6 13  1  0  0  0
M  END
> <minimizedAffinity>
-4.30187

$$$$
1NLI_ADE_A_248


 13 14  0  0  0  0  0  0  0  0999 V2000
    2.1931   28.5562    0.7142 N   0  0  0  0  0  0  0  0  0  0  0  0
    0.9994   28.9863    0.1835 C   0  0  0  0  0  0  0  0  0  0  0  0
    0.9845   30.2515   -0.2234 N   0  0  0  0  0  0  0  0  0  0  0  0
    2.2764   30.6775    0.0631 C   0  0  0  0  0  0  0  0  0  0  0  0
    2.9179   31.9015   -0.1748 C   0  0  0  0  0  0  0  0  0  0  0  0
    2.2159   32.9312   -0.6973 N   0  0  0  0  0  0  0  0  0  0  0  0
    4.2368   32.0086    0.1758 N   0  0  0  0  0  0  0  0  0  0  0  0
    4.8155   30.9306    0.7343 C   0  0  0  0  0  0  0  0  0  0  0  0
    4.2690   29.7238    1.0096 N   0  0  0  0  0  0  0  0  0  0  0  0
    3.0186   29.6460    0.6389 C   0  0  0  0  0  0  0  0  0  0  0  0
    2.4066   27.6632    1.0694 H   0  0  0  0  0  0  0  0  0  0  0  0
    1.2684   32.8103   -0.9356 H   0  0  0  0  0  0  0  0  0  0  0  0
    2.6520   33.8023   -0.8396 H   0  0  0  0  0  0  0  0  0  0  0  0
  1  2  1  0  0  0
  1 10  1  0  0  0
  2  3  2  0  0  0
  3  4  1  0  0  0
  4  5  1  0  0  0
  4 10  2  0  0  0
  5  6  1  0  0  0
  5  7  2  0  0  0
  7  8  1  0  0  0
  8  9  2  0  0  0
  9 10  1  0  0  0
  1 11  1  0  0  0
  6 12  1  0  0  0
  6 13  1  0  0  0
M  END
> <minimizedAffinity>
-4.25502

$$$$
1NLI_ADE_A_248


 13 14  0  0  0  0  0  0  0  0999 V2000
    5.4815   30.7455    0.6669 N   0  0  0  0  0  0  0  0  0  0  0  0
    4.9543   29.5912    1.1973 C   0  0  0  0  0  0  0  0  0  0  0  0
    3.6346   29.4722    1.0932 N   0  0  0  0  0  0  0  0  0  0  0  0
    3.2752   30.6442    0.4374 C   0  0  0  0  0  0  0  0  0  0  0  0
    2.0302   31.1016   -0.0179 C   0  0  0  0  0  0  0  0  0  0  0  0
    0.9176   30.3836    0.2511 N   0  0  0  0  0  0  0  0  0  0  0  0
    1.9963   32.2934   -0.6904 N   0  0  0  0  0  0  0  0  0  0  0  0
    3.1628   32.9424   -0.8537 C   0  0  0  0  0  0  0  0  0  0  0  0
    4.3984   32.5805   -0.4372 N   0  0  0  0  0  0  0  0  0  0  0  0
    4.4000   31.4274    0.1770 C   0  0  0  0  0  0  0  0  0  0  0  0
    6.4266   31.0203    0.6445 H   0  0  0  0  0  0  0  0  0  0  0  0
    0.9878   29.5308    0.7379 H   0  0  0  0  0  0  0  0  0  0  0  0
    0.0367   30.7133   -0.0397 H   0  0  0  0  0  0  0  0  0  0  0  0
  1  2  1  0  0  0
  1 10  1  0  0  0
  2  3  2  0  0  0
  3  4  1  0  0  0
  4  5  1  0  0  0
  4 10  2  0  0  0
  5  6  1  0  0  0
  5  7  2  0  0  0
  7  8  1  0  0  0
  8  9  2  0  0  0
  9 10  1  0  0  0
  1 11  1  0  0  0
  6 12  1  0  0  0
  6 13  1  0  0  0
M  END
> <minimizedAffinity>
-4.18263

$$$$
