2BUV_DHB_B_1542


 14 14  0  0  0  0  0  0  0  0999 V2000
   11.9194  -14.1811   40.3926 C   0  0  0  0  0  0  0  0  0  0  0  0
   11.1293  -15.3004   40.1916 C   0  0  0  0  0  0  0  0  0  0  0  0
    9.8996  -15.1816   39.5573 C   0  0  0  0  0  0  0  0  0  0  0  0
    9.1115  -16.3065   39.3589 O   0  0  0  0  0  0  0  0  0  0  0  0
    9.4586  -13.9437   39.1305 C   0  0  0  0  0  0  0  0  0  0  0  0
    8.2332  -13.8306   38.5054 O   0  0  0  0  0  0  0  0  0  0  0  0
   10.2449  -12.8167   39.3303 C   0  0  0  0  0  0  0  0  0  0  0  0
   11.4788  -12.9354   39.9577 C   0  0  0  0  0  0  0  0  0  0  0  0
    9.4113  -17.1456   39.6486 H   0  0  0  0  0  0  0  0  0  0  0  0
    7.7037  -14.5919   38.3712 H   0  0  0  0  0  0  0  0  0  0  0  0
   13.2081  -14.3081   41.0622 C   0  0  0  0  0  0  0  0  0  0  0  0
   14.0089  -15.2101   40.7018 O   0  0  0  0  0  0  0  0  0  0  0  0
   13.5274  -13.5275   42.0019 O   0  0  0  0  0  0  0  0  0  0  0  0
   12.9347  -12.8545   42.2737 H   0  0  0  0  0  0  0  0  0  0  0  0
  1  2  2  0  0  0
  1  8  1  0  0  0
  1 11  1  0  0  0
  2  3  1  0  0  0
  3  4  1  0  0  0
  3  5  2  0  0  0
  5  6  1  0  0  0
  5  7  1  0  0  0
  7  8  2  0  0  0
 11 12  2  0  0  0
 11 13  1  0  0  0
  4  9  1  0  0  0
  6 10  1  0  0  0
 13 14  1  0  0  0
M  END
> <minimizedAffinity>
-6.30734

$$$$
2BUV_DHB_B_1542


 14 14  0  0  0  0  0  0  0  0999 V2000
   12.4880  -13.9099   41.3297 C   0  0  0  0  0  0  0  0  0  0  0  0
   11.3866  -14.0835   42.1509 C   0  0  0  0  0  0  0  0  0  0  0  0
   10.1041  -13.9471   41.6359 C   0  0  0  0  0  0  0  0  0  0  0  0
    9.0037  -14.1215   42.4633 O   0  0  0  0  0  0  0  0  0  0  0  0
    9.9243  -13.6313   40.3029 C   0  0  0  0  0  0  0  0  0  0  0  0
    8.6475  -13.4917   39.7976 O   0  0  0  0  0  0  0  0  0  0  0  0
   11.0243  -13.4541   39.4740 C   0  0  0  0  0  0  0  0  0  0  0  0
   12.3077  -13.5980   39.9862 C   0  0  0  0  0  0  0  0  0  0  0  0
    9.1265  -14.3357   43.3672 H   0  0  0  0  0  0  0  0  0  0  0  0
    7.9062  -13.6116   40.3580 H   0  0  0  0  0  0  0  0  0  0  0  0
   13.8333  -14.0499   41.8738 C   0  0  0  0  0  0  0  0  0  0  0  0
   14.5276  -15.0529   41.5630 O   0  0  0  0  0  0  0  0  0  0  0  0
   14.3071  -13.1797   42.6565 O   0  0  0  0  0  0  0  0  0  0  0  0
   13.7942  -12.4313   42.8909 H   0  0  0  0  0  0  0  0  0  0  0  0
  1  2  2  0  0  0
  1  8  1  0  0  0
  1 11  1  0  0  0
  2  3  1  0  0  0
  3  4  1  0  0  0
  3  5  2  0  0  0
  5  6  1  0  0  0
  5  7  1  0  0  0
  7  8  2  0  0  0
 11 12  2  0  0  0
 11 13  1  0  0  0
  4  9  1  0  0  0
  6 10  1  0  0  0
 13 14  1  0  0  0
M  END
> <minimizedAffinity>
-6.21305

$$$$
2BUV_DHB_B_1542


 14 14  0  0  0  0  0  0  0  0999 V2000
   11.9068  -14.3253   40.4189 C   0  0  0  0  0  0  0  0  0  0  0  0
   11.3896  -13.0883   40.0726 C   0  0  0  0  0  0  0  0  0  0  0  0
   10.1409  -12.9976   39.4716 C   0  0  0  0  0  0  0  0  0  0  0  0
    9.6275  -11.7555   39.1262 O   0  0  0  0  0  0  0  0  0  0  0  0
    9.4139  -14.1434   39.2119 C   0  0  0  0  0  0  0  0  0  0  0  0
    8.1757  -14.0478   38.6095 O   0  0  0  0  0  0  0  0  0  0  0  0
    9.9272  -15.3874   39.5548 C   0  0  0  0  0  0  0  0  0  0  0  0
   11.1728  -15.4789   40.1632 C   0  0  0  0  0  0  0  0  0  0  0  0
   10.1212  -10.9790   39.3027 H   0  0  0  0  0  0  0  0  0  0  0  0
    7.8306  -13.2078   38.3786 H   0  0  0  0  0  0  0  0  0  0  0  0
   13.2196  -14.4179   41.0462 C   0  0  0  0  0  0  0  0  0  0  0  0
   13.5102  -13.6436   41.9952 O   0  0  0  0  0  0  0  0  0  0  0  0
   14.0690  -15.2617   40.6450 O   0  0  0  0  0  0  0  0  0  0  0  0
   13.8573  -15.8402   39.9390 H   0  0  0  0  0  0  0  0  0  0  0  0
  1  2  2  0  0  0
  1  8  1  0  0  0
  1 11  1  0  0  0
  2  3  1  0  0  0
  3  4  1  0  0  0
  3  5  2  0  0  0
  5  6  1  0  0  0
  5  7  1  0  0  0
  7  8  2  0  0  0
 11 12  2  0  0  0
 11 13  1  0  0  0
  4  9  1  0  0  0
  6 10  1  0  0  0
 13 14  1  0  0  0
M  END
> <minimizedAffinity>
-6.11890

$$$$
2BUV_DHB_B_1542


 14 14  0  0  0  0  0  0  0  0999 V2000
   11.1370  -14.2859   40.8685 C   0  0  0  0  0  0  0  0  0  0  0  0
   12.1029  -13.7239   41.6863 C   0  0  0  0  0  0  0  0  0  0  0  0
   13.4248  -14.1390   41.5914 C   0  0  0  0  0  0  0  0  0  0  0  0
   14.3888  -13.5729   42.4137 O   0  0  0  0  0  0  0  0  0  0  0  0
   13.7782  -15.1193   40.6842 C   0  0  0  0  0  0  0  0  0  0  0  0
   15.0926  -15.5318   40.5979 O   0  0  0  0  0  0  0  0  0  0  0  0
   12.8144  -15.6885   39.8622 C   0  0  0  0  0  0  0  0  0  0  0  0
   11.4931  -15.2686   39.9507 C   0  0  0  0  0  0  0  0  0  0  0  0
   14.1483  -12.9082   43.0287 H   0  0  0  0  0  0  0  0  0  0  0  0
   15.7418  -15.1468   41.1531 H   0  0  0  0  0  0  0  0  0  0  0  0
    9.7494  -13.8511   40.9729 C   0  0  0  0  0  0  0  0  0  0  0  0
    9.2689  -13.5738   42.1029 O   0  0  0  0  0  0  0  0  0  0  0  0
    9.0237  -13.7546   39.9440 O   0  0  0  0  0  0  0  0  0  0  0  0
    9.3769  -13.9598   39.1007 H   0  0  0  0  0  0  0  0  0  0  0  0
  1  2  2  0  0  0
  1  8  1  0  0  0
  1 11  1  0  0  0
  2  3  1  0  0  0
  3  4  1  0  0  0
  3  5  2  0  0  0
  5  6  1  0  0  0
  5  7  1  0  0  0
  7  8  2  0  0  0
 11 12  2  0  0  0
 11 13  1  0  0  0
  4  9  1  0  0  0
  6 10  1  0  0  0
 13 14  1  0  0  0
M  END
> <minimizedAffinity>
-6.03993

$$$$
2BUV_DHB_B_1542


 14 14  0  0  0  0  0  0  0  0999 V2000
   12.4555  -14.5481   40.5680 C   0  0  0  0  0  0  0  0  0  0  0  0
   12.9318  -13.7643   41.6054 C   0  0  0  0  0  0  0  0  0  0  0  0
   14.2405  -13.9108   42.0465 C   0  0  0  0  0  0  0  0  0  0  0  0
   14.7127  -13.1231   43.0869 O   0  0  0  0  0  0  0  0  0  0  0  0
   15.0691  -14.8446   41.4544 C   0  0  0  0  0  0  0  0  0  0  0  0
   16.3673  -14.9897   41.9004 O   0  0  0  0  0  0  0  0  0  0  0  0
   14.5976  -15.6353   40.4148 C   0  0  0  0  0  0  0  0  0  0  0  0
   13.2910  -15.4842   39.9674 C   0  0  0  0  0  0  0  0  0  0  0  0
   14.1501  -12.4901   43.4878 H   0  0  0  0  0  0  0  0  0  0  0  0
   16.6841  -14.4555   42.6020 H   0  0  0  0  0  0  0  0  0  0  0  0
   11.0801  -14.3949   40.1095 C   0  0  0  0  0  0  0  0  0  0  0  0
   10.5580  -13.2497   40.0841 O   0  0  0  0  0  0  0  0  0  0  0  0
   10.4060  -15.3977   39.7430 O   0  0  0  0  0  0  0  0  0  0  0  0
   10.7902  -16.2521   39.7602 H   0  0  0  0  0  0  0  0  0  0  0  0
  1  2  2  0  0  0
  1  8  1  0  0  0
  1 11  1  0  0  0
  2  3  1  0  0  0
  3  4  1  0  0  0
  3  5  2  0  0  0
  5  6  1  0  0  0
  5  7  1  0  0  0
  7  8  2  0  0  0
 11 12  2  0  0  0
 11 13  1  0  0  0
  4  9  1  0  0  0
  6 10  1  0  0  0
 13 14  1  0  0  0
M  END
> <minimizedAffinity>
-5.74773

$$$$
2BUV_DHB_B_1542


 14 14  0  0  0  0  0  0  0  0999 V2000
   14.4204  -14.1405   42.0511 C   0  0  0  0  0  0  0  0  0  0  0  0
   13.1243  -13.7562   41.7511 C   0  0  0  0  0  0  0  0  0  0  0  0
   12.4176  -14.4081   40.7490 C   0  0  0  0  0  0  0  0  0  0  0  0
   11.1192  -14.0186   40.4520 O   0  0  0  0  0  0  0  0  0  0  0  0
   13.0093  -15.4387   40.0442 C   0  0  0  0  0  0  0  0  0  0  0  0
   12.3042  -16.0796   39.0456 O   0  0  0  0  0  0  0  0  0  0  0  0
   14.3094  -15.8282   40.3385 C   0  0  0  0  0  0  0  0  0  0  0  0
   15.0146  -15.1820   41.3460 C   0  0  0  0  0  0  0  0  0  0  0  0
   10.7187  -13.3196   40.9305 H   0  0  0  0  0  0  0  0  0  0  0  0
   11.4270  -15.8157   38.8480 H   0  0  0  0  0  0  0  0  0  0  0  0
   15.1614  -13.4519   43.1010 C   0  0  0  0  0  0  0  0  0  0  0  0
   14.7751  -13.5431   44.2957 O   0  0  0  0  0  0  0  0  0  0  0  0
   16.1820  -12.7616   42.8248 O   0  0  0  0  0  0  0  0  0  0  0  0
   16.4734  -12.6907   41.9371 H   0  0  0  0  0  0  0  0  0  0  0  0
  1  2  2  0  0  0
  1  8  1  0  0  0
  1 11  1  0  0  0
  2  3  1  0  0  0
  3  4  1  0  0  0
  3  5  2  0  0  0
  5  6  1  0  0  0
  5  7  1  0  0  0
  7  8  2  0  0  0
 11 12  2  0  0  0
 11 13  1  0  0  0
  4  9  1  0  0  0
  6 10  1  0  0  0
 13 14  1  0  0  0
M  END
> <minimizedAffinity>
-5.62578

$$$$
2BUV_DHB_B_1542


 14 14  0  0  0  0  0  0  0  0999 V2000
   11.9122  -14.6914   40.4153 C   0  0  0  0  0  0  0  0  0  0  0  0
   12.8839  -15.5033   39.8548 C   0  0  0  0  0  0  0  0  0  0  0  0
   14.1747  -15.5018   40.3670 C   0  0  0  0  0  0  0  0  0  0  0  0
   15.1449  -16.3170   39.8013 O   0  0  0  0  0  0  0  0  0  0  0  0
   14.4940  -14.6846   41.4343 C   0  0  0  0  0  0  0  0  0  0  0  0
   15.7799  -14.6832   41.9360 O   0  0  0  0  0  0  0  0  0  0  0  0
   13.5250  -13.8665   42.0002 C   0  0  0  0  0  0  0  0  0  0  0  0
   12.2314  -13.8728   41.4937 C   0  0  0  0  0  0  0  0  0  0  0  0
   14.9275  -16.8709   39.0775 H   0  0  0  0  0  0  0  0  0  0  0  0
   16.4327  -15.2358   41.5532 H   0  0  0  0  0  0  0  0  0  0  0  0
   10.5589  -14.6920   39.8731 C   0  0  0  0  0  0  0  0  0  0  0  0
   10.0190  -15.7830   39.5522 O   0  0  0  0  0  0  0  0  0  0  0  0
    9.9251  -13.6111   39.7172 O   0  0  0  0  0  0  0  0  0  0  0  0
   10.3227  -12.7965   39.9545 H   0  0  0  0  0  0  0  0  0  0  0  0
  1  2  2  0  0  0
  1  8  1  0  0  0
  1 11  1  0  0  0
  2  3  1  0  0  0
  3  4  1  0  0  0
  3  5  2  0  0  0
  5  6  1  0  0  0
  5  7  1  0  0  0
  7  8  2  0  0  0
 11 12  2  0  0  0
 11 13  1  0  0  0
  4  9  1  0  0  0
  6 10  1  0  0  0
 13 14  1  0  0  0
M  END
> <minimizedAffinity>
-5.51169

$$$$
2BUV_DHB_B_1542


 14 14  0  0  0  0  0  0  0  0999 V2000
   10.9578  -14.1577   41.0453 C   0  0  0  0  0  0  0  0  0  0  0  0
   10.9302  -15.2579   40.2048 C   0  0  0  0  0  0  0  0  0  0  0  0
   12.1135  -15.8861   39.8389 C   0  0  0  0  0  0  0  0  0  0  0  0
   12.0802  -16.9879   38.9959 O   0  0  0  0  0  0  0  0  0  0  0  0
   13.3226  -15.4103   40.3083 C   0  0  0  0  0  0  0  0  0  0  0  0
   14.4960  -16.0354   39.9371 O   0  0  0  0  0  0  0  0  0  0  0  0
   13.3580  -14.3064   41.1501 C   0  0  0  0  0  0  0  0  0  0  0  0
   12.1744  -13.6818   41.5232 C   0  0  0  0  0  0  0  0  0  0  0  0
   11.2597  -17.3100   38.6779 H   0  0  0  0  0  0  0  0  0  0  0  0
   14.4707  -16.7801   39.3690 H   0  0  0  0  0  0  0  0  0  0  0  0
    9.7145  -13.4977   41.4247 C   0  0  0  0  0  0  0  0  0  0  0  0
    9.1335  -12.7460   40.5990 O   0  0  0  0  0  0  0  0  0  0  0  0
    9.2175  -13.6677   42.5730 O   0  0  0  0  0  0  0  0  0  0  0  0
    9.6463  -14.2263   43.1911 H   0  0  0  0  0  0  0  0  0  0  0  0
  1  2  2  0  0  0
  1  8  1  0  0  0
  1 11  1  0  0  0
  2  3  1  0  0  0
  3  4  1  0  0  0
  3  5  2  0  0  0
  5  6  1  0  0  0
  5  7  1  0  0  0
  7  8  2  0  0  0
 11 12  2  0  0  0
 11 13  1  0  0  0
  4  9  1  0  0  0
  6 10  1  0  0  0
 13 14  1  0  0  0
M  END
> <minimizedAffinity>
-5.35383

$$$$
2BUV_DHB_B_1542


 14 14  0  0  0  0  0  0  0  0999 V2000
   14.3474  -14.7835   41.3529 C   0  0  0  0  0  0  0  0  0  0  0  0
   13.8903  -15.6892   40.4104 C   0  0  0  0  0  0  0  0  0  0  0  0
   12.5780  -15.6251   39.9604 C   0  0  0  0  0  0  0  0  0  0  0  0
   12.1248  -16.5355   39.0162 O   0  0  0  0  0  0  0  0  0  0  0  0
   11.7231  -14.6603   40.4574 C   0  0  0  0  0  0  0  0  0  0  0  0
   10.4183  -14.6046   40.0105 O   0  0  0  0  0  0  0  0  0  0  0  0
   12.1742  -13.7499   41.4041 C   0  0  0  0  0  0  0  0  0  0  0  0
   13.4889  -13.8080   41.8493 C   0  0  0  0  0  0  0  0  0  0  0  0
   12.7053  -17.1895   38.6796 H   0  0  0  0  0  0  0  0  0  0  0  0
   10.1152  -15.2194   39.3718 H   0  0  0  0  0  0  0  0  0  0  0  0
   15.7244  -14.8554   41.8265 C   0  0  0  0  0  0  0  0  0  0  0  0
   16.6534  -15.0694   41.0044 O   0  0  0  0  0  0  0  0  0  0  0  0
   15.9944  -14.7108   43.0515 O   0  0  0  0  0  0  0  0  0  0  0  0
   15.3064  -14.5514   43.6672 H   0  0  0  0  0  0  0  0  0  0  0  0
  1  2  2  0  0  0
  1  8  1  0  0  0
  1 11  1  0  0  0
  2  3  1  0  0  0
  3  4  1  0  0  0
  3  5  2  0  0  0
  5  6  1  0  0  0
  5  7  1  0  0  0
  7  8  2  0  0  0
 11 12  2  0  0  0
 11 13  1  0  0  0
  4  9  1  0  0  0
  6 10  1  0  0  0
 13 14  1  0  0  0
M  END
> <minimizedAffinity>
-5.33418

$$$$
2BUV_DHB_B_1542


 14 14  0  0  0  0  0  0  0  0999 V2000
    8.8315  -13.3088   38.1805 C   0  0  0  0  0  0  0  0  0  0  0  0
    8.8581  -14.6874   38.3086 C   0  0  0  0  0  0  0  0  0  0  0  0
    9.3701  -15.2713   39.4600 C   0  0  0  0  0  0  0  0  0  0  0  0
    9.3948  -16.6533   39.5830 O   0  0  0  0  0  0  0  0  0  0  0  0
    9.8603  -14.4770   40.4786 C   0  0  0  0  0  0  0  0  0  0  0  0
   10.3730  -15.0628   41.6184 O   0  0  0  0  0  0  0  0  0  0  0  0
    9.8385  -13.0939   40.3561 C   0  0  0  0  0  0  0  0  0  0  0  0
    9.3194  -12.5084   39.2082 C   0  0  0  0  0  0  0  0  0  0  0  0
    9.0621  -17.1912   38.8917 H   0  0  0  0  0  0  0  0  0  0  0  0
   10.3871  -15.9961   41.6997 H   0  0  0  0  0  0  0  0  0  0  0  0
    8.2970  -12.6986   36.9691 C   0  0  0  0  0  0  0  0  0  0  0  0
    9.0687  -12.4521   36.0055 O   0  0  0  0  0  0  0  0  0  0  0  0
    7.0711  -12.4103   36.8780 O   0  0  0  0  0  0  0  0  0  0  0  0
    6.4928  -12.5918   37.5926 H   0  0  0  0  0  0  0  0  0  0  0  0
  1  2  2  0  0  0
  1  8  1  0  0  0
  1 11  1  0  0  0
  2  3  1  0  0  0
  3  4  1  0  0  0
  3  5  2  0  0  0
  5  6  1  0  0  0
  5  7  1  0  0  0
  7  8  2  0  0  0
 11 12  2  0  0  0
 11 13  1  0  0  0
  4  9  1  0  0  0
  6 10  1  0  0  0
 13 14  1  0  0  0
M  END
> <minimizedAffinity>
-5.33304

$$$$
