5FLQ_IO2_A_1264


 19 20  0  0  0  0  0  0  0  0999 V2000
   -4.5141    4.4450   13.9404 C   0  0  0  0  0  0  0  0  0  0  0  0
   -5.7918    4.7794   14.3395 C   0  0  0  0  0  0  0  0  0  0  0  0
   -6.2894    4.2590   15.5159 C   0  0  0  0  0  0  0  0  0  0  0  0
   -5.5629    3.4057   16.3143 C   0  0  0  0  0  0  0  0  0  0  0  0
   -4.2843    3.0747   15.9118 C   0  0  0  0  0  0  0  0  0  0  0  0
   -3.7719    3.6020   14.7372 C   0  0  0  0  0  0  0  0  0  0  0  0
   -3.8838    4.8874   12.7847 O   0  0  0  0  0  0  0  0  0  0  0  0
   -4.3026    4.3318   11.5213 C   0  0  0  0  0  0  0  0  0  0  0  0
   -3.2441    0.2219   10.9654 C   0  0  0  0  0  0  0  0  0  0  0  0
   -2.2803    1.2047   11.0668 C   0  0  0  0  0  0  0  0  0  0  0  0
   -2.6514    2.5194   11.2413 C   0  0  0  0  0  0  0  0  0  0  0  0
   -3.9816    2.8816   11.3163 C   0  0  0  0  0  0  0  0  0  0  0  0
   -4.9322    1.8904   11.2137 C   0  0  0  0  0  0  0  0  0  0  0  0
   -4.5714    0.5703   11.0346 C   0  0  0  0  0  0  0  0  0  0  0  0
   -6.2091    2.8576   17.5715 C   0  0  0  0  0  0  0  0  0  0  0  0
   -6.5040    1.4059   17.4027 C   0  0  0  0  0  0  0  0  0  0  0  0
   -5.6208    0.5460   17.7863 O   0  0  0  0  0  0  0  0  0  0  0  0
   -7.6382    1.2649   16.8882 O   0  0  0  0  0  0  0  0  0  0  0  0
   -4.8116    0.8390   18.1568 H   0  0  0  0  0  0  0  0  0  0  0  0
 10  9  2  0  0  0
  9 14  1  0  0  0
 11 10  1  0  0  0
 11 12  2  0  0  0
  8 12  1  0  0  0
 12 13  1  0  0  0
 13 14  2  0  0  0
  8  7  1  0  0  0
  7  1  1  0  0  0
  1  2  2  0  0  0
  1  6  1  0  0  0
  2  3  1  0  0  0
  3  4  2  0  0  0
  5  4  1  0  0  0
  4 15  1  0  0  0
  6  5  2  0  0  0
 16 15  1  0  0  0
 18 16  2  0  0  0
 16 17  1  0  0  0
 17 19  1  0  0  0
M  END
> <minimizedAffinity>
-7.34444

$$$$
5FLQ_IO2_A_1264


 19 20  0  0  0  0  0  0  0  0999 V2000
   -4.7825    5.1205   14.6205 C   0  0  0  0  0  0  0  0  0  0  0  0
   -4.1224    3.9754   15.0161 C   0  0  0  0  0  0  0  0  0  0  0  0
   -4.6528    3.2072   16.0314 C   0  0  0  0  0  0  0  0  0  0  0  0
   -5.8201    3.5397   16.6795 C   0  0  0  0  0  0  0  0  0  0  0  0
   -6.4780    4.6858   16.2797 C   0  0  0  0  0  0  0  0  0  0  0  0
   -5.9586    5.4576   15.2527 C   0  0  0  0  0  0  0  0  0  0  0  0
   -4.3689    5.9901   13.6197 O   0  0  0  0  0  0  0  0  0  0  0  0
   -2.9561    6.1050   13.3538 C   0  0  0  0  0  0  0  0  0  0  0  0
   -0.9713    9.5897   14.8501 C   0  0  0  0  0  0  0  0  0  0  0  0
   -0.5039    8.9183   13.7383 C   0  0  0  0  0  0  0  0  0  0  0  0
   -1.1614    7.7974   13.2824 C   0  0  0  0  0  0  0  0  0  0  0  0
   -2.2900    7.3228   13.9207 C   0  0  0  0  0  0  0  0  0  0  0  0
   -2.7448    8.0029   15.0286 C   0  0  0  0  0  0  0  0  0  0  0  0
   -2.0912    9.1250   15.4963 C   0  0  0  0  0  0  0  0  0  0  0  0
   -6.3053    2.6507   17.8077 C   0  0  0  0  0  0  0  0  0  0  0  0
   -6.4273    1.2430   17.3322 C   0  0  0  0  0  0  0  0  0  0  0  0
   -5.5386    0.3841   17.7055 O   0  0  0  0  0  0  0  0  0  0  0  0
   -7.4445    1.1309   16.6084 O   0  0  0  0  0  0  0  0  0  0  0  0
   -4.8321    0.6518   18.2596 H   0  0  0  0  0  0  0  0  0  0  0  0
 10  9  2  0  0  0
  9 14  1  0  0  0
 11 10  1  0  0  0
 11 12  2  0  0  0
  8 12  1  0  0  0
 12 13  1  0  0  0
 13 14  2  0  0  0
  8  7  1  0  0  0
  7  1  1  0  0  0
  1  2  2  0  0  0
  1  6  1  0  0  0
  2  3  1  0  0  0
  3  4  2  0  0  0
  5  4  1  0  0  0
  4 15  1  0  0  0
  6  5  2  0  0  0
 16 15  1  0  0  0
 18 16  2  0  0  0
 16 17  1  0  0  0
 17 19  1  0  0  0
M  END
> <minimizedAffinity>
-6.91401

$$$$
5FLQ_IO2_A_1264


 19 20  0  0  0  0  0  0  0  0999 V2000
   -4.0965    5.1180   14.5788 C   0  0  0  0  0  0  0  0  0  0  0  0
   -5.3979    5.5074   14.8202 C   0  0  0  0  0  0  0  0  0  0  0  0
   -6.2263    4.6792   15.5484 C   0  0  0  0  0  0  0  0  0  0  0  0
   -5.8099    3.4650   16.0441 C   0  0  0  0  0  0  0  0  0  0  0  0
   -4.5065    3.0798   15.8013 C   0  0  0  0  0  0  0  0  0  0  0  0
   -3.6637    3.9107   15.0805 C   0  0  0  0  0  0  0  0  0  0  0  0
   -3.1529    5.8427   13.8625 O   0  0  0  0  0  0  0  0  0  0  0  0
   -3.4477    7.2166   13.5375 C   0  0  0  0  0  0  0  0  0  0  0  0
   -0.5514   10.0379   14.9422 C   0  0  0  0  0  0  0  0  0  0  0  0
   -1.4289    9.4174   15.8083 C   0  0  0  0  0  0  0  0  0  0  0  0
   -2.3528    8.5169   15.3265 C   0  0  0  0  0  0  0  0  0  0  0  0
   -2.4235    8.2182   13.9803 C   0  0  0  0  0  0  0  0  0  0  0  0
   -1.5417    8.8448   13.1280 C   0  0  0  0  0  0  0  0  0  0  0  0
   -0.6145    9.7519   13.5998 C   0  0  0  0  0  0  0  0  0  0  0  0
   -6.8045    2.6087   16.8032 C   0  0  0  0  0  0  0  0  0  0  0  0
   -6.1499    2.0038   17.9983 C   0  0  0  0  0  0  0  0  0  0  0  0
   -5.6092    0.8371   17.8841 O   0  0  0  0  0  0  0  0  0  0  0  0
   -6.2400    2.7907   18.9698 O   0  0  0  0  0  0  0  0  0  0  0  0
   -5.6382    0.3855   17.0636 H   0  0  0  0  0  0  0  0  0  0  0  0
 10  9  2  0  0  0
  9 14  1  0  0  0
 11 10  1  0  0  0
 11 12  2  0  0  0
  8 12  1  0  0  0
 12 13  1  0  0  0
 13 14  2  0  0  0
  8  7  1  0  0  0
  7  1  1  0  0  0
  1  2  2  0  0  0
  1  6  1  0  0  0
  2  3  1  0  0  0
  3  4  2  0  0  0
  5  4  1  0  0  0
  4 15  1  0  0  0
  6  5  2  0  0  0
 16 15  1  0  0  0
 18 16  2  0  0  0
 16 17  1  0  0  0
 17 19  1  0  0  0
M  END
> <minimizedAffinity>
-6.76960

$$$$
5FLQ_IO2_A_1264


 19 20  0  0  0  0  0  0  0  0999 V2000
   -4.3279    3.4891   12.0996 C   0  0  0  0  0  0  0  0  0  0  0  0
   -3.0081    3.1152   11.9514 C   0  0  0  0  0  0  0  0  0  0  0  0
   -2.7121    1.8976   11.3752 C   0  0  0  0  0  0  0  0  0  0  0  0
   -3.6856    1.0262   10.9436 C   0  0  0  0  0  0  0  0  0  0  0  0
   -5.0049    1.4048   11.0927 C   0  0  0  0  0  0  0  0  0  0  0  0
   -5.3115    2.6313   11.6600 C   0  0  0  0  0  0  0  0  0  0  0  0
   -4.7757    4.6775   12.6616 O   0  0  0  0  0  0  0  0  0  0  0  0
   -4.3155    5.0256   13.9834 C   0  0  0  0  0  0  0  0  0  0  0  0
   -6.2168    2.8975   17.1737 C   0  0  0  0  0  0  0  0  0  0  0  0
   -6.7831    4.0324   16.6292 C   0  0  0  0  0  0  0  0  0  0  0  0
   -6.1459    4.6984   15.6060 C   0  0  0  0  0  0  0  0  0  0  0  0
   -4.9380    4.2527   15.1074 C   0  0  0  0  0  0  0  0  0  0  0  0
   -4.3850    3.1190   15.6603 C   0  0  0  0  0  0  0  0  0  0  0  0
   -5.0132    2.4462   16.6887 C   0  0  0  0  0  0  0  0  0  0  0  0
   -3.2620   -0.3052   10.3548 C   0  0  0  0  0  0  0  0  0  0  0  0
   -3.2840   -1.3597   11.4086 C   0  0  0  0  0  0  0  0  0  0  0  0
   -2.5818   -2.4282   11.2300 O   0  0  0  0  0  0  0  0  0  0  0  0
   -4.0265   -0.9964   12.3508 O   0  0  0  0  0  0  0  0  0  0  0  0
   -2.0766   -2.5315   10.4477 H   0  0  0  0  0  0  0  0  0  0  0  0
 10  9  2  0  0  0
  9 14  1  0  0  0
 11 10  1  0  0  0
 11 12  2  0  0  0
  8 12  1  0  0  0
 12 13  1  0  0  0
 13 14  2  0  0  0
  8  7  1  0  0  0
  7  1  1  0  0  0
  1  2  2  0  0  0
  1  6  1  0  0  0
  2  3  1  0  0  0
  3  4  2  0  0  0
  5  4  1  0  0  0
  4 15  1  0  0  0
  6  5  2  0  0  0
 16 15  1  0  0  0
 18 16  2  0  0  0
 16 17  1  0  0  0
 17 19  1  0  0  0
M  END
> <minimizedAffinity>
-6.74817

$$$$
5FLQ_IO2_A_1264


 19 20  0  0  0  0  0  0  0  0999 V2000
   -5.1414    4.6024   13.7335 C   0  0  0  0  0  0  0  0  0  0  0  0
   -5.9201    5.2854   14.6450 C   0  0  0  0  0  0  0  0  0  0  0  0
   -6.1880    4.7095   15.8693 C   0  0  0  0  0  0  0  0  0  0  0  0
   -5.7140    3.4671   16.2231 C   0  0  0  0  0  0  0  0  0  0  0  0
   -4.9342    2.7877   15.3084 C   0  0  0  0  0  0  0  0  0  0  0  0
   -4.6503    3.3635   14.0804 C   0  0  0  0  0  0  0  0  0  0  0  0
   -4.7923    5.0529   12.4670 O   0  0  0  0  0  0  0  0  0  0  0  0
   -4.6221    6.4711   12.2679 C   0  0  0  0  0  0  0  0  0  0  0  0
   -7.3383    8.2202    9.4600 C   0  0  0  0  0  0  0  0  0  0  0  0
   -6.2497    7.4817    9.0421 C   0  0  0  0  0  0  0  0  0  0  0  0
   -5.3906    6.9343    9.9690 C   0  0  0  0  0  0  0  0  0  0  0  0
   -5.5947    7.1111   11.3230 C   0  0  0  0  0  0  0  0  0  0  0  0
   -6.6850    7.8502   11.7252 C   0  0  0  0  0  0  0  0  0  0  0  0
   -7.5499    8.4065   10.8047 C   0  0  0  0  0  0  0  0  0  0  0  0
   -6.0915    2.9027   17.5786 C   0  0  0  0  0  0  0  0  0  0  0  0
   -6.4945    1.4737   17.4425 C   0  0  0  0  0  0  0  0  0  0  0  0
   -7.6347    1.2008   16.9022 O   0  0  0  0  0  0  0  0  0  0  0  0
   -5.5908    0.7369   17.9025 O   0  0  0  0  0  0  0  0  0  0  0  0
   -8.1928    1.8944   16.6101 H   0  0  0  0  0  0  0  0  0  0  0  0
 10  9  2  0  0  0
  9 14  1  0  0  0
 11 10  1  0  0  0
 11 12  2  0  0  0
  8 12  1  0  0  0
 12 13  1  0  0  0
 13 14  2  0  0  0
  8  7  1  0  0  0
  7  1  1  0  0  0
  1  2  2  0  0  0
  1  6  1  0  0  0
  2  3  1  0  0  0
  3  4  2  0  0  0
  5  4  1  0  0  0
  4 15  1  0  0  0
  6  5  2  0  0  0
 16 15  1  0  0  0
 18 16  2  0  0  0
 16 17  1  0  0  0
 17 19  1  0  0  0
M  END
> <minimizedAffinity>
-6.57515

$$$$
5FLQ_IO2_A_1264


 19 20  0  0  0  0  0  0  0  0999 V2000
   -4.5606    5.5264   14.7443 C   0  0  0  0  0  0  0  0  0  0  0  0
   -5.8408    5.6895   15.2320 C   0  0  0  0  0  0  0  0  0  0  0  0
   -6.4810    4.6183   15.8194 C   0  0  0  0  0  0  0  0  0  0  0  0
   -5.8957    3.3784   15.9353 C   0  0  0  0  0  0  0  0  0  0  0  0
   -4.6140    3.2199   15.4470 C   0  0  0  0  0  0  0  0  0  0  0  0
   -3.9589    4.2936   14.8656 C   0  0  0  0  0  0  0  0  0  0  0  0
   -3.7964    6.5087   14.1280 O   0  0  0  0  0  0  0  0  0  0  0  0
   -3.6270    6.4468   12.6971 C   0  0  0  0  0  0  0  0  0  0  0  0
   -6.0845    9.1787   10.5020 C   0  0  0  0  0  0  0  0  0  0  0  0
   -6.6269    8.0921   11.1578 C   0  0  0  0  0  0  0  0  0  0  0  0
   -5.8104    7.2279   11.8529 C   0  0  0  0  0  0  0  0  0  0  0  0
   -4.4449    7.4247   11.9078 C   0  0  0  0  0  0  0  0  0  0  0  0
   -3.9179    8.5131   11.2488 C   0  0  0  0  0  0  0  0  0  0  0  0
   -4.7266    9.3832   10.5460 C   0  0  0  0  0  0  0  0  0  0  0  0
   -6.6928    2.2530   16.5651 C   0  0  0  0  0  0  0  0  0  0  0  0
   -5.7706    1.2052   17.0890 C   0  0  0  0  0  0  0  0  0  0  0  0
   -5.4147    0.2446   16.3033 O   0  0  0  0  0  0  0  0  0  0  0  0
   -5.4775    1.4613   18.2805 O   0  0  0  0  0  0  0  0  0  0  0  0
   -5.7397    0.2128   15.4251 H   0  0  0  0  0  0  0  0  0  0  0  0
 10  9  2  0  0  0
  9 14  1  0  0  0
 11 10  1  0  0  0
 11 12  2  0  0  0
  8 12  1  0  0  0
 12 13  1  0  0  0
 13 14  2  0  0  0
  8  7  1  0  0  0
  7  1  1  0  0  0
  1  2  2  0  0  0
  1  6  1  0  0  0
  2  3  1  0  0  0
  3  4  2  0  0  0
  5  4  1  0  0  0
  4 15  1  0  0  0
  6  5  2  0  0  0
 16 15  1  0  0  0
 18 16  2  0  0  0
 16 17  1  0  0  0
 17 19  1  0  0  0
M  END
> <minimizedAffinity>
-6.56856

$$$$
5FLQ_IO2_A_1264


 19 20  0  0  0  0  0  0  0  0999 V2000
   -4.1451    5.2610   14.1195 C   0  0  0  0  0  0  0  0  0  0  0  0
   -4.4688    4.9858   12.8068 C   0  0  0  0  0  0  0  0  0  0  0  0
   -3.4707    4.6199   11.9280 C   0  0  0  0  0  0  0  0  0  0  0  0
   -2.1509    4.5234   12.3046 C   0  0  0  0  0  0  0  0  0  0  0  0
   -1.8316    4.7985   13.6194 C   0  0  0  0  0  0  0  0  0  0  0  0
   -2.8294    5.1556   14.5121 C   0  0  0  0  0  0  0  0  0  0  0  0
   -5.0386    5.6424   15.1120 O   0  0  0  0  0  0  0  0  0  0  0  0
   -6.2420    4.8664   15.2845 C   0  0  0  0  0  0  0  0  0  0  0  0
   -5.8832    1.2798   17.5928 C   0  0  0  0  0  0  0  0  0  0  0  0
   -6.5293    2.3931   18.0909 C   0  0  0  0  0  0  0  0  0  0  0  0
   -6.6256    3.5345   17.3262 C   0  0  0  0  0  0  0  0  0  0  0  0
   -6.0823    3.5920   16.0582 C   0  0  0  0  0  0  0  0  0  0  0  0
   -5.4407    2.4736   15.5744 C   0  0  0  0  0  0  0  0  0  0  0  0
   -5.3351    1.3259   16.3338 C   0  0  0  0  0  0  0  0  0  0  0  0
   -1.1205    4.1478   11.2577 C   0  0  0  0  0  0  0  0  0  0  0  0
   -1.4244    2.7975   10.7036 C   0  0  0  0  0  0  0  0  0  0  0  0
   -1.3730    1.7780   11.4938 O   0  0  0  0  0  0  0  0  0  0  0  0
   -1.7015    2.8963    9.4851 O   0  0  0  0  0  0  0  0  0  0  0  0
   -1.1427    1.8945   12.3946 H   0  0  0  0  0  0  0  0  0  0  0  0
 10  9  2  0  0  0
  9 14  1  0  0  0
 11 10  1  0  0  0
 11 12  2  0  0  0
  8 12  1  0  0  0
 12 13  1  0  0  0
 13 14  2  0  0  0
  8  7  1  0  0  0
  7  1  1  0  0  0
  1  2  2  0  0  0
  1  6  1  0  0  0
  2  3  1  0  0  0
  3  4  2  0  0  0
  5  4  1  0  0  0
  4 15  1  0  0  0
  6  5  2  0  0  0
 16 15  1  0  0  0
 18 16  2  0  0  0
 16 17  1  0  0  0
 17 19  1  0  0  0
M  END
> <minimizedAffinity>
-6.40837

$$$$
5FLQ_IO2_A_1264


 19 20  0  0  0  0  0  0  0  0999 V2000
   -3.7919    5.6481   13.5165 C   0  0  0  0  0  0  0  0  0  0  0  0
   -4.3911    5.7926   14.7509 C   0  0  0  0  0  0  0  0  0  0  0  0
   -4.9023    4.6808   15.3873 C   0  0  0  0  0  0  0  0  0  0  0  0
   -4.8473    3.4212   14.8363 C   0  0  0  0  0  0  0  0  0  0  0  0
   -4.2457    3.2810   13.6015 C   0  0  0  0  0  0  0  0  0  0  0  0
   -3.7190    4.3906   12.9600 C   0  0  0  0  0  0  0  0  0  0  0  0
   -3.2380    6.6722   12.7594 O   0  0  0  0  0  0  0  0  0  0  0  0
   -3.6612    6.8153   11.3880 C   0  0  0  0  0  0  0  0  0  0  0  0
   -6.7496    9.6849   10.6480 C   0  0  0  0  0  0  0  0  0  0  0  0
   -5.4264    9.9668   10.3745 C   0  0  0  0  0  0  0  0  0  0  0  0
   -4.4540    9.0248   10.6269 C   0  0  0  0  0  0  0  0  0  0  0  0
   -4.7760    7.7906   11.1555 C   0  0  0  0  0  0  0  0  0  0  0  0
   -6.1003    7.5233   11.4233 C   0  0  0  0  0  0  0  0  0  0  0  0
   -7.0822    8.4616   11.1778 C   0  0  0  0  0  0  0  0  0  0  0  0
   -5.4684    2.2660   15.5968 C   0  0  0  0  0  0  0  0  0  0  0  0
   -4.4589    1.1884   15.8024 C   0  0  0  0  0  0  0  0  0  0  0  0
   -4.6694    0.0325   15.2675 O   0  0  0  0  0  0  0  0  0  0  0  0
   -3.5147    1.6253   16.5016 O   0  0  0  0  0  0  0  0  0  0  0  0
   -5.4470   -0.1174   14.7667 H   0  0  0  0  0  0  0  0  0  0  0  0
 10  9  2  0  0  0
  9 14  1  0  0  0
 11 10  1  0  0  0
 11 12  2  0  0  0
  8 12  1  0  0  0
 12 13  1  0  0  0
 13 14  2  0  0  0
  8  7  1  0  0  0
  7  1  1  0  0  0
  1  2  2  0  0  0
  1  6  1  0  0  0
  2  3  1  0  0  0
  3  4  2  0  0  0
  5  4  1  0  0  0
  4 15  1  0  0  0
  6  5  2  0  0  0
 16 15  1  0  0  0
 18 16  2  0  0  0
 16 17  1  0  0  0
 17 19  1  0  0  0
M  END
> <minimizedAffinity>
-6.24067

$$$$
5FLQ_IO2_A_1264


 19 20  0  0  0  0  0  0  0  0999 V2000
   -4.6206    5.0295   14.3533 C   0  0  0  0  0  0  0  0  0  0  0  0
   -5.7895    5.4368   14.9629 C   0  0  0  0  0  0  0  0  0  0  0  0
   -6.2848    4.7107   16.0258 C   0  0  0  0  0  0  0  0  0  0  0  0
   -5.6622    3.5815   16.5059 C   0  0  0  0  0  0  0  0  0  0  0  0
   -4.4922    3.1782   15.8937 C   0  0  0  0  0  0  0  0  0  0  0  0
   -3.9809    3.9081   14.8325 C   0  0  0  0  0  0  0  0  0  0  0  0
   -4.0070    5.6559   13.2763 O   0  0  0  0  0  0  0  0  0  0  0  0
   -2.5828    5.4978   13.1133 C   0  0  0  0  0  0  0  0  0  0  0  0
   -1.2933    3.6401    9.4791 C   0  0  0  0  0  0  0  0  0  0  0  0
   -0.9767    3.1048   10.7113 C   0  0  0  0  0  0  0  0  0  0  0  0
   -1.4023    3.7272   11.8637 C   0  0  0  0  0  0  0  0  0  0  0  0
   -2.1459    4.8895   11.8143 C   0  0  0  0  0  0  0  0  0  0  0  0
   -2.4543    5.4121   10.5780 C   0  0  0  0  0  0  0  0  0  0  0  0
   -2.0295    4.7986    9.4169 C   0  0  0  0  0  0  0  0  0  0  0  0
   -6.3025    2.8303   17.6566 C   0  0  0  0  0  0  0  0  0  0  0  0
   -6.3627    1.3736   17.3450 C   0  0  0  0  0  0  0  0  0  0  0  0
   -5.4216    0.6070   17.7845 O   0  0  0  0  0  0  0  0  0  0  0  0
   -7.3903    1.1308   16.6696 O   0  0  0  0  0  0  0  0  0  0  0  0
   -4.7164    0.9698   18.2835 H   0  0  0  0  0  0  0  0  0  0  0  0
 10  9  2  0  0  0
  9 14  1  0  0  0
 11 10  1  0  0  0
 11 12  2  0  0  0
  8 12  1  0  0  0
 12 13  1  0  0  0
 13 14  2  0  0  0
  8  7  1  0  0  0
  7  1  1  0  0  0
  1  2  2  0  0  0
  1  6  1  0  0  0
  2  3  1  0  0  0
  3  4  2  0  0  0
  5  4  1  0  0  0
  4 15  1  0  0  0
  6  5  2  0  0  0
 16 15  1  0  0  0
 18 16  2  0  0  0
 16 17  1  0  0  0
 17 19  1  0  0  0
M  END
> <minimizedAffinity>
-6.21102

$$$$
5FLQ_IO2_A_1264


 19 20  0  0  0  0  0  0  0  0999 V2000
   -3.0114    4.8736   14.2645 C   0  0  0  0  0  0  0  0  0  0  0  0
   -3.8597    5.8973   14.6334 C   0  0  0  0  0  0  0  0  0  0  0  0
   -3.4682    7.2043   14.4312 C   0  0  0  0  0  0  0  0  0  0  0  0
   -2.2526    7.5364   13.8785 C   0  0  0  0  0  0  0  0  0  0  0  0
   -1.4074    6.5088   13.5097 C   0  0  0  0  0  0  0  0  0  0  0  0
   -1.7972    5.1926   13.6985 C   0  0  0  0  0  0  0  0  0  0  0  0
   -3.2678    3.5164   14.4092 O   0  0  0  0  0  0  0  0  0  0  0  0
   -4.6327    3.0626   14.3033 C   0  0  0  0  0  0  0  0  0  0  0  0
   -6.6059    2.1225   17.9835 C   0  0  0  0  0  0  0  0  0  0  0  0
   -6.8337    3.3172   17.3309 C   0  0  0  0  0  0  0  0  0  0  0  0
   -6.1810    3.5936   16.1502 C   0  0  0  0  0  0  0  0  0  0  0  0
   -5.2917    2.6930   15.5984 C   0  0  0  0  0  0  0  0  0  0  0  0
   -5.0744    1.5051   16.2606 C   0  0  0  0  0  0  0  0  0  0  0  0
   -5.7202    1.2198   17.4465 C   0  0  0  0  0  0  0  0  0  0  0  0
   -1.8971    9.0026   13.7285 C   0  0  0  0  0  0  0  0  0  0  0  0
   -0.8575    9.3808   14.7279 C   0  0  0  0  0  0  0  0  0  0  0  0
   -1.1664    9.3590   15.9812 O   0  0  0  0  0  0  0  0  0  0  0  0
    0.2096    9.6674   14.1359 O   0  0  0  0  0  0  0  0  0  0  0  0
   -2.0312    9.1146   16.2464 H   0  0  0  0  0  0  0  0  0  0  0  0
 10  9  2  0  0  0
  9 14  1  0  0  0
 11 10  1  0  0  0
 11 12  2  0  0  0
  8 12  1  0  0  0
 12 13  1  0  0  0
 13 14  2  0  0  0
  8  7  1  0  0  0
  7  1  1  0  0  0
  1  2  2  0  0  0
  1  6  1  0  0  0
  2  3  1  0  0  0
  3  4  2  0  0  0
  5  4  1  0  0  0
  4 15  1  0  0  0
  6  5  2  0  0  0
 16 15  1  0  0  0
 18 16  2  0  0  0
 16 17  1  0  0  0
 17 19  1  0  0  0
M  END
> <minimizedAffinity>
-6.18818

$$$$
