2YFX_VGH_A_9000


 33 36  0  0  0  0  0  0  0  0999 V2000
   30.1442   44.0872    8.6986 C   0  0  0  0  0  0  0  0  0  0  0  0
   29.8855   45.2827    7.9440 C   0  0  0  0  0  0  0  0  0  0  0  0
   29.2487   43.8267    9.7877 C   0  0  0  0  0  0  0  0  0  0  0  0
   29.4401   42.6668   10.5667 N   0  0  0  0  0  0  0  0  0  0  0  0
   28.2055   44.6267   10.1264 N   0  0  0  0  0  0  0  0  0  0  0  0
   27.9882   45.7534    9.3912 C   0  0  0  0  0  0  0  0  0  0  0  0
   28.8007   46.1411    8.2800 C   0  0  0  0  0  0  0  0  0  0  0  0
   30.1826   42.0535   10.3622 H   0  0  0  0  0  0  0  0  0  0  0  0
   28.8313   42.4705   11.3151 H   0  0  0  0  0  0  0  0  0  0  0  0
   28.5328   47.4013    7.4771 C   0  0  0  0  0  0  0  0  0  0  0  0
   29.4356   48.0790    6.5408 C   0  0  0  0  0  0  0  0  0  0  0  0
   27.3719   48.1640    7.4677 C   0  0  0  0  0  0  0  0  0  0  0  0
   27.6517   49.2026    6.5594 N   0  0  0  0  0  0  0  0  0  0  0  0
   28.8369   49.1126    6.0589 N   0  0  0  0  0  0  0  0  0  0  0  0
   26.7210   50.2957    6.1899 C   0  0  0  0  0  0  0  0  0  0  0  0
   27.0143   51.5571    7.0279 C   0  0  0  0  0  0  0  0  0  0  0  0
   26.0318   52.6812    6.6252 C   0  0  0  0  0  0  0  0  0  0  0  0
   24.6068   52.2569    6.7482 N   0  0  0  0  0  0  0  0  0  0  0  0
   24.3077   51.0130    5.9833 C   0  0  0  0  0  0  0  0  0  0  0  0
   25.2489   49.8506    6.3737 C   0  0  0  0  0  0  0  0  0  0  0  0
   24.0117   53.0070    6.3966 H   0  0  0  0  0  0  0  0  0  0  0  0
   31.1671   43.1695    8.4364 O   0  0  0  0  0  0  0  0  0  0  0  0
   32.4754   43.4826    7.8391 C   0  0  0  0  0  0  0  0  0  0  0  0
   33.2258   42.1439    7.7475 C   0  0  0  0  0  0  0  0  0  0  0  0
   33.5037   46.0613    6.2755 Cl  0  0  0  0  0  0  0  0  0  0  0  0
   33.8212   45.7215    7.9513 C   0  0  0  0  0  0  0  0  0  0  0  0
   34.6035   46.6788    8.6585 C   0  0  0  0  0  0  0  0  0  0  0  0
   34.9216   46.4975   10.0276 C   0  0  0  0  0  0  0  0  0  0  0  0
   34.4632   45.3512   10.7301 C   0  0  0  0  0  0  0  0  0  0  0  0
   34.7873   45.2138   12.0272 F   0  0  0  0  0  0  0  0  0  0  0  0
   33.3311   44.5325    8.6318 C   0  0  0  0  0  0  0  0  0  0  0  0
   33.6692   44.3618   10.0537 C   0  0  0  0  0  0  0  0  0  0  0  0
   33.1469   42.9853   11.0013 Cl  0  0  0  0  0  0  0  0  0  0  0  0
 25 26  1  0  0  0
 26 27  1  0  0  0
 26 31  2  0  0  0
 27 28  2  0  0  0
 28 29  1  0  0  0
 29 30  1  0  0  0
 29 32  2  0  0  0
 31 32  1  0  0  0
 31 23  1  0  0  0
 32 33  1  0  0  0
 23 24  1  0  0  0
 23 22  1  0  0  0
 22  1  1  0  0  0
  1  2  2  0  0  0
  1  3  1  0  0  0
  2  7  1  0  0  0
  3  4  1  0  0  0
  3  5  2  0  0  0
  5  6  1  0  0  0
  6  7  2  0  0  0
  7 10  1  0  0  0
 10 11  1  0  0  0
 10 12  2  0  0  0
 11 14  2  0  0  0
 12 13  1  0  0  0
 13 14  1  0  0  0
 13 15  1  0  0  0
 15 16  1  0  0  0
 15 20  1  0  0  0
 16 17  1  0  0  0
 17 18  1  0  0  0
 18 19  1  0  0  0
 19 20  1  0  0  0
  4  8  1  0  0  0
  4  9  1  0  0  0
 18 21  1  0  0  0
M  END
> <minimizedAffinity>
-8.88960

$$$$
2YFX_VGH_A_9000


 33 36  0  0  0  0  0  0  0  0999 V2000
   30.2575   44.1187    8.6986 C   0  0  0  0  0  0  0  0  0  0  0  0
   29.9812   45.3111    7.9456 C   0  0  0  0  0  0  0  0  0  0  0  0
   29.3564   43.8349    9.7772 C   0  0  0  0  0  0  0  0  0  0  0  0
   29.5645   42.6765   10.5542 N   0  0  0  0  0  0  0  0  0  0  0  0
   28.2928   44.6111   10.1077 N   0  0  0  0  0  0  0  0  0  0  0  0
   28.0591   45.7356    9.3743 C   0  0  0  0  0  0  0  0  0  0  0  0
   28.8747   46.1448    8.2731 C   0  0  0  0  0  0  0  0  0  0  0  0
   30.3221   42.0800   10.3553 H   0  0  0  0  0  0  0  0  0  0  0  0
   28.9522   42.4644   11.2953 H   0  0  0  0  0  0  0  0  0  0  0  0
   28.5882   47.4020    7.4719 C   0  0  0  0  0  0  0  0  0  0  0  0
   29.4774   48.0887    6.5291 C   0  0  0  0  0  0  0  0  0  0  0  0
   27.4195   48.1527    7.4705 C   0  0  0  0  0  0  0  0  0  0  0  0
   27.6822   49.1939    6.5600 N   0  0  0  0  0  0  0  0  0  0  0  0
   28.8648   49.1160    6.0512 N   0  0  0  0  0  0  0  0  0  0  0  0
   26.7378   50.2773    6.1968 C   0  0  0  0  0  0  0  0  0  0  0  0
   27.0347   51.5472    7.0206 C   0  0  0  0  0  0  0  0  0  0  0  0
   26.0376   52.6610    6.6248 C   0  0  0  0  0  0  0  0  0  0  0  0
   24.6180   52.2272    6.7732 N   0  0  0  0  0  0  0  0  0  0  0  0
   24.3163   50.9753    6.0224 C   0  0  0  0  0  0  0  0  0  0  0  0
   25.2720   49.8228    6.4068 C   0  0  0  0  0  0  0  0  0  0  0  0
   24.0119   52.9702    6.4253 H   0  0  0  0  0  0  0  0  0  0  0  0
   31.3025   43.2241    8.4440 O   0  0  0  0  0  0  0  0  0  0  0  0
   32.6374   43.5785    7.9351 C   0  0  0  0  0  0  0  0  0  0  0  0
   33.3715   42.2450    7.7191 C   0  0  0  0  0  0  0  0  0  0  0  0
   33.0851   42.6607   10.9532 Cl  0  0  0  0  0  0  0  0  0  0  0  0
   33.7002   44.1319   10.2591 C   0  0  0  0  0  0  0  0  0  0  0  0
   34.4553   44.9767   11.1219 C   0  0  0  0  0  0  0  0  0  0  0  0
   35.0004   46.1996   10.6571 C   0  0  0  0  0  0  0  0  0  0  0  0
   34.8063   46.6119    9.3117 C   0  0  0  0  0  0  0  0  0  0  0  0
   35.3371   47.7790    8.9089 F   0  0  0  0  0  0  0  0  0  0  0  0
   33.4767   44.5155    8.8734 C   0  0  0  0  0  0  0  0  0  0  0  0
   34.0518   45.7873    8.4075 C   0  0  0  0  0  0  0  0  0  0  0  0
   33.8680   46.3753    6.7687 Cl  0  0  0  0  0  0  0  0  0  0  0  0
 25 26  1  0  0  0
 26 27  1  0  0  0
 26 31  2  0  0  0
 27 28  2  0  0  0
 28 29  1  0  0  0
 29 30  1  0  0  0
 29 32  2  0  0  0
 31 32  1  0  0  0
 31 23  1  0  0  0
 32 33  1  0  0  0
 23 24  1  0  0  0
 23 22  1  0  0  0
 22  1  1  0  0  0
  1  2  2  0  0  0
  1  3  1  0  0  0
  2  7  1  0  0  0
  3  4  1  0  0  0
  3  5  2  0  0  0
  5  6  1  0  0  0
  6  7  2  0  0  0
  7 10  1  0  0  0
 10 11  1  0  0  0
 10 12  2  0  0  0
 11 14  2  0  0  0
 12 13  1  0  0  0
 13 14  1  0  0  0
 13 15  1  0  0  0
 15 16  1  0  0  0
 15 20  1  0  0  0
 16 17  1  0  0  0
 17 18  1  0  0  0
 18 19  1  0  0  0
 19 20  1  0  0  0
  4  8  1  0  0  0
  4  9  1  0  0  0
 18 21  1  0  0  0
M  END
> <minimizedAffinity>
-8.75609

$$$$
2YFX_VGH_A_9000


 33 36  0  0  0  0  0  0  0  0999 V2000
   30.2755   44.0779    8.6997 C   0  0  0  0  0  0  0  0  0  0  0  0
   30.1726   45.3214    7.9865 C   0  0  0  0  0  0  0  0  0  0  0  0
   29.2990   43.8613    9.7271 C   0  0  0  0  0  0  0  0  0  0  0  0
   29.3370   42.6587   10.4627 N   0  0  0  0  0  0  0  0  0  0  0  0
   28.3172   44.7432   10.0454 N   0  0  0  0  0  0  0  0  0  0  0  0
   28.2480   45.9136    9.3507 C   0  0  0  0  0  0  0  0  0  0  0  0
   29.1550   46.2655    8.3025 C   0  0  0  0  0  0  0  0  0  0  0  0
   30.0295   41.9859   10.2707 H   0  0  0  0  0  0  0  0  0  0  0  0
   28.6709   42.4920   11.1682 H   0  0  0  0  0  0  0  0  0  0  0  0
   29.0518   47.5761    7.5435 C   0  0  0  0  0  0  0  0  0  0  0  0
   27.8348   48.2641    7.1000 C   0  0  0  0  0  0  0  0  0  0  0  0
   30.0952   48.3893    7.1197 C   0  0  0  0  0  0  0  0  0  0  0  0
   29.4523   49.4657    6.4794 N   0  0  0  0  0  0  0  0  0  0  0  0
   28.1678   49.3501    6.4926 N   0  0  0  0  0  0  0  0  0  0  0  0
   30.1331   50.6215    5.8483 C   0  0  0  0  0  0  0  0  0  0  0  0
   31.6213   50.2993    5.6020 C   0  0  0  0  0  0  0  0  0  0  0  0
   32.3088   51.5185    4.9446 C   0  0  0  0  0  0  0  0  0  0  0  0
   32.1403   52.7637    5.7489 N   0  0  0  0  0  0  0  0  0  0  0  0
   30.7115   53.0730    6.0398 C   0  0  0  0  0  0  0  0  0  0  0  0
   29.9889   51.8905    6.7246 C   0  0  0  0  0  0  0  0  0  0  0  0
   32.5439   53.5439    5.2304 H   0  0  0  0  0  0  0  0  0  0  0  0
   31.2217   43.0779    8.4513 O   0  0  0  0  0  0  0  0  0  0  0  0
   32.5619   43.2809    7.8776 C   0  0  0  0  0  0  0  0  0  0  0  0
   33.2522   41.9081    7.9282 C   0  0  0  0  0  0  0  0  0  0  0  0
   33.7476   45.6742    6.1403 Cl  0  0  0  0  0  0  0  0  0  0  0  0
   34.0005   45.4641    7.8481 C   0  0  0  0  0  0  0  0  0  0  0  0
   34.8027   46.4446    8.4989 C   0  0  0  0  0  0  0  0  0  0  0  0
   35.0720   46.3664    9.8882 C   0  0  0  0  0  0  0  0  0  0  0  0
   34.5433   45.3032   10.6678 C   0  0  0  0  0  0  0  0  0  0  0  0
   34.8227   45.2624   11.9817 F   0  0  0  0  0  0  0  0  0  0  0  0
   33.4389   44.3578    8.6083 C   0  0  0  0  0  0  0  0  0  0  0  0
   33.7271   44.2938   10.0499 C   0  0  0  0  0  0  0  0  0  0  0  0
   33.1174   43.0248   11.0906 Cl  0  0  0  0  0  0  0  0  0  0  0  0
 25 26  1  0  0  0
 26 27  1  0  0  0
 26 31  2  0  0  0
 27 28  2  0  0  0
 28 29  1  0  0  0
 29 30  1  0  0  0
 29 32  2  0  0  0
 31 32  1  0  0  0
 31 23  1  0  0  0
 32 33  1  0  0  0
 23 24  1  0  0  0
 23 22  1  0  0  0
 22  1  1  0  0  0
  1  2  2  0  0  0
  1  3  1  0  0  0
  2  7  1  0  0  0
  3  4  1  0  0  0
  3  5  2  0  0  0
  5  6  1  0  0  0
  6  7  2  0  0  0
  7 10  1  0  0  0
 10 11  1  0  0  0
 10 12  2  0  0  0
 11 14  2  0  0  0
 12 13  1  0  0  0
 13 14  1  0  0  0
 13 15  1  0  0  0
 15 16  1  0  0  0
 15 20  1  0  0  0
 16 17  1  0  0  0
 17 18  1  0  0  0
 18 19  1  0  0  0
 19 20  1  0  0  0
  4  8  1  0  0  0
  4  9  1  0  0  0
 18 21  1  0  0  0
M  END
> <minimizedAffinity>
-8.74193

$$$$
2YFX_VGH_A_9000


 33 36  0  0  0  0  0  0  0  0999 V2000
   30.3121   44.1828    8.7280 C   0  0  0  0  0  0  0  0  0  0  0  0
   30.2291   45.4286    8.0162 C   0  0  0  0  0  0  0  0  0  0  0  0
   29.2894   43.9494    9.7055 C   0  0  0  0  0  0  0  0  0  0  0  0
   29.3060   42.7437   10.4366 N   0  0  0  0  0  0  0  0  0  0  0  0
   28.2826   44.8179    9.9793 N   0  0  0  0  0  0  0  0  0  0  0  0
   28.2332   45.9909    9.2873 C   0  0  0  0  0  0  0  0  0  0  0  0
   29.1859   46.3589    8.2863 C   0  0  0  0  0  0  0  0  0  0  0  0
   30.0152   42.0801   10.2757 H   0  0  0  0  0  0  0  0  0  0  0  0
   28.6083   42.5655   11.1080 H   0  0  0  0  0  0  0  0  0  0  0  0
   29.1039   47.6720    7.5290 C   0  0  0  0  0  0  0  0  0  0  0  0
   27.8979   48.3935    7.1095 C   0  0  0  0  0  0  0  0  0  0  0  0
   30.1608   48.4561    7.0844 C   0  0  0  0  0  0  0  0  0  0  0  0
   29.5354   49.5500    6.4565 N   0  0  0  0  0  0  0  0  0  0  0  0
   28.2487   49.4699    6.4952 N   0  0  0  0  0  0  0  0  0  0  0  0
   30.2352   50.6867    5.8117 C   0  0  0  0  0  0  0  0  0  0  0  0
   31.7079   50.3223    5.5330 C   0  0  0  0  0  0  0  0  0  0  0  0
   32.4157   51.5222    4.8618 C   0  0  0  0  0  0  0  0  0  0  0  0
   32.3004   52.7706    5.6704 N   0  0  0  0  0  0  0  0  0  0  0  0
   30.8877   53.1204    5.9924 C   0  0  0  0  0  0  0  0  0  0  0  0
   30.1465   51.9581    6.6919 C   0  0  0  0  0  0  0  0  0  0  0  0
   32.7149   53.5396    5.1440 H   0  0  0  0  0  0  0  0  0  0  0  0
   31.2814   43.1954    8.5217 O   0  0  0  0  0  0  0  0  0  0  0  0
   32.6430   43.4163    8.0082 C   0  0  0  0  0  0  0  0  0  0  0  0
   33.2674   42.0192    7.8604 C   0  0  0  0  0  0  0  0  0  0  0  0
   32.8698   42.7029   11.1053 Cl  0  0  0  0  0  0  0  0  0  0  0  0
   33.6776   44.0331   10.3290 C   0  0  0  0  0  0  0  0  0  0  0  0
   34.4943   44.8541   11.1581 C   0  0  0  0  0  0  0  0  0  0  0  0
   35.1952   45.9651   10.6261 C   0  0  0  0  0  0  0  0  0  0  0  0
   35.1000   46.2857    9.2456 C   0  0  0  0  0  0  0  0  0  0  0  0
   35.7779   47.3482    8.7790 F   0  0  0  0  0  0  0  0  0  0  0  0
   33.5512   44.3253    8.9092 C   0  0  0  0  0  0  0  0  0  0  0  0
   34.2877   45.4812    8.3738 C   0  0  0  0  0  0  0  0  0  0  0  0
   34.2340   45.9507    6.6880 Cl  0  0  0  0  0  0  0  0  0  0  0  0
 25 26  1  0  0  0
 26 27  1  0  0  0
 26 31  2  0  0  0
 27 28  2  0  0  0
 28 29  1  0  0  0
 29 30  1  0  0  0
 29 32  2  0  0  0
 31 32  1  0  0  0
 31 23  1  0  0  0
 32 33  1  0  0  0
 23 24  1  0  0  0
 23 22  1  0  0  0
 22  1  1  0  0  0
  1  2  2  0  0  0
  1  3  1  0  0  0
  2  7  1  0  0  0
  3  4  1  0  0  0
  3  5  2  0  0  0
  5  6  1  0  0  0
  6  7  2  0  0  0
  7 10  1  0  0  0
 10 11  1  0  0  0
 10 12  2  0  0  0
 11 14  2  0  0  0
 12 13  1  0  0  0
 13 14  1  0  0  0
 13 15  1  0  0  0
 15 16  1  0  0  0
 15 20  1  0  0  0
 16 17  1  0  0  0
 17 18  1  0  0  0
 18 19  1  0  0  0
 19 20  1  0  0  0
  4  8  1  0  0  0
  4  9  1  0  0  0
 18 21  1  0  0  0
M  END
> <minimizedAffinity>
-8.65985

$$$$
2YFX_VGH_A_9000


 33 36  0  0  0  0  0  0  0  0999 V2000
   30.3050   44.1387    8.6883 C   0  0  0  0  0  0  0  0  0  0  0  0
   30.1634   45.3877    7.9917 C   0  0  0  0  0  0  0  0  0  0  0  0
   29.3443   43.8843    9.7219 C   0  0  0  0  0  0  0  0  0  0  0  0
   29.4202   42.6742   10.4419 N   0  0  0  0  0  0  0  0  0  0  0  0
   28.3432   44.7366   10.0603 N   0  0  0  0  0  0  0  0  0  0  0  0
   28.2374   45.9132    9.3810 C   0  0  0  0  0  0  0  0  0  0  0  0
   29.1249   46.3013    8.3289 C   0  0  0  0  0  0  0  0  0  0  0  0
   30.1279   42.0218   10.2351 H   0  0  0  0  0  0  0  0  0  0  0  0
   28.7654   42.4816   11.1515 H   0  0  0  0  0  0  0  0  0  0  0  0
   28.9808   47.6181    7.5875 C   0  0  0  0  0  0  0  0  0  0  0  0
   30.0019   48.3279    6.8100 C   0  0  0  0  0  0  0  0  0  0  0  0
   27.8459   48.4137    7.4952 C   0  0  0  0  0  0  0  0  0  0  0  0
   28.2530   49.5001    6.6977 N   0  0  0  0  0  0  0  0  0  0  0  0
   29.4867   49.4077    6.3329 N   0  0  0  0  0  0  0  0  0  0  0  0
   27.3963   50.6418    6.2976 C   0  0  0  0  0  0  0  0  0  0  0  0
   26.5094   50.2529    5.0969 C   0  0  0  0  0  0  0  0  0  0  0  0
   25.6267   51.4585    4.6985 C   0  0  0  0  0  0  0  0  0  0  0  0
   26.4343   52.6803    4.4143 N   0  0  0  0  0  0  0  0  0  0  0  0
   27.3344   53.0517    5.5428 C   0  0  0  0  0  0  0  0  0  0  0  0
   28.2577   51.8836    5.9581 C   0  0  0  0  0  0  0  0  0  0  0  0
   25.7981   53.4573    4.2352 H   0  0  0  0  0  0  0  0  0  0  0  0
   31.2742   43.1665    8.4187 O   0  0  0  0  0  0  0  0  0  0  0  0
   32.6368   43.4202    7.9232 C   0  0  0  0  0  0  0  0  0  0  0  0
   33.3137   42.0428    7.8335 C   0  0  0  0  0  0  0  0  0  0  0  0
   32.9929   42.7063   11.0079 Cl  0  0  0  0  0  0  0  0  0  0  0  0
   33.6768   44.0998   10.2239 C   0  0  0  0  0  0  0  0  0  0  0  0
   34.4478   44.9760   11.0402 C   0  0  0  0  0  0  0  0  0  0  0  0
   35.0480   46.1412   10.5011 C   0  0  0  0  0  0  0  0  0  0  0  0
   34.8949   46.4624    9.1259 C   0  0  0  0  0  0  0  0  0  0  0  0
   35.4776   47.5771    8.6523 F   0  0  0  0  0  0  0  0  0  0  0  0
   33.4939   44.3907    8.8100 C   0  0  0  0  0  0  0  0  0  0  0  0
   34.1261   45.6034    8.2670 C   0  0  0  0  0  0  0  0  0  0  0  0
   33.9955   46.0783    6.5869 Cl  0  0  0  0  0  0  0  0  0  0  0  0
 25 26  1  0  0  0
 26 27  1  0  0  0
 26 31  2  0  0  0
 27 28  2  0  0  0
 28 29  1  0  0  0
 29 30  1  0  0  0
 29 32  2  0  0  0
 31 32  1  0  0  0
 31 23  1  0  0  0
 32 33  1  0  0  0
 23 24  1  0  0  0
 23 22  1  0  0  0
 22  1  1  0  0  0
  1  2  2  0  0  0
  1  3  1  0  0  0
  2  7  1  0  0  0
  3  4  1  0  0  0
  3  5  2  0  0  0
  5  6  1  0  0  0
  6  7  2  0  0  0
  7 10  1  0  0  0
 10 11  1  0  0  0
 10 12  2  0  0  0
 11 14  2  0  0  0
 12 13  1  0  0  0
 13 14  1  0  0  0
 13 15  1  0  0  0
 15 16  1  0  0  0
 15 20  1  0  0  0
 16 17  1  0  0  0
 17 18  1  0  0  0
 18 19  1  0  0  0
 19 20  1  0  0  0
  4  8  1  0  0  0
  4  9  1  0  0  0
 18 21  1  0  0  0
M  END
> <minimizedAffinity>
-8.08422

$$$$
2YFX_VGH_A_9000


 33 36  0  0  0  0  0  0  0  0999 V2000
   30.5451   45.9489    7.9712 C   0  0  0  0  0  0  0  0  0  0  0  0
   29.5747   46.9294    7.5681 C   0  0  0  0  0  0  0  0  0  0  0  0
   30.0698   44.9204    8.8501 C   0  0  0  0  0  0  0  0  0  0  0  0
   30.9673   43.9213    9.2803 N   0  0  0  0  0  0  0  0  0  0  0  0
   28.7927   44.8322    9.3018 N   0  0  0  0  0  0  0  0  0  0  0  0
   27.8975   45.7785    8.9015 C   0  0  0  0  0  0  0  0  0  0  0  0
   28.2298   46.8625    8.0300 C   0  0  0  0  0  0  0  0  0  0  0  0
   31.9051   43.9400    8.9810 H   0  0  0  0  0  0  0  0  0  0  0  0
   30.6561   43.2051    9.8798 H   0  0  0  0  0  0  0  0  0  0  0  0
   27.2101   47.9010    7.5983 C   0  0  0  0  0  0  0  0  0  0  0  0
   27.4648   49.2511    7.0852 C   0  0  0  0  0  0  0  0  0  0  0  0
   25.8267   47.7759    7.6007 C   0  0  0  0  0  0  0  0  0  0  0  0
   25.3700   49.0122    7.1056 N   0  0  0  0  0  0  0  0  0  0  0  0
   26.3375   49.8184    6.8272 N   0  0  0  0  0  0  0  0  0  0  0  0
   23.9496   49.3883    6.9096 C   0  0  0  0  0  0  0  0  0  0  0  0
   23.0278   48.1968    7.2417 C   0  0  0  0  0  0  0  0  0  0  0  0
   21.5537   48.6132    7.0295 C   0  0  0  0  0  0  0  0  0  0  0  0
   21.3065   49.1344    5.6537 N   0  0  0  0  0  0  0  0  0  0  0  0
   22.2163   50.2580    5.2908 C   0  0  0  0  0  0  0  0  0  0  0  0
   23.7050   49.8780    5.4607 C   0  0  0  0  0  0  0  0  0  0  0  0
   20.3428   49.4642    5.5982 H   0  0  0  0  0  0  0  0  0  0  0  0
   31.8808   45.9135    7.5568 O   0  0  0  0  0  0  0  0  0  0  0  0
   33.0158   46.5474    8.2471 C   0  0  0  0  0  0  0  0  0  0  0  0
   33.0749   47.9902    7.7192 C   0  0  0  0  0  0  0  0  0  0  0  0
   34.7951   45.9545   10.8228 Cl  0  0  0  0  0  0  0  0  0  0  0  0
   35.2410   45.5504    9.1911 C   0  0  0  0  0  0  0  0  0  0  0  0
   36.5007   44.9096    9.0148 C   0  0  0  0  0  0  0  0  0  0  0  0
   36.9603   44.5393    7.7263 C   0  0  0  0  0  0  0  0  0  0  0  0
   36.1697   44.7985    6.5751 C   0  0  0  0  0  0  0  0  0  0  0  0
   36.6407   44.4343    5.3702 F   0  0  0  0  0  0  0  0  0  0  0  0
   34.3988   45.8353    8.0393 C   0  0  0  0  0  0  0  0  0  0  0  0
   34.8910   45.4418    6.7096 C   0  0  0  0  0  0  0  0  0  0  0  0
   33.9863   45.7171    5.2361 Cl  0  0  0  0  0  0  0  0  0  0  0  0
 25 26  1  0  0  0
 26 27  1  0  0  0
 26 31  2  0  0  0
 27 28  2  0  0  0
 28 29  1  0  0  0
 29 30  1  0  0  0
 29 32  2  0  0  0
 31 32  1  0  0  0
 31 23  1  0  0  0
 32 33  1  0  0  0
 23 24  1  0  0  0
 23 22  1  0  0  0
 22  1  1  0  0  0
  1  2  2  0  0  0
  1  3  1  0  0  0
  2  7  1  0  0  0
  3  4  1  0  0  0
  3  5  2  0  0  0
  5  6  1  0  0  0
  6  7  2  0  0  0
  7 10  1  0  0  0
 10 11  1  0  0  0
 10 12  2  0  0  0
 11 14  2  0  0  0
 12 13  1  0  0  0
 13 14  1  0  0  0
 13 15  1  0  0  0
 15 16  1  0  0  0
 15 20  1  0  0  0
 16 17  1  0  0  0
 17 18  1  0  0  0
 18 19  1  0  0  0
 19 20  1  0  0  0
  4  8  1  0  0  0
  4  9  1  0  0  0
 18 21  1  0  0  0
M  END
> <minimizedAffinity>
-7.69144

$$$$
2YFX_VGH_A_9000


 33 36  0  0  0  0  0  0  0  0999 V2000
   30.8041   48.6135    7.3185 C   0  0  0  0  0  0  0  0  0  0  0  0
   29.3874   48.3901    7.4101 C   0  0  0  0  0  0  0  0  0  0  0  0
   31.2110   49.7536    6.5500 C   0  0  0  0  0  0  0  0  0  0  0  0
   32.5868   50.0363    6.4239 N   0  0  0  0  0  0  0  0  0  0  0  0
   30.3520   50.6014    5.9285 N   0  0  0  0  0  0  0  0  0  0  0  0
   29.0148   50.3608    6.0341 C   0  0  0  0  0  0  0  0  0  0  0  0
   28.4648   49.2615    6.7650 C   0  0  0  0  0  0  0  0  0  0  0  0
   33.2511   49.4520    6.8558 H   0  0  0  0  0  0  0  0  0  0  0  0
   32.8831   50.8181    5.9039 H   0  0  0  0  0  0  0  0  0  0  0  0
   26.9696   49.0199    6.8677 C   0  0  0  0  0  0  0  0  0  0  0  0
   26.2808   47.9427    7.5862 C   0  0  0  0  0  0  0  0  0  0  0  0
   25.9524   49.7776    6.3014 C   0  0  0  0  0  0  0  0  0  0  0  0
   24.7726   49.1256    6.7079 N   0  0  0  0  0  0  0  0  0  0  0  0
   25.0098   48.0876    7.4357 N   0  0  0  0  0  0  0  0  0  0  0  0
   23.3942   49.5481    6.3631 C   0  0  0  0  0  0  0  0  0  0  0  0
   22.3645   48.5894    6.9955 C   0  0  0  0  0  0  0  0  0  0  0  0
   20.9365   49.0500    6.6216 C   0  0  0  0  0  0  0  0  0  0  0  0
   20.7483   49.1654    5.1461 N   0  0  0  0  0  0  0  0  0  0  0  0
   21.7601   50.0515    4.5036 C   0  0  0  0  0  0  0  0  0  0  0  0
   23.2063   49.6118    4.8269 C   0  0  0  0  0  0  0  0  0  0  0  0
   19.8195   49.5457    4.9646 H   0  0  0  0  0  0  0  0  0  0  0  0
   31.7885   47.8313    7.9319 O   0  0  0  0  0  0  0  0  0  0  0  0
   32.3978   46.6144    7.3711 C   0  0  0  0  0  0  0  0  0  0  0  0
   31.6567   46.3442    6.0515 C   0  0  0  0  0  0  0  0  0  0  0  0
   35.0853   45.6582    8.7906 Cl  0  0  0  0  0  0  0  0  0  0  0  0
   33.5383   44.8827    8.9640 C   0  0  0  0  0  0  0  0  0  0  0  0
   33.4917   43.7346    9.8055 C   0  0  0  0  0  0  0  0  0  0  0  0
   32.2812   43.0275   10.0138 C   0  0  0  0  0  0  0  0  0  0  0  0
   31.0797   43.4513    9.3858 C   0  0  0  0  0  0  0  0  0  0  0  0
   29.9525   42.7535    9.6062 F   0  0  0  0  0  0  0  0  0  0  0  0
   32.3311   45.3517    8.3007 C   0  0  0  0  0  0  0  0  0  0  0  0
   31.0832   44.6066    8.5301 C   0  0  0  0  0  0  0  0  0  0  0  0
   29.5551   45.0554    7.8028 Cl  0  0  0  0  0  0  0  0  0  0  0  0
 25 26  1  0  0  0
 26 27  1  0  0  0
 26 31  2  0  0  0
 27 28  2  0  0  0
 28 29  1  0  0  0
 29 30  1  0  0  0
 29 32  2  0  0  0
 31 32  1  0  0  0
 31 23  1  0  0  0
 32 33  1  0  0  0
 23 24  1  0  0  0
 23 22  1  0  0  0
 22  1  1  0  0  0
  1  2  2  0  0  0
  1  3  1  0  0  0
  2  7  1  0  0  0
  3  4  1  0  0  0
  3  5  2  0  0  0
  5  6  1  0  0  0
  6  7  2  0  0  0
  7 10  1  0  0  0
 10 11  1  0  0  0
 10 12  2  0  0  0
 11 14  2  0  0  0
 12 13  1  0  0  0
 13 14  1  0  0  0
 13 15  1  0  0  0
 15 16  1  0  0  0
 15 20  1  0  0  0
 16 17  1  0  0  0
 17 18  1  0  0  0
 18 19  1  0  0  0
 19 20  1  0  0  0
  4  8  1  0  0  0
  4  9  1  0  0  0
 18 21  1  0  0  0
M  END
> <minimizedAffinity>
-7.62607

$$$$
2YFX_VGH_A_9000


 33 36  0  0  0  0  0  0  0  0999 V2000
   33.0769   44.8498    8.3266 C   0  0  0  0  0  0  0  0  0  0  0  0
   31.8636   45.6039    8.1695 C   0  0  0  0  0  0  0  0  0  0  0  0
   32.9335   43.5429    8.8988 C   0  0  0  0  0  0  0  0  0  0  0  0
   34.0829   42.7450    9.0756 N   0  0  0  0  0  0  0  0  0  0  0  0
   31.7486   43.0039    9.2840 N   0  0  0  0  0  0  0  0  0  0  0  0
   30.6169   43.7456    9.1224 C   0  0  0  0  0  0  0  0  0  0  0  0
   30.6082   45.0641    8.5685 C   0  0  0  0  0  0  0  0  0  0  0  0
   34.9666   43.0897    8.8122 H   0  0  0  0  0  0  0  0  0  0  0  0
   34.0014   41.8434    9.4625 H   0  0  0  0  0  0  0  0  0  0  0  0
   29.3307   45.8662    8.3978 C   0  0  0  0  0  0  0  0  0  0  0  0
   27.9708   45.4848    8.7930 C   0  0  0  0  0  0  0  0  0  0  0  0
   29.1970   47.1285    7.8336 C   0  0  0  0  0  0  0  0  0  0  0  0
   27.8194   47.4025    7.9300 N   0  0  0  0  0  0  0  0  0  0  0  0
   27.1633   46.4387    8.4814 N   0  0  0  0  0  0  0  0  0  0  0  0
   27.1549   48.6433    7.4646 C   0  0  0  0  0  0  0  0  0  0  0  0
   25.6509   48.3921    7.2318 C   0  0  0  0  0  0  0  0  0  0  0  0
   24.9809   49.6988    6.7470 C   0  0  0  0  0  0  0  0  0  0  0  0
   25.6416   50.2547    5.5304 N   0  0  0  0  0  0  0  0  0  0  0  0
   27.1059   50.4642    5.7145 C   0  0  0  0  0  0  0  0  0  0  0  0
   27.8242   49.1744    6.1727 C   0  0  0  0  0  0  0  0  0  0  0  0
   25.2097   51.1509    5.3055 H   0  0  0  0  0  0  0  0  0  0  0  0
   34.3527   45.2800    7.9468 O   0  0  0  0  0  0  0  0  0  0  0  0
   35.4010   45.7777    8.8523 C   0  0  0  0  0  0  0  0  0  0  0  0
   34.6772   46.1941   10.1432 C   0  0  0  0  0  0  0  0  0  0  0  0
   38.5740   45.4892    8.8312 Cl  0  0  0  0  0  0  0  0  0  0  0  0
   37.6980   46.8823    8.2689 C   0  0  0  0  0  0  0  0  0  0  0  0
   38.4761   47.9651    7.7682 C   0  0  0  0  0  0  0  0  0  0  0  0
   37.8615   49.1479    7.2868 C   0  0  0  0  0  0  0  0  0  0  0  0
   36.4472   49.2805    7.2912 C   0  0  0  0  0  0  0  0  0  0  0  0
   35.9018   50.4183    6.8285 F   0  0  0  0  0  0  0  0  0  0  0  0
   36.2461   46.9756    8.2921 C   0  0  0  0  0  0  0  0  0  0  0  0
   35.6252   48.2100    7.7865 C   0  0  0  0  0  0  0  0  0  0  0  0
   33.8930   48.4623    7.7495 Cl  0  0  0  0  0  0  0  0  0  0  0  0
 25 26  1  0  0  0
 26 27  1  0  0  0
 26 31  2  0  0  0
 27 28  2  0  0  0
 28 29  1  0  0  0
 29 30  1  0  0  0
 29 32  2  0  0  0
 31 32  1  0  0  0
 31 23  1  0  0  0
 32 33  1  0  0  0
 23 24  1  0  0  0
 23 22  1  0  0  0
 22  1  1  0  0  0
  1  2  2  0  0  0
  1  3  1  0  0  0
  2  7  1  0  0  0
  3  4  1  0  0  0
  3  5  2  0  0  0
  5  6  1  0  0  0
  6  7  2  0  0  0
  7 10  1  0  0  0
 10 11  1  0  0  0
 10 12  2  0  0  0
 11 14  2  0  0  0
 12 13  1  0  0  0
 13 14  1  0  0  0
 13 15  1  0  0  0
 15 16  1  0  0  0
 15 20  1  0  0  0
 16 17  1  0  0  0
 17 18  1  0  0  0
 18 19  1  0  0  0
 19 20  1  0  0  0
  4  8  1  0  0  0
  4  9  1  0  0  0
 18 21  1  0  0  0
M  END
> <minimizedAffinity>
-7.44606

$$$$
2YFX_VGH_A_9000


 33 36  0  0  0  0  0  0  0  0999 V2000
   30.1374   44.9655    8.9050 C   0  0  0  0  0  0  0  0  0  0  0  0
   29.7410   46.1385    8.1753 C   0  0  0  0  0  0  0  0  0  0  0  0
   29.1036   44.3142    9.6553 C   0  0  0  0  0  0  0  0  0  0  0  0
   29.4211   43.1530   10.3898 N   0  0  0  0  0  0  0  0  0  0  0  0
   27.8147   44.7377    9.7060 N   0  0  0  0  0  0  0  0  0  0  0  0
   27.4719   45.8540    9.0035 C   0  0  0  0  0  0  0  0  0  0  0  0
   28.3970   46.6064    8.2141 C   0  0  0  0  0  0  0  0  0  0  0  0
   30.3418   42.8046   10.3860 H   0  0  0  0  0  0  0  0  0  0  0  0
   28.7220   42.6908   10.9064 H   0  0  0  0  0  0  0  0  0  0  0  0
   27.9856   47.8453    7.4393 C   0  0  0  0  0  0  0  0  0  0  0  0
   26.6854   48.5237    7.4542 C   0  0  0  0  0  0  0  0  0  0  0  0
   28.7646   48.5875    6.5607 C   0  0  0  0  0  0  0  0  0  0  0  0
   27.9081   49.6189    6.1310 N   0  0  0  0  0  0  0  0  0  0  0  0
   26.7368   49.5406    6.6652 N   0  0  0  0  0  0  0  0  0  0  0  0
   28.2682   50.6935    5.1754 C   0  0  0  0  0  0  0  0  0  0  0  0
   27.7258   50.3656    3.7691 C   0  0  0  0  0  0  0  0  0  0  0  0
   28.1142   51.4993    2.7917 C   0  0  0  0  0  0  0  0  0  0  0  0
   29.5850   51.7480    2.7709 N   0  0  0  0  0  0  0  0  0  0  0  0
   30.1424   52.0228    4.1258 C   0  0  0  0  0  0  0  0  0  0  0  0
   29.8027   50.8999    5.1323 C   0  0  0  0  0  0  0  0  0  0  0  0
   29.7712   52.5527    2.1723 H   0  0  0  0  0  0  0  0  0  0  0  0
   31.4229   44.4136    8.9142 O   0  0  0  0  0  0  0  0  0  0  0  0
   32.2830   44.2092    7.7374 C   0  0  0  0  0  0  0  0  0  0  0  0
   32.7860   42.7595    7.8321 C   0  0  0  0  0  0  0  0  0  0  0  0
   32.3623   46.1974    5.2489 Cl  0  0  0  0  0  0  0  0  0  0  0  0
   33.5684   46.1203    6.4995 C   0  0  0  0  0  0  0  0  0  0  0  0
   34.6666   47.0195    6.3820 C   0  0  0  0  0  0  0  0  0  0  0  0
   35.7051   47.0376    7.3463 C   0  0  0  0  0  0  0  0  0  0  0  0
   35.6731   46.1555    8.4591 C   0  0  0  0  0  0  0  0  0  0  0  0
   36.6773   46.2012    9.3511 F   0  0  0  0  0  0  0  0  0  0  0  0
   33.4955   45.1992    7.6234 C   0  0  0  0  0  0  0  0  0  0  0  0
   34.5812   45.2334    8.6160 C   0  0  0  0  0  0  0  0  0  0  0  0
   34.6257   44.1880   10.0197 Cl  0  0  0  0  0  0  0  0  0  0  0  0
 25 26  1  0  0  0
 26 27  1  0  0  0
 26 31  2  0  0  0
 27 28  2  0  0  0
 28 29  1  0  0  0
 29 30  1  0  0  0
 29 32  2  0  0  0
 31 32  1  0  0  0
 31 23  1  0  0  0
 32 33  1  0  0  0
 23 24  1  0  0  0
 23 22  1  0  0  0
 22  1  1  0  0  0
  1  2  2  0  0  0
  1  3  1  0  0  0
  2  7  1  0  0  0
  3  4  1  0  0  0
  3  5  2  0  0  0
  5  6  1  0  0  0
  6  7  2  0  0  0
  7 10  1  0  0  0
 10 11  1  0  0  0
 10 12  2  0  0  0
 11 14  2  0  0  0
 12 13  1  0  0  0
 13 14  1  0  0  0
 13 15  1  0  0  0
 15 16  1  0  0  0
 15 20  1  0  0  0
 16 17  1  0  0  0
 17 18  1  0  0  0
 18 19  1  0  0  0
 19 20  1  0  0  0
  4  8  1  0  0  0
  4  9  1  0  0  0
 18 21  1  0  0  0
M  END
> <minimizedAffinity>
-7.43620

$$$$
2YFX_VGH_A_9000


 33 36  0  0  0  0  0  0  0  0999 V2000
   30.6424   45.6199    7.2604 C   0  0  0  0  0  0  0  0  0  0  0  0
   30.0782   46.9096    6.9711 C   0  0  0  0  0  0  0  0  0  0  0  0
   29.8776   44.7832    8.1383 C   0  0  0  0  0  0  0  0  0  0  0  0
   30.3691   43.5010    8.4598 N   0  0  0  0  0  0  0  0  0  0  0  0
   28.6884   45.1388    8.6882 N   0  0  0  0  0  0  0  0  0  0  0  0
   28.1815   46.3692    8.3945 C   0  0  0  0  0  0  0  0  0  0  0  0
   28.8346   47.3093    7.5373 C   0  0  0  0  0  0  0  0  0  0  0  0
   31.2273   43.1951    8.0868 H   0  0  0  0  0  0  0  0  0  0  0  0
   29.8540   42.9119    9.0572 H   0  0  0  0  0  0  0  0  0  0  0  0
   28.2442   48.6726    7.2256 C   0  0  0  0  0  0  0  0  0  0  0  0
   26.8740   49.1354    7.4694 C   0  0  0  0  0  0  0  0  0  0  0  0
   28.8895   49.7586    6.6479 C   0  0  0  0  0  0  0  0  0  0  0  0
   27.8976   50.7562    6.5917 N   0  0  0  0  0  0  0  0  0  0  0  0
   26.7687   50.3552    7.0692 N   0  0  0  0  0  0  0  0  0  0  0  0
   28.0842   52.1249    6.0538 C   0  0  0  0  0  0  0  0  0  0  0  0
   29.5826   52.4136    5.8281 C   0  0  0  0  0  0  0  0  0  0  0  0
   29.7512   53.8453    5.2682 C   0  0  0  0  0  0  0  0  0  0  0  0
   29.1179   54.8729    6.1449 N   0  0  0  0  0  0  0  0  0  0  0  0
   27.6793   54.5920    6.4159 C   0  0  0  0  0  0  0  0  0  0  0  0
   27.4643   53.1789    7.0046 C   0  0  0  0  0  0  0  0  0  0  0  0
   29.1922   55.7818    5.6881 H   0  0  0  0  0  0  0  0  0  0  0  0
   31.8427   45.1257    6.7387 O   0  0  0  0  0  0  0  0  0  0  0  0
   33.1848   45.6746    6.9919 C   0  0  0  0  0  0  0  0  0  0  0  0
   34.0628   45.1902    5.8265 C   0  0  0  0  0  0  0  0  0  0  0  0
   34.1289   47.9886    8.9682 Cl  0  0  0  0  0  0  0  0  0  0  0  0
   34.2691   46.2856    9.2914 C   0  0  0  0  0  0  0  0  0  0  0  0
   34.8551   45.9194   10.5368 C   0  0  0  0  0  0  0  0  0  0  0  0
   35.0177   44.5586   10.8981 C   0  0  0  0  0  0  0  0  0  0  0  0
   34.5957   43.5232   10.0220 C   0  0  0  0  0  0  0  0  0  0  0  0
   34.7687   42.2449   10.3992 F   0  0  0  0  0  0  0  0  0  0  0  0
   33.8231   45.2573    8.3635 C   0  0  0  0  0  0  0  0  0  0  0  0
   33.9977   43.8500    8.7561 C   0  0  0  0  0  0  0  0  0  0  0  0
   33.5060   42.5080    7.7449 Cl  0  0  0  0  0  0  0  0  0  0  0  0
 25 26  1  0  0  0
 26 27  1  0  0  0
 26 31  2  0  0  0
 27 28  2  0  0  0
 28 29  1  0  0  0
 29 30  1  0  0  0
 29 32  2  0  0  0
 31 32  1  0  0  0
 31 23  1  0  0  0
 32 33  1  0  0  0
 23 24  1  0  0  0
 23 22  1  0  0  0
 22  1  1  0  0  0
  1  2  2  0  0  0
  1  3  1  0  0  0
  2  7  1  0  0  0
  3  4  1  0  0  0
  3  5  2  0  0  0
  5  6  1  0  0  0
  6  7  2  0  0  0
  7 10  1  0  0  0
 10 11  1  0  0  0
 10 12  2  0  0  0
 11 14  2  0  0  0
 12 13  1  0  0  0
 13 14  1  0  0  0
 13 15  1  0  0  0
 15 16  1  0  0  0
 15 20  1  0  0  0
 16 17  1  0  0  0
 17 18  1  0  0  0
 18 19  1  0  0  0
 19 20  1  0  0  0
  4  8  1  0  0  0
  4  9  1  0  0  0
 18 21  1  0  0  0
M  END
> <minimizedAffinity>
-7.42862

$$$$
