2BFR_ADP_A_1193


 34 36  0  0  0  0  0  0  0  0999 V2000
   13.2010   78.9631   -3.1068 C   0  0  0  0  0  0  0  0  0  0  0  0
   13.9827   79.0896   -1.8846 O   0  0  0  0  0  0  0  0  0  0  0  0
   12.9319   80.4280   -3.5595 C   0  0  0  0  0  0  0  0  0  0  0  0
   11.5252   80.7089   -3.3733 O   0  0  0  0  0  0  0  0  0  0  0  0
   13.9041   81.2395   -2.6854 C   0  0  0  0  0  0  0  0  0  0  0  0
   13.4499   82.5741   -2.4068 O   0  0  0  0  0  0  0  0  0  0  0  0
   13.9709   80.4169   -1.4020 C   0  0  0  0  0  0  0  0  0  0  0  0
   11.2779   80.5258   -2.4534 H   0  0  0  0  0  0  0  0  0  0  0  0
   12.5899   82.5362   -1.9598 H   0  0  0  0  0  0  0  0  0  0  0  0
   15.2252   80.6657   -0.5818 N   0  0  0  0  0  0  0  0  0  0  0  0
   16.3692   81.3122   -0.9536 C   0  0  0  0  0  0  0  0  0  0  0  0
   17.2958   81.3608    0.0250 N   0  0  0  0  0  0  0  0  0  0  0  0
   16.7039   80.7091    1.0629 C   0  0  0  0  0  0  0  0  0  0  0  0
   17.1755   80.4165    2.4146 C   0  0  0  0  0  0  0  0  0  0  0  0
   18.3197   80.7426    2.9096 N   0  0  0  0  0  0  0  0  0  0  0  0
   16.2593   79.7170    3.1943 N   0  0  0  0  0  0  0  0  0  0  0  0
   15.0010   79.3260    2.7382 C   0  0  0  0  0  0  0  0  0  0  0  0
   14.5528   79.5872    1.5020 N   0  0  0  0  0  0  0  0  0  0  0  0
   15.4215   80.2702    0.7094 C   0  0  0  0  0  0  0  0  0  0  0  0
   18.9704   81.2374    2.3611 H   0  0  0  0  0  0  0  0  0  0  0  0
   18.5432   80.4968    3.8364 H   0  0  0  0  0  0  0  0  0  0  0  0
   13.9637   78.0698   -4.0961 C   0  0  0  0  0  0  0  0  0  0  0  0
   14.3338   78.7494   -5.3398 O   0  0  0  0  0  0  0  0  0  0  0  0
   15.8521   78.9053   -5.7922 P   0  0  0  0  0  0  0  0  0  0  0  0
   16.6171   78.8600   -4.4894 O   0  0  0  0  0  0  0  0  0  0  0  0
   16.1338   80.1107   -6.6583 O   0  0  0  0  0  0  0  0  0  0  0  0
   17.0760   80.1307   -6.8880 H   0  0  0  0  0  0  0  0  0  0  0  0
   16.1320   77.5764   -6.5822 O   0  0  0  0  0  0  0  0  0  0  0  0
   15.4622   76.9889   -7.9099 P   0  0  0  0  0  0  0  0  0  0  0  0
   14.9373   75.6593   -7.5122 O   0  0  0  0  0  0  0  0  0  0  0  0
   16.5767   76.9232   -8.9195 O   0  0  0  0  0  0  0  0  0  0  0  0
   14.2980   77.9650   -8.3514 O   0  0  0  0  0  0  0  0  0  0  0  0
   16.2347   76.5716   -9.7563 H   0  0  0  0  0  0  0  0  0  0  0  0
   13.8786   77.6245   -9.1571 H   0  0  0  0  0  0  0  0  0  0  0  0
 29 30  2  0  0  0
 29 31  1  0  0  0
 29 32  1  0  0  0
 29 28  1  0  0  0
 24 25  2  0  0  0
 24 26  1  0  0  0
 24 28  1  0  0  0
 24 23  1  0  0  0
 23 22  1  0  0  0
 22  1  1  0  0  0
  1  2  1  0  0  0
  1  3  1  0  0  0
  2  7  1  0  0  0
  3  4  1  0  0  0
  3  5  1  0  0  0
  5  6  1  0  0  0
  5  7  1  0  0  0
  7 10  1  0  0  0
 10 11  1  0  0  0
 10 19  1  0  0  0
 11 12  2  0  0  0
 12 13  1  0  0  0
 13 14  1  0  0  0
 13 19  2  0  0  0
 14 15  1  0  0  0
 14 16  2  0  0  0
 16 17  1  0  0  0
 17 18  2  0  0  0
 18 19  1  0  0  0
 31 33  1  0  0  0
 32 34  1  0  0  0
 26 27  1  0  0  0
  4  8  1  0  0  0
  6  9  1  0  0  0
 15 20  1  0  0  0
 15 21  1  0  0  0
M  END
> <minimizedAffinity>
-9.62503

$$$$
2BFR_ADP_A_1193


 34 36  0  0  0  0  0  0  0  0999 V2000
   13.6156   78.8000   -3.4531 C   0  0  0  0  0  0  0  0  0  0  0  0
   14.2683   78.9559   -2.1607 O   0  0  0  0  0  0  0  0  0  0  0  0
   13.3334   80.2536   -3.9334 C   0  0  0  0  0  0  0  0  0  0  0  0
   11.9050   80.4774   -3.8863 O   0  0  0  0  0  0  0  0  0  0  0  0
   14.1820   81.1022   -2.9703 C   0  0  0  0  0  0  0  0  0  0  0  0
   13.6493   82.4169   -2.7406 O   0  0  0  0  0  0  0  0  0  0  0  0
   14.1559   80.2808   -1.6846 C   0  0  0  0  0  0  0  0  0  0  0  0
   11.5765   80.2830   -2.9946 H   0  0  0  0  0  0  0  0  0  0  0  0
   12.7519   82.3437   -2.3797 H   0  0  0  0  0  0  0  0  0  0  0  0
   15.3130   80.5786   -0.7462 N   0  0  0  0  0  0  0  0  0  0  0  0
   16.4467   81.2975   -0.9968 C   0  0  0  0  0  0  0  0  0  0  0  0
   17.2752   81.3730    0.0647 N   0  0  0  0  0  0  0  0  0  0  0  0
   16.6293   80.6631    1.0296 C   0  0  0  0  0  0  0  0  0  0  0  0
   16.9909   80.3630    2.4132 C   0  0  0  0  0  0  0  0  0  0  0  0
   18.0639   80.7400    3.0191 N   0  0  0  0  0  0  0  0  0  0  0  0
   16.0492   79.5937    3.0899 N   0  0  0  0  0  0  0  0  0  0  0  0
   14.8630   79.1445    2.5108 C   0  0  0  0  0  0  0  0  0  0  0  0
   14.5159   79.4115    1.2437 N   0  0  0  0  0  0  0  0  0  0  0  0
   15.4125   80.1621    0.5493 C   0  0  0  0  0  0  0  0  0  0  0  0
   18.7324   81.2844    2.5436 H   0  0  0  0  0  0  0  0  0  0  0  0
   18.2152   80.4837    3.9576 H   0  0  0  0  0  0  0  0  0  0  0  0
   14.5067   77.9398   -4.3611 C   0  0  0  0  0  0  0  0  0  0  0  0
   14.0387   77.8651   -5.7471 O   0  0  0  0  0  0  0  0  0  0  0  0
   14.9954   77.4042   -6.9331 P   0  0  0  0  0  0  0  0  0  0  0  0
   14.3895   78.0596   -8.1529 O   0  0  0  0  0  0  0  0  0  0  0  0
   15.1946   75.9105   -7.0414 O   0  0  0  0  0  0  0  0  0  0  0  0
   15.7868   75.7164   -7.7847 H   0  0  0  0  0  0  0  0  0  0  0  0
   16.3528   78.1228   -6.6023 O   0  0  0  0  0  0  0  0  0  0  0  0
   17.8592   77.5897   -6.6613 P   0  0  0  0  0  0  0  0  0  0  0  0
   18.6508   78.7463   -7.1485 O   0  0  0  0  0  0  0  0  0  0  0  0
   17.8307   76.4284   -7.6185 O   0  0  0  0  0  0  0  0  0  0  0  0
   18.2916   77.1637   -5.2003 O   0  0  0  0  0  0  0  0  0  0  0  0
   18.7222   76.0552   -7.7006 H   0  0  0  0  0  0  0  0  0  0  0  0
   19.2048   76.8368   -5.2157 H   0  0  0  0  0  0  0  0  0  0  0  0
 29 30  2  0  0  0
 29 31  1  0  0  0
 29 32  1  0  0  0
 29 28  1  0  0  0
 24 25  2  0  0  0
 24 26  1  0  0  0
 24 28  1  0  0  0
 24 23  1  0  0  0
 23 22  1  0  0  0
 22  1  1  0  0  0
  1  2  1  0  0  0
  1  3  1  0  0  0
  2  7  1  0  0  0
  3  4  1  0  0  0
  3  5  1  0  0  0
  5  6  1  0  0  0
  5  7  1  0  0  0
  7 10  1  0  0  0
 10 11  1  0  0  0
 10 19  1  0  0  0
 11 12  2  0  0  0
 12 13  1  0  0  0
 13 14  1  0  0  0
 13 19  2  0  0  0
 14 15  1  0  0  0
 14 16  2  0  0  0
 16 17  1  0  0  0
 17 18  2  0  0  0
 18 19  1  0  0  0
 31 33  1  0  0  0
 32 34  1  0  0  0
 26 27  1  0  0  0
  4  8  1  0  0  0
  6  9  1  0  0  0
 15 20  1  0  0  0
 15 21  1  0  0  0
M  END
> <minimizedAffinity>
-9.44497

$$$$
2BFR_ADP_A_1193


 34 36  0  0  0  0  0  0  0  0999 V2000
   14.3089   79.7837   -3.9300 C   0  0  0  0  0  0  0  0  0  0  0  0
   14.6821   79.3310   -2.5971 O   0  0  0  0  0  0  0  0  0  0  0  0
   13.4341   81.0487   -3.6893 C   0  0  0  0  0  0  0  0  0  0  0  0
   12.0683   80.7293   -4.0430 O   0  0  0  0  0  0  0  0  0  0  0  0
   13.6914   81.3643   -2.2055 C   0  0  0  0  0  0  0  0  0  0  0  0
   12.5897   82.0217   -1.5580 O   0  0  0  0  0  0  0  0  0  0  0  0
   13.9211   79.9821   -1.6014 C   0  0  0  0  0  0  0  0  0  0  0  0
   11.7803   79.9471   -3.5469 H   0  0  0  0  0  0  0  0  0  0  0  0
   11.7977   81.4655   -1.6232 H   0  0  0  0  0  0  0  0  0  0  0  0
   14.7078   80.0067   -0.3019 N   0  0  0  0  0  0  0  0  0  0  0  0
   14.3818   79.4449    0.8993 C   0  0  0  0  0  0  0  0  0  0  0  0
   15.3109   79.6531    1.8545 N   0  0  0  0  0  0  0  0  0  0  0  0
   16.2673   80.3851    1.2207 C   0  0  0  0  0  0  0  0  0  0  0  0
   17.5358   80.9339    1.6947 C   0  0  0  0  0  0  0  0  0  0  0  0
   18.0182   80.8201    2.8842 N   0  0  0  0  0  0  0  0  0  0  0  0
   18.2457   81.6363    0.7255 N   0  0  0  0  0  0  0  0  0  0  0  0
   17.7976   81.8069   -0.5839 C   0  0  0  0  0  0  0  0  0  0  0  0
   16.6373   81.3094   -1.0349 N   0  0  0  0  0  0  0  0  0  0  0  0
   15.9145   80.6158   -0.1153 C   0  0  0  0  0  0  0  0  0  0  0  0
   17.5188   80.3239    3.5725 H   0  0  0  0  0  0  0  0  0  0  0  0
   18.8860   81.2293    3.1047 H   0  0  0  0  0  0  0  0  0  0  0  0
   15.5830   79.9809   -4.7645 C   0  0  0  0  0  0  0  0  0  0  0  0
   16.5726   78.9151   -4.5908 O   0  0  0  0  0  0  0  0  0  0  0  0
   17.1987   78.1396   -5.8321 P   0  0  0  0  0  0  0  0  0  0  0  0
   18.4092   77.4498   -5.2459 O   0  0  0  0  0  0  0  0  0  0  0  0
   17.4761   79.0010   -7.0419 O   0  0  0  0  0  0  0  0  0  0  0  0
   17.8541   78.4542   -7.7483 H   0  0  0  0  0  0  0  0  0  0  0  0
   16.1147   77.0513   -6.1623 O   0  0  0  0  0  0  0  0  0  0  0  0
   14.8436   77.1021   -7.1310 P   0  0  0  0  0  0  0  0  0  0  0  0
   14.7626   75.7428   -7.7202 O   0  0  0  0  0  0  0  0  0  0  0  0
   15.1540   78.1801   -8.1346 O   0  0  0  0  0  0  0  0  0  0  0  0
   13.5673   77.4337   -6.2568 O   0  0  0  0  0  0  0  0  0  0  0  0
   14.4159   78.2635   -8.7583 H   0  0  0  0  0  0  0  0  0  0  0  0
   12.7843   77.4689   -6.8283 H   0  0  0  0  0  0  0  0  0  0  0  0
 29 30  2  0  0  0
 29 31  1  0  0  0
 29 32  1  0  0  0
 29 28  1  0  0  0
 24 25  2  0  0  0
 24 26  1  0  0  0
 24 28  1  0  0  0
 24 23  1  0  0  0
 23 22  1  0  0  0
 22  1  1  0  0  0
  1  2  1  0  0  0
  1  3  1  0  0  0
  2  7  1  0  0  0
  3  4  1  0  0  0
  3  5  1  0  0  0
  5  6  1  0  0  0
  5  7  1  0  0  0
  7 10  1  0  0  0
 10 11  1  0  0  0
 10 19  1  0  0  0
 11 12  2  0  0  0
 12 13  1  0  0  0
 13 14  1  0  0  0
 13 19  2  0  0  0
 14 15  1  0  0  0
 14 16  2  0  0  0
 16 17  1  0  0  0
 17 18  2  0  0  0
 18 19  1  0  0  0
 31 33  1  0  0  0
 32 34  1  0  0  0
 26 27  1  0  0  0
  4  8  1  0  0  0
  6  9  1  0  0  0
 15 20  1  0  0  0
 15 21  1  0  0  0
M  END
> <minimizedAffinity>
-9.36867

$$$$
2BFR_ADP_A_1193


 34 36  0  0  0  0  0  0  0  0999 V2000
   16.8038   76.8999   -7.7527 C   0  0  0  0  0  0  0  0  0  0  0  0
   17.0158   77.8766   -6.6935 O   0  0  0  0  0  0  0  0  0  0  0  0
   15.2686   76.6413   -7.7529 C   0  0  0  0  0  0  0  0  0  0  0  0
   15.0345   75.3015   -7.2604 O   0  0  0  0  0  0  0  0  0  0  0  0
   14.7295   77.7864   -6.8778 C   0  0  0  0  0  0  0  0  0  0  0  0
   13.5137   77.4578   -6.1858 O   0  0  0  0  0  0  0  0  0  0  0  0
   15.8657   78.0167   -5.8858 C   0  0  0  0  0  0  0  0  0  0  0  0
   15.4544   75.1982   -6.3921 H   0  0  0  0  0  0  0  0  0  0  0  0
   13.6615   76.6817   -5.6231 H   0  0  0  0  0  0  0  0  0  0  0  0
   15.8570   79.4000   -5.2577 N   0  0  0  0  0  0  0  0  0  0  0  0
   16.3283   80.5718   -5.7770 C   0  0  0  0  0  0  0  0  0  0  0  0
   16.1599   81.6258   -4.9525 N   0  0  0  0  0  0  0  0  0  0  0  0
   15.5545   81.0870   -3.8591 C   0  0  0  0  0  0  0  0  0  0  0  0
   15.1021   81.6929   -2.6088 C   0  0  0  0  0  0  0  0  0  0  0  0
   15.2001   82.9365   -2.2856 N   0  0  0  0  0  0  0  0  0  0  0  0
   14.5192   80.7924   -1.7223 N   0  0  0  0  0  0  0  0  0  0  0  0
   14.3732   79.4321   -1.9920 C   0  0  0  0  0  0  0  0  0  0  0  0
   14.7818   78.8608   -3.1339 N   0  0  0  0  0  0  0  0  0  0  0  0
   15.3574   79.7102   -4.0264 C   0  0  0  0  0  0  0  0  0  0  0  0
   15.6119   83.5764   -2.9102 H   0  0  0  0  0  0  0  0  0  0  0  0
   14.8632   83.2466   -1.4141 H   0  0  0  0  0  0  0  0  0  0  0  0
   17.4073   77.4403   -9.0573 C   0  0  0  0  0  0  0  0  0  0  0  0
   18.3584   76.5242   -9.6910 O   0  0  0  0  0  0  0  0  0  0  0  0
   19.7003   77.0447  -10.3713 P   0  0  0  0  0  0  0  0  0  0  0  0
   19.2541   78.2590  -11.1530 O   0  0  0  0  0  0  0  0  0  0  0  0
   20.4471   76.0055  -11.1742 O   0  0  0  0  0  0  0  0  0  0  0  0
   21.2474   76.4025  -11.5522 H   0  0  0  0  0  0  0  0  0  0  0  0
   20.5617   77.5264   -9.1489 O   0  0  0  0  0  0  0  0  0  0  0  0
   20.9835   76.7702   -7.8046 P   0  0  0  0  0  0  0  0  0  0  0  0
   20.8515   75.3275   -8.1250 O   0  0  0  0  0  0  0  0  0  0  0  0
   20.0125   77.2503   -6.7594 O   0  0  0  0  0  0  0  0  0  0  0  0
   22.4803   77.1561   -7.4677 O   0  0  0  0  0  0  0  0  0  0  0  0
   20.2146   76.8257   -5.9110 H   0  0  0  0  0  0  0  0  0  0  0  0
   22.7549   76.7060   -6.6535 H   0  0  0  0  0  0  0  0  0  0  0  0
 29 30  2  0  0  0
 29 31  1  0  0  0
 29 32  1  0  0  0
 29 28  1  0  0  0
 24 25  2  0  0  0
 24 26  1  0  0  0
 24 28  1  0  0  0
 24 23  1  0  0  0
 23 22  1  0  0  0
 22  1  1  0  0  0
  1  2  1  0  0  0
  1  3  1  0  0  0
  2  7  1  0  0  0
  3  4  1  0  0  0
  3  5  1  0  0  0
  5  6  1  0  0  0
  5  7  1  0  0  0
  7 10  1  0  0  0
 10 11  1  0  0  0
 10 19  1  0  0  0
 11 12  2  0  0  0
 12 13  1  0  0  0
 13 14  1  0  0  0
 13 19  2  0  0  0
 14 15  1  0  0  0
 14 16  2  0  0  0
 16 17  1  0  0  0
 17 18  2  0  0  0
 18 19  1  0  0  0
 31 33  1  0  0  0
 32 34  1  0  0  0
 26 27  1  0  0  0
  4  8  1  0  0  0
  6  9  1  0  0  0
 15 20  1  0  0  0
 15 21  1  0  0  0
M  END
> <minimizedAffinity>
-9.14617

$$$$
2BFR_ADP_A_1193


 34 36  0  0  0  0  0  0  0  0999 V2000
   16.0871   81.6688   -2.0299 C   0  0  0  0  0  0  0  0  0  0  0  0
   16.1747   80.4313   -2.7926 O   0  0  0  0  0  0  0  0  0  0  0  0
   15.5536   82.7230   -3.0436 C   0  0  0  0  0  0  0  0  0  0  0  0
   16.6221   83.6538   -3.3343 O   0  0  0  0  0  0  0  0  0  0  0  0
   15.0762   81.8540   -4.2203 C   0  0  0  0  0  0  0  0  0  0  0  0
   15.1488   82.5185   -5.4924 O   0  0  0  0  0  0  0  0  0  0  0  0
   16.0382   80.6704   -4.1778 C   0  0  0  0  0  0  0  0  0  0  0  0
   17.4014   83.1653   -3.6425 H   0  0  0  0  0  0  0  0  0  0  0  0
   16.0635   82.7933   -5.6619 H   0  0  0  0  0  0  0  0  0  0  0  0
   15.4995   79.4211   -4.8538 N   0  0  0  0  0  0  0  0  0  0  0  0
   14.3499   78.7362   -4.5813 C   0  0  0  0  0  0  0  0  0  0  0  0
   14.1672   77.6636   -5.3781 N   0  0  0  0  0  0  0  0  0  0  0  0
   15.2593   77.6747   -6.1901 C   0  0  0  0  0  0  0  0  0  0  0  0
   15.6660   76.7833   -7.2742 C   0  0  0  0  0  0  0  0  0  0  0  0
   15.0221   75.7479   -7.6913 N   0  0  0  0  0  0  0  0  0  0  0  0
   16.8709   77.1359   -7.8745 N   0  0  0  0  0  0  0  0  0  0  0  0
   17.6304   78.2389   -7.4861 C   0  0  0  0  0  0  0  0  0  0  0  0
   17.2713   79.0668   -6.4947 N   0  0  0  0  0  0  0  0  0  0  0  0
   16.0976   78.7542   -5.8830 C   0  0  0  0  0  0  0  0  0  0  0  0
   14.1694   75.4954   -7.2690 H   0  0  0  0  0  0  0  0  0  0  0  0
   15.3829   75.2094   -8.4323 H   0  0  0  0  0  0  0  0  0  0  0  0
   15.2284   81.4247   -0.7804 C   0  0  0  0  0  0  0  0  0  0  0  0
   13.9733   80.7214   -1.0555 O   0  0  0  0  0  0  0  0  0  0  0  0
   13.4535   79.5365   -0.1280 P   0  0  0  0  0  0  0  0  0  0  0  0
   13.3758   78.3566   -1.0696 O   0  0  0  0  0  0  0  0  0  0  0  0
   12.1807   79.8367    0.6284 O   0  0  0  0  0  0  0  0  0  0  0  0
   11.9349   79.0675    1.1659 H   0  0  0  0  0  0  0  0  0  0  0  0
   14.6483   79.3048    0.8656 O   0  0  0  0  0  0  0  0  0  0  0  0
   14.6577   78.9760    2.4304 P   0  0  0  0  0  0  0  0  0  0  0  0
   16.0518   79.2406    2.8640 O   0  0  0  0  0  0  0  0  0  0  0  0
   14.2554   77.5292    2.5330 O   0  0  0  0  0  0  0  0  0  0  0  0
   13.6325   79.9451    3.1466 O   0  0  0  0  0  0  0  0  0  0  0  0
   14.2411   77.2629    3.4657 H   0  0  0  0  0  0  0  0  0  0  0  0
   13.6241   79.7604    4.0988 H   0  0  0  0  0  0  0  0  0  0  0  0
 29 30  2  0  0  0
 29 31  1  0  0  0
 29 32  1  0  0  0
 29 28  1  0  0  0
 24 25  2  0  0  0
 24 26  1  0  0  0
 24 28  1  0  0  0
 24 23  1  0  0  0
 23 22  1  0  0  0
 22  1  1  0  0  0
  1  2  1  0  0  0
  1  3  1  0  0  0
  2  7  1  0  0  0
  3  4  1  0  0  0
  3  5  1  0  0  0
  5  6  1  0  0  0
  5  7  1  0  0  0
  7 10  1  0  0  0
 10 11  1  0  0  0
 10 19  1  0  0  0
 11 12  2  0  0  0
 12 13  1  0  0  0
 13 14  1  0  0  0
 13 19  2  0  0  0
 14 15  1  0  0  0
 14 16  2  0  0  0
 16 17  1  0  0  0
 17 18  2  0  0  0
 18 19  1  0  0  0
 31 33  1  0  0  0
 32 34  1  0  0  0
 26 27  1  0  0  0
  4  8  1  0  0  0
  6  9  1  0  0  0
 15 20  1  0  0  0
 15 21  1  0  0  0
M  END
> <minimizedAffinity>
-8.76318

$$$$
2BFR_ADP_A_1193


 34 36  0  0  0  0  0  0  0  0999 V2000
   14.8572   80.1116   -4.4411 C   0  0  0  0  0  0  0  0  0  0  0  0
   15.4445   79.7908   -5.7345 O   0  0  0  0  0  0  0  0  0  0  0  0
   14.0672   78.8330   -4.0356 C   0  0  0  0  0  0  0  0  0  0  0  0
   12.6537   79.1324   -4.1049 O   0  0  0  0  0  0  0  0  0  0  0  0
   14.5845   77.7815   -5.0328 C   0  0  0  0  0  0  0  0  0  0  0  0
   13.6271   76.7522   -5.3315 O   0  0  0  0  0  0  0  0  0  0  0  0
   14.8826   78.6138   -6.2764 C   0  0  0  0  0  0  0  0  0  0  0  0
   12.4375   79.4692   -4.9884 H   0  0  0  0  0  0  0  0  0  0  0  0
   12.8229   77.1544   -5.6953 H   0  0  0  0  0  0  0  0  0  0  0  0
   15.8825   77.9664   -7.2193 N   0  0  0  0  0  0  0  0  0  0  0  0
   15.7074   77.6023   -8.5238 C   0  0  0  0  0  0  0  0  0  0  0  0
   16.8080   77.0517   -9.0756 N   0  0  0  0  0  0  0  0  0  0  0  0
   17.7192   77.0690   -8.0648 C   0  0  0  0  0  0  0  0  0  0  0  0
   19.1079   76.6180   -8.0084 C   0  0  0  0  0  0  0  0  0  0  0  0
   19.7745   76.0816   -8.9721 N   0  0  0  0  0  0  0  0  0  0  0  0
   19.7157   76.8114   -6.7716 N   0  0  0  0  0  0  0  0  0  0  0  0
   19.0685   77.3839   -5.6773 C   0  0  0  0  0  0  0  0  0  0  0  0
   17.7957   77.8036   -5.7124 N   0  0  0  0  0  0  0  0  0  0  0  0
   17.1675   77.6309   -6.9062 C   0  0  0  0  0  0  0  0  0  0  0  0
   19.3478   75.9432   -9.8484 H   0  0  0  0  0  0  0  0  0  0  0  0
   20.7104   75.8102   -8.8319 H   0  0  0  0  0  0  0  0  0  0  0  0
   15.9721   80.5597   -3.4847 C   0  0  0  0  0  0  0  0  0  0  0  0
   15.8381   80.0211   -2.1292 O   0  0  0  0  0  0  0  0  0  0  0  0
   15.3603   80.9256   -0.9093 P   0  0  0  0  0  0  0  0  0  0  0  0
   15.8063   82.3154   -1.3019 O   0  0  0  0  0  0  0  0  0  0  0  0
   15.8349   80.4604    0.4474 O   0  0  0  0  0  0  0  0  0  0  0  0
   15.5017   81.0630    1.1306 H   0  0  0  0  0  0  0  0  0  0  0  0
   13.7933   80.8590   -1.0022 O   0  0  0  0  0  0  0  0  0  0  0  0
   12.7394   79.9307   -0.2378 P   0  0  0  0  0  0  0  0  0  0  0  0
   12.7395   78.6551   -0.9958 O   0  0  0  0  0  0  0  0  0  0  0  0
   11.4335   80.6760   -0.3059 O   0  0  0  0  0  0  0  0  0  0  0  0
   13.2459   79.7246    1.2468 O   0  0  0  0  0  0  0  0  0  0  0  0
   10.7443   80.1625    0.1439 H   0  0  0  0  0  0  0  0  0  0  0  0
   12.6181   79.1626    1.7275 H   0  0  0  0  0  0  0  0  0  0  0  0
 29 30  2  0  0  0
 29 31  1  0  0  0
 29 32  1  0  0  0
 29 28  1  0  0  0
 24 25  2  0  0  0
 24 26  1  0  0  0
 24 28  1  0  0  0
 24 23  1  0  0  0
 23 22  1  0  0  0
 22  1  1  0  0  0
  1  2  1  0  0  0
  1  3  1  0  0  0
  2  7  1  0  0  0
  3  4  1  0  0  0
  3  5  1  0  0  0
  5  6  1  0  0  0
  5  7  1  0  0  0
  7 10  1  0  0  0
 10 11  1  0  0  0
 10 19  1  0  0  0
 11 12  2  0  0  0
 12 13  1  0  0  0
 13 14  1  0  0  0
 13 19  2  0  0  0
 14 15  1  0  0  0
 14 16  2  0  0  0
 16 17  1  0  0  0
 17 18  2  0  0  0
 18 19  1  0  0  0
 31 33  1  0  0  0
 32 34  1  0  0  0
 26 27  1  0  0  0
  4  8  1  0  0  0
  6  9  1  0  0  0
 15 20  1  0  0  0
 15 21  1  0  0  0
M  END
> <minimizedAffinity>
-8.73207

$$$$
2BFR_ADP_A_1193


 34 36  0  0  0  0  0  0  0  0999 V2000
   14.2303   80.5758   -3.2109 C   0  0  0  0  0  0  0  0  0  0  0  0
   15.3733   80.2646   -4.0578 O   0  0  0  0  0  0  0  0  0  0  0  0
   13.1230   79.5758   -3.6550 C   0  0  0  0  0  0  0  0  0  0  0  0
   12.0875   80.3199   -4.3382 O   0  0  0  0  0  0  0  0  0  0  0  0
   13.9022   78.5616   -4.5107 C   0  0  0  0  0  0  0  0  0  0  0  0
   13.1082   77.9460   -5.5382 O   0  0  0  0  0  0  0  0  0  0  0  0
   15.0059   79.4169   -5.1260 C   0  0  0  0  0  0  0  0  0  0  0  0
   12.4802   80.8266   -5.0662 H   0  0  0  0  0  0  0  0  0  0  0  0
   12.7475   78.6312   -6.1223 H   0  0  0  0  0  0  0  0  0  0  0  0
   16.2179   78.6188   -5.5755 N   0  0  0  0  0  0  0  0  0  0  0  0
   17.3346   78.2942   -4.8594 C   0  0  0  0  0  0  0  0  0  0  0  0
   18.2260   77.5670   -5.5632 N   0  0  0  0  0  0  0  0  0  0  0  0
   17.6399   77.4309   -6.7839 C   0  0  0  0  0  0  0  0  0  0  0  0
   18.0848   76.7517   -7.9987 C   0  0  0  0  0  0  0  0  0  0  0  0
   19.1928   76.1116   -8.1514 N   0  0  0  0  0  0  0  0  0  0  0  0
   17.1858   76.8391   -9.0573 N   0  0  0  0  0  0  0  0  0  0  0  0
   15.9664   77.5107   -8.9779 C   0  0  0  0  0  0  0  0  0  0  0  0
   15.5429   78.1379   -7.8712 N   0  0  0  0  0  0  0  0  0  0  0  0
   16.3959   78.0744   -6.8139 C   0  0  0  0  0  0  0  0  0  0  0  0
   19.8313   76.0476   -7.4048 H   0  0  0  0  0  0  0  0  0  0  0  0
   19.4008   75.6865   -9.0147 H   0  0  0  0  0  0  0  0  0  0  0  0
   14.6660   80.5058   -1.7399 C   0  0  0  0  0  0  0  0  0  0  0  0
   13.5720   80.7211   -0.7900 O   0  0  0  0  0  0  0  0  0  0  0  0
   12.9700   79.5326    0.0815 P   0  0  0  0  0  0  0  0  0  0  0  0
   13.6427   78.3024   -0.4832 O   0  0  0  0  0  0  0  0  0  0  0  0
   11.4607   79.4768    0.1188 O   0  0  0  0  0  0  0  0  0  0  0  0
   11.1784   78.7285    0.6677 H   0  0  0  0  0  0  0  0  0  0  0  0
   13.5511   79.8058    1.5154 O   0  0  0  0  0  0  0  0  0  0  0  0
   14.8826   79.2732    2.2226 P   0  0  0  0  0  0  0  0  0  0  0  0
   15.9862   79.9982    1.5457 O   0  0  0  0  0  0  0  0  0  0  0  0
   14.8934   77.7881    1.9782 O   0  0  0  0  0  0  0  0  0  0  0  0
   14.8061   79.6363    3.7606 O   0  0  0  0  0  0  0  0  0  0  0  0
   15.6833   77.3991    2.3853 H   0  0  0  0  0  0  0  0  0  0  0  0
   15.6070   79.3206    4.2076 H   0  0  0  0  0  0  0  0  0  0  0  0
 29 30  2  0  0  0
 29 31  1  0  0  0
 29 32  1  0  0  0
 29 28  1  0  0  0
 24 25  2  0  0  0
 24 26  1  0  0  0
 24 28  1  0  0  0
 24 23  1  0  0  0
 23 22  1  0  0  0
 22  1  1  0  0  0
  1  2  1  0  0  0
  1  3  1  0  0  0
  2  7  1  0  0  0
  3  4  1  0  0  0
  3  5  1  0  0  0
  5  6  1  0  0  0
  5  7  1  0  0  0
  7 10  1  0  0  0
 10 11  1  0  0  0
 10 19  1  0  0  0
 11 12  2  0  0  0
 12 13  1  0  0  0
 13 14  1  0  0  0
 13 19  2  0  0  0
 14 15  1  0  0  0
 14 16  2  0  0  0
 16 17  1  0  0  0
 17 18  2  0  0  0
 18 19  1  0  0  0
 31 33  1  0  0  0
 32 34  1  0  0  0
 26 27  1  0  0  0
  4  8  1  0  0  0
  6  9  1  0  0  0
 15 20  1  0  0  0
 15 21  1  0  0  0
M  END
> <minimizedAffinity>
-8.57514

$$$$
2BFR_ADP_A_1193


 34 36  0  0  0  0  0  0  0  0999 V2000
   14.7703   78.7274   -4.0583 C   0  0  0  0  0  0  0  0  0  0  0  0
   15.8709   79.5325   -3.5472 O   0  0  0  0  0  0  0  0  0  0  0  0
   13.4847   79.4520   -3.5626 C   0  0  0  0  0  0  0  0  0  0  0  0
   12.8597   78.6262   -2.5527 O   0  0  0  0  0  0  0  0  0  0  0  0
   14.0223   80.8124   -3.0848 C   0  0  0  0  0  0  0  0  0  0  0  0
   13.2426   81.4008   -2.0308 O   0  0  0  0  0  0  0  0  0  0  0  0
   15.4224   80.4658   -2.5869 C   0  0  0  0  0  0  0  0  0  0  0  0
   13.5012   78.4316   -1.8516 H   0  0  0  0  0  0  0  0  0  0  0  0
   13.2144   80.7958   -1.2731 H   0  0  0  0  0  0  0  0  0  0  0  0
   16.3707   81.6523   -2.5565 N   0  0  0  0  0  0  0  0  0  0  0  0
   16.5482   82.6225   -3.5011 C   0  0  0  0  0  0  0  0  0  0  0  0
   17.4746   83.5396   -3.1553 N   0  0  0  0  0  0  0  0  0  0  0  0
   17.9020   83.1218   -1.9326 C   0  0  0  0  0  0  0  0  0  0  0  0
   18.8958   83.6756   -1.0156 C   0  0  0  0  0  0  0  0  0  0  0  0
   19.6026   84.7358   -1.2080 N   0  0  0  0  0  0  0  0  0  0  0  0
   19.0501   82.9459    0.1592 N   0  0  0  0  0  0  0  0  0  0  0  0
   18.3266   81.7893    0.4474 C   0  0  0  0  0  0  0  0  0  0  0  0
   17.4110   81.2687   -0.3821 N   0  0  0  0  0  0  0  0  0  0  0  0
   17.2320   81.9551   -1.5424 C   0  0  0  0  0  0  0  0  0  0  0  0
   19.4962   85.2546   -2.0379 H   0  0  0  0  0  0  0  0  0  0  0  0
   20.2491   85.0270   -0.5250 H   0  0  0  0  0  0  0  0  0  0  0  0
   14.9276   78.5755   -5.5783 C   0  0  0  0  0  0  0  0  0  0  0  0
   15.9039   77.5568   -5.9713 O   0  0  0  0  0  0  0  0  0  0  0  0
   16.2012   77.2232   -7.4993 P   0  0  0  0  0  0  0  0  0  0  0  0
   15.2233   78.0975   -8.2502 O   0  0  0  0  0  0  0  0  0  0  0  0
   16.1460   75.7545   -7.8488 O   0  0  0  0  0  0  0  0  0  0  0  0
   16.3377   75.6393   -8.7927 H   0  0  0  0  0  0  0  0  0  0  0  0
   17.6494   77.7918   -7.7180 O   0  0  0  0  0  0  0  0  0  0  0  0
   19.0546   77.3371   -7.1052 P   0  0  0  0  0  0  0  0  0  0  0  0
   20.0520   78.2333   -7.7405 O   0  0  0  0  0  0  0  0  0  0  0  0
   19.2057   75.8906   -7.4930 O   0  0  0  0  0  0  0  0  0  0  0  0
   19.0020   77.5447   -5.5376 O   0  0  0  0  0  0  0  0  0  0  0  0
   20.0461   75.5497   -7.1488 H   0  0  0  0  0  0  0  0  0  0  0  0
   19.8475   77.2736   -5.1470 H   0  0  0  0  0  0  0  0  0  0  0  0
 29 30  2  0  0  0
 29 31  1  0  0  0
 29 32  1  0  0  0
 29 28  1  0  0  0
 24 25  2  0  0  0
 24 26  1  0  0  0
 24 28  1  0  0  0
 24 23  1  0  0  0
 23 22  1  0  0  0
 22  1  1  0  0  0
  1  2  1  0  0  0
  1  3  1  0  0  0
  2  7  1  0  0  0
  3  4  1  0  0  0
  3  5  1  0  0  0
  5  6  1  0  0  0
  5  7  1  0  0  0
  7 10  1  0  0  0
 10 11  1  0  0  0
 10 19  1  0  0  0
 11 12  2  0  0  0
 12 13  1  0  0  0
 13 14  1  0  0  0
 13 19  2  0  0  0
 14 15  1  0  0  0
 14 16  2  0  0  0
 16 17  1  0  0  0
 17 18  2  0  0  0
 18 19  1  0  0  0
 31 33  1  0  0  0
 32 34  1  0  0  0
 26 27  1  0  0  0
  4  8  1  0  0  0
  6  9  1  0  0  0
 15 20  1  0  0  0
 15 21  1  0  0  0
M  END
> <minimizedAffinity>
-8.41472

$$$$
2BFR_ADP_A_1193


 34 36  0  0  0  0  0  0  0  0999 V2000
   14.9071   82.2399   -3.1938 C   0  0  0  0  0  0  0  0  0  0  0  0
   14.9452   80.8036   -3.4317 O   0  0  0  0  0  0  0  0  0  0  0  0
   15.6143   82.8662   -4.4312 C   0  0  0  0  0  0  0  0  0  0  0  0
   16.8832   83.4110   -4.0006 O   0  0  0  0  0  0  0  0  0  0  0  0
   15.6853   81.6868   -5.4170 C   0  0  0  0  0  0  0  0  0  0  0  0
   16.8009   81.7585   -6.3200 O   0  0  0  0  0  0  0  0  0  0  0  0
   15.8211   80.4813   -4.4916 C   0  0  0  0  0  0  0  0  0  0  0  0
   17.3983   82.7191   -3.5568 H   0  0  0  0  0  0  0  0  0  0  0  0
   17.6267   81.7874   -5.8121 H   0  0  0  0  0  0  0  0  0  0  0  0
   15.3834   79.1721   -5.1261 N   0  0  0  0  0  0  0  0  0  0  0  0
   14.2606   78.4378   -4.8708 C   0  0  0  0  0  0  0  0  0  0  0  0
   14.1742   77.3190   -5.6188 N   0  0  0  0  0  0  0  0  0  0  0  0
   15.3018   77.3517   -6.3803 C   0  0  0  0  0  0  0  0  0  0  0  0
   15.8072   76.4326   -7.3976 C   0  0  0  0  0  0  0  0  0  0  0  0
   15.2407   75.3436   -7.7895 N   0  0  0  0  0  0  0  0  0  0  0  0
   17.0187   76.8226   -7.9603 N   0  0  0  0  0  0  0  0  0  0  0  0
   17.6983   77.9842   -7.5954 C   0  0  0  0  0  0  0  0  0  0  0  0
   17.2482   78.8381   -6.6651 N   0  0  0  0  0  0  0  0  0  0  0  0
   16.0651   78.4903   -6.0916 C   0  0  0  0  0  0  0  0  0  0  0  0
   14.3836   75.0645   -7.3937 H   0  0  0  0  0  0  0  0  0  0  0  0
   15.6650   74.7906   -8.4848 H   0  0  0  0  0  0  0  0  0  0  0  0
   13.4523   82.6661   -2.9481 C   0  0  0  0  0  0  0  0  0  0  0  0
   13.0374   82.5668   -1.5469 O   0  0  0  0  0  0  0  0  0  0  0  0
   11.5456   82.1914   -1.1371 P   0  0  0  0  0  0  0  0  0  0  0  0
   10.8759   81.9022   -2.4610 O   0  0  0  0  0  0  0  0  0  0  0  0
   10.8475   83.2194   -0.2777 O   0  0  0  0  0  0  0  0  0  0  0  0
    9.9493   82.9148   -0.0745 H   0  0  0  0  0  0  0  0  0  0  0  0
   11.7149   80.8382   -0.3569 O   0  0  0  0  0  0  0  0  0  0  0  0
   12.7911   79.6666   -0.5177 P   0  0  0  0  0  0  0  0  0  0  0  0
   12.5586   79.1236   -1.8788 O   0  0  0  0  0  0  0  0  0  0  0  0
   12.4808   78.6905    0.5854 O   0  0  0  0  0  0  0  0  0  0  0  0
   14.2353   80.2984   -0.3829 O   0  0  0  0  0  0  0  0  0  0  0  0
   13.1035   77.9478    0.5445 H   0  0  0  0  0  0  0  0  0  0  0  0
   14.9032   79.6014   -0.4778 H   0  0  0  0  0  0  0  0  0  0  0  0
 29 30  2  0  0  0
 29 31  1  0  0  0
 29 32  1  0  0  0
 29 28  1  0  0  0
 24 25  2  0  0  0
 24 26  1  0  0  0
 24 28  1  0  0  0
 24 23  1  0  0  0
 23 22  1  0  0  0
 22  1  1  0  0  0
  1  2  1  0  0  0
  1  3  1  0  0  0
  2  7  1  0  0  0
  3  4  1  0  0  0
  3  5  1  0  0  0
  5  6  1  0  0  0
  5  7  1  0  0  0
  7 10  1  0  0  0
 10 11  1  0  0  0
 10 19  1  0  0  0
 11 12  2  0  0  0
 12 13  1  0  0  0
 13 14  1  0  0  0
 13 19  2  0  0  0
 14 15  1  0  0  0
 14 16  2  0  0  0
 16 17  1  0  0  0
 17 18  2  0  0  0
 18 19  1  0  0  0
 31 33  1  0  0  0
 32 34  1  0  0  0
 26 27  1  0  0  0
  4  8  1  0  0  0
  6  9  1  0  0  0
 15 20  1  0  0  0
 15 21  1  0  0  0
M  END
> <minimizedAffinity>
-8.38750

$$$$
2BFR_ADP_A_1193


 34 36  0  0  0  0  0  0  0  0999 V2000
   14.3412   79.4246   -2.4327 C   0  0  0  0  0  0  0  0  0  0  0  0
   13.6026   80.5862   -2.9081 O   0  0  0  0  0  0  0  0  0  0  0  0
   13.6527   79.0381   -1.0911 C   0  0  0  0  0  0  0  0  0  0  0  0
   14.5648   79.3404   -0.0098 O   0  0  0  0  0  0  0  0  0  0  0  0
   12.3515   79.8588   -1.1263 C   0  0  0  0  0  0  0  0  0  0  0  0
   11.8586   80.2115    0.1767 O   0  0  0  0  0  0  0  0  0  0  0  0
   12.7613   81.1079   -1.9008 C   0  0  0  0  0  0  0  0  0  0  0  0
   14.8341   80.2707   -0.0645 H   0  0  0  0  0  0  0  0  0  0  0  0
   12.5337   80.7220    0.6505 H   0  0  0  0  0  0  0  0  0  0  0  0
   11.5948   81.8363   -2.5464 N   0  0  0  0  0  0  0  0  0  0  0  0
   10.2695   81.5078   -2.5215 C   0  0  0  0  0  0  0  0  0  0  0  0
    9.4923   82.3772   -3.1990 N   0  0  0  0  0  0  0  0  0  0  0  0
   10.3756   83.2966   -3.6753 C   0  0  0  0  0  0  0  0  0  0  0  0
   10.1780   84.4964   -4.4856 C   0  0  0  0  0  0  0  0  0  0  0  0
    9.0526   84.9373   -4.9323 N   0  0  0  0  0  0  0  0  0  0  0  0
   11.3525   85.1863   -4.7704 N   0  0  0  0  0  0  0  0  0  0  0  0
   12.6105   84.7799   -4.3270 C   0  0  0  0  0  0  0  0  0  0  0  0
   12.8089   83.6829   -3.5824 N   0  0  0  0  0  0  0  0  0  0  0  0
   11.6830   82.9813   -3.2833 C   0  0  0  0  0  0  0  0  0  0  0  0
    8.2196   84.4518   -4.7329 H   0  0  0  0  0  0  0  0  0  0  0  0
    9.0257   85.7596   -5.4730 H   0  0  0  0  0  0  0  0  0  0  0  0
   14.3470   78.3531   -3.5328 C   0  0  0  0  0  0  0  0  0  0  0  0
   14.4901   78.8971   -4.8852 O   0  0  0  0  0  0  0  0  0  0  0  0
   15.8985   79.3731   -5.4546 P   0  0  0  0  0  0  0  0  0  0  0  0
   16.8863   78.4568   -4.7695 O   0  0  0  0  0  0  0  0  0  0  0  0
   16.1789   80.8492   -5.2967 O   0  0  0  0  0  0  0  0  0  0  0  0
   17.0516   81.0540   -5.6672 H   0  0  0  0  0  0  0  0  0  0  0  0
   15.8249   78.9814   -6.9743 O   0  0  0  0  0  0  0  0  0  0  0  0
   15.3391   77.6334   -7.6840 P   0  0  0  0  0  0  0  0  0  0  0  0
   15.7506   77.7829   -9.1017 O   0  0  0  0  0  0  0  0  0  0  0  0
   13.8474   77.5977   -7.4864 O   0  0  0  0  0  0  0  0  0  0  0  0
   16.0741   76.4158   -6.9908 O   0  0  0  0  0  0  0  0  0  0  0  0
   13.4858   76.7969   -7.8973 H   0  0  0  0  0  0  0  0  0  0  0  0
   15.7916   75.5873   -7.4087 H   0  0  0  0  0  0  0  0  0  0  0  0
 29 30  2  0  0  0
 29 31  1  0  0  0
 29 32  1  0  0  0
 29 28  1  0  0  0
 24 25  2  0  0  0
 24 26  1  0  0  0
 24 28  1  0  0  0
 24 23  1  0  0  0
 23 22  1  0  0  0
 22  1  1  0  0  0
  1  2  1  0  0  0
  1  3  1  0  0  0
  2  7  1  0  0  0
  3  4  1  0  0  0
  3  5  1  0  0  0
  5  6  1  0  0  0
  5  7  1  0  0  0
  7 10  1  0  0  0
 10 11  1  0  0  0
 10 19  1  0  0  0
 11 12  2  0  0  0
 12 13  1  0  0  0
 13 14  1  0  0  0
 13 19  2  0  0  0
 14 15  1  0  0  0
 14 16  2  0  0  0
 16 17  1  0  0  0
 17 18  2  0  0  0
 18 19  1  0  0  0
 31 33  1  0  0  0
 32 34  1  0  0  0
 26 27  1  0  0  0
  4  8  1  0  0  0
  6  9  1  0  0  0
 15 20  1  0  0  0
 15 21  1  0  0  0
M  END
> <minimizedAffinity>
-8.21335

$$$$
