4UJ2_NVV_A_1351


 27 30  0  0  0  0  0  0  0  0999 V2000
   24.9489    9.9186   -3.2523 C   0  0  0  0  0  0  0  0  0  0  0  0
   24.6966    8.3946   -3.4339 C   0  0  0  0  0  0  0  0  0  0  0  0
   23.5761    8.0501   -2.5158 N   0  0  0  0  0  0  0  0  0  0  0  0
   23.0644    9.3490   -2.0468 C   0  0  0  0  0  0  0  0  0  0  0  0
   24.3378   10.1533   -1.8749 C   0  0  0  0  0  0  0  0  0  0  0  0
   22.8492    7.5353   -3.0127 H   0  0  0  0  0  0  0  0  0  0  0  0
   27.2313    9.9655   -2.3261 C   0  0  0  0  0  0  0  0  0  0  0  0
   28.6148   10.0687   -2.5024 C   0  0  0  0  0  0  0  0  0  0  0  0
   29.4442    9.9547   -1.4430 N   0  0  0  0  0  0  0  0  0  0  0  0
   30.8299   10.0683   -1.6360 C   0  0  0  0  0  0  0  0  0  0  0  0
   31.3565   10.2769   -2.8421 N   0  0  0  0  0  0  0  0  0  0  0  0
   30.5336   10.4093   -3.9464 C   0  0  0  0  0  0  0  0  0  0  0  0
   31.0522   10.5911   -5.0476 O   0  0  0  0  0  0  0  0  0  0  0  0
   29.1449   10.3083   -3.7784 C   0  0  0  0  0  0  0  0  0  0  0  0
   28.2751   10.4331   -4.8682 C   0  0  0  0  0  0  0  0  0  0  0  0
   26.8956   10.3200   -4.6812 C   0  0  0  0  0  0  0  0  0  0  0  0
   26.3534   10.0981   -3.4057 C   0  0  0  0  0  0  0  0  0  0  0  0
   32.3335   10.3370   -2.9476 H   0  0  0  0  0  0  0  0  0  0  0  0
   23.9560   11.6362   -1.7236 C   0  0  0  0  0  0  0  0  0  0  0  0
   24.1099   12.4120   -2.6609 O   0  0  0  0  0  0  0  0  0  0  0  0
   23.3489   12.0566   -0.5285 C   0  0  0  0  0  0  0  0  0  0  0  0
   23.0125   13.4056   -0.3490 C   0  0  0  0  0  0  0  0  0  0  0  0
   22.4021   13.8430    0.8259 C   0  0  0  0  0  0  0  0  0  0  0  0
   22.1174   12.9187    1.8394 C   0  0  0  0  0  0  0  0  0  0  0  0
   22.4466   11.5753    1.6626 C   0  0  0  0  0  0  0  0  0  0  0  0
   23.0556   11.1426    0.4785 C   0  0  0  0  0  0  0  0  0  0  0  0
   22.0102   10.1809    3.1283 I   0  0  0  0  0  0  0  0  0  0  0  0
 23 24  2  0  0  0
 23 22  1  0  0  0
 24 25  1  0  0  0
 22 21  2  0  0  0
 16 15  1  0  0  0
 16 17  2  0  0  0
 15 14  2  0  0  0
 10  9  2  0  0  0
 10 11  1  0  0  0
 26 25  2  0  0  0
 26 21  1  0  0  0
  7 17  1  0  0  0
  7  8  2  0  0  0
  4  5  1  0  0  0
  4  3  1  0  0  0
  2  1  1  0  0  0
  2  3  1  0  0  0
 19 21  1  0  0  0
 19  5  1  0  0  0
 19 20  2  0  0  0
 25 27  1  0  0  0
 17  1  1  0  0  0
 12 14  1  0  0  0
 12 11  1  0  0  0
 12 13  2  0  0  0
  8 14  1  0  0  0
  8  9  1  0  0  0
  5  1  1  0  0  0
 11 18  1  0  0  0
  3  6  1  0  0  0
M  END
> <minimizedAffinity>
-11.15647

$$$$
4UJ2_NVV_A_1351


 27 30  0  0  0  0  0  0  0  0999 V2000
   22.1440    7.4234   -1.7780 C   0  0  0  0  0  0  0  0  0  0  0  0
   21.1980    6.5414   -2.6419 C   0  0  0  0  0  0  0  0  0  0  0  0
   21.2811    7.0823   -4.0267 N   0  0  0  0  0  0  0  0  0  0  0  0
   22.4007    8.0382   -3.9882 C   0  0  0  0  0  0  0  0  0  0  0  0
   22.2238    8.6862   -2.6292 C   0  0  0  0  0  0  0  0  0  0  0  0
   21.4694    6.3344   -4.6943 H   0  0  0  0  0  0  0  0  0  0  0  0
   22.2117    7.1690    0.6715 C   0  0  0  0  0  0  0  0  0  0  0  0
   21.6221    7.3317    1.9291 C   0  0  0  0  0  0  0  0  0  0  0  0
   22.2951    6.9778    3.0450 N   0  0  0  0  0  0  0  0  0  0  0  0
   21.6859    7.1405    4.2991 C   0  0  0  0  0  0  0  0  0  0  0  0
   20.4593    7.6458    4.4241 N   0  0  0  0  0  0  0  0  0  0  0  0
   19.7388    8.0079    3.2999 C   0  0  0  0  0  0  0  0  0  0  0  0
   18.6127    8.4811    3.4505 O   0  0  0  0  0  0  0  0  0  0  0  0
   20.3221    7.8471    2.0347 C   0  0  0  0  0  0  0  0  0  0  0  0
   19.6306    8.2028    0.8706 C   0  0  0  0  0  0  0  0  0  0  0  0
   20.2329    8.0435   -0.3795 C   0  0  0  0  0  0  0  0  0  0  0  0
   21.5266    7.5118   -0.4976 C   0  0  0  0  0  0  0  0  0  0  0  0
   20.0648    7.7618    5.3186 H   0  0  0  0  0  0  0  0  0  0  0  0
   23.5109    9.4585   -2.2909 C   0  0  0  0  0  0  0  0  0  0  0  0
   24.6011    9.0310   -2.6551 O   0  0  0  0  0  0  0  0  0  0  0  0
   23.4006   10.6986   -1.6401 C   0  0  0  0  0  0  0  0  0  0  0  0
   23.9366   11.8513   -2.2310 C   0  0  0  0  0  0  0  0  0  0  0  0
   23.8314   13.0935   -1.6063 C   0  0  0  0  0  0  0  0  0  0  0  0
   23.1763   13.1901   -0.3716 C   0  0  0  0  0  0  0  0  0  0  0  0
   22.6382   12.0463    0.2171 C   0  0  0  0  0  0  0  0  0  0  0  0
   22.7440   10.8031   -0.4181 C   0  0  0  0  0  0  0  0  0  0  0  0
   21.6374   12.1621    2.0249 I   0  0  0  0  0  0  0  0  0  0  0  0
 23 24  2  0  0  0
 23 22  1  0  0  0
 24 25  1  0  0  0
 22 21  2  0  0  0
 16 15  1  0  0  0
 16 17  2  0  0  0
 15 14  2  0  0  0
 10  9  2  0  0  0
 10 11  1  0  0  0
 26 25  2  0  0  0
 26 21  1  0  0  0
  7 17  1  0  0  0
  7  8  2  0  0  0
  4  5  1  0  0  0
  4  3  1  0  0  0
  2  1  1  0  0  0
  2  3  1  0  0  0
 19 21  1  0  0  0
 19  5  1  0  0  0
 19 20  2  0  0  0
 25 27  1  0  0  0
 17  1  1  0  0  0
 12 14  1  0  0  0
 12 11  1  0  0  0
 12 13  2  0  0  0
  8 14  1  0  0  0
  8  9  1  0  0  0
  5  1  1  0  0  0
 11 18  1  0  0  0
  3  6  1  0  0  0
M  END
> <minimizedAffinity>
-10.18622

$$$$
4UJ2_NVV_A_1351


 27 30  0  0  0  0  0  0  0  0999 V2000
   22.9635   12.1607    0.5845 C   0  0  0  0  0  0  0  0  0  0  0  0
   22.6951   13.4690   -0.2127 C   0  0  0  0  0  0  0  0  0  0  0  0
   21.7035   14.2417    0.5853 N   0  0  0  0  0  0  0  0  0  0  0  0
   21.6230   13.5298    1.8720 C   0  0  0  0  0  0  0  0  0  0  0  0
   21.7053   12.0784    1.4422 C   0  0  0  0  0  0  0  0  0  0  0  0
   22.0224   15.2006    0.7241 H   0  0  0  0  0  0  0  0  0  0  0  0
   24.4457   10.9095   -0.9341 C   0  0  0  0  0  0  0  0  0  0  0  0
   24.6606    9.8643   -1.8382 C   0  0  0  0  0  0  0  0  0  0  0  0
   25.8890    9.6608   -2.3607 N   0  0  0  0  0  0  0  0  0  0  0  0
   26.0859    8.6121   -3.2727 C   0  0  0  0  0  0  0  0  0  0  0  0
   25.0936    7.7995   -3.6339 N   0  0  0  0  0  0  0  0  0  0  0  0
   23.8208    7.9879   -3.1254 C   0  0  0  0  0  0  0  0  0  0  0  0
   22.9290    7.2136   -3.4713 O   0  0  0  0  0  0  0  0  0  0  0  0
   23.5963    9.0342   -2.2190 C   0  0  0  0  0  0  0  0  0  0  0  0
   22.3252    9.2598   -1.6774 C   0  0  0  0  0  0  0  0  0  0  0  0
   22.1246   10.3015   -0.7689 C   0  0  0  0  0  0  0  0  0  0  0  0
   23.1787   11.1494   -0.3948 C   0  0  0  0  0  0  0  0  0  0  0  0
   25.2666    7.0632   -4.2642 H   0  0  0  0  0  0  0  0  0  0  0  0
   21.9834   11.2203    2.6888 C   0  0  0  0  0  0  0  0  0  0  0  0
   22.7700   11.6115    3.5445 O   0  0  0  0  0  0  0  0  0  0  0  0
   21.2538   10.0329    2.8652 C   0  0  0  0  0  0  0  0  0  0  0  0
   20.9701    9.5690    4.1574 C   0  0  0  0  0  0  0  0  0  0  0  0
   20.2407    8.3972    4.3554 C   0  0  0  0  0  0  0  0  0  0  0  0
   19.7816    7.6760    3.2455 C   0  0  0  0  0  0  0  0  0  0  0  0
   20.0582    8.1367    1.9588 C   0  0  0  0  0  0  0  0  0  0  0  0
   20.7875    9.3164    1.7677 C   0  0  0  0  0  0  0  0  0  0  0  0
   19.3667    7.1103    0.3000 I   0  0  0  0  0  0  0  0  0  0  0  0
 23 24  2  0  0  0
 23 22  1  0  0  0
 24 25  1  0  0  0
 22 21  2  0  0  0
 16 15  1  0  0  0
 16 17  2  0  0  0
 15 14  2  0  0  0
 10  9  2  0  0  0
 10 11  1  0  0  0
 26 25  2  0  0  0
 26 21  1  0  0  0
  7 17  1  0  0  0
  7  8  2  0  0  0
  4  5  1  0  0  0
  4  3  1  0  0  0
  2  1  1  0  0  0
  2  3  1  0  0  0
 19 21  1  0  0  0
 19  5  1  0  0  0
 19 20  2  0  0  0
 25 27  1  0  0  0
 17  1  1  0  0  0
 12 14  1  0  0  0
 12 11  1  0  0  0
 12 13  2  0  0  0
  8 14  1  0  0  0
  8  9  1  0  0  0
  5  1  1  0  0  0
 11 18  1  0  0  0
  3  6  1  0  0  0
M  END
> <minimizedAffinity>
-10.15983

$$$$
4UJ2_NVV_A_1351


 27 30  0  0  0  0  0  0  0  0999 V2000
   25.0264   10.3872   -2.6822 C   0  0  0  0  0  0  0  0  0  0  0  0
   26.4778   10.3398   -2.1253 C   0  0  0  0  0  0  0  0  0  0  0  0
   27.0521    9.0439   -2.5814 N   0  0  0  0  0  0  0  0  0  0  0  0
   26.0729    8.5212   -3.5494 C   0  0  0  0  0  0  0  0  0  0  0  0
   24.7528    8.9044   -2.9102 C   0  0  0  0  0  0  0  0  0  0  0  0
   27.9574    9.1891   -3.0283 H   0  0  0  0  0  0  0  0  0  0  0  0
   23.9409   10.4763   -0.4725 C   0  0  0  0  0  0  0  0  0  0  0  0
   23.2508   11.1834    0.5172 C   0  0  0  0  0  0  0  0  0  0  0  0
   22.9397   10.5846    1.6868 N   0  0  0  0  0  0  0  0  0  0  0  0
   22.2400   11.3060    2.6668 C   0  0  0  0  0  0  0  0  0  0  0  0
   21.8791   12.5752    2.4812 N   0  0  0  0  0  0  0  0  0  0  0  0
   22.1728   13.2142    1.2897 C   0  0  0  0  0  0  0  0  0  0  0  0
   21.8346   14.3897    1.1541 O   0  0  0  0  0  0  0  0  0  0  0  0
   22.8637   12.5122    0.2914 C   0  0  0  0  0  0  0  0  0  0  0  0
   23.1841   13.1202   -0.9283 C   0  0  0  0  0  0  0  0  0  0  0  0
   23.8810   12.4067   -1.9061 C   0  0  0  0  0  0  0  0  0  0  0  0
   24.2574   11.0706   -1.6974 C   0  0  0  0  0  0  0  0  0  0  0  0
   21.4023   13.0594    3.1936 H   0  0  0  0  0  0  0  0  0  0  0  0
   23.6410    8.7383   -3.9608 C   0  0  0  0  0  0  0  0  0  0  0  0
   23.8127    9.1336   -5.1090 O   0  0  0  0  0  0  0  0  0  0  0  0
   22.4715    8.0486   -3.6003 C   0  0  0  0  0  0  0  0  0  0  0  0
   21.6909    7.4277   -4.5856 C   0  0  0  0  0  0  0  0  0  0  0  0
   20.5308    6.7312   -4.2490 C   0  0  0  0  0  0  0  0  0  0  0  0
   20.1429    6.6479   -2.9053 C   0  0  0  0  0  0  0  0  0  0  0  0
   20.9191    7.2606   -1.9222 C   0  0  0  0  0  0  0  0  0  0  0  0
   22.0851    7.9547   -2.2672 C   0  0  0  0  0  0  0  0  0  0  0  0
   20.3893    7.1285    0.0740 I   0  0  0  0  0  0  0  0  0  0  0  0
 23 24  2  0  0  0
 23 22  1  0  0  0
 24 25  1  0  0  0
 22 21  2  0  0  0
 16 15  1  0  0  0
 16 17  2  0  0  0
 15 14  2  0  0  0
 10  9  2  0  0  0
 10 11  1  0  0  0
 26 25  2  0  0  0
 26 21  1  0  0  0
  7 17  1  0  0  0
  7  8  2  0  0  0
  4  5  1  0  0  0
  4  3  1  0  0  0
  2  1  1  0  0  0
  2  3  1  0  0  0
 19 21  1  0  0  0
 19  5  1  0  0  0
 19 20  2  0  0  0
 25 27  1  0  0  0
 17  1  1  0  0  0
 12 14  1  0  0  0
 12 11  1  0  0  0
 12 13  2  0  0  0
  8 14  1  0  0  0
  8  9  1  0  0  0
  5  1  1  0  0  0
 11 18  1  0  0  0
  3  6  1  0  0  0
M  END
> <minimizedAffinity>
-10.10972

$$$$
4UJ2_NVV_A_1351


 27 30  0  0  0  0  0  0  0  0999 V2000
   19.7364    8.3841    2.0116 C   0  0  0  0  0  0  0  0  0  0  0  0
   19.9859    7.1925    2.9794 C   0  0  0  0  0  0  0  0  0  0  0  0
   20.3357    7.7962    4.2948 N   0  0  0  0  0  0  0  0  0  0  0  0
   20.0438    9.2310    4.1370 C   0  0  0  0  0  0  0  0  0  0  0  0
   20.5026    9.4982    2.7170 C   0  0  0  0  0  0  0  0  0  0  0  0
   19.7659    7.3929    5.0386 H   0  0  0  0  0  0  0  0  0  0  0  0
   19.3287    7.7858   -0.3431 C   0  0  0  0  0  0  0  0  0  0  0  0
   19.8053    7.4326   -1.6096 C   0  0  0  0  0  0  0  0  0  0  0  0
   18.9440    7.2622   -2.6355 N   0  0  0  0  0  0  0  0  0  0  0  0
   19.4381    6.9002   -3.8985 C   0  0  0  0  0  0  0  0  0  0  0  0
   20.7406    6.7277   -4.1204 N   0  0  0  0  0  0  0  0  0  0  0  0
   21.6482    6.8838   -3.0880 C   0  0  0  0  0  0  0  0  0  0  0  0
   22.8450    6.7273   -3.3286 O   0  0  0  0  0  0  0  0  0  0  0  0
   21.1788    7.2369   -1.8145 C   0  0  0  0  0  0  0  0  0  0  0  0
   22.0617    7.4080   -0.7416 C   0  0  0  0  0  0  0  0  0  0  0  0
   21.5748    7.7690    0.5168 C   0  0  0  0  0  0  0  0  0  0  0  0
   20.2004    7.9498    0.7371 C   0  0  0  0  0  0  0  0  0  0  0  0
   21.0578    6.4886   -5.0212 H   0  0  0  0  0  0  0  0  0  0  0  0
   19.9485   10.8653    2.2794 C   0  0  0  0  0  0  0  0  0  0  0  0
   18.8006   11.1870    2.5673 O   0  0  0  0  0  0  0  0  0  0  0  0
   20.8098   11.7635    1.6275 C   0  0  0  0  0  0  0  0  0  0  0  0
   20.7783   13.1269    1.9522 C   0  0  0  0  0  0  0  0  0  0  0  0
   21.6299   14.0344    1.3233 C   0  0  0  0  0  0  0  0  0  0  0  0
   22.5329   13.5747    0.3557 C   0  0  0  0  0  0  0  0  0  0  0  0
   22.5699   12.2186    0.0333 C   0  0  0  0  0  0  0  0  0  0  0  0
   21.7147   11.3126    0.6720 C   0  0  0  0  0  0  0  0  0  0  0  0
   23.9142   11.5045   -1.3689 I   0  0  0  0  0  0  0  0  0  0  0  0
 23 24  2  0  0  0
 23 22  1  0  0  0
 24 25  1  0  0  0
 22 21  2  0  0  0
 16 15  1  0  0  0
 16 17  2  0  0  0
 15 14  2  0  0  0
 10  9  2  0  0  0
 10 11  1  0  0  0
 26 25  2  0  0  0
 26 21  1  0  0  0
  7 17  1  0  0  0
  7  8  2  0  0  0
  4  5  1  0  0  0
  4  3  1  0  0  0
  2  1  1  0  0  0
  2  3  1  0  0  0
 19 21  1  0  0  0
 19  5  1  0  0  0
 19 20  2  0  0  0
 25 27  1  0  0  0
 17  1  1  0  0  0
 12 14  1  0  0  0
 12 11  1  0  0  0
 12 13  2  0  0  0
  8 14  1  0  0  0
  8  9  1  0  0  0
  5  1  1  0  0  0
 11 18  1  0  0  0
  3  6  1  0  0  0
M  END
> <minimizedAffinity>
-9.98272

$$$$
4UJ2_NVV_A_1351


 27 30  0  0  0  0  0  0  0  0999 V2000
   22.9532   11.5549   -0.0963 C   0  0  0  0  0  0  0  0  0  0  0  0
   23.3412   12.4454   -1.3110 C   0  0  0  0  0  0  0  0  0  0  0  0
   23.1070   13.8520   -0.8822 N   0  0  0  0  0  0  0  0  0  0  0  0
   22.8541   13.7641    0.5660 C   0  0  0  0  0  0  0  0  0  0  0  0
   22.0311   12.4954    0.6723 C   0  0  0  0  0  0  0  0  0  0  0  0
   23.9286   14.4267   -1.0696 H   0  0  0  0  0  0  0  0  0  0  0  0
   21.0169   10.1325   -0.6406 C   0  0  0  0  0  0  0  0  0  0  0  0
   20.4724    9.0004   -1.2552 C   0  0  0  0  0  0  0  0  0  0  0  0
   19.1402    8.7830   -1.2185 N   0  0  0  0  0  0  0  0  0  0  0  0
   18.6107    7.6378   -1.8338 C   0  0  0  0  0  0  0  0  0  0  0  0
   19.3861    6.7575   -2.4656 N   0  0  0  0  0  0  0  0  0  0  0  0
   20.7560    6.9452   -2.5118 C   0  0  0  0  0  0  0  0  0  0  0  0
   21.4428    6.1190   -3.1121 O   0  0  0  0  0  0  0  0  0  0  0  0
   21.3105    8.0773   -1.8971 C   0  0  0  0  0  0  0  0  0  0  0  0
   22.6910    8.3085   -1.9216 C   0  0  0  0  0  0  0  0  0  0  0  0
   23.2225    9.4470   -1.3116 C   0  0  0  0  0  0  0  0  0  0  0  0
   22.3946   10.3680   -0.6508 C   0  0  0  0  0  0  0  0  0  0  0  0
   18.9832    5.9715   -2.9007 H   0  0  0  0  0  0  0  0  0  0  0  0
   21.9793   12.0756    2.1517 C   0  0  0  0  0  0  0  0  0  0  0  0
   22.6607   12.6639    2.9845 O   0  0  0  0  0  0  0  0  0  0  0  0
   21.0739   11.0724    2.5356 C   0  0  0  0  0  0  0  0  0  0  0  0
   19.6961   11.2681    2.3658 C   0  0  0  0  0  0  0  0  0  0  0  0
   18.7805   10.2825    2.7326 C   0  0  0  0  0  0  0  0  0  0  0  0
   19.2461    9.0775    3.2747 C   0  0  0  0  0  0  0  0  0  0  0  0
   20.6160    8.8776    3.4410 C   0  0  0  0  0  0  0  0  0  0  0  0
   21.5297    9.8701    3.0666 C   0  0  0  0  0  0  0  0  0  0  0  0
   21.3360    7.0961    4.2098 I   0  0  0  0  0  0  0  0  0  0  0  0
 23 24  2  0  0  0
 23 22  1  0  0  0
 24 25  1  0  0  0
 22 21  2  0  0  0
 16 15  1  0  0  0
 16 17  2  0  0  0
 15 14  2  0  0  0
 10  9  2  0  0  0
 10 11  1  0  0  0
 26 25  2  0  0  0
 26 21  1  0  0  0
  7 17  1  0  0  0
  7  8  2  0  0  0
  4  5  1  0  0  0
  4  3  1  0  0  0
  2  1  1  0  0  0
  2  3  1  0  0  0
 19 21  1  0  0  0
 19  5  1  0  0  0
 19 20  2  0  0  0
 25 27  1  0  0  0
 17  1  1  0  0  0
 12 14  1  0  0  0
 12 11  1  0  0  0
 12 13  2  0  0  0
  8 14  1  0  0  0
  8  9  1  0  0  0
  5  1  1  0  0  0
 11 18  1  0  0  0
  3  6  1  0  0  0
M  END
> <minimizedAffinity>
-9.86264

$$$$
4UJ2_NVV_A_1351


 27 30  0  0  0  0  0  0  0  0999 V2000
   21.5816    8.7115    1.7368 C   0  0  0  0  0  0  0  0  0  0  0  0
   21.8025    7.3422    2.4405 C   0  0  0  0  0  0  0  0  0  0  0  0
   22.9187    7.5495    3.4041 N   0  0  0  0  0  0  0  0  0  0  0  0
   23.1307    9.0067    3.4227 C   0  0  0  0  0  0  0  0  0  0  0  0
   22.9334    9.3790    1.9665 C   0  0  0  0  0  0  0  0  0  0  0  0
   22.6608    7.2116    4.3313 H   0  0  0  0  0  0  0  0  0  0  0  0
   22.1443    8.0218   -0.5603 C   0  0  0  0  0  0  0  0  0  0  0  0
   21.7524    7.6459   -1.8490 C   0  0  0  0  0  0  0  0  0  0  0  0
   22.6806    7.2995   -2.7666 N   0  0  0  0  0  0  0  0  0  0  0  0
   22.2710    6.9320   -4.0579 C   0  0  0  0  0  0  0  0  0  0  0  0
   20.9851    6.9049   -4.4060 N   0  0  0  0  0  0  0  0  0  0  0  0
   20.0100    7.2647   -3.4928 C   0  0  0  0  0  0  0  0  0  0  0  0
   18.8310    7.2190   -3.8429 O   0  0  0  0  0  0  0  0  0  0  0  0
   20.3943    7.6441   -2.1985 C   0  0  0  0  0  0  0  0  0  0  0  0
   19.4413    8.0132   -1.2416 C   0  0  0  0  0  0  0  0  0  0  0  0
   19.8440    8.3787    0.0448 C   0  0  0  0  0  0  0  0  0  0  0  0
   21.2019    8.4013    0.3997 C   0  0  0  0  0  0  0  0  0  0  0  0
   20.7282    6.6281   -5.3152 H   0  0  0  0  0  0  0  0  0  0  0  0
   22.7786   10.9072    1.8751 C   0  0  0  0  0  0  0  0  0  0  0  0
   22.4382   11.5531    2.8605 O   0  0  0  0  0  0  0  0  0  0  0  0
   23.1209   11.5479    0.6727 C   0  0  0  0  0  0  0  0  0  0  0  0
   22.8235   12.9059    0.4918 C   0  0  0  0  0  0  0  0  0  0  0  0
   23.1615   13.5635   -0.6905 C   0  0  0  0  0  0  0  0  0  0  0  0
   23.8118   12.8563   -1.7101 C   0  0  0  0  0  0  0  0  0  0  0  0
   24.1131   11.5065   -1.5320 C   0  0  0  0  0  0  0  0  0  0  0  0
   23.7744   10.8539   -0.3405 C   0  0  0  0  0  0  0  0  0  0  0  0
   25.1011   10.4430   -3.0071 I   0  0  0  0  0  0  0  0  0  0  0  0
 23 24  2  0  0  0
 23 22  1  0  0  0
 24 25  1  0  0  0
 22 21  2  0  0  0
 16 15  1  0  0  0
 16 17  2  0  0  0
 15 14  2  0  0  0
 10  9  2  0  0  0
 10 11  1  0  0  0
 26 25  2  0  0  0
 26 21  1  0  0  0
  7 17  1  0  0  0
  7  8  2  0  0  0
  4  5  1  0  0  0
  4  3  1  0  0  0
  2  1  1  0  0  0
  2  3  1  0  0  0
 19 21  1  0  0  0
 19  5  1  0  0  0
 19 20  2  0  0  0
 25 27  1  0  0  0
 17  1  1  0  0  0
 12 14  1  0  0  0
 12 11  1  0  0  0
 12 13  2  0  0  0
  8 14  1  0  0  0
  8  9  1  0  0  0
  5  1  1  0  0  0
 11 18  1  0  0  0
  3  6  1  0  0  0
M  END
> <minimizedAffinity>
-9.71690

$$$$
4UJ2_NVV_A_1351


 27 30  0  0  0  0  0  0  0  0999 V2000
   22.7890   11.1662   -0.8000 C   0  0  0  0  0  0  0  0  0  0  0  0
   22.6059   12.6032   -0.2337 C   0  0  0  0  0  0  0  0  0  0  0  0
   23.6209   13.4491   -0.9202 N   0  0  0  0  0  0  0  0  0  0  0  0
   24.1593   12.5925   -1.9904 C   0  0  0  0  0  0  0  0  0  0  0  0
   24.2225   11.2364   -1.3158 C   0  0  0  0  0  0  0  0  0  0  0  0
   23.1869   14.2847   -1.3124 H   0  0  0  0  0  0  0  0  0  0  0  0
   21.2466    9.6974    0.4380 C   0  0  0  0  0  0  0  0  0  0  0  0
   21.0007    8.7755    1.4605 C   0  0  0  0  0  0  0  0  0  0  0  0
   19.7728    8.2321    1.6033 N   0  0  0  0  0  0  0  0  0  0  0  0
   19.5407    7.3141    2.6395 C   0  0  0  0  0  0  0  0  0  0  0  0
   20.5036    6.9524    3.4866 N   0  0  0  0  0  0  0  0  0  0  0  0
   21.7696    7.4990    3.3743 C   0  0  0  0  0  0  0  0  0  0  0  0
   22.6391    7.1361    4.1660 O   0  0  0  0  0  0  0  0  0  0  0  0
   22.0246    8.4251    2.3524 C   0  0  0  0  0  0  0  0  0  0  0  0
   23.2914    9.0012    2.2000 C   0  0  0  0  0  0  0  0  0  0  0  0
   23.5274    9.9144    1.1699 C   0  0  0  0  0  0  0  0  0  0  0  0
   22.5050   10.2857    0.2828 C   0  0  0  0  0  0  0  0  0  0  0  0
   20.3138    6.2946    4.1940 H   0  0  0  0  0  0  0  0  0  0  0  0
   24.4355   10.1664   -2.4008 C   0  0  0  0  0  0  0  0  0  0  0  0
   23.5203    9.4115   -2.7113 O   0  0  0  0  0  0  0  0  0  0  0  0
   25.6627   10.1350   -3.0837 C   0  0  0  0  0  0  0  0  0  0  0  0
   25.6855   10.1106   -4.4852 C   0  0  0  0  0  0  0  0  0  0  0  0
   26.8924   10.0874   -5.1832 C   0  0  0  0  0  0  0  0  0  0  0  0
   28.0995   10.0927   -4.4720 C   0  0  0  0  0  0  0  0  0  0  0  0
   28.0807   10.1212   -3.0780 C   0  0  0  0  0  0  0  0  0  0  0  0
   26.8651   10.1488   -2.3840 C   0  0  0  0  0  0  0  0  0  0  0  0
   29.8470   10.1615   -2.0003 I   0  0  0  0  0  0  0  0  0  0  0  0
 23 24  2  0  0  0
 23 22  1  0  0  0
 24 25  1  0  0  0
 22 21  2  0  0  0
 16 15  1  0  0  0
 16 17  2  0  0  0
 15 14  2  0  0  0
 10  9  2  0  0  0
 10 11  1  0  0  0
 26 25  2  0  0  0
 26 21  1  0  0  0
  7 17  1  0  0  0
  7  8  2  0  0  0
  4  5  1  0  0  0
  4  3  1  0  0  0
  2  1  1  0  0  0
  2  3  1  0  0  0
 19 21  1  0  0  0
 19  5  1  0  0  0
 19 20  2  0  0  0
 25 27  1  0  0  0
 17  1  1  0  0  0
 12 14  1  0  0  0
 12 11  1  0  0  0
 12 13  2  0  0  0
  8 14  1  0  0  0
  8  9  1  0  0  0
  5  1  1  0  0  0
 11 18  1  0  0  0
  3  6  1  0  0  0
M  END
> <minimizedAffinity>
-9.66846

$$$$
4UJ2_NVV_A_1351


 27 30  0  0  0  0  0  0  0  0999 V2000
   25.5975   10.1809   -2.5078 C   0  0  0  0  0  0  0  0  0  0  0  0
   25.1703   11.6372   -2.1674 C   0  0  0  0  0  0  0  0  0  0  0  0
   23.7613   11.7720   -2.6298 N   0  0  0  0  0  0  0  0  0  0  0  0
   23.3460   10.4001   -2.9679 C   0  0  0  0  0  0  0  0  0  0  0  0
   24.5986    9.8331   -3.6063 C   0  0  0  0  0  0  0  0  0  0  0  0
   23.1741   12.1530   -1.8878 H   0  0  0  0  0  0  0  0  0  0  0  0
   27.9810   10.0656   -1.8959 C   0  0  0  0  0  0  0  0  0  0  0  0
   29.3320   10.0638   -2.2573 C   0  0  0  0  0  0  0  0  0  0  0  0
   30.2860    9.8975   -1.3162 N   0  0  0  0  0  0  0  0  0  0  0  0
   31.6377    9.9058   -1.6947 C   0  0  0  0  0  0  0  0  0  0  0  0
   32.0109   10.0642   -2.9640 N   0  0  0  0  0  0  0  0  0  0  0  0
   31.0587   10.2481   -3.9507 C   0  0  0  0  0  0  0  0  0  0  0  0
   31.4362   10.3811   -5.1145 O   0  0  0  0  0  0  0  0  0  0  0  0
   29.7017   10.2523   -3.5969 C   0  0  0  0  0  0  0  0  0  0  0  0
   28.7044   10.4322   -4.5629 C   0  0  0  0  0  0  0  0  0  0  0  0
   27.3581   10.4238   -4.1912 C   0  0  0  0  0  0  0  0  0  0  0  0
   26.9778   10.2540   -2.8508 C   0  0  0  0  0  0  0  0  0  0  0  0
   32.9666   10.0503   -3.2002 H   0  0  0  0  0  0  0  0  0  0  0  0
   24.4436    8.3051   -3.7006 C   0  0  0  0  0  0  0  0  0  0  0  0
   25.4252    7.5959   -3.8948 O   0  0  0  0  0  0  0  0  0  0  0  0
   23.1776    7.7413   -3.4708 C   0  0  0  0  0  0  0  0  0  0  0  0
   22.4241    7.2471   -4.5447 C   0  0  0  0  0  0  0  0  0  0  0  0
   21.1688    6.6762   -4.3383 C   0  0  0  0  0  0  0  0  0  0  0  0
   20.6560    6.5921   -3.0372 C   0  0  0  0  0  0  0  0  0  0  0  0
   21.4046    7.0788   -1.9661 C   0  0  0  0  0  0  0  0  0  0  0  0
   22.6661    7.6468   -2.1805 C   0  0  0  0  0  0  0  0  0  0  0  0
   20.6878    6.9403   -0.0296 I   0  0  0  0  0  0  0  0  0  0  0  0
 23 24  2  0  0  0
 23 22  1  0  0  0
 24 25  1  0  0  0
 22 21  2  0  0  0
 16 15  1  0  0  0
 16 17  2  0  0  0
 15 14  2  0  0  0
 10  9  2  0  0  0
 10 11  1  0  0  0
 26 25  2  0  0  0
 26 21  1  0  0  0
  7 17  1  0  0  0
  7  8  2  0  0  0
  4  5  1  0  0  0
  4  3  1  0  0  0
  2  1  1  0  0  0
  2  3  1  0  0  0
 19 21  1  0  0  0
 19  5  1  0  0  0
 19 20  2  0  0  0
 25 27  1  0  0  0
 17  1  1  0  0  0
 12 14  1  0  0  0
 12 11  1  0  0  0
 12 13  2  0  0  0
  8 14  1  0  0  0
  8  9  1  0  0  0
  5  1  1  0  0  0
 11 18  1  0  0  0
  3  6  1  0  0  0
M  END
> <minimizedAffinity>
-9.51348

$$$$
4UJ2_NVV_A_1351


 27 30  0  0  0  0  0  0  0  0999 V2000
   25.2749   10.4457   -3.7083 C   0  0  0  0  0  0  0  0  0  0  0  0
   25.1280    9.8443   -5.1352 C   0  0  0  0  0  0  0  0  0  0  0  0
   23.7757    9.2231   -5.1834 N   0  0  0  0  0  0  0  0  0  0  0  0
   23.1114    9.6777   -3.9501 C   0  0  0  0  0  0  0  0  0  0  0  0
   24.2408    9.6296   -2.9400 C   0  0  0  0  0  0  0  0  0  0  0  0
   23.2631    9.5406   -6.0061 H   0  0  0  0  0  0  0  0  0  0  0  0
   27.6642   10.4562   -4.3083 C   0  0  0  0  0  0  0  0  0  0  0  0
   29.0116   10.3759   -3.9425 C   0  0  0  0  0  0  0  0  0  0  0  0
   29.9777   10.5225   -4.8746 N   0  0  0  0  0  0  0  0  0  0  0  0
   31.3252   10.4315   -4.4921 C   0  0  0  0  0  0  0  0  0  0  0  0
   31.6833   10.2131   -3.2274 N   0  0  0  0  0  0  0  0  0  0  0  0
   30.7179   10.0474   -2.2503 C   0  0  0  0  0  0  0  0  0  0  0  0
   31.0822    9.8573   -1.0902 O   0  0  0  0  0  0  0  0  0  0  0  0
   29.3643   10.1253   -2.6086 C   0  0  0  0  0  0  0  0  0  0  0  0
   28.3542    9.9666   -1.6522 C   0  0  0  0  0  0  0  0  0  0  0  0
   27.0121   10.0572   -2.0279 C   0  0  0  0  0  0  0  0  0  0  0  0
   26.6478   10.2897   -3.3634 C   0  0  0  0  0  0  0  0  0  0  0  0
   32.6372   10.1694   -2.9876 H   0  0  0  0  0  0  0  0  0  0  0  0
   23.7996   10.4025   -1.6848 C   0  0  0  0  0  0  0  0  0  0  0  0
   23.9656   11.6157   -1.6169 O   0  0  0  0  0  0  0  0  0  0  0  0
   23.1268    9.7061   -0.6671 C   0  0  0  0  0  0  0  0  0  0  0  0
   22.6727    8.3991   -0.8929 C   0  0  0  0  0  0  0  0  0  0  0  0
   22.0098    7.6869    0.1059 C   0  0  0  0  0  0  0  0  0  0  0  0
   21.7989    8.2861    1.3546 C   0  0  0  0  0  0  0  0  0  0  0  0
   22.2531    9.5843    1.5842 C   0  0  0  0  0  0  0  0  0  0  0  0
   22.9216   10.2918    0.5780 C   0  0  0  0  0  0  0  0  0  0  0  0
   21.9844   10.4847    3.4282 I   0  0  0  0  0  0  0  0  0  0  0  0
 23 24  2  0  0  0
 23 22  1  0  0  0
 24 25  1  0  0  0
 22 21  2  0  0  0
 16 15  1  0  0  0
 16 17  2  0  0  0
 15 14  2  0  0  0
 10  9  2  0  0  0
 10 11  1  0  0  0
 26 25  2  0  0  0
 26 21  1  0  0  0
  7 17  1  0  0  0
  7  8  2  0  0  0
  4  5  1  0  0  0
  4  3  1  0  0  0
  2  1  1  0  0  0
  2  3  1  0  0  0
 19 21  1  0  0  0
 19  5  1  0  0  0
 19 20  2  0  0  0
 25 27  1  0  0  0
 17  1  1  0  0  0
 12 14  1  0  0  0
 12 11  1  0  0  0
 12 13  2  0  0  0
  8 14  1  0  0  0
  8  9  1  0  0  0
  5  1  1  0  0  0
 11 18  1  0  0  0
  3  6  1  0  0  0
M  END
> <minimizedAffinity>
-9.33878

$$$$
