3GE7_AFQ_A_390


 32 35  0  0  0  0  0  0  0  0999 V2000
   18.0974   17.1096   23.0216 C   0  0  0  0  0  0  0  0  0  0  0  0
   19.2180   17.4171   23.3863 O   0  0  0  0  0  0  0  0  0  0  0  0
   17.0447   16.9268   23.8628 N   0  0  0  0  0  0  0  0  0  0  0  0
   15.8599   16.5012   23.3315 C   0  0  0  0  0  0  0  0  0  0  0  0
   14.8523   16.2440   24.2063 N   0  0  0  0  0  0  0  0  0  0  0  0
   15.6461   16.4022   22.0681 N   0  0  0  0  0  0  0  0  0  0  0  0
   16.5752   16.6483   21.0971 C   0  0  0  0  0  0  0  0  0  0  0  0
   16.2373   16.5310   19.7289 C   0  0  0  0  0  0  0  0  0  0  0  0
   17.2777   16.8289   18.8470 C   0  0  0  0  0  0  0  0  0  0  0  0
   17.3694   16.9223   17.4985 N   0  0  0  0  0  0  0  0  0  0  0  0
   18.5548   17.2204   17.1287 C   0  0  0  0  0  0  0  0  0  0  0  0
   19.3592   17.4101   18.1927 N   0  0  0  0  0  0  0  0  0  0  0  0
   18.5221   17.1803   19.3007 C   0  0  0  0  0  0  0  0  0  0  0  0
   18.9031   17.2857   20.6368 C   0  0  0  0  0  0  0  0  0  0  0  0
   17.8684   16.9809   21.5360 C   0  0  0  0  0  0  0  0  0  0  0  0
   17.1337   17.0966   24.8285 H   0  0  0  0  0  0  0  0  0  0  0  0
   15.0106   16.3183   25.1751 H   0  0  0  0  0  0  0  0  0  0  0  0
   13.9641   15.9833   23.8712 H   0  0  0  0  0  0  0  0  0  0  0  0
   20.3131   17.6536   18.1948 H   0  0  0  0  0  0  0  0  0  0  0  0
   19.1246   17.3761   15.9324 N   0  0  0  0  0  0  0  0  0  0  0  0
   18.5028   17.9318   14.7474 C   0  0  0  0  0  0  0  0  0  0  0  0
   20.0610   17.0844   15.8462 H   0  0  0  0  0  0  0  0  0  0  0  0
   14.9532   15.9461   19.1704 C   0  0  0  0  0  0  0  0  0  0  0  0
   14.9623   14.3906   18.9648 C   0  0  0  0  0  0  0  0  0  0  0  0
   13.7829   14.1080   18.0992 N   0  0  0  0  0  0  0  0  0  0  0  0
   12.9979   13.8826   18.7102 H   0  0  0  0  0  0  0  0  0  0  0  0
   13.3436   15.2060   17.1833 C   0  0  0  0  0  0  0  0  0  0  0  0
   11.7868   15.2675   17.2015 C   0  0  0  0  0  0  0  0  0  0  0  0
   11.2167   15.6923   18.5663 C   0  0  0  0  0  0  0  0  0  0  0  0
    9.8111   15.0427   18.6140 C   0  0  0  0  0  0  0  0  0  0  0  0
    9.9856   13.6706   17.8789 C   0  0  0  0  0  0  0  0  0  0  0  0
   11.1765   13.8730   16.9237 C   0  0  0  0  0  0  0  0  0  0  0  0
  1  2  2  0  0  0
  1  3  1  0  0  0
  1 15  1  0  0  0
  3  4  1  0  0  0
  4  5  1  0  0  0
  4  6  2  0  0  0
  6  7  1  0  0  0
  7  8  2  0  0  0
  7 15  1  0  0  0
  8 23  1  0  0  0
  8  9  1  0  0  0
 23 24  1  0  0  0
 24 25  1  0  0  0
 25 27  1  0  0  0
 27 28  1  0  0  0
 28 29  1  0  0  0
 28 32  1  0  0  0
 29 30  1  0  0  0
 30 31  1  0  0  0
 31 32  1  0  0  0
  9 10  1  0  0  0
  9 13  2  0  0  0
 10 11  2  0  0  0
 11 20  1  0  0  0
 11 12  1  0  0  0
 20 21  1  0  0  0
 12 13  1  0  0  0
 13 14  1  0  0  0
 14 15  2  0  0  0
  3 16  1  0  0  0
  5 17  1  0  0  0
  5 18  1  0  0  0
 25 26  1  0  0  0
 20 22  1  0  0  0
 12 19  1  0  0  0
M  END
> <minimizedAffinity>
-10.57976

$$$$
3GE7_AFQ_A_390


 32 35  0  0  0  0  0  0  0  0999 V2000
   18.0993   17.2761   23.0504 C   0  0  0  0  0  0  0  0  0  0  0  0
   19.1819   17.7047   23.4075 O   0  0  0  0  0  0  0  0  0  0  0  0
   17.0629   17.0233   23.8937 N   0  0  0  0  0  0  0  0  0  0  0  0
   15.9292   16.4647   23.3743 C   0  0  0  0  0  0  0  0  0  0  0  0
   14.9448   16.1436   24.2542 N   0  0  0  0  0  0  0  0  0  0  0  0
   15.7358   16.2979   22.1147 N   0  0  0  0  0  0  0  0  0  0  0  0
   16.6440   16.5967   21.1388 C   0  0  0  0  0  0  0  0  0  0  0  0
   16.3296   16.3957   19.7748 C   0  0  0  0  0  0  0  0  0  0  0  0
   17.3428   16.7602   18.8862 C   0  0  0  0  0  0  0  0  0  0  0  0
   17.4353   16.8114   17.5355 N   0  0  0  0  0  0  0  0  0  0  0  0
   18.5889   17.2094   17.1593 C   0  0  0  0  0  0  0  0  0  0  0  0
   19.3629   17.5164   18.2185 N   0  0  0  0  0  0  0  0  0  0  0  0
   18.5436   17.2479   19.3311 C   0  0  0  0  0  0  0  0  0  0  0  0
   18.9024   17.4401   20.6638 C   0  0  0  0  0  0  0  0  0  0  0  0
   17.8953   17.0699   21.5698 C   0  0  0  0  0  0  0  0  0  0  0  0
   17.1277   17.2371   24.8525 H   0  0  0  0  0  0  0  0  0  0  0  0
   15.0877   16.2693   25.2202 H   0  0  0  0  0  0  0  0  0  0  0  0
   14.0887   15.7852   23.9258 H   0  0  0  0  0  0  0  0  0  0  0  0
   20.2886   17.8515   18.2151 H   0  0  0  0  0  0  0  0  0  0  0  0
   19.1501   17.3748   15.9603 N   0  0  0  0  0  0  0  0  0  0  0  0
   18.5162   17.9298   14.7812 C   0  0  0  0  0  0  0  0  0  0  0  0
   20.0884   17.0917   15.8672 H   0  0  0  0  0  0  0  0  0  0  0  0
   15.1127   15.6679   19.2338 C   0  0  0  0  0  0  0  0  0  0  0  0
   13.9323   16.5927   18.7722 C   0  0  0  0  0  0  0  0  0  0  0  0
   12.7659   15.6796   18.6112 N   0  0  0  0  0  0  0  0  0  0  0  0
   11.9512   16.2541   18.3952 H   0  0  0  0  0  0  0  0  0  0  0  0
   12.8753   14.6309   17.5504 C   0  0  0  0  0  0  0  0  0  0  0  0
   12.4697   15.2671   16.1871 C   0  0  0  0  0  0  0  0  0  0  0  0
   13.6549   15.9123   15.4472 C   0  0  0  0  0  0  0  0  0  0  0  0
   13.0081   17.0220   14.5810 C   0  0  0  0  0  0  0  0  0  0  0  0
   11.8335   17.5731   15.4585 C   0  0  0  0  0  0  0  0  0  0  0  0
   11.4497   16.4119   16.3944 C   0  0  0  0  0  0  0  0  0  0  0  0
  1  2  2  0  0  0
  1  3  1  0  0  0
  1 15  1  0  0  0
  3  4  1  0  0  0
  4  5  1  0  0  0
  4  6  2  0  0  0
  6  7  1  0  0  0
  7  8  2  0  0  0
  7 15  1  0  0  0
  8 23  1  0  0  0
  8  9  1  0  0  0
 23 24  1  0  0  0
 24 25  1  0  0  0
 25 27  1  0  0  0
 27 28  1  0  0  0
 28 29  1  0  0  0
 28 32  1  0  0  0
 29 30  1  0  0  0
 30 31  1  0  0  0
 31 32  1  0  0  0
  9 10  1  0  0  0
  9 13  2  0  0  0
 10 11  2  0  0  0
 11 20  1  0  0  0
 11 12  1  0  0  0
 20 21  1  0  0  0
 12 13  1  0  0  0
 13 14  1  0  0  0
 14 15  2  0  0  0
  3 16  1  0  0  0
  5 17  1  0  0  0
  5 18  1  0  0  0
 25 26  1  0  0  0
 20 22  1  0  0  0
 12 19  1  0  0  0
M  END
> <minimizedAffinity>
-9.36953

$$$$
3GE7_AFQ_A_390


 32 35  0  0  0  0  0  0  0  0999 V2000
   19.1418   17.2605   20.6232 C   0  0  0  0  0  0  0  0  0  0  0  0
   20.3033   17.5786   20.4419 O   0  0  0  0  0  0  0  0  0  0  0  0
   18.5728   17.1160   21.8498 N   0  0  0  0  0  0  0  0  0  0  0  0
   17.2818   16.6732   21.9147 C   0  0  0  0  0  0  0  0  0  0  0  0
   16.7693   16.4555   23.1543 N   0  0  0  0  0  0  0  0  0  0  0  0
   16.5325   16.5232   20.8813 N   0  0  0  0  0  0  0  0  0  0  0  0
   16.9322   16.7261   19.5907 C   0  0  0  0  0  0  0  0  0  0  0  0
   16.0256   16.5540   18.5192 C   0  0  0  0  0  0  0  0  0  0  0  0
   16.5636   16.8119   17.2570 C   0  0  0  0  0  0  0  0  0  0  0  0
   16.0477   16.8496   16.0049 N   0  0  0  0  0  0  0  0  0  0  0  0
   16.9425   17.1282   15.1373 C   0  0  0  0  0  0  0  0  0  0  0  0
   18.1317   17.3585   15.7271 N   0  0  0  0  0  0  0  0  0  0  0  0
   17.8749   17.1772   17.0991 C   0  0  0  0  0  0  0  0  0  0  0  0
   18.8063   17.3359   18.1233 C   0  0  0  0  0  0  0  0  0  0  0  0
   18.2809   17.0718   19.3986 C   0  0  0  0  0  0  0  0  0  0  0  0
   19.0775   17.3248   22.6689 H   0  0  0  0  0  0  0  0  0  0  0  0
   17.3388   16.5689   23.9493 H   0  0  0  0  0  0  0  0  0  0  0  0
   15.8285   16.1844   23.2573 H   0  0  0  0  0  0  0  0  0  0  0  0
   18.9843   17.5984   15.2973 H   0  0  0  0  0  0  0  0  0  0  0  0
   16.9218   17.2327   13.8074 N   0  0  0  0  0  0  0  0  0  0  0  0
   16.2870   16.3172   12.8808 C   0  0  0  0  0  0  0  0  0  0  0  0
   17.3838   18.0093   13.4167 H   0  0  0  0  0  0  0  0  0  0  0  0
   14.6358   15.9512   18.6097 C   0  0  0  0  0  0  0  0  0  0  0  0
   14.5896   14.3834   18.6505 C   0  0  0  0  0  0  0  0  0  0  0  0
   13.4088   14.0097   17.8220 N   0  0  0  0  0  0  0  0  0  0  0  0
   12.6506   13.7628   18.4581 H   0  0  0  0  0  0  0  0  0  0  0  0
   12.8909   15.0517   16.8822 C   0  0  0  0  0  0  0  0  0  0  0  0
   11.3479   15.1591   17.0698 C   0  0  0  0  0  0  0  0  0  0  0  0
   10.9403   15.5332   18.5059 C   0  0  0  0  0  0  0  0  0  0  0  0
    9.5256   14.9246   18.6741 C   0  0  0  0  0  0  0  0  0  0  0  0
    9.5731   13.5858   17.8625 C   0  0  0  0  0  0  0  0  0  0  0  0
   10.6629   13.7990   16.7955 C   0  0  0  0  0  0  0  0  0  0  0  0
  1  2  2  0  0  0
  1  3  1  0  0  0
  1 15  1  0  0  0
  3  4  1  0  0  0
  4  5  1  0  0  0
  4  6  2  0  0  0
  6  7  1  0  0  0
  7  8  2  0  0  0
  7 15  1  0  0  0
  8 23  1  0  0  0
  8  9  1  0  0  0
 23 24  1  0  0  0
 24 25  1  0  0  0
 25 27  1  0  0  0
 27 28  1  0  0  0
 28 29  1  0  0  0
 28 32  1  0  0  0
 29 30  1  0  0  0
 30 31  1  0  0  0
 31 32  1  0  0  0
  9 10  1  0  0  0
  9 13  2  0  0  0
 10 11  2  0  0  0
 11 20  1  0  0  0
 11 12  1  0  0  0
 20 21  1  0  0  0
 12 13  1  0  0  0
 13 14  1  0  0  0
 14 15  2  0  0  0
  3 16  1  0  0  0
  5 17  1  0  0  0
  5 18  1  0  0  0
 25 26  1  0  0  0
 20 22  1  0  0  0
 12 19  1  0  0  0
M  END
> <minimizedAffinity>
-8.94910

$$$$
3GE7_AFQ_A_390


 32 35  0  0  0  0  0  0  0  0999 V2000
   10.1910   15.7822   15.6839 C   0  0  0  0  0  0  0  0  0  0  0  0
    9.6435   16.1895   14.6751 O   0  0  0  0  0  0  0  0  0  0  0  0
    9.6105   14.9400   16.5799 N   0  0  0  0  0  0  0  0  0  0  0  0
   10.3047   14.6254   17.7140 C   0  0  0  0  0  0  0  0  0  0  0  0
    9.6651   13.8524   18.6305 N   0  0  0  0  0  0  0  0  0  0  0  0
   11.5280   14.9661   17.9121 N   0  0  0  0  0  0  0  0  0  0  0  0
   12.2750   15.7267   17.0576 C   0  0  0  0  0  0  0  0  0  0  0  0
   13.6233   16.0326   17.3551 C   0  0  0  0  0  0  0  0  0  0  0  0
   14.2708   16.8019   16.3866 C   0  0  0  0  0  0  0  0  0  0  0  0
   15.5432   17.2402   16.2302 N   0  0  0  0  0  0  0  0  0  0  0  0
   15.6718   17.9368   15.1677 C   0  0  0  0  0  0  0  0  0  0  0  0
   14.5141   17.9875   14.4805 N   0  0  0  0  0  0  0  0  0  0  0  0
   13.6190   17.2314   15.2604 C   0  0  0  0  0  0  0  0  0  0  0  0
   12.2879   16.9724   14.9397 C   0  0  0  0  0  0  0  0  0  0  0  0
   11.6213   16.2059   15.9094 C   0  0  0  0  0  0  0  0  0  0  0  0
    8.7143   14.5669   16.4159 H   0  0  0  0  0  0  0  0  0  0  0  0
    8.7280   13.5886   18.4838 H   0  0  0  0  0  0  0  0  0  0  0  0
   10.1388   13.5562   19.4411 H   0  0  0  0  0  0  0  0  0  0  0  0
   14.3353   18.4476   13.6286 H   0  0  0  0  0  0  0  0  0  0  0  0
   16.6985   18.5968   14.6289 N   0  0  0  0  0  0  0  0  0  0  0  0
   18.0065   18.0536   14.3220 C   0  0  0  0  0  0  0  0  0  0  0  0
   16.5531   19.5476   14.4189 H   0  0  0  0  0  0  0  0  0  0  0  0
   14.3320   15.7701   18.6711 C   0  0  0  0  0  0  0  0  0  0  0  0
   15.5042   14.7293   18.6020 C   0  0  0  0  0  0  0  0  0  0  0  0
   16.7490   15.5482   18.6031 N   0  0  0  0  0  0  0  0  0  0  0  0
   16.8999   15.8825   17.6513 H   0  0  0  0  0  0  0  0  0  0  0  0
   16.7697   16.7376   19.5098 C   0  0  0  0  0  0  0  0  0  0  0  0
   17.0994   16.2498   20.9524 C   0  0  0  0  0  0  0  0  0  0  0  0
   16.0220   16.6377   21.9805 C   0  0  0  0  0  0  0  0  0  0  0  0
   16.7876   16.7242   23.3245 C   0  0  0  0  0  0  0  0  0  0  0  0
   18.1934   17.2988   22.9414 C   0  0  0  0  0  0  0  0  0  0  0  0
   18.4053   16.8994   21.4693 C   0  0  0  0  0  0  0  0  0  0  0  0
  1  2  2  0  0  0
  1  3  1  0  0  0
  1 15  1  0  0  0
  3  4  1  0  0  0
  4  5  1  0  0  0
  4  6  2  0  0  0
  6  7  1  0  0  0
  7  8  2  0  0  0
  7 15  1  0  0  0
  8 23  1  0  0  0
  8  9  1  0  0  0
 23 24  1  0  0  0
 24 25  1  0  0  0
 25 27  1  0  0  0
 27 28  1  0  0  0
 28 29  1  0  0  0
 28 32  1  0  0  0
 29 30  1  0  0  0
 30 31  1  0  0  0
 31 32  1  0  0  0
  9 10  1  0  0  0
  9 13  2  0  0  0
 10 11  2  0  0  0
 11 20  1  0  0  0
 11 12  1  0  0  0
 20 21  1  0  0  0
 12 13  1  0  0  0
 13 14  1  0  0  0
 14 15  2  0  0  0
  3 16  1  0  0  0
  5 17  1  0  0  0
  5 18  1  0  0  0
 25 26  1  0  0  0
 20 22  1  0  0  0
 12 19  1  0  0  0
M  END
> <minimizedAffinity>
-8.47803

$$$$
3GE7_AFQ_A_390


 32 35  0  0  0  0  0  0  0  0999 V2000
   17.1965   16.5481   19.4286 C   0  0  0  0  0  0  0  0  0  0  0  0
   17.0975   16.2560   20.6068 O   0  0  0  0  0  0  0  0  0  0  0  0
   18.3366   17.0122   18.8508 N   0  0  0  0  0  0  0  0  0  0  0  0
   18.2900   17.3822   17.5363 C   0  0  0  0  0  0  0  0  0  0  0  0
   19.4203   17.9231   17.0106 N   0  0  0  0  0  0  0  0  0  0  0  0
   17.2697   17.1823   16.7808 N   0  0  0  0  0  0  0  0  0  0  0  0
   16.0880   16.6344   17.1931 C   0  0  0  0  0  0  0  0  0  0  0  0
   15.0272   16.4356   16.2793 C   0  0  0  0  0  0  0  0  0  0  0  0
   13.8866   15.8512   16.8328 C   0  0  0  0  0  0  0  0  0  0  0  0
   12.7080   15.4212   16.3215 N   0  0  0  0  0  0  0  0  0  0  0  0
   11.9453   14.9520   17.2318 C   0  0  0  0  0  0  0  0  0  0  0  0
   12.5578   14.9702   18.4317 N   0  0  0  0  0  0  0  0  0  0  0  0
   13.8213   15.5293   18.1632 C   0  0  0  0  0  0  0  0  0  0  0  0
   14.8326   15.7282   19.1010 C   0  0  0  0  0  0  0  0  0  0  0  0
   15.9837   16.3232   18.5597 C   0  0  0  0  0  0  0  0  0  0  0  0
   19.1730   17.0798   19.3657 H   0  0  0  0  0  0  0  0  0  0  0  0
   20.2048   18.0783   17.5848 H   0  0  0  0  0  0  0  0  0  0  0  0
   19.4548   18.1597   16.0556 H   0  0  0  0  0  0  0  0  0  0  0  0
   12.2031   14.6631   19.2973 H   0  0  0  0  0  0  0  0  0  0  0  0
   10.7039   14.4630   17.2188 N   0  0  0  0  0  0  0  0  0  0  0  0
   10.0314   13.7898   18.3116 C   0  0  0  0  0  0  0  0  0  0  0  0
   10.1941   14.5704   16.3834 H   0  0  0  0  0  0  0  0  0  0  0  0
   14.9601   16.9604   14.8569 C   0  0  0  0  0  0  0  0  0  0  0  0
   15.6241   16.0397   13.7737 C   0  0  0  0  0  0  0  0  0  0  0  0
   16.9711   16.6311   13.5366 N   0  0  0  0  0  0  0  0  0  0  0  0
   17.3604   16.1893   12.7038 H   0  0  0  0  0  0  0  0  0  0  0  0
   17.0281   18.1118   13.3330 C   0  0  0  0  0  0  0  0  0  0  0  0
   18.1606   18.4236   12.3093 C   0  0  0  0  0  0  0  0  0  0  0  0
   18.1986   17.4326   11.1326 C   0  0  0  0  0  0  0  0  0  0  0  0
   19.6777   17.4404   10.6719 C   0  0  0  0  0  0  0  0  0  0  0  0
   20.5017   17.6031   11.9940 C   0  0  0  0  0  0  0  0  0  0  0  0
   19.5525   18.3141   12.9764 C   0  0  0  0  0  0  0  0  0  0  0  0
  1  2  2  0  0  0
  1  3  1  0  0  0
  1 15  1  0  0  0
  3  4  1  0  0  0
  4  5  1  0  0  0
  4  6  2  0  0  0
  6  7  1  0  0  0
  7  8  2  0  0  0
  7 15  1  0  0  0
  8 23  1  0  0  0
  8  9  1  0  0  0
 23 24  1  0  0  0
 24 25  1  0  0  0
 25 27  1  0  0  0
 27 28  1  0  0  0
 28 29  1  0  0  0
 28 32  1  0  0  0
 29 30  1  0  0  0
 30 31  1  0  0  0
 31 32  1  0  0  0
  9 10  1  0  0  0
  9 13  2  0  0  0
 10 11  2  0  0  0
 11 20  1  0  0  0
 11 12  1  0  0  0
 20 21  1  0  0  0
 12 13  1  0  0  0
 13 14  1  0  0  0
 14 15  2  0  0  0
  3 16  1  0  0  0
  5 17  1  0  0  0
  5 18  1  0  0  0
 25 26  1  0  0  0
 20 22  1  0  0  0
 12 19  1  0  0  0
M  END
> <minimizedAffinity>
-8.20173

$$$$
3GE7_AFQ_A_390


 32 35  0  0  0  0  0  0  0  0999 V2000
   17.7629   18.4573   13.8354 C   0  0  0  0  0  0  0  0  0  0  0  0
   17.9494   18.9282   12.7278 O   0  0  0  0  0  0  0  0  0  0  0  0
   18.7503   18.2205   14.7399 N   0  0  0  0  0  0  0  0  0  0  0  0
   18.4160   17.6107   15.9161 C   0  0  0  0  0  0  0  0  0  0  0  0
   19.4355   17.3086   16.7621 N   0  0  0  0  0  0  0  0  0  0  0  0
   17.2033   17.3794   16.2733 N   0  0  0  0  0  0  0  0  0  0  0  0
   16.1001   17.6527   15.5151 C   0  0  0  0  0  0  0  0  0  0  0  0
   14.8021   17.3794   16.0052 C   0  0  0  0  0  0  0  0  0  0  0  0
   13.7681   17.7251   15.1331 C   0  0  0  0  0  0  0  0  0  0  0  0
   12.4165   17.7138   15.2260 N   0  0  0  0  0  0  0  0  0  0  0  0
   11.8690   18.1208   14.1466 C   0  0  0  0  0  0  0  0  0  0  0  0
   12.7978   18.4965   13.2459 N   0  0  0  0  0  0  0  0  0  0  0  0
   14.0227   18.2620   13.8984 C   0  0  0  0  0  0  0  0  0  0  0  0
   15.2840   18.5262   13.3684 C   0  0  0  0  0  0  0  0  0  0  0  0
   16.3347   18.1758   14.2318 C   0  0  0  0  0  0  0  0  0  0  0  0
   19.6809   18.4813   14.5523 H   0  0  0  0  0  0  0  0  0  0  0  0
   20.3664   17.4838   16.4936 H   0  0  0  0  0  0  0  0  0  0  0  0
   19.2434   16.9146   17.6436 H   0  0  0  0  0  0  0  0  0  0  0  0
   12.6531   18.8531   12.3397 H   0  0  0  0  0  0  0  0  0  0  0  0
   10.5983   18.2421   13.7583 N   0  0  0  0  0  0  0  0  0  0  0  0
    9.5627   17.2349   13.8717 C   0  0  0  0  0  0  0  0  0  0  0  0
   10.3384   19.1015   13.3543 H   0  0  0  0  0  0  0  0  0  0  0  0
   14.4652   16.5977   17.2616 C   0  0  0  0  0  0  0  0  0  0  0  0
   14.9823   15.1165   17.2849 C   0  0  0  0  0  0  0  0  0  0  0  0
   16.0734   15.1038   18.2996 N   0  0  0  0  0  0  0  0  0  0  0  0
   16.7526   15.8162   18.0320 H   0  0  0  0  0  0  0  0  0  0  0  0
   15.6754   15.3667   19.7172 C   0  0  0  0  0  0  0  0  0  0  0  0
   16.5018   16.5787   20.2427 C   0  0  0  0  0  0  0  0  0  0  0  0
   17.9706   16.5503   19.7843 C   0  0  0  0  0  0  0  0  0  0  0  0
   18.7321   17.3256   20.8884 C   0  0  0  0  0  0  0  0  0  0  0  0
   17.9915   16.9500   22.2165 C   0  0  0  0  0  0  0  0  0  0  0  0
   16.5597   16.5778   21.7889 C   0  0  0  0  0  0  0  0  0  0  0  0
  1  2  2  0  0  0
  1  3  1  0  0  0
  1 15  1  0  0  0
  3  4  1  0  0  0
  4  5  1  0  0  0
  4  6  2  0  0  0
  6  7  1  0  0  0
  7  8  2  0  0  0
  7 15  1  0  0  0
  8 23  1  0  0  0
  8  9  1  0  0  0
 23 24  1  0  0  0
 24 25  1  0  0  0
 25 27  1  0  0  0
 27 28  1  0  0  0
 28 29  1  0  0  0
 28 32  1  0  0  0
 29 30  1  0  0  0
 30 31  1  0  0  0
 31 32  1  0  0  0
  9 10  1  0  0  0
  9 13  2  0  0  0
 10 11  2  0  0  0
 11 20  1  0  0  0
 11 12  1  0  0  0
 20 21  1  0  0  0
 12 13  1  0  0  0
 13 14  1  0  0  0
 14 15  2  0  0  0
  3 16  1  0  0  0
  5 17  1  0  0  0
  5 18  1  0  0  0
 25 26  1  0  0  0
 20 22  1  0  0  0
 12 19  1  0  0  0
M  END
> <minimizedAffinity>
-7.82062

$$$$
3GE7_AFQ_A_390


 32 35  0  0  0  0  0  0  0  0999 V2000
   13.5475   18.8722   13.0596 C   0  0  0  0  0  0  0  0  0  0  0  0
   12.7497   19.0568   12.1581 O   0  0  0  0  0  0  0  0  0  0  0  0
   14.7827   19.4385   13.1131 N   0  0  0  0  0  0  0  0  0  0  0  0
   15.6125   19.0823   14.1386 C   0  0  0  0  0  0  0  0  0  0  0  0
   16.8699   19.5971   14.1176 N   0  0  0  0  0  0  0  0  0  0  0  0
   15.2397   18.3542   15.1300 N   0  0  0  0  0  0  0  0  0  0  0  0
   14.0003   17.7957   15.2663 C   0  0  0  0  0  0  0  0  0  0  0  0
   13.6782   17.0242   16.4069 C   0  0  0  0  0  0  0  0  0  0  0  0
   12.3725   16.5303   16.4231 C   0  0  0  0  0  0  0  0  0  0  0  0
   11.6407   15.8373   17.3285 N   0  0  0  0  0  0  0  0  0  0  0  0
   10.4654   15.5928   16.8929 C   0  0  0  0  0  0  0  0  0  0  0  0
   10.2761   16.1445   15.6784 N   0  0  0  0  0  0  0  0  0  0  0  0
   11.5037   16.7702   15.3909 C   0  0  0  0  0  0  0  0  0  0  0  0
   11.7865   17.5044   14.2409 C   0  0  0  0  0  0  0  0  0  0  0  0
   13.0997   18.0010   14.2070 C   0  0  0  0  0  0  0  0  0  0  0  0
   15.0712   20.0876   12.4315 H   0  0  0  0  0  0  0  0  0  0  0  0
   17.1606   20.1554   13.3607 H   0  0  0  0  0  0  0  0  0  0  0  0
   17.4901   19.4117   14.8593 H   0  0  0  0  0  0  0  0  0  0  0  0
    9.4655   16.1164   15.1204 H   0  0  0  0  0  0  0  0  0  0  0  0
    9.4278   14.9217   17.3961 N   0  0  0  0  0  0  0  0  0  0  0  0
    9.1796   14.6418   18.7960 C   0  0  0  0  0  0  0  0  0  0  0  0
    8.7648   14.5829   16.7520 H   0  0  0  0  0  0  0  0  0  0  0  0
   14.6506   16.5489   17.4706 C   0  0  0  0  0  0  0  0  0  0  0  0
   15.2124   15.0989   17.2614 C   0  0  0  0  0  0  0  0  0  0  0  0
   16.0719   14.8419   18.4511 N   0  0  0  0  0  0  0  0  0  0  0  0
   16.9985   15.2182   18.2501 H   0  0  0  0  0  0  0  0  0  0  0  0
   15.6157   15.4294   19.7488 C   0  0  0  0  0  0  0  0  0  0  0  0
   16.5701   16.6042   20.1185 C   0  0  0  0  0  0  0  0  0  0  0  0
   17.8804   16.5926   19.3115 C   0  0  0  0  0  0  0  0  0  0  0  0
   18.9053   17.2992   20.2338 C   0  0  0  0  0  0  0  0  0  0  0  0
   18.5063   16.8533   21.6813 C   0  0  0  0  0  0  0  0  0  0  0  0
   17.0061   16.5151   21.6005 C   0  0  0  0  0  0  0  0  0  0  0  0
  1  2  2  0  0  0
  1  3  1  0  0  0
  1 15  1  0  0  0
  3  4  1  0  0  0
  4  5  1  0  0  0
  4  6  2  0  0  0
  6  7  1  0  0  0
  7  8  2  0  0  0
  7 15  1  0  0  0
  8 23  1  0  0  0
  8  9  1  0  0  0
 23 24  1  0  0  0
 24 25  1  0  0  0
 25 27  1  0  0  0
 27 28  1  0  0  0
 28 29  1  0  0  0
 28 32  1  0  0  0
 29 30  1  0  0  0
 30 31  1  0  0  0
 31 32  1  0  0  0
  9 10  1  0  0  0
  9 13  2  0  0  0
 10 11  2  0  0  0
 11 20  1  0  0  0
 11 12  1  0  0  0
 20 21  1  0  0  0
 12 13  1  0  0  0
 13 14  1  0  0  0
 14 15  2  0  0  0
  3 16  1  0  0  0
  5 17  1  0  0  0
  5 18  1  0  0  0
 25 26  1  0  0  0
 20 22  1  0  0  0
 12 19  1  0  0  0
M  END
> <minimizedAffinity>
-7.76535

$$$$
3GE7_AFQ_A_390


 32 35  0  0  0  0  0  0  0  0999 V2000
   17.3079   16.6025   19.5487 C   0  0  0  0  0  0  0  0  0  0  0  0
   17.2300   16.3614   20.7399 O   0  0  0  0  0  0  0  0  0  0  0  0
   18.4235   17.0856   18.9394 N   0  0  0  0  0  0  0  0  0  0  0  0
   18.3517   17.3922   17.6098 C   0  0  0  0  0  0  0  0  0  0  0  0
   19.4547   17.9540   17.0491 N   0  0  0  0  0  0  0  0  0  0  0  0
   17.3347   17.1161   16.8740 N   0  0  0  0  0  0  0  0  0  0  0  0
   16.1798   16.5401   17.3222 C   0  0  0  0  0  0  0  0  0  0  0  0
   15.1212   16.2562   16.4286 C   0  0  0  0  0  0  0  0  0  0  0  0
   14.0099   15.6518   17.0192 C   0  0  0  0  0  0  0  0  0  0  0  0
   12.8462   15.1509   16.5394 N   0  0  0  0  0  0  0  0  0  0  0  0
   12.1104   14.6935   17.4775 C   0  0  0  0  0  0  0  0  0  0  0  0
   12.7307   14.7922   18.6694 N   0  0  0  0  0  0  0  0  0  0  0  0
   13.9680   15.3893   18.3635 C   0  0  0  0  0  0  0  0  0  0  0  0
   14.9774   15.6725   19.2815 C   0  0  0  0  0  0  0  0  0  0  0  0
   16.0989   16.2884   18.7026 C   0  0  0  0  0  0  0  0  0  0  0  0
   19.2603   17.2110   19.4426 H   0  0  0  0  0  0  0  0  0  0  0  0
   20.2365   18.1675   17.6081 H   0  0  0  0  0  0  0  0  0  0  0  0
   19.4721   18.1474   16.0840 H   0  0  0  0  0  0  0  0  0  0  0  0
   12.3957   14.5112   19.5515 H   0  0  0  0  0  0  0  0  0  0  0  0
   10.8902   14.1542   17.4987 N   0  0  0  0  0  0  0  0  0  0  0  0
    9.6902   14.7142   16.9103 C   0  0  0  0  0  0  0  0  0  0  0  0
   10.7957   13.2896   17.9601 H   0  0  0  0  0  0  0  0  0  0  0  0
   15.0216   16.7114   14.9844 C   0  0  0  0  0  0  0  0  0  0  0  0
   14.6961   18.2333   14.7851 C   0  0  0  0  0  0  0  0  0  0  0  0
   13.6244   18.2673   13.7505 N   0  0  0  0  0  0  0  0  0  0  0  0
   13.0182   17.4620   13.9068 H   0  0  0  0  0  0  0  0  0  0  0  0
   12.7589   19.4869   13.7198 C   0  0  0  0  0  0  0  0  0  0  0  0
   11.2813   19.0464   13.9443 C   0  0  0  0  0  0  0  0  0  0  0  0
   11.1545   17.5982   14.4493 C   0  0  0  0  0  0  0  0  0  0  0  0
    9.7614   17.1387   13.9513 C   0  0  0  0  0  0  0  0  0  0  0  0
    9.5931   17.8310   12.5564 C   0  0  0  0  0  0  0  0  0  0  0  0
   10.4869   19.0836   12.6169 C   0  0  0  0  0  0  0  0  0  0  0  0
  1  2  2  0  0  0
  1  3  1  0  0  0
  1 15  1  0  0  0
  3  4  1  0  0  0
  4  5  1  0  0  0
  4  6  2  0  0  0
  6  7  1  0  0  0
  7  8  2  0  0  0
  7 15  1  0  0  0
  8 23  1  0  0  0
  8  9  1  0  0  0
 23 24  1  0  0  0
 24 25  1  0  0  0
 25 27  1  0  0  0
 27 28  1  0  0  0
 28 29  1  0  0  0
 28 32  1  0  0  0
 29 30  1  0  0  0
 30 31  1  0  0  0
 31 32  1  0  0  0
  9 10  1  0  0  0
  9 13  2  0  0  0
 10 11  2  0  0  0
 11 20  1  0  0  0
 11 12  1  0  0  0
 20 21  1  0  0  0
 12 13  1  0  0  0
 13 14  1  0  0  0
 14 15  2  0  0  0
  3 16  1  0  0  0
  5 17  1  0  0  0
  5 18  1  0  0  0
 25 26  1  0  0  0
 20 22  1  0  0  0
 12 19  1  0  0  0
M  END
> <minimizedAffinity>
-7.76061

$$$$
3GE7_AFQ_A_390


 32 35  0  0  0  0  0  0  0  0999 V2000
   11.0505   15.4543   17.3821 C   0  0  0  0  0  0  0  0  0  0  0  0
   10.7528   14.9738   18.4609 O   0  0  0  0  0  0  0  0  0  0  0  0
   10.1558   15.7254   16.3946 N   0  0  0  0  0  0  0  0  0  0  0  0
   10.6327   16.1865   15.2000 C   0  0  0  0  0  0  0  0  0  0  0  0
    9.7248   16.3655   14.2049 N   0  0  0  0  0  0  0  0  0  0  0  0
   11.8608   16.5124   15.0067 N   0  0  0  0  0  0  0  0  0  0  0  0
   12.8563   16.3909   15.9345 C   0  0  0  0  0  0  0  0  0  0  0  0
   14.1769   16.7969   15.6330 C   0  0  0  0  0  0  0  0  0  0  0  0
   15.0872   16.6327   16.6786 C   0  0  0  0  0  0  0  0  0  0  0  0
   16.3923   16.9544   16.8482 N   0  0  0  0  0  0  0  0  0  0  0  0
   16.8189   16.5933   17.9964 C   0  0  0  0  0  0  0  0  0  0  0  0
   15.8295   16.0451   18.7285 N   0  0  0  0  0  0  0  0  0  0  0  0
   14.7071   16.0962   17.8809 C   0  0  0  0  0  0  0  0  0  0  0  0
   13.4245   15.6634   18.2116 C   0  0  0  0  0  0  0  0  0  0  0  0
   12.4995   15.8150   17.1659 C   0  0  0  0  0  0  0  0  0  0  0  0
    9.1907   15.5930   16.5365 H   0  0  0  0  0  0  0  0  0  0  0  0
    8.7828   16.1176   14.3475 H   0  0  0  0  0  0  0  0  0  0  0  0
   10.0091   16.7432   13.3413 H   0  0  0  0  0  0  0  0  0  0  0  0
   15.8801   15.6905   19.6455 H   0  0  0  0  0  0  0  0  0  0  0  0
   18.0139   16.6564   18.5864 N   0  0  0  0  0  0  0  0  0  0  0  0
   18.2700   16.9195   19.9882 C   0  0  0  0  0  0  0  0  0  0  0  0
   18.7999   16.5096   18.0121 H   0  0  0  0  0  0  0  0  0  0  0  0
   14.7015   17.1952   14.2658 C   0  0  0  0  0  0  0  0  0  0  0  0
   15.5233   16.0877   13.5174 C   0  0  0  0  0  0  0  0  0  0  0  0
   16.9369   16.5563   13.5657 N   0  0  0  0  0  0  0  0  0  0  0  0
   17.4168   16.1753   12.7503 H   0  0  0  0  0  0  0  0  0  0  0  0
   17.1542   18.0362   13.5692 C   0  0  0  0  0  0  0  0  0  0  0  0
   18.1879   18.3835   12.4563 C   0  0  0  0  0  0  0  0  0  0  0  0
   18.0945   17.4513   11.2354 C   0  0  0  0  0  0  0  0  0  0  0  0
   19.5221   17.4628   10.6338 C   0  0  0  0  0  0  0  0  0  0  0  0
   20.4727   17.5495   11.8756 C   0  0  0  0  0  0  0  0  0  0  0  0
   19.6355   18.2233   12.9787 C   0  0  0  0  0  0  0  0  0  0  0  0
  1  2  2  0  0  0
  1  3  1  0  0  0
  1 15  1  0  0  0
  3  4  1  0  0  0
  4  5  1  0  0  0
  4  6  2  0  0  0
  6  7  1  0  0  0
  7  8  2  0  0  0
  7 15  1  0  0  0
  8 23  1  0  0  0
  8  9  1  0  0  0
 23 24  1  0  0  0
 24 25  1  0  0  0
 25 27  1  0  0  0
 27 28  1  0  0  0
 28 29  1  0  0  0
 28 32  1  0  0  0
 29 30  1  0  0  0
 30 31  1  0  0  0
 31 32  1  0  0  0
  9 10  1  0  0  0
  9 13  2  0  0  0
 10 11  2  0  0  0
 11 20  1  0  0  0
 11 12  1  0  0  0
 20 21  1  0  0  0
 12 13  1  0  0  0
 13 14  1  0  0  0
 14 15  2  0  0  0
  3 16  1  0  0  0
  5 17  1  0  0  0
  5 18  1  0  0  0
 25 26  1  0  0  0
 20 22  1  0  0  0
 12 19  1  0  0  0
M  END
> <minimizedAffinity>
-7.62477

$$$$
