5CY9_E0A_A_202


 24 26  0  0  0  0  0  0  0  0999 V2000
   -7.3382   18.5043   -0.4461 C   0  0  0  0  0  0  0  0  0  0  0  0
   -7.4976   17.8754   -1.6977 C   0  0  0  0  0  0  0  0  0  0  0  0
   -7.1407   18.5690   -2.8719 C   0  0  0  0  0  0  0  0  0  0  0  0
   -6.6651   19.8469   -2.7931 C   0  0  0  0  0  0  0  0  0  0  0  0
   -6.5371   20.4414   -1.6115 C   0  0  0  0  0  0  0  0  0  0  0  0
   -6.8366   19.8430   -0.4263 C   0  0  0  0  0  0  0  0  0  0  0  0
   -6.6545   20.6548    0.7239 C   0  0  0  0  0  0  0  0  0  0  0  0
   -6.1519   21.9613    0.5789 C   0  0  0  0  0  0  0  0  0  0  0  0
   -5.8838   22.4859   -0.6971 C   0  0  0  0  0  0  0  0  0  0  0  0
   -6.0569   21.7093   -1.7835 C   0  0  0  0  0  0  0  0  0  0  0  0
   -5.8901   21.8806   -3.1123 C   0  0  0  0  0  0  0  0  0  0  0  0
   -5.3997   22.8562   -3.7258 O   0  0  0  0  0  0  0  0  0  0  0  0
   -6.2395   20.7291   -3.7338 N   0  0  0  0  0  0  0  0  0  0  0  0
   -7.6705   17.9173    0.7536 N   0  0  0  0  0  0  0  0  0  0  0  0
   -6.9544   17.6692    1.3820 H   0  0  0  0  0  0  0  0  0  0  0  0
   -9.1996   17.6272    1.1530 S   0  0  0  0  0  0  0  0  0  0  0  0
  -10.1423   18.4264    0.2818 O   0  0  0  0  0  0  0  0  0  0  0  0
   -9.3927   17.9441    2.6303 O   0  0  0  0  0  0  0  0  0  0  0  0
   -9.6132   15.8826    0.8877 C   0  0  0  0  0  0  0  0  0  0  0  0
   -8.2915   15.1429    0.8160 C   0  0  0  0  0  0  0  0  0  0  0  0
   -9.7540   14.5609   -0.9020 C   0  0  0  0  0  0  0  0  0  0  0  0
   -8.3082   14.5633   -0.5752 C   0  0  0  0  0  0  0  0  0  0  0  0
   -6.1517   20.5634   -5.1610 C   0  0  0  0  0  0  0  0  0  0  0  0
   -4.8662   19.8122   -5.4477 C   0  0  0  0  0  0  0  0  0  0  0  0
 18 16  2  0  0  0
 17 16  2  0  0  0
 22 20  1  0  0  0
 22 21  1  0  0  0
 19 16  1  0  0  0
 19 20  1  0  0  0
 16 14  1  0  0  0
 14  1  1  0  0  0
  2  1  2  0  0  0
  2  3  1  0  0  0
  1  6  1  0  0  0
  3  4  2  0  0  0
  6  7  2  0  0  0
  6  5  1  0  0  0
  7  8  1  0  0  0
  4  5  1  0  0  0
  4 13  1  0  0  0
  5 10  2  0  0  0
  8  9  2  0  0  0
 24 23  1  0  0  0
 13 23  1  0  0  0
 13 11  1  0  0  0
 10  9  1  0  0  0
 10 11  1  0  0  0
 11 12  2  0  0  0
 14 15  1  0  0  0
M  END
> <minimizedAffinity>
-8.36696

$$$$
5CY9_E0A_A_202


 24 26  0  0  0  0  0  0  0  0999 V2000
   -7.0348   19.3535    0.2896 C   0  0  0  0  0  0  0  0  0  0  0  0
   -6.7606   20.4814    1.0897 C   0  0  0  0  0  0  0  0  0  0  0  0
   -6.2927   21.6644    0.4822 C   0  0  0  0  0  0  0  0  0  0  0  0
   -6.0885   21.7049   -0.8677 C   0  0  0  0  0  0  0  0  0  0  0  0
   -6.3291   20.6315   -1.6132 C   0  0  0  0  0  0  0  0  0  0  0  0
   -6.8011   19.4553   -1.1171 C   0  0  0  0  0  0  0  0  0  0  0  0
   -6.9696   18.4199   -2.0737 C   0  0  0  0  0  0  0  0  0  0  0  0
   -6.6930   18.6759   -3.4296 C   0  0  0  0  0  0  0  0  0  0  0  0
   -6.1987   19.9279   -3.8338 C   0  0  0  0  0  0  0  0  0  0  0  0
   -6.0435   20.9059   -2.9212 C   0  0  0  0  0  0  0  0  0  0  0  0
   -5.6187   22.1868   -2.9619 C   0  0  0  0  0  0  0  0  0  0  0  0
   -5.3234   22.8881   -3.9566 O   0  0  0  0  0  0  0  0  0  0  0  0
   -5.6688   22.6885   -1.7048 N   0  0  0  0  0  0  0  0  0  0  0  0
   -7.4804   18.1508    0.7889 N   0  0  0  0  0  0  0  0  0  0  0  0
   -6.8341   17.4231    0.9374 H   0  0  0  0  0  0  0  0  0  0  0  0
   -9.0302   17.9062    1.1350 S   0  0  0  0  0  0  0  0  0  0  0  0
   -9.9204   18.6317    0.1514 O   0  0  0  0  0  0  0  0  0  0  0  0
   -9.2926   18.3525    2.5675 O   0  0  0  0  0  0  0  0  0  0  0  0
   -9.4485   16.1476    1.0026 C   0  0  0  0  0  0  0  0  0  0  0  0
   -8.2094   15.4597    0.4637 C   0  0  0  0  0  0  0  0  0  0  0  0
   -9.9064   14.5585   -0.8545 C   0  0  0  0  0  0  0  0  0  0  0  0
   -8.5732   15.1952   -0.9748 C   0  0  0  0  0  0  0  0  0  0  0  0
   -5.3072   24.0481   -1.4000 C   0  0  0  0  0  0  0  0  0  0  0  0
   -6.5601   24.8896   -1.5458 C   0  0  0  0  0  0  0  0  0  0  0  0
 18 16  2  0  0  0
 17 16  2  0  0  0
 22 20  1  0  0  0
 22 21  1  0  0  0
 19 16  1  0  0  0
 19 20  1  0  0  0
 16 14  1  0  0  0
 14  1  1  0  0  0
  2  1  2  0  0  0
  2  3  1  0  0  0
  1  6  1  0  0  0
  3  4  2  0  0  0
  6  7  2  0  0  0
  6  5  1  0  0  0
  7  8  1  0  0  0
  4  5  1  0  0  0
  4 13  1  0  0  0
  5 10  2  0  0  0
  8  9  2  0  0  0
 24 23  1  0  0  0
 13 23  1  0  0  0
 13 11  1  0  0  0
 10  9  1  0  0  0
 10 11  1  0  0  0
 11 12  2  0  0  0
 14 15  1  0  0  0
M  END
> <minimizedAffinity>
-8.34221

$$$$
5CY9_E0A_A_202


 24 26  0  0  0  0  0  0  0  0999 V2000
   -7.7892   19.5465   -0.8092 C   0  0  0  0  0  0  0  0  0  0  0  0
   -7.8491   18.5046   -1.7570 C   0  0  0  0  0  0  0  0  0  0  0  0
   -7.0720   18.5897   -2.9301 C   0  0  0  0  0  0  0  0  0  0  0  0
   -6.2858   19.6844   -3.1513 C   0  0  0  0  0  0  0  0  0  0  0  0
   -6.2501   20.6726   -2.2636 C   0  0  0  0  0  0  0  0  0  0  0  0
   -6.9492   20.6673   -1.0958 C   0  0  0  0  0  0  0  0  0  0  0  0
   -6.7952   21.8284   -0.2937 C   0  0  0  0  0  0  0  0  0  0  0  0
   -5.9284   22.8536   -0.7156 C   0  0  0  0  0  0  0  0  0  0  0  0
   -5.2601   22.7616   -1.9485 C   0  0  0  0  0  0  0  0  0  0  0  0
   -5.4092   21.6562   -2.7031 C   0  0  0  0  0  0  0  0  0  0  0  0
   -4.9234   21.2438   -3.8933 C   0  0  0  0  0  0  0  0  0  0  0  0
   -4.0613   21.7848   -4.6230 O   0  0  0  0  0  0  0  0  0  0  0  0
   -5.4411   20.0209   -4.1599 N   0  0  0  0  0  0  0  0  0  0  0  0
   -8.5189   19.5630    0.3576 N   0  0  0  0  0  0  0  0  0  0  0  0
   -8.9445   20.4024    0.6465 H   0  0  0  0  0  0  0  0  0  0  0  0
   -8.6927   18.2447    1.2596 S   0  0  0  0  0  0  0  0  0  0  0  0
   -9.0316   18.6121    2.6867 O   0  0  0  0  0  0  0  0  0  0  0  0
   -7.4152   17.4192    1.1787 O   0  0  0  0  0  0  0  0  0  0  0  0
  -10.0651   17.2277    0.6536 C   0  0  0  0  0  0  0  0  0  0  0  0
   -9.5840   15.7912    0.7159 C   0  0  0  0  0  0  0  0  0  0  0  0
   -8.3189   14.6526   -0.8755 C   0  0  0  0  0  0  0  0  0  0  0  0
   -9.6093   15.3674   -0.7302 C   0  0  0  0  0  0  0  0  0  0  0  0
   -5.1027   19.2801   -5.3469 C   0  0  0  0  0  0  0  0  0  0  0  0
   -5.9741   19.8084   -6.4697 C   0  0  0  0  0  0  0  0  0  0  0  0
 18 16  2  0  0  0
 17 16  2  0  0  0
 22 20  1  0  0  0
 22 21  1  0  0  0
 19 16  1  0  0  0
 19 20  1  0  0  0
 16 14  1  0  0  0
 14  1  1  0  0  0
  2  1  2  0  0  0
  2  3  1  0  0  0
  1  6  1  0  0  0
  3  4  2  0  0  0
  6  7  2  0  0  0
  6  5  1  0  0  0
  7  8  1  0  0  0
  4  5  1  0  0  0
  4 13  1  0  0  0
  5 10  2  0  0  0
  8  9  2  0  0  0
 24 23  1  0  0  0
 13 23  1  0  0  0
 13 11  1  0  0  0
 10  9  1  0  0  0
 10 11  1  0  0  0
 11 12  2  0  0  0
 14 15  1  0  0  0
M  END
> <minimizedAffinity>
-8.06526

$$$$
5CY9_E0A_A_202


 24 26  0  0  0  0  0  0  0  0999 V2000
   -6.0399   20.0359   -2.8753 C   0  0  0  0  0  0  0  0  0  0  0  0
   -6.6535   18.8441   -3.3119 C   0  0  0  0  0  0  0  0  0  0  0  0
   -7.4799   18.1251   -2.4245 C   0  0  0  0  0  0  0  0  0  0  0  0
   -7.6639   18.5726   -1.1473 C   0  0  0  0  0  0  0  0  0  0  0  0
   -7.0657   19.6856   -0.7358 C   0  0  0  0  0  0  0  0  0  0  0  0
   -6.2687   20.4541   -1.5274 C   0  0  0  0  0  0  0  0  0  0  0  0
   -5.7030   21.5914   -0.8934 C   0  0  0  0  0  0  0  0  0  0  0  0
   -6.0241   21.8695    0.4482 C   0  0  0  0  0  0  0  0  0  0  0  0
   -6.8528   21.0011    1.1792 C   0  0  0  0  0  0  0  0  0  0  0  0
   -7.3875   19.9254    0.5706 C   0  0  0  0  0  0  0  0  0  0  0  0
   -8.2071   18.9238    0.9551 C   0  0  0  0  0  0  0  0  0  0  0  0
   -8.8105   18.7723    2.0420 O   0  0  0  0  0  0  0  0  0  0  0  0
   -8.3988   18.1040   -0.1059 N   0  0  0  0  0  0  0  0  0  0  0  0
   -5.2062   20.7998   -3.6600 N   0  0  0  0  0  0  0  0  0  0  0  0
   -4.2315   20.7134   -3.5515 H   0  0  0  0  0  0  0  0  0  0  0  0
   -5.7860   21.8292   -4.7489 S   0  0  0  0  0  0  0  0  0  0  0  0
   -4.6772   22.6796   -5.3267 O   0  0  0  0  0  0  0  0  0  0  0  0
   -6.8673   22.6809   -4.0965 O   0  0  0  0  0  0  0  0  0  0  0  0
   -6.5279   20.9398   -6.1430 C   0  0  0  0  0  0  0  0  0  0  0  0
   -5.3716   20.3785   -6.9474 C   0  0  0  0  0  0  0  0  0  0  0  0
   -4.1621   18.4588   -6.4171 C   0  0  0  0  0  0  0  0  0  0  0  0
   -5.5347   18.8904   -6.7730 C   0  0  0  0  0  0  0  0  0  0  0  0
   -9.2498   16.9447   -0.0433 C   0  0  0  0  0  0  0  0  0  0  0  0
   -8.3924   15.7826    0.4187 C   0  0  0  0  0  0  0  0  0  0  0  0
 18 16  2  0  0  0
 17 16  2  0  0  0
 22 20  1  0  0  0
 22 21  1  0  0  0
 19 16  1  0  0  0
 19 20  1  0  0  0
 16 14  1  0  0  0
 14  1  1  0  0  0
  2  1  2  0  0  0
  2  3  1  0  0  0
  1  6  1  0  0  0
  3  4  2  0  0  0
  6  7  2  0  0  0
  6  5  1  0  0  0
  7  8  1  0  0  0
  4  5  1  0  0  0
  4 13  1  0  0  0
  5 10  2  0  0  0
  8  9  2  0  0  0
 24 23  1  0  0  0
 13 23  1  0  0  0
 13 11  1  0  0  0
 10  9  1  0  0  0
 10 11  1  0  0  0
 11 12  2  0  0  0
 14 15  1  0  0  0
M  END
> <minimizedAffinity>
-7.66054

$$$$
5CY9_E0A_A_202


 24 26  0  0  0  0  0  0  0  0999 V2000
   -6.0831   20.1200   -2.7970 C   0  0  0  0  0  0  0  0  0  0  0  0
   -6.6985   18.9427   -3.2687 C   0  0  0  0  0  0  0  0  0  0  0  0
   -7.5119   18.1894   -2.3979 C   0  0  0  0  0  0  0  0  0  0  0  0
   -7.6815   18.5901   -1.1033 C   0  0  0  0  0  0  0  0  0  0  0  0
   -7.0816   19.6896   -0.6593 C   0  0  0  0  0  0  0  0  0  0  0  0
   -6.2967   20.4888   -1.4323 C   0  0  0  0  0  0  0  0  0  0  0  0
   -5.7267   21.6044   -0.7646 C   0  0  0  0  0  0  0  0  0  0  0  0
   -6.0322   21.8330    0.5900 C   0  0  0  0  0  0  0  0  0  0  0  0
   -6.8493   20.9361    1.2991 C   0  0  0  0  0  0  0  0  0  0  0  0
   -7.3882   19.8811    0.6587 C   0  0  0  0  0  0  0  0  0  0  0  0
   -8.2001   18.8636    1.0168 C   0  0  0  0  0  0  0  0  0  0  0  0
   -8.7897   18.6711    2.1048 O   0  0  0  0  0  0  0  0  0  0  0  0
   -8.4023   18.0819   -0.0706 N   0  0  0  0  0  0  0  0  0  0  0  0
   -5.2614   20.9145   -3.5637 N   0  0  0  0  0  0  0  0  0  0  0  0
   -4.2862   20.7906   -3.5096 H   0  0  0  0  0  0  0  0  0  0  0  0
   -5.8559   22.0394   -4.5450 S   0  0  0  0  0  0  0  0  0  0  0  0
   -4.7409   22.8011   -5.2255 O   0  0  0  0  0  0  0  0  0  0  0  0
   -6.7625   22.9645   -3.7436 O   0  0  0  0  0  0  0  0  0  0  0  0
   -6.8402   21.2845   -5.8663 C   0  0  0  0  0  0  0  0  0  0  0  0
   -6.7715   22.2406   -7.0411 C   0  0  0  0  0  0  0  0  0  0  0  0
   -8.5675   23.6536   -6.5856 C   0  0  0  0  0  0  0  0  0  0  0  0
   -8.2237   22.4531   -7.3842 C   0  0  0  0  0  0  0  0  0  0  0  0
   -9.2491   16.9181   -0.0395 C   0  0  0  0  0  0  0  0  0  0  0  0
   -8.3666   15.7292    0.2871 C   0  0  0  0  0  0  0  0  0  0  0  0
 18 16  2  0  0  0
 17 16  2  0  0  0
 22 20  1  0  0  0
 22 21  1  0  0  0
 19 16  1  0  0  0
 19 20  1  0  0  0
 16 14  1  0  0  0
 14  1  1  0  0  0
  2  1  2  0  0  0
  2  3  1  0  0  0
  1  6  1  0  0  0
  3  4  2  0  0  0
  6  7  2  0  0  0
  6  5  1  0  0  0
  7  8  1  0  0  0
  4  5  1  0  0  0
  4 13  1  0  0  0
  5 10  2  0  0  0
  8  9  2  0  0  0
 24 23  1  0  0  0
 13 23  1  0  0  0
 13 11  1  0  0  0
 10  9  1  0  0  0
 10 11  1  0  0  0
 11 12  2  0  0  0
 14 15  1  0  0  0
M  END
> <minimizedAffinity>
-7.51926

$$$$
5CY9_E0A_A_202


 24 26  0  0  0  0  0  0  0  0999 V2000
   -5.8918   19.8298   -3.3664 C   0  0  0  0  0  0  0  0  0  0  0  0
   -6.5953   18.6138   -3.4843 C   0  0  0  0  0  0  0  0  0  0  0  0
   -7.4461   18.2015   -2.4386 C   0  0  0  0  0  0  0  0  0  0  0  0
   -7.5675   18.9671   -1.3141 C   0  0  0  0  0  0  0  0  0  0  0  0
   -6.8854   20.1018   -1.2005 C   0  0  0  0  0  0  0  0  0  0  0  0
   -6.0582   20.5880   -2.1658 C   0  0  0  0  0  0  0  0  0  0  0  0
   -5.4013   21.8044   -1.8427 C   0  0  0  0  0  0  0  0  0  0  0  0
   -5.6694   22.4324   -0.6122 C   0  0  0  0  0  0  0  0  0  0  0  0
   -6.5365   21.8368    0.3198 C   0  0  0  0  0  0  0  0  0  0  0  0
   -7.1577   20.6840    0.0056 C   0  0  0  0  0  0  0  0  0  0  0  0
   -8.0333   19.8723    0.6358 C   0  0  0  0  0  0  0  0  0  0  0  0
   -8.6183   20.0420    1.7301 O   0  0  0  0  0  0  0  0  0  0  0  0
   -8.3063   18.8286   -0.1831 N   0  0  0  0  0  0  0  0  0  0  0  0
   -5.0281   20.3107   -4.3241 N   0  0  0  0  0  0  0  0  0  0  0  0
   -4.0801   20.4423   -4.0937 H   0  0  0  0  0  0  0  0  0  0  0  0
   -5.5306   20.6625   -5.8092 S   0  0  0  0  0  0  0  0  0  0  0  0
   -4.5636   21.6019   -6.4940 O   0  0  0  0  0  0  0  0  0  0  0  0
   -6.9310   21.2560   -5.7289 O   0  0  0  0  0  0  0  0  0  0  0  0
   -5.6046   19.1689   -6.8332 C   0  0  0  0  0  0  0  0  0  0  0  0
   -4.3844   18.3467   -6.4671 C   0  0  0  0  0  0  0  0  0  0  0  0
   -4.2763   16.3700   -5.2381 C   0  0  0  0  0  0  0  0  0  0  0  0
   -4.9246   16.9399   -6.4431 C   0  0  0  0  0  0  0  0  0  0  0  0
   -9.2320   17.7861    0.1756 C   0  0  0  0  0  0  0  0  0  0  0  0
   -8.4147   16.6176    0.6910 C   0  0  0  0  0  0  0  0  0  0  0  0
 18 16  2  0  0  0
 17 16  2  0  0  0
 22 20  1  0  0  0
 22 21  1  0  0  0
 19 16  1  0  0  0
 19 20  1  0  0  0
 16 14  1  0  0  0
 14  1  1  0  0  0
  2  1  2  0  0  0
  2  3  1  0  0  0
  1  6  1  0  0  0
  3  4  2  0  0  0
  6  7  2  0  0  0
  6  5  1  0  0  0
  7  8  1  0  0  0
  4  5  1  0  0  0
  4 13  1  0  0  0
  5 10  2  0  0  0
  8  9  2  0  0  0
 24 23  1  0  0  0
 13 23  1  0  0  0
 13 11  1  0  0  0
 10  9  1  0  0  0
 10 11  1  0  0  0
 11 12  2  0  0  0
 14 15  1  0  0  0
M  END
> <minimizedAffinity>
-7.51203

$$$$
5CY9_E0A_A_202


 24 26  0  0  0  0  0  0  0  0999 V2000
   -5.8407   20.0173   -3.4300 C   0  0  0  0  0  0  0  0  0  0  0  0
   -6.5025   18.7859   -3.6120 C   0  0  0  0  0  0  0  0  0  0  0  0
   -7.3476   18.2968   -2.5953 C   0  0  0  0  0  0  0  0  0  0  0  0
   -7.5037   19.0038   -1.4371 C   0  0  0  0  0  0  0  0  0  0  0  0
   -6.8605   20.1536   -1.2636 C   0  0  0  0  0  0  0  0  0  0  0  0
   -6.0420   20.7119   -2.1967 C   0  0  0  0  0  0  0  0  0  0  0  0
   -5.4286   21.9324   -1.8103 C   0  0  0  0  0  0  0  0  0  0  0  0
   -5.7275   22.4923   -0.5542 C   0  0  0  0  0  0  0  0  0  0  0  0
   -6.5819   21.8250    0.3401 C   0  0  0  0  0  0  0  0  0  0  0  0
   -7.1619   20.6687   -0.0341 C   0  0  0  0  0  0  0  0  0  0  0  0
   -8.0152   19.7997    0.5486 C   0  0  0  0  0  0  0  0  0  0  0  0
   -8.6146   19.8981    1.6439 O   0  0  0  0  0  0  0  0  0  0  0  0
   -8.2467   18.7877   -0.3212 N   0  0  0  0  0  0  0  0  0  0  0  0
   -4.9857   20.5712   -4.3555 N   0  0  0  0  0  0  0  0  0  0  0  0
   -4.0159   20.4335   -4.2566 H   0  0  0  0  0  0  0  0  0  0  0  0
   -5.5327   21.4371   -5.5935 S   0  0  0  0  0  0  0  0  0  0  0  0
   -6.8670   20.9084   -6.0697 O   0  0  0  0  0  0  0  0  0  0  0  0
   -4.4916   21.4217   -6.7051 O   0  0  0  0  0  0  0  0  0  0  0  0
   -5.8113   23.1587   -5.1002 C   0  0  0  0  0  0  0  0  0  0  0  0
   -7.3147   23.3559   -5.0911 C   0  0  0  0  0  0  0  0  0  0  0  0
   -6.6496   24.9368   -3.5138 C   0  0  0  0  0  0  0  0  0  0  0  0
   -7.4578   24.8171   -4.7506 C   0  0  0  0  0  0  0  0  0  0  0  0
   -9.1402   17.6996   -0.0211 C   0  0  0  0  0  0  0  0  0  0  0  0
   -8.3014   16.5755    0.5550 C   0  0  0  0  0  0  0  0  0  0  0  0
 18 16  2  0  0  0
 17 16  2  0  0  0
 22 20  1  0  0  0
 22 21  1  0  0  0
 19 16  1  0  0  0
 19 20  1  0  0  0
 16 14  1  0  0  0
 14  1  1  0  0  0
  2  1  2  0  0  0
  2  3  1  0  0  0
  1  6  1  0  0  0
  3  4  2  0  0  0
  6  7  2  0  0  0
  6  5  1  0  0  0
  7  8  1  0  0  0
  4  5  1  0  0  0
  4 13  1  0  0  0
  5 10  2  0  0  0
  8  9  2  0  0  0
 24 23  1  0  0  0
 13 23  1  0  0  0
 13 11  1  0  0  0
 10  9  1  0  0  0
 10 11  1  0  0  0
 11 12  2  0  0  0
 14 15  1  0  0  0
M  END
> <minimizedAffinity>
-7.39406

$$$$
5CY9_E0A_A_202


 24 26  0  0  0  0  0  0  0  0999 V2000
   -6.6253   20.2944   -1.3542 C   0  0  0  0  0  0  0  0  0  0  0  0
   -6.6422   19.0741   -2.0600 C   0  0  0  0  0  0  0  0  0  0  0  0
   -6.3903   19.0726   -3.4470 C   0  0  0  0  0  0  0  0  0  0  0  0
   -6.1535   20.2486   -4.1000 C   0  0  0  0  0  0  0  0  0  0  0  0
   -6.1597   21.3975   -3.4323 C   0  0  0  0  0  0  0  0  0  0  0  0
   -6.3726   21.4930   -2.0914 C   0  0  0  0  0  0  0  0  0  0  0  0
   -6.3639   22.8135   -1.5704 C   0  0  0  0  0  0  0  0  0  0  0  0
   -6.1008   23.8968   -2.4292 C   0  0  0  0  0  0  0  0  0  0  0  0
   -5.9037   23.6863   -3.8047 C   0  0  0  0  0  0  0  0  0  0  0  0
   -5.9112   22.4308   -4.2915 C   0  0  0  0  0  0  0  0  0  0  0  0
   -5.7491   21.8834   -5.5150 C   0  0  0  0  0  0  0  0  0  0  0  0
   -5.4286   22.4387   -6.5908 O   0  0  0  0  0  0  0  0  0  0  0  0
   -5.8728   20.5399   -5.3964 N   0  0  0  0  0  0  0  0  0  0  0  0
   -6.8728   20.4017   -0.0045 N   0  0  0  0  0  0  0  0  0  0  0  0
   -6.4495   21.1299    0.5053 H   0  0  0  0  0  0  0  0  0  0  0  0
   -7.8360   19.3668    0.7589 S   0  0  0  0  0  0  0  0  0  0  0  0
   -8.4588   20.0119    1.9764 O   0  0  0  0  0  0  0  0  0  0  0  0
   -7.0338   18.1256    1.1275 O   0  0  0  0  0  0  0  0  0  0  0  0
   -9.2090   18.8589   -0.3096 C   0  0  0  0  0  0  0  0  0  0  0  0
   -9.5062   17.4149    0.0448 C   0  0  0  0  0  0  0  0  0  0  0  0
   -8.5760   15.3919   -0.6419 C   0  0  0  0  0  0  0  0  0  0  0  0
   -9.0788   16.6719   -1.1949 C   0  0  0  0  0  0  0  0  0  0  0  0
   -5.7258   19.6480   -6.5167 C   0  0  0  0  0  0  0  0  0  0  0  0
   -4.3043   19.1212   -6.4880 C   0  0  0  0  0  0  0  0  0  0  0  0
 18 16  2  0  0  0
 17 16  2  0  0  0
 22 20  1  0  0  0
 22 21  1  0  0  0
 19 16  1  0  0  0
 19 20  1  0  0  0
 16 14  1  0  0  0
 14  1  1  0  0  0
  2  1  2  0  0  0
  2  3  1  0  0  0
  1  6  1  0  0  0
  3  4  2  0  0  0
  6  7  2  0  0  0
  6  5  1  0  0  0
  7  8  1  0  0  0
  4  5  1  0  0  0
  4 13  1  0  0  0
  5 10  2  0  0  0
  8  9  2  0  0  0
 24 23  1  0  0  0
 13 23  1  0  0  0
 13 11  1  0  0  0
 10  9  1  0  0  0
 10 11  1  0  0  0
 11 12  2  0  0  0
 14 15  1  0  0  0
M  END
> <minimizedAffinity>
-6.99843

$$$$
5CY9_E0A_A_202


 24 26  0  0  0  0  0  0  0  0999 V2000
   -6.0677   19.0909   -4.0894 C   0  0  0  0  0  0  0  0  0  0  0  0
   -5.3973   20.3054   -4.3401 C   0  0  0  0  0  0  0  0  0  0  0  0
   -5.3187   21.2765   -3.3212 C   0  0  0  0  0  0  0  0  0  0  0  0
   -5.9072   21.0460   -2.1104 C   0  0  0  0  0  0  0  0  0  0  0  0
   -6.5555   19.9076   -1.8877 C   0  0  0  0  0  0  0  0  0  0  0  0
   -6.6647   18.9066   -2.8034 C   0  0  0  0  0  0  0  0  0  0  0  0
   -7.4188   17.7804   -2.3811 C   0  0  0  0  0  0  0  0  0  0  0  0
   -7.9480   17.7487   -1.0775 C   0  0  0  0  0  0  0  0  0  0  0  0
   -7.7839   18.8447   -0.2131 C   0  0  0  0  0  0  0  0  0  0  0  0
   -7.0655   19.9086   -0.6198 C   0  0  0  0  0  0  0  0  0  0  0  0
   -6.7102   21.0861   -0.0630 C   0  0  0  0  0  0  0  0  0  0  0  0
   -6.8906   21.4903    1.1086 O   0  0  0  0  0  0  0  0  0  0  0  0
   -5.9769   21.7771   -0.9681 N   0  0  0  0  0  0  0  0  0  0  0  0
   -6.2106   18.0885   -5.0217 N   0  0  0  0  0  0  0  0  0  0  0  0
   -7.0786   17.9702   -5.4709 H   0  0  0  0  0  0  0  0  0  0  0  0
   -4.9943   17.1069   -5.3943 S   0  0  0  0  0  0  0  0  0  0  0  0
   -5.4641   15.9906   -6.2996 O   0  0  0  0  0  0  0  0  0  0  0  0
   -4.3823   16.5687   -4.1075 O   0  0  0  0  0  0  0  0  0  0  0  0
   -3.7061   17.9974   -6.3067 C   0  0  0  0  0  0  0  0  0  0  0  0
   -3.9365   17.6856   -7.7725 C   0  0  0  0  0  0  0  0  0  0  0  0
   -4.0271   20.0136   -7.7360 C   0  0  0  0  0  0  0  0  0  0  0  0
   -3.3740   18.9003   -8.4649 C   0  0  0  0  0  0  0  0  0  0  0  0
   -5.4141   23.0707   -0.6815 C   0  0  0  0  0  0  0  0  0  0  0  0
   -6.2131   24.0921   -1.4673 C   0  0  0  0  0  0  0  0  0  0  0  0
 18 16  2  0  0  0
 17 16  2  0  0  0
 22 20  1  0  0  0
 22 21  1  0  0  0
 19 16  1  0  0  0
 19 20  1  0  0  0
 16 14  1  0  0  0
 14  1  1  0  0  0
  2  1  2  0  0  0
  2  3  1  0  0  0
  1  6  1  0  0  0
  3  4  2  0  0  0
  6  7  2  0  0  0
  6  5  1  0  0  0
  7  8  1  0  0  0
  4  5  1  0  0  0
  4 13  1  0  0  0
  5 10  2  0  0  0
  8  9  2  0  0  0
 24 23  1  0  0  0
 13 23  1  0  0  0
 13 11  1  0  0  0
 10  9  1  0  0  0
 10 11  1  0  0  0
 11 12  2  0  0  0
 14 15  1  0  0  0
M  END
> <minimizedAffinity>
-6.63909

$$$$
5CY9_E0A_A_202


 24 26  0  0  0  0  0  0  0  0999 V2000
   -5.4117   22.5105   -1.7303 C   0  0  0  0  0  0  0  0  0  0  0  0
   -5.9193   22.5132   -0.4150 C   0  0  0  0  0  0  0  0  0  0  0  0
   -6.6085   21.3806    0.0639 C   0  0  0  0  0  0  0  0  0  0  0  0
   -6.7985   20.3010   -0.7508 C   0  0  0  0  0  0  0  0  0  0  0  0
   -6.3357   20.3133   -1.9964 C   0  0  0  0  0  0  0  0  0  0  0  0
   -5.6422   21.3525   -2.5364 C   0  0  0  0  0  0  0  0  0  0  0  0
   -5.2549   21.1817   -3.8915 C   0  0  0  0  0  0  0  0  0  0  0  0
   -5.5592   19.9779   -4.5539 C   0  0  0  0  0  0  0  0  0  0  0  0
   -6.2911   18.9698   -3.9033 C   0  0  0  0  0  0  0  0  0  0  0  0
   -6.6532   19.1379   -2.6172 C   0  0  0  0  0  0  0  0  0  0  0  0
   -7.3277   18.3954   -1.7136 C   0  0  0  0  0  0  0  0  0  0  0  0
   -7.7453   17.2190   -1.8143 O   0  0  0  0  0  0  0  0  0  0  0  0
   -7.3970   19.0974   -0.5574 N   0  0  0  0  0  0  0  0  0  0  0  0
   -4.7389   23.5708   -2.2936 N   0  0  0  0  0  0  0  0  0  0  0  0
   -3.7570   23.5379   -2.3570 H   0  0  0  0  0  0  0  0  0  0  0  0
   -5.5179   24.8611   -2.8502 S   0  0  0  0  0  0  0  0  0  0  0  0
   -4.7427   26.1250   -2.5535 O   0  0  0  0  0  0  0  0  0  0  0  0
   -6.9119   24.8986   -2.2375 O   0  0  0  0  0  0  0  0  0  0  0  0
   -5.6919   24.7790   -4.6524 C   0  0  0  0  0  0  0  0  0  0  0  0
   -6.9911   24.0434   -4.9168 C   0  0  0  0  0  0  0  0  0  0  0  0
   -7.8395   22.4700   -6.4115 C   0  0  0  0  0  0  0  0  0  0  0  0
   -6.8017   23.5243   -6.3190 C   0  0  0  0  0  0  0  0  0  0  0  0
   -8.0303   18.5773    0.6261 C   0  0  0  0  0  0  0  0  0  0  0  0
   -9.5270   18.6093    0.3857 C   0  0  0  0  0  0  0  0  0  0  0  0
 18 16  2  0  0  0
 17 16  2  0  0  0
 22 20  1  0  0  0
 22 21  1  0  0  0
 19 16  1  0  0  0
 19 20  1  0  0  0
 16 14  1  0  0  0
 14  1  1  0  0  0
  2  1  2  0  0  0
  2  3  1  0  0  0
  1  6  1  0  0  0
  3  4  2  0  0  0
  6  7  2  0  0  0
  6  5  1  0  0  0
  7  8  1  0  0  0
  4  5  1  0  0  0
  4 13  1  0  0  0
  5 10  2  0  0  0
  8  9  2  0  0  0
 24 23  1  0  0  0
 13 23  1  0  0  0
 13 11  1  0  0  0
 10  9  1  0  0  0
 10 11  1  0  0  0
 11 12  2  0  0  0
 14 15  1  0  0  0
M  END
> <minimizedAffinity>
-6.63615

$$$$
