2QTT_FMC_B_269


 25 27  0  0  0  0  0  0  0  0999 V2000
  -19.5010  -18.6872  -26.1318 N   0  0  0  0  0  0  0  0  0  0  0  0
  -19.3758  -18.0762  -24.9311 C   0  0  0  0  0  0  0  0  0  0  0  0
  -20.2264  -18.2646  -23.8909 N   0  0  0  0  0  0  0  0  0  0  0  0
  -21.2573  -19.1180  -24.0530 C   0  0  0  0  0  0  0  0  0  0  0  0
  -21.4680  -19.8305  -25.3273 C   0  0  0  0  0  0  0  0  0  0  0  0
  -20.4981  -19.5681  -26.4091 C   0  0  0  0  0  0  0  0  0  0  0  0
  -20.5985  -20.1601  -27.6298 N   0  0  0  0  0  0  0  0  0  0  0  0
  -22.5721  -20.5898  -25.1862 N   0  0  0  0  0  0  0  0  0  0  0  0
  -23.0853  -20.4379  -23.8757 N   0  0  0  0  0  0  0  0  0  0  0  0
  -22.3562  -19.5523  -23.1456 C   0  0  0  0  0  0  0  0  0  0  0  0
  -19.9340  -19.9625  -28.3289 H   0  0  0  0  0  0  0  0  0  0  0  0
  -21.3357  -20.7860  -27.8142 H   0  0  0  0  0  0  0  0  0  0  0  0
  -22.9617  -21.1619  -25.8863 H   0  0  0  0  0  0  0  0  0  0  0  0
  -22.5326  -19.0919  -21.7159 C   0  0  0  0  0  0  0  0  0  0  0  0
  -21.6131  -18.0107  -21.1262 C   0  0  0  0  0  0  0  0  0  0  0  0
  -20.6409  -18.5449  -20.2087 O   0  0  0  0  0  0  0  0  0  0  0  0
  -22.5608  -17.0240  -20.4565 C   0  0  0  0  0  0  0  0  0  0  0  0
  -22.7559  -17.3000  -19.0616 O   0  0  0  0  0  0  0  0  0  0  0  0
  -23.8809  -17.2194  -21.1775 C   0  0  0  0  0  0  0  0  0  0  0  0
  -23.8676  -18.5859  -21.5577 O   0  0  0  0  0  0  0  0  0  0  0  0
  -21.0969  -18.9923  -19.4787 H   0  0  0  0  0  0  0  0  0  0  0  0
  -23.1141  -18.1952  -18.9562 H   0  0  0  0  0  0  0  0  0  0  0  0
  -24.0253  -16.3408  -22.4224 C   0  0  0  0  0  0  0  0  0  0  0  0
  -24.0203  -14.9413  -22.0607 O   0  0  0  0  0  0  0  0  0  0  0  0
  -24.7653  -14.7580  -21.4671 H   0  0  0  0  0  0  0  0  0  0  0  0
  1  2  2  0  0  0
  1  6  1  0  0  0
  2  3  1  0  0  0
  3  4  2  0  0  0
  4  5  1  0  0  0
  4 10  1  0  0  0
  5  6  2  0  0  0
  5  8  1  0  0  0
  6  7  1  0  0  0
  8  9  1  0  0  0
  9 10  2  0  0  0
 10 14  1  0  0  0
 14 15  1  0  0  0
 14 20  1  0  0  0
 15 16  1  0  0  0
 15 17  1  0  0  0
 17 18  1  0  0  0
 17 19  1  0  0  0
 19 20  1  0  0  0
 19 23  1  0  0  0
 23 24  1  0  0  0
  7 11  1  0  0  0
  7 12  1  0  0  0
  8 13  1  0  0  0
 16 21  1  0  0  0
 18 22  1  0  0  0
 24 25  1  0  0  0
M  END
> <minimizedAffinity>
-9.88930

$$$$
2QTT_FMC_B_269


 25 27  0  0  0  0  0  0  0  0999 V2000
  -21.8678  -20.1915  -26.2672 N   0  0  0  0  0  0  0  0  0  0  0  0
  -22.8957  -20.5172  -25.4497 C   0  0  0  0  0  0  0  0  0  0  0  0
  -22.9648  -20.1674  -24.1406 N   0  0  0  0  0  0  0  0  0  0  0  0
  -21.9553  -19.4435  -23.6169 C   0  0  0  0  0  0  0  0  0  0  0  0
  -20.7967  -19.0409  -24.4362 C   0  0  0  0  0  0  0  0  0  0  0  0
  -20.7984  -19.4634  -25.8509 C   0  0  0  0  0  0  0  0  0  0  0  0
  -19.7783  -19.1589  -26.6979 N   0  0  0  0  0  0  0  0  0  0  0  0
  -19.9607  -18.3480  -23.6385 N   0  0  0  0  0  0  0  0  0  0  0  0
  -20.5202  -18.2474  -22.3421 N   0  0  0  0  0  0  0  0  0  0  0  0
  -21.7095  -18.9005  -22.2515 C   0  0  0  0  0  0  0  0  0  0  0  0
  -19.8116  -19.4565  -27.6358 H   0  0  0  0  0  0  0  0  0  0  0  0
  -19.0068  -18.6408  -26.3731 H   0  0  0  0  0  0  0  0  0  0  0  0
  -19.0946  -17.9700  -23.9145 H   0  0  0  0  0  0  0  0  0  0  0  0
  -22.6498  -19.0509  -21.0766 C   0  0  0  0  0  0  0  0  0  0  0  0
  -22.2651  -18.4990  -19.6948 C   0  0  0  0  0  0  0  0  0  0  0  0
  -21.8901  -19.5328  -18.7659 O   0  0  0  0  0  0  0  0  0  0  0  0
  -23.4936  -17.7246  -19.2350 C   0  0  0  0  0  0  0  0  0  0  0  0
  -24.3769  -18.5137  -18.4244 O   0  0  0  0  0  0  0  0  0  0  0  0
  -24.2127  -17.3595  -20.5195 C   0  0  0  0  0  0  0  0  0  0  0  0
  -23.8992  -18.4225  -21.4049 O   0  0  0  0  0  0  0  0  0  0  0  0
  -22.6290  -20.1514  -18.6550 H   0  0  0  0  0  0  0  0  0  0  0  0
  -24.6692  -19.2904  -18.9266 H   0  0  0  0  0  0  0  0  0  0  0  0
  -23.7404  -16.0336  -21.1206 C   0  0  0  0  0  0  0  0  0  0  0  0
  -24.1501  -15.9270  -22.5028 O   0  0  0  0  0  0  0  0  0  0  0  0
  -23.7581  -16.6528  -23.0131 H   0  0  0  0  0  0  0  0  0  0  0  0
  1  2  2  0  0  0
  1  6  1  0  0  0
  2  3  1  0  0  0
  3  4  2  0  0  0
  4  5  1  0  0  0
  4 10  1  0  0  0
  5  6  2  0  0  0
  5  8  1  0  0  0
  6  7  1  0  0  0
  8  9  1  0  0  0
  9 10  2  0  0  0
 10 14  1  0  0  0
 14 15  1  0  0  0
 14 20  1  0  0  0
 15 16  1  0  0  0
 15 17  1  0  0  0
 17 18  1  0  0  0
 17 19  1  0  0  0
 19 20  1  0  0  0
 19 23  1  0  0  0
 23 24  1  0  0  0
  7 11  1  0  0  0
  7 12  1  0  0  0
  8 13  1  0  0  0
 16 21  1  0  0  0
 18 22  1  0  0  0
 24 25  1  0  0  0
M  END
> <minimizedAffinity>
-7.33484

$$$$
