5LZ4_7BW_A_503


 20 21  0  0  0  0  0  0  0  0999 V2000
   25.1998    6.0281   -1.6426 C   0  0  0  0  0  0  0  0  0  0  0  0
   26.6366    5.5456   -1.5913 C   0  0  0  0  0  0  0  0  0  0  0  0
   25.6610    0.9451   -1.2967 C   0  0  0  0  0  0  0  0  0  0  0  0
   26.1929    1.8662   -2.4111 C   0  0  0  0  0  0  0  0  0  0  0  0
   25.8214    1.2823   -3.7886 C   0  0  0  0  0  0  0  0  0  0  0  0
   25.6244    3.3068   -2.2566 C   0  0  0  0  0  0  0  0  0  0  0  0
   26.7748    4.1385   -1.9244 N   0  0  0  0  0  0  0  0  0  0  0  0
   27.9505    3.4964   -1.9610 C   0  0  0  0  0  0  0  0  0  0  0  0
   29.0394    4.0166   -1.7603 O   0  0  0  0  0  0  0  0  0  0  0  0
   27.7269    2.0474   -2.2861 C   0  0  0  0  0  0  0  0  0  0  0  0
   25.1971    7.4322   -1.9486 O   0  0  0  0  0  0  0  0  0  0  0  0
   23.9358    7.4100   -4.0519 C   0  0  0  0  0  0  0  0  0  0  0  0
   22.9422    7.9824   -4.8201 C   0  0  0  0  0  0  0  0  0  0  0  0
   22.2469    9.0623   -4.3383 C   0  0  0  0  0  0  0  0  0  0  0  0
   22.5124    9.6021   -3.0890 C   0  0  0  0  0  0  0  0  0  0  0  0
   24.2304    7.9265   -2.7923 C   0  0  0  0  0  0  0  0  0  0  0  0
   21.2730    9.6209   -5.0948 F   0  0  0  0  0  0  0  0  0  0  0  0
   23.5205    9.0199   -2.3129 C   0  0  0  0  0  0  0  0  0  0  0  0
   21.7893   10.7233   -2.5907 C   0  0  0  0  0  0  0  0  0  0  0  0
   21.2013   11.6351   -2.1862 N   0  0  0  0  0  0  0  0  0  0  0  0
 17 14  1  0  0  0
 13 14  2  0  0  0
 13 12  1  0  0  0
 14 15  1  0  0  0
 12 16  2  0  0  0
 15 19  1  0  0  0
 15 18  2  0  0  0
  5  4  1  0  0  0
 16 18  1  0  0  0
 16 11  1  0  0  0
 19 20  3  0  0  0
  1 11  1  0  0  0
  1  2  1  0  0  0
 10  4  1  0  0  0
 10  8  1  0  0  0
  9  8  2  0  0  0
  4  6  1  0  0  0
  4  3  1  0  0  0
  8  7  1  0  0  0
  6  7  1  0  0  0
  7  2  1  0  0  0
M  END
> <minimizedAffinity>
-8.54769

$$$$
5LZ4_7BW_A_503


 20 21  0  0  0  0  0  0  0  0999 V2000
   25.6407    6.1783   -2.1058 C   0  0  0  0  0  0  0  0  0  0  0  0
   25.8198    5.0875   -1.0675 C   0  0  0  0  0  0  0  0  0  0  0  0
   25.9376    0.3889   -1.4044 C   0  0  0  0  0  0  0  0  0  0  0  0
   26.0486    1.5464   -2.4149 C   0  0  0  0  0  0  0  0  0  0  0  0
   25.5733    1.0714   -3.8024 C   0  0  0  0  0  0  0  0  0  0  0  0
   25.2171    2.7745   -1.9431 C   0  0  0  0  0  0  0  0  0  0  0  0
   26.1992    3.8103   -1.6463 N   0  0  0  0  0  0  0  0  0  0  0  0
   27.4606    3.4820   -1.9578 C   0  0  0  0  0  0  0  0  0  0  0  0
   28.4281    4.2200   -1.8320 O   0  0  0  0  0  0  0  0  0  0  0  0
   27.5034    2.0758   -2.4835 C   0  0  0  0  0  0  0  0  0  0  0  0
   24.2888    6.1336   -2.5909 O   0  0  0  0  0  0  0  0  0  0  0  0
   23.9619    8.5359   -2.2210 C   0  0  0  0  0  0  0  0  0  0  0  0
   23.2192    9.6662   -2.4966 C   0  0  0  0  0  0  0  0  0  0  0  0
   22.1405    9.5825   -3.3397 C   0  0  0  0  0  0  0  0  0  0  0  0
   21.7693    8.3851   -3.9322 C   0  0  0  0  0  0  0  0  0  0  0  0
   23.6175    7.3156   -2.7976 C   0  0  0  0  0  0  0  0  0  0  0  0
   21.4146   10.6935   -3.6076 F   0  0  0  0  0  0  0  0  0  0  0  0
   22.5237    7.2410   -3.6505 C   0  0  0  0  0  0  0  0  0  0  0  0
   20.6489    8.3005   -4.8073 C   0  0  0  0  0  0  0  0  0  0  0  0
   19.7383    8.2319   -5.5193 N   0  0  0  0  0  0  0  0  0  0  0  0
 17 14  1  0  0  0
 13 14  2  0  0  0
 13 12  1  0  0  0
 14 15  1  0  0  0
 12 16  2  0  0  0
 15 19  1  0  0  0
 15 18  2  0  0  0
  5  4  1  0  0  0
 16 18  1  0  0  0
 16 11  1  0  0  0
 19 20  3  0  0  0
  1 11  1  0  0  0
  1  2  1  0  0  0
 10  4  1  0  0  0
 10  8  1  0  0  0
  9  8  2  0  0  0
  4  6  1  0  0  0
  4  3  1  0  0  0
  8  7  1  0  0  0
  6  7  1  0  0  0
  7  2  1  0  0  0
M  END
> <minimizedAffinity>
-7.43145

$$$$
5LZ4_7BW_A_503


 20 21  0  0  0  0  0  0  0  0999 V2000
   24.1529    5.3739   -3.1172 C   0  0  0  0  0  0  0  0  0  0  0  0
   24.3741    6.8562   -2.8846 C   0  0  0  0  0  0  0  0  0  0  0  0
   20.7519    8.6349   -5.3176 C   0  0  0  0  0  0  0  0  0  0  0  0
   20.9905    8.2893   -3.8354 C   0  0  0  0  0  0  0  0  0  0  0  0
   19.6453    7.9674   -3.1545 C   0  0  0  0  0  0  0  0  0  0  0  0
   21.9734    7.0905   -3.6981 C   0  0  0  0  0  0  0  0  0  0  0  0
   23.1715    7.6469   -3.0812 N   0  0  0  0  0  0  0  0  0  0  0  0
   23.0590    8.9307   -2.7133 C   0  0  0  0  0  0  0  0  0  0  0  0
   23.9274    9.5739   -2.1400 O   0  0  0  0  0  0  0  0  0  0  0  0
   21.7089    9.4552   -3.1101 C   0  0  0  0  0  0  0  0  0  0  0  0
   24.6642    4.6499   -1.9861 O   0  0  0  0  0  0  0  0  0  0  0  0
   27.0404    4.0549   -1.8647 C   0  0  0  0  0  0  0  0  0  0  0  0
   28.0163    3.1055   -2.0917 C   0  0  0  0  0  0  0  0  0  0  0  0
   27.6712    1.8888   -2.6229 C   0  0  0  0  0  0  0  0  0  0  0  0
   26.3579    1.5781   -2.9410 C   0  0  0  0  0  0  0  0  0  0  0  0
   25.7107    3.7778   -2.1731 C   0  0  0  0  0  0  0  0  0  0  0  0
   28.6313    0.9603   -2.8441 F   0  0  0  0  0  0  0  0  0  0  0  0
   25.3710    2.5427   -2.7102 C   0  0  0  0  0  0  0  0  0  0  0  0
   26.0018    0.3142   -3.4925 C   0  0  0  0  0  0  0  0  0  0  0  0
   25.7127   -0.7137   -3.9404 N   0  0  0  0  0  0  0  0  0  0  0  0
 17 14  1  0  0  0
 13 14  2  0  0  0
 13 12  1  0  0  0
 14 15  1  0  0  0
 12 16  2  0  0  0
 15 19  1  0  0  0
 15 18  2  0  0  0
  5  4  1  0  0  0
 16 18  1  0  0  0
 16 11  1  0  0  0
 19 20  3  0  0  0
  1 11  1  0  0  0
  1  2  1  0  0  0
 10  4  1  0  0  0
 10  8  1  0  0  0
  9  8  2  0  0  0
  4  6  1  0  0  0
  4  3  1  0  0  0
  8  7  1  0  0  0
  6  7  1  0  0  0
  7  2  1  0  0  0
M  END
> <minimizedAffinity>
-6.98814

$$$$
5LZ4_7BW_A_503


 20 21  0  0  0  0  0  0  0  0999 V2000
   19.5987    5.7797   -3.4733 C   0  0  0  0  0  0  0  0  0  0  0  0
   19.8131    4.4092   -4.0863 C   0  0  0  0  0  0  0  0  0  0  0  0
   19.0821    2.0776   -0.0573 C   0  0  0  0  0  0  0  0  0  0  0  0
   19.6172    1.6873   -1.4482 C   0  0  0  0  0  0  0  0  0  0  0  0
   19.3486    0.1914   -1.7066 C   0  0  0  0  0  0  0  0  0  0  0  0
   18.9622    2.5600   -2.5579 C   0  0  0  0  0  0  0  0  0  0  0  0
   20.0461    3.3742   -3.0941 N   0  0  0  0  0  0  0  0  0  0  0  0
   21.2563    3.0791   -2.5995 C   0  0  0  0  0  0  0  0  0  0  0  0
   22.3029    3.6094   -2.9457 O   0  0  0  0  0  0  0  0  0  0  0  0
   21.1304    2.0018   -1.5608 C   0  0  0  0  0  0  0  0  0  0  0  0
   20.2201    6.7629   -4.3173 O   0  0  0  0  0  0  0  0  0  0  0  0
   22.5502    7.1328   -3.6474 C   0  0  0  0  0  0  0  0  0  0  0  0
   23.4859    7.9968   -3.1155 C   0  0  0  0  0  0  0  0  0  0  0  0
   23.1077    9.2597   -2.7363 C   0  0  0  0  0  0  0  0  0  0  0  0
   21.8006    9.7015   -2.8737 C   0  0  0  0  0  0  0  0  0  0  0  0
   21.2275    7.5422   -3.7992 C   0  0  0  0  0  0  0  0  0  0  0  0
   24.0285   10.1042   -2.2150 F   0  0  0  0  0  0  0  0  0  0  0  0
   20.8542    8.8231   -3.4128 C   0  0  0  0  0  0  0  0  0  0  0  0
   21.4100   11.0130   -2.4794 C   0  0  0  0  0  0  0  0  0  0  0  0
   21.0921   12.0795   -2.1593 N   0  0  0  0  0  0  0  0  0  0  0  0
 17 14  1  0  0  0
 13 14  2  0  0  0
 13 12  1  0  0  0
 14 15  1  0  0  0
 12 16  2  0  0  0
 15 19  1  0  0  0
 15 18  2  0  0  0
  5  4  1  0  0  0
 16 18  1  0  0  0
 16 11  1  0  0  0
 19 20  3  0  0  0
  1 11  1  0  0  0
  1  2  1  0  0  0
 10  4  1  0  0  0
 10  8  1  0  0  0
  9  8  2  0  0  0
  4  6  1  0  0  0
  4  3  1  0  0  0
  8  7  1  0  0  0
  6  7  1  0  0  0
  7  2  1  0  0  0
M  END
> <minimizedAffinity>
-6.79845

$$$$
5LZ4_7BW_A_503


 20 21  0  0  0  0  0  0  0  0999 V2000
   19.4332    5.8304   -4.1008 C   0  0  0  0  0  0  0  0  0  0  0  0
   19.7264    4.7522   -3.0753 C   0  0  0  0  0  0  0  0  0  0  0  0
   19.5936    0.2590   -4.4887 C   0  0  0  0  0  0  0  0  0  0  0  0
   20.3627    1.5124   -4.9477 C   0  0  0  0  0  0  0  0  0  0  0  0
   20.7207    1.3836   -6.4416 C   0  0  0  0  0  0  0  0  0  0  0  0
   19.5245    2.7993   -4.6954 C   0  0  0  0  0  0  0  0  0  0  0  0
   20.2513    3.5340   -3.6672 N   0  0  0  0  0  0  0  0  0  0  0  0
   21.4305    2.9934   -3.3303 C   0  0  0  0  0  0  0  0  0  0  0  0
   22.2160    3.4725   -2.5241 O   0  0  0  0  0  0  0  0  0  0  0  0
   21.6385    1.7159   -4.0919 C   0  0  0  0  0  0  0  0  0  0  0  0
   20.6718    6.2409   -4.7029 O   0  0  0  0  0  0  0  0  0  0  0  0
   20.9305    8.6062   -4.1086 C   0  0  0  0  0  0  0  0  0  0  0  0
   21.7103    9.5802   -3.5184 C   0  0  0  0  0  0  0  0  0  0  0  0
   22.9193    9.2414   -2.9659 C   0  0  0  0  0  0  0  0  0  0  0  0
   23.3874    7.9362   -2.9801 C   0  0  0  0  0  0  0  0  0  0  0  0
   21.3693    7.2847   -4.1422 C   0  0  0  0  0  0  0  0  0  0  0  0
   23.6813   10.1995   -2.3879 F   0  0  0  0  0  0  0  0  0  0  0  0
   22.5948    6.9513   -3.5796 C   0  0  0  0  0  0  0  0  0  0  0  0
   24.6429    7.5866   -2.4060 C   0  0  0  0  0  0  0  0  0  0  0  0
   25.6640    7.3028   -1.9396 N   0  0  0  0  0  0  0  0  0  0  0  0
 17 14  1  0  0  0
 13 14  2  0  0  0
 13 12  1  0  0  0
 14 15  1  0  0  0
 12 16  2  0  0  0
 15 19  1  0  0  0
 15 18  2  0  0  0
  5  4  1  0  0  0
 16 18  1  0  0  0
 16 11  1  0  0  0
 19 20  3  0  0  0
  1 11  1  0  0  0
  1  2  1  0  0  0
 10  4  1  0  0  0
 10  8  1  0  0  0
  9  8  2  0  0  0
  4  6  1  0  0  0
  4  3  1  0  0  0
  8  7  1  0  0  0
  6  7  1  0  0  0
  7  2  1  0  0  0
M  END
> <minimizedAffinity>
-6.72607

$$$$
5LZ4_7BW_A_503


 20 21  0  0  0  0  0  0  0  0999 V2000
   19.3573    6.5427   -4.3358 C   0  0  0  0  0  0  0  0  0  0  0  0
   19.6653    5.6580   -3.1431 C   0  0  0  0  0  0  0  0  0  0  0  0
   18.7698    1.0339   -3.2827 C   0  0  0  0  0  0  0  0  0  0  0  0
   19.4923    2.0219   -4.2182 C   0  0  0  0  0  0  0  0  0  0  0  0
   19.4228    1.5076   -5.6698 C   0  0  0  0  0  0  0  0  0  0  0  0
   18.8672    3.4432   -4.1112 C   0  0  0  0  0  0  0  0  0  0  0  0
   19.9044    4.2732   -3.5108 N   0  0  0  0  0  0  0  0  0  0  0  0
   21.0795    3.6521   -3.3391 C   0  0  0  0  0  0  0  0  0  0  0  0
   22.0913    4.1772   -2.8952 O   0  0  0  0  0  0  0  0  0  0  0  0
   20.9639    2.2194   -3.7746 C   0  0  0  0  0  0  0  0  0  0  0  0
   20.5932    6.8918   -4.9805 O   0  0  0  0  0  0  0  0  0  0  0  0
   22.8392    7.2390   -4.0584 C   0  0  0  0  0  0  0  0  0  0  0  0
   23.6913    8.0570   -3.3444 C   0  0  0  0  0  0  0  0  0  0  0  0
   23.2346    9.2551   -2.8569 C   0  0  0  0  0  0  0  0  0  0  0  0
   21.9296    9.6761   -3.0625 C   0  0  0  0  0  0  0  0  0  0  0  0
   21.5211    7.6292   -4.2834 C   0  0  0  0  0  0  0  0  0  0  0  0
   24.0735   10.0547   -2.1571 F   0  0  0  0  0  0  0  0  0  0  0  0
   21.0680    8.8444   -3.7862 C   0  0  0  0  0  0  0  0  0  0  0  0
   21.4574   10.9204   -2.5555 C   0  0  0  0  0  0  0  0  0  0  0  0
   21.0731   11.9321   -2.1437 N   0  0  0  0  0  0  0  0  0  0  0  0
 17 14  1  0  0  0
 13 14  2  0  0  0
 13 12  1  0  0  0
 14 15  1  0  0  0
 12 16  2  0  0  0
 15 19  1  0  0  0
 15 18  2  0  0  0
  5  4  1  0  0  0
 16 18  1  0  0  0
 16 11  1  0  0  0
 19 20  3  0  0  0
  1 11  1  0  0  0
  1  2  1  0  0  0
 10  4  1  0  0  0
 10  8  1  0  0  0
  9  8  2  0  0  0
  4  6  1  0  0  0
  4  3  1  0  0  0
  8  7  1  0  0  0
  6  7  1  0  0  0
  7  2  1  0  0  0
M  END
> <minimizedAffinity>
-6.67456

$$$$
5LZ4_7BW_A_503


 20 21  0  0  0  0  0  0  0  0999 V2000
   19.7386    5.7990   -3.5665 C   0  0  0  0  0  0  0  0  0  0  0  0
   19.6777    4.3896   -4.1231 C   0  0  0  0  0  0  0  0  0  0  0  0
   19.0784    2.1192   -0.0377 C   0  0  0  0  0  0  0  0  0  0  0  0
   19.5755    1.7096   -1.4372 C   0  0  0  0  0  0  0  0  0  0  0  0
   19.3090    0.2082   -1.6637 C   0  0  0  0  0  0  0  0  0  0  0  0
   18.8831    2.5604   -2.5412 C   0  0  0  0  0  0  0  0  0  0  0  0
   19.9459    3.3722   -3.1216 N   0  0  0  0  0  0  0  0  0  0  0  0
   21.1717    3.0923   -2.6577 C   0  0  0  0  0  0  0  0  0  0  0  0
   22.2045    3.6229   -3.0426 O   0  0  0  0  0  0  0  0  0  0  0  0
   21.0828    2.0311   -1.5987 C   0  0  0  0  0  0  0  0  0  0  0  0
   20.5372    6.6067   -4.4468 O   0  0  0  0  0  0  0  0  0  0  0  0
   21.0029    8.9318   -3.8207 C   0  0  0  0  0  0  0  0  0  0  0  0
   21.8846    9.8320   -3.2574 C   0  0  0  0  0  0  0  0  0  0  0  0
   23.0948    9.3931   -2.7835 C   0  0  0  0  0  0  0  0  0  0  0  0
   23.4638    8.0583   -2.8516 C   0  0  0  0  0  0  0  0  0  0  0  0
   21.3405    7.5832   -3.9067 C   0  0  0  0  0  0  0  0  0  0  0  0
   23.9569   10.2792   -2.2317 F   0  0  0  0  0  0  0  0  0  0  0  0
   22.5681    7.1483   -3.4236 C   0  0  0  0  0  0  0  0  0  0  0  0
   24.7208    7.6047   -2.3590 C   0  0  0  0  0  0  0  0  0  0  0  0
   25.7428    7.2365   -1.9582 N   0  0  0  0  0  0  0  0  0  0  0  0
 17 14  1  0  0  0
 13 14  2  0  0  0
 13 12  1  0  0  0
 14 15  1  0  0  0
 12 16  2  0  0  0
 15 19  1  0  0  0
 15 18  2  0  0  0
  5  4  1  0  0  0
 16 18  1  0  0  0
 16 11  1  0  0  0
 19 20  3  0  0  0
  1 11  1  0  0  0
  1  2  1  0  0  0
 10  4  1  0  0  0
 10  8  1  0  0  0
  9  8  2  0  0  0
  4  6  1  0  0  0
  4  3  1  0  0  0
  8  7  1  0  0  0
  6  7  1  0  0  0
  7  2  1  0  0  0
M  END
> <minimizedAffinity>
-6.50013

$$$$
5LZ4_7BW_A_503


 20 21  0  0  0  0  0  0  0  0999 V2000
   24.6744    4.5906   -2.9924 C   0  0  0  0  0  0  0  0  0  0  0  0
   24.3313    3.3869   -2.1360 C   0  0  0  0  0  0  0  0  0  0  0  0
   28.7592    1.7843   -2.3057 C   0  0  0  0  0  0  0  0  0  0  0  0
   27.4522    1.2784   -1.6660 C   0  0  0  0  0  0  0  0  0  0  0  0
   27.7793    0.4032   -0.4398 C   0  0  0  0  0  0  0  0  0  0  0  0
   26.5381    2.4703   -1.2587 C   0  0  0  0  0  0  0  0  0  0  0  0
   25.3752    2.3768   -2.1330 N   0  0  0  0  0  0  0  0  0  0  0  0
   25.3569    1.2882   -2.9145 C   0  0  0  0  0  0  0  0  0  0  0  0
   24.4541    0.9949   -3.6862 O   0  0  0  0  0  0  0  0  0  0  0  0
   26.6085    0.4871   -2.6972 C   0  0  0  0  0  0  0  0  0  0  0  0
   24.5776    5.7736   -2.1823 O   0  0  0  0  0  0  0  0  0  0  0  0
   24.0293    8.1636   -2.2311 C   0  0  0  0  0  0  0  0  0  0  0  0
   23.2593    9.1709   -2.7765 C   0  0  0  0  0  0  0  0  0  0  0  0
   22.3302    8.8711   -3.7401 C   0  0  0  0  0  0  0  0  0  0  0  0
   22.1390    7.5735   -4.1900 C   0  0  0  0  0  0  0  0  0  0  0  0
   23.8638    6.8482   -2.6582 C   0  0  0  0  0  0  0  0  0  0  0  0
   21.5769    9.8619   -4.2727 F   0  0  0  0  0  0  0  0  0  0  0  0
   22.9207    6.5545   -3.6348 C   0  0  0  0  0  0  0  0  0  0  0  0
   21.1738    7.2643   -5.1905 C   0  0  0  0  0  0  0  0  0  0  0  0
   20.3895    7.0131   -6.0045 N   0  0  0  0  0  0  0  0  0  0  0  0
 17 14  1  0  0  0
 13 14  2  0  0  0
 13 12  1  0  0  0
 14 15  1  0  0  0
 12 16  2  0  0  0
 15 19  1  0  0  0
 15 18  2  0  0  0
  5  4  1  0  0  0
 16 18  1  0  0  0
 16 11  1  0  0  0
 19 20  3  0  0  0
  1 11  1  0  0  0
  1  2  1  0  0  0
 10  4  1  0  0  0
 10  8  1  0  0  0
  9  8  2  0  0  0
  4  6  1  0  0  0
  4  3  1  0  0  0
  8  7  1  0  0  0
  6  7  1  0  0  0
  7  2  1  0  0  0
M  END
> <minimizedAffinity>
-6.42111

$$$$
5LZ4_7BW_A_503


 20 21  0  0  0  0  0  0  0  0999 V2000
   24.0252    5.8488   -3.4106 C   0  0  0  0  0  0  0  0  0  0  0  0
   23.3825    7.1150   -2.8778 C   0  0  0  0  0  0  0  0  0  0  0  0
   20.0707    6.7315   -6.2078 C   0  0  0  0  0  0  0  0  0  0  0  0
   20.1609    7.4622   -4.8546 C   0  0  0  0  0  0  0  0  0  0  0  0
   18.7479    7.6350   -4.2629 C   0  0  0  0  0  0  0  0  0  0  0  0
   21.0763    6.6839   -3.8654 C   0  0  0  0  0  0  0  0  0  0  0  0
   22.2367    7.5426   -3.6615 N   0  0  0  0  0  0  0  0  0  0  0  0
   22.1458    8.7438   -4.2488 C   0  0  0  0  0  0  0  0  0  0  0  0
   22.9857    9.6294   -4.1662 O   0  0  0  0  0  0  0  0  0  0  0  0
   20.8599    8.8354   -5.0193 C   0  0  0  0  0  0  0  0  0  0  0  0
   23.9598    4.8367   -2.3926 O   0  0  0  0  0  0  0  0  0  0  0  0
   24.3582    2.4602   -2.8491 C   0  0  0  0  0  0  0  0  0  0  0  0
   25.2680    1.4248   -2.9219 C   0  0  0  0  0  0  0  0  0  0  0  0
   26.5901    1.6601   -2.6418 C   0  0  0  0  0  0  0  0  0  0  0  0
   27.0470    2.9198   -2.2856 C   0  0  0  0  0  0  0  0  0  0  0  0
   24.7813    3.7387   -2.4935 C   0  0  0  0  0  0  0  0  0  0  0  0
   27.4795    0.6419   -2.7144 F   0  0  0  0  0  0  0  0  0  0  0  0
   26.1222    3.9672   -2.2122 C   0  0  0  0  0  0  0  0  0  0  0  0
   28.4201    3.1619   -1.9952 C   0  0  0  0  0  0  0  0  0  0  0  0
   29.5366    3.3589   -1.7597 N   0  0  0  0  0  0  0  0  0  0  0  0
 17 14  1  0  0  0
 13 14  2  0  0  0
 13 12  1  0  0  0
 14 15  1  0  0  0
 12 16  2  0  0  0
 15 19  1  0  0  0
 15 18  2  0  0  0
  5  4  1  0  0  0
 16 18  1  0  0  0
 16 11  1  0  0  0
 19 20  3  0  0  0
  1 11  1  0  0  0
  1  2  1  0  0  0
 10  4  1  0  0  0
 10  8  1  0  0  0
  9  8  2  0  0  0
  4  6  1  0  0  0
  4  3  1  0  0  0
  8  7  1  0  0  0
  6  7  1  0  0  0
  7  2  1  0  0  0
M  END
> <minimizedAffinity>
-6.37911

$$$$
5LZ4_7BW_A_503


 20 21  0  0  0  0  0  0  0  0999 V2000
   20.5822    5.2830   -3.8555 C   0  0  0  0  0  0  0  0  0  0  0  0
   19.3174    5.0873   -3.0418 C   0  0  0  0  0  0  0  0  0  0  0  0
   18.8793    0.6161   -4.4633 C   0  0  0  0  0  0  0  0  0  0  0  0
   18.0490    1.5476   -3.5598 C   0  0  0  0  0  0  0  0  0  0  0  0
   17.2585    0.7085   -2.5362 C   0  0  0  0  0  0  0  0  0  0  0  0
   18.9651    2.5749   -2.8335 C   0  0  0  0  0  0  0  0  0  0  0  0
   18.6013    3.8724   -3.3898 N   0  0  0  0  0  0  0  0  0  0  0  0
   17.5592    3.8406   -4.2319 C   0  0  0  0  0  0  0  0  0  0  0  0
   17.0650    4.8204   -4.7725 O   0  0  0  0  0  0  0  0  0  0  0  0
   17.0929    2.4238   -4.4081 C   0  0  0  0  0  0  0  0  0  0  0  0
   20.5525    6.5941   -4.4430 O   0  0  0  0  0  0  0  0  0  0  0  0
   21.0007    8.9265   -3.8312 C   0  0  0  0  0  0  0  0  0  0  0  0
   21.8755    9.8366   -3.2730 C   0  0  0  0  0  0  0  0  0  0  0  0
   23.0885    9.4095   -2.7957 C   0  0  0  0  0  0  0  0  0  0  0  0
   23.4674    8.0770   -2.8551 C   0  0  0  0  0  0  0  0  0  0  0  0
   21.3483    7.5799   -3.9086 C   0  0  0  0  0  0  0  0  0  0  0  0
   23.9438   10.3053   -2.2488 F   0  0  0  0  0  0  0  0  0  0  0  0
   22.5787    7.1570   -3.4220 C   0  0  0  0  0  0  0  0  0  0  0  0
   24.7273    7.6358   -2.3589 C   0  0  0  0  0  0  0  0  0  0  0  0
   25.7514    7.2769   -1.9549 N   0  0  0  0  0  0  0  0  0  0  0  0
 17 14  1  0  0  0
 13 14  2  0  0  0
 13 12  1  0  0  0
 14 15  1  0  0  0
 12 16  2  0  0  0
 15 19  1  0  0  0
 15 18  2  0  0  0
  5  4  1  0  0  0
 16 18  1  0  0  0
 16 11  1  0  0  0
 19 20  3  0  0  0
  1 11  1  0  0  0
  1  2  1  0  0  0
 10  4  1  0  0  0
 10  8  1  0  0  0
  9  8  2  0  0  0
  4  6  1  0  0  0
  4  3  1  0  0  0
  8  7  1  0  0  0
  6  7  1  0  0  0
  7  2  1  0  0  0
M  END
> <minimizedAffinity>
-6.29662

$$$$
