3ZBX_6XE_A_2345


 27 31  0  0  0  0  0  0  0  0999 V2000
   18.2750   11.9521   41.2108 C   0  0  0  0  0  0  0  0  0  0  0  0
   17.7252   12.8637   40.2485 C   0  0  0  0  0  0  0  0  0  0  0  0
   17.6480   12.5298   38.9621 N   0  0  0  0  0  0  0  0  0  0  0  0
   18.7014   10.7717   40.7896 N   0  0  0  0  0  0  0  0  0  0  0  0
   18.6146   10.4249   39.4311 N   0  0  0  0  0  0  0  0  0  0  0  0
   18.0815   11.3232   38.5197 C   0  0  0  0  0  0  0  0  0  0  0  0
   18.1274   10.7334   37.3400 N   0  0  0  0  0  0  0  0  0  0  0  0
   18.6423    9.5565   37.4679 N   0  0  0  0  0  0  0  0  0  0  0  0
   18.9561    9.3202   38.7189 C   0  0  0  0  0  0  0  0  0  0  0  0
   18.5560   12.9694   45.3996 C   0  0  0  0  0  0  0  0  0  0  0  0
   19.0353   11.7147   44.9555 C   0  0  0  0  0  0  0  0  0  0  0  0
   18.9517   11.3681   43.5959 C   0  0  0  0  0  0  0  0  0  0  0  0
   18.3848   12.2867   42.6605 C   0  0  0  0  0  0  0  0  0  0  0  0
   17.9094   13.5516   43.1192 C   0  0  0  0  0  0  0  0  0  0  0  0
   17.9956   13.8855   44.4820 C   0  0  0  0  0  0  0  0  0  0  0  0
   18.6333   13.2936   46.7036 F   0  0  0  0  0  0  0  0  0  0  0  0
   19.5778    8.0452   39.2702 C   0  0  0  0  0  0  0  0  0  0  0  0
   22.5284    8.5671   41.6865 C   0  0  0  0  0  0  0  0  0  0  0  0
   23.6452    8.6214   40.7521 C   0  0  0  0  0  0  0  0  0  0  0  0
   24.9086    8.7942   41.2308 N   0  0  0  0  0  0  0  0  0  0  0  0
   25.1650    8.9184   42.5433 C   0  0  0  0  0  0  0  0  0  0  0  0
   24.1239    8.8791   43.5083 C   0  0  0  0  0  0  0  0  0  0  0  0
   22.8036    8.7042   43.0874 C   0  0  0  0  0  0  0  0  0  0  0  0
   20.9881    8.2540   39.8065 C   0  0  0  0  0  0  0  0  0  0  0  0
   22.0833    8.3100   38.8995 C   0  0  0  0  0  0  0  0  0  0  0  0
   23.3856    8.4896   39.3522 C   0  0  0  0  0  0  0  0  0  0  0  0
   21.1980    8.3803   41.1847 C   0  0  0  0  0  0  0  0  0  0  0  0
 18 19  1  0  0  0
 18 23  2  0  0  0
 18 27  1  0  0  0
 19 20  2  0  0  0
 19 26  1  0  0  0
 20 21  1  0  0  0
 21 22  2  0  0  0
 22 23  1  0  0  0
 24 25  1  0  0  0
 24 27  2  0  0  0
 24 17  1  0  0  0
 25 26  2  0  0  0
  1  2  1  0  0  0
  1  4  2  0  0  0
  1 13  1  0  0  0
  2  3  2  0  0  0
  3  6  1  0  0  0
  4  5  1  0  0  0
 10 11  1  0  0  0
 10 15  2  0  0  0
 10 16  1  0  0  0
 11 12  2  0  0  0
 12 13  1  0  0  0
 13 14  2  0  0  0
 14 15  1  0  0  0
  5  6  1  0  0  0
  5  9  1  0  0  0
  6  7  2  0  0  0
  7  8  1  0  0  0
  8  9  2  0  0  0
  9 17  1  0  0  0
M  END
> <minimizedAffinity>
-11.86665

$$$$
3ZBX_6XE_A_2345


 27 31  0  0  0  0  0  0  0  0999 V2000
   18.1910   12.2190   41.1324 C   0  0  0  0  0  0  0  0  0  0  0  0
   17.8059   13.0760   40.0476 C   0  0  0  0  0  0  0  0  0  0  0  0
   17.7987   12.6257   38.7949 N   0  0  0  0  0  0  0  0  0  0  0  0
   18.5368   10.9709   40.8582 N   0  0  0  0  0  0  0  0  0  0  0  0
   18.5244   10.5016   39.5341 N   0  0  0  0  0  0  0  0  0  0  0  0
   18.1507   11.3490   38.5025 C   0  0  0  0  0  0  0  0  0  0  0  0
   18.2334   10.6448   37.3894 N   0  0  0  0  0  0  0  0  0  0  0  0
   18.6243    9.4463   37.6672 N   0  0  0  0  0  0  0  0  0  0  0  0
   18.8157    9.3074   38.9569 C   0  0  0  0  0  0  0  0  0  0  0  0
   18.3170   13.5257   45.2478 C   0  0  0  0  0  0  0  0  0  0  0  0
   17.5079   14.2244   44.3213 C   0  0  0  0  0  0  0  0  0  0  0  0
   17.4553   13.8122   42.9786 C   0  0  0  0  0  0  0  0  0  0  0  0
   18.2179   12.6831   42.5501 C   0  0  0  0  0  0  0  0  0  0  0  0
   19.0262   11.9828   43.4947 C   0  0  0  0  0  0  0  0  0  0  0  0
   19.0730   12.4065   44.8343 C   0  0  0  0  0  0  0  0  0  0  0  0
   18.3680   13.9284   46.5310 F   0  0  0  0  0  0  0  0  0  0  0  0
   19.2704    8.0438   39.6730 C   0  0  0  0  0  0  0  0  0  0  0  0
   22.7794    8.4317   41.2070 C   0  0  0  0  0  0  0  0  0  0  0  0
   22.4438    8.8002   42.5762 C   0  0  0  0  0  0  0  0  0  0  0  0
   23.4452    9.0400   43.4677 N   0  0  0  0  0  0  0  0  0  0  0  0
   24.7416    8.9478   43.1286 C   0  0  0  0  0  0  0  0  0  0  0  0
   25.1394    8.5893   41.8133 C   0  0  0  0  0  0  0  0  0  0  0  0
   24.1642    8.3296   40.8477 C   0  0  0  0  0  0  0  0  0  0  0  0
   20.3917    8.2965   40.6724 C   0  0  0  0  0  0  0  0  0  0  0  0
   20.0713    8.6548   42.0119 C   0  0  0  0  0  0  0  0  0  0  0  0
   21.0675    8.9025   42.9497 C   0  0  0  0  0  0  0  0  0  0  0  0
   21.7263    8.1836   40.2656 C   0  0  0  0  0  0  0  0  0  0  0  0
 18 19  1  0  0  0
 18 23  2  0  0  0
 18 27  1  0  0  0
 19 20  2  0  0  0
 19 26  1  0  0  0
 20 21  1  0  0  0
 21 22  2  0  0  0
 22 23  1  0  0  0
 24 25  1  0  0  0
 24 27  2  0  0  0
 24 17  1  0  0  0
 25 26  2  0  0  0
  1  2  1  0  0  0
  1  4  2  0  0  0
  1 13  1  0  0  0
  2  3  2  0  0  0
  3  6  1  0  0  0
  4  5  1  0  0  0
 10 11  1  0  0  0
 10 15  2  0  0  0
 10 16  1  0  0  0
 11 12  2  0  0  0
 12 13  1  0  0  0
 13 14  2  0  0  0
 14 15  1  0  0  0
  5  6  1  0  0  0
  5  9  1  0  0  0
  6  7  2  0  0  0
  7  8  1  0  0  0
  8  9  2  0  0  0
  9 17  1  0  0  0
M  END
> <minimizedAffinity>
-11.19918

$$$$
3ZBX_6XE_A_2345


 27 31  0  0  0  0  0  0  0  0999 V2000
   23.7673    9.0907   42.4140 C   0  0  0  0  0  0  0  0  0  0  0  0
   24.6340    8.9992   41.2740 C   0  0  0  0  0  0  0  0  0  0  0  0
   24.1432    8.7277   40.0667 N   0  0  0  0  0  0  0  0  0  0  0  0
   22.4692    8.9006   42.2365 N   0  0  0  0  0  0  0  0  0  0  0  0
   21.9578    8.6169   40.9592 N   0  0  0  0  0  0  0  0  0  0  0  0
   22.8152    8.5315   39.8732 C   0  0  0  0  0  0  0  0  0  0  0  0
   22.0647    8.2583   38.8226 N   0  0  0  0  0  0  0  0  0  0  0  0
   20.8293    8.1737   39.1875 N   0  0  0  0  0  0  0  0  0  0  0  0
   20.7103    8.3830   40.4764 C   0  0  0  0  0  0  0  0  0  0  0  0
   25.2892    9.9228   46.3702 C   0  0  0  0  0  0  0  0  0  0  0  0
   24.1143   10.5738   45.9265 C   0  0  0  0  0  0  0  0  0  0  0  0
   23.6056   10.3143   44.6422 C   0  0  0  0  0  0  0  0  0  0  0  0
   24.2747    9.3881   43.7851 C   0  0  0  0  0  0  0  0  0  0  0  0
   25.4560    8.7333   44.2456 C   0  0  0  0  0  0  0  0  0  0  0  0
   25.9569    9.0036   45.5309 C   0  0  0  0  0  0  0  0  0  0  0  0
   25.7751   10.1796   47.5988 F   0  0  0  0  0  0  0  0  0  0  0  0
   19.4171    8.3738   41.2787 C   0  0  0  0  0  0  0  0  0  0  0  0
   18.7253   11.2704   43.7176 C   0  0  0  0  0  0  0  0  0  0  0  0
   18.3644   12.3339   42.7891 C   0  0  0  0  0  0  0  0  0  0  0  0
   18.0457   13.5655   43.2757 N   0  0  0  0  0  0  0  0  0  0  0  0
   18.0512   13.8379   44.5909 C   0  0  0  0  0  0  0  0  0  0  0  0
   18.3887   12.8475   45.5511 C   0  0  0  0  0  0  0  0  0  0  0  0
   18.7264   11.5619   45.1220 C   0  0  0  0  0  0  0  0  0  0  0  0
   19.0461    9.7461   41.8259 C   0  0  0  0  0  0  0  0  0  0  0  0
   18.6907   10.7889   40.9250 C   0  0  0  0  0  0  0  0  0  0  0  0
   18.3556   12.0569   41.3865 C   0  0  0  0  0  0  0  0  0  0  0  0
   19.0657    9.9743   43.2068 C   0  0  0  0  0  0  0  0  0  0  0  0
 18 19  1  0  0  0
 18 23  2  0  0  0
 18 27  1  0  0  0
 19 20  2  0  0  0
 19 26  1  0  0  0
 20 21  1  0  0  0
 21 22  2  0  0  0
 22 23  1  0  0  0
 24 25  1  0  0  0
 24 27  2  0  0  0
 24 17  1  0  0  0
 25 26  2  0  0  0
  1  2  1  0  0  0
  1  4  2  0  0  0
  1 13  1  0  0  0
  2  3  2  0  0  0
  3  6  1  0  0  0
  4  5  1  0  0  0
 10 11  1  0  0  0
 10 15  2  0  0  0
 10 16  1  0  0  0
 11 12  2  0  0  0
 12 13  1  0  0  0
 13 14  2  0  0  0
 14 15  1  0  0  0
  5  6  1  0  0  0
  5  9  1  0  0  0
  6  7  2  0  0  0
  7  8  1  0  0  0
  8  9  2  0  0  0
  9 17  1  0  0  0
M  END
> <minimizedAffinity>
-10.34575

$$$$
3ZBX_6XE_A_2345


 27 31  0  0  0  0  0  0  0  0999 V2000
   22.8299   10.8765   44.5621 C   0  0  0  0  0  0  0  0  0  0  0  0
   23.6761   11.6637   45.4128 C   0  0  0  0  0  0  0  0  0  0  0  0
   23.1527   12.5039   46.3029 N   0  0  0  0  0  0  0  0  0  0  0  0
   21.5180   11.0043   44.6847 N   0  0  0  0  0  0  0  0  0  0  0  0
   20.9725   11.8910   45.6279 N   0  0  0  0  0  0  0  0  0  0  0  0
   21.8103   12.6425   46.4373 C   0  0  0  0  0  0  0  0  0  0  0  0
   21.0293   13.3726   47.2112 N   0  0  0  0  0  0  0  0  0  0  0  0
   19.7938   13.1210   46.9343 N   0  0  0  0  0  0  0  0  0  0  0  0
   19.7046   12.2278   45.9786 C   0  0  0  0  0  0  0  0  0  0  0  0
   24.4584    8.1278   41.6547 C   0  0  0  0  0  0  0  0  0  0  0  0
   23.0596    8.3316   41.7111 C   0  0  0  0  0  0  0  0  0  0  0  0
   22.5134    9.2226   42.6510 C   0  0  0  0  0  0  0  0  0  0  0  0
   23.3734    9.9264   43.5483 C   0  0  0  0  0  0  0  0  0  0  0  0
   24.7832    9.7170   43.4784 C   0  0  0  0  0  0  0  0  0  0  0  0
   25.3173    8.8208   42.5363 C   0  0  0  0  0  0  0  0  0  0  0  0
   24.9753    7.2690   40.7565 F   0  0  0  0  0  0  0  0  0  0  0  0
   18.4219   11.6677   45.3809 C   0  0  0  0  0  0  0  0  0  0  0  0
   18.8398   10.1841   41.8537 C   0  0  0  0  0  0  0  0  0  0  0  0
   18.5500   11.3488   41.0273 C   0  0  0  0  0  0  0  0  0  0  0  0
   18.5869   11.2310   39.6709 N   0  0  0  0  0  0  0  0  0  0  0  0
   18.8839   10.0713   39.0618 C   0  0  0  0  0  0  0  0  0  0  0  0
   19.1808    8.8987   39.8059 C   0  0  0  0  0  0  0  0  0  0  0  0
   19.1610    8.9476   41.2016 C   0  0  0  0  0  0  0  0  0  0  0  0
   18.4789   11.5376   43.8643 C   0  0  0  0  0  0  0  0  0  0  0  0
   18.1989   12.6715   43.0511 C   0  0  0  0  0  0  0  0  0  0  0  0
   18.2315   12.5889   41.6636 C   0  0  0  0  0  0  0  0  0  0  0  0
   18.7967   10.3050   43.2820 C   0  0  0  0  0  0  0  0  0  0  0  0
 18 19  1  0  0  0
 18 23  2  0  0  0
 18 27  1  0  0  0
 19 20  2  0  0  0
 19 26  1  0  0  0
 20 21  1  0  0  0
 21 22  2  0  0  0
 22 23  1  0  0  0
 24 25  1  0  0  0
 24 27  2  0  0  0
 24 17  1  0  0  0
 25 26  2  0  0  0
  1  2  1  0  0  0
  1  4  2  0  0  0
  1 13  1  0  0  0
  2  3  2  0  0  0
  3  6  1  0  0  0
  4  5  1  0  0  0
 10 11  1  0  0  0
 10 15  2  0  0  0
 10 16  1  0  0  0
 11 12  2  0  0  0
 12 13  1  0  0  0
 13 14  2  0  0  0
 14 15  1  0  0  0
  5  6  1  0  0  0
  5  9  1  0  0  0
  6  7  2  0  0  0
  7  8  1  0  0  0
  8  9  2  0  0  0
  9 17  1  0  0  0
M  END
> <minimizedAffinity>
-10.14250

$$$$
3ZBX_6XE_A_2345


 27 31  0  0  0  0  0  0  0  0999 V2000
   18.4574   11.7932   43.4431 C   0  0  0  0  0  0  0  0  0  0  0  0
   17.9296   13.0237   42.9269 C   0  0  0  0  0  0  0  0  0  0  0  0
   17.7569   13.1935   41.6179 N   0  0  0  0  0  0  0  0  0  0  0  0
   18.7666   10.8312   42.5877 N   0  0  0  0  0  0  0  0  0  0  0  0
   18.5794   11.0164   41.2078 N   0  0  0  0  0  0  0  0  0  0  0  0
   18.0698   12.2148   40.7326 C   0  0  0  0  0  0  0  0  0  0  0  0
   18.0054   12.1013   39.4193 N   0  0  0  0  0  0  0  0  0  0  0  0
   18.4326   10.9351   39.0675 N   0  0  0  0  0  0  0  0  0  0  0  0
   18.7941   10.2368   40.1168 C   0  0  0  0  0  0  0  0  0  0  0  0
   19.1321   11.1508   47.6612 C   0  0  0  0  0  0  0  0  0  0  0  0
   17.8426   10.9316   47.1224 C   0  0  0  0  0  0  0  0  0  0  0  0
   17.6061   11.1358   45.7520 C   0  0  0  0  0  0  0  0  0  0  0  0
   18.6714   11.5618   44.9013 C   0  0  0  0  0  0  0  0  0  0  0  0
   19.9693   11.7744   45.4550 C   0  0  0  0  0  0  0  0  0  0  0  0
   20.1927   11.5699   46.8278 C   0  0  0  0  0  0  0  0  0  0  0  0
   19.3514   10.9593   48.9752 F   0  0  0  0  0  0  0  0  0  0  0  0
   19.3429    8.8172   40.1134 C   0  0  0  0  0  0  0  0  0  0  0  0
   22.6779    8.8057   42.0354 C   0  0  0  0  0  0  0  0  0  0  0  0
   23.6248    8.6077   40.9457 C   0  0  0  0  0  0  0  0  0  0  0  0
   24.9565    8.5371   41.2228 N   0  0  0  0  0  0  0  0  0  0  0  0
   25.4332    8.6451   42.4738 C   0  0  0  0  0  0  0  0  0  0  0  0
   24.5672    8.8435   43.5818 C   0  0  0  0  0  0  0  0  0  0  0  0
   23.1890    8.9250   43.3702 C   0  0  0  0  0  0  0  0  0  0  0  0
   20.8328    8.7541   40.4236 C   0  0  0  0  0  0  0  0  0  0  0  0
   21.7634    8.5629   39.3640 C   0  0  0  0  0  0  0  0  0  0  0  0
   23.1300    8.4904   39.6094 C   0  0  0  0  0  0  0  0  0  0  0  0
   21.2750    8.8754   41.7462 C   0  0  0  0  0  0  0  0  0  0  0  0
 18 19  1  0  0  0
 18 23  2  0  0  0
 18 27  1  0  0  0
 19 20  2  0  0  0
 19 26  1  0  0  0
 20 21  1  0  0  0
 21 22  2  0  0  0
 22 23  1  0  0  0
 24 25  1  0  0  0
 24 27  2  0  0  0
 24 17  1  0  0  0
 25 26  2  0  0  0
  1  2  1  0  0  0
  1  4  2  0  0  0
  1 13  1  0  0  0
  2  3  2  0  0  0
  3  6  1  0  0  0
  4  5  1  0  0  0
 10 11  1  0  0  0
 10 15  2  0  0  0
 10 16  1  0  0  0
 11 12  2  0  0  0
 12 13  1  0  0  0
 13 14  2  0  0  0
 14 15  1  0  0  0
  5  6  1  0  0  0
  5  9  1  0  0  0
  6  7  2  0  0  0
  7  8  1  0  0  0
  8  9  2  0  0  0
  9 17  1  0  0  0
M  END
> <minimizedAffinity>
-10.01876

$$$$
3ZBX_6XE_A_2345


 27 31  0  0  0  0  0  0  0  0999 V2000
   21.7166   12.0798   46.8854 C   0  0  0  0  0  0  0  0  0  0  0  0
   21.2172   11.3444   48.0120 C   0  0  0  0  0  0  0  0  0  0  0  0
   19.9624   10.9003   48.0320 N   0  0  0  0  0  0  0  0  0  0  0  0
   20.9013   12.3043   45.8669 N   0  0  0  0  0  0  0  0  0  0  0  0
   19.5790   11.8305   45.8937 N   0  0  0  0  0  0  0  0  0  0  0  0
   19.1186   11.1241   46.9941 C   0  0  0  0  0  0  0  0  0  0  0  0
   17.8615   10.8120   46.7410 N   0  0  0  0  0  0  0  0  0  0  0  0
   17.5301   11.2711   45.5809 N   0  0  0  0  0  0  0  0  0  0  0  0
   18.5379   11.8987   45.0245 C   0  0  0  0  0  0  0  0  0  0  0  0
   25.7806   13.5301   46.6843 C   0  0  0  0  0  0  0  0  0  0  0  0
   24.7230   14.4502   46.8737 C   0  0  0  0  0  0  0  0  0  0  0  0
   23.3949   13.9950   46.9416 C   0  0  0  0  0  0  0  0  0  0  0  0
   23.1136   12.5997   46.8229 C   0  0  0  0  0  0  0  0  0  0  0  0
   24.1891   11.6803   46.6375 C   0  0  0  0  0  0  0  0  0  0  0  0
   25.5129   12.1481   46.5680 C   0  0  0  0  0  0  0  0  0  0  0  0
   27.0499   13.9723   46.6142 F   0  0  0  0  0  0  0  0  0  0  0  0
   18.5427   12.5697   43.6585 C   0  0  0  0  0  0  0  0  0  0  0  0
   18.4838   11.0364   40.1283 C   0  0  0  0  0  0  0  0  0  0  0  0
   18.9882    9.6966   40.3999 C   0  0  0  0  0  0  0  0  0  0  0  0
   19.1282    8.8146   39.3716 N   0  0  0  0  0  0  0  0  0  0  0  0
   18.8152    9.1367   38.1058 C   0  0  0  0  0  0  0  0  0  0  0  0
   18.3145   10.4228   37.7710 C   0  0  0  0  0  0  0  0  0  0  0  0
   18.1459   11.3772   38.7767 C   0  0  0  0  0  0  0  0  0  0  0  0
   18.6840   11.5799   42.5094 C   0  0  0  0  0  0  0  0  0  0  0  0
   19.1741   10.2691   42.7677 C   0  0  0  0  0  0  0  0  0  0  0  0
   19.3259    9.3415   41.7431 C   0  0  0  0  0  0  0  0  0  0  0  0
   18.3401   11.9680   41.2091 C   0  0  0  0  0  0  0  0  0  0  0  0
 18 19  1  0  0  0
 18 23  2  0  0  0
 18 27  1  0  0  0
 19 20  2  0  0  0
 19 26  1  0  0  0
 20 21  1  0  0  0
 21 22  2  0  0  0
 22 23  1  0  0  0
 24 25  1  0  0  0
 24 27  2  0  0  0
 24 17  1  0  0  0
 25 26  2  0  0  0
  1  2  1  0  0  0
  1  4  2  0  0  0
  1 13  1  0  0  0
  2  3  2  0  0  0
  3  6  1  0  0  0
  4  5  1  0  0  0
 10 11  1  0  0  0
 10 15  2  0  0  0
 10 16  1  0  0  0
 11 12  2  0  0  0
 12 13  1  0  0  0
 13 14  2  0  0  0
 14 15  1  0  0  0
  5  6  1  0  0  0
  5  9  1  0  0  0
  6  7  2  0  0  0
  7  8  1  0  0  0
  8  9  2  0  0  0
  9 17  1  0  0  0
M  END
> <minimizedAffinity>
-9.56145

$$$$
3ZBX_6XE_A_2345


 27 31  0  0  0  0  0  0  0  0999 V2000
   18.1754   12.0108   47.5798 C   0  0  0  0  0  0  0  0  0  0  0  0
   19.4949   11.6947   48.0471 C   0  0  0  0  0  0  0  0  0  0  0  0
   20.5403   11.7561   47.2252 N   0  0  0  0  0  0  0  0  0  0  0  0
   18.0229   12.3664   46.3137 N   0  0  0  0  0  0  0  0  0  0  0  0
   19.1309   12.4315   45.4526 N   0  0  0  0  0  0  0  0  0  0  0  0
   20.3957   12.1194   45.9266 C   0  0  0  0  0  0  0  0  0  0  0  0
   21.2247   12.2668   44.9103 N   0  0  0  0  0  0  0  0  0  0  0  0
   20.5631   12.6420   43.8672 N   0  0  0  0  0  0  0  0  0  0  0  0
   19.2864   12.7564   44.1433 C   0  0  0  0  0  0  0  0  0  0  0  0
   14.6891   11.8957   50.1278 C   0  0  0  0  0  0  0  0  0  0  0  0
   15.3523   10.6892   49.8025 C   0  0  0  0  0  0  0  0  0  0  0  0
   16.4882   10.7090   48.9749 C   0  0  0  0  0  0  0  0  0  0  0  0
   16.9757   11.9508   48.4646 C   0  0  0  0  0  0  0  0  0  0  0  0
   16.3018   13.1620   48.8039 C   0  0  0  0  0  0  0  0  0  0  0  0
   15.1648   13.1290   49.6299 C   0  0  0  0  0  0  0  0  0  0  0  0
   13.5985   11.8701   50.9160 F   0  0  0  0  0  0  0  0  0  0  0  0
   18.1873   13.1814   43.1802 C   0  0  0  0  0  0  0  0  0  0  0  0
   18.7265   10.4240   40.5490 C   0  0  0  0  0  0  0  0  0  0  0  0
   18.3150   11.1159   39.3345 C   0  0  0  0  0  0  0  0  0  0  0  0
   18.3537   10.4555   38.1439 N   0  0  0  0  0  0  0  0  0  0  0  0
   18.7614    9.1793   38.0472 C   0  0  0  0  0  0  0  0  0  0  0  0
   19.1801    8.4470   39.1897 C   0  0  0  0  0  0  0  0  0  0  0  0
   19.1657    9.0627   40.4433 C   0  0  0  0  0  0  0  0  0  0  0  0
   18.2460   12.4458   41.8477 C   0  0  0  0  0  0  0  0  0  0  0  0
   17.8474   13.1160   40.6572 C   0  0  0  0  0  0  0  0  0  0  0  0
   17.8781   12.4744   39.4241 C   0  0  0  0  0  0  0  0  0  0  0  0
   18.6819   11.1163   41.8042 C   0  0  0  0  0  0  0  0  0  0  0  0
 18 19  1  0  0  0
 18 23  2  0  0  0
 18 27  1  0  0  0
 19 20  2  0  0  0
 19 26  1  0  0  0
 20 21  1  0  0  0
 21 22  2  0  0  0
 22 23  1  0  0  0
 24 25  1  0  0  0
 24 27  2  0  0  0
 24 17  1  0  0  0
 25 26  2  0  0  0
  1  2  1  0  0  0
  1  4  2  0  0  0
  1 13  1  0  0  0
  2  3  2  0  0  0
  3  6  1  0  0  0
  4  5  1  0  0  0
 10 11  1  0  0  0
 10 15  2  0  0  0
 10 16  1  0  0  0
 11 12  2  0  0  0
 12 13  1  0  0  0
 13 14  2  0  0  0
 14 15  1  0  0  0
  5  6  1  0  0  0
  5  9  1  0  0  0
  6  7  2  0  0  0
  7  8  1  0  0  0
  8  9  2  0  0  0
  9 17  1  0  0  0
M  END
> <minimizedAffinity>
-9.54252

$$$$
3ZBX_6XE_A_2345


 27 31  0  0  0  0  0  0  0  0999 V2000
   21.7627   12.1593   46.7386 C   0  0  0  0  0  0  0  0  0  0  0  0
   21.2544   11.3066   47.7749 C   0  0  0  0  0  0  0  0  0  0  0  0
   19.9856   10.9039   47.7628 N   0  0  0  0  0  0  0  0  0  0  0  0
   20.9412   12.5340   45.7704 N   0  0  0  0  0  0  0  0  0  0  0  0
   19.6041   12.1032   45.7626 N   0  0  0  0  0  0  0  0  0  0  0  0
   19.1354   11.2813   46.7759 C   0  0  0  0  0  0  0  0  0  0  0  0
   17.8650   11.0433   46.5091 N   0  0  0  0  0  0  0  0  0  0  0  0
   17.5331   11.6527   45.4206 N   0  0  0  0  0  0  0  0  0  0  0  0
   18.5538   12.3117   44.9274 C   0  0  0  0  0  0  0  0  0  0  0  0
   25.8715   13.4896   46.6508 C   0  0  0  0  0  0  0  0  0  0  0  0
   24.8371   14.4393   46.8219 C   0  0  0  0  0  0  0  0  0  0  0  0
   23.4949   14.0232   46.8529 C   0  0  0  0  0  0  0  0  0  0  0  0
   23.1755   12.6379   46.7152 C   0  0  0  0  0  0  0  0  0  0  0  0
   24.2277   11.6884   46.5486 C   0  0  0  0  0  0  0  0  0  0  0  0
   25.5661   12.1171   46.5159 C   0  0  0  0  0  0  0  0  0  0  0  0
   27.1546   13.8944   46.6160 F   0  0  0  0  0  0  0  0  0  0  0  0
   18.5623   13.1460   43.6546 C   0  0  0  0  0  0  0  0  0  0  0  0
   19.1561   10.2245   41.2196 C   0  0  0  0  0  0  0  0  0  0  0  0
   18.5645   10.7568   39.9990 C   0  0  0  0  0  0  0  0  0  0  0  0
   18.5666    9.9962   38.8691 N   0  0  0  0  0  0  0  0  0  0  0  0
   19.0991    8.7635   38.8380 C   0  0  0  0  0  0  0  0  0  0  0  0
   19.6957    8.1853   39.9898 C   0  0  0  0  0  0  0  0  0  0  0  0
   19.7282    8.9097   41.1835 C   0  0  0  0  0  0  0  0  0  0  0  0
   18.5795   12.2998   42.3881 C   0  0  0  0  0  0  0  0  0  0  0  0
   18.0052   12.8141   41.1919 C   0  0  0  0  0  0  0  0  0  0  0  0
   17.9935   12.0675   40.0191 C   0  0  0  0  0  0  0  0  0  0  0  0
   19.1505   11.0220   42.4115 C   0  0  0  0  0  0  0  0  0  0  0  0
 18 19  1  0  0  0
 18 23  2  0  0  0
 18 27  1  0  0  0
 19 20  2  0  0  0
 19 26  1  0  0  0
 20 21  1  0  0  0
 21 22  2  0  0  0
 22 23  1  0  0  0
 24 25  1  0  0  0
 24 27  2  0  0  0
 24 17  1  0  0  0
 25 26  2  0  0  0
  1  2  1  0  0  0
  1  4  2  0  0  0
  1 13  1  0  0  0
  2  3  2  0  0  0
  3  6  1  0  0  0
  4  5  1  0  0  0
 10 11  1  0  0  0
 10 15  2  0  0  0
 10 16  1  0  0  0
 11 12  2  0  0  0
 12 13  1  0  0  0
 13 14  2  0  0  0
 14 15  1  0  0  0
  5  6  1  0  0  0
  5  9  1  0  0  0
  6  7  2  0  0  0
  7  8  1  0  0  0
  8  9  2  0  0  0
  9 17  1  0  0  0
M  END
> <minimizedAffinity>
-9.35686

$$$$
3ZBX_6XE_A_2345


 27 31  0  0  0  0  0  0  0  0999 V2000
   21.6340   11.5496   44.4693 C   0  0  0  0  0  0  0  0  0  0  0  0
   22.7983   12.0796   45.1195 C   0  0  0  0  0  0  0  0  0  0  0  0
   23.9789   11.4765   44.9979 N   0  0  0  0  0  0  0  0  0  0  0  0
   21.7620   10.4489   43.7450 N   0  0  0  0  0  0  0  0  0  0  0  0
   23.0114    9.8191   43.6189 N   0  0  0  0  0  0  0  0  0  0  0  0
   24.1216   10.3487   44.2582 C   0  0  0  0  0  0  0  0  0  0  0  0
   25.1369    9.5586   43.9640 N   0  0  0  0  0  0  0  0  0  0  0  0
   24.7288    8.6005   43.2013 N   0  0  0  0  0  0  0  0  0  0  0  0
   23.4445    8.7123   42.9620 C   0  0  0  0  0  0  0  0  0  0  0  0
   17.7575   13.4160   44.8556 C   0  0  0  0  0  0  0  0  0  0  0  0
   18.2552   13.1080   43.5677 C   0  0  0  0  0  0  0  0  0  0  0  0
   19.5145   12.5004   43.4244 C   0  0  0  0  0  0  0  0  0  0  0  0
   20.2913   12.1902   44.5821 C   0  0  0  0  0  0  0  0  0  0  0  0
   19.7766   12.5006   45.8764 C   0  0  0  0  0  0  0  0  0  0  0  0
   18.5171   13.1111   46.0067 C   0  0  0  0  0  0  0  0  0  0  0  0
   16.5534   14.0031   44.9866 F   0  0  0  0  0  0  0  0  0  0  0  0
   22.6000    7.7820   42.1030 C   0  0  0  0  0  0  0  0  0  0  0  0
   19.9836    9.7952   40.1235 C   0  0  0  0  0  0  0  0  0  0  0  0
   20.6151    9.8553   38.8117 C   0  0  0  0  0  0  0  0  0  0  0  0
   19.9865   10.5121   37.7975 N   0  0  0  0  0  0  0  0  0  0  0  0
   18.7956   11.1108   37.9631 C   0  0  0  0  0  0  0  0  0  0  0  0
   18.1224   11.0872   39.2134 C   0  0  0  0  0  0  0  0  0  0  0  0
   18.7100   10.4313   40.2975 C   0  0  0  0  0  0  0  0  0  0  0  0
   21.8881    8.5038   40.9662 C   0  0  0  0  0  0  0  0  0  0  0  0
   22.4981    8.5647   39.6818 C   0  0  0  0  0  0  0  0  0  0  0  0
   21.8833    9.2228   38.6225 C   0  0  0  0  0  0  0  0  0  0  0  0
   20.6463    9.1082   41.1939 C   0  0  0  0  0  0  0  0  0  0  0  0
 18 19  1  0  0  0
 18 23  2  0  0  0
 18 27  1  0  0  0
 19 20  2  0  0  0
 19 26  1  0  0  0
 20 21  1  0  0  0
 21 22  2  0  0  0
 22 23  1  0  0  0
 24 25  1  0  0  0
 24 27  2  0  0  0
 24 17  1  0  0  0
 25 26  2  0  0  0
  1  2  1  0  0  0
  1  4  2  0  0  0
  1 13  1  0  0  0
  2  3  2  0  0  0
  3  6  1  0  0  0
  4  5  1  0  0  0
 10 11  1  0  0  0
 10 15  2  0  0  0
 10 16  1  0  0  0
 11 12  2  0  0  0
 12 13  1  0  0  0
 13 14  2  0  0  0
 14 15  1  0  0  0
  5  6  1  0  0  0
  5  9  1  0  0  0
  6  7  2  0  0  0
  7  8  1  0  0  0
  8  9  2  0  0  0
  9 17  1  0  0  0
M  END
> <minimizedAffinity>
-9.24607

$$$$
3ZBX_6XE_A_2345


 27 31  0  0  0  0  0  0  0  0999 V2000
   19.2102   11.3678   43.0079 C   0  0  0  0  0  0  0  0  0  0  0  0
   18.3344   12.4542   42.6732 C   0  0  0  0  0  0  0  0  0  0  0  0
   18.0422   13.3933   43.5703 N   0  0  0  0  0  0  0  0  0  0  0  0
   19.7214   11.3226   44.2282 N   0  0  0  0  0  0  0  0  0  0  0  0
   19.4108   12.3184   45.1692 N   0  0  0  0  0  0  0  0  0  0  0  0
   18.5606   13.3572   44.8230 C   0  0  0  0  0  0  0  0  0  0  0  0
   18.4547   14.1272   45.8897 N   0  0  0  0  0  0  0  0  0  0  0  0
   19.1708   13.6377   46.8457 N   0  0  0  0  0  0  0  0  0  0  0  0
   19.7720   12.5383   46.4596 C   0  0  0  0  0  0  0  0  0  0  0  0
   20.1908    8.2805   40.1500 C   0  0  0  0  0  0  0  0  0  0  0  0
   20.9088    8.3548   41.3666 C   0  0  0  0  0  0  0  0  0  0  0  0
   20.6023    9.3530   42.3074 C   0  0  0  0  0  0  0  0  0  0  0  0
   19.5608   10.2918   42.0356 C   0  0  0  0  0  0  0  0  0  0  0  0
   18.8396   10.2038   40.8074 C   0  0  0  0  0  0  0  0  0  0  0  0
   19.1576    9.2030   39.8730 C   0  0  0  0  0  0  0  0  0  0  0  0
   20.4925    7.3261   39.2503 F   0  0  0  0  0  0  0  0  0  0  0  0
   20.7052   11.6757   47.2971 C   0  0  0  0  0  0  0  0  0  0  0  0
   24.4509   11.6405   46.4109 C   0  0  0  0  0  0  0  0  0  0  0  0
   24.8776   12.9205   46.9611 C   0  0  0  0  0  0  0  0  0  0  0  0
   26.1810   13.2975   46.8417 N   0  0  0  0  0  0  0  0  0  0  0  0
   27.0953   12.5261   46.2309 C   0  0  0  0  0  0  0  0  0  0  0  0
   26.7491   11.2653   45.6764 C   0  0  0  0  0  0  0  0  0  0  0  0
   25.4294   10.8160   45.7629 C   0  0  0  0  0  0  0  0  0  0  0  0
   22.1664   12.0884   47.1760 C   0  0  0  0  0  0  0  0  0  0  0  0
   22.5906   13.3363   47.7128 C   0  0  0  0  0  0  0  0  0  0  0  0
   23.9138   13.7514   47.6130 C   0  0  0  0  0  0  0  0  0  0  0  0
   23.0780   11.2440   46.5315 C   0  0  0  0  0  0  0  0  0  0  0  0
 18 19  1  0  0  0
 18 23  2  0  0  0
 18 27  1  0  0  0
 19 20  2  0  0  0
 19 26  1  0  0  0
 20 21  1  0  0  0
 21 22  2  0  0  0
 22 23  1  0  0  0
 24 25  1  0  0  0
 24 27  2  0  0  0
 24 17  1  0  0  0
 25 26  2  0  0  0
  1  2  1  0  0  0
  1  4  2  0  0  0
  1 13  1  0  0  0
  2  3  2  0  0  0
  3  6  1  0  0  0
  4  5  1  0  0  0
 10 11  1  0  0  0
 10 15  2  0  0  0
 10 16  1  0  0  0
 11 12  2  0  0  0
 12 13  1  0  0  0
 13 14  2  0  0  0
 14 15  1  0  0  0
  5  6  1  0  0  0
  5  9  1  0  0  0
  6  7  2  0  0  0
  7  8  1  0  0  0
  8  9  2  0  0  0
  9 17  1  0  0  0
M  END
> <minimizedAffinity>
-8.97737

$$$$
