1FJS_Z34_A_500


 43 46  0  0  0  0  0  0  0  0999 V2000
    5.7140    9.5669   21.9907 C   0  0  0  0  0  0  0  0  0  0  0  0
    5.2246   10.6175   22.5934 F   0  0  0  0  0  0  0  0  0  0  0  0
    5.4590    9.3201   20.6207 C   0  0  0  0  0  0  0  0  0  0  0  0
    6.0335    8.1627   20.0295 C   0  0  0  0  0  0  0  0  0  0  0  0
    5.8471    7.8832   18.7834 F   0  0  0  0  0  0  0  0  0  0  0  0
    6.8229    7.3022   20.8036 C   0  0  0  0  0  0  0  0  0  0  0  0
    7.0197    7.5796   22.0806 N   0  0  0  0  0  0  0  0  0  0  0  0
    6.5089    8.6494   22.7105 C   0  0  0  0  0  0  0  0  0  0  0  0
    4.6847   10.1861   19.8896 N   0  0  0  0  0  0  0  0  0  0  0  0
    3.2906    9.8771   19.6570 C   0  0  0  0  0  0  0  0  0  0  0  0
    5.2657   11.4223   19.3574 C   0  0  0  0  0  0  0  0  0  0  0  0
    6.6501   11.3324   18.7581 C   0  0  0  0  0  0  0  0  0  0  0  0
    7.6756   11.8416   19.3097 O   0  0  0  0  0  0  0  0  0  0  0  0
    6.8352   10.6657   17.5777 O   0  0  0  0  0  0  0  0  0  0  0  0
    6.1040   10.2763   17.1399 H   0  0  0  0  0  0  0  0  0  0  0  0
    6.7741    8.8248   23.9988 O   0  0  0  0  0  0  0  0  0  0  0  0
    8.9074   10.1161   22.7613 O   0  0  0  0  0  0  0  0  0  0  0  0
    7.9860    8.9269   24.5454 C   0  0  0  0  0  0  0  0  0  0  0  0
    8.1665    8.3308   25.7957 C   0  0  0  0  0  0  0  0  0  0  0  0
    9.4141    8.3714   26.4626 C   0  0  0  0  0  0  0  0  0  0  0  0
   10.4974    9.0440   25.8186 C   0  0  0  0  0  0  0  0  0  0  0  0
   10.3202    9.6380   24.5578 C   0  0  0  0  0  0  0  0  0  0  0  0
    9.0597    9.5767   23.9159 C   0  0  0  0  0  0  0  0  0  0  0  0
    8.0752   10.0781   22.3325 H   0  0  0  0  0  0  0  0  0  0  0  0
    9.5478    7.7701   27.7098 C   0  0  0  0  0  0  0  0  0  0  0  0
   10.7560    7.5994   28.2880 N   0  0  0  0  0  0  0  0  0  0  0  0
    8.5116    7.3599   28.4285 N   0  0  0  0  0  0  0  0  0  0  0  0
   11.5723    7.8800   27.8147 H   0  0  0  0  0  0  0  0  0  0  0  0
    7.5984    7.4518   28.0725 H   0  0  0  0  0  0  0  0  0  0  0  0
    8.6556    6.9635   29.3181 H   0  0  0  0  0  0  0  0  0  0  0  0
    7.3581    6.2508   20.2398 O   0  0  0  0  0  0  0  0  0  0  0  0
    7.1227    4.9444   20.2982 C   0  0  0  0  0  0  0  0  0  0  0  0
    6.1929    4.5267   21.2908 C   0  0  0  0  0  0  0  0  0  0  0  0
    5.8811    3.1623   21.4394 C   0  0  0  0  0  0  0  0  0  0  0  0
    6.5035    2.2236   20.6005 C   0  0  0  0  0  0  0  0  0  0  0  0
    7.4335    2.6392   19.6044 C   0  0  0  0  0  0  0  0  0  0  0  0
    7.7291    3.9967   19.4727 C   0  0  0  0  0  0  0  0  0  0  0  0
    8.0396    1.7135   18.7586 C   0  0  0  0  0  0  0  0  0  0  0  0
    7.6379    1.2458   17.5651 N   0  0  0  0  0  0  0  0  0  0  0  0
    6.4639    1.5833   16.8416 C   0  0  0  0  0  0  0  0  0  0  0  0
    9.2073    1.1541   19.1071 N   0  0  0  0  0  0  0  0  0  0  0  0
    8.5776    0.3102   17.0553 C   0  0  0  0  0  0  0  0  0  0  0  0
    9.6723    0.2473   18.1396 C   0  0  0  0  0  0  0  0  0  0  0  0
  1  2  1  0  0  0
  1  3  2  0  0  0
  1  8  1  0  0  0
  3  4  1  0  0  0
  3  9  1  0  0  0
  4  5  1  0  0  0
  4  6  2  0  0  0
  6  7  1  0  0  0
  6 31  1  0  0  0
  7  8  2  0  0  0
  8 16  1  0  0  0
 17 23  1  0  0  0
 16 18  1  0  0  0
 18 19  2  0  0  0
 18 23  1  0  0  0
 19 20  1  0  0  0
 20 21  2  0  0  0
 20 25  1  0  0  0
 21 22  1  0  0  0
 22 23  2  0  0  0
 25 26  2  0  0  0
 25 27  1  0  0  0
 31 32  1  0  0  0
 32 33  2  0  0  0
 32 37  1  0  0  0
 33 34  1  0  0  0
 34 35  2  0  0  0
 35 36  1  0  0  0
 36 37  2  0  0  0
 36 38  1  0  0  0
 38 39  1  0  0  0
 38 41  2  0  0  0
 39 40  1  0  0  0
 39 42  1  0  0  0
 41 43  1  0  0  0
 42 43  1  0  0  0
  9 11  1  0  0  0
  9 10  1  0  0  0
 11 12  1  0  0  0
 12 13  2  0  0  0
 12 14  1  0  0  0
 17 24  1  0  0  0
 26 28  1  0  0  0
 27 29  1  0  0  0
 27 30  1  0  0  0
 14 15  1  0  0  0
M  END
> <minimizedAffinity>
-10.53566

$$$$
1FJS_Z34_A_500


 43 46  0  0  0  0  0  0  0  0999 V2000
    4.2983    9.0319   23.6501 C   0  0  0  0  0  0  0  0  0  0  0  0
    3.6360    9.8310   24.4433 F   0  0  0  0  0  0  0  0  0  0  0  0
    3.6434    8.2958   22.6343 C   0  0  0  0  0  0  0  0  0  0  0  0
    4.4302    7.4545   21.8023 C   0  0  0  0  0  0  0  0  0  0  0  0
    3.8971    6.7623   20.8525 F   0  0  0  0  0  0  0  0  0  0  0  0
    5.8140    7.3693   22.0050 C   0  0  0  0  0  0  0  0  0  0  0  0
    6.3694    8.0742   22.9750 N   0  0  0  0  0  0  0  0  0  0  0  0
    5.6938    8.8866   23.8031 C   0  0  0  0  0  0  0  0  0  0  0  0
    2.2864    8.4057   22.4596 N   0  0  0  0  0  0  0  0  0  0  0  0
    1.7503    9.5141   21.6999 C   0  0  0  0  0  0  0  0  0  0  0  0
    1.3873    7.3986   23.0309 C   0  0  0  0  0  0  0  0  0  0  0  0
    1.7705    6.8105   24.3692 C   0  0  0  0  0  0  0  0  0  0  0  0
    1.5287    7.3916   25.4733 O   0  0  0  0  0  0  0  0  0  0  0  0
    2.3927    5.5931   24.4210 O   0  0  0  0  0  0  0  0  0  0  0  0
    2.5882    5.1328   23.6286 H   0  0  0  0  0  0  0  0  0  0  0  0
    6.3596    9.5450   24.7434 O   0  0  0  0  0  0  0  0  0  0  0  0
    8.3889   10.6742   23.2080 O   0  0  0  0  0  0  0  0  0  0  0  0
    7.6552    9.4120   25.0288 C   0  0  0  0  0  0  0  0  0  0  0  0
    7.9786    8.6476   26.1522 C   0  0  0  0  0  0  0  0  0  0  0  0
    9.3224    8.4344   26.5416 C   0  0  0  0  0  0  0  0  0  0  0  0
   10.3525    9.0264   25.7483 C   0  0  0  0  0  0  0  0  0  0  0  0
   10.0300    9.7896   24.6138 C   0  0  0  0  0  0  0  0  0  0  0  0
    8.6753    9.9810   24.2496 C   0  0  0  0  0  0  0  0  0  0  0  0
    7.4938   10.8036   22.9629 H   0  0  0  0  0  0  0  0  0  0  0  0
    9.5991    7.6717   27.6714 C   0  0  0  0  0  0  0  0  0  0  0  0
   10.8429    7.6026   28.1924 N   0  0  0  0  0  0  0  0  0  0  0  0
    8.6688    6.9960   28.3320 N   0  0  0  0  0  0  0  0  0  0  0  0
   11.5862    8.0788   27.7566 H   0  0  0  0  0  0  0  0  0  0  0  0
    7.7377    6.9991   28.0121 H   0  0  0  0  0  0  0  0  0  0  0  0
    8.9092    6.4911   29.1423 H   0  0  0  0  0  0  0  0  0  0  0  0
    6.5256    6.6037   21.2194 O   0  0  0  0  0  0  0  0  0  0  0  0
    6.5144    5.3078   20.9261 C   0  0  0  0  0  0  0  0  0  0  0  0
    6.0989    4.4395   21.9739 C   0  0  0  0  0  0  0  0  0  0  0  0
    6.0600    3.0480   21.7668 C   0  0  0  0  0  0  0  0  0  0  0  0
    6.4416    2.5319   20.5176 C   0  0  0  0  0  0  0  0  0  0  0  0
    6.8563    3.3991   19.4659 C   0  0  0  0  0  0  0  0  0  0  0  0
    6.8876    4.7760   19.6912 C   0  0  0  0  0  0  0  0  0  0  0  0
    7.2184    2.8929   18.2201 C   0  0  0  0  0  0  0  0  0  0  0  0
    8.3392    2.2560   17.8423 N   0  0  0  0  0  0  0  0  0  0  0  0
    9.4700    1.9272   18.6353 C   0  0  0  0  0  0  0  0  0  0  0  0
    6.3796    3.0120   17.1808 N   0  0  0  0  0  0  0  0  0  0  0  0
    8.2766    1.9130   16.4651 C   0  0  0  0  0  0  0  0  0  0  0  0
    6.9046    2.4471   16.0062 C   0  0  0  0  0  0  0  0  0  0  0  0
  1  2  1  0  0  0
  1  3  2  0  0  0
  1  8  1  0  0  0
  3  4  1  0  0  0
  3  9  1  0  0  0
  4  5  1  0  0  0
  4  6  2  0  0  0
  6  7  1  0  0  0
  6 31  1  0  0  0
  7  8  2  0  0  0
  8 16  1  0  0  0
 17 23  1  0  0  0
 16 18  1  0  0  0
 18 19  2  0  0  0
 18 23  1  0  0  0
 19 20  1  0  0  0
 20 21  2  0  0  0
 20 25  1  0  0  0
 21 22  1  0  0  0
 22 23  2  0  0  0
 25 26  2  0  0  0
 25 27  1  0  0  0
 31 32  1  0  0  0
 32 33  2  0  0  0
 32 37  1  0  0  0
 33 34  1  0  0  0
 34 35  2  0  0  0
 35 36  1  0  0  0
 36 37  2  0  0  0
 36 38  1  0  0  0
 38 39  1  0  0  0
 38 41  2  0  0  0
 39 40  1  0  0  0
 39 42  1  0  0  0
 41 43  1  0  0  0
 42 43  1  0  0  0
  9 11  1  0  0  0
  9 10  1  0  0  0
 11 12  1  0  0  0
 12 13  2  0  0  0
 12 14  1  0  0  0
 17 24  1  0  0  0
 26 28  1  0  0  0
 27 29  1  0  0  0
 27 30  1  0  0  0
 14 15  1  0  0  0
M  END
> <minimizedAffinity>
-10.00295

$$$$
1FJS_Z34_A_500


 43 46  0  0  0  0  0  0  0  0999 V2000
    4.3171    9.1987   23.2341 C   0  0  0  0  0  0  0  0  0  0  0  0
    3.6685   10.0895   23.9356 F   0  0  0  0  0  0  0  0  0  0  0  0
    3.7237    8.5716   22.1128 C   0  0  0  0  0  0  0  0  0  0  0  0
    4.4936    7.6201   21.3910 C   0  0  0  0  0  0  0  0  0  0  0  0
    4.0154    7.0178   20.3546 F   0  0  0  0  0  0  0  0  0  0  0  0
    5.8003    7.3242   21.8008 C   0  0  0  0  0  0  0  0  0  0  0  0
    6.2989    7.9356   22.8609 N   0  0  0  0  0  0  0  0  0  0  0  0
    5.6340    8.8416   23.5951 C   0  0  0  0  0  0  0  0  0  0  0  0
    2.4425    8.8879   21.7354 N   0  0  0  0  0  0  0  0  0  0  0  0
    1.3748    7.9383   21.9623 C   0  0  0  0  0  0  0  0  0  0  0  0
    2.1572   10.1855   21.1159 C   0  0  0  0  0  0  0  0  0  0  0  0
    2.8249   10.4807   19.7927 C   0  0  0  0  0  0  0  0  0  0  0  0
    3.4238   11.5752   19.5507 O   0  0  0  0  0  0  0  0  0  0  0  0
    2.8102    9.5379   18.8013 O   0  0  0  0  0  0  0  0  0  0  0  0
    2.3789    8.7179   18.9410 H   0  0  0  0  0  0  0  0  0  0  0  0
    6.2380    9.3902   24.6416 O   0  0  0  0  0  0  0  0  0  0  0  0
    8.2318   10.5276   23.0664 O   0  0  0  0  0  0  0  0  0  0  0  0
    7.5369    9.3090   24.9315 C   0  0  0  0  0  0  0  0  0  0  0  0
    7.8833    8.5963   26.0817 C   0  0  0  0  0  0  0  0  0  0  0  0
    9.2328    8.4403   26.4784 C   0  0  0  0  0  0  0  0  0  0  0  0
   10.2443    9.0360   25.6643 C   0  0  0  0  0  0  0  0  0  0  0  0
    9.8988    9.7472   24.5030 C   0  0  0  0  0  0  0  0  0  0  0  0
    8.5391    9.8819   24.1322 C   0  0  0  0  0  0  0  0  0  0  0  0
    7.3333   10.6195   22.8169 H   0  0  0  0  0  0  0  0  0  0  0  0
    9.5325    7.7280   27.6350 C   0  0  0  0  0  0  0  0  0  0  0  0
   10.7857    7.6851   28.1358 N   0  0  0  0  0  0  0  0  0  0  0  0
    8.6167    7.0789   28.3409 N   0  0  0  0  0  0  0  0  0  0  0  0
   11.5194    8.1441   27.6665 H   0  0  0  0  0  0  0  0  0  0  0  0
    7.6800    7.0655   28.0381 H   0  0  0  0  0  0  0  0  0  0  0  0
    8.8734    6.6103   29.1678 H   0  0  0  0  0  0  0  0  0  0  0  0
    6.5010    6.4589   21.1152 O   0  0  0  0  0  0  0  0  0  0  0  0
    6.4775    5.1364   20.9887 C   0  0  0  0  0  0  0  0  0  0  0  0
    5.6913    4.4368   21.9463 C   0  0  0  0  0  0  0  0  0  0  0  0
    5.6075    3.0325   21.9036 C   0  0  0  0  0  0  0  0  0  0  0  0
    6.3131    2.3356   20.9093 C   0  0  0  0  0  0  0  0  0  0  0  0
    7.0996    3.0337   19.9478 C   0  0  0  0  0  0  0  0  0  0  0  0
    7.1696    4.4261   20.0070 C   0  0  0  0  0  0  0  0  0  0  0  0
    7.7866    2.3477   18.9494 C   0  0  0  0  0  0  0  0  0  0  0  0
    7.6399    2.3953   17.6149 N   0  0  0  0  0  0  0  0  0  0  0  0
    6.7246    3.1763   16.8612 C   0  0  0  0  0  0  0  0  0  0  0  0
    8.7629    1.4895   19.2785 N   0  0  0  0  0  0  0  0  0  0  0  0
    8.5648    1.5229   16.9811 C   0  0  0  0  0  0  0  0  0  0  0  0
    9.3461    0.8891   18.1498 C   0  0  0  0  0  0  0  0  0  0  0  0
  1  2  1  0  0  0
  1  3  2  0  0  0
  1  8  1  0  0  0
  3  4  1  0  0  0
  3  9  1  0  0  0
  4  5  1  0  0  0
  4  6  2  0  0  0
  6  7  1  0  0  0
  6 31  1  0  0  0
  7  8  2  0  0  0
  8 16  1  0  0  0
 17 23  1  0  0  0
 16 18  1  0  0  0
 18 19  2  0  0  0
 18 23  1  0  0  0
 19 20  1  0  0  0
 20 21  2  0  0  0
 20 25  1  0  0  0
 21 22  1  0  0  0
 22 23  2  0  0  0
 25 26  2  0  0  0
 25 27  1  0  0  0
 31 32  1  0  0  0
 32 33  2  0  0  0
 32 37  1  0  0  0
 33 34  1  0  0  0
 34 35  2  0  0  0
 35 36  1  0  0  0
 36 37  2  0  0  0
 36 38  1  0  0  0
 38 39  1  0  0  0
 38 41  2  0  0  0
 39 40  1  0  0  0
 39 42  1  0  0  0
 41 43  1  0  0  0
 42 43  1  0  0  0
  9 11  1  0  0  0
  9 10  1  0  0  0
 11 12  1  0  0  0
 12 13  2  0  0  0
 12 14  1  0  0  0
 17 24  1  0  0  0
 26 28  1  0  0  0
 27 29  1  0  0  0
 27 30  1  0  0  0
 14 15  1  0  0  0
M  END
> <minimizedAffinity>
-9.82659

$$$$
1FJS_Z34_A_500


 43 46  0  0  0  0  0  0  0  0999 V2000
    5.5885    9.3881   22.0305 C   0  0  0  0  0  0  0  0  0  0  0  0
    5.0579   10.3747   22.7026 F   0  0  0  0  0  0  0  0  0  0  0  0
    5.3333    9.2187   20.6489 C   0  0  0  0  0  0  0  0  0  0  0  0
    5.9537    8.1287   19.9810 C   0  0  0  0  0  0  0  0  0  0  0  0
    5.7694    7.9219   18.7205 F   0  0  0  0  0  0  0  0  0  0  0  0
    6.7872    7.2566   20.6935 C   0  0  0  0  0  0  0  0  0  0  0  0
    6.9821    7.4599   21.9846 N   0  0  0  0  0  0  0  0  0  0  0  0
    6.4295    8.4629   22.6852 C   0  0  0  0  0  0  0  0  0  0  0  0
    4.5150   10.0942   19.9796 N   0  0  0  0  0  0  0  0  0  0  0  0
    3.1121    9.7804   19.8171 C   0  0  0  0  0  0  0  0  0  0  0  0
    5.0588   11.3451   19.4426 C   0  0  0  0  0  0  0  0  0  0  0  0
    5.6002   11.3133   18.0320 C   0  0  0  0  0  0  0  0  0  0  0  0
    6.7809   10.9337   17.7541 O   0  0  0  0  0  0  0  0  0  0  0  0
    4.7982   11.6910   16.9899 O   0  0  0  0  0  0  0  0  0  0  0  0
    3.9211   11.9772   17.1536 H   0  0  0  0  0  0  0  0  0  0  0  0
    6.6975    8.5668   23.9807 O   0  0  0  0  0  0  0  0  0  0  0  0
    8.6887   10.0536   22.7257 O   0  0  0  0  0  0  0  0  0  0  0  0
    7.8963    8.7895   24.5203 C   0  0  0  0  0  0  0  0  0  0  0  0
    8.1401    8.2204   25.7724 C   0  0  0  0  0  0  0  0  0  0  0  0
    9.3810    8.3859   26.4325 C   0  0  0  0  0  0  0  0  0  0  0  0
   10.3903    9.1577   25.7796 C   0  0  0  0  0  0  0  0  0  0  0  0
   10.1500    9.7250   24.5170 C   0  0  0  0  0  0  0  0  0  0  0  0
    8.8984    9.5376   23.8820 C   0  0  0  0  0  0  0  0  0  0  0  0
    7.8621    9.9324   22.3015 H   0  0  0  0  0  0  0  0  0  0  0  0
    9.5787    7.8071   27.6818 C   0  0  0  0  0  0  0  0  0  0  0  0
    8.5447    7.3671   28.4304 N   0  0  0  0  0  0  0  0  0  0  0  0
   10.7815    7.6138   28.2058 N   0  0  0  0  0  0  0  0  0  0  0  0
    7.6213    7.4758   28.1067 H   0  0  0  0  0  0  0  0  0  0  0  0
   11.5842    7.9083   27.7177 H   0  0  0  0  0  0  0  0  0  0  0  0
   10.8717    7.1758   29.0829 H   0  0  0  0  0  0  0  0  0  0  0  0
    7.3639    6.2688   20.0600 O   0  0  0  0  0  0  0  0  0  0  0  0
    7.0318    5.0073   19.8073 C   0  0  0  0  0  0  0  0  0  0  0  0
    8.1104    4.1342   19.4930 C   0  0  0  0  0  0  0  0  0  0  0  0
    7.8631    2.7797   19.2017 C   0  0  0  0  0  0  0  0  0  0  0  0
    6.5408    2.3069   19.2204 C   0  0  0  0  0  0  0  0  0  0  0  0
    5.4589    3.1784   19.5367 C   0  0  0  0  0  0  0  0  0  0  0  0
    5.7250    4.5181   19.8228 C   0  0  0  0  0  0  0  0  0  0  0  0
    4.1480    2.7097   19.5737 C   0  0  0  0  0  0  0  0  0  0  0  0
    3.3706    2.2476   18.5804 N   0  0  0  0  0  0  0  0  0  0  0  0
    3.6934    2.1150   17.2042 C   0  0  0  0  0  0  0  0  0  0  0  0
    3.4830    2.6755   20.7376 N   0  0  0  0  0  0  0  0  0  0  0  0
    2.0953    1.8712   19.0806 C   0  0  0  0  0  0  0  0  0  0  0  0
    2.1782    2.1756   20.5901 C   0  0  0  0  0  0  0  0  0  0  0  0
  1  2  1  0  0  0
  1  3  2  0  0  0
  1  8  1  0  0  0
  3  4  1  0  0  0
  3  9  1  0  0  0
  4  5  1  0  0  0
  4  6  2  0  0  0
  6  7  1  0  0  0
  6 31  1  0  0  0
  7  8  2  0  0  0
  8 16  1  0  0  0
 17 23  1  0  0  0
 16 18  1  0  0  0
 18 19  2  0  0  0
 18 23  1  0  0  0
 19 20  1  0  0  0
 20 21  2  0  0  0
 20 25  1  0  0  0
 21 22  1  0  0  0
 22 23  2  0  0  0
 25 26  2  0  0  0
 25 27  1  0  0  0
 31 32  1  0  0  0
 32 33  2  0  0  0
 32 37  1  0  0  0
 33 34  1  0  0  0
 34 35  2  0  0  0
 35 36  1  0  0  0
 36 37  2  0  0  0
 36 38  1  0  0  0
 38 39  1  0  0  0
 38 41  2  0  0  0
 39 40  1  0  0  0
 39 42  1  0  0  0
 41 43  1  0  0  0
 42 43  1  0  0  0
  9 11  1  0  0  0
  9 10  1  0  0  0
 11 12  1  0  0  0
 12 13  2  0  0  0
 12 14  1  0  0  0
 17 24  1  0  0  0
 26 28  1  0  0  0
 27 29  1  0  0  0
 27 30  1  0  0  0
 14 15  1  0  0  0
M  END
> <minimizedAffinity>
-9.75503

$$$$
1FJS_Z34_A_500


 43 46  0  0  0  0  0  0  0  0999 V2000
    5.5511    9.3606   22.0619 C   0  0  0  0  0  0  0  0  0  0  0  0
    5.0102   10.3596   22.7068 F   0  0  0  0  0  0  0  0  0  0  0  0
    5.2906    9.1455   20.6877 C   0  0  0  0  0  0  0  0  0  0  0  0
    5.9228    8.0444   20.0496 C   0  0  0  0  0  0  0  0  0  0  0  0
    5.7345    7.7966   18.7971 F   0  0  0  0  0  0  0  0  0  0  0  0
    6.7725    7.2062   20.7834 C   0  0  0  0  0  0  0  0  0  0  0  0
    6.9717    7.4517   22.0665 N   0  0  0  0  0  0  0  0  0  0  0  0
    6.4088    8.4677   22.7394 C   0  0  0  0  0  0  0  0  0  0  0  0
    4.4563    9.9885   19.9969 N   0  0  0  0  0  0  0  0  0  0  0  0
    4.9727   11.2336   19.4711 C   0  0  0  0  0  0  0  0  0  0  0  0
    3.0527    9.6229   19.7843 C   0  0  0  0  0  0  0  0  0  0  0  0
    2.1795    9.4933   21.0109 C   0  0  0  0  0  0  0  0  0  0  0  0
    1.6731    8.3890   21.3843 O   0  0  0  0  0  0  0  0  0  0  0  0
    1.9206   10.5964   21.7777 O   0  0  0  0  0  0  0  0  0  0  0  0
    2.2759   11.4290   21.5357 H   0  0  0  0  0  0  0  0  0  0  0  0
    6.6824    8.6149   24.0296 O   0  0  0  0  0  0  0  0  0  0  0  0
    8.6735   10.1021   22.7749 O   0  0  0  0  0  0  0  0  0  0  0  0
    7.8889    8.8187   24.5592 C   0  0  0  0  0  0  0  0  0  0  0  0
    8.1411    8.2289   25.8000 C   0  0  0  0  0  0  0  0  0  0  0  0
    9.3905    8.3734   26.4489 C   0  0  0  0  0  0  0  0  0  0  0  0
   10.3998    9.1456   25.7963 C   0  0  0  0  0  0  0  0  0  0  0  0
   10.1510    9.7337   24.5449 C   0  0  0  0  0  0  0  0  0  0  0  0
    8.8910    9.5671   23.9211 C   0  0  0  0  0  0  0  0  0  0  0  0
    7.8412    9.9946   22.3580 H   0  0  0  0  0  0  0  0  0  0  0  0
    9.5965    7.7743   27.6872 C   0  0  0  0  0  0  0  0  0  0  0  0
    8.5757    7.2513   28.3998 N   0  0  0  0  0  0  0  0  0  0  0  0
   10.7971    7.6415   28.2343 N   0  0  0  0  0  0  0  0  0  0  0  0
    7.6546    7.3116   28.0573 H   0  0  0  0  0  0  0  0  0  0  0  0
   11.5904    7.9980   27.7730 H   0  0  0  0  0  0  0  0  0  0  0  0
   10.8952    7.1864   29.1018 H   0  0  0  0  0  0  0  0  0  0  0  0
    7.3597    6.2078   20.1768 O   0  0  0  0  0  0  0  0  0  0  0  0
    7.0069    4.9599   19.8870 C   0  0  0  0  0  0  0  0  0  0  0  0
    8.0637    4.0947   19.4880 C   0  0  0  0  0  0  0  0  0  0  0  0
    7.7932    2.7550   19.1520 C   0  0  0  0  0  0  0  0  0  0  0  0
    6.4695    2.2894   19.2107 C   0  0  0  0  0  0  0  0  0  0  0  0
    5.4096    3.1530   19.6117 C   0  0  0  0  0  0  0  0  0  0  0  0
    5.6985    4.4779   19.9413 C   0  0  0  0  0  0  0  0  0  0  0  0
    4.0982    2.6906   19.6885 C   0  0  0  0  0  0  0  0  0  0  0  0
    3.2725    2.2775   18.7127 N   0  0  0  0  0  0  0  0  0  0  0  0
    3.5310    2.2042   17.3186 C   0  0  0  0  0  0  0  0  0  0  0  0
    3.4870    2.6088   20.8792 N   0  0  0  0  0  0  0  0  0  0  0  0
    2.0186    1.8866   19.2541 C   0  0  0  0  0  0  0  0  0  0  0  0
    2.1729    2.1234   20.7701 C   0  0  0  0  0  0  0  0  0  0  0  0
  1  2  1  0  0  0
  1  3  2  0  0  0
  1  8  1  0  0  0
  3  4  1  0  0  0
  3  9  1  0  0  0
  4  5  1  0  0  0
  4  6  2  0  0  0
  6  7  1  0  0  0
  6 31  1  0  0  0
  7  8  2  0  0  0
  8 16  1  0  0  0
 17 23  1  0  0  0
 16 18  1  0  0  0
 18 19  2  0  0  0
 18 23  1  0  0  0
 19 20  1  0  0  0
 20 21  2  0  0  0
 20 25  1  0  0  0
 21 22  1  0  0  0
 22 23  2  0  0  0
 25 26  2  0  0  0
 25 27  1  0  0  0
 31 32  1  0  0  0
 32 33  2  0  0  0
 32 37  1  0  0  0
 33 34  1  0  0  0
 34 35  2  0  0  0
 35 36  1  0  0  0
 36 37  2  0  0  0
 36 38  1  0  0  0
 38 39  1  0  0  0
 38 41  2  0  0  0
 39 40  1  0  0  0
 39 42  1  0  0  0
 41 43  1  0  0  0
 42 43  1  0  0  0
  9 11  1  0  0  0
  9 10  1  0  0  0
 11 12  1  0  0  0
 12 13  2  0  0  0
 12 14  1  0  0  0
 17 24  1  0  0  0
 26 28  1  0  0  0
 27 29  1  0  0  0
 27 30  1  0  0  0
 14 15  1  0  0  0
M  END
> <minimizedAffinity>
-9.35045

$$$$
1FJS_Z34_A_500


 43 46  0  0  0  0  0  0  0  0999 V2000
    3.6516    5.9742   21.5617 C   0  0  0  0  0  0  0  0  0  0  0  0
    2.9090    7.0230   21.7958 F   0  0  0  0  0  0  0  0  0  0  0  0
    3.2090    4.6714   21.8926 C   0  0  0  0  0  0  0  0  0  0  0  0
    4.0663    3.5769   21.5988 C   0  0  0  0  0  0  0  0  0  0  0  0
    3.7204    2.3630   21.8675 F   0  0  0  0  0  0  0  0  0  0  0  0
    5.3129    3.8074   21.0022 C   0  0  0  0  0  0  0  0  0  0  0  0
    5.6763    5.0469   20.7232 N   0  0  0  0  0  0  0  0  0  0  0  0
    4.9249    6.1308   20.9733 C   0  0  0  0  0  0  0  0  0  0  0  0
    1.9797    4.4801   22.4724 N   0  0  0  0  0  0  0  0  0  0  0  0
    0.8559    4.0827   21.6524 C   0  0  0  0  0  0  0  0  0  0  0  0
    1.8104    4.6669   23.9165 C   0  0  0  0  0  0  0  0  0  0  0  0
    1.4640    3.4446   24.7350 C   0  0  0  0  0  0  0  0  0  0  0  0
    0.2975    3.2260   25.1894 O   0  0  0  0  0  0  0  0  0  0  0  0
    2.4283    2.5106   24.9989 O   0  0  0  0  0  0  0  0  0  0  0  0
    3.3009    2.6354   24.6812 H   0  0  0  0  0  0  0  0  0  0  0  0
    5.3956    7.3286   20.6498 O   0  0  0  0  0  0  0  0  0  0  0  0
    7.3360    8.7271   19.2253 O   0  0  0  0  0  0  0  0  0  0  0  0
    6.4222    7.9526   21.2282 C   0  0  0  0  0  0  0  0  0  0  0  0
    6.5094    7.8676   22.6196 C   0  0  0  0  0  0  0  0  0  0  0  0
    7.5628    8.4851   23.3351 C   0  0  0  0  0  0  0  0  0  0  0  0
    8.5469    9.2055   22.5912 C   0  0  0  0  0  0  0  0  0  0  0  0
    8.4653    9.2863   21.1910 C   0  0  0  0  0  0  0  0  0  0  0  0
    7.4001    8.6542   20.5051 C   0  0  0  0  0  0  0  0  0  0  0  0
    6.6330    8.3105   18.7669 H   0  0  0  0  0  0  0  0  0  0  0  0
    7.6074    8.3806   24.7215 C   0  0  0  0  0  0  0  0  0  0  0  0
    8.7413    8.6213   25.4140 N   0  0  0  0  0  0  0  0  0  0  0  0
    6.5465    8.0777   25.4572 N   0  0  0  0  0  0  0  0  0  0  0  0
    9.5703    8.8526   24.9359 H   0  0  0  0  0  0  0  0  0  0  0  0
    5.6835    7.8893   25.0225 H   0  0  0  0  0  0  0  0  0  0  0  0
    6.6219    8.0411   26.4381 H   0  0  0  0  0  0  0  0  0  0  0  0
    6.0822    2.7877   20.7228 O   0  0  0  0  0  0  0  0  0  0  0  0
    6.6335    2.3176   19.6089 C   0  0  0  0  0  0  0  0  0  0  0  0
    8.0046    1.9499   19.7042 C   0  0  0  0  0  0  0  0  0  0  0  0
    8.6831    1.4484   18.5777 C   0  0  0  0  0  0  0  0  0  0  0  0
    7.9905    1.3228   17.3625 C   0  0  0  0  0  0  0  0  0  0  0  0
    6.6169    1.6884   17.2646 C   0  0  0  0  0  0  0  0  0  0  0  0
    5.9619    2.1833   18.3931 C   0  0  0  0  0  0  0  0  0  0  0  0
    5.9215    1.5487   16.0661 C   0  0  0  0  0  0  0  0  0  0  0  0
    5.5335    2.4827   15.1820 N   0  0  0  0  0  0  0  0  0  0  0  0
    5.7378    3.8863   15.2436 C   0  0  0  0  0  0  0  0  0  0  0  0
    5.5437    0.3310   15.6506 N   0  0  0  0  0  0  0  0  0  0  0  0
    4.8487    1.8820   14.0918 C   0  0  0  0  0  0  0  0  0  0  0  0
    4.8558    0.3766   14.4262 C   0  0  0  0  0  0  0  0  0  0  0  0
  1  2  1  0  0  0
  1  3  2  0  0  0
  1  8  1  0  0  0
  3  4  1  0  0  0
  3  9  1  0  0  0
  4  5  1  0  0  0
  4  6  2  0  0  0
  6  7  1  0  0  0
  6 31  1  0  0  0
  7  8  2  0  0  0
  8 16  1  0  0  0
 17 23  1  0  0  0
 16 18  1  0  0  0
 18 19  2  0  0  0
 18 23  1  0  0  0
 19 20  1  0  0  0
 20 21  2  0  0  0
 20 25  1  0  0  0
 21 22  1  0  0  0
 22 23  2  0  0  0
 25 26  2  0  0  0
 25 27  1  0  0  0
 31 32  1  0  0  0
 32 33  2  0  0  0
 32 37  1  0  0  0
 33 34  1  0  0  0
 34 35  2  0  0  0
 35 36  1  0  0  0
 36 37  2  0  0  0
 36 38  1  0  0  0
 38 39  1  0  0  0
 38 41  2  0  0  0
 39 40  1  0  0  0
 39 42  1  0  0  0
 41 43  1  0  0  0
 42 43  1  0  0  0
  9 11  1  0  0  0
  9 10  1  0  0  0
 11 12  1  0  0  0
 12 13  2  0  0  0
 12 14  1  0  0  0
 17 24  1  0  0  0
 26 28  1  0  0  0
 27 29  1  0  0  0
 27 30  1  0  0  0
 14 15  1  0  0  0
M  END
> <minimizedAffinity>
-9.29235

$$$$
1FJS_Z34_A_500


 43 46  0  0  0  0  0  0  0  0999 V2000
    4.5398    7.4363   17.6718 C   0  0  0  0  0  0  0  0  0  0  0  0
    3.7528    7.0444   16.7057 F   0  0  0  0  0  0  0  0  0  0  0  0
    4.7060    8.8088   17.9736 C   0  0  0  0  0  0  0  0  0  0  0  0
    5.5702    9.1601   19.0455 C   0  0  0  0  0  0  0  0  0  0  0  0
    5.7599   10.3926   19.3779 F   0  0  0  0  0  0  0  0  0  0  0  0
    6.2322    8.1570   19.7657 C   0  0  0  0  0  0  0  0  0  0  0  0
    6.0445    6.8919   19.4330 N   0  0  0  0  0  0  0  0  0  0  0  0
    5.2485    6.4820   18.4328 C   0  0  0  0  0  0  0  0  0  0  0  0
    4.0389    9.7663   17.2510 N   0  0  0  0  0  0  0  0  0  0  0  0
    2.6828   10.1190   17.6112 C   0  0  0  0  0  0  0  0  0  0  0  0
    4.7021   10.4351   16.1276 C   0  0  0  0  0  0  0  0  0  0  0  0
    5.9933    9.8291   15.6281 C   0  0  0  0  0  0  0  0  0  0  0  0
    7.1374   10.2399   15.9988 O   0  0  0  0  0  0  0  0  0  0  0  0
    5.9544    8.7814   14.7491 O   0  0  0  0  0  0  0  0  0  0  0  0
    5.1300    8.4496   14.4519 H   0  0  0  0  0  0  0  0  0  0  0  0
    5.1384    5.1822   18.1896 O   0  0  0  0  0  0  0  0  0  0  0  0
    4.5674    4.3310   20.7780 O   0  0  0  0  0  0  0  0  0  0  0  0
    5.8083    4.2075   18.8053 C   0  0  0  0  0  0  0  0  0  0  0  0
    6.8546    3.6147   18.0948 C   0  0  0  0  0  0  0  0  0  0  0  0
    7.6368    2.5772   18.6558 C   0  0  0  0  0  0  0  0  0  0  0  0
    7.3271    2.1458   19.9820 C   0  0  0  0  0  0  0  0  0  0  0  0
    6.2798    2.7455   20.7012 C   0  0  0  0  0  0  0  0  0  0  0  0
    5.5184    3.7837   20.1121 C   0  0  0  0  0  0  0  0  0  0  0  0
    4.0608    5.0185   20.3924 H   0  0  0  0  0  0  0  0  0  0  0  0
    8.6653    2.0104   17.9102 C   0  0  0  0  0  0  0  0  0  0  0  0
    8.5466    1.8047   16.5810 N   0  0  0  0  0  0  0  0  0  0  0  0
    9.8344    1.6695   18.4351 N   0  0  0  0  0  0  0  0  0  0  0  0
    7.7071    2.0337   16.1205 H   0  0  0  0  0  0  0  0  0  0  0  0
    9.9954    1.7905   19.3988 H   0  0  0  0  0  0  0  0  0  0  0  0
   10.5414    1.2955   17.8611 H   0  0  0  0  0  0  0  0  0  0  0  0
    7.0104    8.4966   20.7601 O   0  0  0  0  0  0  0  0  0  0  0  0
    6.8180    8.7207   22.0556 C   0  0  0  0  0  0  0  0  0  0  0  0
    5.5135    9.1552   22.4216 C   0  0  0  0  0  0  0  0  0  0  0  0
    5.2099    9.4275   23.7687 C   0  0  0  0  0  0  0  0  0  0  0  0
    6.2116    9.2700   24.7404 C   0  0  0  0  0  0  0  0  0  0  0  0
    7.5182    8.8332   24.3770 C   0  0  0  0  0  0  0  0  0  0  0  0
    7.7991    8.5681   23.0361 C   0  0  0  0  0  0  0  0  0  0  0  0
    8.5093    8.6587   25.3397 C   0  0  0  0  0  0  0  0  0  0  0  0
    9.7639    9.1372   25.3803 N   0  0  0  0  0  0  0  0  0  0  0  0
   10.4176    9.9639   24.4291 C   0  0  0  0  0  0  0  0  0  0  0  0
    8.2601    7.9169   26.4286 N   0  0  0  0  0  0  0  0  0  0  0  0
   10.4234    8.7049   26.5620 C   0  0  0  0  0  0  0  0  0  0  0  0
    9.3678    7.8488   27.2905 C   0  0  0  0  0  0  0  0  0  0  0  0
  1  2  1  0  0  0
  1  3  2  0  0  0
  1  8  1  0  0  0
  3  4  1  0  0  0
  3  9  1  0  0  0
  4  5  1  0  0  0
  4  6  2  0  0  0
  6  7  1  0  0  0
  6 31  1  0  0  0
  7  8  2  0  0  0
  8 16  1  0  0  0
 17 23  1  0  0  0
 16 18  1  0  0  0
 18 19  2  0  0  0
 18 23  1  0  0  0
 19 20  1  0  0  0
 20 21  2  0  0  0
 20 25  1  0  0  0
 21 22  1  0  0  0
 22 23  2  0  0  0
 25 26  2  0  0  0
 25 27  1  0  0  0
 31 32  1  0  0  0
 32 33  2  0  0  0
 32 37  1  0  0  0
 33 34  1  0  0  0
 34 35  2  0  0  0
 35 36  1  0  0  0
 36 37  2  0  0  0
 36 38  1  0  0  0
 38 39  1  0  0  0
 38 41  2  0  0  0
 39 40  1  0  0  0
 39 42  1  0  0  0
 41 43  1  0  0  0
 42 43  1  0  0  0
  9 11  1  0  0  0
  9 10  1  0  0  0
 11 12  1  0  0  0
 12 13  2  0  0  0
 12 14  1  0  0  0
 17 24  1  0  0  0
 26 28  1  0  0  0
 27 29  1  0  0  0
 27 30  1  0  0  0
 14 15  1  0  0  0
M  END
> <minimizedAffinity>
-9.05307

$$$$
1FJS_Z34_A_500


 43 46  0  0  0  0  0  0  0  0999 V2000
    6.4608    8.0634   20.6634 C   0  0  0  0  0  0  0  0  0  0  0  0
    7.2170    8.2042   21.7192 F   0  0  0  0  0  0  0  0  0  0  0  0
    5.4457    9.0002   20.3560 C   0  0  0  0  0  0  0  0  0  0  0  0
    4.6693    8.7879   19.1850 C   0  0  0  0  0  0  0  0  0  0  0  0
    3.7334    9.6080   18.8429 F   0  0  0  0  0  0  0  0  0  0  0  0
    4.9179    7.6715   18.3756 C   0  0  0  0  0  0  0  0  0  0  0  0
    5.8741    6.8258   18.7175 N   0  0  0  0  0  0  0  0  0  0  0  0
    6.6459    6.9561   19.8081 C   0  0  0  0  0  0  0  0  0  0  0  0
    5.2312   10.0859   21.1680 N   0  0  0  0  0  0  0  0  0  0  0  0
    4.4047    9.9453   22.3471 C   0  0  0  0  0  0  0  0  0  0  0  0
    5.8458   11.3774   20.8468 C   0  0  0  0  0  0  0  0  0  0  0  0
    7.2958   11.5660   21.2286 C   0  0  0  0  0  0  0  0  0  0  0  0
    8.1372   12.1506   20.4766 O   0  0  0  0  0  0  0  0  0  0  0  0
    7.7427   11.1092   22.4383 O   0  0  0  0  0  0  0  0  0  0  0  0
    7.1530   10.6728   23.0212 H   0  0  0  0  0  0  0  0  0  0  0  0
    7.5762    6.0415   20.0508 O   0  0  0  0  0  0  0  0  0  0  0  0
    5.8196    4.7514   21.7829 O   0  0  0  0  0  0  0  0  0  0  0  0
    7.3961    4.7204   20.0624 C   0  0  0  0  0  0  0  0  0  0  0  0
    8.1543    3.9723   19.1588 C   0  0  0  0  0  0  0  0  0  0  0  0
    8.0487    2.5626   19.0921 C   0  0  0  0  0  0  0  0  0  0  0  0
    7.1376    1.9153   19.9819 C   0  0  0  0  0  0  0  0  0  0  0  0
    6.3793    2.6650   20.8966 C   0  0  0  0  0  0  0  0  0  0  0  0
    6.5110    4.0740   20.9401 C   0  0  0  0  0  0  0  0  0  0  0  0
    5.9033    5.6841   21.8155 H   0  0  0  0  0  0  0  0  0  0  0  0
    8.8180    1.8574   18.1724 C   0  0  0  0  0  0  0  0  0  0  0  0
    8.3851    1.6291   16.9139 N   0  0  0  0  0  0  0  0  0  0  0  0
   10.0304    1.3963   18.4480 N   0  0  0  0  0  0  0  0  0  0  0  0
    7.4942    1.9421   16.6354 H   0  0  0  0  0  0  0  0  0  0  0  0
   10.4137    1.5250   19.3456 H   0  0  0  0  0  0  0  0  0  0  0  0
   10.5472    0.9253   17.7550 H   0  0  0  0  0  0  0  0  0  0  0  0
    4.2058    7.5004   17.2925 O   0  0  0  0  0  0  0  0  0  0  0  0
    4.4957    7.2521   16.0197 C   0  0  0  0  0  0  0  0  0  0  0  0
    3.7174    6.2389   15.3937 C   0  0  0  0  0  0  0  0  0  0  0  0
    3.9518    5.8952   14.0492 C   0  0  0  0  0  0  0  0  0  0  0  0
    4.9650    6.5609   13.3403 C   0  0  0  0  0  0  0  0  0  0  0  0
    5.7447    7.5773   13.9639 C   0  0  0  0  0  0  0  0  0  0  0  0
    5.4966    7.9037   15.2979 C   0  0  0  0  0  0  0  0  0  0  0  0
    6.7385    8.2523   13.2594 C   0  0  0  0  0  0  0  0  0  0  0  0
    6.6339    9.2503   12.3663 N   0  0  0  0  0  0  0  0  0  0  0  0
    5.4548    9.8891   11.9000 C   0  0  0  0  0  0  0  0  0  0  0  0
    8.0260    7.9240   13.4397 N   0  0  0  0  0  0  0  0  0  0  0  0
    7.9188    9.6377   11.9001 C   0  0  0  0  0  0  0  0  0  0  0  0
    8.8892    8.7043   12.6520 C   0  0  0  0  0  0  0  0  0  0  0  0
  1  2  1  0  0  0
  1  3  2  0  0  0
  1  8  1  0  0  0
  3  4  1  0  0  0
  3  9  1  0  0  0
  4  5  1  0  0  0
  4  6  2  0  0  0
  6  7  1  0  0  0
  6 31  1  0  0  0
  7  8  2  0  0  0
  8 16  1  0  0  0
 17 23  1  0  0  0
 16 18  1  0  0  0
 18 19  2  0  0  0
 18 23  1  0  0  0
 19 20  1  0  0  0
 20 21  2  0  0  0
 20 25  1  0  0  0
 21 22  1  0  0  0
 22 23  2  0  0  0
 25 26  2  0  0  0
 25 27  1  0  0  0
 31 32  1  0  0  0
 32 33  2  0  0  0
 32 37  1  0  0  0
 33 34  1  0  0  0
 34 35  2  0  0  0
 35 36  1  0  0  0
 36 37  2  0  0  0
 36 38  1  0  0  0
 38 39  1  0  0  0
 38 41  2  0  0  0
 39 40  1  0  0  0
 39 42  1  0  0  0
 41 43  1  0  0  0
 42 43  1  0  0  0
  9 11  1  0  0  0
  9 10  1  0  0  0
 11 12  1  0  0  0
 12 13  2  0  0  0
 12 14  1  0  0  0
 17 24  1  0  0  0
 26 28  1  0  0  0
 27 29  1  0  0  0
 27 30  1  0  0  0
 14 15  1  0  0  0
M  END
> <minimizedAffinity>
-8.91314

$$$$
1FJS_Z34_A_500


 43 46  0  0  0  0  0  0  0  0999 V2000
    2.8582    2.8704   21.8501 C   0  0  0  0  0  0  0  0  0  0  0  0
    2.8215    1.5661   21.7874 F   0  0  0  0  0  0  0  0  0  0  0  0
    1.6769    3.6319   22.0151 C   0  0  0  0  0  0  0  0  0  0  0  0
    1.7950    5.0462   22.0858 C   0  0  0  0  0  0  0  0  0  0  0  0
    0.7585    5.7988   22.2434 F   0  0  0  0  0  0  0  0  0  0  0  0
    3.0569    5.6470   21.9874 C   0  0  0  0  0  0  0  0  0  0  0  0
    4.1244    4.8850   21.8259 N   0  0  0  0  0  0  0  0  0  0  0  0
    4.0934    3.5453   21.7464 C   0  0  0  0  0  0  0  0  0  0  0  0
    0.4565    3.0114   22.1126 N   0  0  0  0  0  0  0  0  0  0  0  0
   -0.2092    2.5497   20.9140 C   0  0  0  0  0  0  0  0  0  0  0  0
   -0.1626    2.8084   23.4258 C   0  0  0  0  0  0  0  0  0  0  0  0
    0.7642    2.6314   24.6063 C   0  0  0  0  0  0  0  0  0  0  0  0
    1.2187    3.6087   25.2798 O   0  0  0  0  0  0  0  0  0  0  0  0
    1.1325    1.3725   24.9955 O   0  0  0  0  0  0  0  0  0  0  0  0
    0.8184    0.6258   24.5246 H   0  0  0  0  0  0  0  0  0  0  0  0
    5.2322    2.8840   21.5823 O   0  0  0  0  0  0  0  0  0  0  0  0
    7.0242    5.0081   21.7461 O   0  0  0  0  0  0  0  0  0  0  0  0
    6.1600    3.1333   20.6577 C   0  0  0  0  0  0  0  0  0  0  0  0
    6.1980    2.2767   19.5551 C   0  0  0  0  0  0  0  0  0  0  0  0
    7.1366    2.4544   18.5108 C   0  0  0  0  0  0  0  0  0  0  0  0
    8.0546    3.5442   18.6124 C   0  0  0  0  0  0  0  0  0  0  0  0
    8.0136    4.4114   19.7170 C   0  0  0  0  0  0  0  0  0  0  0  0
    7.0597    4.2078   20.7433 C   0  0  0  0  0  0  0  0  0  0  0  0
    6.3948    4.8775   22.4278 H   0  0  0  0  0  0  0  0  0  0  0  0
    7.1435    1.5737   17.4341 C   0  0  0  0  0  0  0  0  0  0  0  0
    8.2641    0.9189   17.0618 N   0  0  0  0  0  0  0  0  0  0  0  0
    6.0581    1.2883   16.7277 N   0  0  0  0  0  0  0  0  0  0  0  0
    9.1097    1.0791   17.5399 H   0  0  0  0  0  0  0  0  0  0  0  0
    5.2028    1.7268   16.9408 H   0  0  0  0  0  0  0  0  0  0  0  0
    6.1077    0.6380   15.9903 H   0  0  0  0  0  0  0  0  0  0  0  0
    3.1496    6.9486   22.0717 O   0  0  0  0  0  0  0  0  0  0  0  0
    3.6028    7.7897   22.9951 C   0  0  0  0  0  0  0  0  0  0  0  0
    2.6098    8.4879   23.7373 C   0  0  0  0  0  0  0  0  0  0  0  0
    2.9866    9.4080   24.7333 C   0  0  0  0  0  0  0  0  0  0  0  0
    4.3517    9.6295   24.9780 C   0  0  0  0  0  0  0  0  0  0  0  0
    5.3483    8.9304   24.2377 C   0  0  0  0  0  0  0  0  0  0  0  0
    4.9541    8.0219   23.2545 C   0  0  0  0  0  0  0  0  0  0  0  0
    6.7029    9.1338   24.4894 C   0  0  0  0  0  0  0  0  0  0  0  0
    7.6059    9.8578   23.8075 N   0  0  0  0  0  0  0  0  0  0  0  0
    7.4067   10.6202   22.6265 C   0  0  0  0  0  0  0  0  0  0  0  0
    7.2780    8.5601   25.5561 N   0  0  0  0  0  0  0  0  0  0  0  0
    8.8787    9.7839   24.4343 C   0  0  0  0  0  0  0  0  0  0  0  0
    8.6445    8.8720   25.6556 C   0  0  0  0  0  0  0  0  0  0  0  0
  1  2  1  0  0  0
  1  3  2  0  0  0
  1  8  1  0  0  0
  3  4  1  0  0  0
  3  9  1  0  0  0
  4  5  1  0  0  0
  4  6  2  0  0  0
  6  7  1  0  0  0
  6 31  1  0  0  0
  7  8  2  0  0  0
  8 16  1  0  0  0
 17 23  1  0  0  0
 16 18  1  0  0  0
 18 19  2  0  0  0
 18 23  1  0  0  0
 19 20  1  0  0  0
 20 21  2  0  0  0
 20 25  1  0  0  0
 21 22  1  0  0  0
 22 23  2  0  0  0
 25 26  2  0  0  0
 25 27  1  0  0  0
 31 32  1  0  0  0
 32 33  2  0  0  0
 32 37  1  0  0  0
 33 34  1  0  0  0
 34 35  2  0  0  0
 35 36  1  0  0  0
 36 37  2  0  0  0
 36 38  1  0  0  0
 38 39  1  0  0  0
 38 41  2  0  0  0
 39 40  1  0  0  0
 39 42  1  0  0  0
 41 43  1  0  0  0
 42 43  1  0  0  0
  9 11  1  0  0  0
  9 10  1  0  0  0
 11 12  1  0  0  0
 12 13  2  0  0  0
 12 14  1  0  0  0
 17 24  1  0  0  0
 26 28  1  0  0  0
 27 29  1  0  0  0
 27 30  1  0  0  0
 14 15  1  0  0  0
M  END
> <minimizedAffinity>
-8.67120

$$$$
1FJS_Z34_A_500


 43 46  0  0  0  0  0  0  0  0999 V2000
    5.8618    8.1156   22.8523 C   0  0  0  0  0  0  0  0  0  0  0  0
    5.5016    8.6855   23.9712 F   0  0  0  0  0  0  0  0  0  0  0  0
    7.0283    8.5227   22.1623 C   0  0  0  0  0  0  0  0  0  0  0  0
    7.3635    7.8498   20.9564 C   0  0  0  0  0  0  0  0  0  0  0  0
    8.4177    8.1663   20.2825 F   0  0  0  0  0  0  0  0  0  0  0  0
    6.5431    6.8181   20.4816 C   0  0  0  0  0  0  0  0  0  0  0  0
    5.4614    6.4867   21.1645 N   0  0  0  0  0  0  0  0  0  0  0  0
    5.0771    7.0767   22.3074 C   0  0  0  0  0  0  0  0  0  0  0  0
    7.8128    9.5343   22.6575 N   0  0  0  0  0  0  0  0  0  0  0  0
    7.4542   10.9113   22.3958 C   0  0  0  0  0  0  0  0  0  0  0  0
    9.0010    9.2199   23.4564 C   0  0  0  0  0  0  0  0  0  0  0  0
    8.9374    9.5199   24.9362 C   0  0  0  0  0  0  0  0  0  0  0  0
    7.8730    9.3983   25.6200 O   0  0  0  0  0  0  0  0  0  0  0  0
   10.0657    9.9274   25.5939 O   0  0  0  0  0  0  0  0  0  0  0  0
   10.8705   10.0290   25.1248 H   0  0  0  0  0  0  0  0  0  0  0  0
    3.9687    6.6593   22.9059 O   0  0  0  0  0  0  0  0  0  0  0  0
    2.2428    6.7728   20.7246 O   0  0  0  0  0  0  0  0  0  0  0  0
    2.7990    7.2987   22.9292 C   0  0  0  0  0  0  0  0  0  0  0  0
    2.4588    7.9487   24.1179 C   0  0  0  0  0  0  0  0  0  0  0  0
    1.2452    8.6647   24.2497 C   0  0  0  0  0  0  0  0  0  0  0  0
    0.3662    8.7077   23.1243 C   0  0  0  0  0  0  0  0  0  0  0  0
    0.7095    8.0609   21.9254 C   0  0  0  0  0  0  0  0  0  0  0  0
    1.9332    7.3557   21.8253 C   0  0  0  0  0  0  0  0  0  0  0  0
    3.0515    6.3049   20.6535 H   0  0  0  0  0  0  0  0  0  0  0  0
    0.9431    9.2918   25.4540 C   0  0  0  0  0  0  0  0  0  0  0  0
    1.2082   10.6001   25.6574 N   0  0  0  0  0  0  0  0  0  0  0  0
    0.3479    8.6698   26.4626 N   0  0  0  0  0  0  0  0  0  0  0  0
    1.6491   11.1283   24.9532 H   0  0  0  0  0  0  0  0  0  0  0  0
    0.1229    7.7143   26.3877 H   0  0  0  0  0  0  0  0  0  0  0  0
    0.1308    9.1636   27.2862 H   0  0  0  0  0  0  0  0  0  0  0  0
    6.8754    6.1979   19.3795 O   0  0  0  0  0  0  0  0  0  0  0  0
    6.9237    4.9225   19.0098 C   0  0  0  0  0  0  0  0  0  0  0  0
    8.1174    4.2252   19.3463 C   0  0  0  0  0  0  0  0  0  0  0  0
    8.2708    2.8718   18.9918 C   0  0  0  0  0  0  0  0  0  0  0  0
    7.2344    2.2252   18.2989 C   0  0  0  0  0  0  0  0  0  0  0  0
    6.0371    2.9203   17.9623 C   0  0  0  0  0  0  0  0  0  0  0  0
    5.9044    4.2618   18.3230 C   0  0  0  0  0  0  0  0  0  0  0  0
    4.9998    2.2780   17.2909 C   0  0  0  0  0  0  0  0  0  0  0  0
    4.8936    1.9362   15.9961 N   0  0  0  0  0  0  0  0  0  0  0  0
    5.8346    2.1470   14.9541 C   0  0  0  0  0  0  0  0  0  0  0  0
    3.9002    1.9041   17.9611 N   0  0  0  0  0  0  0  0  0  0  0  0
    3.6527    1.2889   15.7523 C   0  0  0  0  0  0  0  0  0  0  0  0
    2.9600    1.2719   17.1300 C   0  0  0  0  0  0  0  0  0  0  0  0
  1  2  1  0  0  0
  1  3  2  0  0  0
  1  8  1  0  0  0
  3  4  1  0  0  0
  3  9  1  0  0  0
  4  5  1  0  0  0
  4  6  2  0  0  0
  6  7  1  0  0  0
  6 31  1  0  0  0
  7  8  2  0  0  0
  8 16  1  0  0  0
 17 23  1  0  0  0
 16 18  1  0  0  0
 18 19  2  0  0  0
 18 23  1  0  0  0
 19 20  1  0  0  0
 20 21  2  0  0  0
 20 25  1  0  0  0
 21 22  1  0  0  0
 22 23  2  0  0  0
 25 26  2  0  0  0
 25 27  1  0  0  0
 31 32  1  0  0  0
 32 33  2  0  0  0
 32 37  1  0  0  0
 33 34  1  0  0  0
 34 35  2  0  0  0
 35 36  1  0  0  0
 36 37  2  0  0  0
 36 38  1  0  0  0
 38 39  1  0  0  0
 38 41  2  0  0  0
 39 40  1  0  0  0
 39 42  1  0  0  0
 41 43  1  0  0  0
 42 43  1  0  0  0
  9 11  1  0  0  0
  9 10  1  0  0  0
 11 12  1  0  0  0
 12 13  2  0  0  0
 12 14  1  0  0  0
 17 24  1  0  0  0
 26 28  1  0  0  0
 27 29  1  0  0  0
 27 30  1  0  0  0
 14 15  1  0  0  0
M  END
> <minimizedAffinity>
-8.59364

$$$$
