4UJ1_NVX_A_1351


 27 30  0  0  0  0  0  0  0  0999 V2000
  -26.3457    9.4867    3.6284 C   0  0  0  0  0  0  0  0  0  0  0  0
  -26.2829    7.8626    3.5595 C   0  0  0  0  0  0  0  0  0  0  0  0
  -24.8696    7.5143    3.2624 N   0  0  0  0  0  0  0  0  0  0  0  0
  -24.2128    8.8137    2.9152 C   0  0  0  0  0  0  0  0  0  0  0  0
  -25.3761    9.8408    2.5078 C   0  0  0  0  0  0  0  0  0  0  0  0
  -24.8180    6.8658    2.4768 H   0  0  0  0  0  0  0  0  0  0  0  0
  -28.5065    9.5850    2.3981 C   0  0  0  0  0  0  0  0  0  0  0  0
  -29.9121    9.7482    2.3482 C   0  0  0  0  0  0  0  0  0  0  0  0
  -30.5736    9.6821    1.1862 N   0  0  0  0  0  0  0  0  0  0  0  0
  -31.9889    9.8223    1.2064 C   0  0  0  0  0  0  0  0  0  0  0  0
  -32.7319   10.0125    2.3192 N   0  0  0  0  0  0  0  0  0  0  0  0
  -32.0568   10.1151    3.5248 C   0  0  0  0  0  0  0  0  0  0  0  0
  -32.7065   10.2571    4.5894 O   0  0  0  0  0  0  0  0  0  0  0  0
  -30.6521    9.9958    3.5191 C   0  0  0  0  0  0  0  0  0  0  0  0
  -29.9229   10.0463    4.7254 C   0  0  0  0  0  0  0  0  0  0  0  0
  -28.5207    9.8878    4.7483 C   0  0  0  0  0  0  0  0  0  0  0  0
  -27.7855    9.6956    3.5602 C   0  0  0  0  0  0  0  0  0  0  0  0
  -33.7134   10.0757    2.2750 H   0  0  0  0  0  0  0  0  0  0  0  0
  -24.7398   11.2659    2.4956 C   0  0  0  0  0  0  0  0  0  0  0  0
  -24.8478   11.9596    3.5024 O   0  0  0  0  0  0  0  0  0  0  0  0
  -24.0187   11.7129    1.3630 C   0  0  0  0  0  0  0  0  0  0  0  0
  -23.6079   10.8467    0.3376 C   0  0  0  0  0  0  0  0  0  0  0  0
  -22.8934   11.3753   -0.7575 C   0  0  0  0  0  0  0  0  0  0  0  0
  -22.3557   10.4476   -1.9121 Cl  0  0  0  0  0  0  0  0  0  0  0  0
  -22.5937   12.7107   -0.9224 C   0  0  0  0  0  0  0  0  0  0  0  0
  -23.0058   13.5873    0.0747 C   0  0  0  0  0  0  0  0  0  0  0  0
  -23.7223   13.0644    1.1689 C   0  0  0  0  0  0  0  0  0  0  0  0
  7  8  1  0  0  0
  7 17  2  0  0  0
  8  9  1  0  0  0
  8 14  2  0  0  0
  9 10  2  0  0  0
 10 11  1  0  0  0
 11 12  1  0  0  0
 12 13  2  0  0  0
 12 14  1  0  0  0
 14 15  1  0  0  0
 15 16  2  0  0  0
 16 17  1  0  0  0
 17  1  1  0  0  0
  1  2  1  0  0  0
  1  5  1  0  0  0
  2  3  1  0  0  0
  3  4  1  0  0  0
  4  5  1  0  0  0
  5 19  1  0  0  0
 19 20  2  0  0  0
 19 21  1  0  0  0
 21 22  1  0  0  0
 21 27  2  0  0  0
 22 23  2  0  0  0
 23 24  1  0  0  0
 23 25  1  0  0  0
 25 26  2  0  0  0
 26 27  1  0  0  0
 11 18  1  0  0  0
  3  6  1  0  0  0
M  END
> <minimizedAffinity>
-10.80924

$$$$
4UJ1_NVX_A_1351


 27 30  0  0  0  0  0  0  0  0999 V2000
  -25.7528    9.4483    2.8456 C   0  0  0  0  0  0  0  0  0  0  0  0
  -25.1305    7.9544    3.0114 C   0  0  0  0  0  0  0  0  0  0  0  0
  -26.0744    7.2059    3.8809 N   0  0  0  0  0  0  0  0  0  0  0  0
  -27.0228    8.2382    4.4057 C   0  0  0  0  0  0  0  0  0  0  0  0
  -26.3071    9.6655    4.2479 C   0  0  0  0  0  0  0  0  0  0  0  0
  -25.5748    6.7558    4.6478 H   0  0  0  0  0  0  0  0  0  0  0  0
  -24.7032   11.2811    1.5298 C   0  0  0  0  0  0  0  0  0  0  0  0
  -23.5751   11.9847    1.0426 C   0  0  0  0  0  0  0  0  0  0  0  0
  -23.7183   13.0526    0.2481 N   0  0  0  0  0  0  0  0  0  0  0  0
  -22.5471   13.7355   -0.1823 C   0  0  0  0  0  0  0  0  0  0  0  0
  -21.2839   13.3939    0.1557 N   0  0  0  0  0  0  0  0  0  0  0  0
  -21.1199   12.2714    0.9513 C   0  0  0  0  0  0  0  0  0  0  0  0
  -19.9680   11.9352    1.3198 O   0  0  0  0  0  0  0  0  0  0  0  0
  -22.2704   11.5733    1.3716 C   0  0  0  0  0  0  0  0  0  0  0  0
  -22.1593   10.4523    2.2203 C   0  0  0  0  0  0  0  0  0  0  0  0
  -23.2989    9.7632    2.6871 C   0  0  0  0  0  0  0  0  0  0  0  0
  -24.5991   10.1533    2.3042 C   0  0  0  0  0  0  0  0  0  0  0  0
  -20.5113   13.9214   -0.1510 H   0  0  0  0  0  0  0  0  0  0  0  0
  -27.4094   10.7513    4.4535 C   0  0  0  0  0  0  0  0  0  0  0  0
  -27.0889   11.8132    4.9789 O   0  0  0  0  0  0  0  0  0  0  0  0
  -28.7286   10.5206    3.9962 C   0  0  0  0  0  0  0  0  0  0  0  0
  -29.8371   10.5117    4.8575 C   0  0  0  0  0  0  0  0  0  0  0  0
  -31.1187   10.2745    4.3187 C   0  0  0  0  0  0  0  0  0  0  0  0
  -32.3949   10.1959    5.2394 Cl  0  0  0  0  0  0  0  0  0  0  0  0
  -31.3788   10.0848    2.9783 C   0  0  0  0  0  0  0  0  0  0  0  0
  -30.2960   10.1059    2.1067 C   0  0  0  0  0  0  0  0  0  0  0  0
  -29.0144   10.3453    2.6398 C   0  0  0  0  0  0  0  0  0  0  0  0
  7  8  1  0  0  0
  7 17  2  0  0  0
  8  9  1  0  0  0
  8 14  2  0  0  0
  9 10  2  0  0  0
 10 11  1  0  0  0
 11 12  1  0  0  0
 12 13  2  0  0  0
 12 14  1  0  0  0
 14 15  1  0  0  0
 15 16  2  0  0  0
 16 17  1  0  0  0
 17  1  1  0  0  0
  1  2  1  0  0  0
  1  5  1  0  0  0
  2  3  1  0  0  0
  3  4  1  0  0  0
  4  5  1  0  0  0
  5 19  1  0  0  0
 19 20  2  0  0  0
 19 21  1  0  0  0
 21 22  1  0  0  0
 21 27  2  0  0  0
 22 23  2  0  0  0
 23 24  1  0  0  0
 23 25  1  0  0  0
 25 26  2  0  0  0
 26 27  1  0  0  0
 11 18  1  0  0  0
  3  6  1  0  0  0
M  END
> <minimizedAffinity>
-10.10201

$$$$
4UJ1_NVX_A_1351


 27 30  0  0  0  0  0  0  0  0999 V2000
  -26.5411    9.1473    3.8361 C   0  0  0  0  0  0  0  0  0  0  0  0
  -26.5514    7.5533    3.5117 C   0  0  0  0  0  0  0  0  0  0  0  0
  -25.1430    7.1796    3.2219 N   0  0  0  0  0  0  0  0  0  0  0  0
  -24.4093    8.4799    3.1141 C   0  0  0  0  0  0  0  0  0  0  0  0
  -25.5014    9.6199    2.8277 C   0  0  0  0  0  0  0  0  0  0  0  0
  -25.0831    6.6609    2.3458 H   0  0  0  0  0  0  0  0  0  0  0  0
  -28.6729    9.3600    2.5702 C   0  0  0  0  0  0  0  0  0  0  0  0
  -30.0650    9.6075    2.4958 C   0  0  0  0  0  0  0  0  0  0  0  0
  -30.7115    9.5660    1.3243 N   0  0  0  0  0  0  0  0  0  0  0  0
  -32.1158    9.7922    1.3200 C   0  0  0  0  0  0  0  0  0  0  0  0
  -32.8627   10.0421    2.4183 N   0  0  0  0  0  0  0  0  0  0  0  0
  -32.2010   10.1197    3.6332 C   0  0  0  0  0  0  0  0  0  0  0  0
  -32.8570   10.3152    4.6854 O   0  0  0  0  0  0  0  0  0  0  0  0
  -30.8062    9.9153    3.6515 C   0  0  0  0  0  0  0  0  0  0  0  0
  -30.0938    9.9377    4.8686 C   0  0  0  0  0  0  0  0  0  0  0  0
  -28.7044    9.6947    4.9160 C   0  0  0  0  0  0  0  0  0  0  0  0
  -27.9642    9.4423    3.7422 C   0  0  0  0  0  0  0  0  0  0  0  0
  -33.8377   10.1641    2.3576 H   0  0  0  0  0  0  0  0  0  0  0  0
  -24.7989   10.9925    3.0695 C   0  0  0  0  0  0  0  0  0  0  0  0
  -25.3575   11.8124    3.7922 O   0  0  0  0  0  0  0  0  0  0  0  0
  -23.5284   11.2507    2.5022 C   0  0  0  0  0  0  0  0  0  0  0  0
  -22.3332   10.8073    3.0901 C   0  0  0  0  0  0  0  0  0  0  0  0
  -21.1088   11.1073    2.4577 C   0  0  0  0  0  0  0  0  0  0  0  0
  -19.7306   10.6873    3.0956 Cl  0  0  0  0  0  0  0  0  0  0  0  0
  -20.9932   11.7831    1.2618 C   0  0  0  0  0  0  0  0  0  0  0  0
  -22.1665   12.2168    0.6554 C   0  0  0  0  0  0  0  0  0  0  0  0
  -23.3920   11.9170    1.2817 C   0  0  0  0  0  0  0  0  0  0  0  0
  7  8  1  0  0  0
  7 17  2  0  0  0
  8  9  1  0  0  0
  8 14  2  0  0  0
  9 10  2  0  0  0
 10 11  1  0  0  0
 11 12  1  0  0  0
 12 13  2  0  0  0
 12 14  1  0  0  0
 14 15  1  0  0  0
 15 16  2  0  0  0
 16 17  1  0  0  0
 17  1  1  0  0  0
  1  2  1  0  0  0
  1  5  1  0  0  0
  2  3  1  0  0  0
  3  4  1  0  0  0
  4  5  1  0  0  0
  5 19  1  0  0  0
 19 20  2  0  0  0
 19 21  1  0  0  0
 21 22  1  0  0  0
 21 27  2  0  0  0
 22 23  2  0  0  0
 23 24  1  0  0  0
 23 25  1  0  0  0
 25 26  2  0  0  0
 26 27  1  0  0  0
 11 18  1  0  0  0
  3  6  1  0  0  0
M  END
> <minimizedAffinity>
-9.92097

$$$$
4UJ1_NVX_A_1351


 27 30  0  0  0  0  0  0  0  0999 V2000
  -24.4310   10.7822    3.6624 C   0  0  0  0  0  0  0  0  0  0  0  0
  -23.9778    9.4252    4.4366 C   0  0  0  0  0  0  0  0  0  0  0  0
  -22.4924    9.4104    4.4130 N   0  0  0  0  0  0  0  0  0  0  0  0
  -22.1068   10.5112    3.4748 C   0  0  0  0  0  0  0  0  0  0  0  0
  -23.3846   10.8224    2.5559 C   0  0  0  0  0  0  0  0  0  0  0  0
  -22.1485    8.5126    4.0724 H   0  0  0  0  0  0  0  0  0  0  0  0
  -26.8129   10.7426    4.3818 C   0  0  0  0  0  0  0  0  0  0  0  0
  -28.1882   10.5035    4.1447 C   0  0  0  0  0  0  0  0  0  0  0  0
  -29.0993   10.7072    5.1041 N   0  0  0  0  0  0  0  0  0  0  0  0
  -30.4687   10.4792    4.7937 C   0  0  0  0  0  0  0  0  0  0  0  0
  -30.9325   10.0748    3.5904 N   0  0  0  0  0  0  0  0  0  0  0  0
  -29.9971    9.8292    2.5981 C   0  0  0  0  0  0  0  0  0  0  0  0
  -30.3823    9.4854    1.4540 O   0  0  0  0  0  0  0  0  0  0  0  0
  -28.6343   10.0337    2.8957 C   0  0  0  0  0  0  0  0  0  0  0  0
  -27.6475    9.8426    1.9062 C   0  0  0  0  0  0  0  0  0  0  0  0
  -26.2816   10.0811    2.1692 C   0  0  0  0  0  0  0  0  0  0  0  0
  -25.8426   10.4987    3.4429 C   0  0  0  0  0  0  0  0  0  0  0  0
  -31.8962    9.9593    3.4256 H   0  0  0  0  0  0  0  0  0  0  0  0
  -23.1088   12.1817    1.8401 C   0  0  0  0  0  0  0  0  0  0  0  0
  -23.2198   13.2154    2.4925 O   0  0  0  0  0  0  0  0  0  0  0  0
  -22.6953   12.2017    0.4869 C   0  0  0  0  0  0  0  0  0  0  0  0
  -22.5999   11.0378   -0.2922 C   0  0  0  0  0  0  0  0  0  0  0  0
  -22.1800   11.1470   -1.6342 C   0  0  0  0  0  0  0  0  0  0  0  0
  -21.9984    9.8733   -2.5439 Cl  0  0  0  0  0  0  0  0  0  0  0  0
  -21.8864   12.3366   -2.2657 C   0  0  0  0  0  0  0  0  0  0  0  0
  -21.9902   13.5024   -1.5156 C   0  0  0  0  0  0  0  0  0  0  0  0
  -22.4120   13.3987   -0.1756 C   0  0  0  0  0  0  0  0  0  0  0  0
  7  8  1  0  0  0
  7 17  2  0  0  0
  8  9  1  0  0  0
  8 14  2  0  0  0
  9 10  2  0  0  0
 10 11  1  0  0  0
 11 12  1  0  0  0
 12 13  2  0  0  0
 12 14  1  0  0  0
 14 15  1  0  0  0
 15 16  2  0  0  0
 16 17  1  0  0  0
 17  1  1  0  0  0
  1  2  1  0  0  0
  1  5  1  0  0  0
  2  3  1  0  0  0
  3  4  1  0  0  0
  4  5  1  0  0  0
  5 19  1  0  0  0
 19 20  2  0  0  0
 19 21  1  0  0  0
 21 22  1  0  0  0
 21 27  2  0  0  0
 22 23  2  0  0  0
 23 24  1  0  0  0
 23 25  1  0  0  0
 25 26  2  0  0  0
 26 27  1  0  0  0
 11 18  1  0  0  0
  3  6  1  0  0  0
M  END
> <minimizedAffinity>
-9.91565

$$$$
4UJ1_NVX_A_1351


 27 30  0  0  0  0  0  0  0  0999 V2000
  -25.9862    9.2821    3.0947 C   0  0  0  0  0  0  0  0  0  0  0  0
  -25.5404    7.7210    3.1984 C   0  0  0  0  0  0  0  0  0  0  0  0
  -26.6548    7.0159    3.8827 N   0  0  0  0  0  0  0  0  0  0  0  0
  -27.5542    8.1026    4.3835 C   0  0  0  0  0  0  0  0  0  0  0  0
  -26.6866    9.4512    4.4370 C   0  0  0  0  0  0  0  0  0  0  0  0
  -26.3016    6.4570    4.6594 H   0  0  0  0  0  0  0  0  0  0  0  0
  -23.5600    9.1759    2.5517 C   0  0  0  0  0  0  0  0  0  0  0  0
  -22.3329    9.7771    2.1807 C   0  0  0  0  0  0  0  0  0  0  0  0
  -21.2208    9.0454    2.0401 N   0  0  0  0  0  0  0  0  0  0  0  0
  -20.0268    9.7035    1.6343 C   0  0  0  0  0  0  0  0  0  0  0  0
  -19.9232   11.0245    1.3686 N   0  0  0  0  0  0  0  0  0  0  0  0
  -21.0592   11.7989    1.5415 C   0  0  0  0  0  0  0  0  0  0  0  0
  -21.0209   13.0247    1.2737 O   0  0  0  0  0  0  0  0  0  0  0  0
  -22.2463   11.1641    1.9603 C   0  0  0  0  0  0  0  0  0  0  0  0
  -23.4406   11.9002    2.1057 C   0  0  0  0  0  0  0  0  0  0  0  0
  -24.6500   11.2789    2.4835 C   0  0  0  0  0  0  0  0  0  0  0  0
  -24.7098    9.8962    2.7554 C   0  0  0  0  0  0  0  0  0  0  0  0
  -19.0748   11.4207    1.0645 H   0  0  0  0  0  0  0  0  0  0  0  0
  -27.6929   10.6318    4.6088 C   0  0  0  0  0  0  0  0  0  0  0  0
  -27.2629   11.7086    5.0115 O   0  0  0  0  0  0  0  0  0  0  0  0
  -29.0537   10.4629    4.2588 C   0  0  0  0  0  0  0  0  0  0  0  0
  -29.4782   10.2959    2.9313 C   0  0  0  0  0  0  0  0  0  0  0  0
  -30.8545   10.1327    2.6698 C   0  0  0  0  0  0  0  0  0  0  0  0
  -31.4004    9.9975    1.1980 Cl  0  0  0  0  0  0  0  0  0  0  0  0
  -31.8327   10.0846    3.6399 C   0  0  0  0  0  0  0  0  0  0  0  0
  -31.4308   10.2321    4.9625 C   0  0  0  0  0  0  0  0  0  0  0  0
  -30.0569   10.3924    5.2288 C   0  0  0  0  0  0  0  0  0  0  0  0
  7  8  1  0  0  0
  7 17  2  0  0  0
  8  9  1  0  0  0
  8 14  2  0  0  0
  9 10  2  0  0  0
 10 11  1  0  0  0
 11 12  1  0  0  0
 12 13  2  0  0  0
 12 14  1  0  0  0
 14 15  1  0  0  0
 15 16  2  0  0  0
 16 17  1  0  0  0
 17  1  1  0  0  0
  1  2  1  0  0  0
  1  5  1  0  0  0
  2  3  1  0  0  0
  3  4  1  0  0  0
  4  5  1  0  0  0
  5 19  1  0  0  0
 19 20  2  0  0  0
 19 21  1  0  0  0
 21 22  1  0  0  0
 21 27  2  0  0  0
 22 23  2  0  0  0
 23 24  1  0  0  0
 23 25  1  0  0  0
 25 26  2  0  0  0
 26 27  1  0  0  0
 11 18  1  0  0  0
  3  6  1  0  0  0
M  END
> <minimizedAffinity>
-9.81690

$$$$
4UJ1_NVX_A_1351


 27 30  0  0  0  0  0  0  0  0999 V2000
  -22.8398    9.3498    2.4391 C   0  0  0  0  0  0  0  0  0  0  0  0
  -21.7321   10.3828    3.0326 C   0  0  0  0  0  0  0  0  0  0  0  0
  -22.1131   10.6324    4.4467 N   0  0  0  0  0  0  0  0  0  0  0  0
  -23.4720   10.0232    4.5973 C   0  0  0  0  0  0  0  0  0  0  0  0
  -24.0936    9.8771    3.1254 C   0  0  0  0  0  0  0  0  0  0  0  0
  -22.1465   11.6339    4.6371 H   0  0  0  0  0  0  0  0  0  0  0  0
  -22.1829    8.4201    0.2263 C   0  0  0  0  0  0  0  0  0  0  0  0
  -21.9684    8.5404   -1.1681 C   0  0  0  0  0  0  0  0  0  0  0  0
  -21.5375    7.5002   -1.8922 N   0  0  0  0  0  0  0  0  0  0  0  0
  -21.3721    7.6759   -3.2940 C   0  0  0  0  0  0  0  0  0  0  0  0
  -21.6245    8.8213   -3.9654 N   0  0  0  0  0  0  0  0  0  0  0  0
  -22.0403    9.9151   -3.2233 C   0  0  0  0  0  0  0  0  0  0  0  0
  -22.3202   10.9905   -3.8071 O   0  0  0  0  0  0  0  0  0  0  0  0
  -22.1921    9.7617   -1.8301 C   0  0  0  0  0  0  0  0  0  0  0  0
  -22.6573   10.8313   -1.0371 C   0  0  0  0  0  0  0  0  0  0  0  0
  -22.8564   10.6886    0.3527 C   0  0  0  0  0  0  0  0  0  0  0  0
  -22.5750    9.4741    1.0124 C   0  0  0  0  0  0  0  0  0  0  0  0
  -21.5174    8.8763   -4.9425 H   0  0  0  0  0  0  0  0  0  0  0  0
  -25.3300    8.9323    3.2465 C   0  0  0  0  0  0  0  0  0  0  0  0
  -25.1575    7.7264    3.0960 O   0  0  0  0  0  0  0  0  0  0  0  0
  -26.6014    9.4630    3.5700 C   0  0  0  0  0  0  0  0  0  0  0  0
  -27.6162    9.6313    2.6148 C   0  0  0  0  0  0  0  0  0  0  0  0
  -28.8556   10.1670    3.0224 C   0  0  0  0  0  0  0  0  0  0  0  0
  -30.0149   10.4330    1.9890 Cl  0  0  0  0  0  0  0  0  0  0  0  0
  -29.1685   10.5099    4.3204 C   0  0  0  0  0  0  0  0  0  0  0  0
  -28.1821   10.3358    5.2843 C   0  0  0  0  0  0  0  0  0  0  0  0
  -26.9436    9.7983    4.8825 C   0  0  0  0  0  0  0  0  0  0  0  0
  7  8  1  0  0  0
  7 17  2  0  0  0
  8  9  1  0  0  0
  8 14  2  0  0  0
  9 10  2  0  0  0
 10 11  1  0  0  0
 11 12  1  0  0  0
 12 13  2  0  0  0
 12 14  1  0  0  0
 14 15  1  0  0  0
 15 16  2  0  0  0
 16 17  1  0  0  0
 17  1  1  0  0  0
  1  2  1  0  0  0
  1  5  1  0  0  0
  2  3  1  0  0  0
  3  4  1  0  0  0
  4  5  1  0  0  0
  5 19  1  0  0  0
 19 20  2  0  0  0
 19 21  1  0  0  0
 21 22  1  0  0  0
 21 27  2  0  0  0
 22 23  2  0  0  0
 23 24  1  0  0  0
 23 25  1  0  0  0
 25 26  2  0  0  0
 26 27  1  0  0  0
 11 18  1  0  0  0
  3  6  1  0  0  0
M  END
> <minimizedAffinity>
-9.78050

$$$$
4UJ1_NVX_A_1351


 27 30  0  0  0  0  0  0  0  0999 V2000
  -23.4676    9.9414    2.7056 C   0  0  0  0  0  0  0  0  0  0  0  0
  -22.8984   11.4444    2.4535 C   0  0  0  0  0  0  0  0  0  0  0  0
  -23.9096   12.3719    3.0230 N   0  0  0  0  0  0  0  0  0  0  0  0
  -25.0943   11.5122    3.3359 C   0  0  0  0  0  0  0  0  0  0  0  0
  -24.9539   10.1730    2.4636 C   0  0  0  0  0  0  0  0  0  0  0  0
  -24.1585   13.0912    2.3439 H   0  0  0  0  0  0  0  0  0  0  0  0
  -22.6014    9.3424    0.4510 C   0  0  0  0  0  0  0  0  0  0  0  0
  -21.7275    8.6298   -0.4053 C   0  0  0  0  0  0  0  0  0  0  0  0
  -21.7913    8.7778   -1.7343 N   0  0  0  0  0  0  0  0  0  0  0  0
  -20.8647    8.0584   -2.5387 C   0  0  0  0  0  0  0  0  0  0  0  0
  -19.9069    7.2313   -2.0642 N   0  0  0  0  0  0  0  0  0  0  0  0
  -19.8507    7.0443   -0.6924 C   0  0  0  0  0  0  0  0  0  0  0  0
  -18.9562    6.3126   -0.2023 O   0  0  0  0  0  0  0  0  0  0  0  0
  -20.7740    7.7368    0.1173 C   0  0  0  0  0  0  0  0  0  0  0  0
  -20.7280    7.6164    1.5218 C   0  0  0  0  0  0  0  0  0  0  0  0
  -21.6149    8.3321    2.3541 C   0  0  0  0  0  0  0  0  0  0  0  0
  -22.6027    9.1815    1.8137 C   0  0  0  0  0  0  0  0  0  0  0  0
  -19.2745    6.7800   -2.6688 H   0  0  0  0  0  0  0  0  0  0  0  0
  -25.9727    9.1435    3.0451 C   0  0  0  0  0  0  0  0  0  0  0  0
  -25.5889    7.9949    3.2452 O   0  0  0  0  0  0  0  0  0  0  0  0
  -27.2873    9.5520    3.3734 C   0  0  0  0  0  0  0  0  0  0  0  0
  -28.2708    9.7894    2.4003 C   0  0  0  0  0  0  0  0  0  0  0  0
  -29.5572   10.1932    2.8140 C   0  0  0  0  0  0  0  0  0  0  0  0
  -30.6878   10.5297    1.7693 Cl  0  0  0  0  0  0  0  0  0  0  0  0
  -29.9441   10.3391    4.1290 C   0  0  0  0  0  0  0  0  0  0  0  0
  -28.9888   10.0931    5.1085 C   0  0  0  0  0  0  0  0  0  0  0  0
  -27.7034    9.6866    4.7003 C   0  0  0  0  0  0  0  0  0  0  0  0
  7  8  1  0  0  0
  7 17  2  0  0  0
  8  9  1  0  0  0
  8 14  2  0  0  0
  9 10  2  0  0  0
 10 11  1  0  0  0
 11 12  1  0  0  0
 12 13  2  0  0  0
 12 14  1  0  0  0
 14 15  1  0  0  0
 15 16  2  0  0  0
 16 17  1  0  0  0
 17  1  1  0  0  0
  1  2  1  0  0  0
  1  5  1  0  0  0
  2  3  1  0  0  0
  3  4  1  0  0  0
  4  5  1  0  0  0
  5 19  1  0  0  0
 19 20  2  0  0  0
 19 21  1  0  0  0
 21 22  1  0  0  0
 21 27  2  0  0  0
 22 23  2  0  0  0
 23 24  1  0  0  0
 23 25  1  0  0  0
 25 26  2  0  0  0
 26 27  1  0  0  0
 11 18  1  0  0  0
  3  6  1  0  0  0
M  END
> <minimizedAffinity>
-9.75508

$$$$
4UJ1_NVX_A_1351


 27 30  0  0  0  0  0  0  0  0999 V2000
  -24.8655   10.3376    2.6368 C   0  0  0  0  0  0  0  0  0  0  0  0
  -24.4709   11.8959    2.8863 C   0  0  0  0  0  0  0  0  0  0  0  0
  -22.9877   11.9421    2.9575 N   0  0  0  0  0  0  0  0  0  0  0  0
  -22.5559   10.5103    3.0201 C   0  0  0  0  0  0  0  0  0  0  0  0
  -23.8208    9.6530    3.5093 C   0  0  0  0  0  0  0  0  0  0  0  0
  -22.6847   12.4445    3.7918 H   0  0  0  0  0  0  0  0  0  0  0  0
  -27.2645   10.1088    2.0167 C   0  0  0  0  0  0  0  0  0  0  0  0
  -28.6446   10.1070    2.3337 C   0  0  0  0  0  0  0  0  0  0  0  0
  -29.5689    9.8907    1.3898 N   0  0  0  0  0  0  0  0  0  0  0  0
  -30.9373    9.8697    1.7776 C   0  0  0  0  0  0  0  0  0  0  0  0
  -31.3867   10.0457    3.0400 N   0  0  0  0  0  0  0  0  0  0  0  0
  -30.4426   10.3026    4.0211 C   0  0  0  0  0  0  0  0  0  0  0  0
  -30.8089   10.4384    5.2140 O   0  0  0  0  0  0  0  0  0  0  0  0
  -29.0833   10.3441    3.6494 C   0  0  0  0  0  0  0  0  0  0  0  0
  -28.0807   10.5556    4.6186 C   0  0  0  0  0  0  0  0  0  0  0  0
  -26.7116   10.5598    4.2765 C   0  0  0  0  0  0  0  0  0  0  0  0
  -26.2887   10.3761    2.9435 C   0  0  0  0  0  0  0  0  0  0  0  0
  -32.3463    9.9936    3.2538 H   0  0  0  0  0  0  0  0  0  0  0  0
  -23.4868    8.1535    3.2339 C   0  0  0  0  0  0  0  0  0  0  0  0
  -24.4055    7.4001    2.9258 O   0  0  0  0  0  0  0  0  0  0  0  0
  -22.1474    7.7006    3.2946 C   0  0  0  0  0  0  0  0  0  0  0  0
  -21.2885    7.7282    2.1846 C   0  0  0  0  0  0  0  0  0  0  0  0
  -19.9669    7.2583    2.3320 C   0  0  0  0  0  0  0  0  0  0  0  0
  -18.9716    7.2103    1.1114 Cl  0  0  0  0  0  0  0  0  0  0  0  0
  -19.4291    6.7999    3.5155 C   0  0  0  0  0  0  0  0  0  0  0  0
  -20.2591    6.7796    4.6305 C   0  0  0  0  0  0  0  0  0  0  0  0
  -21.5790    7.2507    4.4890 C   0  0  0  0  0  0  0  0  0  0  0  0
  7  8  1  0  0  0
  7 17  2  0  0  0
  8  9  1  0  0  0
  8 14  2  0  0  0
  9 10  2  0  0  0
 10 11  1  0  0  0
 11 12  1  0  0  0
 12 13  2  0  0  0
 12 14  1  0  0  0
 14 15  1  0  0  0
 15 16  2  0  0  0
 16 17  1  0  0  0
 17  1  1  0  0  0
  1  2  1  0  0  0
  1  5  1  0  0  0
  2  3  1  0  0  0
  3  4  1  0  0  0
  4  5  1  0  0  0
  5 19  1  0  0  0
 19 20  2  0  0  0
 19 21  1  0  0  0
 21 22  1  0  0  0
 21 27  2  0  0  0
 22 23  2  0  0  0
 23 24  1  0  0  0
 23 25  1  0  0  0
 25 26  2  0  0  0
 26 27  1  0  0  0
 11 18  1  0  0  0
  3  6  1  0  0  0
M  END
> <minimizedAffinity>
-9.74178

$$$$
4UJ1_NVX_A_1351


 27 30  0  0  0  0  0  0  0  0999 V2000
  -26.3116    9.4623    3.5903 C   0  0  0  0  0  0  0  0  0  0  0  0
  -26.2104    7.8627    3.8685 C   0  0  0  0  0  0  0  0  0  0  0  0
  -24.7636    7.5266    3.8360 N   0  0  0  0  0  0  0  0  0  0  0  0
  -24.0894    8.7573    3.3150 C   0  0  0  0  0  0  0  0  0  0  0  0
  -25.2049    9.6256    2.5560 C   0  0  0  0  0  0  0  0  0  0  0  0
  -24.5937    6.7351    3.2155 H   0  0  0  0  0  0  0  0  0  0  0  0
  -28.6935    9.7158    4.2646 C   0  0  0  0  0  0  0  0  0  0  0  0
  -30.0681    9.8786    3.9667 C   0  0  0  0  0  0  0  0  0  0  0  0
  -30.9817    9.9509    4.9426 N   0  0  0  0  0  0  0  0  0  0  0  0
  -32.3430   10.1468    4.5795 C   0  0  0  0  0  0  0  0  0  0  0  0
  -32.7952   10.2747    3.3123 N   0  0  0  0  0  0  0  0  0  0  0  0
  -31.8645   10.1694    2.2912 C   0  0  0  0  0  0  0  0  0  0  0  0
  -32.2315   10.3161    1.0999 O   0  0  0  0  0  0  0  0  0  0  0  0
  -30.5136    9.9576    2.6344 C   0  0  0  0  0  0  0  0  0  0  0  0
  -29.5214    9.8901    1.6341 C   0  0  0  0  0  0  0  0  0  0  0  0
  -28.1580    9.7202    1.9562 C   0  0  0  0  0  0  0  0  0  0  0  0
  -27.7322    9.5866    3.2942 C   0  0  0  0  0  0  0  0  0  0  0  0
  -33.7476   10.4362    3.1224 H   0  0  0  0  0  0  0  0  0  0  0  0
  -24.5990   11.0462    2.3311 C   0  0  0  0  0  0  0  0  0  0  0  0
  -24.7287   11.8814    3.2211 O   0  0  0  0  0  0  0  0  0  0  0  0
  -23.8795   11.3329    1.1467 C   0  0  0  0  0  0  0  0  0  0  0  0
  -23.5795   12.6433    0.7423 C   0  0  0  0  0  0  0  0  0  0  0  0
  -22.8566   12.8406   -0.4526 C   0  0  0  0  0  0  0  0  0  0  0  0
  -22.5374   14.2870   -0.9900 Cl  0  0  0  0  0  0  0  0  0  0  0  0
  -22.3780   11.8245   -1.2519 C   0  0  0  0  0  0  0  0  0  0  0  0
  -22.6510   10.5190   -0.8601 C   0  0  0  0  0  0  0  0  0  0  0  0
  -23.3701   10.3169    0.3341 C   0  0  0  0  0  0  0  0  0  0  0  0
  7  8  1  0  0  0
  7 17  2  0  0  0
  8  9  1  0  0  0
  8 14  2  0  0  0
  9 10  2  0  0  0
 10 11  1  0  0  0
 11 12  1  0  0  0
 12 13  2  0  0  0
 12 14  1  0  0  0
 14 15  1  0  0  0
 15 16  2  0  0  0
 16 17  1  0  0  0
 17  1  1  0  0  0
  1  2  1  0  0  0
  1  5  1  0  0  0
  2  3  1  0  0  0
  3  4  1  0  0  0
  4  5  1  0  0  0
  5 19  1  0  0  0
 19 20  2  0  0  0
 19 21  1  0  0  0
 21 22  1  0  0  0
 21 27  2  0  0  0
 22 23  2  0  0  0
 23 24  1  0  0  0
 23 25  1  0  0  0
 25 26  2  0  0  0
 26 27  1  0  0  0
 11 18  1  0  0  0
  3  6  1  0  0  0
M  END
> <minimizedAffinity>
-9.70145

$$$$
4UJ1_NVX_A_1351


 27 30  0  0  0  0  0  0  0  0999 V2000
  -23.4110   10.2761    1.7830 C   0  0  0  0  0  0  0  0  0  0  0  0
  -22.7476   11.7604    1.8368 C   0  0  0  0  0  0  0  0  0  0  0  0
  -23.4865   12.5073    2.8873 N   0  0  0  0  0  0  0  0  0  0  0  0
  -24.6568   11.6400    3.2316 C   0  0  0  0  0  0  0  0  0  0  0  0
  -24.8763   10.6285    2.0056 C   0  0  0  0  0  0  0  0  0  0  0  0
  -23.8019   13.4093    2.5306 H   0  0  0  0  0  0  0  0  0  0  0  0
  -22.8556   10.5445   -0.6278 C   0  0  0  0  0  0  0  0  0  0  0  0
  -22.2885   10.0833   -1.8405 C   0  0  0  0  0  0  0  0  0  0  0  0
  -22.3398   10.8266   -2.9527 N   0  0  0  0  0  0  0  0  0  0  0  0
  -21.7236   10.3214   -4.1310 C   0  0  0  0  0  0  0  0  0  0  0  0
  -21.0753    9.1388   -4.2191 N   0  0  0  0  0  0  0  0  0  0  0  0
  -21.0427    8.3453   -3.0838 C   0  0  0  0  0  0  0  0  0  0  0  0
  -20.4225    7.2542   -3.1072 O   0  0  0  0  0  0  0  0  0  0  0  0
  -21.6643    8.8243   -1.9126 C   0  0  0  0  0  0  0  0  0  0  0  0
  -21.6185    8.0753   -0.7183 C   0  0  0  0  0  0  0  0  0  0  0  0
  -22.1977    8.5537    0.4764 C   0  0  0  0  0  0  0  0  0  0  0  0
  -22.8689    9.7933    0.5203 C   0  0  0  0  0  0  0  0  0  0  0  0
  -20.6435    8.8528   -5.0564 H   0  0  0  0  0  0  0  0  0  0  0  0
  -25.8437    9.5109    2.5068 C   0  0  0  0  0  0  0  0  0  0  0  0
  -25.3579    8.4539    2.8983 O   0  0  0  0  0  0  0  0  0  0  0  0
  -27.2389    9.7440    2.5480 C   0  0  0  0  0  0  0  0  0  0  0  0
  -27.9592    9.8129    3.7509 C   0  0  0  0  0  0  0  0  0  0  0  0
  -29.3486   10.0501    3.7023 C   0  0  0  0  0  0  0  0  0  0  0  0
  -30.2225   10.0824    5.0130 Cl  0  0  0  0  0  0  0  0  0  0  0  0
  -30.0639   10.2624    2.5431 C   0  0  0  0  0  0  0  0  0  0  0  0
  -29.3658   10.2140    1.3420 C   0  0  0  0  0  0  0  0  0  0  0  0
  -27.9774    9.9803    1.3857 C   0  0  0  0  0  0  0  0  0  0  0  0
  7  8  1  0  0  0
  7 17  2  0  0  0
  8  9  1  0  0  0
  8 14  2  0  0  0
  9 10  2  0  0  0
 10 11  1  0  0  0
 11 12  1  0  0  0
 12 13  2  0  0  0
 12 14  1  0  0  0
 14 15  1  0  0  0
 15 16  2  0  0  0
 16 17  1  0  0  0
 17  1  1  0  0  0
  1  2  1  0  0  0
  1  5  1  0  0  0
  2  3  1  0  0  0
  3  4  1  0  0  0
  4  5  1  0  0  0
  5 19  1  0  0  0
 19 20  2  0  0  0
 19 21  1  0  0  0
 21 22  1  0  0  0
 21 27  2  0  0  0
 22 23  2  0  0  0
 23 24  1  0  0  0
 23 25  1  0  0  0
 25 26  2  0  0  0
 26 27  1  0  0  0
 11 18  1  0  0  0
  3  6  1  0  0  0
M  END
> <minimizedAffinity>
-9.68490

$$$$
