1PXO_CK7_A_500


 26 28  0  0  0  0  0  0  0  0999 V2000
   11.1145   -9.7909   11.1953 C   0  0  0  0  0  0  0  0  0  0  0  0
   12.2059   -9.0162   10.8874 N   0  0  0  0  0  0  0  0  0  0  0  0
   10.9394  -10.3170   12.4658 C   0  0  0  0  0  0  0  0  0  0  0  0
   11.9567  -10.0724   13.3459 C   0  0  0  0  0  0  0  0  0  0  0  0
   13.0397   -9.3261   12.9709 N   0  0  0  0  0  0  0  0  0  0  0  0
   13.1614   -8.7745   11.7811 C   0  0  0  0  0  0  0  0  0  0  0  0
    8.8897   -8.8469    6.7310 N   0  0  0  0  0  0  0  0  0  0  0  0
    9.1877   -9.6667    7.9449 C   0  0  0  0  0  0  0  0  0  0  0  0
    8.8290  -10.8972    8.3816 N   0  0  0  0  0  0  0  0  0  0  0  0
    9.3706  -11.2458    9.6023 C   0  0  0  0  0  0  0  0  0  0  0  0
    9.0923  -12.5792   10.2325 C   0  0  0  0  0  0  0  0  0  0  0  0
   10.1569   -8.7962    8.9915 S   0  0  0  0  0  0  0  0  0  0  0  0
   10.1168  -10.0155   10.1157 C   0  0  0  0  0  0  0  0  0  0  0  0
    8.3272   -9.2172    6.0128 H   0  0  0  0  0  0  0  0  0  0  0  0
    9.2560   -7.9367    6.6496 H   0  0  0  0  0  0  0  0  0  0  0  0
   14.2610   -8.0696   11.5989 N   0  0  0  0  0  0  0  0  0  0  0  0
   15.0639   -8.2655   12.1338 H   0  0  0  0  0  0  0  0  0  0  0  0
   14.2913   -6.9960   10.6028 C   0  0  0  0  0  0  0  0  0  0  0  0
   13.7682   -5.7080   10.9072 C   0  0  0  0  0  0  0  0  0  0  0  0
   14.8843   -7.1460    9.3075 C   0  0  0  0  0  0  0  0  0  0  0  0
   14.9625   -6.0902    8.3394 C   0  0  0  0  0  0  0  0  0  0  0  0
   14.4244   -4.8387    8.6684 C   0  0  0  0  0  0  0  0  0  0  0  0
   13.8523   -4.6469    9.9499 C   0  0  0  0  0  0  0  0  0  0  0  0
   15.5352   -6.1785    7.0631 N   0  0  0  0  0  0  0  0  0  0  0  0
   14.8306   -6.0393    6.0389 O   0  0  0  0  0  0  0  0  0  0  0  0
   16.7622   -6.3949    6.9477 O   0  0  0  0  0  0  0  0  0  0  0  0
  7  8  1  0  0  0
  8  9  2  0  0  0
  8 12  1  0  0  0
  9 10  1  0  0  0
 10 11  1  0  0  0
 10 13  2  0  0  0
 12 13  1  0  0  0
 13  1  1  0  0  0
  1  2  2  0  0  0
  1  3  1  0  0  0
  2  6  1  0  0  0
  3  4  2  0  0  0
  4  5  1  0  0  0
  5  6  2  0  0  0
  6 16  1  0  0  0
 16 18  1  0  0  0
 18 19  2  0  0  0
 18 20  1  0  0  0
 19 23  1  0  0  0
 20 21  2  0  0  0
 21 24  1  0  0  0
 21 22  1  0  0  0
 24 25  1  0  0  0
 24 26  2  0  0  0
 22 23  2  0  0  0
  7 14  1  0  0  0
  7 15  1  0  0  0
 16 17  1  0  0  0
M  CHG 1  24   1
M  CHG 1  25  -1
M  END
> <minimizedAffinity>
-8.77645

$$$$
1PXO_CK7_A_500


 26 28  0  0  0  0  0  0  0  0999 V2000
   13.5972   -7.8254   11.6666 C   0  0  0  0  0  0  0  0  0  0  0  0
   14.3128   -7.3844   10.5805 N   0  0  0  0  0  0  0  0  0  0  0  0
   13.9801   -7.5060   12.9600 C   0  0  0  0  0  0  0  0  0  0  0  0
   15.1447   -6.7976   13.0677 C   0  0  0  0  0  0  0  0  0  0  0  0
   15.8370   -6.4189   11.9506 N   0  0  0  0  0  0  0  0  0  0  0  0
   15.4260   -6.6701   10.7248 C   0  0  0  0  0  0  0  0  0  0  0  0
   10.1772  -10.1116    8.6921 N   0  0  0  0  0  0  0  0  0  0  0  0
   10.8754   -9.8402    9.9856 C   0  0  0  0  0  0  0  0  0  0  0  0
   10.7837  -10.3296   11.2448 N   0  0  0  0  0  0  0  0  0  0  0  0
   11.6650   -9.7586   12.1407 C   0  0  0  0  0  0  0  0  0  0  0  0
   11.7131  -10.1896   13.5775 C   0  0  0  0  0  0  0  0  0  0  0  0
   11.9853   -8.6075    9.7817 S   0  0  0  0  0  0  0  0  0  0  0  0
   12.3800   -8.6345   11.3928 C   0  0  0  0  0  0  0  0  0  0  0  0
    9.4888  -10.8137    8.6422 H   0  0  0  0  0  0  0  0  0  0  0  0
   10.4058   -9.5884    7.8901 H   0  0  0  0  0  0  0  0  0  0  0  0
   16.2069   -6.2121    9.7658 N   0  0  0  0  0  0  0  0  0  0  0  0
   16.9770   -6.7456    9.4632 H   0  0  0  0  0  0  0  0  0  0  0  0
   15.9320   -4.9120    9.1496 C   0  0  0  0  0  0  0  0  0  0  0  0
   14.6545   -4.2997    9.2852 C   0  0  0  0  0  0  0  0  0  0  0  0
   16.9193   -4.1597    8.4347 C   0  0  0  0  0  0  0  0  0  0  0  0
   16.6776   -2.8651    7.8659 C   0  0  0  0  0  0  0  0  0  0  0  0
   15.4035   -2.2988    8.0070 C   0  0  0  0  0  0  0  0  0  0  0  0
   14.4094   -3.0035    8.7294 C   0  0  0  0  0  0  0  0  0  0  0  0
   17.6054   -2.0834    7.1637 N   0  0  0  0  0  0  0  0  0  0  0  0
   18.8337   -2.2454    7.3368 O   0  0  0  0  0  0  0  0  0  0  0  0
   17.2013   -1.2188    6.3545 O   0  0  0  0  0  0  0  0  0  0  0  0
  7  8  1  0  0  0
  8  9  2  0  0  0
  8 12  1  0  0  0
  9 10  1  0  0  0
 10 11  1  0  0  0
 10 13  2  0  0  0
 12 13  1  0  0  0
 13  1  1  0  0  0
  1  2  2  0  0  0
  1  3  1  0  0  0
  2  6  1  0  0  0
  3  4  2  0  0  0
  4  5  1  0  0  0
  5  6  2  0  0  0
  6 16  1  0  0  0
 16 18  1  0  0  0
 18 19  2  0  0  0
 18 20  1  0  0  0
 19 23  1  0  0  0
 20 21  2  0  0  0
 21 24  1  0  0  0
 21 22  1  0  0  0
 24 25  1  0  0  0
 24 26  2  0  0  0
 22 23  2  0  0  0
  7 14  1  0  0  0
  7 15  1  0  0  0
 16 17  1  0  0  0
M  CHG 1  24   1
M  CHG 1  25  -1
M  END
> <minimizedAffinity>
-8.66268

$$$$
1PXO_CK7_A_500


 26 28  0  0  0  0  0  0  0  0999 V2000
   12.7990   -8.3287   11.4100 C   0  0  0  0  0  0  0  0  0  0  0  0
   12.9449   -7.2159   10.6185 N   0  0  0  0  0  0  0  0  0  0  0  0
   11.9546   -9.3662   11.0464 C   0  0  0  0  0  0  0  0  0  0  0  0
   11.2363   -9.1622    9.9010 C   0  0  0  0  0  0  0  0  0  0  0  0
   11.3940   -8.0150    9.1732 N   0  0  0  0  0  0  0  0  0  0  0  0
   12.2504   -7.0669    9.4935 C   0  0  0  0  0  0  0  0  0  0  0  0
   16.2006   -6.5968   14.7568 N   0  0  0  0  0  0  0  0  0  0  0  0
   15.0844   -7.4797   14.2996 C   0  0  0  0  0  0  0  0  0  0  0  0
   14.3360   -8.4521   14.8722 N   0  0  0  0  0  0  0  0  0  0  0  0
   13.3866   -9.0036   14.0358 C   0  0  0  0  0  0  0  0  0  0  0  0
   12.4582  -10.0845   14.5070 C   0  0  0  0  0  0  0  0  0  0  0  0
   14.7546   -7.1860   12.6878 S   0  0  0  0  0  0  0  0  0  0  0  0
   13.6074   -8.3840   12.6569 C   0  0  0  0  0  0  0  0  0  0  0  0
   16.5179   -6.6465   15.6874 H   0  0  0  0  0  0  0  0  0  0  0  0
   16.6184   -5.9657   14.1273 H   0  0  0  0  0  0  0  0  0  0  0  0
   12.2863   -6.0401    8.6667 N   0  0  0  0  0  0  0  0  0  0  0  0
   11.4467   -5.6307    8.3559 H   0  0  0  0  0  0  0  0  0  0  0  0
   13.5717   -5.5070    8.2095 C   0  0  0  0  0  0  0  0  0  0  0  0
   14.4996   -6.3386    7.5220 C   0  0  0  0  0  0  0  0  0  0  0  0
   13.9513   -4.1348    8.3677 C   0  0  0  0  0  0  0  0  0  0  0  0
   15.1865   -3.5885    7.8842 C   0  0  0  0  0  0  0  0  0  0  0  0
   16.0825   -4.4401    7.2239 C   0  0  0  0  0  0  0  0  0  0  0  0
   15.7293   -5.7978    7.0275 C   0  0  0  0  0  0  0  0  0  0  0  0
   15.6058   -2.2565    8.0050 N   0  0  0  0  0  0  0  0  0  0  0  0
   15.4507   -1.6360    9.0801 O   0  0  0  0  0  0  0  0  0  0  0  0
   16.1428   -1.6846    7.0302 O   0  0  0  0  0  0  0  0  0  0  0  0
  7  8  1  0  0  0
  8  9  2  0  0  0
  8 12  1  0  0  0
  9 10  1  0  0  0
 10 11  1  0  0  0
 10 13  2  0  0  0
 12 13  1  0  0  0
 13  1  1  0  0  0
  1  2  2  0  0  0
  1  3  1  0  0  0
  2  6  1  0  0  0
  3  4  2  0  0  0
  4  5  1  0  0  0
  5  6  2  0  0  0
  6 16  1  0  0  0
 16 18  1  0  0  0
 18 19  2  0  0  0
 18 20  1  0  0  0
 19 23  1  0  0  0
 20 21  2  0  0  0
 21 24  1  0  0  0
 21 22  1  0  0  0
 24 25  1  0  0  0
 24 26  2  0  0  0
 22 23  2  0  0  0
  7 14  1  0  0  0
  7 15  1  0  0  0
 16 17  1  0  0  0
M  CHG 1  24   1
M  CHG 1  25  -1
M  END
> <minimizedAffinity>
-8.59283

$$$$
1PXO_CK7_A_500


 26 28  0  0  0  0  0  0  0  0999 V2000
   13.4082   -5.1632    7.7389 C   0  0  0  0  0  0  0  0  0  0  0  0
   13.9736   -6.1427    8.5180 N   0  0  0  0  0  0  0  0  0  0  0  0
   12.2286   -5.3851    7.0454 C   0  0  0  0  0  0  0  0  0  0  0  0
   11.7263   -6.6536    7.1356 C   0  0  0  0  0  0  0  0  0  0  0  0
   12.3549   -7.6007    7.8962 N   0  0  0  0  0  0  0  0  0  0  0  0
   13.4379   -7.3575    8.6052 C   0  0  0  0  0  0  0  0  0  0  0  0
   16.5066   -1.5462    9.4962 N   0  0  0  0  0  0  0  0  0  0  0  0
   15.6842   -2.2298    8.4518 C   0  0  0  0  0  0  0  0  0  0  0  0
   15.4369   -2.0189    7.1373 N   0  0  0  0  0  0  0  0  0  0  0  0
   14.5869   -2.9434    6.5648 C   0  0  0  0  0  0  0  0  0  0  0  0
   14.2137   -2.8729    5.1128 C   0  0  0  0  0  0  0  0  0  0  0  0
   14.8681   -3.5209    9.1298 S   0  0  0  0  0  0  0  0  0  0  0  0
   14.1005   -3.8479    7.6959 C   0  0  0  0  0  0  0  0  0  0  0  0
   17.0511   -0.7613    9.2582 H   0  0  0  0  0  0  0  0  0  0  0  0
   16.5037   -1.8808   10.4221 H   0  0  0  0  0  0  0  0  0  0  0  0
   13.8976   -8.3816    9.2973 N   0  0  0  0  0  0  0  0  0  0  0  0
   14.1856   -9.1995    8.8309 H   0  0  0  0  0  0  0  0  0  0  0  0
   13.9810   -8.3060   10.7577 C   0  0  0  0  0  0  0  0  0  0  0  0
   12.9581   -8.8659   11.5734 C   0  0  0  0  0  0  0  0  0  0  0  0
   15.0947   -7.7293   11.4497 C   0  0  0  0  0  0  0  0  0  0  0  0
   15.2115   -7.6896   12.8790 C   0  0  0  0  0  0  0  0  0  0  0  0
   14.1784   -8.2382   13.6508 C   0  0  0  0  0  0  0  0  0  0  0  0
   13.0731   -8.8394   13.0001 C   0  0  0  0  0  0  0  0  0  0  0  0
   16.2782   -7.1452   13.6074 N   0  0  0  0  0  0  0  0  0  0  0  0
   16.0883   -6.6537   14.7419 O   0  0  0  0  0  0  0  0  0  0  0  0
   17.4306   -7.1544   13.1198 O   0  0  0  0  0  0  0  0  0  0  0  0
  7  8  1  0  0  0
  8  9  2  0  0  0
  8 12  1  0  0  0
  9 10  1  0  0  0
 10 11  1  0  0  0
 10 13  2  0  0  0
 12 13  1  0  0  0
 13  1  1  0  0  0
  1  2  2  0  0  0
  1  3  1  0  0  0
  2  6  1  0  0  0
  3  4  2  0  0  0
  4  5  1  0  0  0
  5  6  2  0  0  0
  6 16  1  0  0  0
 16 18  1  0  0  0
 18 19  2  0  0  0
 18 20  1  0  0  0
 19 23  1  0  0  0
 20 21  2  0  0  0
 21 24  1  0  0  0
 21 22  1  0  0  0
 24 25  1  0  0  0
 24 26  2  0  0  0
 22 23  2  0  0  0
  7 14  1  0  0  0
  7 15  1  0  0  0
 16 17  1  0  0  0
M  CHG 1  24   1
M  CHG 1  25  -1
M  END
> <minimizedAffinity>
-8.51418

$$$$
1PXO_CK7_A_500


 26 28  0  0  0  0  0  0  0  0999 V2000
   14.8937   -4.7322    8.7657 C   0  0  0  0  0  0  0  0  0  0  0  0
   15.7216   -5.4534    9.5906 N   0  0  0  0  0  0  0  0  0  0  0  0
   13.5158   -4.8710    8.8272 C   0  0  0  0  0  0  0  0  0  0  0  0
   13.0615   -5.8191    9.7015 C   0  0  0  0  0  0  0  0  0  0  0  0
   13.9365   -6.5361   10.4702 N   0  0  0  0  0  0  0  0  0  0  0  0
   15.2396   -6.3461   10.4515 C   0  0  0  0  0  0  0  0  0  0  0  0
   15.8274   -2.6971    4.2097 N   0  0  0  0  0  0  0  0  0  0  0  0
   15.8405   -2.7263    5.7041 C   0  0  0  0  0  0  0  0  0  0  0  0
   16.2464   -1.8747    6.6754 N   0  0  0  0  0  0  0  0  0  0  0  0
   16.0506   -2.3435    7.9588 C   0  0  0  0  0  0  0  0  0  0  0  0
   16.4284   -1.5259    9.1593 C   0  0  0  0  0  0  0  0  0  0  0  0
   15.2455   -4.1907    6.2466 S   0  0  0  0  0  0  0  0  0  0  0  0
   15.5383   -3.7767    7.8262 C   0  0  0  0  0  0  0  0  0  0  0  0
   16.1484   -1.8995    3.7301 H   0  0  0  0  0  0  0  0  0  0  0  0
   15.4978   -3.4755    3.7050 H   0  0  0  0  0  0  0  0  0  0  0  0
   15.9304   -7.1111   11.2741 N   0  0  0  0  0  0  0  0  0  0  0  0
   16.8668   -7.3341   11.0673 H   0  0  0  0  0  0  0  0  0  0  0  0
   15.3088   -7.6301   12.4947 C   0  0  0  0  0  0  0  0  0  0  0  0
   15.7482   -7.1931   13.7758 C   0  0  0  0  0  0  0  0  0  0  0  0
   14.2073   -8.5458   12.4842 C   0  0  0  0  0  0  0  0  0  0  0  0
   13.5589   -9.0265   13.6701 C   0  0  0  0  0  0  0  0  0  0  0  0
   14.0273   -8.5856   14.9151 C   0  0  0  0  0  0  0  0  0  0  0  0
   15.0989   -7.6604   14.9629 C   0  0  0  0  0  0  0  0  0  0  0  0
   12.4763   -9.9155   13.7188 N   0  0  0  0  0  0  0  0  0  0  0  0
   12.0286  -10.3129   14.8173 O   0  0  0  0  0  0  0  0  0  0  0  0
   11.9512  -10.3122   12.6545 O   0  0  0  0  0  0  0  0  0  0  0  0
  7  8  1  0  0  0
  8  9  2  0  0  0
  8 12  1  0  0  0
  9 10  1  0  0  0
 10 11  1  0  0  0
 10 13  2  0  0  0
 12 13  1  0  0  0
 13  1  1  0  0  0
  1  2  2  0  0  0
  1  3  1  0  0  0
  2  6  1  0  0  0
  3  4  2  0  0  0
  4  5  1  0  0  0
  5  6  2  0  0  0
  6 16  1  0  0  0
 16 18  1  0  0  0
 18 19  2  0  0  0
 18 20  1  0  0  0
 19 23  1  0  0  0
 20 21  2  0  0  0
 21 24  1  0  0  0
 21 22  1  0  0  0
 24 25  1  0  0  0
 24 26  2  0  0  0
 22 23  2  0  0  0
  7 14  1  0  0  0
  7 15  1  0  0  0
 16 17  1  0  0  0
M  CHG 1  24   1
M  CHG 1  25  -1
M  END
> <minimizedAffinity>
-8.37242

$$$$
1PXO_CK7_A_500


 26 28  0  0  0  0  0  0  0  0999 V2000
   13.9470   -8.3988   11.7098 C   0  0  0  0  0  0  0  0  0  0  0  0
   14.3934   -7.4450   10.8283 N   0  0  0  0  0  0  0  0  0  0  0  0
   14.7129   -8.7905   12.7968 C   0  0  0  0  0  0  0  0  0  0  0  0
   15.9530   -8.2200   12.8750 C   0  0  0  0  0  0  0  0  0  0  0  0
   16.3597   -7.3038   11.9446 N   0  0  0  0  0  0  0  0  0  0  0  0
   15.5956   -6.8894   10.9551 C   0  0  0  0  0  0  0  0  0  0  0  0
   10.1555  -10.1370    8.8159 N   0  0  0  0  0  0  0  0  0  0  0  0
   10.8898   -9.9359   10.1023 C   0  0  0  0  0  0  0  0  0  0  0  0
   10.7014  -10.3288   11.3844 N   0  0  0  0  0  0  0  0  0  0  0  0
   11.6745   -9.8917   12.2602 C   0  0  0  0  0  0  0  0  0  0  0  0
   11.6342  -10.2447   13.7183 C   0  0  0  0  0  0  0  0  0  0  0  0
   12.2187   -8.9550    9.8480 S   0  0  0  0  0  0  0  0  0  0  0  0
   12.5964   -8.9701   11.4633 C   0  0  0  0  0  0  0  0  0  0  0  0
    9.3439  -10.6938    8.7942 H   0  0  0  0  0  0  0  0  0  0  0  0
   10.4836   -9.7126    7.9904 H   0  0  0  0  0  0  0  0  0  0  0  0
   16.1416   -5.9859   10.1646 N   0  0  0  0  0  0  0  0  0  0  0  0
   17.1137   -5.8328   10.1922 H   0  0  0  0  0  0  0  0  0  0  0  0
   15.3059   -5.2096    9.2455 C   0  0  0  0  0  0  0  0  0  0  0  0
   14.6439   -4.0297    9.6868 C   0  0  0  0  0  0  0  0  0  0  0  0
   15.1459   -5.5426    7.8616 C   0  0  0  0  0  0  0  0  0  0  0  0
   14.3683   -4.7660    6.9395 C   0  0  0  0  0  0  0  0  0  0  0  0
   13.7189   -3.6176    7.4124 C   0  0  0  0  0  0  0  0  0  0  0  0
   13.8751   -3.2440    8.7698 C   0  0  0  0  0  0  0  0  0  0  0  0
   14.1827   -5.0403    5.5775 N   0  0  0  0  0  0  0  0  0  0  0  0
   14.0417   -6.2178    5.1794 O   0  0  0  0  0  0  0  0  0  0  0  0
   14.1542   -4.0989    4.7536 O   0  0  0  0  0  0  0  0  0  0  0  0
  7  8  1  0  0  0
  8  9  2  0  0  0
  8 12  1  0  0  0
  9 10  1  0  0  0
 10 11  1  0  0  0
 10 13  2  0  0  0
 12 13  1  0  0  0
 13  1  1  0  0  0
  1  2  2  0  0  0
  1  3  1  0  0  0
  2  6  1  0  0  0
  3  4  2  0  0  0
  4  5  1  0  0  0
  5  6  2  0  0  0
  6 16  1  0  0  0
 16 18  1  0  0  0
 18 19  2  0  0  0
 18 20  1  0  0  0
 19 23  1  0  0  0
 20 21  2  0  0  0
 21 24  1  0  0  0
 21 22  1  0  0  0
 24 25  1  0  0  0
 24 26  2  0  0  0
 22 23  2  0  0  0
  7 14  1  0  0  0
  7 15  1  0  0  0
 16 17  1  0  0  0
M  CHG 1  24   1
M  CHG 1  25  -1
M  END
> <minimizedAffinity>
-8.27707

$$$$
1PXO_CK7_A_500


 26 28  0  0  0  0  0  0  0  0999 V2000
   13.0804   -7.7419   10.8543 C   0  0  0  0  0  0  0  0  0  0  0  0
   13.9649   -7.2245    9.9399 N   0  0  0  0  0  0  0  0  0  0  0  0
   13.3035   -7.6272   12.2176 C   0  0  0  0  0  0  0  0  0  0  0  0
   14.4866   -7.0391   12.5697 C   0  0  0  0  0  0  0  0  0  0  0  0
   15.3483   -6.5773   11.6132 N   0  0  0  0  0  0  0  0  0  0  0  0
   15.0926   -6.6310   10.3223 C   0  0  0  0  0  0  0  0  0  0  0  0
    8.9714  -10.7104   11.1272 N   0  0  0  0  0  0  0  0  0  0  0  0
    9.8458   -9.6682   10.5079 C   0  0  0  0  0  0  0  0  0  0  0  0
    9.7631   -8.8752    9.4135 N   0  0  0  0  0  0  0  0  0  0  0  0
   10.8453   -8.0365    9.2378 C   0  0  0  0  0  0  0  0  0  0  0  0
   10.9165   -7.0779    8.0853 C   0  0  0  0  0  0  0  0  0  0  0  0
   11.2591   -9.5200   11.3873 S   0  0  0  0  0  0  0  0  0  0  0  0
   11.8612   -8.4034   10.3183 C   0  0  0  0  0  0  0  0  0  0  0  0
    8.0966  -10.9201   10.7272 H   0  0  0  0  0  0  0  0  0  0  0  0
    9.2703  -11.1872   11.9350 H   0  0  0  0  0  0  0  0  0  0  0  0
   16.0255   -6.1189    9.5434 N   0  0  0  0  0  0  0  0  0  0  0  0
   16.8389   -6.6372    9.3458 H   0  0  0  0  0  0  0  0  0  0  0  0
   15.8552   -4.7812    8.9714 C   0  0  0  0  0  0  0  0  0  0  0  0
   14.6472   -4.0553    9.1692 C   0  0  0  0  0  0  0  0  0  0  0  0
   16.8850   -4.1049    8.2407 C   0  0  0  0  0  0  0  0  0  0  0  0
   16.7488   -2.7773    7.7148 C   0  0  0  0  0  0  0  0  0  0  0  0
   15.5400   -2.0976    7.9167 C   0  0  0  0  0  0  0  0  0  0  0  0
   14.5083   -2.7260    8.6563 C   0  0  0  0  0  0  0  0  0  0  0  0
   17.7227   -2.0664    6.9998 N   0  0  0  0  0  0  0  0  0  0  0  0
   17.3981   -1.3340    6.0390 O   0  0  0  0  0  0  0  0  0  0  0  0
   18.9264   -2.1628    7.3277 O   0  0  0  0  0  0  0  0  0  0  0  0
  7  8  1  0  0  0
  8  9  2  0  0  0
  8 12  1  0  0  0
  9 10  1  0  0  0
 10 11  1  0  0  0
 10 13  2  0  0  0
 12 13  1  0  0  0
 13  1  1  0  0  0
  1  2  2  0  0  0
  1  3  1  0  0  0
  2  6  1  0  0  0
  3  4  2  0  0  0
  4  5  1  0  0  0
  5  6  2  0  0  0
  6 16  1  0  0  0
 16 18  1  0  0  0
 18 19  2  0  0  0
 18 20  1  0  0  0
 19 23  1  0  0  0
 20 21  2  0  0  0
 21 24  1  0  0  0
 21 22  1  0  0  0
 24 25  1  0  0  0
 24 26  2  0  0  0
 22 23  2  0  0  0
  7 14  1  0  0  0
  7 15  1  0  0  0
 16 17  1  0  0  0
M  CHG 1  24   1
M  CHG 1  25  -1
M  END
> <minimizedAffinity>
-8.27070

$$$$
1PXO_CK7_A_500


 26 28  0  0  0  0  0  0  0  0999 V2000
   11.6693   -8.9070   10.8111 C   0  0  0  0  0  0  0  0  0  0  0  0
   11.5706   -7.7297   10.1110 N   0  0  0  0  0  0  0  0  0  0  0  0
   10.9306  -10.0236   10.4516 C   0  0  0  0  0  0  0  0  0  0  0  0
   10.0580   -9.8392    9.4152 C   0  0  0  0  0  0  0  0  0  0  0  0
    9.9742   -8.6309    8.7799 N   0  0  0  0  0  0  0  0  0  0  0  0
   10.7312   -7.5978    9.0872 C   0  0  0  0  0  0  0  0  0  0  0  0
   15.4237   -7.0960   13.7087 N   0  0  0  0  0  0  0  0  0  0  0  0
   14.2740   -7.9989   13.3965 C   0  0  0  0  0  0  0  0  0  0  0  0
   13.6154   -8.9766   14.0626 N   0  0  0  0  0  0  0  0  0  0  0  0
   12.5804   -9.5493   13.3514 C   0  0  0  0  0  0  0  0  0  0  0  0
   11.7324  -10.6390   13.9395 C   0  0  0  0  0  0  0  0  0  0  0  0
   13.7473   -7.7248   11.8343 S   0  0  0  0  0  0  0  0  0  0  0  0
   12.6233   -8.9393   11.9513 C   0  0  0  0  0  0  0  0  0  0  0  0
   15.8519   -7.1326   14.5944 H   0  0  0  0  0  0  0  0  0  0  0  0
   15.7526   -6.4647   13.0286 H   0  0  0  0  0  0  0  0  0  0  0  0
   10.5313   -6.5183    8.3565 N   0  0  0  0  0  0  0  0  0  0  0  0
    9.7774   -5.9194    8.5617 H   0  0  0  0  0  0  0  0  0  0  0  0
   11.4277   -6.2076    7.2405 C   0  0  0  0  0  0  0  0  0  0  0  0
   10.9138   -6.0205    5.9267 C   0  0  0  0  0  0  0  0  0  0  0  0
   12.8390   -6.0197    7.3984 C   0  0  0  0  0  0  0  0  0  0  0  0
   13.7219   -5.6699    6.3232 C   0  0  0  0  0  0  0  0  0  0  0  0
   13.1829   -5.5072    5.0399 C   0  0  0  0  0  0  0  0  0  0  0  0
   11.7875   -5.6609    4.8511 C   0  0  0  0  0  0  0  0  0  0  0  0
   15.1056   -5.4679    6.4211 N   0  0  0  0  0  0  0  0  0  0  0  0
   15.8641   -6.4079    6.7464 O   0  0  0  0  0  0  0  0  0  0  0  0
   15.5861   -4.3385    6.1774 O   0  0  0  0  0  0  0  0  0  0  0  0
  7  8  1  0  0  0
  8  9  2  0  0  0
  8 12  1  0  0  0
  9 10  1  0  0  0
 10 11  1  0  0  0
 10 13  2  0  0  0
 12 13  1  0  0  0
 13  1  1  0  0  0
  1  2  2  0  0  0
  1  3  1  0  0  0
  2  6  1  0  0  0
  3  4  2  0  0  0
  4  5  1  0  0  0
  5  6  2  0  0  0
  6 16  1  0  0  0
 16 18  1  0  0  0
 18 19  2  0  0  0
 18 20  1  0  0  0
 19 23  1  0  0  0
 20 21  2  0  0  0
 21 24  1  0  0  0
 21 22  1  0  0  0
 24 25  1  0  0  0
 24 26  2  0  0  0
 22 23  2  0  0  0
  7 14  1  0  0  0
  7 15  1  0  0  0
 16 17  1  0  0  0
M  CHG 1  24   1
M  CHG 1  25  -1
M  END
> <minimizedAffinity>
-8.22417

$$$$
1PXO_CK7_A_500


 26 28  0  0  0  0  0  0  0  0999 V2000
   11.4023   -8.6357   10.5922 C   0  0  0  0  0  0  0  0  0  0  0  0
   11.7006   -7.3093   10.3984 N   0  0  0  0  0  0  0  0  0  0  0  0
   12.0401   -9.3825   11.5706 C   0  0  0  0  0  0  0  0  0  0  0  0
   13.0228   -8.7273   12.2594 C   0  0  0  0  0  0  0  0  0  0  0  0
   13.3037   -7.4149   11.9957 N   0  0  0  0  0  0  0  0  0  0  0  0
   12.6433   -6.6974   11.1104 C   0  0  0  0  0  0  0  0  0  0  0  0
    8.7211   -9.1320    6.3102 N   0  0  0  0  0  0  0  0  0  0  0  0
    9.2056   -9.5610    7.6576 C   0  0  0  0  0  0  0  0  0  0  0  0
    9.0175  -10.6488    8.4417 N   0  0  0  0  0  0  0  0  0  0  0  0
    9.6941  -10.6051    9.6439 C   0  0  0  0  0  0  0  0  0  0  0  0
    9.6129  -11.7320   10.6318 C   0  0  0  0  0  0  0  0  0  0  0  0
   10.1621   -8.3629    8.3228 S   0  0  0  0  0  0  0  0  0  0  0  0
   10.3464   -9.2261    9.7274 C   0  0  0  0  0  0  0  0  0  0  0  0
    8.1423   -9.7284    5.7823 H   0  0  0  0  0  0  0  0  0  0  0  0
    8.9806   -8.2531    5.9506 H   0  0  0  0  0  0  0  0  0  0  0  0
   13.0334   -5.4423   11.0015 N   0  0  0  0  0  0  0  0  0  0  0  0
   12.5876   -4.7421   11.5308 H   0  0  0  0  0  0  0  0  0  0  0  0
   14.1280   -5.0870   10.0953 C   0  0  0  0  0  0  0  0  0  0  0  0
   15.0636   -6.0698    9.6663 C   0  0  0  0  0  0  0  0  0  0  0  0
   14.2964   -3.7743    9.5473 C   0  0  0  0  0  0  0  0  0  0  0  0
   15.3359   -3.4235    8.6231 C   0  0  0  0  0  0  0  0  0  0  0  0
   16.2478   -4.4137    8.2334 C   0  0  0  0  0  0  0  0  0  0  0  0
   16.0970   -5.7294    8.7360 C   0  0  0  0  0  0  0  0  0  0  0  0
   15.5438   -2.1605    8.0518 N   0  0  0  0  0  0  0  0  0  0  0  0
   15.5070   -2.0101    6.8105 O   0  0  0  0  0  0  0  0  0  0  0  0
   15.7644   -1.1746    8.7902 O   0  0  0  0  0  0  0  0  0  0  0  0
  7  8  1  0  0  0
  8  9  2  0  0  0
  8 12  1  0  0  0
  9 10  1  0  0  0
 10 11  1  0  0  0
 10 13  2  0  0  0
 12 13  1  0  0  0
 13  1  1  0  0  0
  1  2  2  0  0  0
  1  3  1  0  0  0
  2  6  1  0  0  0
  3  4  2  0  0  0
  4  5  1  0  0  0
  5  6  2  0  0  0
  6 16  1  0  0  0
 16 18  1  0  0  0
 18 19  2  0  0  0
 18 20  1  0  0  0
 19 23  1  0  0  0
 20 21  2  0  0  0
 21 24  1  0  0  0
 21 22  1  0  0  0
 24 25  1  0  0  0
 24 26  2  0  0  0
 22 23  2  0  0  0
  7 14  1  0  0  0
  7 15  1  0  0  0
 16 17  1  0  0  0
M  CHG 1  24   1
M  CHG 1  25  -1
M  END
> <minimizedAffinity>
-8.13595

$$$$
1PXO_CK7_A_500


 26 28  0  0  0  0  0  0  0  0999 V2000
   14.0205   -7.3284   11.5567 C   0  0  0  0  0  0  0  0  0  0  0  0
   13.3567   -6.3058   10.9247 N   0  0  0  0  0  0  0  0  0  0  0  0
   15.3949   -7.4723   11.4468 C   0  0  0  0  0  0  0  0  0  0  0  0
   16.0120   -6.5801   10.6145 C   0  0  0  0  0  0  0  0  0  0  0  0
   15.2928   -5.6055    9.9793 N   0  0  0  0  0  0  0  0  0  0  0  0
   13.9972   -5.4374   10.1462 C   0  0  0  0  0  0  0  0  0  0  0  0
   10.6140  -11.0138   12.3216 N   0  0  0  0  0  0  0  0  0  0  0  0
   11.7261  -10.0984   12.7213 C   0  0  0  0  0  0  0  0  0  0  0  0
   12.4642   -9.9204   13.8425 N   0  0  0  0  0  0  0  0  0  0  0  0
   13.4140   -8.9237   13.7437 C   0  0  0  0  0  0  0  0  0  0  0  0
   14.3320   -8.5983   14.8856 C   0  0  0  0  0  0  0  0  0  0  0  0
   12.0666   -9.0424   11.4716 S   0  0  0  0  0  0  0  0  0  0  0  0
   13.2051   -8.2551   12.3860 C   0  0  0  0  0  0  0  0  0  0  0  0
   10.2914  -11.6999   12.9496 H   0  0  0  0  0  0  0  0  0  0  0  0
   10.2042  -10.9305   11.4303 H   0  0  0  0  0  0  0  0  0  0  0  0
   13.4698   -4.4339    9.4724 N   0  0  0  0  0  0  0  0  0  0  0  0
   12.7182   -3.9265    9.8558 H   0  0  0  0  0  0  0  0  0  0  0  0
   13.9988   -4.0719    8.1554 C   0  0  0  0  0  0  0  0  0  0  0  0
   13.4433   -4.6316    6.9708 C   0  0  0  0  0  0  0  0  0  0  0  0
   15.0461   -3.1126    7.9687 C   0  0  0  0  0  0  0  0  0  0  0  0
   15.5424   -2.7143    6.6831 C   0  0  0  0  0  0  0  0  0  0  0  0
   14.9811   -3.2966    5.5386 C   0  0  0  0  0  0  0  0  0  0  0  0
   13.9264   -4.2308    5.6842 C   0  0  0  0  0  0  0  0  0  0  0  0
   16.5578   -1.7786    6.4416 N   0  0  0  0  0  0  0  0  0  0  0  0
   17.1345   -1.2062    7.3927 O   0  0  0  0  0  0  0  0  0  0  0  0
   16.8924   -1.5165    5.2647 O   0  0  0  0  0  0  0  0  0  0  0  0
  7  8  1  0  0  0
  8  9  2  0  0  0
  8 12  1  0  0  0
  9 10  1  0  0  0
 10 11  1  0  0  0
 10 13  2  0  0  0
 12 13  1  0  0  0
 13  1  1  0  0  0
  1  2  2  0  0  0
  1  3  1  0  0  0
  2  6  1  0  0  0
  3  4  2  0  0  0
  4  5  1  0  0  0
  5  6  2  0  0  0
  6 16  1  0  0  0
 16 18  1  0  0  0
 18 19  2  0  0  0
 18 20  1  0  0  0
 19 23  1  0  0  0
 20 21  2  0  0  0
 21 24  1  0  0  0
 21 22  1  0  0  0
 24 25  1  0  0  0
 24 26  2  0  0  0
 22 23  2  0  0  0
  7 14  1  0  0  0
  7 15  1  0  0  0
 16 17  1  0  0  0
M  CHG 1  24   1
M  CHG 1  25  -1
M  END
> <minimizedAffinity>
-8.13181

$$$$
