1F0T_PR1_A_304


 35 38  0  0  0  0  0  0  0  0999 V2000
   11.9287   -6.1066   21.7208 N   0  0  0  0  0  0  0  0  0  0  0  0
   10.8939   -6.9276   22.0258 C   0  0  0  0  0  0  0  0  0  0  0  0
   11.3203   -8.3328   21.7024 C   0  0  0  0  0  0  0  0  0  0  0  0
   12.3388   -8.1263   20.5920 C   0  0  0  0  0  0  0  0  0  0  0  0
   12.9807   -6.7885   20.9316 C   0  0  0  0  0  0  0  0  0  0  0  0
    9.8136   -6.6016   22.4707 O   0  0  0  0  0  0  0  0  0  0  0  0
   10.5172   -9.2717   21.0224 N   0  0  0  0  0  0  0  0  0  0  0  0
   11.0692   -9.6069   20.2329 H   0  0  0  0  0  0  0  0  0  0  0  0
    9.9473  -10.5867   21.7762 S   0  0  0  0  0  0  0  0  0  0  0  0
    9.2516  -10.0602   22.9085 O   0  0  0  0  0  0  0  0  0  0  0  0
    9.2664  -11.2986   20.7438 O   0  0  0  0  0  0  0  0  0  0  0  0
   13.4862  -12.7332   22.5310 C   0  0  0  0  0  0  0  0  0  0  0  0
   14.6986  -13.4075   22.5569 C   0  0  0  0  0  0  0  0  0  0  0  0
   15.1334  -14.1003   23.6995 C   0  0  0  0  0  0  0  0  0  0  0  0
   14.3525  -14.1380   24.8760 C   0  0  0  0  0  0  0  0  0  0  0  0
   13.1520  -13.5041   24.9383 N   0  0  0  0  0  0  0  0  0  0  0  0
   12.6394  -12.7726   23.8073 C   0  0  0  0  0  0  0  0  0  0  0  0
   11.4452  -12.0669   23.6424 C   0  0  0  0  0  0  0  0  0  0  0  0
   11.3441  -11.5038   22.3167 C   0  0  0  0  0  0  0  0  0  0  0  0
   12.6960  -11.8383   21.3017 S   0  0  0  0  0  0  0  0  0  0  0  0
   11.9264   -4.6482   21.9252 C   0  0  0  0  0  0  0  0  0  0  0  0
   14.2067   -3.3048   25.4040 C   0  0  0  0  0  0  0  0  0  0  0  0
   14.8154   -3.3377   24.1466 C   0  0  0  0  0  0  0  0  0  0  0  0
   14.1039   -3.7599   23.0243 C   0  0  0  0  0  0  0  0  0  0  0  0
   12.7690   -4.1570   23.1469 C   0  0  0  0  0  0  0  0  0  0  0  0
   12.1695   -4.1195   24.4116 C   0  0  0  0  0  0  0  0  0  0  0  0
   12.8593   -3.6954   25.5657 C   0  0  0  0  0  0  0  0  0  0  0  0
   14.7005   -3.7893   21.8325 O   0  0  0  0  0  0  0  0  0  0  0  0
   15.5951   -3.5233   21.7497 H   0  0  0  0  0  0  0  0  0  0  0  0
   12.1412   -3.6348   26.9723 C   0  0  0  0  0  0  0  0  0  0  0  0
   10.8855   -4.1054   27.1195 N   0  0  0  0  0  0  0  0  0  0  0  0
   12.7702   -3.1108   28.0355 N   0  0  0  0  0  0  0  0  0  0  0  0
   10.4115   -4.4927   26.3484 H   0  0  0  0  0  0  0  0  0  0  0  0
   13.6867   -2.7634   27.9433 H   0  0  0  0  0  0  0  0  0  0  0  0
   12.3151   -3.0737   28.9078 H   0  0  0  0  0  0  0  0  0  0  0  0
 22 23  2  0  0  0
 22 27  1  0  0  0
 23 24  1  0  0  0
 24 25  2  0  0  0
 24 28  1  0  0  0
 25 26  1  0  0  0
 25 21  1  0  0  0
 26 27  2  0  0  0
 27 30  1  0  0  0
 30 31  2  0  0  0
 30 32  1  0  0  0
 21  1  1  0  0  0
 12 13  1  0  0  0
 12 17  2  0  0  0
 12 20  1  0  0  0
 13 14  2  0  0  0
 14 15  1  0  0  0
 15 16  2  0  0  0
 16 17  1  0  0  0
 17 18  1  0  0  0
 18 19  2  0  0  0
 19 20  1  0  0  0
 19  9  1  0  0  0
  1  2  1  0  0  0
  1  5  1  0  0  0
  2  3  1  0  0  0
  2  6  2  0  0  0
  3  4  1  0  0  0
  3  7  1  0  0  0
  4  5  1  0  0  0
  7  9  1  0  0  0
  9 10  2  0  0  0
  9 11  2  0  0  0
 31 33  1  0  0  0
 32 34  1  0  0  0
 32 35  1  0  0  0
 28 29  1  0  0  0
  7  8  1  0  0  0
M  END
> <minimizedAffinity>
-8.76307

$$$$
1F0T_PR1_A_304


 35 38  0  0  0  0  0  0  0  0999 V2000
   14.4661  -10.0481   19.7520 N   0  0  0  0  0  0  0  0  0  0  0  0
   14.1092   -8.7522   19.9281 C   0  0  0  0  0  0  0  0  0  0  0  0
   15.3196   -7.9065   19.6435 C   0  0  0  0  0  0  0  0  0  0  0  0
   16.4691   -8.8418   19.9853 C   0  0  0  0  0  0  0  0  0  0  0  0
   15.9324  -10.2218   19.6321 C   0  0  0  0  0  0  0  0  0  0  0  0
   13.0195   -8.3367   20.2619 O   0  0  0  0  0  0  0  0  0  0  0  0
   15.7397   -6.8235   20.4431 N   0  0  0  0  0  0  0  0  0  0  0  0
   16.7392   -6.7099   20.2747 H   0  0  0  0  0  0  0  0  0  0  0  0
   15.0760   -5.3556   20.2790 S   0  0  0  0  0  0  0  0  0  0  0  0
   16.1985   -4.4879   20.1036 O   0  0  0  0  0  0  0  0  0  0  0  0
   14.1032   -5.5383   19.2511 O   0  0  0  0  0  0  0  0  0  0  0  0
   12.6949   -4.7011   23.6853 C   0  0  0  0  0  0  0  0  0  0  0  0
   11.7392   -4.5758   24.6833 C   0  0  0  0  0  0  0  0  0  0  0  0
   12.0155   -3.9118   25.8905 C   0  0  0  0  0  0  0  0  0  0  0  0
   13.2841   -3.3432   26.1413 C   0  0  0  0  0  0  0  0  0  0  0  0
   14.2790   -3.4204   25.2187 N   0  0  0  0  0  0  0  0  0  0  0  0
   14.0714   -4.0859   23.9573 C   0  0  0  0  0  0  0  0  0  0  0  0
   14.9310   -4.2730   22.8722 C   0  0  0  0  0  0  0  0  0  0  0  0
   14.2795   -4.9887   21.8006 C   0  0  0  0  0  0  0  0  0  0  0  0
   12.6444   -5.4208   22.1309 S   0  0  0  0  0  0  0  0  0  0  0  0
   13.5526  -11.1937   19.8998 C   0  0  0  0  0  0  0  0  0  0  0  0
   12.7528  -12.3465   24.0395 C   0  0  0  0  0  0  0  0  0  0  0  0
   11.8725  -11.4871   23.3768 C   0  0  0  0  0  0  0  0  0  0  0  0
   12.1084  -11.1104   22.0553 C   0  0  0  0  0  0  0  0  0  0  0  0
   13.2334  -11.5902   21.3778 C   0  0  0  0  0  0  0  0  0  0  0  0
   14.1081  -12.4509   22.0518 C   0  0  0  0  0  0  0  0  0  0  0  0
   13.8975  -12.8537   23.3864 C   0  0  0  0  0  0  0  0  0  0  0  0
   11.2610  -10.2865   21.4385 O   0  0  0  0  0  0  0  0  0  0  0  0
   10.5069   -9.9645   21.8920 H   0  0  0  0  0  0  0  0  0  0  0  0
   14.8886  -13.8527   24.1058 C   0  0  0  0  0  0  0  0  0  0  0  0
   15.6210  -13.4460   25.1632 N   0  0  0  0  0  0  0  0  0  0  0  0
   15.0164  -15.1157   23.6709 N   0  0  0  0  0  0  0  0  0  0  0  0
   15.5378  -12.5223   25.4934 H   0  0  0  0  0  0  0  0  0  0  0  0
   14.4884  -15.4268   22.9004 H   0  0  0  0  0  0  0  0  0  0  0  0
   15.6381  -15.7313   24.1223 H   0  0  0  0  0  0  0  0  0  0  0  0
 22 23  2  0  0  0
 22 27  1  0  0  0
 23 24  1  0  0  0
 24 25  2  0  0  0
 24 28  1  0  0  0
 25 26  1  0  0  0
 25 21  1  0  0  0
 26 27  2  0  0  0
 27 30  1  0  0  0
 30 31  2  0  0  0
 30 32  1  0  0  0
 21  1  1  0  0  0
 12 13  1  0  0  0
 12 17  2  0  0  0
 12 20  1  0  0  0
 13 14  2  0  0  0
 14 15  1  0  0  0
 15 16  2  0  0  0
 16 17  1  0  0  0
 17 18  1  0  0  0
 18 19  2  0  0  0
 19 20  1  0  0  0
 19  9  1  0  0  0
  1  2  1  0  0  0
  1  5  1  0  0  0
  2  3  1  0  0  0
  2  6  2  0  0  0
  3  4  1  0  0  0
  3  7  1  0  0  0
  4  5  1  0  0  0
  7  9  1  0  0  0
  9 10  2  0  0  0
  9 11  2  0  0  0
 31 33  1  0  0  0
 32 34  1  0  0  0
 32 35  1  0  0  0
 28 29  1  0  0  0
  7  8  1  0  0  0
M  END
> <minimizedAffinity>
-8.14837

$$$$
1F0T_PR1_A_304


 35 38  0  0  0  0  0  0  0  0999 V2000
   14.8235  -10.4328   19.6780 N   0  0  0  0  0  0  0  0  0  0  0  0
   14.2964   -9.2151   19.9559 C   0  0  0  0  0  0  0  0  0  0  0  0
   15.3810   -8.1943   19.7487 C   0  0  0  0  0  0  0  0  0  0  0  0
   16.6472   -8.9914   20.0214 C   0  0  0  0  0  0  0  0  0  0  0  0
   16.2993  -10.3977   19.5542 C   0  0  0  0  0  0  0  0  0  0  0  0
   13.1623   -8.9781   20.3150 O   0  0  0  0  0  0  0  0  0  0  0  0
   15.6552   -7.1331   20.6360 N   0  0  0  0  0  0  0  0  0  0  0  0
   16.6681   -7.0127   20.6392 H   0  0  0  0  0  0  0  0  0  0  0  0
   15.0184   -5.6625   20.4036 S   0  0  0  0  0  0  0  0  0  0  0  0
   16.1563   -4.8248   20.1868 O   0  0  0  0  0  0  0  0  0  0  0  0
   14.0408   -5.8753   19.3861 O   0  0  0  0  0  0  0  0  0  0  0  0
   12.6496   -4.7829   23.7675 C   0  0  0  0  0  0  0  0  0  0  0  0
   11.6942   -4.5770   24.7525 C   0  0  0  0  0  0  0  0  0  0  0  0
   11.9972   -3.8963   25.9438 C   0  0  0  0  0  0  0  0  0  0  0  0
   13.2935   -3.3924   26.1914 C   0  0  0  0  0  0  0  0  0  0  0  0
   14.2900   -3.5502   25.2809 N   0  0  0  0  0  0  0  0  0  0  0  0
   14.0561   -4.2377   24.0361 C   0  0  0  0  0  0  0  0  0  0  0  0
   14.9127   -4.5022   22.9649 C   0  0  0  0  0  0  0  0  0  0  0  0
   14.2311   -5.2100   21.9069 C   0  0  0  0  0  0  0  0  0  0  0  0
   12.5718   -5.5414   22.2329 S   0  0  0  0  0  0  0  0  0  0  0  0
   14.0728  -11.6988   19.7266 C   0  0  0  0  0  0  0  0  0  0  0  0
   13.6959  -13.4724   23.7038 C   0  0  0  0  0  0  0  0  0  0  0  0
   14.7982  -13.7887   22.9054 C   0  0  0  0  0  0  0  0  0  0  0  0
   14.9381  -13.2308   21.6353 C   0  0  0  0  0  0  0  0  0  0  0  0
   13.9722  -12.3463   21.1459 C   0  0  0  0  0  0  0  0  0  0  0  0
   12.8723  -12.0366   21.9549 C   0  0  0  0  0  0  0  0  0  0  0  0
   12.7020  -12.5807   23.2443 C   0  0  0  0  0  0  0  0  0  0  0  0
   15.9936  -13.5459   20.8845 O   0  0  0  0  0  0  0  0  0  0  0  0
   16.6413  -14.1386   21.2119 H   0  0  0  0  0  0  0  0  0  0  0  0
   11.4642  -12.1834   24.1433 C   0  0  0  0  0  0  0  0  0  0  0  0
   10.9051  -13.0871   24.9743 N   0  0  0  0  0  0  0  0  0  0  0  0
   10.9523  -10.9443   24.0874 N   0  0  0  0  0  0  0  0  0  0  0  0
   11.2699  -14.0001   25.0260 H   0  0  0  0  0  0  0  0  0  0  0  0
   11.3498  -10.2742   23.4856 H   0  0  0  0  0  0  0  0  0  0  0  0
   10.1792  -10.7053   24.6481 H   0  0  0  0  0  0  0  0  0  0  0  0
 22 23  2  0  0  0
 22 27  1  0  0  0
 23 24  1  0  0  0
 24 25  2  0  0  0
 24 28  1  0  0  0
 25 26  1  0  0  0
 25 21  1  0  0  0
 26 27  2  0  0  0
 27 30  1  0  0  0
 30 31  2  0  0  0
 30 32  1  0  0  0
 21  1  1  0  0  0
 12 13  1  0  0  0
 12 17  2  0  0  0
 12 20  1  0  0  0
 13 14  2  0  0  0
 14 15  1  0  0  0
 15 16  2  0  0  0
 16 17  1  0  0  0
 17 18  1  0  0  0
 18 19  2  0  0  0
 19 20  1  0  0  0
 19  9  1  0  0  0
  1  2  1  0  0  0
  1  5  1  0  0  0
  2  3  1  0  0  0
  2  6  2  0  0  0
  3  4  1  0  0  0
  3  7  1  0  0  0
  4  5  1  0  0  0
  7  9  1  0  0  0
  9 10  2  0  0  0
  9 11  2  0  0  0
 31 33  1  0  0  0
 32 34  1  0  0  0
 32 35  1  0  0  0
 28 29  1  0  0  0
  7  8  1  0  0  0
M  END
> <minimizedAffinity>
-7.95127

$$$$
1F0T_PR1_A_304


 35 38  0  0  0  0  0  0  0  0999 V2000
   13.4228  -10.3378   20.5007 N   0  0  0  0  0  0  0  0  0  0  0  0
   13.5489   -9.0794   20.9890 C   0  0  0  0  0  0  0  0  0  0  0  0
   12.3888   -8.2747   20.4717 C   0  0  0  0  0  0  0  0  0  0  0  0
   12.0521   -8.9750   19.1644 C   0  0  0  0  0  0  0  0  0  0  0  0
   12.4010  -10.4323   19.4323 C   0  0  0  0  0  0  0  0  0  0  0  0
   14.4343   -8.6627   21.7059 O   0  0  0  0  0  0  0  0  0  0  0  0
   12.4968   -6.9720   19.9424 N   0  0  0  0  0  0  0  0  0  0  0  0
   12.3705   -7.0579   18.9339 H   0  0  0  0  0  0  0  0  0  0  0  0
   11.5078   -5.7861   20.4301 S   0  0  0  0  0  0  0  0  0  0  0  0
   11.5771   -4.8242   19.3750 O   0  0  0  0  0  0  0  0  0  0  0  0
   10.2936   -6.4672   20.7437 O   0  0  0  0  0  0  0  0  0  0  0  0
   13.6803   -4.1223   23.6259 C   0  0  0  0  0  0  0  0  0  0  0  0
   14.5746   -3.5735   24.5338 C   0  0  0  0  0  0  0  0  0  0  0  0
   14.2253   -3.3631   25.8785 C   0  0  0  0  0  0  0  0  0  0  0  0
   12.9426   -3.7005   26.3646 C   0  0  0  0  0  0  0  0  0  0  0  0
   12.0046   -4.2421   25.5438 N   0  0  0  0  0  0  0  0  0  0  0  0
   12.2885   -4.4872   24.1523 C   0  0  0  0  0  0  0  0  0  0  0  0
   11.4955   -5.0376   23.1425 C   0  0  0  0  0  0  0  0  0  0  0  0
   12.2114   -5.1108   21.8907 C   0  0  0  0  0  0  0  0  0  0  0  0
   13.8250   -4.5104   21.9631 S   0  0  0  0  0  0  0  0  0  0  0  0
   14.3425  -11.4474   20.8034 C   0  0  0  0  0  0  0  0  0  0  0  0
   13.0191  -13.9393   24.1419 C   0  0  0  0  0  0  0  0  0  0  0  0
   14.1839  -14.2739   23.4462 C   0  0  0  0  0  0  0  0  0  0  0  0
   14.6242  -13.4899   22.3807 C   0  0  0  0  0  0  0  0  0  0  0  0
   13.9011  -12.3569   21.9957 C   0  0  0  0  0  0  0  0  0  0  0  0
   12.7359  -12.0313   22.7003 C   0  0  0  0  0  0  0  0  0  0  0  0
   12.2645  -12.8006   23.7837 C   0  0  0  0  0  0  0  0  0  0  0  0
   15.7354  -13.8250   21.7247 O   0  0  0  0  0  0  0  0  0  0  0  0
   16.2205  -14.5842   21.9821 H   0  0  0  0  0  0  0  0  0  0  0  0
   10.9625  -12.3850   24.5774 C   0  0  0  0  0  0  0  0  0  0  0  0
   10.2750  -13.3011   25.2901 N   0  0  0  0  0  0  0  0  0  0  0  0
   10.5233  -11.1174   24.5483 N   0  0  0  0  0  0  0  0  0  0  0  0
   10.5852  -14.2350   25.3208 H   0  0  0  0  0  0  0  0  0  0  0  0
   11.0146  -10.4379   24.0324 H   0  0  0  0  0  0  0  0  0  0  0  0
    9.7096  -10.8669   25.0428 H   0  0  0  0  0  0  0  0  0  0  0  0
 22 23  2  0  0  0
 22 27  1  0  0  0
 23 24  1  0  0  0
 24 25  2  0  0  0
 24 28  1  0  0  0
 25 26  1  0  0  0
 25 21  1  0  0  0
 26 27  2  0  0  0
 27 30  1  0  0  0
 30 31  2  0  0  0
 30 32  1  0  0  0
 21  1  1  0  0  0
 12 13  1  0  0  0
 12 17  2  0  0  0
 12 20  1  0  0  0
 13 14  2  0  0  0
 14 15  1  0  0  0
 15 16  2  0  0  0
 16 17  1  0  0  0
 17 18  1  0  0  0
 18 19  2  0  0  0
 19 20  1  0  0  0
 19  9  1  0  0  0
  1  2  1  0  0  0
  1  5  1  0  0  0
  2  3  1  0  0  0
  2  6  2  0  0  0
  3  4  1  0  0  0
  3  7  1  0  0  0
  4  5  1  0  0  0
  7  9  1  0  0  0
  9 10  2  0  0  0
  9 11  2  0  0  0
 31 33  1  0  0  0
 32 34  1  0  0  0
 32 35  1  0  0  0
 28 29  1  0  0  0
  7  8  1  0  0  0
M  END
> <minimizedAffinity>
-7.33334

$$$$
1F0T_PR1_A_304


 35 38  0  0  0  0  0  0  0  0999 V2000
   14.0786   -9.5135   20.5328 N   0  0  0  0  0  0  0  0  0  0  0  0
   13.5626   -8.3503   21.0005 C   0  0  0  0  0  0  0  0  0  0  0  0
   14.6495   -7.3133   20.9329 C   0  0  0  0  0  0  0  0  0  0  0  0
   15.9153   -8.1464   21.0611 C   0  0  0  0  0  0  0  0  0  0  0  0
   15.5525   -9.4645   20.3918 C   0  0  0  0  0  0  0  0  0  0  0  0
   12.4355   -8.1670   21.4096 O   0  0  0  0  0  0  0  0  0  0  0  0
   14.9432   -6.3997   21.9662 N   0  0  0  0  0  0  0  0  0  0  0  0
   15.9517   -6.4431   22.1130 H   0  0  0  0  0  0  0  0  0  0  0  0
   14.5659   -4.8310   21.8283 S   0  0  0  0  0  0  0  0  0  0  0  0
   14.8173   -4.3005   23.1317 O   0  0  0  0  0  0  0  0  0  0  0  0
   15.3119   -4.4035   20.6895 O   0  0  0  0  0  0  0  0  0  0  0  0
   10.3722   -4.6150   21.5693 C   0  0  0  0  0  0  0  0  0  0  0  0
    8.9944   -4.5379   21.7139 C   0  0  0  0  0  0  0  0  0  0  0  0
    8.1292   -4.6530   20.6126 C   0  0  0  0  0  0  0  0  0  0  0  0
    8.6276   -4.8508   19.3058 C   0  0  0  0  0  0  0  0  0  0  0  0
    9.9638   -4.9373   19.0733 N   0  0  0  0  0  0  0  0  0  0  0  0
   10.9134   -4.8281   20.1519 C   0  0  0  0  0  0  0  0  0  0  0  0
   12.3085   -4.8982   20.1498 C   0  0  0  0  0  0  0  0  0  0  0  0
   12.8458   -4.7542   21.4823 C   0  0  0  0  0  0  0  0  0  0  0  0
   11.6522   -4.5350   22.7058 S   0  0  0  0  0  0  0  0  0  0  0  0
   13.3218  -10.7698   20.4010 C   0  0  0  0  0  0  0  0  0  0  0  0
   12.4621  -12.7645   24.1942 C   0  0  0  0  0  0  0  0  0  0  0  0
   11.4907  -11.9533   23.6018 C   0  0  0  0  0  0  0  0  0  0  0  0
   11.7446  -11.3112   22.3906 C   0  0  0  0  0  0  0  0  0  0  0  0
   12.9792  -11.4728   21.7545 C   0  0  0  0  0  0  0  0  0  0  0  0
   13.9445  -12.2883   22.3573 C   0  0  0  0  0  0  0  0  0  0  0  0
   13.7193  -12.9539   23.5796 C   0  0  0  0  0  0  0  0  0  0  0  0
   10.8087  -10.5374   21.8405 O   0  0  0  0  0  0  0  0  0  0  0  0
    9.9811  -10.4286   22.2662 H   0  0  0  0  0  0  0  0  0  0  0  0
   14.8203  -13.8930   24.2150 C   0  0  0  0  0  0  0  0  0  0  0  0
   15.6711  -13.4154   25.1466 N   0  0  0  0  0  0  0  0  0  0  0  0
   14.9245  -15.1750   23.8325 N   0  0  0  0  0  0  0  0  0  0  0  0
   15.6066  -12.4770   25.4371 H   0  0  0  0  0  0  0  0  0  0  0  0
   14.3105  -15.5376   23.1536 H   0  0  0  0  0  0  0  0  0  0  0  0
   15.6149  -15.7530   24.2306 H   0  0  0  0  0  0  0  0  0  0  0  0
 22 23  2  0  0  0
 22 27  1  0  0  0
 23 24  1  0  0  0
 24 25  2  0  0  0
 24 28  1  0  0  0
 25 26  1  0  0  0
 25 21  1  0  0  0
 26 27  2  0  0  0
 27 30  1  0  0  0
 30 31  2  0  0  0
 30 32  1  0  0  0
 21  1  1  0  0  0
 12 13  1  0  0  0
 12 17  2  0  0  0
 12 20  1  0  0  0
 13 14  2  0  0  0
 14 15  1  0  0  0
 15 16  2  0  0  0
 16 17  1  0  0  0
 17 18  1  0  0  0
 18 19  2  0  0  0
 19 20  1  0  0  0
 19  9  1  0  0  0
  1  2  1  0  0  0
  1  5  1  0  0  0
  2  3  1  0  0  0
  2  6  2  0  0  0
  3  4  1  0  0  0
  3  7  1  0  0  0
  4  5  1  0  0  0
  7  9  1  0  0  0
  9 10  2  0  0  0
  9 11  2  0  0  0
 31 33  1  0  0  0
 32 34  1  0  0  0
 32 35  1  0  0  0
 28 29  1  0  0  0
  7  8  1  0  0  0
M  END
> <minimizedAffinity>
-7.24327

$$$$
1F0T_PR1_A_304


 35 38  0  0  0  0  0  0  0  0999 V2000
   13.5623   -9.5286   20.0087 N   0  0  0  0  0  0  0  0  0  0  0  0
   14.4543   -8.5118   20.1001 C   0  0  0  0  0  0  0  0  0  0  0  0
   13.7505   -7.3484   20.7424 C   0  0  0  0  0  0  0  0  0  0  0  0
   12.2993   -7.5764   20.3485 C   0  0  0  0  0  0  0  0  0  0  0  0
   12.1737   -9.0920   20.2843 C   0  0  0  0  0  0  0  0  0  0  0  0
   15.6089   -8.5215   19.7286 O   0  0  0  0  0  0  0  0  0  0  0  0
   13.8406   -6.0156   20.2905 N   0  0  0  0  0  0  0  0  0  0  0  0
   12.8924   -5.6401   20.3052 H   0  0  0  0  0  0  0  0  0  0  0  0
   14.7748   -4.9350   21.0534 S   0  0  0  0  0  0  0  0  0  0  0  0
   16.0144   -5.6221   21.2397 O   0  0  0  0  0  0  0  0  0  0  0  0
   14.6803   -3.7700   20.2348 O   0  0  0  0  0  0  0  0  0  0  0  0
   12.4869   -4.3510   24.5356 C   0  0  0  0  0  0  0  0  0  0  0  0
   11.5522   -4.2130   25.5517 C   0  0  0  0  0  0  0  0  0  0  0  0
   11.9071   -3.7203   26.8189 C   0  0  0  0  0  0  0  0  0  0  0  0
   13.2366   -3.3451   27.1142 C   0  0  0  0  0  0  0  0  0  0  0  0
   14.2160   -3.4484   26.1777 N   0  0  0  0  0  0  0  0  0  0  0  0
   13.9293   -3.9455   24.8557 C   0  0  0  0  0  0  0  0  0  0  0  0
   14.7611   -4.1231   23.7475 C   0  0  0  0  0  0  0  0  0  0  0  0
   14.0272   -4.6341   22.6138 C   0  0  0  0  0  0  0  0  0  0  0  0
   12.3499   -4.8903   22.9148 S   0  0  0  0  0  0  0  0  0  0  0  0
   13.8694  -10.8631   19.4672 C   0  0  0  0  0  0  0  0  0  0  0  0
   14.9078  -13.8231   22.5113 C   0  0  0  0  0  0  0  0  0  0  0  0
   15.7052  -13.6921   21.3712 C   0  0  0  0  0  0  0  0  0  0  0  0
   15.3924  -12.7517   20.3905 C   0  0  0  0  0  0  0  0  0  0  0  0
   14.2728  -11.9275   20.5386 C   0  0  0  0  0  0  0  0  0  0  0  0
   13.4816  -12.0675   21.6852 C   0  0  0  0  0  0  0  0  0  0  0  0
   13.7711  -13.0060   22.6967 C   0  0  0  0  0  0  0  0  0  0  0  0
   16.1611  -12.6421   19.3068 O   0  0  0  0  0  0  0  0  0  0  0  0
   16.9116  -13.1941   19.2070 H   0  0  0  0  0  0  0  0  0  0  0  0
   12.8743  -13.1142   23.9936 C   0  0  0  0  0  0  0  0  0  0  0  0
   13.3284  -13.7620   25.0863 N   0  0  0  0  0  0  0  0  0  0  0  0
   11.6494  -12.5670   24.0217 N   0  0  0  0  0  0  0  0  0  0  0  0
   14.2250  -14.1685   25.0805 H   0  0  0  0  0  0  0  0  0  0  0  0
   11.3046  -12.0912   23.2317 H   0  0  0  0  0  0  0  0  0  0  0  0
   11.0955  -12.6413   24.8321 H   0  0  0  0  0  0  0  0  0  0  0  0
 22 23  2  0  0  0
 22 27  1  0  0  0
 23 24  1  0  0  0
 24 25  2  0  0  0
 24 28  1  0  0  0
 25 26  1  0  0  0
 25 21  1  0  0  0
 26 27  2  0  0  0
 27 30  1  0  0  0
 30 31  2  0  0  0
 30 32  1  0  0  0
 21  1  1  0  0  0
 12 13  1  0  0  0
 12 17  2  0  0  0
 12 20  1  0  0  0
 13 14  2  0  0  0
 14 15  1  0  0  0
 15 16  2  0  0  0
 16 17  1  0  0  0
 17 18  1  0  0  0
 18 19  2  0  0  0
 19 20  1  0  0  0
 19  9  1  0  0  0
  1  2  1  0  0  0
  1  5  1  0  0  0
  2  3  1  0  0  0
  2  6  2  0  0  0
  3  4  1  0  0  0
  3  7  1  0  0  0
  4  5  1  0  0  0
  7  9  1  0  0  0
  9 10  2  0  0  0
  9 11  2  0  0  0
 31 33  1  0  0  0
 32 34  1  0  0  0
 32 35  1  0  0  0
 28 29  1  0  0  0
  7  8  1  0  0  0
M  END
> <minimizedAffinity>
-7.23237

$$$$
1F0T_PR1_A_304


 35 38  0  0  0  0  0  0  0  0999 V2000
   11.8707   -9.6085   21.6117 N   0  0  0  0  0  0  0  0  0  0  0  0
   12.3884   -8.3556   21.6056 C   0  0  0  0  0  0  0  0  0  0  0  0
   11.7375   -7.6022   20.4787 C   0  0  0  0  0  0  0  0  0  0  0  0
   11.3853   -8.7083   19.4961 C   0  0  0  0  0  0  0  0  0  0  0  0
   11.0913   -9.9066   20.3876 C   0  0  0  0  0  0  0  0  0  0  0  0
   13.2291   -7.9124   22.3593 O   0  0  0  0  0  0  0  0  0  0  0  0
   12.4304   -6.7801   19.5662 N   0  0  0  0  0  0  0  0  0  0  0  0
   12.1124   -7.0490   18.6350 H   0  0  0  0  0  0  0  0  0  0  0  0
   12.3181   -5.1664   19.6419 S   0  0  0  0  0  0  0  0  0  0  0  0
   13.3954   -4.7074   18.8220 O   0  0  0  0  0  0  0  0  0  0  0  0
   10.9564   -4.9068   19.3033 O   0  0  0  0  0  0  0  0  0  0  0  0
   12.4618   -4.0500   23.6958 C   0  0  0  0  0  0  0  0  0  0  0  0
   12.2800   -3.6697   25.0177 C   0  0  0  0  0  0  0  0  0  0  0  0
   13.3677   -3.3769   25.8577 C   0  0  0  0  0  0  0  0  0  0  0  0
   14.6983   -3.4598   25.3908 C   0  0  0  0  0  0  0  0  0  0  0  0
   14.9676   -3.8254   24.1098 N   0  0  0  0  0  0  0  0  0  0  0  0
   13.9049   -4.1414   23.1892 C   0  0  0  0  0  0  0  0  0  0  0  0
   13.9447   -4.5220   21.8456 C   0  0  0  0  0  0  0  0  0  0  0  0
   12.6168   -4.7176   21.3133 C   0  0  0  0  0  0  0  0  0  0  0  0
   11.3517   -4.4394   22.4499 S   0  0  0  0  0  0  0  0  0  0  0  0
   12.2224  -10.6531   22.5883 C   0  0  0  0  0  0  0  0  0  0  0  0
   15.2078  -13.4902   21.1238 C   0  0  0  0  0  0  0  0  0  0  0  0
   14.3046  -13.8840   22.1147 C   0  0  0  0  0  0  0  0  0  0  0  0
   13.3430  -12.9947   22.5926 C   0  0  0  0  0  0  0  0  0  0  0  0
   13.2732  -11.6945   22.0833 C   0  0  0  0  0  0  0  0  0  0  0  0
   14.1830  -11.3113   21.0905 C   0  0  0  0  0  0  0  0  0  0  0  0
   15.1655  -12.1862   20.5835 C   0  0  0  0  0  0  0  0  0  0  0  0
   12.4912  -13.3848   23.5410 O   0  0  0  0  0  0  0  0  0  0  0  0
   12.5374  -14.2560   23.8828 H   0  0  0  0  0  0  0  0  0  0  0  0
   16.1555  -11.7299   19.4391 C   0  0  0  0  0  0  0  0  0  0  0  0
   16.5322  -12.5960   18.4759 N   0  0  0  0  0  0  0  0  0  0  0  0
   16.6363  -10.4774   19.4145 N   0  0  0  0  0  0  0  0  0  0  0  0
   16.1877  -13.5182   18.4809 H   0  0  0  0  0  0  0  0  0  0  0  0
   16.3703   -9.8343   20.1108 H   0  0  0  0  0  0  0  0  0  0  0  0
   17.2551  -10.2016   18.7002 H   0  0  0  0  0  0  0  0  0  0  0  0
 22 23  2  0  0  0
 22 27  1  0  0  0
 23 24  1  0  0  0
 24 25  2  0  0  0
 24 28  1  0  0  0
 25 26  1  0  0  0
 25 21  1  0  0  0
 26 27  2  0  0  0
 27 30  1  0  0  0
 30 31  2  0  0  0
 30 32  1  0  0  0
 21  1  1  0  0  0
 12 13  1  0  0  0
 12 17  2  0  0  0
 12 20  1  0  0  0
 13 14  2  0  0  0
 14 15  1  0  0  0
 15 16  2  0  0  0
 16 17  1  0  0  0
 17 18  1  0  0  0
 18 19  2  0  0  0
 19 20  1  0  0  0
 19  9  1  0  0  0
  1  2  1  0  0  0
  1  5  1  0  0  0
  2  3  1  0  0  0
  2  6  2  0  0  0
  3  4  1  0  0  0
  3  7  1  0  0  0
  4  5  1  0  0  0
  7  9  1  0  0  0
  9 10  2  0  0  0
  9 11  2  0  0  0
 31 33  1  0  0  0
 32 34  1  0  0  0
 32 35  1  0  0  0
 28 29  1  0  0  0
  7  8  1  0  0  0
M  END
> <minimizedAffinity>
-7.11447

$$$$
1F0T_PR1_A_304


 35 38  0  0  0  0  0  0  0  0999 V2000
   10.9955  -10.2865   21.0702 N   0  0  0  0  0  0  0  0  0  0  0  0
   11.5307   -9.2990   20.3111 C   0  0  0  0  0  0  0  0  0  0  0  0
   11.1867   -7.9889   20.9641 C   0  0  0  0  0  0  0  0  0  0  0  0
    9.8904   -8.3084   21.6927 C   0  0  0  0  0  0  0  0  0  0  0  0
   10.0432   -9.7721   22.0817 C   0  0  0  0  0  0  0  0  0  0  0  0
   12.1656   -9.4325   19.2862 O   0  0  0  0  0  0  0  0  0  0  0  0
   10.7160   -6.8540   20.2720 N   0  0  0  0  0  0  0  0  0  0  0  0
    9.9024   -6.5176   20.7870 H   0  0  0  0  0  0  0  0  0  0  0  0
   11.6694   -5.5680   20.0280 S   0  0  0  0  0  0  0  0  0  0  0  0
   12.8000   -6.1038   19.3364 O   0  0  0  0  0  0  0  0  0  0  0  0
   10.8006   -4.6152   19.4168 O   0  0  0  0  0  0  0  0  0  0  0  0
   12.2975   -4.2340   23.9684 C   0  0  0  0  0  0  0  0  0  0  0  0
   12.2764   -3.8127   25.2902 C   0  0  0  0  0  0  0  0  0  0  0  0
   13.4328   -3.3379   25.9320 C   0  0  0  0  0  0  0  0  0  0  0  0
   14.6717   -3.2713   25.2566 C   0  0  0  0  0  0  0  0  0  0  0  0
   14.7828   -3.6646   23.9605 N   0  0  0  0  0  0  0  0  0  0  0  0
   13.6413   -4.1633   23.2358 C   0  0  0  0  0  0  0  0  0  0  0  0
   13.5201   -4.6045   21.9159 C   0  0  0  0  0  0  0  0  0  0  0  0
   12.1642   -4.9982   21.6138 C   0  0  0  0  0  0  0  0  0  0  0  0
   11.0683   -4.8284   22.9329 S   0  0  0  0  0  0  0  0  0  0  0  0
   11.1375  -11.7253   20.7905 C   0  0  0  0  0  0  0  0  0  0  0  0
   15.0094  -13.4299   21.8901 C   0  0  0  0  0  0  0  0  0  0  0  0
   14.7529  -13.0939   20.5581 C   0  0  0  0  0  0  0  0  0  0  0  0
   13.5254  -12.5461   20.1880 C   0  0  0  0  0  0  0  0  0  0  0  0
   12.5346  -12.3274   21.1500 C   0  0  0  0  0  0  0  0  0  0  0  0
   12.8031  -12.6676   22.4813 C   0  0  0  0  0  0  0  0  0  0  0  0
   14.0341  -13.2204   22.8896 C   0  0  0  0  0  0  0  0  0  0  0  0
   13.2950  -12.2348   18.9124 O   0  0  0  0  0  0  0  0  0  0  0  0
   13.9586  -12.3811   18.2672 H   0  0  0  0  0  0  0  0  0  0  0  0
   14.3146  -13.5623   24.4070 C   0  0  0  0  0  0  0  0  0  0  0  0
   13.3038  -13.9221   25.2246 N   0  0  0  0  0  0  0  0  0  0  0  0
   15.5605  -13.4945   24.9007 N   0  0  0  0  0  0  0  0  0  0  0  0
   12.3845  -13.9761   24.8764 H   0  0  0  0  0  0  0  0  0  0  0  0
   16.3082  -13.2333   24.3160 H   0  0  0  0  0  0  0  0  0  0  0  0
   15.7268  -13.7059   25.8478 H   0  0  0  0  0  0  0  0  0  0  0  0
 22 23  2  0  0  0
 22 27  1  0  0  0
 23 24  1  0  0  0
 24 25  2  0  0  0
 24 28  1  0  0  0
 25 26  1  0  0  0
 25 21  1  0  0  0
 26 27  2  0  0  0
 27 30  1  0  0  0
 30 31  2  0  0  0
 30 32  1  0  0  0
 21  1  1  0  0  0
 12 13  1  0  0  0
 12 17  2  0  0  0
 12 20  1  0  0  0
 13 14  2  0  0  0
 14 15  1  0  0  0
 15 16  2  0  0  0
 16 17  1  0  0  0
 17 18  1  0  0  0
 18 19  2  0  0  0
 19 20  1  0  0  0
 19  9  1  0  0  0
  1  2  1  0  0  0
  1  5  1  0  0  0
  2  3  1  0  0  0
  2  6  2  0  0  0
  3  4  1  0  0  0
  3  7  1  0  0  0
  4  5  1  0  0  0
  7  9  1  0  0  0
  9 10  2  0  0  0
  9 11  2  0  0  0
 31 33  1  0  0  0
 32 34  1  0  0  0
 32 35  1  0  0  0
 28 29  1  0  0  0
  7  8  1  0  0  0
M  END
> <minimizedAffinity>
-7.05344

$$$$
1F0T_PR1_A_304


 35 38  0  0  0  0  0  0  0  0999 V2000
   10.7808   -7.3514   21.6712 N   0  0  0  0  0  0  0  0  0  0  0  0
    9.7588   -8.1426   22.0806 C   0  0  0  0  0  0  0  0  0  0  0  0
   10.2621   -9.5594   22.0984 C   0  0  0  0  0  0  0  0  0  0  0  0
   11.3514   -9.5410   21.0372 C   0  0  0  0  0  0  0  0  0  0  0  0
   11.9140   -8.1289   21.1182 C   0  0  0  0  0  0  0  0  0  0  0  0
    8.6366   -7.7875   22.3739 O   0  0  0  0  0  0  0  0  0  0  0  0
    9.5486  -10.6640   21.5889 N   0  0  0  0  0  0  0  0  0  0  0  0
   10.1485  -11.0972   20.8868 H   0  0  0  0  0  0  0  0  0  0  0  0
    9.0454  -11.8561   22.5624 S   0  0  0  0  0  0  0  0  0  0  0  0
    8.6020  -11.1759   23.7389 O   0  0  0  0  0  0  0  0  0  0  0  0
    8.1448  -12.6020   21.7446 O   0  0  0  0  0  0  0  0  0  0  0  0
   12.2436  -14.5443   23.0585 C   0  0  0  0  0  0  0  0  0  0  0  0
   13.1952  -15.5541   23.0575 C   0  0  0  0  0  0  0  0  0  0  0  0
   14.2354  -15.5889   24.0016 C   0  0  0  0  0  0  0  0  0  0  0  0
   14.3583  -14.5918   24.9947 C   0  0  0  0  0  0  0  0  0  0  0  0
   13.4703  -13.5657   25.0681 N   0  0  0  0  0  0  0  0  0  0  0  0
   12.3773  -13.4618   24.1346 C   0  0  0  0  0  0  0  0  0  0  0  0
   11.3537  -12.5170   24.0296 C   0  0  0  0  0  0  0  0  0  0  0  0
   10.4578  -12.8288   22.9410 C   0  0  0  0  0  0  0  0  0  0  0  0
   10.8753  -14.2550   22.0684 S   0  0  0  0  0  0  0  0  0  0  0  0
   10.7068   -5.8854   21.5531 C   0  0  0  0  0  0  0  0  0  0  0  0
   13.8472   -3.7362   23.7036 C   0  0  0  0  0  0  0  0  0  0  0  0
   14.0168   -4.0396   22.3501 C   0  0  0  0  0  0  0  0  0  0  0  0
   13.0253   -4.7215   21.6459 C   0  0  0  0  0  0  0  0  0  0  0  0
   11.8471   -5.1108   22.2902 C   0  0  0  0  0  0  0  0  0  0  0  0
   11.6882   -4.8010   23.6463 C   0  0  0  0  0  0  0  0  0  0  0  0
   12.6694   -4.1105   24.3867 C   0  0  0  0  0  0  0  0  0  0  0  0
   13.2042   -5.0069   20.3560 O   0  0  0  0  0  0  0  0  0  0  0  0
   13.9936   -4.7463   19.9237 H   0  0  0  0  0  0  0  0  0  0  0  0
   12.4424   -3.7488   25.9084 C   0  0  0  0  0  0  0  0  0  0  0  0
   13.4951   -3.5745   26.7337 N   0  0  0  0  0  0  0  0  0  0  0  0
   11.2003   -3.6151   26.3982 N   0  0  0  0  0  0  0  0  0  0  0  0
   14.4123   -3.6694   26.3886 H   0  0  0  0  0  0  0  0  0  0  0  0
   10.4223   -3.7394   25.8078 H   0  0  0  0  0  0  0  0  0  0  0  0
   11.0670   -3.3927   27.3480 H   0  0  0  0  0  0  0  0  0  0  0  0
 22 23  2  0  0  0
 22 27  1  0  0  0
 23 24  1  0  0  0
 24 25  2  0  0  0
 24 28  1  0  0  0
 25 26  1  0  0  0
 25 21  1  0  0  0
 26 27  2  0  0  0
 27 30  1  0  0  0
 30 31  2  0  0  0
 30 32  1  0  0  0
 21  1  1  0  0  0
 12 13  1  0  0  0
 12 17  2  0  0  0
 12 20  1  0  0  0
 13 14  2  0  0  0
 14 15  1  0  0  0
 15 16  2  0  0  0
 16 17  1  0  0  0
 17 18  1  0  0  0
 18 19  2  0  0  0
 19 20  1  0  0  0
 19  9  1  0  0  0
  1  2  1  0  0  0
  1  5  1  0  0  0
  2  3  1  0  0  0
  2  6  2  0  0  0
  3  4  1  0  0  0
  3  7  1  0  0  0
  4  5  1  0  0  0
  7  9  1  0  0  0
  9 10  2  0  0  0
  9 11  2  0  0  0
 31 33  1  0  0  0
 32 34  1  0  0  0
 32 35  1  0  0  0
 28 29  1  0  0  0
  7  8  1  0  0  0
M  END
> <minimizedAffinity>
-7.00976

$$$$
1F0T_PR1_A_304


 35 38  0  0  0  0  0  0  0  0999 V2000
   14.3460  -11.0261   21.0652 N   0  0  0  0  0  0  0  0  0  0  0  0
   14.5526   -9.9562   20.2586 C   0  0  0  0  0  0  0  0  0  0  0  0
   13.8932   -8.7687   20.9038 C   0  0  0  0  0  0  0  0  0  0  0  0
   12.7708   -9.4055   21.7086 C   0  0  0  0  0  0  0  0  0  0  0  0
   13.3381  -10.7576   22.1172 C   0  0  0  0  0  0  0  0  0  0  0  0
   15.1504   -9.9456   19.2032 O   0  0  0  0  0  0  0  0  0  0  0  0
   13.0965   -7.8298   20.2165 N   0  0  0  0  0  0  0  0  0  0  0  0
   12.1863   -7.8302   20.6769 H   0  0  0  0  0  0  0  0  0  0  0  0
   13.5487   -6.2797   20.0934 S   0  0  0  0  0  0  0  0  0  0  0  0
   14.9326   -6.3515   19.7429 O   0  0  0  0  0  0  0  0  0  0  0  0
   12.5809   -5.7153   19.2097 O   0  0  0  0  0  0  0  0  0  0  0  0
   12.5889   -4.7202   23.8813 C   0  0  0  0  0  0  0  0  0  0  0  0
   12.0559   -4.2641   25.0784 C   0  0  0  0  0  0  0  0  0  0  0  0
   12.8374   -3.5692   26.0169 C   0  0  0  0  0  0  0  0  0  0  0  0
   14.2052   -3.3063   25.7815 C   0  0  0  0  0  0  0  0  0  0  0  0
   14.8086   -3.7179   24.6354 N   0  0  0  0  0  0  0  0  0  0  0  0
   14.0727   -4.4366   23.6261 C   0  0  0  0  0  0  0  0  0  0  0  0
   14.4761   -4.9375   22.3860 C   0  0  0  0  0  0  0  0  0  0  0  0
   13.3817   -5.5767   21.6941 C   0  0  0  0  0  0  0  0  0  0  0  0
   11.8918   -5.5594   22.5598 S   0  0  0  0  0  0  0  0  0  0  0  0
   14.8645  -12.3799   20.8064 C   0  0  0  0  0  0  0  0  0  0  0  0
   12.9131  -15.5444   23.1051 C   0  0  0  0  0  0  0  0  0  0  0  0
   12.3938  -15.1685   21.8634 C   0  0  0  0  0  0  0  0  0  0  0  0
   13.0037  -14.1637   21.1137 C   0  0  0  0  0  0  0  0  0  0  0  0
   14.1454  -13.5191   21.5994 C   0  0  0  0  0  0  0  0  0  0  0  0
   14.6570  -13.9044   22.8444 C   0  0  0  0  0  0  0  0  0  0  0  0
   14.0665  -14.9181   23.6263 C   0  0  0  0  0  0  0  0  0  0  0  0
   12.4934  -13.8140   19.9328 O   0  0  0  0  0  0  0  0  0  0  0  0
   11.7283  -14.2455   19.6067 H   0  0  0  0  0  0  0  0  0  0  0  0
   14.6900  -15.3500   25.0129 C   0  0  0  0  0  0  0  0  0  0  0  0
   14.5687  -16.6202   25.4508 N   0  0  0  0  0  0  0  0  0  0  0  0
   15.3435  -14.4576   25.7727 N   0  0  0  0  0  0  0  0  0  0  0  0
   14.0920  -17.2859   24.9042 H   0  0  0  0  0  0  0  0  0  0  0  0
   15.4399  -13.5270   25.4662 H   0  0  0  0  0  0  0  0  0  0  0  0
   15.7265  -14.7335   26.6367 H   0  0  0  0  0  0  0  0  0  0  0  0
 22 23  2  0  0  0
 22 27  1  0  0  0
 23 24  1  0  0  0
 24 25  2  0  0  0
 24 28  1  0  0  0
 25 26  1  0  0  0
 25 21  1  0  0  0
 26 27  2  0  0  0
 27 30  1  0  0  0
 30 31  2  0  0  0
 30 32  1  0  0  0
 21  1  1  0  0  0
 12 13  1  0  0  0
 12 17  2  0  0  0
 12 20  1  0  0  0
 13 14  2  0  0  0
 14 15  1  0  0  0
 15 16  2  0  0  0
 16 17  1  0  0  0
 17 18  1  0  0  0
 18 19  2  0  0  0
 19 20  1  0  0  0
 19  9  1  0  0  0
  1  2  1  0  0  0
  1  5  1  0  0  0
  2  3  1  0  0  0
  2  6  2  0  0  0
  3  4  1  0  0  0
  3  7  1  0  0  0
  4  5  1  0  0  0
  7  9  1  0  0  0
  9 10  2  0  0  0
  9 11  2  0  0  0
 31 33  1  0  0  0
 32 34  1  0  0  0
 32 35  1  0  0  0
 28 29  1  0  0  0
  7  8  1  0  0  0
M  END
> <minimizedAffinity>
-6.96367

$$$$
