2E91_ZOL_A_901


 21 21  0  0  0  0  0  0  0  0999 V2000
   28.7379   46.3724    5.8736 C   0  0  0  0  0  0  0  0  0  0  0  0
   29.0019   47.6932    5.3900 O   0  0  0  0  0  0  0  0  0  0  0  0
   28.8602   47.7206    4.4308 H   0  0  0  0  0  0  0  0  0  0  0  0
   29.1904   43.7659    5.1351 O   0  0  0  0  0  0  0  0  0  0  0  0
   29.9010   45.2006    5.0135 P   0  0  0  0  0  0  0  0  0  0  0  0
   29.8529   45.7043    3.4791 O   0  0  0  0  0  0  0  0  0  0  0  0
   31.2492   45.1902    5.6278 O   0  0  0  0  0  0  0  0  0  0  0  0
   29.7425   43.0942    4.7051 H   0  0  0  0  0  0  0  0  0  0  0  0
   30.4358   45.1489    2.9381 H   0  0  0  0  0  0  0  0  0  0  0  0
   27.0209   45.8446    5.3578 P   0  0  0  0  0  0  0  0  0  0  0  0
   27.1214   45.4528    3.8020 O   0  0  0  0  0  0  0  0  0  0  0  0
   26.6946   44.5137    6.1991 O   0  0  0  0  0  0  0  0  0  0  0  0
   26.0678   46.9617    5.5850 O   0  0  0  0  0  0  0  0  0  0  0  0
   27.7506   44.7227    3.6925 H   0  0  0  0  0  0  0  0  0  0  0  0
   27.3567   43.8338    5.9984 H   0  0  0  0  0  0  0  0  0  0  0  0
   28.9456   46.2673    7.3875 C   0  0  0  0  0  0  0  0  0  0  0  0
   29.0533   47.5857    8.0363 N   0  0  0  0  0  0  0  0  0  0  0  0
   28.0400   48.3006    8.5072 C   0  0  0  0  0  0  0  0  0  0  0  0
   28.5658   49.4472    8.9420 N   0  0  0  0  0  0  0  0  0  0  0  0
   29.8809   49.4358    8.7347 C   0  0  0  0  0  0  0  0  0  0  0  0
   30.1870   48.2700    8.1687 C   0  0  0  0  0  0  0  0  0  0  0  0
  4  5  1  0  0  0
  5  6  1  0  0  0
  5  7  2  0  0  0
  5  1  1  0  0  0
  1 10  1  0  0  0
  1  2  1  0  0  0
  1 16  1  0  0  0
 10 11  1  0  0  0
 10 12  1  0  0  0
 10 13  2  0  0  0
 16 17  1  0  0  0
 17 18  1  0  0  0
 17 21  1  0  0  0
 18 19  2  0  0  0
 19 20  1  0  0  0
 20 21  2  0  0  0
  4  8  1  0  0  0
  6  9  1  0  0  0
 11 14  1  0  0  0
 12 15  1  0  0  0
  2  3  1  0  0  0
M  END
> <minimizedAffinity>
-7.65061

$$$$
2E91_ZOL_A_901


 21 21  0  0  0  0  0  0  0  0999 V2000
   28.6443   46.6060    7.2657 C   0  0  0  0  0  0  0  0  0  0  0  0
   29.3325   45.4458    7.7434 O   0  0  0  0  0  0  0  0  0  0  0  0
   29.3217   44.7588    7.0587 H   0  0  0  0  0  0  0  0  0  0  0  0
   27.0139   44.6191    6.2972 O   0  0  0  0  0  0  0  0  0  0  0  0
   26.8930   46.1146    6.8690 P   0  0  0  0  0  0  0  0  0  0  0  0
   26.1870   46.0871    8.3219 O   0  0  0  0  0  0  0  0  0  0  0  0
   26.2614   47.0216    5.8822 O   0  0  0  0  0  0  0  0  0  0  0  0
   26.1317   44.2894    6.0651 H   0  0  0  0  0  0  0  0  0  0  0  0
   25.2548   45.8374    8.2237 H   0  0  0  0  0  0  0  0  0  0  0  0
   29.3907   47.1576    5.6436 P   0  0  0  0  0  0  0  0  0  0  0  0
   28.9724   46.0483    4.5581 O   0  0  0  0  0  0  0  0  0  0  0  0
   28.6613   48.5404    5.2672 O   0  0  0  0  0  0  0  0  0  0  0  0
   30.8661   47.2625    5.7851 O   0  0  0  0  0  0  0  0  0  0  0  0
   28.0054   46.0081    4.4930 H   0  0  0  0  0  0  0  0  0  0  0  0
   27.7056   48.3920    5.1928 H   0  0  0  0  0  0  0  0  0  0  0  0
   28.6284   47.7289    8.3073 C   0  0  0  0  0  0  0  0  0  0  0  0
   29.6148   47.5179    9.3812 N   0  0  0  0  0  0  0  0  0  0  0  0
   29.3696   46.9526   10.5559 C   0  0  0  0  0  0  0  0  0  0  0  0
   30.5086   47.0251   11.2471 N   0  0  0  0  0  0  0  0  0  0  0  0
   31.4353   47.6310   10.5077 C   0  0  0  0  0  0  0  0  0  0  0  0
   30.8766   47.9388    9.3388 C   0  0  0  0  0  0  0  0  0  0  0  0
  4  5  1  0  0  0
  5  6  1  0  0  0
  5  7  2  0  0  0
  5  1  1  0  0  0
  1 10  1  0  0  0
  1  2  1  0  0  0
  1 16  1  0  0  0
 10 11  1  0  0  0
 10 12  1  0  0  0
 10 13  2  0  0  0
 16 17  1  0  0  0
 17 18  1  0  0  0
 17 21  1  0  0  0
 18 19  2  0  0  0
 19 20  1  0  0  0
 20 21  2  0  0  0
  4  8  1  0  0  0
  6  9  1  0  0  0
 11 14  1  0  0  0
 12 15  1  0  0  0
  2  3  1  0  0  0
M  END
> <minimizedAffinity>
-7.50189

$$$$
2E91_ZOL_A_901


 21 21  0  0  0  0  0  0  0  0999 V2000
   28.5010   46.5272    7.2648 C   0  0  0  0  0  0  0  0  0  0  0  0
   29.1508   45.3502    7.7551 O   0  0  0  0  0  0  0  0  0  0  0  0
   29.1542   44.6707    7.0629 H   0  0  0  0  0  0  0  0  0  0  0  0
   26.8780   44.5874    6.1939 O   0  0  0  0  0  0  0  0  0  0  0  0
   26.7579   46.0706    6.7970 P   0  0  0  0  0  0  0  0  0  0  0  0
   26.0020   46.0190    8.2239 O   0  0  0  0  0  0  0  0  0  0  0  0
   26.1730   47.0095    5.8114 O   0  0  0  0  0  0  0  0  0  0  0  0
   25.9999   44.2760    5.9240 H   0  0  0  0  0  0  0  0  0  0  0  0
   25.0704   45.7853    8.0880 H   0  0  0  0  0  0  0  0  0  0  0  0
   29.3176   47.0827    5.6783 P   0  0  0  0  0  0  0  0  0  0  0  0
   28.5911   48.4534    5.2569 O   0  0  0  0  0  0  0  0  0  0  0  0
   30.8456   47.4106    6.0571 O   0  0  0  0  0  0  0  0  0  0  0  0
   29.1561   46.0311    4.6410 O   0  0  0  0  0  0  0  0  0  0  0  0
   28.7174   49.1142    5.9556 H   0  0  0  0  0  0  0  0  0  0  0  0
   30.8689   48.1025    6.7365 H   0  0  0  0  0  0  0  0  0  0  0  0
   28.4649   47.6392    8.3176 C   0  0  0  0  0  0  0  0  0  0  0  0
   29.0349   47.2147    9.6081 N   0  0  0  0  0  0  0  0  0  0  0  0
   30.3190   47.2597    9.9382 C   0  0  0  0  0  0  0  0  0  0  0  0
   30.4079   46.7203   11.1554 N   0  0  0  0  0  0  0  0  0  0  0  0
   29.1964   46.3459   11.5613 C   0  0  0  0  0  0  0  0  0  0  0  0
   28.3362   46.6561   10.5934 C   0  0  0  0  0  0  0  0  0  0  0  0
  4  5  1  0  0  0
  5  6  1  0  0  0
  5  7  2  0  0  0
  5  1  1  0  0  0
  1 10  1  0  0  0
  1  2  1  0  0  0
  1 16  1  0  0  0
 10 11  1  0  0  0
 10 12  1  0  0  0
 10 13  2  0  0  0
 16 17  1  0  0  0
 17 18  1  0  0  0
 17 21  1  0  0  0
 18 19  2  0  0  0
 19 20  1  0  0  0
 20 21  2  0  0  0
  4  8  1  0  0  0
  6  9  1  0  0  0
 11 14  1  0  0  0
 12 15  1  0  0  0
  2  3  1  0  0  0
M  END
> <minimizedAffinity>
-7.39021

$$$$
2E91_ZOL_A_901


 21 21  0  0  0  0  0  0  0  0999 V2000
   28.3823   46.9082    7.1986 C   0  0  0  0  0  0  0  0  0  0  0  0
   28.1473   48.1657    7.8399 O   0  0  0  0  0  0  0  0  0  0  0  0
   27.6049   48.7263    7.2634 H   0  0  0  0  0  0  0  0  0  0  0  0
   28.6629   48.6305    5.0775 O   0  0  0  0  0  0  0  0  0  0  0  0
   29.2683   47.2362    5.5945 P   0  0  0  0  0  0  0  0  0  0  0  0
   30.7998   47.4475    6.0637 O   0  0  0  0  0  0  0  0  0  0  0  0
   29.0601   46.1552    4.6028 O   0  0  0  0  0  0  0  0  0  0  0  0
   29.0800   48.8718    4.2357 H   0  0  0  0  0  0  0  0  0  0  0  0
   31.3536   47.6277    5.2880 H   0  0  0  0  0  0  0  0  0  0  0  0
   26.7514   46.1303    6.7215 P   0  0  0  0  0  0  0  0  0  0  0  0
   26.2279   46.9407    5.4357 O   0  0  0  0  0  0  0  0  0  0  0  0
   27.0930   44.6248    6.2713 O   0  0  0  0  0  0  0  0  0  0  0  0
   25.8015   46.2283    7.8599 O   0  0  0  0  0  0  0  0  0  0  0  0
   26.8714   46.8544    4.7151 H   0  0  0  0  0  0  0  0  0  0  0  0
   27.7154   44.6430    5.5276 H   0  0  0  0  0  0  0  0  0  0  0  0
   29.2365   45.9772    8.0645 C   0  0  0  0  0  0  0  0  0  0  0  0
   29.2256   46.3602    9.4871 N   0  0  0  0  0  0  0  0  0  0  0  0
   30.1404   47.1049   10.0941 C   0  0  0  0  0  0  0  0  0  0  0  0
   29.7894   47.1475   11.3807 N   0  0  0  0  0  0  0  0  0  0  0  0
   28.6791   46.4346   11.5587 C   0  0  0  0  0  0  0  0  0  0  0  0
   28.3250   45.9424   10.3732 C   0  0  0  0  0  0  0  0  0  0  0  0
  4  5  1  0  0  0
  5  6  1  0  0  0
  5  7  2  0  0  0
  5  1  1  0  0  0
  1 10  1  0  0  0
  1  2  1  0  0  0
  1 16  1  0  0  0
 10 11  1  0  0  0
 10 12  1  0  0  0
 10 13  2  0  0  0
 16 17  1  0  0  0
 17 18  1  0  0  0
 17 21  1  0  0  0
 18 19  2  0  0  0
 19 20  1  0  0  0
 20 21  2  0  0  0
  4  8  1  0  0  0
  6  9  1  0  0  0
 11 14  1  0  0  0
 12 15  1  0  0  0
  2  3  1  0  0  0
M  END
> <minimizedAffinity>
-7.32817

$$$$
2E91_ZOL_A_901


 21 21  0  0  0  0  0  0  0  0999 V2000
   28.8257   46.2232    7.2162 C   0  0  0  0  0  0  0  0  0  0  0  0
   29.1411   45.4917    8.4051 O   0  0  0  0  0  0  0  0  0  0  0  0
   28.8966   44.5606    8.2863 H   0  0  0  0  0  0  0  0  0  0  0  0
   26.8196   44.6193    6.2431 O   0  0  0  0  0  0  0  0  0  0  0  0
   26.9956   46.0680    6.9127 P   0  0  0  0  0  0  0  0  0  0  0  0
   26.3807   46.0562    8.4067 O   0  0  0  0  0  0  0  0  0  0  0  0
   26.4765   47.1386    6.0297 O   0  0  0  0  0  0  0  0  0  0  0  0
   25.8814   44.4627    6.0531 H   0  0  0  0  0  0  0  0  0  0  0  0
   25.4151   45.9771    8.3583 H   0  0  0  0  0  0  0  0  0  0  0  0
   29.6489   45.4178    5.7444 P   0  0  0  0  0  0  0  0  0  0  0  0
   29.3831   43.8392    5.8911 O   0  0  0  0  0  0  0  0  0  0  0  0
   28.8594   45.9499    4.4485 O   0  0  0  0  0  0  0  0  0  0  0  0
   31.1004   45.7358    5.7505 O   0  0  0  0  0  0  0  0  0  0  0  0
   28.4280   43.6701    5.8832 H   0  0  0  0  0  0  0  0  0  0  0  0
   27.9233   45.7052    4.5171 H   0  0  0  0  0  0  0  0  0  0  0  0
   29.1909   47.7051    7.3447 C   0  0  0  0  0  0  0  0  0  0  0  0
   29.8460   48.0169    8.6270 N   0  0  0  0  0  0  0  0  0  0  0  0
   29.2393   48.4769    9.7133 C   0  0  0  0  0  0  0  0  0  0  0  0
   30.2012   48.6885   10.6135 N   0  0  0  0  0  0  0  0  0  0  0  0
   31.3796   48.3678   10.0833 C   0  0  0  0  0  0  0  0  0  0  0  0
   31.1578   47.9461    8.8399 C   0  0  0  0  0  0  0  0  0  0  0  0
  4  5  1  0  0  0
  5  6  1  0  0  0
  5  7  2  0  0  0
  5  1  1  0  0  0
  1 10  1  0  0  0
  1  2  1  0  0  0
  1 16  1  0  0  0
 10 11  1  0  0  0
 10 12  1  0  0  0
 10 13  2  0  0  0
 16 17  1  0  0  0
 17 18  1  0  0  0
 17 21  1  0  0  0
 18 19  2  0  0  0
 19 20  1  0  0  0
 20 21  2  0  0  0
  4  8  1  0  0  0
  6  9  1  0  0  0
 11 14  1  0  0  0
 12 15  1  0  0  0
  2  3  1  0  0  0
M  END
> <minimizedAffinity>
-7.26857

$$$$
2E91_ZOL_A_901


 21 21  0  0  0  0  0  0  0  0999 V2000
   28.5455   45.8400    5.8933 C   0  0  0  0  0  0  0  0  0  0  0  0
   29.1649   45.1053    6.9536 O   0  0  0  0  0  0  0  0  0  0  0  0
   28.8418   44.1907    6.9450 H   0  0  0  0  0  0  0  0  0  0  0  0
   26.2489   44.3561    5.6325 O   0  0  0  0  0  0  0  0  0  0  0  0
   26.7041   45.8011    6.1644 P   0  0  0  0  0  0  0  0  0  0  0  0
   26.5741   45.8553    7.7738 O   0  0  0  0  0  0  0  0  0  0  0  0
   26.0035   46.8886    5.4420 O   0  0  0  0  0  0  0  0  0  0  0  0
   25.2900   44.2587    5.7415 H   0  0  0  0  0  0  0  0  0  0  0  0
   25.6368   45.8394    8.0232 H   0  0  0  0  0  0  0  0  0  0  0  0
   28.8324   44.9629    4.2682 P   0  0  0  0  0  0  0  0  0  0  0  0
   27.5027   45.1927    3.3945 O   0  0  0  0  0  0  0  0  0  0  0  0
   30.0503   45.7350    3.5565 O   0  0  0  0  0  0  0  0  0  0  0  0
   29.0852   43.5204    4.5193 O   0  0  0  0  0  0  0  0  0  0  0  0
   27.3702   46.1428    3.2511 H   0  0  0  0  0  0  0  0  0  0  0  0
   29.8112   46.6660    3.4268 H   0  0  0  0  0  0  0  0  0  0  0  0
   29.0183   47.2964    5.8565 C   0  0  0  0  0  0  0  0  0  0  0  0
   29.8700   47.6435    7.0075 N   0  0  0  0  0  0  0  0  0  0  0  0
   31.1926   47.5489    7.0469 C   0  0  0  0  0  0  0  0  0  0  0  0
   31.5519   47.8910    8.2855 N   0  0  0  0  0  0  0  0  0  0  0  0
   30.4643   48.1851    8.9948 C   0  0  0  0  0  0  0  0  0  0  0  0
   29.4109   48.0314    8.1949 C   0  0  0  0  0  0  0  0  0  0  0  0
  4  5  1  0  0  0
  5  6  1  0  0  0
  5  7  2  0  0  0
  5  1  1  0  0  0
  1 10  1  0  0  0
  1  2  1  0  0  0
  1 16  1  0  0  0
 10 11  1  0  0  0
 10 12  1  0  0  0
 10 13  2  0  0  0
 16 17  1  0  0  0
 17 18  1  0  0  0
 17 21  1  0  0  0
 18 19  2  0  0  0
 19 20  1  0  0  0
 20 21  2  0  0  0
  4  8  1  0  0  0
  6  9  1  0  0  0
 11 14  1  0  0  0
 12 15  1  0  0  0
  2  3  1  0  0  0
M  END
> <minimizedAffinity>
-7.04890

$$$$
2E91_ZOL_A_901


 21 21  0  0  0  0  0  0  0  0999 V2000
   28.7639   45.4175    5.1348 C   0  0  0  0  0  0  0  0  0  0  0  0
   29.1894   44.3832    6.0276 O   0  0  0  0  0  0  0  0  0  0  0  0
   29.0076   44.6505    6.9421 H   0  0  0  0  0  0  0  0  0  0  0  0
   28.6787   48.1605    5.2474 O   0  0  0  0  0  0  0  0  0  0  0  0
   29.7067   46.9664    5.5563 P   0  0  0  0  0  0  0  0  0  0  0  0
   29.9252   46.8342    7.1515 O   0  0  0  0  0  0  0  0  0  0  0  0
   30.9503   47.1045    4.7626 O   0  0  0  0  0  0  0  0  0  0  0  0
   29.1020   49.0107    5.4447 H   0  0  0  0  0  0  0  0  0  0  0  0
   30.4157   47.6057    7.4757 H   0  0  0  0  0  0  0  0  0  0  0  0
   26.9669   45.8219    5.4505 P   0  0  0  0  0  0  0  0  0  0  0  0
   26.2177   44.4126    5.6418 O   0  0  0  0  0  0  0  0  0  0  0  0
   26.9296   46.6136    6.8497 O   0  0  0  0  0  0  0  0  0  0  0  0
   26.4193   46.5862    4.2999 O   0  0  0  0  0  0  0  0  0  0  0  0
   26.6004   43.9432    6.3995 H   0  0  0  0  0  0  0  0  0  0  0  0
   27.3015   46.0529    7.5484 H   0  0  0  0  0  0  0  0  0  0  0  0
   29.0263   45.0509    3.6710 C   0  0  0  0  0  0  0  0  0  0  0  0
   28.7752   43.6264    3.3911 N   0  0  0  0  0  0  0  0  0  0  0  0
   29.6658   42.6490    3.4973 C   0  0  0  0  0  0  0  0  0  0  0  0
   29.0495   41.5396    3.0852 N   0  0  0  0  0  0  0  0  0  0  0  0
   27.8018   41.8355    2.7270 C   0  0  0  0  0  0  0  0  0  0  0  0
   27.6291   43.1417    2.9194 C   0  0  0  0  0  0  0  0  0  0  0  0
  4  5  1  0  0  0
  5  6  1  0  0  0
  5  7  2  0  0  0
  5  1  1  0  0  0
  1 10  1  0  0  0
  1  2  1  0  0  0
  1 16  1  0  0  0
 10 11  1  0  0  0
 10 12  1  0  0  0
 10 13  2  0  0  0
 16 17  1  0  0  0
 17 18  1  0  0  0
 17 21  1  0  0  0
 18 19  2  0  0  0
 19 20  1  0  0  0
 20 21  2  0  0  0
  4  8  1  0  0  0
  6  9  1  0  0  0
 11 14  1  0  0  0
 12 15  1  0  0  0
  2  3  1  0  0  0
M  END
> <minimizedAffinity>
-6.91289

$$$$
2E91_ZOL_A_901


 21 21  0  0  0  0  0  0  0  0999 V2000
   28.4495   42.6106    1.9295 C   0  0  0  0  0  0  0  0  0  0  0  0
   28.1171   42.7602    0.5457 O   0  0  0  0  0  0  0  0  0  0  0  0
   27.2624   43.2119    0.4654 H   0  0  0  0  0  0  0  0  0  0  0  0
   26.4511   42.6021    3.8136 O   0  0  0  0  0  0  0  0  0  0  0  0
   27.1076   41.6059    2.7391 P   0  0  0  0  0  0  0  0  0  0  0  0
   26.0686   41.3481    1.5290 O   0  0  0  0  0  0  0  0  0  0  0  0
   27.6318   40.3808    3.3869 O   0  0  0  0  0  0  0  0  0  0  0  0
   25.7348   42.1457    4.2822 H   0  0  0  0  0  0  0  0  0  0  0  0
   25.3194   40.8236    1.8524 H   0  0  0  0  0  0  0  0  0  0  0  0
   28.4054   44.2784    2.7715 P   0  0  0  0  0  0  0  0  0  0  0  0
   29.5495   45.1641    2.0709 O   0  0  0  0  0  0  0  0  0  0  0  0
   26.9741   44.9182    2.4137 O   0  0  0  0  0  0  0  0  0  0  0  0
   28.6532   44.1078    4.2266 O   0  0  0  0  0  0  0  0  0  0  0  0
   29.3550   45.2538    1.1248 H   0  0  0  0  0  0  0  0  0  0  0  0
   26.8870   44.9975    1.4509 H   0  0  0  0  0  0  0  0  0  0  0  0
   29.7937   41.9014    2.1197 C   0  0  0  0  0  0  0  0  0  0  0  0
   30.2013   41.1338    0.9300 N   0  0  0  0  0  0  0  0  0  0  0  0
   29.8234   39.8951    0.6425 C   0  0  0  0  0  0  0  0  0  0  0  0
   30.4720   39.5595   -0.4742 N   0  0  0  0  0  0  0  0  0  0  0  0
   31.2396   40.5763   -0.8607 C   0  0  0  0  0  0  0  0  0  0  0  0
   31.0697   41.5627    0.0175 C   0  0  0  0  0  0  0  0  0  0  0  0
  4  5  1  0  0  0
  5  6  1  0  0  0
  5  7  2  0  0  0
  5  1  1  0  0  0
  1 10  1  0  0  0
  1  2  1  0  0  0
  1 16  1  0  0  0
 10 11  1  0  0  0
 10 12  1  0  0  0
 10 13  2  0  0  0
 16 17  1  0  0  0
 17 18  1  0  0  0
 17 21  1  0  0  0
 18 19  2  0  0  0
 19 20  1  0  0  0
 20 21  2  0  0  0
  4  8  1  0  0  0
  6  9  1  0  0  0
 11 14  1  0  0  0
 12 15  1  0  0  0
  2  3  1  0  0  0
M  END
> <minimizedAffinity>
-6.73129

$$$$
2E91_ZOL_A_901


 21 21  0  0  0  0  0  0  0  0999 V2000
   29.1776   43.5907    3.4941 C   0  0  0  0  0  0  0  0  0  0  0  0
   29.3759   42.2991    4.0774 O   0  0  0  0  0  0  0  0  0  0  0  0
   28.8973   42.2477    4.9195 H   0  0  0  0  0  0  0  0  0  0  0  0
   28.9395   46.1744    4.3953 O   0  0  0  0  0  0  0  0  0  0  0  0
   29.8245   44.8665    4.6855 P   0  0  0  0  0  0  0  0  0  0  0  0
   29.4296   44.2498    6.1257 O   0  0  0  0  0  0  0  0  0  0  0  0
   31.2687   45.1373    4.4943 O   0  0  0  0  0  0  0  0  0  0  0  0
   29.2203   46.8921    4.9843 H   0  0  0  0  0  0  0  0  0  0  0  0
   29.7281   44.8497    6.8271 H   0  0  0  0  0  0  0  0  0  0  0  0
   27.3477   43.9352    3.3344 P   0  0  0  0  0  0  0  0  0  0  0  0
   27.2020   45.0644    2.1996 O   0  0  0  0  0  0  0  0  0  0  0  0
   26.6863   42.5749    2.7885 O   0  0  0  0  0  0  0  0  0  0  0  0
   26.8119   44.3946    4.6420 O   0  0  0  0  0  0  0  0  0  0  0  0
   27.5610   44.7300    1.3628 H   0  0  0  0  0  0  0  0  0  0  0  0
   27.0853   42.3408    1.9358 H   0  0  0  0  0  0  0  0  0  0  0  0
   29.9121   43.7318    2.1575 C   0  0  0  0  0  0  0  0  0  0  0  0
   30.1231   42.4360    1.4888 N   0  0  0  0  0  0  0  0  0  0  0  0
   31.2188   41.6928    1.5716 C   0  0  0  0  0  0  0  0  0  0  0  0
   31.0201   40.6486    0.7651 N   0  0  0  0  0  0  0  0  0  0  0  0
   29.8225   40.7546    0.1933 C   0  0  0  0  0  0  0  0  0  0  0  0
   29.2598   41.8730    0.6469 C   0  0  0  0  0  0  0  0  0  0  0  0
  4  5  1  0  0  0
  5  6  1  0  0  0
  5  7  2  0  0  0
  5  1  1  0  0  0
  1 10  1  0  0  0
  1  2  1  0  0  0
  1 16  1  0  0  0
 10 11  1  0  0  0
 10 12  1  0  0  0
 10 13  2  0  0  0
 16 17  1  0  0  0
 17 18  1  0  0  0
 17 21  1  0  0  0
 18 19  2  0  0  0
 19 20  1  0  0  0
 20 21  2  0  0  0
  4  8  1  0  0  0
  6  9  1  0  0  0
 11 14  1  0  0  0
 12 15  1  0  0  0
  2  3  1  0  0  0
M  END
> <minimizedAffinity>
-6.57811

$$$$
2E91_ZOL_A_901


 21 21  0  0  0  0  0  0  0  0999 V2000
   29.0080   42.8623    2.9367 C   0  0  0  0  0  0  0  0  0  0  0  0
   29.7594   42.3312    4.0327 O   0  0  0  0  0  0  0  0  0  0  0  0
   29.1875   42.2613    4.8131 H   0  0  0  0  0  0  0  0  0  0  0  0
   29.6222   45.5279    3.1847 O   0  0  0  0  0  0  0  0  0  0  0  0
   28.3781   44.5430    3.4305 P   0  0  0  0  0  0  0  0  0  0  0  0
   27.2274   44.8346    2.3346 O   0  0  0  0  0  0  0  0  0  0  0  0
   27.9256   44.5849    4.8408 O   0  0  0  0  0  0  0  0  0  0  0  0
   29.3693   46.4337    3.4221 H   0  0  0  0  0  0  0  0  0  0  0  0
   26.8293   45.7022    2.5068 H   0  0  0  0  0  0  0  0  0  0  0  0
   27.4841   41.8182    2.6534 P   0  0  0  0  0  0  0  0  0  0  0  0
   27.9311   40.2953    2.9084 O   0  0  0  0  0  0  0  0  0  0  0  0
   26.4375   42.2413    3.7985 O   0  0  0  0  0  0  0  0  0  0  0  0
   26.9909   42.0237    1.2669 O   0  0  0  0  0  0  0  0  0  0  0  0
   28.2462   40.1993    3.8208 H   0  0  0  0  0  0  0  0  0  0  0  0
   26.8293   42.0788    4.6708 H   0  0  0  0  0  0  0  0  0  0  0  0
   29.8615   42.9961    1.6719 C   0  0  0  0  0  0  0  0  0  0  0  0
   31.2767   42.6604    1.9066 N   0  0  0  0  0  0  0  0  0  0  0  0
   32.2622   43.5339    2.0662 C   0  0  0  0  0  0  0  0  0  0  0  0
   33.3803   42.8146    2.1798 N   0  0  0  0  0  0  0  0  0  0  0  0
   33.0833   41.5202    2.0853 C   0  0  0  0  0  0  0  0  0  0  0  0
   31.7662   41.4229    1.9154 C   0  0  0  0  0  0  0  0  0  0  0  0
  4  5  1  0  0  0
  5  6  1  0  0  0
  5  7  2  0  0  0
  5  1  1  0  0  0
  1 10  1  0  0  0
  1  2  1  0  0  0
  1 16  1  0  0  0
 10 11  1  0  0  0
 10 12  1  0  0  0
 10 13  2  0  0  0
 16 17  1  0  0  0
 17 18  1  0  0  0
 17 21  1  0  0  0
 18 19  2  0  0  0
 19 20  1  0  0  0
 20 21  2  0  0  0
  4  8  1  0  0  0
  6  9  1  0  0  0
 11 14  1  0  0  0
 12 15  1  0  0  0
  2  3  1  0  0  0
M  END
> <minimizedAffinity>
-6.52423

$$$$
