1EJN_AGB_A_800


 31 34  0  0  0  0  0  0  0  0999 V2000
   27.0196    8.3373   28.7969 N   0  0  0  0  0  0  0  0  0  0  0  0
   25.8207    8.8565   28.4701 C   0  0  0  0  0  0  0  0  0  0  0  0
   25.6148   10.1763   28.7227 N   0  0  0  0  0  0  0  0  0  0  0  0
   24.9667    8.1247   27.9614 O   0  0  0  0  0  0  0  0  0  0  0  0
   27.6697    8.8828   29.2959 H   0  0  0  0  0  0  0  0  0  0  0  0
   26.4088   10.7512   28.8138 H   0  0  0  0  0  0  0  0  0  0  0  0
   22.0891   11.5192   27.7662 C   0  0  0  0  0  0  0  0  0  0  0  0
   22.3419   13.0063   28.1423 C   0  0  0  0  0  0  0  0  0  0  0  0
   23.4547   10.7825   27.5467 C   0  0  0  0  0  0  0  0  0  0  0  0
   21.2998   10.8232   28.9158 C   0  0  0  0  0  0  0  0  0  0  0  0
   22.3939   12.3782   30.6075 C   0  0  0  0  0  0  0  0  0  0  0  0
   23.1801   13.0628   29.4477 C   0  0  0  0  0  0  0  0  0  0  0  0
   22.1314   10.8881   30.2335 C   0  0  0  0  0  0  0  0  0  0  0  0
   24.5322   12.3180   29.2315 C   0  0  0  0  0  0  0  0  0  0  0  0
   23.4899   10.1440   30.0333 C   0  0  0  0  0  0  0  0  0  0  0  0
   24.2939   10.8117   28.8704 C   0  0  0  0  0  0  0  0  0  0  0  0
   27.3588    6.9770   28.4173 C   0  0  0  0  0  0  0  0  0  0  0  0
   29.3961    5.6016   29.0410 C   0  0  0  0  0  0  0  0  0  0  0  0
   28.8667    6.7434   28.4176 C   0  0  0  0  0  0  0  0  0  0  0  0
   29.7360    7.6621   27.7844 C   0  0  0  0  0  0  0  0  0  0  0  0
   31.1075    7.3564   27.6677 C   0  0  0  0  0  0  0  0  0  0  0  0
   31.5858    6.1450   28.1870 C   0  0  0  0  0  0  0  0  0  0  0  0
   30.7355    5.2678   28.8678 C   0  0  0  0  0  0  0  0  0  0  0  0
   33.0411    6.0300   27.8574 N   0  0  0  0  0  0  0  0  0  0  0  0
   33.6512    6.7988   27.7804 H   0  0  0  0  0  0  0  0  0  0  0  0
   33.0318    3.5635   27.6537 N   0  0  0  0  0  0  0  0  0  0  0  0
   33.4014    4.7993   27.6858 C   0  0  0  0  0  0  0  0  0  0  0  0
   34.6759    4.9895   27.4594 N   0  0  0  0  0  0  0  0  0  0  0  0
   32.0894    3.3273   27.8132 H   0  0  0  0  0  0  0  0  0  0  0  0
   35.0461    5.9017   27.4645 H   0  0  0  0  0  0  0  0  0  0  0  0
   35.2648    4.2203   27.2839 H   0  0  0  0  0  0  0  0  0  0  0  0
  7  8  1  0  0  0
  7  9  1  0  0  0
  7 10  1  0  0  0
  8 12  1  0  0  0
  9 16  1  0  0  0
 10 13  1  0  0  0
 11 12  1  0  0  0
 11 13  1  0  0  0
 12 14  1  0  0  0
 13 15  1  0  0  0
 14 16  1  0  0  0
 15 16  1  0  0  0
 16  3  1  0  0  0
  1  2  1  0  0  0
  1 17  1  0  0  0
  2  3  1  0  0  0
  2  4  2  0  0  0
 17 19  1  0  0  0
 18 19  2  0  0  0
 18 23  1  0  0  0
 19 20  1  0  0  0
 20 21  2  0  0  0
 21 22  1  0  0  0
 22 23  2  0  0  0
 22 24  1  0  0  0
 24 27  1  0  0  0
 26 27  2  0  0  0
 27 28  1  0  0  0
  1  5  1  0  0  0
  3  6  1  0  0  0
 24 25  1  0  0  0
 26 29  1  0  0  0
 28 30  1  0  0  0
 28 31  1  0  0  0
M  END
> <minimizedAffinity>
-8.86144

$$$$
1EJN_AGB_A_800


 31 34  0  0  0  0  0  0  0  0999 V2000
   27.0673    8.3505   28.6043 N   0  0  0  0  0  0  0  0  0  0  0  0
   25.8367    8.7893   28.2778 C   0  0  0  0  0  0  0  0  0  0  0  0
   25.6355   10.1333   28.2401 N   0  0  0  0  0  0  0  0  0  0  0  0
   24.9509    7.9665   28.0291 O   0  0  0  0  0  0  0  0  0  0  0  0
   27.7518    8.9913   28.9045 H   0  0  0  0  0  0  0  0  0  0  0  0
   26.4262   10.7084   28.1252 H   0  0  0  0  0  0  0  0  0  0  0  0
   22.0846   10.9697   29.5967 C   0  0  0  0  0  0  0  0  0  0  0  0
   21.3022   10.6599   28.2895 C   0  0  0  0  0  0  0  0  0  0  0  0
   23.4811   10.2592   29.5663 C   0  0  0  0  0  0  0  0  0  0  0  0
   22.2857   12.5099   29.7249 C   0  0  0  0  0  0  0  0  0  0  0  0
   22.3191   12.7161   27.1886 C   0  0  0  0  0  0  0  0  0  0  0  0
   22.1217   11.1734   27.0753 C   0  0  0  0  0  0  0  0  0  0  0  0
   23.0976   13.0340   28.5009 C   0  0  0  0  0  0  0  0  0  0  0  0
   23.5153   10.4755   27.0545 C   0  0  0  0  0  0  0  0  0  0  0  0
   24.4986   12.3445   28.4671 C   0  0  0  0  0  0  0  0  0  0  0  0
   24.3244   10.7946   28.3582 C   0  0  0  0  0  0  0  0  0  0  0  0
   27.3903    6.9372   28.5160 C   0  0  0  0  0  0  0  0  0  0  0  0
   29.4392    5.5320   29.0244 C   0  0  0  0  0  0  0  0  0  0  0  0
   28.8964    6.6983   28.4608 C   0  0  0  0  0  0  0  0  0  0  0  0
   29.7502    7.6368   27.8357 C   0  0  0  0  0  0  0  0  0  0  0  0
   31.1159    7.3306   27.6652 C   0  0  0  0  0  0  0  0  0  0  0  0
   31.6042    6.0989   28.1239 C   0  0  0  0  0  0  0  0  0  0  0  0
   30.7710    5.2000   28.7975 C   0  0  0  0  0  0  0  0  0  0  0  0
   33.0480    5.9909   27.7452 N   0  0  0  0  0  0  0  0  0  0  0  0
   33.6346    6.7647   27.5827 H   0  0  0  0  0  0  0  0  0  0  0  0
   33.0754    3.5212   27.5876 N   0  0  0  0  0  0  0  0  0  0  0  0
   33.4332    4.7590   27.6571 C   0  0  0  0  0  0  0  0  0  0  0  0
   34.7273    4.9505   27.6386 N   0  0  0  0  0  0  0  0  0  0  0  0
   32.1200    3.2838   27.5952 H   0  0  0  0  0  0  0  0  0  0  0  0
   35.0904    5.8643   27.6876 H   0  0  0  0  0  0  0  0  0  0  0  0
   35.3380    4.1808   27.5756 H   0  0  0  0  0  0  0  0  0  0  0  0
  7  8  1  0  0  0
  7  9  1  0  0  0
  7 10  1  0  0  0
  8 12  1  0  0  0
  9 16  1  0  0  0
 10 13  1  0  0  0
 11 12  1  0  0  0
 11 13  1  0  0  0
 12 14  1  0  0  0
 13 15  1  0  0  0
 14 16  1  0  0  0
 15 16  1  0  0  0
 16  3  1  0  0  0
  1  2  1  0  0  0
  1 17  1  0  0  0
  2  3  1  0  0  0
  2  4  2  0  0  0
 17 19  1  0  0  0
 18 19  2  0  0  0
 18 23  1  0  0  0
 19 20  1  0  0  0
 20 21  2  0  0  0
 21 22  1  0  0  0
 22 23  2  0  0  0
 22 24  1  0  0  0
 24 27  1  0  0  0
 26 27  2  0  0  0
 27 28  1  0  0  0
  1  5  1  0  0  0
  3  6  1  0  0  0
 24 25  1  0  0  0
 26 29  1  0  0  0
 28 30  1  0  0  0
 28 31  1  0  0  0
M  END
> <minimizedAffinity>
-8.51019

$$$$
1EJN_AGB_A_800


 31 34  0  0  0  0  0  0  0  0999 V2000
   26.2149    9.8114   28.6003 N   0  0  0  0  0  0  0  0  0  0  0  0
   24.8915   10.0229   28.7322 C   0  0  0  0  0  0  0  0  0  0  0  0
   24.2047   10.4288   27.6314 N   0  0  0  0  0  0  0  0  0  0  0  0
   24.3602    9.8431   29.8317 O   0  0  0  0  0  0  0  0  0  0  0  0
   26.6673   10.0498   27.7590 H   0  0  0  0  0  0  0  0  0  0  0  0
   24.6029   10.2388   26.7513 H   0  0  0  0  0  0  0  0  0  0  0  0
   21.1033   12.3993   26.3479 C   0  0  0  0  0  0  0  0  0  0  0  0
   21.2844   13.6514   27.2514 C   0  0  0  0  0  0  0  0  0  0  0  0
   22.4578   11.6192   26.2358 C   0  0  0  0  0  0  0  0  0  0  0  0
   20.0157   11.4699   26.9661 C   0  0  0  0  0  0  0  0  0  0  0  0
   20.6542   12.2729   29.2951 C   0  0  0  0  0  0  0  0  0  0  0  0
   21.7413   13.1951   28.6631 C   0  0  0  0  0  0  0  0  0  0  0  0
   20.4630   11.0184   28.3902 C   0  0  0  0  0  0  0  0  0  0  0  0
   23.0816   12.4079   28.5479 C   0  0  0  0  0  0  0  0  0  0  0  0
   21.8053   10.2260   28.2914 C   0  0  0  0  0  0  0  0  0  0  0  0
   22.9100   11.1313   27.6553 C   0  0  0  0  0  0  0  0  0  0  0  0
   26.9786    9.2337   29.6924 C   0  0  0  0  0  0  0  0  0  0  0  0
   29.3099    8.3277   29.2731 C   0  0  0  0  0  0  0  0  0  0  0  0
   27.9202    8.1336   29.2111 C   0  0  0  0  0  0  0  0  0  0  0  0
   27.4052    6.9140   28.7133 C   0  0  0  0  0  0  0  0  0  0  0  0
   28.2876    5.8567   28.4114 C   0  0  0  0  0  0  0  0  0  0  0  0
   29.6643    6.0363   28.6073 C   0  0  0  0  0  0  0  0  0  0  0  0
   30.1757    7.2641   29.0398 C   0  0  0  0  0  0  0  0  0  0  0  0
   30.3592    4.7478   28.2969 N   0  0  0  0  0  0  0  0  0  0  0  0
   30.4143    4.3543   27.3962 H   0  0  0  0  0  0  0  0  0  0  0  0
   30.6618    3.6781   30.5081 N   0  0  0  0  0  0  0  0  0  0  0  0
   30.8789    4.2127   29.3540 C   0  0  0  0  0  0  0  0  0  0  0  0
   32.1422    4.2926   29.0232 N   0  0  0  0  0  0  0  0  0  0  0  0
   29.7398    3.5775   30.8384 H   0  0  0  0  0  0  0  0  0  0  0  0
   32.4008    4.6871   28.1591 H   0  0  0  0  0  0  0  0  0  0  0  0
   32.8343    3.9583   29.6385 H   0  0  0  0  0  0  0  0  0  0  0  0
  7  8  1  0  0  0
  7  9  1  0  0  0
  7 10  1  0  0  0
  8 12  1  0  0  0
  9 16  1  0  0  0
 10 13  1  0  0  0
 11 12  1  0  0  0
 11 13  1  0  0  0
 12 14  1  0  0  0
 13 15  1  0  0  0
 14 16  1  0  0  0
 15 16  1  0  0  0
 16  3  1  0  0  0
  1  2  1  0  0  0
  1 17  1  0  0  0
  2  3  1  0  0  0
  2  4  2  0  0  0
 17 19  1  0  0  0
 18 19  2  0  0  0
 18 23  1  0  0  0
 19 20  1  0  0  0
 20 21  2  0  0  0
 21 22  1  0  0  0
 22 23  2  0  0  0
 22 24  1  0  0  0
 24 27  1  0  0  0
 26 27  2  0  0  0
 27 28  1  0  0  0
  1  5  1  0  0  0
  3  6  1  0  0  0
 24 25  1  0  0  0
 26 29  1  0  0  0
 28 30  1  0  0  0
 28 31  1  0  0  0
M  END
> <minimizedAffinity>
-7.83950

$$$$
1EJN_AGB_A_800


 31 34  0  0  0  0  0  0  0  0999 V2000
   28.9325    9.4921   29.3856 N   0  0  0  0  0  0  0  0  0  0  0  0
   29.3933   10.3708   30.2962 C   0  0  0  0  0  0  0  0  0  0  0  0
   29.4998   11.6726   29.9191 N   0  0  0  0  0  0  0  0  0  0  0  0
   29.6975    9.9666   31.4220 O   0  0  0  0  0  0  0  0  0  0  0  0
   28.7852    9.7821   28.4563 H   0  0  0  0  0  0  0  0  0  0  0  0
   28.9527   11.9716   29.1572 H   0  0  0  0  0  0  0  0  0  0  0  0
   30.5692   14.6907   32.1318 C   0  0  0  0  0  0  0  0  0  0  0  0
   31.1902   15.5509   30.9955 C   0  0  0  0  0  0  0  0  0  0  0  0
   29.5888   13.6292   31.5253 C   0  0  0  0  0  0  0  0  0  0  0  0
   31.7075   13.9646   32.9103 C   0  0  0  0  0  0  0  0  0  0  0  0
   33.1140   13.8983   30.7903 C   0  0  0  0  0  0  0  0  0  0  0  0
   31.9651   14.6216   30.0231 C   0  0  0  0  0  0  0  0  0  0  0  0
   32.4981   13.0390   31.9356 C   0  0  0  0  0  0  0  0  0  0  0  0
   30.9912   13.5583   29.4312 C   0  0  0  0  0  0  0  0  0  0  0  0
   31.5353   11.9659   31.3349 C   0  0  0  0  0  0  0  0  0  0  0  0
   30.3715   12.6699   30.5639 C   0  0  0  0  0  0  0  0  0  0  0  0
   28.6516    8.1190   29.7668 C   0  0  0  0  0  0  0  0  0  0  0  0
   30.7590    7.6312   28.4430 C   0  0  0  0  0  0  0  0  0  0  0  0
   29.6585    7.1425   29.1659 C   0  0  0  0  0  0  0  0  0  0  0  0
   29.4991    5.7480   29.3409 C   0  0  0  0  0  0  0  0  0  0  0  0
   30.5137    4.8709   28.9060 C   0  0  0  0  0  0  0  0  0  0  0  0
   31.6638    5.3994   28.3025 C   0  0  0  0  0  0  0  0  0  0  0  0
   31.7902    6.7733   28.0741 C   0  0  0  0  0  0  0  0  0  0  0  0
   32.6088    4.2745   28.0176 N   0  0  0  0  0  0  0  0  0  0  0  0
   32.3763    3.3223   28.1103 H   0  0  0  0  0  0  0  0  0  0  0  0
   34.9801    4.9819   27.9781 N   0  0  0  0  0  0  0  0  0  0  0  0
   33.7680    4.7030   27.6348 C   0  0  0  0  0  0  0  0  0  0  0  0
   33.5006    4.9141   26.3716 N   0  0  0  0  0  0  0  0  0  0  0  0
   35.2697    4.8534   28.9102 H   0  0  0  0  0  0  0  0  0  0  0  0
   32.5994    4.7285   26.0215 H   0  0  0  0  0  0  0  0  0  0  0  0
   34.2007    5.2586   25.7712 H   0  0  0  0  0  0  0  0  0  0  0  0
  7  8  1  0  0  0
  7  9  1  0  0  0
  7 10  1  0  0  0
  8 12  1  0  0  0
  9 16  1  0  0  0
 10 13  1  0  0  0
 11 12  1  0  0  0
 11 13  1  0  0  0
 12 14  1  0  0  0
 13 15  1  0  0  0
 14 16  1  0  0  0
 15 16  1  0  0  0
 16  3  1  0  0  0
  1  2  1  0  0  0
  1 17  1  0  0  0
  2  3  1  0  0  0
  2  4  2  0  0  0
 17 19  1  0  0  0
 18 19  2  0  0  0
 18 23  1  0  0  0
 19 20  1  0  0  0
 20 21  2  0  0  0
 21 22  1  0  0  0
 22 23  2  0  0  0
 22 24  1  0  0  0
 24 27  1  0  0  0
 26 27  2  0  0  0
 27 28  1  0  0  0
  1  5  1  0  0  0
  3  6  1  0  0  0
 24 25  1  0  0  0
 26 29  1  0  0  0
 28 30  1  0  0  0
 28 31  1  0  0  0
M  END
> <minimizedAffinity>
-7.79015

$$$$
1EJN_AGB_A_800


 31 34  0  0  0  0  0  0  0  0999 V2000
   25.4146   10.1424   28.5602 N   0  0  0  0  0  0  0  0  0  0  0  0
   24.4942   11.0316   28.9793 C   0  0  0  0  0  0  0  0  0  0  0  0
   23.1840   10.7065   28.8188 N   0  0  0  0  0  0  0  0  0  0  0  0
   24.8698   12.0929   29.4855 O   0  0  0  0  0  0  0  0  0  0  0  0
   25.1307    9.3416   28.0628 H   0  0  0  0  0  0  0  0  0  0  0  0
   22.9607    9.7525   28.7224 H   0  0  0  0  0  0  0  0  0  0  0  0
   20.4171   13.1338   30.0843 C   0  0  0  0  0  0  0  0  0  0  0  0
   19.2100   12.4082   29.4261 C   0  0  0  0  0  0  0  0  0  0  0  0
   21.6320   12.1513   30.2045 C   0  0  0  0  0  0  0  0  0  0  0  0
   20.8217   14.3590   29.2101 C   0  0  0  0  0  0  0  0  0  0  0  0
   20.0205   13.1364   27.1268 C   0  0  0  0  0  0  0  0  0  0  0  0
   19.6241   11.9163   28.0132 C   0  0  0  0  0  0  0  0  0  0  0  0
   21.2266   13.8724   27.7849 C   0  0  0  0  0  0  0  0  0  0  0  0
   20.8410   10.9497   28.1339 C   0  0  0  0  0  0  0  0  0  0  0  0
   22.4469   12.9032   27.8889 C   0  0  0  0  0  0  0  0  0  0  0  0
   22.0729   11.6730   28.7783 C   0  0  0  0  0  0  0  0  0  0  0  0
   26.8239   10.3581   28.8379 C   0  0  0  0  0  0  0  0  0  0  0  0
   28.9666    9.0549   29.2143 C   0  0  0  0  0  0  0  0  0  0  0  0
   27.6097    9.0502   28.8518 C   0  0  0  0  0  0  0  0  0  0  0  0
   26.9795    7.8299   28.5138 C   0  0  0  0  0  0  0  0  0  0  0  0
   27.6797    6.6166   28.6734 C   0  0  0  0  0  0  0  0  0  0  0  0
   28.9936    6.6433   29.1622 C   0  0  0  0  0  0  0  0  0  0  0  0
   29.6354    7.8554   29.4359 C   0  0  0  0  0  0  0  0  0  0  0  0
   29.4705    5.2331   29.3166 N   0  0  0  0  0  0  0  0  0  0  0  0
   28.9961    4.5447   29.8364 H   0  0  0  0  0  0  0  0  0  0  0  0
   31.2797    5.2710   27.6283 N   0  0  0  0  0  0  0  0  0  0  0  0
   30.5807    5.0271   28.6851 C   0  0  0  0  0  0  0  0  0  0  0  0
   31.1640    4.2376   29.5500 N   0  0  0  0  0  0  0  0  0  0  0  0
   30.9187    5.8560   26.9235 H   0  0  0  0  0  0  0  0  0  0  0  0
   30.7032    3.9974   30.3862 H   0  0  0  0  0  0  0  0  0  0  0  0
   32.0638    3.8836   29.3646 H   0  0  0  0  0  0  0  0  0  0  0  0
  7  8  1  0  0  0
  7  9  1  0  0  0
  7 10  1  0  0  0
  8 12  1  0  0  0
  9 16  1  0  0  0
 10 13  1  0  0  0
 11 12  1  0  0  0
 11 13  1  0  0  0
 12 14  1  0  0  0
 13 15  1  0  0  0
 14 16  1  0  0  0
 15 16  1  0  0  0
 16  3  1  0  0  0
  1  2  1  0  0  0
  1 17  1  0  0  0
  2  3  1  0  0  0
  2  4  2  0  0  0
 17 19  1  0  0  0
 18 19  2  0  0  0
 18 23  1  0  0  0
 19 20  1  0  0  0
 20 21  2  0  0  0
 21 22  1  0  0  0
 22 23  2  0  0  0
 22 24  1  0  0  0
 24 27  1  0  0  0
 26 27  2  0  0  0
 27 28  1  0  0  0
  1  5  1  0  0  0
  3  6  1  0  0  0
 24 25  1  0  0  0
 26 29  1  0  0  0
 28 30  1  0  0  0
 28 31  1  0  0  0
M  END
> <minimizedAffinity>
-7.61213

$$$$
1EJN_AGB_A_800


 31 34  0  0  0  0  0  0  0  0999 V2000
   24.7343   11.2454   28.9236 N   0  0  0  0  0  0  0  0  0  0  0  0
   23.9404   12.1970   29.4506 C   0  0  0  0  0  0  0  0  0  0  0  0
   22.6392   11.8772   29.6802 N   0  0  0  0  0  0  0  0  0  0  0  0
   24.4175   13.3075   29.7012 O   0  0  0  0  0  0  0  0  0  0  0  0
   24.3437   10.3927   28.6242 H   0  0  0  0  0  0  0  0  0  0  0  0
   22.4142   10.9229   29.7682 H   0  0  0  0  0  0  0  0  0  0  0  0
   19.0108   13.2695   29.8921 C   0  0  0  0  0  0  0  0  0  0  0  0
   19.0939   14.2099   28.6570 C   0  0  0  0  0  0  0  0  0  0  0  0
   20.1266   12.1725   29.8062 C   0  0  0  0  0  0  0  0  0  0  0  0
   19.2020   14.1073   31.1923 C   0  0  0  0  0  0  0  0  0  0  0  0
   20.6870   15.7379   29.9224 C   0  0  0  0  0  0  0  0  0  0  0  0
   20.4902   14.8879   28.6300 C   0  0  0  0  0  0  0  0  0  0  0  0
   20.5981   14.8015   31.1653 C   0  0  0  0  0  0  0  0  0  0  0  0
   21.5989   13.7947   28.5581 C   0  0  0  0  0  0  0  0  0  0  0  0
   21.7210   13.7183   31.0948 C   0  0  0  0  0  0  0  0  0  0  0  0
   21.5403   12.8500   29.8071 C   0  0  0  0  0  0  0  0  0  0  0  0
   26.1634   11.4699   28.7945 C   0  0  0  0  0  0  0  0  0  0  0  0
   28.2213   10.1431   29.4549 C   0  0  0  0  0  0  0  0  0  0  0  0
   26.9536   10.1657   28.8506 C   0  0  0  0  0  0  0  0  0  0  0  0
   26.4146    8.9754   28.3092 C   0  0  0  0  0  0  0  0  0  0  0  0
   27.0926    7.7540   28.4999 C   0  0  0  0  0  0  0  0  0  0  0  0
   28.2946    7.7431   29.2217 C   0  0  0  0  0  0  0  0  0  0  0  0
   28.8569    8.9304   29.7015 C   0  0  0  0  0  0  0  0  0  0  0  0
   28.7569    6.3257   29.3509 N   0  0  0  0  0  0  0  0  0  0  0  0
   28.2295    5.6103   29.7745 H   0  0  0  0  0  0  0  0  0  0  0  0
   31.1356    6.6060   28.7277 N   0  0  0  0  0  0  0  0  0  0  0  0
   29.9326    6.1528   28.8395 C   0  0  0  0  0  0  0  0  0  0  0  0
   29.7097    5.0413   28.1863 N   0  0  0  0  0  0  0  0  0  0  0  0
   31.3926    7.4384   29.1862 H   0  0  0  0  0  0  0  0  0  0  0  0
   28.8187    4.6236   28.2152 H   0  0  0  0  0  0  0  0  0  0  0  0
   30.4329    4.6227   27.6658 H   0  0  0  0  0  0  0  0  0  0  0  0
  7  8  1  0  0  0
  7  9  1  0  0  0
  7 10  1  0  0  0
  8 12  1  0  0  0
  9 16  1  0  0  0
 10 13  1  0  0  0
 11 12  1  0  0  0
 11 13  1  0  0  0
 12 14  1  0  0  0
 13 15  1  0  0  0
 14 16  1  0  0  0
 15 16  1  0  0  0
 16  3  1  0  0  0
  1  2  1  0  0  0
  1 17  1  0  0  0
  2  3  1  0  0  0
  2  4  2  0  0  0
 17 19  1  0  0  0
 18 19  2  0  0  0
 18 23  1  0  0  0
 19 20  1  0  0  0
 20 21  2  0  0  0
 21 22  1  0  0  0
 22 23  2  0  0  0
 22 24  1  0  0  0
 24 27  1  0  0  0
 26 27  2  0  0  0
 27 28  1  0  0  0
  1  5  1  0  0  0
  3  6  1  0  0  0
 24 25  1  0  0  0
 26 29  1  0  0  0
 28 30  1  0  0  0
 28 31  1  0  0  0
M  END
> <minimizedAffinity>
-7.41568

$$$$
1EJN_AGB_A_800


 31 34  0  0  0  0  0  0  0  0999 V2000
   23.9756   10.6080   28.7530 N   0  0  0  0  0  0  0  0  0  0  0  0
   22.8652   11.2577   28.3549 C   0  0  0  0  0  0  0  0  0  0  0  0
   22.6019   12.4640   28.9239 N   0  0  0  0  0  0  0  0  0  0  0  0
   22.1391   10.7406   27.5012 O   0  0  0  0  0  0  0  0  0  0  0  0
   24.5055   10.9596   29.5045 H   0  0  0  0  0  0  0  0  0  0  0  0
   23.3560   12.9498   29.3295 H   0  0  0  0  0  0  0  0  0  0  0  0
   19.7954   14.9578   29.9502 C   0  0  0  0  0  0  0  0  0  0  0  0
   18.8165   13.9089   30.5488 C   0  0  0  0  0  0  0  0  0  0  0  0
   21.2466   14.3685   29.8996 C   0  0  0  0  0  0  0  0  0  0  0  0
   19.3336   15.3312   28.5092 C   0  0  0  0  0  0  0  0  0  0  0  0
   18.3604   12.9978   28.2173 C   0  0  0  0  0  0  0  0  0  0  0  0
   18.8317   12.6368   29.6593 C   0  0  0  0  0  0  0  0  0  0  0  0
   19.3343   14.0544   27.6137 C   0  0  0  0  0  0  0  0  0  0  0  0
   20.2784   12.0600   29.5994 C   0  0  0  0  0  0  0  0  0  0  0  0
   20.7788   13.4649   27.5425 C   0  0  0  0  0  0  0  0  0  0  0  0
   21.2740   13.0995   28.9797 C   0  0  0  0  0  0  0  0  0  0  0  0
   24.3956    9.3914   28.0799 C   0  0  0  0  0  0  0  0  0  0  0  0
   26.7045   10.0165   28.9222 C   0  0  0  0  0  0  0  0  0  0  0  0
   25.8472    9.0389   28.3911 C   0  0  0  0  0  0  0  0  0  0  0  0
   26.3344    7.7313   28.1600 C   0  0  0  0  0  0  0  0  0  0  0  0
   27.6323    7.3855   28.5888 C   0  0  0  0  0  0  0  0  0  0  0  0
   28.4197    8.3492   29.2349 C   0  0  0  0  0  0  0  0  0  0  0  0
   27.9590    9.6586   29.4056 C   0  0  0  0  0  0  0  0  0  0  0  0
   29.7028    7.7060   29.6588 N   0  0  0  0  0  0  0  0  0  0  0  0
   29.7560    6.8623   30.1634 H   0  0  0  0  0  0  0  0  0  0  0  0
   31.3823    9.5024   29.3814 N   0  0  0  0  0  0  0  0  0  0  0  0
   30.7336    8.3914   29.2828 C   0  0  0  0  0  0  0  0  0  0  0  0
   31.2757    7.5176   28.4739 N   0  0  0  0  0  0  0  0  0  0  0  0
   31.0468   10.2179   29.9685 H   0  0  0  0  0  0  0  0  0  0  0  0
   30.8481    6.6413   28.3377 H   0  0  0  0  0  0  0  0  0  0  0  0
   32.1112    7.7364   28.0013 H   0  0  0  0  0  0  0  0  0  0  0  0
  7  8  1  0  0  0
  7  9  1  0  0  0
  7 10  1  0  0  0
  8 12  1  0  0  0
  9 16  1  0  0  0
 10 13  1  0  0  0
 11 12  1  0  0  0
 11 13  1  0  0  0
 12 14  1  0  0  0
 13 15  1  0  0  0
 14 16  1  0  0  0
 15 16  1  0  0  0
 16  3  1  0  0  0
  1  2  1  0  0  0
  1 17  1  0  0  0
  2  3  1  0  0  0
  2  4  2  0  0  0
 17 19  1  0  0  0
 18 19  2  0  0  0
 18 23  1  0  0  0
 19 20  1  0  0  0
 20 21  2  0  0  0
 21 22  1  0  0  0
 22 23  2  0  0  0
 22 24  1  0  0  0
 24 27  1  0  0  0
 26 27  2  0  0  0
 27 28  1  0  0  0
  1  5  1  0  0  0
  3  6  1  0  0  0
 24 25  1  0  0  0
 26 29  1  0  0  0
 28 30  1  0  0  0
 28 31  1  0  0  0
M  END
> <minimizedAffinity>
-7.19607

$$$$
1EJN_AGB_A_800


 31 34  0  0  0  0  0  0  0  0999 V2000
   25.9222    9.5160   28.5310 N   0  0  0  0  0  0  0  0  0  0  0  0
   24.6765    9.8510   28.9176 C   0  0  0  0  0  0  0  0  0  0  0  0
   23.8800   10.4738   28.0088 N   0  0  0  0  0  0  0  0  0  0  0  0
   24.3106    9.5840   30.0658 O   0  0  0  0  0  0  0  0  0  0  0  0
   26.2602    9.8146   27.6559 H   0  0  0  0  0  0  0  0  0  0  0  0
   24.1028   10.3617   27.0564 H   0  0  0  0  0  0  0  0  0  0  0  0
   20.8942   12.9233   27.5251 C   0  0  0  0  0  0  0  0  0  0  0  0
   21.3812   14.0172   28.5167 C   0  0  0  0  0  0  0  0  0  0  0  0
   22.0993   12.0220   27.0878 C   0  0  0  0  0  0  0  0  0  0  0  0
   19.8101   12.0442   28.2185 C   0  0  0  0  0  0  0  0  0  0  0  0
   20.9179   12.4567   30.4723 C   0  0  0  0  0  0  0  0  0  0  0  0
   21.9983   13.3306   29.7647 C   0  0  0  0  0  0  0  0  0  0  0  0
   20.4205   11.3617   29.4808 C   0  0  0  0  0  0  0  0  0  0  0  0
   23.1881   12.4243   29.3260 C   0  0  0  0  0  0  0  0  0  0  0  0
   21.6142   10.4479   29.0572 C   0  0  0  0  0  0  0  0  0  0  0  0
   22.7090   11.3038   28.3407 C   0  0  0  0  0  0  0  0  0  0  0  0
   26.7701    8.7167   29.3981 C   0  0  0  0  0  0  0  0  0  0  0  0
   28.3539   10.6748   29.6957 C   0  0  0  0  0  0  0  0  0  0  0  0
   28.1783    9.2938   29.5094 C   0  0  0  0  0  0  0  0  0  0  0  0
   29.3093    8.4475   29.4382 C   0  0  0  0  0  0  0  0  0  0  0  0
   30.5920    8.9763   29.6889 C   0  0  0  0  0  0  0  0  0  0  0  0
   30.7229   10.3370   30.0012 C   0  0  0  0  0  0  0  0  0  0  0  0
   29.6101   11.1840   30.0089 C   0  0  0  0  0  0  0  0  0  0  0  0
   32.1615   10.6173   30.3038 N   0  0  0  0  0  0  0  0  0  0  0  0
   32.9037   10.4132   29.6902 H   0  0  0  0  0  0  0  0  0  0  0  0
   31.8531   12.0007   32.3327 N   0  0  0  0  0  0  0  0  0  0  0  0
   32.3129   11.1602   31.4684 C   0  0  0  0  0  0  0  0  0  0  0  0
   33.4030   10.5408   31.8422 N   0  0  0  0  0  0  0  0  0  0  0  0
   31.0354   12.5123   32.1351 H   0  0  0  0  0  0  0  0  0  0  0  0
   33.8238    9.8812   31.2447 H   0  0  0  0  0  0  0  0  0  0  0  0
   33.8024   10.7343   32.7209 H   0  0  0  0  0  0  0  0  0  0  0  0
  7  8  1  0  0  0
  7  9  1  0  0  0
  7 10  1  0  0  0
  8 12  1  0  0  0
  9 16  1  0  0  0
 10 13  1  0  0  0
 11 12  1  0  0  0
 11 13  1  0  0  0
 12 14  1  0  0  0
 13 15  1  0  0  0
 14 16  1  0  0  0
 15 16  1  0  0  0
 16  3  1  0  0  0
  1  2  1  0  0  0
  1 17  1  0  0  0
  2  3  1  0  0  0
  2  4  2  0  0  0
 17 19  1  0  0  0
 18 19  2  0  0  0
 18 23  1  0  0  0
 19 20  1  0  0  0
 20 21  2  0  0  0
 21 22  1  0  0  0
 22 23  2  0  0  0
 22 24  1  0  0  0
 24 27  1  0  0  0
 26 27  2  0  0  0
 27 28  1  0  0  0
  1  5  1  0  0  0
  3  6  1  0  0  0
 24 25  1  0  0  0
 26 29  1  0  0  0
 28 30  1  0  0  0
 28 31  1  0  0  0
M  END
> <minimizedAffinity>
-7.19509

$$$$
1EJN_AGB_A_800


 31 34  0  0  0  0  0  0  0  0999 V2000
   26.2640    9.7048   28.3545 N   0  0  0  0  0  0  0  0  0  0  0  0
   25.0098    9.9800   28.7605 C   0  0  0  0  0  0  0  0  0  0  0  0
   24.2734   10.8329   28.0000 N   0  0  0  0  0  0  0  0  0  0  0  0
   24.5829    9.4554   29.7929 O   0  0  0  0  0  0  0  0  0  0  0  0
   26.6507   10.1948   27.5932 H   0  0  0  0  0  0  0  0  0  0  0  0
   24.5387   10.9476   27.0588 H   0  0  0  0  0  0  0  0  0  0  0  0
   22.0631   13.0310   30.3305 C   0  0  0  0  0  0  0  0  0  0  0  0
   20.8933   12.0203   30.4945 C   0  0  0  0  0  0  0  0  0  0  0  0
   23.3582   12.2808   29.8660 C   0  0  0  0  0  0  0  0  0  0  0  0
   21.6730   14.1040   29.2696 C   0  0  0  0  0  0  0  0  0  0  0  0
   20.2297   12.3880   28.0658 C   0  0  0  0  0  0  0  0  0  0  0  0
   20.6316   11.3236   29.1322 C   0  0  0  0  0  0  0  0  0  0  0  0
   21.3961   13.4087   27.9015 C   0  0  0  0  0  0  0  0  0  0  0  0
   21.9249   10.5892   28.6655 C   0  0  0  0  0  0  0  0  0  0  0  0
   22.6843   12.6690   27.4191 C   0  0  0  0  0  0  0  0  0  0  0  0
   23.1087   11.5986   28.4768 C   0  0  0  0  0  0  0  0  0  0  0  0
   27.0494    8.6891   29.0337 C   0  0  0  0  0  0  0  0  0  0  0  0
   29.5125    8.3409   29.5267 C   0  0  0  0  0  0  0  0  0  0  0  0
   28.4159    9.2160   29.4622 C   0  0  0  0  0  0  0  0  0  0  0  0
   28.5904   10.5822   29.7841 C   0  0  0  0  0  0  0  0  0  0  0  0
   29.8859   11.0788   30.0349 C   0  0  0  0  0  0  0  0  0  0  0  0
   30.9801   10.2049   29.9642 C   0  0  0  0  0  0  0  0  0  0  0  0
   30.7976    8.8422   29.7077 C   0  0  0  0  0  0  0  0  0  0  0  0
   32.2321   10.9946   30.1842 N   0  0  0  0  0  0  0  0  0  0  0  0
   32.8622   11.2394   29.4685 H   0  0  0  0  0  0  0  0  0  0  0  0
   31.9985   12.0681   32.4019 N   0  0  0  0  0  0  0  0  0  0  0  0
   32.3874   11.3169   31.4275 C   0  0  0  0  0  0  0  0  0  0  0  0
   33.3554   10.4915   31.7331 N   0  0  0  0  0  0  0  0  0  0  0  0
   31.2740   12.7199   32.2620 H   0  0  0  0  0  0  0  0  0  0  0  0
   33.7151    9.8802   31.0502 H   0  0  0  0  0  0  0  0  0  0  0  0
   33.7241   10.4815   32.6458 H   0  0  0  0  0  0  0  0  0  0  0  0
  7  8  1  0  0  0
  7  9  1  0  0  0
  7 10  1  0  0  0
  8 12  1  0  0  0
  9 16  1  0  0  0
 10 13  1  0  0  0
 11 12  1  0  0  0
 11 13  1  0  0  0
 12 14  1  0  0  0
 13 15  1  0  0  0
 14 16  1  0  0  0
 15 16  1  0  0  0
 16  3  1  0  0  0
  1  2  1  0  0  0
  1 17  1  0  0  0
  2  3  1  0  0  0
  2  4  2  0  0  0
 17 19  1  0  0  0
 18 19  2  0  0  0
 18 23  1  0  0  0
 19 20  1  0  0  0
 20 21  2  0  0  0
 21 22  1  0  0  0
 22 23  2  0  0  0
 22 24  1  0  0  0
 24 27  1  0  0  0
 26 27  2  0  0  0
 27 28  1  0  0  0
  1  5  1  0  0  0
  3  6  1  0  0  0
 24 25  1  0  0  0
 26 29  1  0  0  0
 28 30  1  0  0  0
 28 31  1  0  0  0
M  END
> <minimizedAffinity>
-7.15217

$$$$
1EJN_AGB_A_800


 31 34  0  0  0  0  0  0  0  0999 V2000
   27.0346    9.3326   29.8329 N   0  0  0  0  0  0  0  0  0  0  0  0
   28.0915   10.1111   29.5321 C   0  0  0  0  0  0  0  0  0  0  0  0
   29.1842   10.0299   30.3369 N   0  0  0  0  0  0  0  0  0  0  0  0
   28.0287   10.8583   28.5517 O   0  0  0  0  0  0  0  0  0  0  0  0
   27.0325    8.8112   30.6680 H   0  0  0  0  0  0  0  0  0  0  0  0
   29.2928    9.2127   30.8751 H   0  0  0  0  0  0  0  0  0  0  0  0
   32.0944   12.4173   29.3472 C   0  0  0  0  0  0  0  0  0  0  0  0
   33.1260   11.9051   30.3914 C   0  0  0  0  0  0  0  0  0  0  0  0
   30.9802   11.3387   29.1214 C   0  0  0  0  0  0  0  0  0  0  0  0
   31.4462   13.7361   29.8662 C   0  0  0  0  0  0  0  0  0  0  0  0
   31.7503   12.9409   32.2646 C   0  0  0  0  0  0  0  0  0  0  0  0
   32.3935   11.6243   31.7309 C   0  0  0  0  0  0  0  0  0  0  0  0
   30.7194   13.4633   31.2188 C   0  0  0  0  0  0  0  0  0  0  0  0
   31.2769   10.5613   31.5014 C   0  0  0  0  0  0  0  0  0  0  0  0
   29.5955   12.4002   31.0048 C   0  0  0  0  0  0  0  0  0  0  0  0
   30.2180   11.0715   30.4649 C   0  0  0  0  0  0  0  0  0  0  0  0
   25.8977    9.2578   28.9320 C   0  0  0  0  0  0  0  0  0  0  0  0
   23.7443    9.6285   30.2191 C   0  0  0  0  0  0  0  0  0  0  0  0
   24.7483   10.1518   29.3881 C   0  0  0  0  0  0  0  0  0  0  0  0
   24.6915   11.5080   28.9902 C   0  0  0  0  0  0  0  0  0  0  0  0
   23.7057   12.3540   29.5381 C   0  0  0  0  0  0  0  0  0  0  0  0
   22.7946   11.8321   30.4674 C   0  0  0  0  0  0  0  0  0  0  0  0
   22.8138   10.4766   30.8110 C   0  0  0  0  0  0  0  0  0  0  0  0
   21.9213   12.9466   30.9519 N   0  0  0  0  0  0  0  0  0  0  0  0
   22.2617   13.7834   31.3433 H   0  0  0  0  0  0  0  0  0  0  0  0
   19.7675   12.1208   30.0552 N   0  0  0  0  0  0  0  0  0  0  0  0
   20.6653   12.6788   30.7951 C   0  0  0  0  0  0  0  0  0  0  0  0
   20.1986   13.2478   31.8768 N   0  0  0  0  0  0  0  0  0  0  0  0
   20.0289   11.6683   29.2208 H   0  0  0  0  0  0  0  0  0  0  0  0
   20.8130   13.6983   32.5003 H   0  0  0  0  0  0  0  0  0  0  0  0
   19.2330   13.2253   32.0673 H   0  0  0  0  0  0  0  0  0  0  0  0
  7  8  1  0  0  0
  7  9  1  0  0  0
  7 10  1  0  0  0
  8 12  1  0  0  0
  9 16  1  0  0  0
 10 13  1  0  0  0
 11 12  1  0  0  0
 11 13  1  0  0  0
 12 14  1  0  0  0
 13 15  1  0  0  0
 14 16  1  0  0  0
 15 16  1  0  0  0
 16  3  1  0  0  0
  1  2  1  0  0  0
  1 17  1  0  0  0
  2  3  1  0  0  0
  2  4  2  0  0  0
 17 19  1  0  0  0
 18 19  2  0  0  0
 18 23  1  0  0  0
 19 20  1  0  0  0
 20 21  2  0  0  0
 21 22  1  0  0  0
 22 23  2  0  0  0
 22 24  1  0  0  0
 24 27  1  0  0  0
 26 27  2  0  0  0
 27 28  1  0  0  0
  1  5  1  0  0  0
  3  6  1  0  0  0
 24 25  1  0  0  0
 26 29  1  0  0  0
 28 30  1  0  0  0
 28 31  1  0  0  0
M  END
> <minimizedAffinity>
-6.92375

$$$$
