4AQH_TB7_A_1380


 25 27  0  0  0  0  0  0  0  0999 V2000
  -29.1994    2.2282   -0.6722 N   0  0  0  0  0  0  0  0  0  0  0  0
  -29.3673    3.0747   -1.1461 H   0  0  0  0  0  0  0  0  0  0  0  0
  -30.2451    1.4966   -0.1308 C   0  0  0  0  0  0  0  0  0  0  0  0
  -30.6812    2.0273    1.0516 N   0  0  0  0  0  0  0  0  0  0  0  0
  -31.6974    1.5273    1.8395 C   0  0  0  0  0  0  0  0  0  0  0  0
  -32.0684    2.0095    2.9128 O   0  0  0  0  0  0  0  0  0  0  0  0
  -32.3253    0.3184    1.2822 C   0  0  0  0  0  0  0  0  0  0  0  0
  -33.3567   -0.2980    1.9551 C   0  0  0  0  0  0  0  0  0  0  0  0
  -33.9245   -1.4311    1.3921 C   0  0  0  0  0  0  0  0  0  0  0  0
  -33.4143   -1.8690    0.1816 C   0  0  0  0  0  0  0  0  0  0  0  0
  -32.4037   -1.2697   -0.4824 N   0  0  0  0  0  0  0  0  0  0  0  0
  -31.8704   -0.1787    0.0838 C   0  0  0  0  0  0  0  0  0  0  0  0
  -30.8166    0.4389   -0.6226 N   0  0  0  0  0  0  0  0  0  0  0  0
  -30.2283    2.8413    1.3700 H   0  0  0  0  0  0  0  0  0  0  0  0
  -25.2430    3.5867    0.5361 C   0  0  0  0  0  0  0  0  0  0  0  0
  -24.9497    3.7277    1.7115 O   0  0  0  0  0  0  0  0  0  0  0  0
  -26.0632    2.5759    0.0594 N   0  0  0  0  0  0  0  0  0  0  0  0
  -27.2218    2.0588    0.8183 C   0  0  0  0  0  0  0  0  0  0  0  0
  -27.8786    1.7242   -0.5253 C   0  0  0  0  0  0  0  0  0  0  0  0
  -26.8353    2.6074   -1.2105 C   0  0  0  0  0  0  0  0  0  0  0  0
  -24.8342    4.4401   -0.4621 O   0  0  0  0  0  0  0  0  0  0  0  0
  -22.4471    3.8150   -0.4432 C   0  0  0  0  0  0  0  0  0  0  0  0
  -23.4766    4.9226   -0.4430 C   0  0  0  0  0  0  0  0  0  0  0  0
  -23.3413    5.5993   -1.7805 C   0  0  0  0  0  0  0  0  0  0  0  0
  -23.2257    5.9394    0.6849 C   0  0  0  0  0  0  0  0  0  0  0  0
 22 23  1  0  0  0
 23 24  1  0  0  0
 23 25  1  0  0  0
 23 21  1  0  0  0
 21 15  1  0  0  0
 15 16  2  0  0  0
 15 17  1  0  0  0
 17 18  1  0  0  0
 17 20  1  0  0  0
 18 19  1  0  0  0
 19 20  1  0  0  0
 19  1  1  0  0  0
  1  3  1  0  0  0
  3  4  1  0  0  0
  3 13  2  0  0  0
  4  5  1  0  0  0
  5  6  2  0  0  0
  5  7  1  0  0  0
  7  8  2  0  0  0
  7 12  1  0  0  0
  8  9  1  0  0  0
  9 10  2  0  0  0
 10 11  1  0  0  0
 11 12  2  0  0  0
 12 13  1  0  0  0
  1  2  1  0  0  0
  4 14  1  0  0  0
M  END
> <minimizedAffinity>
-9.24100

$$$$
4AQH_TB7_A_1380


 25 27  0  0  0  0  0  0  0  0999 V2000
  -30.5534    1.3025   -0.2711 N   0  0  0  0  0  0  0  0  0  0  0  0
  -30.7718    2.1689   -0.6845 H   0  0  0  0  0  0  0  0  0  0  0  0
  -31.5548    0.4176    0.0976 C   0  0  0  0  0  0  0  0  0  0  0  0
  -32.1395    0.7726    1.2816 N   0  0  0  0  0  0  0  0  0  0  0  0
  -33.1566    0.0933    1.9201 C   0  0  0  0  0  0  0  0  0  0  0  0
  -33.6627    0.4185    2.9972 O   0  0  0  0  0  0  0  0  0  0  0  0
  -33.6041   -1.1045    1.1911 C   0  0  0  0  0  0  0  0  0  0  0  0
  -34.6143   -1.8880    1.7027 C   0  0  0  0  0  0  0  0  0  0  0  0
  -35.0099   -3.0043    0.9811 C   0  0  0  0  0  0  0  0  0  0  0  0
  -34.3596   -3.2572   -0.2149 C   0  0  0  0  0  0  0  0  0  0  0  0
  -33.3688   -2.4935   -0.7212 N   0  0  0  0  0  0  0  0  0  0  0  0
  -33.0031   -1.4227   -0.0038 C   0  0  0  0  0  0  0  0  0  0  0  0
  -31.9679   -0.6321   -0.5464 N   0  0  0  0  0  0  0  0  0  0  0  0
  -31.8037    1.5882    1.7189 H   0  0  0  0  0  0  0  0  0  0  0  0
  -26.9043    2.9335    1.4561 C   0  0  0  0  0  0  0  0  0  0  0  0
  -26.7380    2.9830    2.6633 O   0  0  0  0  0  0  0  0  0  0  0  0
  -27.5573    1.8973    0.8069 N   0  0  0  0  0  0  0  0  0  0  0  0
  -28.7145    1.1875    1.3923 C   0  0  0  0  0  0  0  0  0  0  0  0
  -29.2030    0.9261   -0.0365 C   0  0  0  0  0  0  0  0  0  0  0  0
  -28.2081    1.9786   -0.5271 C   0  0  0  0  0  0  0  0  0  0  0  0
  -26.5051    3.9227    0.5878 O   0  0  0  0  0  0  0  0  0  0  0  0
  -24.6176    2.7065   -0.4358 C   0  0  0  0  0  0  0  0  0  0  0  0
  -25.1179    3.9827    0.2026 C   0  0  0  0  0  0  0  0  0  0  0  0
  -25.1182    5.0105   -0.8968 C   0  0  0  0  0  0  0  0  0  0  0  0
  -24.2043    4.4466    1.3512 C   0  0  0  0  0  0  0  0  0  0  0  0
 22 23  1  0  0  0
 23 24  1  0  0  0
 23 25  1  0  0  0
 23 21  1  0  0  0
 21 15  1  0  0  0
 15 16  2  0  0  0
 15 17  1  0  0  0
 17 18  1  0  0  0
 17 20  1  0  0  0
 18 19  1  0  0  0
 19 20  1  0  0  0
 19  1  1  0  0  0
  1  3  1  0  0  0
  3  4  1  0  0  0
  3 13  2  0  0  0
  4  5  1  0  0  0
  5  6  2  0  0  0
  5  7  1  0  0  0
  7  8  2  0  0  0
  7 12  1  0  0  0
  8  9  1  0  0  0
  9 10  2  0  0  0
 10 11  1  0  0  0
 11 12  2  0  0  0
 12 13  1  0  0  0
  1  2  1  0  0  0
  4 14  1  0  0  0
M  END
> <minimizedAffinity>
-8.66569

$$$$
4AQH_TB7_A_1380


 25 27  0  0  0  0  0  0  0  0999 V2000
  -28.7199    1.8387    1.8519 N   0  0  0  0  0  0  0  0  0  0  0  0
  -28.2063    1.7711    2.6890 H   0  0  0  0  0  0  0  0  0  0  0  0
  -29.9526    1.2181    1.7215 C   0  0  0  0  0  0  0  0  0  0  0  0
  -30.2446    0.9313    0.4168 N   0  0  0  0  0  0  0  0  0  0  0  0
  -31.3960    0.3258   -0.0429 C   0  0  0  0  0  0  0  0  0  0  0  0
  -31.6512    0.0884   -1.2263 O   0  0  0  0  0  0  0  0  0  0  0  0
  -32.3400   -0.0215    1.0316 C   0  0  0  0  0  0  0  0  0  0  0  0
  -33.5365   -0.6328    0.7299 C   0  0  0  0  0  0  0  0  0  0  0  0
  -34.3945   -0.9487    1.7726 C   0  0  0  0  0  0  0  0  0  0  0  0
  -33.9873   -0.6279    3.0566 C   0  0  0  0  0  0  0  0  0  0  0  0
  -32.8164   -0.0286    3.3586 N   0  0  0  0  0  0  0  0  0  0  0  0
  -32.0066    0.2688    2.3334 C   0  0  0  0  0  0  0  0  0  0  0  0
  -30.7850    0.8927    2.6642 N   0  0  0  0  0  0  0  0  0  0  0  0
  -29.5710    1.1798   -0.2568 H   0  0  0  0  0  0  0  0  0  0  0  0
  -24.9623    2.5530   -0.2289 C   0  0  0  0  0  0  0  0  0  0  0  0
  -24.4986    1.7344   -1.0048 O   0  0  0  0  0  0  0  0  0  0  0  0
  -26.3180    2.8087   -0.0929 N   0  0  0  0  0  0  0  0  0  0  0  0
  -27.3485    1.7558   -0.2154 C   0  0  0  0  0  0  0  0  0  0  0  0
  -28.2170    2.5752    0.7452 C   0  0  0  0  0  0  0  0  0  0  0  0
  -26.9775    3.3962    1.1027 C   0  0  0  0  0  0  0  0  0  0  0  0
  -24.2021    3.2958    0.6442 O   0  0  0  0  0  0  0  0  0  0  0  0
  -24.2138    5.2915   -0.8072 C   0  0  0  0  0  0  0  0  0  0  0  0
  -23.4284    4.3935    0.1220 C   0  0  0  0  0  0  0  0  0  0  0  0
  -23.1524    5.2232    1.3470 C   0  0  0  0  0  0  0  0  0  0  0  0
  -22.1012    3.9350   -0.5084 C   0  0  0  0  0  0  0  0  0  0  0  0
 22 23  1  0  0  0
 23 24  1  0  0  0
 23 25  1  0  0  0
 23 21  1  0  0  0
 21 15  1  0  0  0
 15 16  2  0  0  0
 15 17  1  0  0  0
 17 18  1  0  0  0
 17 20  1  0  0  0
 18 19  1  0  0  0
 19 20  1  0  0  0
 19  1  1  0  0  0
  1  3  1  0  0  0
  3  4  1  0  0  0
  3 13  2  0  0  0
  4  5  1  0  0  0
  5  6  2  0  0  0
  5  7  1  0  0  0
  7  8  2  0  0  0
  7 12  1  0  0  0
  8  9  1  0  0  0
  9 10  2  0  0  0
 10 11  1  0  0  0
 11 12  2  0  0  0
 12 13  1  0  0  0
  1  2  1  0  0  0
  4 14  1  0  0  0
M  END
> <minimizedAffinity>
-8.13887

$$$$
4AQH_TB7_A_1380


 25 27  0  0  0  0  0  0  0  0999 V2000
  -29.6965    1.9203    0.7236 N   0  0  0  0  0  0  0  0  0  0  0  0
  -29.4284    2.7219    1.2284 H   0  0  0  0  0  0  0  0  0  0  0  0
  -30.8910    1.2729    0.9990 C   0  0  0  0  0  0  0  0  0  0  0  0
  -31.1158    0.2302    0.1433 N   0  0  0  0  0  0  0  0  0  0  0  0
  -32.2166   -0.6015    0.1492 C   0  0  0  0  0  0  0  0  0  0  0  0
  -32.4120   -1.5286   -0.6408 O   0  0  0  0  0  0  0  0  0  0  0  0
  -33.1848   -0.2782    1.2095 C   0  0  0  0  0  0  0  0  0  0  0  0
  -34.3367   -1.0209    1.3438 C   0  0  0  0  0  0  0  0  0  0  0  0
  -35.2195   -0.6868    2.3599 C   0  0  0  0  0  0  0  0  0  0  0  0
  -34.8805    0.3773    3.1785 C   0  0  0  0  0  0  0  0  0  0  0  0
  -33.7536    1.1090    3.0518 N   0  0  0  0  0  0  0  0  0  0  0  0
  -32.9188    0.7680    2.0609 C   0  0  0  0  0  0  0  0  0  0  0  0
  -31.7436    1.5399    1.9419 N   0  0  0  0  0  0  0  0  0  0  0  0
  -30.4287    0.0571   -0.5402 H   0  0  0  0  0  0  0  0  0  0  0  0
  -25.5324    1.9889   -0.5472 C   0  0  0  0  0  0  0  0  0  0  0  0
  -24.6869    1.3051    0.0049 O   0  0  0  0  0  0  0  0  0  0  0  0
  -26.8390    1.5789   -0.7630 N   0  0  0  0  0  0  0  0  0  0  0  0
  -27.5821    0.7326    0.1947 C   0  0  0  0  0  0  0  0  0  0  0  0
  -28.8691    1.3966   -0.3064 C   0  0  0  0  0  0  0  0  0  0  0  0
  -28.0088    2.4723   -0.9704 C   0  0  0  0  0  0  0  0  0  0  0  0
  -25.3105    3.2734   -0.9862 O   0  0  0  0  0  0  0  0  0  0  0  0
  -23.5630    4.2869    0.4312 C   0  0  0  0  0  0  0  0  0  0  0  0
  -25.0087    4.2917   -0.0124 C   0  0  0  0  0  0  0  0  0  0  0  0
  -25.1870    5.5664   -0.7924 C   0  0  0  0  0  0  0  0  0  0  0  0
  -25.9765    4.2717    1.1842 C   0  0  0  0  0  0  0  0  0  0  0  0
 22 23  1  0  0  0
 23 24  1  0  0  0
 23 25  1  0  0  0
 23 21  1  0  0  0
 21 15  1  0  0  0
 15 16  2  0  0  0
 15 17  1  0  0  0
 17 18  1  0  0  0
 17 20  1  0  0  0
 18 19  1  0  0  0
 19 20  1  0  0  0
 19  1  1  0  0  0
  1  3  1  0  0  0
  3  4  1  0  0  0
  3 13  2  0  0  0
  4  5  1  0  0  0
  5  6  2  0  0  0
  5  7  1  0  0  0
  7  8  2  0  0  0
  7 12  1  0  0  0
  8  9  1  0  0  0
  9 10  2  0  0  0
 10 11  1  0  0  0
 11 12  2  0  0  0
 12 13  1  0  0  0
  1  2  1  0  0  0
  4 14  1  0  0  0
M  END
> <minimizedAffinity>
-8.03887

$$$$
4AQH_TB7_A_1380


 25 27  0  0  0  0  0  0  0  0999 V2000
  -32.1751    1.6314    1.9173 N   0  0  0  0  0  0  0  0  0  0  0  0
  -32.2302    2.6131    1.8676 H   0  0  0  0  0  0  0  0  0  0  0  0
  -33.2599    0.8786    2.3395 C   0  0  0  0  0  0  0  0  0  0  0  0
  -34.4088    1.6189    2.3844 N   0  0  0  0  0  0  0  0  0  0  0  0
  -35.6523    1.1643    2.7722 C   0  0  0  0  0  0  0  0  0  0  0  0
  -36.6767    1.8500    2.8224 O   0  0  0  0  0  0  0  0  0  0  0  0
  -35.6614   -0.2594    3.1457 C   0  0  0  0  0  0  0  0  0  0  0  0
  -36.8313   -0.8593    3.5552 C   0  0  0  0  0  0  0  0  0  0  0  0
  -36.7974   -2.2042    3.8922 C   0  0  0  0  0  0  0  0  0  0  0  0
  -35.5815   -2.8589    3.7918 C   0  0  0  0  0  0  0  0  0  0  0  0
  -34.4317   -2.2766    3.3916 N   0  0  0  0  0  0  0  0  0  0  0  0
  -34.4904   -0.9762    3.0745 C   0  0  0  0  0  0  0  0  0  0  0  0
  -33.2815   -0.3812    2.6553 N   0  0  0  0  0  0  0  0  0  0  0  0
  -34.3424    2.5635    2.1151 H   0  0  0  0  0  0  0  0  0  0  0  0
  -27.8633    2.2363    1.9614 C   0  0  0  0  0  0  0  0  0  0  0  0
  -27.2140    2.1160    2.9867 O   0  0  0  0  0  0  0  0  0  0  0  0
  -28.9535    1.4432    1.6385 N   0  0  0  0  0  0  0  0  0  0  0  0
  -29.9066    0.9403    2.6505 C   0  0  0  0  0  0  0  0  0  0  0  0
  -30.9813    0.9489    1.5581 C   0  0  0  0  0  0  0  0  0  0  0  0
  -30.0496    1.8089    0.7035 C   0  0  0  0  0  0  0  0  0  0  0  0
  -27.6254    3.2050    1.0144 O   0  0  0  0  0  0  0  0  0  0  0  0
  -26.4850    1.4996   -0.3570 C   0  0  0  0  0  0  0  0  0  0  0  0
  -26.6158    2.9592    0.0161 C   0  0  0  0  0  0  0  0  0  0  0  0
  -27.1768    3.6387   -1.2041 C   0  0  0  0  0  0  0  0  0  0  0  0
  -25.2569    3.5822    0.3826 C   0  0  0  0  0  0  0  0  0  0  0  0
 22 23  1  0  0  0
 23 24  1  0  0  0
 23 25  1  0  0  0
 23 21  1  0  0  0
 21 15  1  0  0  0
 15 16  2  0  0  0
 15 17  1  0  0  0
 17 18  1  0  0  0
 17 20  1  0  0  0
 18 19  1  0  0  0
 19 20  1  0  0  0
 19  1  1  0  0  0
  1  3  1  0  0  0
  3  4  1  0  0  0
  3 13  2  0  0  0
  4  5  1  0  0  0
  5  6  2  0  0  0
  5  7  1  0  0  0
  7  8  2  0  0  0
  7 12  1  0  0  0
  8  9  1  0  0  0
  9 10  2  0  0  0
 10 11  1  0  0  0
 11 12  2  0  0  0
 12 13  1  0  0  0
  1  2  1  0  0  0
  4 14  1  0  0  0
M  END
> <minimizedAffinity>
-7.87010

$$$$
4AQH_TB7_A_1380


 25 27  0  0  0  0  0  0  0  0999 V2000
  -32.2182    1.7968    2.2525 N   0  0  0  0  0  0  0  0  0  0  0  0
  -32.1244    2.7740    2.1779 H   0  0  0  0  0  0  0  0  0  0  0  0
  -33.4485    1.2192    2.5255 C   0  0  0  0  0  0  0  0  0  0  0  0
  -33.3472   -0.1308    2.7185 N   0  0  0  0  0  0  0  0  0  0  0  0
  -34.3893   -0.9911    2.9966 C   0  0  0  0  0  0  0  0  0  0  0  0
  -34.2831   -2.2103    3.1523 O   0  0  0  0  0  0  0  0  0  0  0  0
  -35.6937   -0.3153    3.0882 C   0  0  0  0  0  0  0  0  0  0  0  0
  -36.8312   -1.0419    3.3608 C   0  0  0  0  0  0  0  0  0  0  0  0
  -38.0390   -0.3655    3.4446 C   0  0  0  0  0  0  0  0  0  0  0  0
  -38.0201    1.0052    3.2491 C   0  0  0  0  0  0  0  0  0  0  0  0
  -36.9089    1.7227    2.9812 N   0  0  0  0  0  0  0  0  0  0  0  0
  -35.7555    1.0455    2.9027 C   0  0  0  0  0  0  0  0  0  0  0  0
  -34.6017    1.8088    2.6247 N   0  0  0  0  0  0  0  0  0  0  0  0
  -32.4476   -0.5252    2.6529 H   0  0  0  0  0  0  0  0  0  0  0  0
  -27.8831    2.0341    1.9214 C   0  0  0  0  0  0  0  0  0  0  0  0
  -27.1774    2.1941    2.9030 O   0  0  0  0  0  0  0  0  0  0  0  0
  -29.0399    1.2702    1.9163 N   0  0  0  0  0  0  0  0  0  0  0  0
  -29.9551    1.1939    3.0748 C   0  0  0  0  0  0  0  0  0  0  0  0
  -31.0959    0.9415    2.0832 C   0  0  0  0  0  0  0  0  0  0  0  0
  -30.1692    1.4068    0.9594 C   0  0  0  0  0  0  0  0  0  0  0  0
  -27.6464    2.6288    0.7039 O   0  0  0  0  0  0  0  0  0  0  0  0
  -26.6106    0.4893    0.0412 C   0  0  0  0  0  0  0  0  0  0  0  0
  -26.7628    1.9702   -0.2244 C   0  0  0  0  0  0  0  0  0  0  0  0
  -27.5082    2.0716   -1.5280 C   0  0  0  0  0  0  0  0  0  0  0  0
  -25.3998    2.6749   -0.3457 C   0  0  0  0  0  0  0  0  0  0  0  0
 22 23  1  0  0  0
 23 24  1  0  0  0
 23 25  1  0  0  0
 23 21  1  0  0  0
 21 15  1  0  0  0
 15 16  2  0  0  0
 15 17  1  0  0  0
 17 18  1  0  0  0
 17 20  1  0  0  0
 18 19  1  0  0  0
 19 20  1  0  0  0
 19  1  1  0  0  0
  1  3  1  0  0  0
  3  4  1  0  0  0
  3 13  2  0  0  0
  4  5  1  0  0  0
  5  6  2  0  0  0
  5  7  1  0  0  0
  7  8  2  0  0  0
  7 12  1  0  0  0
  8  9  1  0  0  0
  9 10  2  0  0  0
 10 11  1  0  0  0
 11 12  2  0  0  0
 12 13  1  0  0  0
  1  2  1  0  0  0
  4 14  1  0  0  0
M  END
> <minimizedAffinity>
-7.73834

$$$$
4AQH_TB7_A_1380


 25 27  0  0  0  0  0  0  0  0999 V2000
  -27.5431    1.5377   -0.4353 N   0  0  0  0  0  0  0  0  0  0  0  0
  -27.3834    1.5288   -1.4067 H   0  0  0  0  0  0  0  0  0  0  0  0
  -28.7721    1.1651    0.0868 C   0  0  0  0  0  0  0  0  0  0  0  0
  -28.9027    1.5327    1.3975 N   0  0  0  0  0  0  0  0  0  0  0  0
  -29.9997    1.2979    2.2006 C   0  0  0  0  0  0  0  0  0  0  0  0
  -30.0952    1.6223    3.3870 O   0  0  0  0  0  0  0  0  0  0  0  0
  -31.0894    0.5931    1.5063 C   0  0  0  0  0  0  0  0  0  0  0  0
  -32.2526    0.2872    2.1768 C   0  0  0  0  0  0  0  0  0  0  0  0
  -33.2569   -0.3720    1.4839 C   0  0  0  0  0  0  0  0  0  0  0  0
  -33.0221   -0.6790    0.1543 C   0  0  0  0  0  0  0  0  0  0  0  0
  -31.8844   -0.3823   -0.5082 N   0  0  0  0  0  0  0  0  0  0  0  0
  -30.9287    0.2519    0.1842 C   0  0  0  0  0  0  0  0  0  0  0  0
  -29.7459    0.5580   -0.5217 N   0  0  0  0  0  0  0  0  0  0  0  0
  -28.1438    2.0088    1.8057 H   0  0  0  0  0  0  0  0  0  0  0  0
  -24.6881    4.7749    0.1378 C   0  0  0  0  0  0  0  0  0  0  0  0
  -25.0305    5.8522    0.5955 O   0  0  0  0  0  0  0  0  0  0  0  0
  -25.2106    3.5584    0.5487 N   0  0  0  0  0  0  0  0  0  0  0  0
  -26.6247    3.3859    0.9438 C   0  0  0  0  0  0  0  0  0  0  0  0
  -26.5198    1.9328    0.4684 C   0  0  0  0  0  0  0  0  0  0  0  0
  -25.2187    2.3017   -0.2451 C   0  0  0  0  0  0  0  0  0  0  0  0
  -23.7718    4.6317   -0.8780 O   0  0  0  0  0  0  0  0  0  0  0  0
  -21.7567    3.7716    0.2576 C   0  0  0  0  0  0  0  0  0  0  0  0
  -22.3792    4.8606   -0.5869 C   0  0  0  0  0  0  0  0  0  0  0  0
  -21.7293    4.7435   -1.9393 C   0  0  0  0  0  0  0  0  0  0  0  0
  -22.1193    6.2603   -0.0018 C   0  0  0  0  0  0  0  0  0  0  0  0
 22 23  1  0  0  0
 23 24  1  0  0  0
 23 25  1  0  0  0
 23 21  1  0  0  0
 21 15  1  0  0  0
 15 16  2  0  0  0
 15 17  1  0  0  0
 17 18  1  0  0  0
 17 20  1  0  0  0
 18 19  1  0  0  0
 19 20  1  0  0  0
 19  1  1  0  0  0
  1  3  1  0  0  0
  3  4  1  0  0  0
  3 13  2  0  0  0
  4  5  1  0  0  0
  5  6  2  0  0  0
  5  7  1  0  0  0
  7  8  2  0  0  0
  7 12  1  0  0  0
  8  9  1  0  0  0
  9 10  2  0  0  0
 10 11  1  0  0  0
 11 12  2  0  0  0
 12 13  1  0  0  0
  1  2  1  0  0  0
  4 14  1  0  0  0
M  END
> <minimizedAffinity>
-7.70514

$$$$
4AQH_TB7_A_1380


 25 27  0  0  0  0  0  0  0  0999 V2000
  -28.4562    2.7668    1.0912 N   0  0  0  0  0  0  0  0  0  0  0  0
  -29.1184    3.4942    1.1323 H   0  0  0  0  0  0  0  0  0  0  0  0
  -27.1259    3.0313    0.8046 C   0  0  0  0  0  0  0  0  0  0  0  0
  -26.5815    2.0818   -0.0151 N   0  0  0  0  0  0  0  0  0  0  0  0
  -25.2803    2.0545   -0.4728 C   0  0  0  0  0  0  0  0  0  0  0  0
  -24.8000    1.1810   -1.1996 O   0  0  0  0  0  0  0  0  0  0  0  0
  -24.4727    3.1906    0.0000 C   0  0  0  0  0  0  0  0  0  0  0  0
  -23.1519    3.3027   -0.3730 C   0  0  0  0  0  0  0  0  0  0  0  0
  -22.4284    4.3918    0.0896 C   0  0  0  0  0  0  0  0  0  0  0  0
  -23.0876    5.3010    0.8996 C   0  0  0  0  0  0  0  0  0  0  0  0
  -24.3814    5.1964    1.2690 N   0  0  0  0  0  0  0  0  0  0  0  0
  -25.0575    4.1340    0.8113 C   0  0  0  0  0  0  0  0  0  0  0  0
  -26.4096    4.0390    1.2033 N   0  0  0  0  0  0  0  0  0  0  0  0
  -27.1727    1.3501   -0.3054 H   0  0  0  0  0  0  0  0  0  0  0  0
  -31.8420    0.1131    0.4177 C   0  0  0  0  0  0  0  0  0  0  0  0
  -32.0586   -0.3772   -0.6777 O   0  0  0  0  0  0  0  0  0  0  0  0
  -30.5728    0.3197    0.9355 N   0  0  0  0  0  0  0  0  0  0  0  0
  -29.4180    0.7058    0.0970 C   0  0  0  0  0  0  0  0  0  0  0  0
  -28.8390    1.4180    1.3242 C   0  0  0  0  0  0  0  0  0  0  0  0
  -30.2119    1.3053    1.9882 C   0  0  0  0  0  0  0  0  0  0  0  0
  -32.8289    0.5664    1.2617 O   0  0  0  0  0  0  0  0  0  0  0  0
  -33.1693   -0.8771    3.2342 C   0  0  0  0  0  0  0  0  0  0  0  0
  -33.6893   -0.3993    1.8970 C   0  0  0  0  0  0  0  0  0  0  0  0
  -34.9240    0.4033    2.2078 C   0  0  0  0  0  0  0  0  0  0  0  0
  -34.0491   -1.5728    0.9683 C   0  0  0  0  0  0  0  0  0  0  0  0
 22 23  1  0  0  0
 23 24  1  0  0  0
 23 25  1  0  0  0
 23 21  1  0  0  0
 21 15  1  0  0  0
 15 16  2  0  0  0
 15 17  1  0  0  0
 17 18  1  0  0  0
 17 20  1  0  0  0
 18 19  1  0  0  0
 19 20  1  0  0  0
 19  1  1  0  0  0
  1  3  1  0  0  0
  3  4  1  0  0  0
  3 13  2  0  0  0
  4  5  1  0  0  0
  5  6  2  0  0  0
  5  7  1  0  0  0
  7  8  2  0  0  0
  7 12  1  0  0  0
  8  9  1  0  0  0
  9 10  2  0  0  0
 10 11  1  0  0  0
 11 12  2  0  0  0
 12 13  1  0  0  0
  1  2  1  0  0  0
  4 14  1  0  0  0
M  END
> <minimizedAffinity>
-7.67354

$$$$
4AQH_TB7_A_1380


 25 27  0  0  0  0  0  0  0  0999 V2000
  -31.5153    0.5882    2.8040 N   0  0  0  0  0  0  0  0  0  0  0  0
  -31.4603    0.2967    3.7428 H   0  0  0  0  0  0  0  0  0  0  0  0
  -30.3795    0.9824    2.1139 C   0  0  0  0  0  0  0  0  0  0  0  0
  -29.3919    1.4099    2.9576 N   0  0  0  0  0  0  0  0  0  0  0  0
  -28.1484    1.8747    2.5817 C   0  0  0  0  0  0  0  0  0  0  0  0
  -27.2737    2.2721    3.3556 O   0  0  0  0  0  0  0  0  0  0  0  0
  -27.9404    1.8679    1.1247 C   0  0  0  0  0  0  0  0  0  0  0  0
  -26.7464    2.3036    0.5947 C   0  0  0  0  0  0  0  0  0  0  0  0
  -26.5893    2.2750   -0.7829 C   0  0  0  0  0  0  0  0  0  0  0  0
  -27.6500    1.8051   -1.5387 C   0  0  0  0  0  0  0  0  0  0  0  0
  -28.8225    1.3771   -1.0254 N   0  0  0  0  0  0  0  0  0  0  0  0
  -28.9503    1.4176    0.3077 C   0  0  0  0  0  0  0  0  0  0  0  0
  -30.1802    0.9648    0.8304 N   0  0  0  0  0  0  0  0  0  0  0  0
  -29.5862    1.3837    3.9224 H   0  0  0  0  0  0  0  0  0  0  0  0
  -34.8555   -2.0487    1.8827 C   0  0  0  0  0  0  0  0  0  0  0  0
  -35.7094   -2.3088    2.7137 O   0  0  0  0  0  0  0  0  0  0  0  0
  -34.2452   -0.8099    1.7622 N   0  0  0  0  0  0  0  0  0  0  0  0
  -33.9348    0.0473    2.9260 C   0  0  0  0  0  0  0  0  0  0  0  0
  -32.7613    0.6158    2.1209 C   0  0  0  0  0  0  0  0  0  0  0  0
  -32.9191   -0.5493    1.1432 C   0  0  0  0  0  0  0  0  0  0  0  0
  -34.3552   -2.9651    0.9872 O   0  0  0  0  0  0  0  0  0  0  0  0
  -36.2131   -2.3080   -0.4981 C   0  0  0  0  0  0  0  0  0  0  0  0
  -35.1698   -3.3423   -0.1400 C   0  0  0  0  0  0  0  0  0  0  0  0
  -34.1882   -3.3369   -1.2810 C   0  0  0  0  0  0  0  0  0  0  0  0
  -35.7822   -4.7457    0.0157 C   0  0  0  0  0  0  0  0  0  0  0  0
 22 23  1  0  0  0
 23 24  1  0  0  0
 23 25  1  0  0  0
 23 21  1  0  0  0
 21 15  1  0  0  0
 15 16  2  0  0  0
 15 17  1  0  0  0
 17 18  1  0  0  0
 17 20  1  0  0  0
 18 19  1  0  0  0
 19 20  1  0  0  0
 19  1  1  0  0  0
  1  3  1  0  0  0
  3  4  1  0  0  0
  3 13  2  0  0  0
  4  5  1  0  0  0
  5  6  2  0  0  0
  5  7  1  0  0  0
  7  8  2  0  0  0
  7 12  1  0  0  0
  8  9  1  0  0  0
  9 10  2  0  0  0
 10 11  1  0  0  0
 11 12  2  0  0  0
 12 13  1  0  0  0
  1  2  1  0  0  0
  4 14  1  0  0  0
M  END
> <minimizedAffinity>
-7.66708

$$$$
4AQH_TB7_A_1380


 25 27  0  0  0  0  0  0  0  0999 V2000
  -28.9973    0.6221    1.0368 N   0  0  0  0  0  0  0  0  0  0  0  0
  -28.8565   -0.3308    1.2403 H   0  0  0  0  0  0  0  0  0  0  0  0
  -27.9287    1.4481    0.7244 C   0  0  0  0  0  0  0  0  0  0  0  0
  -27.0504    0.8449   -0.1327 N   0  0  0  0  0  0  0  0  0  0  0  0
  -25.8855    1.3981   -0.6230 C   0  0  0  0  0  0  0  0  0  0  0  0
  -25.0951    0.8339   -1.3837 O   0  0  0  0  0  0  0  0  0  0  0  0
  -25.6435    2.7677   -0.1410 C   0  0  0  0  0  0  0  0  0  0  0  0
  -24.5194    3.4538   -0.5435 C   0  0  0  0  0  0  0  0  0  0  0  0
  -24.3327    4.7442   -0.0710 C   0  0  0  0  0  0  0  0  0  0  0  0
  -25.2965    5.2609    0.7782 C   0  0  0  0  0  0  0  0  0  0  0  0
  -26.3999    4.5936    1.1765 N   0  0  0  0  0  0  0  0  0  0  0  0
  -26.5556    3.3479    0.7084 C   0  0  0  0  0  0  0  0  0  0  0  0
  -27.7148    2.6631    1.1311 N   0  0  0  0  0  0  0  0  0  0  0  0
  -27.2697   -0.0686   -0.4272 H   0  0  0  0  0  0  0  0  0  0  0  0
  -33.0468   -0.4140    2.2564 C   0  0  0  0  0  0  0  0  0  0  0  0
  -33.3886   -0.3763    3.4264 O   0  0  0  0  0  0  0  0  0  0  0  0
  -32.1698    0.4899    1.6771 N   0  0  0  0  0  0  0  0  0  0  0  0
  -31.0202    1.0696    2.4038 C   0  0  0  0  0  0  0  0  0  0  0  0
  -30.3014    1.1869    1.0555 C   0  0  0  0  0  0  0  0  0  0  0  0
  -31.3533    0.2516    0.4580 C   0  0  0  0  0  0  0  0  0  0  0  0
  -33.4522   -1.3862    1.3719 O   0  0  0  0  0  0  0  0  0  0  0  0
  -35.8104   -0.6636    1.4510 C   0  0  0  0  0  0  0  0  0  0  0  0
  -34.8284   -1.8124    1.3998 C   0  0  0  0  0  0  0  0  0  0  0  0
  -35.0134   -2.4410    0.0449 C   0  0  0  0  0  0  0  0  0  0  0  0
  -35.1036   -2.8525    2.5004 C   0  0  0  0  0  0  0  0  0  0  0  0
 22 23  1  0  0  0
 23 24  1  0  0  0
 23 25  1  0  0  0
 23 21  1  0  0  0
 21 15  1  0  0  0
 15 16  2  0  0  0
 15 17  1  0  0  0
 17 18  1  0  0  0
 17 20  1  0  0  0
 18 19  1  0  0  0
 19 20  1  0  0  0
 19  1  1  0  0  0
  1  3  1  0  0  0
  3  4  1  0  0  0
  3 13  2  0  0  0
  4  5  1  0  0  0
  5  6  2  0  0  0
  5  7  1  0  0  0
  7  8  2  0  0  0
  7 12  1  0  0  0
  8  9  1  0  0  0
  9 10  2  0  0  0
 10 11  1  0  0  0
 11 12  2  0  0  0
 12 13  1  0  0  0
  1  2  1  0  0  0
  4 14  1  0  0  0
M  END
> <minimizedAffinity>
-7.37942

$$$$
