6C7X_EO7_A_302


 30 32  0  0  0  0  0  0  0  0999 V2000
   -4.4050    3.2966   11.1801 C   0  0  0  0  0  0  0  0  0  0  0  0
   -4.7908    1.8318   11.4643 C   0  0  0  0  0  0  0  0  0  0  0  0
   -2.9359    3.1318   11.1862 C   0  0  0  0  0  0  0  0  0  0  0  0
   -3.8454    1.4282   12.5220 C   0  0  0  0  0  0  0  0  0  0  0  0
   -2.7496    2.3003   12.3482 O   0  0  0  0  0  0  0  0  0  0  0  0
   -4.8662    3.7365    9.9341 O   0  0  0  0  0  0  0  0  0  0  0  0
   -4.4975    0.9561   10.3368 O   0  0  0  0  0  0  0  0  0  0  0  0
   -4.5501    3.1352    9.2417 H   0  0  0  0  0  0  0  0  0  0  0  0
   -3.5540    1.0139   10.1194 H   0  0  0  0  0  0  0  0  0  0  0  0
   -4.3339    0.3763   14.7570 C   0  0  0  0  0  0  0  0  0  0  0  0
   -5.3357    1.8887   15.8365 C   0  0  0  0  0  0  0  0  0  0  0  0
   -5.0595    2.3989   14.5954 C   0  0  0  0  0  0  0  0  0  0  0  0
   -5.9950    2.6389   16.7863 C   0  0  0  0  0  0  0  0  0  0  0  0
   -6.0032    4.2479   15.2059 C   0  0  0  0  0  0  0  0  0  0  0  0
   -4.8724    0.6151   15.9228 N   0  0  0  0  0  0  0  0  0  0  0  0
   -5.3727    3.6193   14.2065 N   0  0  0  0  0  0  0  0  0  0  0  0
   -6.3552    3.8792   16.4379 N   0  0  0  0  0  0  0  0  0  0  0  0
   -4.3847    1.4297   13.8949 N   0  0  0  0  0  0  0  0  0  0  0  0
   -6.2763    2.0932   18.0414 N   0  0  0  0  0  0  0  0  0  0  0  0
   -6.4682    5.8401   14.8455 Cl  0  0  0  0  0  0  0  0  0  0  0  0
   -5.9915    1.1750   18.2541 H   0  0  0  0  0  0  0  0  0  0  0  0
   -6.7592    2.6268   18.7132 H   0  0  0  0  0  0  0  0  0  0  0  0
   -2.2646    4.4383   11.5092 C   0  0  0  0  0  0  0  0  0  0  0  0
   -2.9419    5.2514   12.3848 O   0  0  0  0  0  0  0  0  0  0  0  0
   -2.2328    4.4571   14.6737 N   0  0  0  0  0  0  0  0  0  0  0  0
   -1.0769    6.1711   13.2752 O   0  0  0  0  0  0  0  0  0  0  0  0
   -3.2214    6.7304   14.3051 O   0  0  0  0  0  0  0  0  0  0  0  0
   -2.3409    5.7647   13.7730 S   0  0  0  0  0  0  0  0  0  0  0  0
   -3.1602    4.1989   15.0109 H   0  0  0  0  0  0  0  0  0  0  0  0
   -1.6211    4.6415   15.4688 H   0  0  0  0  0  0  0  0  0  0  0  0
 19 13  1  0  0  0
 15 10  2  0  0  0
 15 11  1  0  0  0
  6  1  1  0  0  0
 10 18  1  0  0  0
  2  1  1  0  0  0
  2  7  1  0  0  0
  2  4  1  0  0  0
 13 11  2  0  0  0
 13 17  1  0  0  0
 11 12  1  0  0  0
  1  3  1  0  0  0
 18 12  1  0  0  0
 18  4  1  0  0  0
 17 14  2  0  0  0
 12 16  2  0  0  0
  4  5  1  0  0  0
 14 16  1  0  0  0
 14 20  1  0  0  0
  3  5  1  0  0  0
  3 23  1  0  0  0
 23 24  1  0  0  0
 24 28  1  0  0  0
 25 28  1  0  0  0
 27 28  2  0  0  0
 28 26  2  0  0  0
 19 21  1  0  0  0
 19 22  1  0  0  0
 25 29  1  0  0  0
 25 30  1  0  0  0
  6  8  1  0  0  0
  7  9  1  0  0  0
M  END
> <minimizedAffinity>
-7.85777

$$$$
6C7X_EO7_A_302


 30 32  0  0  0  0  0  0  0  0999 V2000
   -4.8496    4.1810   14.2585 C   0  0  0  0  0  0  0  0  0  0  0  0
   -4.1057    5.5233   14.1159 C   0  0  0  0  0  0  0  0  0  0  0  0
   -4.1167    3.6583   15.4312 C   0  0  0  0  0  0  0  0  0  0  0  0
   -2.6917    5.1533   14.3139 C   0  0  0  0  0  0  0  0  0  0  0  0
   -2.7551    3.9656   15.0735 O   0  0  0  0  0  0  0  0  0  0  0  0
   -6.2098    4.3535   14.5394 O   0  0  0  0  0  0  0  0  0  0  0  0
   -4.4148    6.4428   15.2035 O   0  0  0  0  0  0  0  0  0  0  0  0
   -6.3092    4.9110   15.3269 H   0  0  0  0  0  0  0  0  0  0  0  0
   -4.1902    6.0282   16.0512 H   0  0  0  0  0  0  0  0  0  0  0  0
   -1.0649    5.9823   12.5800 C   0  0  0  0  0  0  0  0  0  0  0  0
   -0.9009    4.3822   11.2127 C   0  0  0  0  0  0  0  0  0  0  0  0
   -1.7948    3.9954   12.1761 C   0  0  0  0  0  0  0  0  0  0  0  0
   -0.5767    3.5492   10.1637 C   0  0  0  0  0  0  0  0  0  0  0  0
   -2.0081    2.1067   11.1420 C   0  0  0  0  0  0  0  0  0  0  0  0
   -0.4502    5.6348   11.4811 N   0  0  0  0  0  0  0  0  0  0  0  0
   -2.4000    2.8242   12.2018 N   0  0  0  0  0  0  0  0  0  0  0  0
   -1.1779    2.3546   10.1286 N   0  0  0  0  0  0  0  0  0  0  0  0
   -1.8881    5.0212   13.0841 N   0  0  0  0  0  0  0  0  0  0  0  0
    0.3289    3.9701    9.1864 N   0  0  0  0  0  0  0  0  0  0  0  0
   -2.7107    0.5646   11.0450 Cl  0  0  0  0  0  0  0  0  0  0  0  0
    0.7475    4.8586    9.2532 H   0  0  0  0  0  0  0  0  0  0  0  0
    0.5483    3.3780    8.4310 H   0  0  0  0  0  0  0  0  0  0  0  0
   -4.1977    2.1571   15.4717 C   0  0  0  0  0  0  0  0  0  0  0  0
   -4.3113    1.6039   16.7236 O   0  0  0  0  0  0  0  0  0  0  0  0
   -6.7963    1.9833   16.4930 N   0  0  0  0  0  0  0  0  0  0  0  0
   -5.6873   -0.0427   17.4392 O   0  0  0  0  0  0  0  0  0  0  0  0
   -5.6462    2.0388   18.7190 O   0  0  0  0  0  0  0  0  0  0  0  0
   -5.7020    1.3747   17.4753 S   0  0  0  0  0  0  0  0  0  0  0  0
   -6.7745    3.0015   16.5486 H   0  0  0  0  0  0  0  0  0  0  0  0
   -7.7207    1.6477   16.7639 H   0  0  0  0  0  0  0  0  0  0  0  0
 19 13  1  0  0  0
 15 10  2  0  0  0
 15 11  1  0  0  0
  6  1  1  0  0  0
 10 18  1  0  0  0
  2  1  1  0  0  0
  2  7  1  0  0  0
  2  4  1  0  0  0
 13 11  2  0  0  0
 13 17  1  0  0  0
 11 12  1  0  0  0
  1  3  1  0  0  0
 18 12  1  0  0  0
 18  4  1  0  0  0
 17 14  2  0  0  0
 12 16  2  0  0  0
  4  5  1  0  0  0
 14 16  1  0  0  0
 14 20  1  0  0  0
  3  5  1  0  0  0
  3 23  1  0  0  0
 23 24  1  0  0  0
 24 28  1  0  0  0
 25 28  1  0  0  0
 27 28  2  0  0  0
 28 26  2  0  0  0
 19 21  1  0  0  0
 19 22  1  0  0  0
 25 29  1  0  0  0
 25 30  1  0  0  0
  6  8  1  0  0  0
  7  9  1  0  0  0
M  END
> <minimizedAffinity>
-7.82712

$$$$
6C7X_EO7_A_302


 30 32  0  0  0  0  0  0  0  0999 V2000
   -3.8695    2.0199   12.5986 C   0  0  0  0  0  0  0  0  0  0  0  0
   -3.5330    2.4717   11.1640 C   0  0  0  0  0  0  0  0  0  0  0  0
   -4.7627    3.1387   12.9671 C   0  0  0  0  0  0  0  0  0  0  0  0
   -3.2955    3.9202   11.3087 C   0  0  0  0  0  0  0  0  0  0  0  0
   -4.0209    4.2687   12.4679 O   0  0  0  0  0  0  0  0  0  0  0  0
   -4.5450    0.7944   12.6260 O   0  0  0  0  0  0  0  0  0  0  0  0
   -4.6775    2.3608   10.2687 O   0  0  0  0  0  0  0  0  0  0  0  0
   -5.3350    0.8481   12.0658 H   0  0  0  0  0  0  0  0  0  0  0  0
   -5.4133    2.8876   10.6177 H   0  0  0  0  0  0  0  0  0  0  0  0
   -0.8246    3.5540   10.9907 C   0  0  0  0  0  0  0  0  0  0  0  0
    0.0550    5.3701   11.6110 C   0  0  0  0  0  0  0  0  0  0  0  0
   -1.2980    5.5021   11.7810 C   0  0  0  0  0  0  0  0  0  0  0  0
    0.9184    6.3952   11.9323 C   0  0  0  0  0  0  0  0  0  0  0  0
   -0.9548    7.5093   12.5128 C   0  0  0  0  0  0  0  0  0  0  0  0
    0.3370    4.1388   11.1125 N   0  0  0  0  0  0  0  0  0  0  0  0
   -1.8875    6.5893   12.2383 N   0  0  0  0  0  0  0  0  0  0  0  0
    0.3753    7.5159   12.4209 N   0  0  0  0  0  0  0  0  0  0  0  0
   -1.8803    4.3337   11.3554 N   0  0  0  0  0  0  0  0  0  0  0  0
    2.2956    6.2333   11.7615 N   0  0  0  0  0  0  0  0  0  0  0  0
   -1.5727    8.9717   13.1132 Cl  0  0  0  0  0  0  0  0  0  0  0  0
    2.6508    5.3901   11.3980 H   0  0  0  0  0  0  0  0  0  0  0  0
    2.9109    6.9624   12.0046 H   0  0  0  0  0  0  0  0  0  0  0  0
   -4.8020    3.3060   14.4612 C   0  0  0  0  0  0  0  0  0  0  0  0
   -5.3163    2.2430   15.1626 O   0  0  0  0  0  0  0  0  0  0  0  0
   -5.3364    1.4746   17.5672 N   0  0  0  0  0  0  0  0  0  0  0  0
   -4.6268    0.1309   15.5871 O   0  0  0  0  0  0  0  0  0  0  0  0
   -3.2021    1.9648   16.3483 O   0  0  0  0  0  0  0  0  0  0  0  0
   -4.4844    1.3888   16.2257 S   0  0  0  0  0  0  0  0  0  0  0  0
   -5.2069    2.3919   17.9941 H   0  0  0  0  0  0  0  0  0  0  0  0
   -5.0245    0.7510   18.2149 H   0  0  0  0  0  0  0  0  0  0  0  0
 19 13  1  0  0  0
 15 10  2  0  0  0
 15 11  1  0  0  0
  6  1  1  0  0  0
 10 18  1  0  0  0
  2  1  1  0  0  0
  2  7  1  0  0  0
  2  4  1  0  0  0
 13 11  2  0  0  0
 13 17  1  0  0  0
 11 12  1  0  0  0
  1  3  1  0  0  0
 18 12  1  0  0  0
 18  4  1  0  0  0
 17 14  2  0  0  0
 12 16  2  0  0  0
  4  5  1  0  0  0
 14 16  1  0  0  0
 14 20  1  0  0  0
  3  5  1  0  0  0
  3 23  1  0  0  0
 23 24  1  0  0  0
 24 28  1  0  0  0
 25 28  1  0  0  0
 27 28  2  0  0  0
 28 26  2  0  0  0
 19 21  1  0  0  0
 19 22  1  0  0  0
 25 29  1  0  0  0
 25 30  1  0  0  0
  6  8  1  0  0  0
  7  9  1  0  0  0
M  END
> <minimizedAffinity>
-7.65534

$$$$
6C7X_EO7_A_302


 30 32  0  0  0  0  0  0  0  0999 V2000
   -1.9609    4.0743   10.1936 C   0  0  0  0  0  0  0  0  0  0  0  0
   -1.2525    5.3610   10.6602 C   0  0  0  0  0  0  0  0  0  0  0  0
   -1.9629    3.3555   11.4854 C   0  0  0  0  0  0  0  0  0  0  0  0
   -0.1596    4.8592   11.5142 C   0  0  0  0  0  0  0  0  0  0  0  0
   -0.6185    3.5960   11.9448 O   0  0  0  0  0  0  0  0  0  0  0  0
   -3.2626    4.3177    9.7406 O   0  0  0  0  0  0  0  0  0  0  0  0
   -2.0900    6.1616   11.5443 O   0  0  0  0  0  0  0  0  0  0  0  0
   -3.7637    4.7804   10.4302 H   0  0  0  0  0  0  0  0  0  0  0  0
   -2.3501    5.6296   12.3125 H   0  0  0  0  0  0  0  0  0  0  0  0
    1.4743    4.1573    9.7315 C   0  0  0  0  0  0  0  0  0  0  0  0
    3.3050    5.0180   10.3351 C   0  0  0  0  0  0  0  0  0  0  0  0
    2.3743    5.3509   11.2837 C   0  0  0  0  0  0  0  0  0  0  0  0
    4.6151    5.4317   10.4442 C   0  0  0  0  0  0  0  0  0  0  0  0
    3.9220    6.4274   12.3456 C   0  0  0  0  0  0  0  0  0  0  0  0
    2.7231    4.2671    9.3647 N   0  0  0  0  0  0  0  0  0  0  0  0
    2.6278    6.0861   12.3485 N   0  0  0  0  0  0  0  0  0  0  0  0
    4.9332    6.1643   11.5174 N   0  0  0  0  0  0  0  0  0  0  0  0
    1.1739    4.8162   10.8853 N   0  0  0  0  0  0  0  0  0  0  0  0
    5.5494    5.0700    9.4704 N   0  0  0  0  0  0  0  0  0  0  0  0
    4.3947    7.3826   13.6666 Cl  0  0  0  0  0  0  0  0  0  0  0  0
    5.2698    4.5293    8.6966 H   0  0  0  0  0  0  0  0  0  0  0  0
    6.4875    5.3557    9.5580 H   0  0  0  0  0  0  0  0  0  0  0  0
   -2.0556    1.8717   11.2579 C   0  0  0  0  0  0  0  0  0  0  0  0
   -3.1862    1.4420   10.6072 O   0  0  0  0  0  0  0  0  0  0  0  0
   -5.5034    2.3724   10.9789 N   0  0  0  0  0  0  0  0  0  0  0  0
   -4.9120   -0.0201   10.5838 O   0  0  0  0  0  0  0  0  0  0  0  0
   -4.3252    1.0094   12.7211 O   0  0  0  0  0  0  0  0  0  0  0  0
   -4.5728    1.1321   11.3374 S   0  0  0  0  0  0  0  0  0  0  0  0
   -5.2276    3.1779   11.5406 H   0  0  0  0  0  0  0  0  0  0  0  0
   -6.4757    2.1365   11.1771 H   0  0  0  0  0  0  0  0  0  0  0  0
 19 13  1  0  0  0
 15 10  2  0  0  0
 15 11  1  0  0  0
  6  1  1  0  0  0
 10 18  1  0  0  0
  2  1  1  0  0  0
  2  7  1  0  0  0
  2  4  1  0  0  0
 13 11  2  0  0  0
 13 17  1  0  0  0
 11 12  1  0  0  0
  1  3  1  0  0  0
 18 12  1  0  0  0
 18  4  1  0  0  0
 17 14  2  0  0  0
 12 16  2  0  0  0
  4  5  1  0  0  0
 14 16  1  0  0  0
 14 20  1  0  0  0
  3  5  1  0  0  0
  3 23  1  0  0  0
 23 24  1  0  0  0
 24 28  1  0  0  0
 25 28  1  0  0  0
 27 28  2  0  0  0
 28 26  2  0  0  0
 19 21  1  0  0  0
 19 22  1  0  0  0
 25 29  1  0  0  0
 25 30  1  0  0  0
  6  8  1  0  0  0
  7  9  1  0  0  0
M  END
> <minimizedAffinity>
-7.34804

$$$$
6C7X_EO7_A_302


 30 32  0  0  0  0  0  0  0  0999 V2000
   -4.4837    3.0478   11.1805 C   0  0  0  0  0  0  0  0  0  0  0  0
   -4.6609    1.5673   11.5708 C   0  0  0  0  0  0  0  0  0  0  0  0
   -3.0096    3.1137   11.2709 C   0  0  0  0  0  0  0  0  0  0  0  0
   -3.7312    1.3987   12.7033 C   0  0  0  0  0  0  0  0  0  0  0  0
   -2.7707    2.4140   12.5077 O   0  0  0  0  0  0  0  0  0  0  0  0
   -4.9298    3.3126    9.8806 O   0  0  0  0  0  0  0  0  0  0  0  0
   -4.1716    0.6629   10.5381 O   0  0  0  0  0  0  0  0  0  0  0  0
   -4.4855    2.7156    9.2584 H   0  0  0  0  0  0  0  0  0  0  0  0
   -3.2361    0.8492   10.3619 H   0  0  0  0  0  0  0  0  0  0  0  0
   -4.3601    0.3787   14.9179 C   0  0  0  0  0  0  0  0  0  0  0  0
   -5.3977    1.9174   15.9240 C   0  0  0  0  0  0  0  0  0  0  0  0
   -5.0447    2.4098   14.6952 C   0  0  0  0  0  0  0  0  0  0  0  0
   -6.0977    2.6875   16.8275 C   0  0  0  0  0  0  0  0  0  0  0  0
   -5.9928    4.2791   15.2328 C   0  0  0  0  0  0  0  0  0  0  0  0
   -4.9594    0.6382   16.0491 N   0  0  0  0  0  0  0  0  0  0  0  0
   -5.3170    3.6303   14.2769 N   0  0  0  0  0  0  0  0  0  0  0  0
   -6.4189    3.9291   16.4468 N   0  0  0  0  0  0  0  0  0  0  0  0
   -4.3464    1.4232   14.0436 N   0  0  0  0  0  0  0  0  0  0  0  0
   -6.4571    2.1599   18.0703 N   0  0  0  0  0  0  0  0  0  0  0  0
   -6.4126    5.8738   14.8306 Cl  0  0  0  0  0  0  0  0  0  0  0  0
   -6.1988    1.2401   18.3080 H   0  0  0  0  0  0  0  0  0  0  0  0
   -6.9688    2.7079   18.7084 H   0  0  0  0  0  0  0  0  0  0  0  0
   -2.5635    4.5296   11.5120 C   0  0  0  0  0  0  0  0  0  0  0  0
   -3.1248    5.4754   10.6893 O   0  0  0  0  0  0  0  0  0  0  0  0
   -3.2700    5.0752    8.2010 N   0  0  0  0  0  0  0  0  0  0  0  0
   -2.9452    7.2762    9.3323 O   0  0  0  0  0  0  0  0  0  0  0  0
   -1.1094    5.6631    9.3269 O   0  0  0  0  0  0  0  0  0  0  0  0
   -2.4941    5.9325    9.2946 S   0  0  0  0  0  0  0  0  0  0  0  0
   -2.9170    4.1182    8.2060 H   0  0  0  0  0  0  0  0  0  0  0  0
   -3.1233    5.4869    7.2794 H   0  0  0  0  0  0  0  0  0  0  0  0
 19 13  1  0  0  0
 15 10  2  0  0  0
 15 11  1  0  0  0
  6  1  1  0  0  0
 10 18  1  0  0  0
  2  1  1  0  0  0
  2  7  1  0  0  0
  2  4  1  0  0  0
 13 11  2  0  0  0
 13 17  1  0  0  0
 11 12  1  0  0  0
  1  3  1  0  0  0
 18 12  1  0  0  0
 18  4  1  0  0  0
 17 14  2  0  0  0
 12 16  2  0  0  0
  4  5  1  0  0  0
 14 16  1  0  0  0
 14 20  1  0  0  0
  3  5  1  0  0  0
  3 23  1  0  0  0
 23 24  1  0  0  0
 24 28  1  0  0  0
 25 28  1  0  0  0
 27 28  2  0  0  0
 28 26  2  0  0  0
 19 21  1  0  0  0
 19 22  1  0  0  0
 25 29  1  0  0  0
 25 30  1  0  0  0
  6  8  1  0  0  0
  7  9  1  0  0  0
M  END
> <minimizedAffinity>
-7.16765

$$$$
6C7X_EO7_A_302


 30 32  0  0  0  0  0  0  0  0999 V2000
   -4.0338    3.0000   13.0488 C   0  0  0  0  0  0  0  0  0  0  0  0
   -3.9725    3.8009   11.7334 C   0  0  0  0  0  0  0  0  0  0  0  0
   -5.3196    3.5255   13.5548 C   0  0  0  0  0  0  0  0  0  0  0  0
   -4.3974    5.1544   12.1370 C   0  0  0  0  0  0  0  0  0  0  0  0
   -5.1695    4.9354   13.2979 O   0  0  0  0  0  0  0  0  0  0  0  0
   -4.0955    1.6192   12.8289 O   0  0  0  0  0  0  0  0  0  0  0  0
   -4.9739    3.3582   10.7716 O   0  0  0  0  0  0  0  0  0  0  0  0
   -4.8428    1.4180   12.2442 H   0  0  0  0  0  0  0  0  0  0  0  0
   -5.8570    3.4355   11.1655 H   0  0  0  0  0  0  0  0  0  0  0  0
   -3.4704    7.3907   12.8300 C   0  0  0  0  0  0  0  0  0  0  0  0
   -1.4039    7.2463   12.4236 C   0  0  0  0  0  0  0  0  0  0  0  0
   -1.9700    6.0574   12.0458 C   0  0  0  0  0  0  0  0  0  0  0  0
   -0.0515    7.4704   12.2809 C   0  0  0  0  0  0  0  0  0  0  0  0
   -0.0051    5.3737   11.4511 C   0  0  0  0  0  0  0  0  0  0  0  0
   -2.3609    8.0747   12.9155 N   0  0  0  0  0  0  0  0  0  0  0  0
   -1.2986    5.0413   11.5403 N   0  0  0  0  0  0  0  0  0  0  0  0
    0.6759    6.4793   11.7533 N   0  0  0  0  0  0  0  0  0  0  0  0
   -3.3112    6.1334   12.3307 N   0  0  0  0  0  0  0  0  0  0  0  0
    0.5017    8.6954   12.6624 N   0  0  0  0  0  0  0  0  0  0  0  0
    0.9866    4.1525   10.8136 Cl  0  0  0  0  0  0  0  0  0  0  0  0
   -0.0726    9.3965   13.0468 H   0  0  0  0  0  0  0  0  0  0  0  0
    1.4659    8.8574   12.5467 H   0  0  0  0  0  0  0  0  0  0  0  0
   -5.3872    3.3897   15.0511 C   0  0  0  0  0  0  0  0  0  0  0  0
   -5.6331    2.1225   15.5201 O   0  0  0  0  0  0  0  0  0  0  0  0
   -5.2250    0.9866   17.7373 N   0  0  0  0  0  0  0  0  0  0  0  0
   -4.6341    0.0934   15.4828 O   0  0  0  0  0  0  0  0  0  0  0  0
   -3.3573    1.9709   16.3867 O   0  0  0  0  0  0  0  0  0  0  0  0
   -4.5625    1.2408   16.3127 S   0  0  0  0  0  0  0  0  0  0  0  0
   -5.1529    1.8332   18.3017 H   0  0  0  0  0  0  0  0  0  0  0  0
   -4.7390    0.2226   18.2068 H   0  0  0  0  0  0  0  0  0  0  0  0
 19 13  1  0  0  0
 15 10  2  0  0  0
 15 11  1  0  0  0
  6  1  1  0  0  0
 10 18  1  0  0  0
  2  1  1  0  0  0
  2  7  1  0  0  0
  2  4  1  0  0  0
 13 11  2  0  0  0
 13 17  1  0  0  0
 11 12  1  0  0  0
  1  3  1  0  0  0
 18 12  1  0  0  0
 18  4  1  0  0  0
 17 14  2  0  0  0
 12 16  2  0  0  0
  4  5  1  0  0  0
 14 16  1  0  0  0
 14 20  1  0  0  0
  3  5  1  0  0  0
  3 23  1  0  0  0
 23 24  1  0  0  0
 24 28  1  0  0  0
 25 28  1  0  0  0
 27 28  2  0  0  0
 28 26  2  0  0  0
 19 21  1  0  0  0
 19 22  1  0  0  0
 25 29  1  0  0  0
 25 30  1  0  0  0
  6  8  1  0  0  0
  7  9  1  0  0  0
M  END
> <minimizedAffinity>
-7.01278

$$$$
6C7X_EO7_A_302


 30 32  0  0  0  0  0  0  0  0999 V2000
   -4.7843    5.1941   13.2280 C   0  0  0  0  0  0  0  0  0  0  0  0
   -3.5101    6.0609   13.2078 C   0  0  0  0  0  0  0  0  0  0  0  0
   -4.4752    4.3945   14.4324 C   0  0  0  0  0  0  0  0  0  0  0  0
   -2.4351    5.0957   13.5049 C   0  0  0  0  0  0  0  0  0  0  0  0
   -3.0926    4.0600   14.2024 O   0  0  0  0  0  0  0  0  0  0  0  0
   -5.9444    5.9571   13.4031 O   0  0  0  0  0  0  0  0  0  0  0  0
   -3.4772    7.0179   14.3065 O   0  0  0  0  0  0  0  0  0  0  0  0
   -5.8581    6.4974   14.2041 H   0  0  0  0  0  0  0  0  0  0  0  0
   -3.5419    6.5438   15.1502 H   0  0  0  0  0  0  0  0  0  0  0  0
   -2.0281    3.5925   11.5263 C   0  0  0  0  0  0  0  0  0  0  0  0
   -0.1869    4.2582   10.7366 C   0  0  0  0  0  0  0  0  0  0  0  0
   -0.4538    5.0312   11.8358 C   0  0  0  0  0  0  0  0  0  0  0  0
    0.9586    4.4451    9.9935 C   0  0  0  0  0  0  0  0  0  0  0  0
    1.3965    6.0919   11.4710 C   0  0  0  0  0  0  0  0  0  0  0  0
   -1.1871    3.3578   10.5547 N   0  0  0  0  0  0  0  0  0  0  0  0
    0.3237    6.0049   12.2668 N   0  0  0  0  0  0  0  0  0  0  0  0
    1.7950    5.4075   10.3985 N   0  0  0  0  0  0  0  0  0  0  0  0
   -1.6632    4.6214   12.3409 N   0  0  0  0  0  0  0  0  0  0  0  0
    1.2155    3.6367    8.8832 N   0  0  0  0  0  0  0  0  0  0  0  0
    2.4924    7.3121   11.9083 Cl  0  0  0  0  0  0  0  0  0  0  0  0
    0.5707    2.9401    8.6218 H   0  0  0  0  0  0  0  0  0  0  0  0
    2.0412    3.7636    8.3623 H   0  0  0  0  0  0  0  0  0  0  0  0
   -5.2207    3.0888   14.3984 C   0  0  0  0  0  0  0  0  0  0  0  0
   -5.5978    2.5903   15.6214 O   0  0  0  0  0  0  0  0  0  0  0  0
   -3.2464    2.0436   16.3595 N   0  0  0  0  0  0  0  0  0  0  0  0
   -5.3243    1.7875   17.7183 O   0  0  0  0  0  0  0  0  0  0  0  0
   -4.9289    0.2557   15.8557 O   0  0  0  0  0  0  0  0  0  0  0  0
   -4.7473    1.5222   16.4506 S   0  0  0  0  0  0  0  0  0  0  0  0
   -2.8692    1.8341   15.4352 H   0  0  0  0  0  0  0  0  0  0  0  0
   -2.6814    1.5793   17.0705 H   0  0  0  0  0  0  0  0  0  0  0  0
 19 13  1  0  0  0
 15 10  2  0  0  0
 15 11  1  0  0  0
  6  1  1  0  0  0
 10 18  1  0  0  0
  2  1  1  0  0  0
  2  7  1  0  0  0
  2  4  1  0  0  0
 13 11  2  0  0  0
 13 17  1  0  0  0
 11 12  1  0  0  0
  1  3  1  0  0  0
 18 12  1  0  0  0
 18  4  1  0  0  0
 17 14  2  0  0  0
 12 16  2  0  0  0
  4  5  1  0  0  0
 14 16  1  0  0  0
 14 20  1  0  0  0
  3  5  1  0  0  0
  3 23  1  0  0  0
 23 24  1  0  0  0
 24 28  1  0  0  0
 25 28  1  0  0  0
 27 28  2  0  0  0
 28 26  2  0  0  0
 19 21  1  0  0  0
 19 22  1  0  0  0
 25 29  1  0  0  0
 25 30  1  0  0  0
  6  8  1  0  0  0
  7  9  1  0  0  0
M  END
> <minimizedAffinity>
-6.99012

$$$$
6C7X_EO7_A_302


 30 32  0  0  0  0  0  0  0  0999 V2000
   -4.0058    5.2050   12.1239 C   0  0  0  0  0  0  0  0  0  0  0  0
   -2.8502    6.2237   12.0754 C   0  0  0  0  0  0  0  0  0  0  0  0
   -3.6462    4.5401   13.3943 C   0  0  0  0  0  0  0  0  0  0  0  0
   -1.6753    5.4275   12.4767 C   0  0  0  0  0  0  0  0  0  0  0  0
   -2.2247    4.3691   13.2315 O   0  0  0  0  0  0  0  0  0  0  0  0
   -5.2582    5.8242   12.2061 O   0  0  0  0  0  0  0  0  0  0  0  0
   -2.9801    7.2535   13.0984 O   0  0  0  0  0  0  0  0  0  0  0  0
   -5.2714    6.4273   12.9657 H   0  0  0  0  0  0  0  0  0  0  0  0
   -3.0178    6.8369   13.9735 H   0  0  0  0  0  0  0  0  0  0  0  0
   -1.2337    4.3283   10.2548 C   0  0  0  0  0  0  0  0  0  0  0  0
    0.8582    4.4713   10.0098 C   0  0  0  0  0  0  0  0  0  0  0  0
    0.5573    5.0390   11.2197 C   0  0  0  0  0  0  0  0  0  0  0  0
    2.1578    4.4051    9.5556 C   0  0  0  0  0  0  0  0  0  0  0  0
    2.6644    5.4510   11.4886 C   0  0  0  0  0  0  0  0  0  0  0  0
   -0.2794    4.0291    9.4145 N   0  0  0  0  0  0  0  0  0  0  0  0
    1.4476    5.5724   12.0329 N   0  0  0  0  0  0  0  0  0  0  0  0
    3.1057    4.9134   10.3511 N   0  0  0  0  0  0  0  0  0  0  0  0
   -0.8054    4.9732   11.3756 N   0  0  0  0  0  0  0  0  0  0  0  0
    2.4420    3.8107    8.3235 N   0  0  0  0  0  0  0  0  0  0  0  0
    3.9183    6.0992   12.4313 Cl  0  0  0  0  0  0  0  0  0  0  0  0
    1.7115    3.4497    7.7709 H   0  0  0  0  0  0  0  0  0  0  0  0
    3.3727    3.7529    8.0079 H   0  0  0  0  0  0  0  0  0  0  0  0
   -4.2206    3.1508   13.4380 C   0  0  0  0  0  0  0  0  0  0  0  0
   -3.5112    2.1950   12.7527 O   0  0  0  0  0  0  0  0  0  0  0  0
   -5.4610    2.0382   11.1569 N   0  0  0  0  0  0  0  0  0  0  0  0
   -3.0834    1.4697   10.6533 O   0  0  0  0  0  0  0  0  0  0  0  0
   -4.3689   -0.0005   12.1225 O   0  0  0  0  0  0  0  0  0  0  0  0
   -4.1285    1.2854   11.5937 S   0  0  0  0  0  0  0  0  0  0  0  0
   -6.1855    1.8811   11.8575 H   0  0  0  0  0  0  0  0  0  0  0  0
   -5.7753    1.6778   10.2560 H   0  0  0  0  0  0  0  0  0  0  0  0
 19 13  1  0  0  0
 15 10  2  0  0  0
 15 11  1  0  0  0
  6  1  1  0  0  0
 10 18  1  0  0  0
  2  1  1  0  0  0
  2  7  1  0  0  0
  2  4  1  0  0  0
 13 11  2  0  0  0
 13 17  1  0  0  0
 11 12  1  0  0  0
  1  3  1  0  0  0
 18 12  1  0  0  0
 18  4  1  0  0  0
 17 14  2  0  0  0
 12 16  2  0  0  0
  4  5  1  0  0  0
 14 16  1  0  0  0
 14 20  1  0  0  0
  3  5  1  0  0  0
  3 23  1  0  0  0
 23 24  1  0  0  0
 24 28  1  0  0  0
 25 28  1  0  0  0
 27 28  2  0  0  0
 28 26  2  0  0  0
 19 21  1  0  0  0
 19 22  1  0  0  0
 25 29  1  0  0  0
 25 30  1  0  0  0
  6  8  1  0  0  0
  7  9  1  0  0  0
M  END
> <minimizedAffinity>
-6.85907

$$$$
6C7X_EO7_A_302


 30 32  0  0  0  0  0  0  0  0999 V2000
   -3.4109    2.0871   11.8922 C   0  0  0  0  0  0  0  0  0  0  0  0
   -3.8763    3.3953   11.2233 C   0  0  0  0  0  0  0  0  0  0  0  0
   -4.5530    1.9042   12.8128 C   0  0  0  0  0  0  0  0  0  0  0  0
   -4.3728    4.2002   12.3551 C   0  0  0  0  0  0  0  0  0  0  0  0
   -4.7158    3.2392   13.3300 O   0  0  0  0  0  0  0  0  0  0  0  0
   -3.3124    1.0292   10.9812 O   0  0  0  0  0  0  0  0  0  0  0  0
   -5.0348    3.1923   10.3628 O   0  0  0  0  0  0  0  0  0  0  0  0
   -4.1579    0.9214   10.5183 H   0  0  0  0  0  0  0  0  0  0  0  0
   -5.7597    2.8095   10.8815 H   0  0  0  0  0  0  0  0  0  0  0  0
   -2.4732    5.0376   13.7801 C   0  0  0  0  0  0  0  0  0  0  0  0
   -2.3296    7.0891   13.3031 C   0  0  0  0  0  0  0  0  0  0  0  0
   -3.3670    6.5790   12.5680 C   0  0  0  0  0  0  0  0  0  0  0  0
   -1.9799    8.4194   13.2171 C   0  0  0  0  0  0  0  0  0  0  0  0
   -3.6667    8.5494   11.7255 C   0  0  0  0  0  0  0  0  0  0  0  0
   -1.7771    6.1067   14.0605 N   0  0  0  0  0  0  0  0  0  0  0  0
   -4.0973    7.2821   11.7248 N   0  0  0  0  0  0  0  0  0  0  0  0
   -2.7017    9.1849   12.3908 N   0  0  0  0  0  0  0  0  0  0  0  0
   -3.4510    5.2384   12.8532 N   0  0  0  0  0  0  0  0  0  0  0  0
   -0.9256    8.9198   13.9854 N   0  0  0  0  0  0  0  0  0  0  0  0
   -4.5200    9.5769   10.6780 Cl  0  0  0  0  0  0  0  0  0  0  0  0
   -0.4215    8.3187   14.5803 H   0  0  0  0  0  0  0  0  0  0  0  0
   -0.6867    9.8734   13.9319 H   0  0  0  0  0  0  0  0  0  0  0  0
   -4.1464    1.0593   13.9887 C   0  0  0  0  0  0  0  0  0  0  0  0
   -5.0457    1.0161   15.0259 O   0  0  0  0  0  0  0  0  0  0  0  0
   -5.2683    0.6236   17.5097 N   0  0  0  0  0  0  0  0  0  0  0  0
   -3.3944    1.8024   16.3569 O   0  0  0  0  0  0  0  0  0  0  0  0
   -5.5773    2.8928   16.4916 O   0  0  0  0  0  0  0  0  0  0  0  0
   -4.8068    1.7118   16.4439 S   0  0  0  0  0  0  0  0  0  0  0  0
   -6.2873    0.5898   17.5415 H   0  0  0  0  0  0  0  0  0  0  0  0
   -4.9075    0.8748   18.4301 H   0  0  0  0  0  0  0  0  0  0  0  0
 19 13  1  0  0  0
 15 10  2  0  0  0
 15 11  1  0  0  0
  6  1  1  0  0  0
 10 18  1  0  0  0
  2  1  1  0  0  0
  2  7  1  0  0  0
  2  4  1  0  0  0
 13 11  2  0  0  0
 13 17  1  0  0  0
 11 12  1  0  0  0
  1  3  1  0  0  0
 18 12  1  0  0  0
 18  4  1  0  0  0
 17 14  2  0  0  0
 12 16  2  0  0  0
  4  5  1  0  0  0
 14 16  1  0  0  0
 14 20  1  0  0  0
  3  5  1  0  0  0
  3 23  1  0  0  0
 23 24  1  0  0  0
 24 28  1  0  0  0
 25 28  1  0  0  0
 27 28  2  0  0  0
 28 26  2  0  0  0
 19 21  1  0  0  0
 19 22  1  0  0  0
 25 29  1  0  0  0
 25 30  1  0  0  0
  6  8  1  0  0  0
  7  9  1  0  0  0
M  END
> <minimizedAffinity>
-6.65732

$$$$
6C7X_EO7_A_302


 30 32  0  0  0  0  0  0  0  0999 V2000
   -3.1491    6.0750   10.5231 C   0  0  0  0  0  0  0  0  0  0  0  0
   -4.5561    5.4731   10.7060 C   0  0  0  0  0  0  0  0  0  0  0  0
   -2.7478    5.3101    9.3234 C   0  0  0  0  0  0  0  0  0  0  0  0
   -4.3435    4.0315   10.4779 C   0  0  0  0  0  0  0  0  0  0  0  0
   -3.1833    3.9825    9.6760 O   0  0  0  0  0  0  0  0  0  0  0  0
   -3.1879    7.4500   10.2649 O   0  0  0  0  0  0  0  0  0  0  0  0
   -5.4759    5.8934    9.6566 O   0  0  0  0  0  0  0  0  0  0  0  0
   -3.7593    7.6193    9.4996 H   0  0  0  0  0  0  0  0  0  0  0  0
   -5.1172    5.6400    8.7917 H   0  0  0  0  0  0  0  0  0  0  0  0
   -3.7105    1.9511   11.7474 C   0  0  0  0  0  0  0  0  0  0  0  0
   -4.3535    2.3303   13.7221 C   0  0  0  0  0  0  0  0  0  0  0  0
   -4.6911    3.4270   12.9737 C   0  0  0  0  0  0  0  0  0  0  0  0
   -4.6447    2.2669   15.0676 C   0  0  0  0  0  0  0  0  0  0  0  0
   -5.5217    4.3219   14.7601 C   0  0  0  0  0  0  0  0  0  0  0  0
   -3.7369    1.4104   12.9361 N   0  0  0  0  0  0  0  0  0  0  0  0
   -5.2928    4.4979   13.4531 N   0  0  0  0  0  0  0  0  0  0  0  0
   -5.2743    3.3189   15.6029 N   0  0  0  0  0  0  0  0  0  0  0  0
   -4.2531    3.1993   11.6924 N   0  0  0  0  0  0  0  0  0  0  0  0
   -4.3013    1.1329   15.8081 N   0  0  0  0  0  0  0  0  0  0  0  0
   -6.2958    5.6303   15.5152 Cl  0  0  0  0  0  0  0  0  0  0  0  0
   -3.8380    0.3818   15.3718 H   0  0  0  0  0  0  0  0  0  0  0  0
   -4.5227    1.0849   16.7662 H   0  0  0  0  0  0  0  0  0  0  0  0
   -1.2487    5.2347    9.2289 C   0  0  0  0  0  0  0  0  0  0  0  0
   -0.5702    5.4395   10.4053 O   0  0  0  0  0  0  0  0  0  0  0  0
    1.3920    5.2421   11.9813 N   0  0  0  0  0  0  0  0  0  0  0  0
   -0.5393    3.6698   11.8138 O   0  0  0  0  0  0  0  0  0  0  0  0
    1.1120    3.7163   10.0129 O   0  0  0  0  0  0  0  0  0  0  0  0
    0.4288    4.3764   11.0562 S   0  0  0  0  0  0  0  0  0  0  0  0
    2.0712    5.7329   11.3997 H   0  0  0  0  0  0  0  0  0  0  0  0
    1.8821    4.6274   12.6312 H   0  0  0  0  0  0  0  0  0  0  0  0
 19 13  1  0  0  0
 15 10  2  0  0  0
 15 11  1  0  0  0
  6  1  1  0  0  0
 10 18  1  0  0  0
  2  1  1  0  0  0
  2  7  1  0  0  0
  2  4  1  0  0  0
 13 11  2  0  0  0
 13 17  1  0  0  0
 11 12  1  0  0  0
  1  3  1  0  0  0
 18 12  1  0  0  0
 18  4  1  0  0  0
 17 14  2  0  0  0
 12 16  2  0  0  0
  4  5  1  0  0  0
 14 16  1  0  0  0
 14 20  1  0  0  0
  3  5  1  0  0  0
  3 23  1  0  0  0
 23 24  1  0  0  0
 24 28  1  0  0  0
 25 28  1  0  0  0
 27 28  2  0  0  0
 28 26  2  0  0  0
 19 21  1  0  0  0
 19 22  1  0  0  0
 25 29  1  0  0  0
 25 30  1  0  0  0
  6  8  1  0  0  0
  7  9  1  0  0  0
M  END
> <minimizedAffinity>
-6.45796

$$$$
