5YL2_8WU_B_504


 28 30  0  0  0  0  0  0  0  0999 V2000
   18.8061  225.6210   41.1551 C   0  0  0  0  0  0  0  0  0  0  0  0
   19.5933  226.5281   41.1578 O   0  0  0  0  0  0  0  0  0  0  0  0
   17.8522  225.4574   39.9367 C   0  0  0  0  0  0  0  0  0  0  0  0
   18.4150  225.3247   38.6797 C   0  0  0  0  0  0  0  0  0  0  0  0
   17.5753  225.1728   37.5195 C   0  0  0  0  0  0  0  0  0  0  0  0
   16.1719  225.1489   37.6753 C   0  0  0  0  0  0  0  0  0  0  0  0
   15.5713  225.2883   38.9890 C   0  0  0  0  0  0  0  0  0  0  0  0
   14.1209  225.2762   39.1625 C   0  0  0  0  0  0  0  0  0  0  0  0
   13.5524  225.7788   40.3786 C   0  0  0  0  0  0  0  0  0  0  0  0
   14.4976  226.3304   41.4593 C   0  0  0  0  0  0  0  0  0  0  0  0
   14.7584  227.8726   41.3559 C   0  0  0  0  0  0  0  0  0  0  0  0
   13.9034  226.2796   42.8454 C   0  0  0  0  0  0  0  0  0  0  0  0
   15.7925  225.5956   41.4405 O   0  0  0  0  0  0  0  0  0  0  0  0
   16.3849  225.4461   40.0857 C   0  0  0  0  0  0  0  0  0  0  0  0
   15.3562  224.9890   36.5338 O   0  0  0  0  0  0  0  0  0  0  0  0
   15.4518  226.0812   35.6836 C   0  0  0  0  0  0  0  0  0  0  0  0
   17.8537  224.8636   43.3575 C   0  0  0  0  0  0  0  0  0  0  0  0
   18.7489  224.6392   42.3219 C   0  0  0  0  0  0  0  0  0  0  0  0
   17.3893  222.2901   46.8345 C   0  0  0  0  0  0  0  0  0  0  0  0
   17.1612  221.8057   45.5773 C   0  0  0  0  0  0  0  0  0  0  0  0
   17.3172  222.6628   44.4367 C   0  0  0  0  0  0  0  0  0  0  0  0
   17.7088  223.9874   44.6161 C   0  0  0  0  0  0  0  0  0  0  0  0
   17.9276  224.4918   45.8942 C   0  0  0  0  0  0  0  0  0  0  0  0
   17.7789  223.6539   47.0086 C   0  0  0  0  0  0  0  0  0  0  0  0
   18.0061  224.1614   48.2804 O   0  0  0  0  0  0  0  0  0  0  0  0
   18.2614  225.0564   48.3889 H   0  0  0  0  0  0  0  0  0  0  0  0
   17.2502  220.0832   47.7823 C   0  0  0  0  0  0  0  0  0  0  0  0
   17.2422  221.5079   47.9487 O   0  0  0  0  0  0  0  0  0  0  0  0
 16 15  1  0  0  0
 15  6  1  0  0  0
  5  6  1  0  0  0
  5  4  2  0  0  0
  6  7  2  0  0  0
  4  3  1  0  0  0
  7  8  1  0  0  0
  7 14  1  0  0  0
  8  9  2  0  0  0
  3 14  2  0  0  0
  3  1  1  0  0  0
 14 13  1  0  0  0
  9 10  1  0  0  0
  2  1  2  0  0  0
 11 10  1  0  0  0
  1 18  1  0  0  0
 10 13  1  0  0  0
 10 12  1  0  0  0
 18 17  2  0  0  0
 17 22  1  0  0  0
 21 22  2  0  0  0
 21 20  1  0  0  0
 22 23  1  0  0  0
 23 24  2  0  0  0
 20 19  2  0  0  0
 19 24  1  0  0  0
 19 28  1  0  0  0
 24 25  1  0  0  0
 27 28  1  0  0  0
 25 26  1  0  0  0
M  END
> <minimizedAffinity>
-10.51854

$$$$
5YL2_8WU_B_504


 28 30  0  0  0  0  0  0  0  0999 V2000
   18.1993  225.8773   41.0330 C   0  0  0  0  0  0  0  0  0  0  0  0
   18.4850  227.0263   41.2345 O   0  0  0  0  0  0  0  0  0  0  0  0
   17.7582  225.4520   39.6028 C   0  0  0  0  0  0  0  0  0  0  0  0
   18.6739  225.5762   38.5729 C   0  0  0  0  0  0  0  0  0  0  0  0
   18.3139  225.1984   37.2306 C   0  0  0  0  0  0  0  0  0  0  0  0
   17.0218  224.6891   36.9744 C   0  0  0  0  0  0  0  0  0  0  0  0
   16.0536  224.5559   38.0470 C   0  0  0  0  0  0  0  0  0  0  0  0
   14.7103  224.0408   37.7935 C   0  0  0  0  0  0  0  0  0  0  0  0
   13.6759  224.2638   38.7603 C   0  0  0  0  0  0  0  0  0  0  0  0
   14.0176  225.0564   40.0334 C   0  0  0  0  0  0  0  0  0  0  0  0
   13.7573  226.5978   39.9177 C   0  0  0  0  0  0  0  0  0  0  0  0
   13.0985  224.7436   41.1885 C   0  0  0  0  0  0  0  0  0  0  0  0
   15.4303  224.8102   40.4345 O   0  0  0  0  0  0  0  0  0  0  0  0
   16.4067  224.9330   39.3208 C   0  0  0  0  0  0  0  0  0  0  0  0
   16.6807  224.3112   35.6573 O   0  0  0  0  0  0  0  0  0  0  0  0
   17.7219  223.6368   35.0361 C   0  0  0  0  0  0  0  0  0  0  0  0
   17.5064  225.0271   43.2977 C   0  0  0  0  0  0  0  0  0  0  0  0
   18.2771  224.8492   42.1581 C   0  0  0  0  0  0  0  0  0  0  0  0
   17.4433  222.3152   46.6992 C   0  0  0  0  0  0  0  0  0  0  0  0
   17.0468  221.8876   45.4634 C   0  0  0  0  0  0  0  0  0  0  0  0
   17.0714  222.7901   44.3476 C   0  0  0  0  0  0  0  0  0  0  0  0
   17.5077  224.1004   44.5282 C   0  0  0  0  0  0  0  0  0  0  0  0
   17.8980  224.5472   45.7867 C   0  0  0  0  0  0  0  0  0  0  0  0
   17.8776  223.6650   46.8763 C   0  0  0  0  0  0  0  0  0  0  0  0
   18.2755  224.1151   48.1276 O   0  0  0  0  0  0  0  0  0  0  0  0
   18.5594  225.0012   48.2383 H   0  0  0  0  0  0  0  0  0  0  0  0
   16.2786  221.5273   48.6514 C   0  0  0  0  0  0  0  0  0  0  0  0
   17.4255  221.4886   47.7906 O   0  0  0  0  0  0  0  0  0  0  0  0
 16 15  1  0  0  0
 15  6  1  0  0  0
  5  6  1  0  0  0
  5  4  2  0  0  0
  6  7  2  0  0  0
  4  3  1  0  0  0
  7  8  1  0  0  0
  7 14  1  0  0  0
  8  9  2  0  0  0
  3 14  2  0  0  0
  3  1  1  0  0  0
 14 13  1  0  0  0
  9 10  1  0  0  0
  2  1  2  0  0  0
 11 10  1  0  0  0
  1 18  1  0  0  0
 10 13  1  0  0  0
 10 12  1  0  0  0
 18 17  2  0  0  0
 17 22  1  0  0  0
 21 22  2  0  0  0
 21 20  1  0  0  0
 22 23  1  0  0  0
 23 24  2  0  0  0
 20 19  2  0  0  0
 19 24  1  0  0  0
 19 28  1  0  0  0
 24 25  1  0  0  0
 27 28  1  0  0  0
 25 26  1  0  0  0
M  END
> <minimizedAffinity>
-9.28144

$$$$
5YL2_8WU_B_504


 28 30  0  0  0  0  0  0  0  0999 V2000
   14.8661  226.9990   42.4547 C   0  0  0  0  0  0  0  0  0  0  0  0
   14.5563  228.1488   42.6118 O   0  0  0  0  0  0  0  0  0  0  0  0
   14.7518  226.3772   41.0330 C   0  0  0  0  0  0  0  0  0  0  0  0
   13.5020  225.9784   40.5931 C   0  0  0  0  0  0  0  0  0  0  0  0
   13.3434  225.3950   39.2859 C   0  0  0  0  0  0  0  0  0  0  0  0
   14.4720  225.2429   38.4508 C   0  0  0  0  0  0  0  0  0  0  0  0
   15.7874  225.6569   38.9028 C   0  0  0  0  0  0  0  0  0  0  0  0
   16.9646  225.4950   38.0531 C   0  0  0  0  0  0  0  0  0  0  0  0
   18.2710  225.5564   38.6397 C   0  0  0  0  0  0  0  0  0  0  0  0
   18.3860  225.7779   40.1573 C   0  0  0  0  0  0  0  0  0  0  0  0
   18.4559  224.4545   40.9945 C   0  0  0  0  0  0  0  0  0  0  0  0
   19.7027  226.3909   40.5667 C   0  0  0  0  0  0  0  0  0  0  0  0
   17.2637  226.6265   40.6445 O   0  0  0  0  0  0  0  0  0  0  0  0
   15.9258  226.1997   40.1580 C   0  0  0  0  0  0  0  0  0  0  0  0
   14.3059  224.6797   37.1665 O   0  0  0  0  0  0  0  0  0  0  0  0
   13.3976  225.4035   36.4077 C   0  0  0  0  0  0  0  0  0  0  0  0
   16.1432  225.0378   43.3789 C   0  0  0  0  0  0  0  0  0  0  0  0
   15.3730  226.1644   43.6274 C   0  0  0  0  0  0  0  0  0  0  0  0
   17.6093  222.2277   46.3591 C   0  0  0  0  0  0  0  0  0  0  0  0
   16.8214  221.7980   45.3287 C   0  0  0  0  0  0  0  0  0  0  0  0
   16.3427  222.7331   44.3506 C   0  0  0  0  0  0  0  0  0  0  0  0
   16.6907  224.0779   44.4521 C   0  0  0  0  0  0  0  0  0  0  0  0
   17.4797  224.5252   45.5072 C   0  0  0  0  0  0  0  0  0  0  0  0
   17.9504  223.6115   46.4610 C   0  0  0  0  0  0  0  0  0  0  0  0
   18.7434  224.0632   47.5069 O   0  0  0  0  0  0  0  0  0  0  0  0
   18.9642  224.9717   47.5689 H   0  0  0  0  0  0  0  0  0  0  0  0
   17.2672  220.2400   47.6709 C   0  0  0  0  0  0  0  0  0  0  0  0
   18.0780  221.3695   47.3177 O   0  0  0  0  0  0  0  0  0  0  0  0
 16 15  1  0  0  0
 15  6  1  0  0  0
  5  6  1  0  0  0
  5  4  2  0  0  0
  6  7  2  0  0  0
  4  3  1  0  0  0
  7  8  1  0  0  0
  7 14  1  0  0  0
  8  9  2  0  0  0
  3 14  2  0  0  0
  3  1  1  0  0  0
 14 13  1  0  0  0
  9 10  1  0  0  0
  2  1  2  0  0  0
 11 10  1  0  0  0
  1 18  1  0  0  0
 10 13  1  0  0  0
 10 12  1  0  0  0
 18 17  2  0  0  0
 17 22  1  0  0  0
 21 22  2  0  0  0
 21 20  1  0  0  0
 22 23  1  0  0  0
 23 24  2  0  0  0
 20 19  2  0  0  0
 19 24  1  0  0  0
 19 28  1  0  0  0
 24 25  1  0  0  0
 27 28  1  0  0  0
 25 26  1  0  0  0
M  END
> <minimizedAffinity>
-9.07677

$$$$
5YL2_8WU_B_504


 28 30  0  0  0  0  0  0  0  0999 V2000
   14.5263  225.0579   41.2338 C   0  0  0  0  0  0  0  0  0  0  0  0
   13.3726  225.3201   41.0270 O   0  0  0  0  0  0  0  0  0  0  0  0
   15.5044  224.9665   40.0271 C   0  0  0  0  0  0  0  0  0  0  0  0
   15.0398  224.4050   38.8509 C   0  0  0  0  0  0  0  0  0  0  0  0
   15.9063  224.2952   37.7058 C   0  0  0  0  0  0  0  0  0  0  0  0
   17.2319  224.7753   37.7884 C   0  0  0  0  0  0  0  0  0  0  0  0
   17.7295  225.3649   39.0176 C   0  0  0  0  0  0  0  0  0  0  0  0
   19.1017  225.8554   39.1196 C   0  0  0  0  0  0  0  0  0  0  0  0
   19.6751  226.0809   40.4137 C   0  0  0  0  0  0  0  0  0  0  0  0
   18.8222  225.7820   41.6583 C   0  0  0  0  0  0  0  0  0  0  0  0
   18.9972  224.3295   42.2211 C   0  0  0  0  0  0  0  0  0  0  0  0
   19.2559  226.5644   42.8734 C   0  0  0  0  0  0  0  0  0  0  0  0
   17.3840  226.0463   41.3775 O   0  0  0  0  0  0  0  0  0  0  0  0
   16.8952  225.4509   40.1066 C   0  0  0  0  0  0  0  0  0  0  0  0
   18.0716  224.6733   36.6577 O   0  0  0  0  0  0  0  0  0  0  0  0
   17.4868  223.9103   35.6574 C   0  0  0  0  0  0  0  0  0  0  0  0
   15.7986  223.7092   42.9350 C   0  0  0  0  0  0  0  0  0  0  0  0
   15.0272  224.8281   42.6569 C   0  0  0  0  0  0  0  0  0  0  0  0
   17.4143  222.7267   46.8531 C   0  0  0  0  0  0  0  0  0  0  0  0
   17.7420  223.9047   46.2430 C   0  0  0  0  0  0  0  0  0  0  0  0
   17.2036  224.2194   44.9503 C   0  0  0  0  0  0  0  0  0  0  0  0
   16.3406  223.3232   44.3242 C   0  0  0  0  0  0  0  0  0  0  0  0
   16.0149  222.1150   44.9325 C   0  0  0  0  0  0  0  0  0  0  0  0
   16.5378  221.8086   46.1970 C   0  0  0  0  0  0  0  0  0  0  0  0
   16.2028  220.6048   46.8015 O   0  0  0  0  0  0  0  0  0  0  0  0
   15.6275  220.0064   46.3669 H   0  0  0  0  0  0  0  0  0  0  0  0
   17.2351  222.8698   49.2481 C   0  0  0  0  0  0  0  0  0  0  0  0
   17.9141  222.3848   48.0813 O   0  0  0  0  0  0  0  0  0  0  0  0
 16 15  1  0  0  0
 15  6  1  0  0  0
  5  6  1  0  0  0
  5  4  2  0  0  0
  6  7  2  0  0  0
  4  3  1  0  0  0
  7  8  1  0  0  0
  7 14  1  0  0  0
  8  9  2  0  0  0
  3 14  2  0  0  0
  3  1  1  0  0  0
 14 13  1  0  0  0
  9 10  1  0  0  0
  2  1  2  0  0  0
 11 10  1  0  0  0
  1 18  1  0  0  0
 10 13  1  0  0  0
 10 12  1  0  0  0
 18 17  2  0  0  0
 17 22  1  0  0  0
 21 22  2  0  0  0
 21 20  1  0  0  0
 22 23  1  0  0  0
 23 24  2  0  0  0
 20 19  2  0  0  0
 19 24  1  0  0  0
 19 28  1  0  0  0
 24 25  1  0  0  0
 27 28  1  0  0  0
 25 26  1  0  0  0
M  END
> <minimizedAffinity>
-8.00405

$$$$
