1U1W_3HA_A_700


 15 15  0  0  0  0  0  0  0  0999 V2000
    7.3139   30.8271   21.5718 C   0  0  0  0  0  0  0  0  0  0  0  0
    6.8027   32.0016   20.9921 C   0  0  0  0  0  0  0  0  0  0  0  0
    6.4558   31.9896   19.6252 C   0  0  0  0  0  0  0  0  0  0  0  0
    6.6234   30.8616   18.8587 C   0  0  0  0  0  0  0  0  0  0  0  0
    7.1475   29.7076   19.4390 C   0  0  0  0  0  0  0  0  0  0  0  0
    7.3048   28.5650   18.7355 O   0  0  0  0  0  0  0  0  0  0  0  0
    7.5108   29.6748   20.8314 C   0  0  0  0  0  0  0  0  0  0  0  0
    8.1017   28.4773   21.2938 N   0  0  0  0  0  0  0  0  0  0  0  0
    7.0810   28.5403   17.8259 H   0  0  0  0  0  0  0  0  0  0  0  0
    8.3720   28.3939   22.2368 H   0  0  0  0  0  0  0  0  0  0  0  0
    8.2431   27.7264   20.6730 H   0  0  0  0  0  0  0  0  0  0  0  0
    8.1318   29.8730   23.6069 O   0  0  0  0  0  0  0  0  0  0  0  0
    7.6027   30.8536   23.0391 C   0  0  0  0  0  0  0  0  0  0  0  0
    7.2477   31.8917   23.6802 O   0  0  0  0  0  0  0  0  0  0  0  0
    8.3829   29.1214   23.1069 H   0  0  0  0  0  0  0  0  0  0  0  0
 12 13  1  0  0  0
 13 14  2  0  0  0
 13  1  1  0  0  0
  1  2  1  0  0  0
  1  7  2  0  0  0
  2  3  2  0  0  0
  3  4  1  0  0  0
  4  5  2  0  0  0
  5  6  1  0  0  0
  5  7  1  0  0  0
  7  8  1  0  0  0
 12 15  1  0  0  0
  6  9  1  0  0  0
  8 10  1  0  0  0
  8 11  1  0  0  0
M  END
> <minimizedAffinity>
-8.77781

$$$$
1U1W_3HA_A_700


 15 15  0  0  0  0  0  0  0  0999 V2000
    7.0835   30.2607   20.0767 C   0  0  0  0  0  0  0  0  0  0  0  0
    6.5753   31.3554   19.3556 C   0  0  0  0  0  0  0  0  0  0  0  0
    6.3094   32.5577   20.0430 C   0  0  0  0  0  0  0  0  0  0  0  0
    6.5245   32.6662   21.3958 C   0  0  0  0  0  0  0  0  0  0  0  0
    7.0121   31.5694   22.1045 C   0  0  0  0  0  0  0  0  0  0  0  0
    7.2672   31.6340   23.4296 O   0  0  0  0  0  0  0  0  0  0  0  0
    7.3010   30.3247   21.4418 C   0  0  0  0  0  0  0  0  0  0  0  0
    7.7186   29.2590   22.2705 N   0  0  0  0  0  0  0  0  0  0  0  0
    7.0945   32.4246   23.9020 H   0  0  0  0  0  0  0  0  0  0  0  0
    7.9308   28.3824   21.8758 H   0  0  0  0  0  0  0  0  0  0  0  0
    7.7973   29.3931   23.2427 H   0  0  0  0  0  0  0  0  0  0  0  0
    8.1578   28.1420   19.7967 O   0  0  0  0  0  0  0  0  0  0  0  0
    7.4225   29.0257   19.3042 C   0  0  0  0  0  0  0  0  0  0  0  0
    6.9682   28.9405   18.1205 O   0  0  0  0  0  0  0  0  0  0  0  0
    8.4774   28.2331   20.6728 H   0  0  0  0  0  0  0  0  0  0  0  0
 12 13  1  0  0  0
 13 14  2  0  0  0
 13  1  1  0  0  0
  1  2  1  0  0  0
  1  7  2  0  0  0
  2  3  2  0  0  0
  3  4  1  0  0  0
  4  5  2  0  0  0
  5  6  1  0  0  0
  5  7  1  0  0  0
  7  8  1  0  0  0
 12 15  1  0  0  0
  6  9  1  0  0  0
  8 10  1  0  0  0
  8 11  1  0  0  0
M  END
> <minimizedAffinity>
-7.24156

$$$$
1U1W_3HA_A_700


 15 15  0  0  0  0  0  0  0  0999 V2000
    7.0241   31.2682   20.6474 C   0  0  0  0  0  0  0  0  0  0  0  0
    7.0360   32.0374   21.8243 C   0  0  0  0  0  0  0  0  0  0  0  0
    7.4644   31.4354   23.0254 C   0  0  0  0  0  0  0  0  0  0  0  0
    7.8517   30.1175   23.0619 C   0  0  0  0  0  0  0  0  0  0  0  0
    7.8196   29.3589   21.8929 C   0  0  0  0  0  0  0  0  0  0  0  0
    8.2172   28.0679   21.8705 O   0  0  0  0  0  0  0  0  0  0  0  0
    7.3932   29.9347   20.6445 C   0  0  0  0  0  0  0  0  0  0  0  0
    7.3286   29.0540   19.5411 N   0  0  0  0  0  0  0  0  0  0  0  0
    8.5030   27.6520   22.6600 H   0  0  0  0  0  0  0  0  0  0  0  0
    7.0438   29.3887   18.6602 H   0  0  0  0  0  0  0  0  0  0  0  0
    7.5684   28.1058   19.6534 H   0  0  0  0  0  0  0  0  0  0  0  0
    7.0311   31.5361   18.2705 O   0  0  0  0  0  0  0  0  0  0  0  0
    6.6339   31.9579   19.3789 C   0  0  0  0  0  0  0  0  0  0  0  0
    5.9240   33.0064   19.4849 O   0  0  0  0  0  0  0  0  0  0  0  0
    7.5534   30.7595   18.2246 H   0  0  0  0  0  0  0  0  0  0  0  0
 12 13  1  0  0  0
 13 14  2  0  0  0
 13  1  1  0  0  0
  1  2  1  0  0  0
  1  7  2  0  0  0
  2  3  2  0  0  0
  3  4  1  0  0  0
  4  5  2  0  0  0
  5  6  1  0  0  0
  5  7  1  0  0  0
  7  8  1  0  0  0
 12 15  1  0  0  0
  6  9  1  0  0  0
  8 10  1  0  0  0
  8 11  1  0  0  0
M  END
> <minimizedAffinity>
-7.22667

$$$$
1U1W_3HA_A_700


 15 15  0  0  0  0  0  0  0  0999 V2000
    7.3132   30.6656   21.5588 C   0  0  0  0  0  0  0  0  0  0  0  0
    7.3400   29.3830   20.9834 C   0  0  0  0  0  0  0  0  0  0  0  0
    7.1053   29.2543   19.5988 C   0  0  0  0  0  0  0  0  0  0  0  0
    6.8392   30.3526   18.8173 C   0  0  0  0  0  0  0  0  0  0  0  0
    6.7976   31.6179   19.4008 C   0  0  0  0  0  0  0  0  0  0  0  0
    6.5686   32.7315   18.6711 O   0  0  0  0  0  0  0  0  0  0  0  0
    7.0355   31.7951   20.8093 C   0  0  0  0  0  0  0  0  0  0  0  0
    6.8939   33.1109   21.3051 N   0  0  0  0  0  0  0  0  0  0  0  0
    6.4089   32.6637   17.7503 H   0  0  0  0  0  0  0  0  0  0  0  0
    7.0436   33.2957   22.2604 H   0  0  0  0  0  0  0  0  0  0  0  0
    6.6455   33.8427   20.6952 H   0  0  0  0  0  0  0  0  0  0  0  0
    8.2100   29.8374   23.6158 O   0  0  0  0  0  0  0  0  0  0  0  0
    7.6381   30.7732   23.0148 C   0  0  0  0  0  0  0  0  0  0  0  0
    7.2690   31.8316   23.6135 O   0  0  0  0  0  0  0  0  0  0  0  0
    8.4703   29.0692   23.1467 H   0  0  0  0  0  0  0  0  0  0  0  0
 12 13  1  0  0  0
 13 14  2  0  0  0
 13  1  1  0  0  0
  1  2  1  0  0  0
  1  7  2  0  0  0
  2  3  2  0  0  0
  3  4  1  0  0  0
  4  5  2  0  0  0
  5  6  1  0  0  0
  5  7  1  0  0  0
  7  8  1  0  0  0
 12 15  1  0  0  0
  6  9  1  0  0  0
  8 10  1  0  0  0
  8 11  1  0  0  0
M  END
> <minimizedAffinity>
-7.20883

$$$$
1U1W_3HA_A_700


 15 15  0  0  0  0  0  0  0  0999 V2000
    7.3117   30.2222   21.0976 C   0  0  0  0  0  0  0  0  0  0  0  0
    7.0717   29.7195   19.8066 C   0  0  0  0  0  0  0  0  0  0  0  0
    6.6263   30.6057   18.8041 C   0  0  0  0  0  0  0  0  0  0  0  0
    6.4122   31.9359   19.0745 C   0  0  0  0  0  0  0  0  0  0  0  0
    6.6364   32.4205   20.3620 C   0  0  0  0  0  0  0  0  0  0  0  0
    6.4683   33.7248   20.6714 O   0  0  0  0  0  0  0  0  0  0  0  0
    7.0953   31.5517   21.4139 C   0  0  0  0  0  0  0  0  0  0  0  0
    7.2163   32.1342   22.6958 N   0  0  0  0  0  0  0  0  0  0  0  0
    6.1711   34.3268   20.0178 H   0  0  0  0  0  0  0  0  0  0  0  0
    7.5255   31.5907   23.4563 H   0  0  0  0  0  0  0  0  0  0  0  0
    6.9914   33.0835   22.8284 H   0  0  0  0  0  0  0  0  0  0  0  0
    8.1658   28.1015   21.8010 O   0  0  0  0  0  0  0  0  0  0  0  0
    7.8526   29.2704   22.1167 C   0  0  0  0  0  0  0  0  0  0  0  0
    7.9355   29.6895   23.3135 O   0  0  0  0  0  0  0  0  0  0  0  0
    8.0938   27.8218   20.9097 H   0  0  0  0  0  0  0  0  0  0  0  0
 12 13  1  0  0  0
 13 14  2  0  0  0
 13  1  1  0  0  0
  1  2  1  0  0  0
  1  7  2  0  0  0
  2  3  2  0  0  0
  3  4  1  0  0  0
  4  5  2  0  0  0
  5  6  1  0  0  0
  5  7  1  0  0  0
  7  8  1  0  0  0
 12 15  1  0  0  0
  6  9  1  0  0  0
  8 10  1  0  0  0
  8 11  1  0  0  0
M  END
> <minimizedAffinity>
-7.01668

$$$$
1U1W_3HA_A_700


 15 15  0  0  0  0  0  0  0  0999 V2000
    6.7774   31.4844   20.0316 C   0  0  0  0  0  0  0  0  0  0  0  0
    6.6548   31.0351   18.7050 C   0  0  0  0  0  0  0  0  0  0  0  0
    6.9731   29.6934   18.4097 C   0  0  0  0  0  0  0  0  0  0  0  0
    7.4108   28.8342   19.3886 C   0  0  0  0  0  0  0  0  0  0  0  0
    7.5456   29.2944   20.6974 C   0  0  0  0  0  0  0  0  0  0  0  0
    7.9444   28.4820   21.7005 O   0  0  0  0  0  0  0  0  0  0  0  0
    7.2276   30.6549   21.0435 C   0  0  0  0  0  0  0  0  0  0  0  0
    7.4734   31.0315   22.3832 N   0  0  0  0  0  0  0  0  0  0  0  0
    8.1617   27.5883   21.5213 H   0  0  0  0  0  0  0  0  0  0  0  0
    7.2761   31.9490   22.6807 H   0  0  0  0  0  0  0  0  0  0  0  0
    7.8419   30.3763   23.0190 H   0  0  0  0  0  0  0  0  0  0  0  0
    7.0318   33.6117   21.0952 O   0  0  0  0  0  0  0  0  0  0  0  0
    6.3622   32.8916   20.3225 C   0  0  0  0  0  0  0  0  0  0  0  0
    5.2846   33.2996   19.7867 O   0  0  0  0  0  0  0  0  0  0  0  0
    7.8226   33.2826   21.4749 H   0  0  0  0  0  0  0  0  0  0  0  0
 12 13  1  0  0  0
 13 14  2  0  0  0
 13  1  1  0  0  0
  1  2  1  0  0  0
  1  7  2  0  0  0
  2  3  2  0  0  0
  3  4  1  0  0  0
  4  5  2  0  0  0
  5  6  1  0  0  0
  5  7  1  0  0  0
  7  8  1  0  0  0
 12 15  1  0  0  0
  6  9  1  0  0  0
  8 10  1  0  0  0
  8 11  1  0  0  0
M  END
> <minimizedAffinity>
-6.75297

$$$$
1U1W_3HA_A_700


 15 15  0  0  0  0  0  0  0  0999 V2000
    6.9982   30.7624   20.3197 C   0  0  0  0  0  0  0  0  0  0  0  0
    7.3804   29.4193   20.4836 C   0  0  0  0  0  0  0  0  0  0  0  0
    7.7586   28.9720   21.7665 C   0  0  0  0  0  0  0  0  0  0  0  0
    7.7722   29.8266   22.8424 C   0  0  0  0  0  0  0  0  0  0  0  0
    7.4083   31.1605   22.6655 C   0  0  0  0  0  0  0  0  0  0  0  0
    7.3777   32.0331   23.6965 O   0  0  0  0  0  0  0  0  0  0  0  0
    7.0115   31.6579   21.3744 C   0  0  0  0  0  0  0  0  0  0  0  0
    6.7366   33.0420   21.2967 N   0  0  0  0  0  0  0  0  0  0  0  0
    7.6277   31.7529   24.5549 H   0  0  0  0  0  0  0  0  0  0  0  0
    6.4606   33.4417   20.4403 H   0  0  0  0  0  0  0  0  0  0  0  0
    6.8212   33.6064   22.0988 H   0  0  0  0  0  0  0  0  0  0  0  0
    7.2606   31.0259   17.9568 O   0  0  0  0  0  0  0  0  0  0  0  0
    6.5337   31.1845   18.9621 C   0  0  0  0  0  0  0  0  0  0  0  0
    5.3961   31.7459   18.8882 O   0  0  0  0  0  0  0  0  0  0  0  0
    8.0949   30.6081   18.0432 H   0  0  0  0  0  0  0  0  0  0  0  0
 12 13  1  0  0  0
 13 14  2  0  0  0
 13  1  1  0  0  0
  1  2  1  0  0  0
  1  7  2  0  0  0
  2  3  2  0  0  0
  3  4  1  0  0  0
  4  5  2  0  0  0
  5  6  1  0  0  0
  5  7  1  0  0  0
  7  8  1  0  0  0
 12 15  1  0  0  0
  6  9  1  0  0  0
  8 10  1  0  0  0
  8 11  1  0  0  0
M  END
> <minimizedAffinity>
-6.62243

$$$$
1U1W_3HA_A_700


 15 15  0  0  0  0  0  0  0  0999 V2000
    7.1116   30.6435   20.7731 C   0  0  0  0  0  0  0  0  0  0  0  0
    6.5769   30.5911   19.4738 C   0  0  0  0  0  0  0  0  0  0  0  0
    6.2634   31.7999   18.8187 C   0  0  0  0  0  0  0  0  0  0  0  0
    6.4578   33.0134   19.4333 C   0  0  0  0  0  0  0  0  0  0  0  0
    6.9721   33.0535   20.7283 C   0  0  0  0  0  0  0  0  0  0  0  0
    7.2084   34.2215   21.3649 O   0  0  0  0  0  0  0  0  0  0  0  0
    7.3097   31.8441   21.4319 C   0  0  0  0  0  0  0  0  0  0  0  0
    7.7515   32.0007   22.7652 N   0  0  0  0  0  0  0  0  0  0  0  0
    7.0040   35.0337   20.9447 H   0  0  0  0  0  0  0  0  0  0  0  0
    7.9971   31.2103   23.2984 H   0  0  0  0  0  0  0  0  0  0  0  0
    7.8137   32.9001   23.1607 H   0  0  0  0  0  0  0  0  0  0  0  0
    7.3154   29.1507   22.6309 O   0  0  0  0  0  0  0  0  0  0  0  0
    7.5004   29.3471   21.4098 C   0  0  0  0  0  0  0  0  0  0  0  0
    8.0615   28.4826   20.6665 O   0  0  0  0  0  0  0  0  0  0  0  0
    6.8986   29.8076   23.1532 H   0  0  0  0  0  0  0  0  0  0  0  0
 12 13  1  0  0  0
 13 14  2  0  0  0
 13  1  1  0  0  0
  1  2  1  0  0  0
  1  7  2  0  0  0
  2  3  2  0  0  0
  3  4  1  0  0  0
  4  5  2  0  0  0
  5  6  1  0  0  0
  5  7  1  0  0  0
  7  8  1  0  0  0
 12 15  1  0  0  0
  6  9  1  0  0  0
  8 10  1  0  0  0
  8 11  1  0  0  0
M  END
> <minimizedAffinity>
-6.12229

$$$$
