4OIV_XX9_A_501


 33 35  0  0  0  0  0  0  0  0999 V2000
   10.7195   14.2100  -20.5744 C   0  0  0  0  0  0  0  0  0  0  0  0
    9.6077   14.6271  -20.1689 O   0  0  0  0  0  0  0  0  0  0  0  0
   11.8121   14.4259  -19.8251 N   0  0  0  0  0  0  0  0  0  0  0  0
    9.8918   11.3355  -20.6378 Cl  0  0  0  0  0  0  0  0  0  0  0  0
   10.4109   12.2638  -22.0253 C   0  0  0  0  0  0  0  0  0  0  0  0
   10.4419   11.6116  -23.2573 C   0  0  0  0  0  0  0  0  0  0  0  0
   10.8117   12.2439  -24.4239 C   0  0  0  0  0  0  0  0  0  0  0  0
   11.1950   13.5786  -24.2736 C   0  0  0  0  0  0  0  0  0  0  0  0
   11.2224   14.2083  -23.0271 C   0  0  0  0  0  0  0  0  0  0  0  0
   11.7681   15.9478  -22.9473 Cl  0  0  0  0  0  0  0  0  0  0  0  0
   10.8286   13.5668  -21.8409 C   0  0  0  0  0  0  0  0  0  0  0  0
   10.8595   11.6158  -25.6049 N   0  0  0  0  0  0  0  0  0  0  0  0
   11.1419   10.1144  -25.6638 C   0  0  0  0  0  0  0  0  0  0  0  0
   10.5148   12.3371  -26.8485 C   0  0  0  0  0  0  0  0  0  0  0  0
   13.0463   13.9673  -20.2127 C   0  0  0  0  0  0  0  0  0  0  0  0
   14.0066   14.9082  -20.6059 C   0  0  0  0  0  0  0  0  0  0  0  0
   13.2974   12.5873  -20.1316 C   0  0  0  0  0  0  0  0  0  0  0  0
   14.5987   12.1610  -20.4450 C   0  0  0  0  0  0  0  0  0  0  0  0
   15.5720   13.0881  -20.8008 C   0  0  0  0  0  0  0  0  0  0  0  0
   16.8278   12.6350  -21.0826 O   0  0  0  0  0  0  0  0  0  0  0  0
   15.2895   14.5005  -20.9530 C   0  0  0  0  0  0  0  0  0  0  0  0
   17.5009   13.2402  -21.3248 H   0  0  0  0  0  0  0  0  0  0  0  0
   16.3456   15.4271  -21.2697 C   0  0  0  0  0  0  0  0  0  0  0  0
   17.3535   15.5678  -20.0971 C   0  0  0  0  0  0  0  0  0  0  0  0
   17.0661   15.1004  -22.5491 C   0  0  0  0  0  0  0  0  0  0  0  0
   15.7381   16.8092  -21.5770 C   0  0  0  0  0  0  0  0  0  0  0  0
   11.6474   15.1686  -18.5261 C   0  0  0  0  0  0  0  0  0  0  0  0
   12.3492   16.4665  -18.4716 C   0  0  0  0  0  0  0  0  0  0  0  0
   13.4468   16.6204  -17.6731 C   0  0  0  0  0  0  0  0  0  0  0  0
   14.1724   17.8303  -17.6875 C   0  0  0  0  0  0  0  0  0  0  0  0
   13.6576   18.8864  -18.4626 C   0  0  0  0  0  0  0  0  0  0  0  0
   12.5186   18.7743  -19.2650 C   0  0  0  0  0  0  0  0  0  0  0  0
   11.8536   17.5019  -19.2363 C   0  0  0  0  0  0  0  0  0  0  0  0
 13 12  1  0  0  0
 14 12  1  0  0  0
 12  7  1  0  0  0
  7  8  2  0  0  0
  7  6  1  0  0  0
  8  9  1  0  0  0
  6  5  2  0  0  0
  9 10  1  0  0  0
  9 11  2  0  0  0
 24 23  1  0  0  0
  5 11  1  0  0  0
  5  4  1  0  0  0
 11  1  1  0  0  0
 23 25  1  0  0  0
 23 21  1  0  0  0
 23 26  1  0  0  0
 20 19  1  0  0  0
 21 19  2  0  0  0
 21 16  1  0  0  0
 19 18  1  0  0  0
 16 15  2  0  0  0
 18 17  2  0  0  0
  1  2  2  0  0  0
  1  3  1  0  0  0
 15 17  1  0  0  0
 15  3  1  0  0  0
  3 27  1  0  0  0
 29 30  2  0  0  0
 29 28  1  0  0  0
 30 31  1  0  0  0
 31 32  2  0  0  0
 28 27  1  0  0  0
 28 33  2  0  0  0
 33 32  1  0  0  0
 20 22  1  0  0  0
M  END
> <minimizedAffinity>
-10.66835

$$$$
4OIV_XX9_A_501


 33 35  0  0  0  0  0  0  0  0999 V2000
   10.7754   14.2389  -20.0841 C   0  0  0  0  0  0  0  0  0  0  0  0
    9.7269   14.6806  -19.5549 O   0  0  0  0  0  0  0  0  0  0  0  0
   11.9527   14.4418  -19.4720 N   0  0  0  0  0  0  0  0  0  0  0  0
   11.5223   15.9169  -22.4460 Cl  0  0  0  0  0  0  0  0  0  0  0  0
   11.1127   14.2185  -22.5077 C   0  0  0  0  0  0  0  0  0  0  0  0
   11.1354   13.5989  -23.7566 C   0  0  0  0  0  0  0  0  0  0  0  0
   10.8531   12.2616  -23.9282 C   0  0  0  0  0  0  0  0  0  0  0  0
   10.5002   11.5805  -22.7610 C   0  0  0  0  0  0  0  0  0  0  0  0
   10.4176   12.2211  -21.5225 C   0  0  0  0  0  0  0  0  0  0  0  0
    9.9185   11.2363  -20.0695 Cl  0  0  0  0  0  0  0  0  0  0  0  0
   10.7225   13.5812  -21.3468 C   0  0  0  0  0  0  0  0  0  0  0  0
   10.8568   11.6683  -25.1279 N   0  0  0  0  0  0  0  0  0  0  0  0
   10.9064   10.1436  -25.2291 C   0  0  0  0  0  0  0  0  0  0  0  0
   10.6843   12.4703  -26.3579 C   0  0  0  0  0  0  0  0  0  0  0  0
   13.1242   13.9565  -19.9973 C   0  0  0  0  0  0  0  0  0  0  0  0
   14.0775   14.8785  -20.4479 C   0  0  0  0  0  0  0  0  0  0  0  0
   13.3277   12.5663  -19.9940 C   0  0  0  0  0  0  0  0  0  0  0  0
   14.5744   12.1078  -20.4510 C   0  0  0  0  0  0  0  0  0  0  0  0
   15.5438   13.0140  -20.8662 C   0  0  0  0  0  0  0  0  0  0  0  0
   16.7473   12.5291  -21.2884 O   0  0  0  0  0  0  0  0  0  0  0  0
   15.3034   14.4406  -20.9359 C   0  0  0  0  0  0  0  0  0  0  0  0
   17.4166   13.1198  -21.5730 H   0  0  0  0  0  0  0  0  0  0  0  0
   16.3589   15.3419  -21.3205 C   0  0  0  0  0  0  0  0  0  0  0  0
   17.4601   15.4314  -20.2296 C   0  0  0  0  0  0  0  0  0  0  0  0
   16.9659   15.0180  -22.6582 C   0  0  0  0  0  0  0  0  0  0  0  0
   15.7715   16.7464  -21.5562 C   0  0  0  0  0  0  0  0  0  0  0  0
   11.9560   15.2003  -18.1717 C   0  0  0  0  0  0  0  0  0  0  0  0
   12.5897   16.5320  -18.2431 C   0  0  0  0  0  0  0  0  0  0  0  0
   13.7733   16.7644  -17.6021 C   0  0  0  0  0  0  0  0  0  0  0  0
   14.4260   18.0072  -17.7428 C   0  0  0  0  0  0  0  0  0  0  0  0
   13.7587   19.0120  -18.4682 C   0  0  0  0  0  0  0  0  0  0  0  0
   12.5313   18.8193  -19.1087 C   0  0  0  0  0  0  0  0  0  0  0  0
   11.9438   17.5174  -18.9602 C   0  0  0  0  0  0  0  0  0  0  0  0
 13 12  1  0  0  0
 14 12  1  0  0  0
 12  7  1  0  0  0
  7  8  2  0  0  0
  7  6  1  0  0  0
  8  9  1  0  0  0
  6  5  2  0  0  0
  9 10  1  0  0  0
  9 11  2  0  0  0
 24 23  1  0  0  0
  5 11  1  0  0  0
  5  4  1  0  0  0
 11  1  1  0  0  0
 23 25  1  0  0  0
 23 21  1  0  0  0
 23 26  1  0  0  0
 20 19  1  0  0  0
 21 19  2  0  0  0
 21 16  1  0  0  0
 19 18  1  0  0  0
 16 15  2  0  0  0
 18 17  2  0  0  0
  1  2  2  0  0  0
  1  3  1  0  0  0
 15 17  1  0  0  0
 15  3  1  0  0  0
  3 27  1  0  0  0
 29 30  2  0  0  0
 29 28  1  0  0  0
 30 31  1  0  0  0
 31 32  2  0  0  0
 28 27  1  0  0  0
 28 33  2  0  0  0
 33 32  1  0  0  0
 20 22  1  0  0  0
M  END
> <minimizedAffinity>
-9.93590

$$$$
4OIV_XX9_A_501


 33 35  0  0  0  0  0  0  0  0999 V2000
   14.6864   16.8634  -19.1065 C   0  0  0  0  0  0  0  0  0  0  0  0
   15.5788   17.2110  -18.2958 O   0  0  0  0  0  0  0  0  0  0  0  0
   15.0210   16.6214  -20.3837 N   0  0  0  0  0  0  0  0  0  0  0  0
   13.8542   14.2478  -17.9156 Cl  0  0  0  0  0  0  0  0  0  0  0  0
   12.8326   15.6593  -18.0569 C   0  0  0  0  0  0  0  0  0  0  0  0
   11.5273   15.5562  -17.5774 C   0  0  0  0  0  0  0  0  0  0  0  0
   10.6369   16.6066  -17.6136 C   0  0  0  0  0  0  0  0  0  0  0  0
   11.1266   17.7725  -18.2067 C   0  0  0  0  0  0  0  0  0  0  0  0
   12.4142   17.8499  -18.7425 C   0  0  0  0  0  0  0  0  0  0  0  0
   12.9367   19.4165  -19.5189 Cl  0  0  0  0  0  0  0  0  0  0  0  0
   13.3266   16.7829  -18.6891 C   0  0  0  0  0  0  0  0  0  0  0  0
    9.3781   16.5051  -17.1704 N   0  0  0  0  0  0  0  0  0  0  0  0
    8.3734   15.6219  -17.9107 C   0  0  0  0  0  0  0  0  0  0  0  0
    8.9822   17.1401  -15.8953 C   0  0  0  0  0  0  0  0  0  0  0  0
   14.0863   16.2140  -21.3024 C   0  0  0  0  0  0  0  0  0  0  0  0
   13.3362   15.0661  -21.0165 C   0  0  0  0  0  0  0  0  0  0  0  0
   13.8898   17.0065  -22.4459 C   0  0  0  0  0  0  0  0  0  0  0  0
   12.8616   16.6143  -23.3190 C   0  0  0  0  0  0  0  0  0  0  0  0
   12.0847   15.4983  -23.0285 C   0  0  0  0  0  0  0  0  0  0  0  0
   11.0858   15.1598  -23.8942 O   0  0  0  0  0  0  0  0  0  0  0  0
   12.3379   14.6437  -21.8869 C   0  0  0  0  0  0  0  0  0  0  0  0
   10.5486   14.4120  -23.7203 H   0  0  0  0  0  0  0  0  0  0  0  0
   11.4696   13.5311  -21.5999 C   0  0  0  0  0  0  0  0  0  0  0  0
   10.2403   13.9677  -20.7578 C   0  0  0  0  0  0  0  0  0  0  0  0
   11.0295   12.7819  -22.8277 C   0  0  0  0  0  0  0  0  0  0  0  0
   12.2542   12.4575  -20.8219 C   0  0  0  0  0  0  0  0  0  0  0  0
   16.4630   16.7854  -20.7837 C   0  0  0  0  0  0  0  0  0  0  0  0
   17.2676   15.5512  -20.6874 C   0  0  0  0  0  0  0  0  0  0  0  0
   17.2448   14.6359  -21.7011 C   0  0  0  0  0  0  0  0  0  0  0  0
   18.0809   13.5005  -21.6527 C   0  0  0  0  0  0  0  0  0  0  0  0
   18.8402   13.3032  -20.4841 C   0  0  0  0  0  0  0  0  0  0  0  0
   18.8619   14.2018  -19.4137 C   0  0  0  0  0  0  0  0  0  0  0  0
   18.0202   15.3576  -19.5478 C   0  0  0  0  0  0  0  0  0  0  0  0
 13 12  1  0  0  0
 14 12  1  0  0  0
 12  7  1  0  0  0
  7  8  2  0  0  0
  7  6  1  0  0  0
  8  9  1  0  0  0
  6  5  2  0  0  0
  9 10  1  0  0  0
  9 11  2  0  0  0
 24 23  1  0  0  0
  5 11  1  0  0  0
  5  4  1  0  0  0
 11  1  1  0  0  0
 23 25  1  0  0  0
 23 21  1  0  0  0
 23 26  1  0  0  0
 20 19  1  0  0  0
 21 19  2  0  0  0
 21 16  1  0  0  0
 19 18  1  0  0  0
 16 15  2  0  0  0
 18 17  2  0  0  0
  1  2  2  0  0  0
  1  3  1  0  0  0
 15 17  1  0  0  0
 15  3  1  0  0  0
  3 27  1  0  0  0
 29 30  2  0  0  0
 29 28  1  0  0  0
 30 31  1  0  0  0
 31 32  2  0  0  0
 28 27  1  0  0  0
 28 33  2  0  0  0
 33 32  1  0  0  0
 20 22  1  0  0  0
M  END
> <minimizedAffinity>
-8.85455

$$$$
4OIV_XX9_A_501


 33 35  0  0  0  0  0  0  0  0999 V2000
   11.2784   14.3086  -20.1369 C   0  0  0  0  0  0  0  0  0  0  0  0
   10.0252   14.3679  -20.1191 O   0  0  0  0  0  0  0  0  0  0  0  0
   11.8751   13.2447  -20.6973 N   0  0  0  0  0  0  0  0  0  0  0  0
   11.3429   16.9312  -21.5757 Cl  0  0  0  0  0  0  0  0  0  0  0  0
   12.1110   16.6076  -20.0390 C   0  0  0  0  0  0  0  0  0  0  0  0
   12.8089   17.6547  -19.4384 C   0  0  0  0  0  0  0  0  0  0  0  0
   13.4358   17.5271  -18.2185 C   0  0  0  0  0  0  0  0  0  0  0  0
   13.3562   16.2553  -17.6466 C   0  0  0  0  0  0  0  0  0  0  0  0
   12.7097   15.1931  -18.2827 C   0  0  0  0  0  0  0  0  0  0  0  0
   12.6932   13.5675  -17.4537 Cl  0  0  0  0  0  0  0  0  0  0  0  0
   12.0562   15.3298  -19.5189 C   0  0  0  0  0  0  0  0  0  0  0  0
   14.1214   18.5250  -17.6481 N   0  0  0  0  0  0  0  0  0  0  0  0
   13.3787   19.7076  -17.0257 C   0  0  0  0  0  0  0  0  0  0  0  0
   15.5896   18.4334  -17.5006 C   0  0  0  0  0  0  0  0  0  0  0  0
   13.2424   13.1453  -20.7644 C   0  0  0  0  0  0  0  0  0  0  0  0
   13.9646   14.2620  -21.2041 C   0  0  0  0  0  0  0  0  0  0  0  0
   13.8436   11.9529  -20.3279 C   0  0  0  0  0  0  0  0  0  0  0  0
   15.2480   11.9177  -20.3206 C   0  0  0  0  0  0  0  0  0  0  0  0
   15.9778   13.0321  -20.7190 C   0  0  0  0  0  0  0  0  0  0  0  0
   17.3401   12.9627  -20.6825 O   0  0  0  0  0  0  0  0  0  0  0  0
   15.3541   14.2325  -21.2363 C   0  0  0  0  0  0  0  0  0  0  0  0
   17.8540   13.7005  -20.9461 H   0  0  0  0  0  0  0  0  0  0  0  0
   16.1527   15.3796  -21.5838 C   0  0  0  0  0  0  0  0  0  0  0  0
   16.8085   16.0205  -20.3308 C   0  0  0  0  0  0  0  0  0  0  0  0
   17.1904   15.0917  -22.6340 C   0  0  0  0  0  0  0  0  0  0  0  0
   15.2643   16.4301  -22.2772 C   0  0  0  0  0  0  0  0  0  0  0  0
   11.0021   12.1641  -21.2773 C   0  0  0  0  0  0  0  0  0  0  0  0
   10.8663   12.2118  -22.7467 C   0  0  0  0  0  0  0  0  0  0  0  0
   11.0091   13.3967  -23.4112 C   0  0  0  0  0  0  0  0  0  0  0  0
   10.9698   13.4303  -24.8211 C   0  0  0  0  0  0  0  0  0  0  0  0
   10.6714   12.2287  -25.4907 C   0  0  0  0  0  0  0  0  0  0  0  0
   10.4863   11.0053  -24.8406 C   0  0  0  0  0  0  0  0  0  0  0  0
   10.5826   11.0352  -23.4081 C   0  0  0  0  0  0  0  0  0  0  0  0
 13 12  1  0  0  0
 14 12  1  0  0  0
 12  7  1  0  0  0
  7  8  2  0  0  0
  7  6  1  0  0  0
  8  9  1  0  0  0
  6  5  2  0  0  0
  9 10  1  0  0  0
  9 11  2  0  0  0
 24 23  1  0  0  0
  5 11  1  0  0  0
  5  4  1  0  0  0
 11  1  1  0  0  0
 23 25  1  0  0  0
 23 21  1  0  0  0
 23 26  1  0  0  0
 20 19  1  0  0  0
 21 19  2  0  0  0
 21 16  1  0  0  0
 19 18  1  0  0  0
 16 15  2  0  0  0
 18 17  2  0  0  0
  1  2  2  0  0  0
  1  3  1  0  0  0
 15 17  1  0  0  0
 15  3  1  0  0  0
  3 27  1  0  0  0
 29 30  2  0  0  0
 29 28  1  0  0  0
 30 31  1  0  0  0
 31 32  2  0  0  0
 28 27  1  0  0  0
 28 33  2  0  0  0
 33 32  1  0  0  0
 20 22  1  0  0  0
M  END
> <minimizedAffinity>
-8.68349

$$$$
4OIV_XX9_A_501


 33 35  0  0  0  0  0  0  0  0999 V2000
   11.0496   14.2606  -20.3382 C   0  0  0  0  0  0  0  0  0  0  0  0
    9.7958   14.2834  -20.3796 O   0  0  0  0  0  0  0  0  0  0  0  0
   11.7019   13.2044  -20.8488 N   0  0  0  0  0  0  0  0  0  0  0  0
   12.2095   13.6066  -17.6588 Cl  0  0  0  0  0  0  0  0  0  0  0  0
   12.4155   15.1247  -18.5008 C   0  0  0  0  0  0  0  0  0  0  0  0
   13.1798   16.1073  -17.8727 C   0  0  0  0  0  0  0  0  0  0  0  0
   13.4305   17.3341  -18.4467 C   0  0  0  0  0  0  0  0  0  0  0  0
   12.8252   17.5369  -19.6891 C   0  0  0  0  0  0  0  0  0  0  0  0
   12.0087   16.5727  -20.2845 C   0  0  0  0  0  0  0  0  0  0  0  0
   11.2471   16.9587  -21.8973 Cl  0  0  0  0  0  0  0  0  0  0  0  0
   11.7682   15.3155  -19.7053 C   0  0  0  0  0  0  0  0  0  0  0  0
   14.1489   18.2856  -17.8385 N   0  0  0  0  0  0  0  0  0  0  0  0
   13.4519   19.5077  -17.2400 C   0  0  0  0  0  0  0  0  0  0  0  0
   15.6008   18.1042  -17.6269 C   0  0  0  0  0  0  0  0  0  0  0  0
   13.0731   13.1439  -20.8505 C   0  0  0  0  0  0  0  0  0  0  0  0
   13.7820   14.2480  -21.3409 C   0  0  0  0  0  0  0  0  0  0  0  0
   13.6883   12.0063  -20.3016 C   0  0  0  0  0  0  0  0  0  0  0  0
   15.0913   12.0164  -20.2323 C   0  0  0  0  0  0  0  0  0  0  0  0
   15.8060   13.1214  -20.6811 C   0  0  0  0  0  0  0  0  0  0  0  0
   17.1667   13.0983  -20.5820 O   0  0  0  0  0  0  0  0  0  0  0  0
   15.1718   14.2605  -21.3120 C   0  0  0  0  0  0  0  0  0  0  0  0
   17.6705   13.8310  -20.8776 H   0  0  0  0  0  0  0  0  0  0  0  0
   15.9519   15.4041  -21.7097 C   0  0  0  0  0  0  0  0  0  0  0  0
   16.4932   16.1824  -20.4800 C   0  0  0  0  0  0  0  0  0  0  0  0
   17.0717   15.0663  -22.6556 C   0  0  0  0  0  0  0  0  0  0  0  0
   15.0786   16.3494  -22.5565 C   0  0  0  0  0  0  0  0  0  0  0  0
   10.8883   12.0880  -21.4469 C   0  0  0  0  0  0  0  0  0  0  0  0
   10.8129   12.1093  -22.9213 C   0  0  0  0  0  0  0  0  0  0  0  0
   10.9313   13.2901  -23.5977 C   0  0  0  0  0  0  0  0  0  0  0  0
   10.9504   13.3024  -25.0084 C   0  0  0  0  0  0  0  0  0  0  0  0
   10.7341   12.0796  -25.6710 C   0  0  0  0  0  0  0  0  0  0  0  0
   10.5758   10.8581  -25.0100 C   0  0  0  0  0  0  0  0  0  0  0  0
   10.6099   10.9121  -23.5754 C   0  0  0  0  0  0  0  0  0  0  0  0
 13 12  1  0  0  0
 14 12  1  0  0  0
 12  7  1  0  0  0
  7  8  2  0  0  0
  7  6  1  0  0  0
  8  9  1  0  0  0
  6  5  2  0  0  0
  9 10  1  0  0  0
  9 11  2  0  0  0
 24 23  1  0  0  0
  5 11  1  0  0  0
  5  4  1  0  0  0
 11  1  1  0  0  0
 23 25  1  0  0  0
 23 21  1  0  0  0
 23 26  1  0  0  0
 20 19  1  0  0  0
 21 19  2  0  0  0
 21 16  1  0  0  0
 19 18  1  0  0  0
 16 15  2  0  0  0
 18 17  2  0  0  0
  1  2  2  0  0  0
  1  3  1  0  0  0
 15 17  1  0  0  0
 15  3  1  0  0  0
  3 27  1  0  0  0
 29 30  2  0  0  0
 29 28  1  0  0  0
 30 31  1  0  0  0
 31 32  2  0  0  0
 28 27  1  0  0  0
 28 33  2  0  0  0
 33 32  1  0  0  0
 20 22  1  0  0  0
M  END
> <minimizedAffinity>
-8.41060

$$$$
4OIV_XX9_A_501


 33 35  0  0  0  0  0  0  0  0999 V2000
   14.3817   17.1658  -19.0804 C   0  0  0  0  0  0  0  0  0  0  0  0
   15.2928   17.7841  -18.4788 O   0  0  0  0  0  0  0  0  0  0  0  0
   14.6167   16.6927  -20.3144 N   0  0  0  0  0  0  0  0  0  0  0  0
   12.4983   19.4540  -19.4912 Cl  0  0  0  0  0  0  0  0  0  0  0  0
   12.1083   17.9671  -18.6586 C   0  0  0  0  0  0  0  0  0  0  0  0
   10.8182   17.8395  -18.1454 C   0  0  0  0  0  0  0  0  0  0  0  0
   10.3875   16.7070  -17.4901 C   0  0  0  0  0  0  0  0  0  0  0  0
   11.3548   15.7105  -17.3401 C   0  0  0  0  0  0  0  0  0  0  0  0
   12.6638   15.8698  -17.8006 C   0  0  0  0  0  0  0  0  0  0  0  0
   13.8507   14.5116  -17.5237 Cl  0  0  0  0  0  0  0  0  0  0  0  0
   13.0963   17.0187  -18.4839 C   0  0  0  0  0  0  0  0  0  0  0  0
    9.1554   16.5887  -16.9809 N   0  0  0  0  0  0  0  0  0  0  0  0
    8.1129   15.7234  -17.6894 C   0  0  0  0  0  0  0  0  0  0  0  0
    8.8296   17.1858  -15.6683 C   0  0  0  0  0  0  0  0  0  0  0  0
   13.6615   15.9879  -21.0034 C   0  0  0  0  0  0  0  0  0  0  0  0
   13.2900   14.7286  -20.5154 C   0  0  0  0  0  0  0  0  0  0  0  0
   13.0649   16.5958  -22.1208 C   0  0  0  0  0  0  0  0  0  0  0  0
   12.0255   15.8881  -22.7471 C   0  0  0  0  0  0  0  0  0  0  0  0
   11.6213   14.6538  -22.2506 C   0  0  0  0  0  0  0  0  0  0  0  0
   10.5977   14.0055  -22.8781 O   0  0  0  0  0  0  0  0  0  0  0  0
   12.2871   13.9990  -21.1435 C   0  0  0  0  0  0  0  0  0  0  0  0
   10.3072   13.1725  -22.5624 H   0  0  0  0  0  0  0  0  0  0  0  0
   11.7946   12.7459  -20.6321 C   0  0  0  0  0  0  0  0  0  0  0  0
   10.6406   12.9575  -19.6151 C   0  0  0  0  0  0  0  0  0  0  0  0
   11.3795   11.7808  -21.7086 C   0  0  0  0  0  0  0  0  0  0  0  0
   12.9432   11.9905  -19.9369 C   0  0  0  0  0  0  0  0  0  0  0  0
   15.9728   16.9342  -20.9217 C   0  0  0  0  0  0  0  0  0  0  0  0
   16.8786   15.7691  -20.8763 C   0  0  0  0  0  0  0  0  0  0  0  0
   17.6708   15.5575  -19.7838 C   0  0  0  0  0  0  0  0  0  0  0  0
   18.4695   14.3977  -19.6986 C   0  0  0  0  0  0  0  0  0  0  0  0
   18.4954   13.5441  -20.8175 C   0  0  0  0  0  0  0  0  0  0  0  0
   17.7235   13.7479  -21.9649 C   0  0  0  0  0  0  0  0  0  0  0  0
   16.9009   14.9249  -21.9668 C   0  0  0  0  0  0  0  0  0  0  0  0
 13 12  1  0  0  0
 14 12  1  0  0  0
 12  7  1  0  0  0
  7  8  2  0  0  0
  7  6  1  0  0  0
  8  9  1  0  0  0
  6  5  2  0  0  0
  9 10  1  0  0  0
  9 11  2  0  0  0
 24 23  1  0  0  0
  5 11  1  0  0  0
  5  4  1  0  0  0
 11  1  1  0  0  0
 23 25  1  0  0  0
 23 21  1  0  0  0
 23 26  1  0  0  0
 20 19  1  0  0  0
 21 19  2  0  0  0
 21 16  1  0  0  0
 19 18  1  0  0  0
 16 15  2  0  0  0
 18 17  2  0  0  0
  1  2  2  0  0  0
  1  3  1  0  0  0
 15 17  1  0  0  0
 15  3  1  0  0  0
  3 27  1  0  0  0
 29 30  2  0  0  0
 29 28  1  0  0  0
 30 31  1  0  0  0
 31 32  2  0  0  0
 28 27  1  0  0  0
 28 33  2  0  0  0
 33 32  1  0  0  0
 20 22  1  0  0  0
M  END
> <minimizedAffinity>
-8.30870

$$$$
4OIV_XX9_A_501


 33 35  0  0  0  0  0  0  0  0999 V2000
   13.8775   14.9570  -22.4484 C   0  0  0  0  0  0  0  0  0  0  0  0
   14.0914   14.8340  -23.6787 O   0  0  0  0  0  0  0  0  0  0  0  0
   12.6140   15.0848  -22.0137 N   0  0  0  0  0  0  0  0  0  0  0  0
   14.8412   12.3212  -21.4112 Cl  0  0  0  0  0  0  0  0  0  0  0  0
   15.5541   13.8722  -21.0341 C   0  0  0  0  0  0  0  0  0  0  0  0
   16.6580   13.8799  -20.1822 C   0  0  0  0  0  0  0  0  0  0  0  0
   17.3174   15.0370  -19.8305 C   0  0  0  0  0  0  0  0  0  0  0  0
   16.7708   16.2091  -20.3580 C   0  0  0  0  0  0  0  0  0  0  0  0
   15.6270   16.2009  -21.1596 C   0  0  0  0  0  0  0  0  0  0  0  0
   14.9853   17.7965  -21.7699 Cl  0  0  0  0  0  0  0  0  0  0  0  0
   14.9660   15.0182  -21.5312 C   0  0  0  0  0  0  0  0  0  0  0  0
   18.3661   15.0493  -18.9989 N   0  0  0  0  0  0  0  0  0  0  0  0
   19.4996   14.0393  -19.1794 C   0  0  0  0  0  0  0  0  0  0  0  0
   18.5007   16.1148  -17.9829 C   0  0  0  0  0  0  0  0  0  0  0  0
   12.3264   15.1965  -20.6763 C   0  0  0  0  0  0  0  0  0  0  0  0
   12.0099   16.4647  -20.1728 C   0  0  0  0  0  0  0  0  0  0  0  0
   12.3025   14.0243  -19.9021 C   0  0  0  0  0  0  0  0  0  0  0  0
   11.9127   14.1602  -18.5593 C   0  0  0  0  0  0  0  0  0  0  0  0
   11.5599   15.4074  -18.0560 C   0  0  0  0  0  0  0  0  0  0  0  0
   11.1721   15.4945  -16.7506 O   0  0  0  0  0  0  0  0  0  0  0  0
   11.6556   16.6229  -18.8378 C   0  0  0  0  0  0  0  0  0  0  0  0
   10.9296   16.3239  -16.3883 H   0  0  0  0  0  0  0  0  0  0  0  0
   11.2256   17.8822  -18.2868 C   0  0  0  0  0  0  0  0  0  0  0  0
    9.9711   17.7141  -17.3876 C   0  0  0  0  0  0  0  0  0  0  0  0
   12.3113   18.6149  -17.5472 C   0  0  0  0  0  0  0  0  0  0  0  0
   10.8933   18.8554  -19.4340 C   0  0  0  0  0  0  0  0  0  0  0  0
   11.5074   15.0787  -23.0342 C   0  0  0  0  0  0  0  0  0  0  0  0
   11.1385   13.7367  -23.5269 C   0  0  0  0  0  0  0  0  0  0  0  0
   10.8664   12.7316  -22.6428 C   0  0  0  0  0  0  0  0  0  0  0  0
   10.4262   11.4747  -23.1087 C   0  0  0  0  0  0  0  0  0  0  0  0
   10.3892   11.2757  -24.5016 C   0  0  0  0  0  0  0  0  0  0  0  0
   10.6933   12.2712  -25.4345 C   0  0  0  0  0  0  0  0  0  0  0  0
   11.0924   13.5392  -24.8912 C   0  0  0  0  0  0  0  0  0  0  0  0
 13 12  1  0  0  0
 14 12  1  0  0  0
 12  7  1  0  0  0
  7  8  2  0  0  0
  7  6  1  0  0  0
  8  9  1  0  0  0
  6  5  2  0  0  0
  9 10  1  0  0  0
  9 11  2  0  0  0
 24 23  1  0  0  0
  5 11  1  0  0  0
  5  4  1  0  0  0
 11  1  1  0  0  0
 23 25  1  0  0  0
 23 21  1  0  0  0
 23 26  1  0  0  0
 20 19  1  0  0  0
 21 19  2  0  0  0
 21 16  1  0  0  0
 19 18  1  0  0  0
 16 15  2  0  0  0
 18 17  2  0  0  0
  1  2  2  0  0  0
  1  3  1  0  0  0
 15 17  1  0  0  0
 15  3  1  0  0  0
  3 27  1  0  0  0
 29 30  2  0  0  0
 29 28  1  0  0  0
 30 31  1  0  0  0
 31 32  2  0  0  0
 28 27  1  0  0  0
 28 33  2  0  0  0
 33 32  1  0  0  0
 20 22  1  0  0  0
M  END
> <minimizedAffinity>
-7.77321

$$$$
