1OIF_IFM_A_1447


 14 14  0  0  0  0  0  0  0  0999 V2000
   -1.2638   10.9820    6.4393 O   0  0  0  0  0  0  0  0  0  0  0  0
   -0.8671   10.6622    7.7769 C   0  0  0  0  0  0  0  0  0  0  0  0
    0.0669   11.8227    8.2623 C   0  0  0  0  0  0  0  0  0  0  0  0
    1.1732   12.1238    7.4173 O   0  0  0  0  0  0  0  0  0  0  0  0
    0.5429   11.6612    9.7163 C   0  0  0  0  0  0  0  0  0  0  0  0
   -0.5508   11.2940   10.6373 N   0  0  0  0  0  0  0  0  0  0  0  0
   -1.4327   10.2001   10.1742 C   0  0  0  0  0  0  0  0  0  0  0  0
   -2.0457   10.5124    8.7913 C   0  0  0  0  0  0  0  0  0  0  0  0
   -0.4765   11.0565    5.8776 H   0  0  0  0  0  0  0  0  0  0  0  0
    1.8012   11.3846    7.4312 H   0  0  0  0  0  0  0  0  0  0  0  0
   -1.1280   12.1217   10.7857 H   0  0  0  0  0  0  0  0  0  0  0  0
   -3.0400    9.3830    8.4469 C   0  0  0  0  0  0  0  0  0  0  0  0
   -2.3899    8.1335    8.7299 O   0  0  0  0  0  0  0  0  0  0  0  0
   -1.5813    8.0622    8.1988 H   0  0  0  0  0  0  0  0  0  0  0  0
  1  2  1  0  0  0
  2  3  1  0  0  0
  2  8  1  0  0  0
  3  4  1  0  0  0
  3  5  1  0  0  0
  5  6  1  0  0  0
  6  7  1  0  0  0
  7  8  1  0  0  0
  8 12  1  0  0  0
 12 13  1  0  0  0
  1  9  1  0  0  0
  4 10  1  0  0  0
  6 11  1  0  0  0
 13 14  1  0  0  0
M  END
> <minimizedAffinity>
-6.74824

$$$$
1OIF_IFM_A_1447


 14 14  0  0  0  0  0  0  0  0999 V2000
   -0.8383   10.4126   11.2399 O   0  0  0  0  0  0  0  0  0  0  0  0
   -0.9885   10.9294    9.9135 C   0  0  0  0  0  0  0  0  0  0  0  0
    0.3663   11.6231    9.5415 C   0  0  0  0  0  0  0  0  0  0  0  0
    0.8362   12.6018   10.4634 O   0  0  0  0  0  0  0  0  0  0  0  0
    0.3941   12.1898    8.1115 C   0  0  0  0  0  0  0  0  0  0  0  0
   -0.1332   11.2409    7.1112 N   0  0  0  0  0  0  0  0  0  0  0  0
   -1.4107   10.5852    7.4674 C   0  0  0  0  0  0  0  0  0  0  0  0
   -1.3151    9.8566    8.8259 C   0  0  0  0  0  0  0  0  0  0  0  0
   -0.6381   11.1400   11.8495 H   0  0  0  0  0  0  0  0  0  0  0  0
    0.2438   13.3698   10.4496 H   0  0  0  0  0  0  0  0  0  0  0  0
    0.5659   10.5116    6.9706 H   0  0  0  0  0  0  0  0  0  0  0  0
   -2.6433    9.1040    9.0554 C   0  0  0  0  0  0  0  0  0  0  0  0
   -3.7120    9.9928    8.6924 O   0  0  0  0  0  0  0  0  0  0  0  0
   -3.6651   10.7942    9.2368 H   0  0  0  0  0  0  0  0  0  0  0  0
  1  2  1  0  0  0
  2  3  1  0  0  0
  2  8  1  0  0  0
  3  4  1  0  0  0
  3  5  1  0  0  0
  5  6  1  0  0  0
  6  7  1  0  0  0
  7  8  1  0  0  0
  8 12  1  0  0  0
 12 13  1  0  0  0
  1  9  1  0  0  0
  4 10  1  0  0  0
  6 11  1  0  0  0
 13 14  1  0  0  0
M  END
> <minimizedAffinity>
-6.30845

$$$$
1OIF_IFM_A_1447


 14 14  0  0  0  0  0  0  0  0999 V2000
   -0.7819   10.9410    6.6739 O   0  0  0  0  0  0  0  0  0  0  0  0
   -1.1461   10.9100    8.0578 C   0  0  0  0  0  0  0  0  0  0  0  0
   -2.2382    9.7975    8.2141 C   0  0  0  0  0  0  0  0  0  0  0  0
   -3.3656    9.9087    7.3508 O   0  0  0  0  0  0  0  0  0  0  0  0
   -2.7043    9.5935    9.6660 C   0  0  0  0  0  0  0  0  0  0  0  0
   -1.5811    9.5246   10.6216 N   0  0  0  0  0  0  0  0  0  0  0  0
   -0.5502   10.5746   10.4687 C   0  0  0  0  0  0  0  0  0  0  0  0
    0.0297   10.5965    9.0374 C   0  0  0  0  0  0  0  0  0  0  0  0
   -1.5652   11.1411    6.1378 H   0  0  0  0  0  0  0  0  0  0  0  0
   -3.8847   10.6905    7.5960 H   0  0  0  0  0  0  0  0  0  0  0  0
   -1.1265    8.6187   10.5075 H   0  0  0  0  0  0  0  0  0  0  0  0
    1.1756   11.6303    9.0052 C   0  0  0  0  0  0  0  0  0  0  0  0
    0.8793   12.6347    9.9886 O   0  0  0  0  0  0  0  0  0  0  0  0
    0.0275   13.0495    9.7806 H   0  0  0  0  0  0  0  0  0  0  0  0
  1  2  1  0  0  0
  2  3  1  0  0  0
  2  8  1  0  0  0
  3  4  1  0  0  0
  3  5  1  0  0  0
  5  6  1  0  0  0
  6  7  1  0  0  0
  7  8  1  0  0  0
  8 12  1  0  0  0
 12 13  1  0  0  0
  1  9  1  0  0  0
  4 10  1  0  0  0
  6 11  1  0  0  0
 13 14  1  0  0  0
M  END
> <minimizedAffinity>
-6.11954

$$$$
1OIF_IFM_A_1447


 14 14  0  0  0  0  0  0  0  0999 V2000
   -0.6928   10.8438   11.2290 O   0  0  0  0  0  0  0  0  0  0  0  0
   -0.9470   10.3618    9.9054 C   0  0  0  0  0  0  0  0  0  0  0  0
   -2.3849    9.7397    9.9180 C   0  0  0  0  0  0  0  0  0  0  0  0
   -2.6263    8.7546   10.9181 O   0  0  0  0  0  0  0  0  0  0  0  0
   -2.8413    9.2188    8.5442 C   0  0  0  0  0  0  0  0  0  0  0  0
   -2.5683   10.1740    7.4523 N   0  0  0  0  0  0  0  0  0  0  0  0
   -1.2108   10.7620    7.4456 C   0  0  0  0  0  0  0  0  0  0  0  0
   -0.8846   11.4522    8.7884 C   0  0  0  0  0  0  0  0  0  0  0  0
   -0.7506   10.1075   11.8578 H   0  0  0  0  0  0  0  0  0  0  0  0
   -2.1011    7.9623   10.7249 H   0  0  0  0  0  0  0  0  0  0  0  0
   -3.2410   10.9371    7.5268 H   0  0  0  0  0  0  0  0  0  0  0  0
    0.4908   12.1386    8.6474 C   0  0  0  0  0  0  0  0  0  0  0  0
    0.8465   12.6626    9.9370 O   0  0  0  0  0  0  0  0  0  0  0  0
    0.1689   13.2926   10.2281 H   0  0  0  0  0  0  0  0  0  0  0  0
  1  2  1  0  0  0
  2  3  1  0  0  0
  2  8  1  0  0  0
  3  4  1  0  0  0
  3  5  1  0  0  0
  5  6  1  0  0  0
  6  7  1  0  0  0
  7  8  1  0  0  0
  8 12  1  0  0  0
 12 13  1  0  0  0
  1  9  1  0  0  0
  4 10  1  0  0  0
  6 11  1  0  0  0
 13 14  1  0  0  0
M  END
> <minimizedAffinity>
-6.11790

$$$$
1OIF_IFM_A_1447


 14 14  0  0  0  0  0  0  0  0999 V2000
    0.7926    9.4450   10.3527 O   0  0  0  0  0  0  0  0  0  0  0  0
   -0.4588    9.9178    9.8434 C   0  0  0  0  0  0  0  0  0  0  0  0
   -0.2304   10.2673    8.3333 C   0  0  0  0  0  0  0  0  0  0  0  0
    0.8472   11.1572    8.0582 O   0  0  0  0  0  0  0  0  0  0  0  0
   -1.5040   10.7434    7.6132 C   0  0  0  0  0  0  0  0  0  0  0  0
   -2.6747    9.8917    7.9016 N   0  0  0  0  0  0  0  0  0  0  0  0
   -2.8852    9.5609    9.3281 C   0  0  0  0  0  0  0  0  0  0  0  0
   -1.6359    8.8959    9.9468 C   0  0  0  0  0  0  0  0  0  0  0  0
    1.4651   10.1365   10.2509 H   0  0  0  0  0  0  0  0  0  0  0  0
    0.6358   12.0380    8.4053 H   0  0  0  0  0  0  0  0  0  0  0  0
   -2.5608    9.0169    7.3896 H   0  0  0  0  0  0  0  0  0  0  0  0
   -1.9872    8.4762   11.3902 C   0  0  0  0  0  0  0  0  0  0  0  0
   -1.2522    9.3316   12.2801 O   0  0  0  0  0  0  0  0  0  0  0  0
   -0.3022    9.2363   12.1091 H   0  0  0  0  0  0  0  0  0  0  0  0
  1  2  1  0  0  0
  2  3  1  0  0  0
  2  8  1  0  0  0
  3  4  1  0  0  0
  3  5  1  0  0  0
  5  6  1  0  0  0
  6  7  1  0  0  0
  7  8  1  0  0  0
  8 12  1  0  0  0
 12 13  1  0  0  0
  1  9  1  0  0  0
  4 10  1  0  0  0
  6 11  1  0  0  0
 13 14  1  0  0  0
M  END
> <minimizedAffinity>
-5.43460

$$$$
1OIF_IFM_A_1447


 14 14  0  0  0  0  0  0  0  0999 V2000
   -1.7962   11.9942    8.8697 O   0  0  0  0  0  0  0  0  0  0  0  0
   -1.2984   10.6551    8.9584 C   0  0  0  0  0  0  0  0  0  0  0  0
   -0.0396   10.7005    9.8901 C   0  0  0  0  0  0  0  0  0  0  0  0
    0.9681   11.6392    9.5267 O   0  0  0  0  0  0  0  0  0  0  0  0
    0.5915    9.3194   10.1382 C   0  0  0  0  0  0  0  0  0  0  0  0
   -0.4095    8.2855   10.4670 N   0  0  0  0  0  0  0  0  0  0  0  0
   -1.5984    8.2479    9.5873 C   0  0  0  0  0  0  0  0  0  0  0  0
   -2.3116    9.6170    9.5383 C   0  0  0  0  0  0  0  0  0  0  0  0
   -1.1086   12.5711    8.5019 H   0  0  0  0  0  0  0  0  0  0  0  0
    1.3834   11.3620    8.6951 H   0  0  0  0  0  0  0  0  0  0  0  0
   -0.7297    8.4502   11.4213 H   0  0  0  0  0  0  0  0  0  0  0  0
   -3.5992    9.4519    8.7031 C   0  0  0  0  0  0  0  0  0  0  0  0
   -3.3563   10.0374    7.4139 O   0  0  0  0  0  0  0  0  0  0  0  0
   -3.1268   10.9736    7.5221 H   0  0  0  0  0  0  0  0  0  0  0  0
  1  2  1  0  0  0
  2  3  1  0  0  0
  2  8  1  0  0  0
  3  4  1  0  0  0
  3  5  1  0  0  0
  5  6  1  0  0  0
  6  7  1  0  0  0
  7  8  1  0  0  0
  8 12  1  0  0  0
 12 13  1  0  0  0
  1  9  1  0  0  0
  4 10  1  0  0  0
  6 11  1  0  0  0
 13 14  1  0  0  0
M  END
> <minimizedAffinity>
-5.31324

$$$$
1OIF_IFM_A_1447


 14 14  0  0  0  0  0  0  0  0999 V2000
   -3.2104    9.0739    9.9452 O   0  0  0  0  0  0  0  0  0  0  0  0
   -1.9512    9.2425    9.2858 C   0  0  0  0  0  0  0  0  0  0  0  0
   -2.1403   10.3883    8.2340 C   0  0  0  0  0  0  0  0  0  0  0  0
   -3.2211   10.2213    7.3216 O   0  0  0  0  0  0  0  0  0  0  0  0
   -0.8528   10.7376    7.4676 C   0  0  0  0  0  0  0  0  0  0  0  0
    0.3203   10.8713    8.3536 N   0  0  0  0  0  0  0  0  0  0  0  0
    0.4937    9.7894    9.3477 C   0  0  0  0  0  0  0  0  0  0  0  0
   -0.7641    9.6208   10.2282 C   0  0  0  0  0  0  0  0  0  0  0  0
   -3.8888    8.8416    9.2920 H   0  0  0  0  0  0  0  0  0  0  0  0
   -3.0317    9.4773    6.7287 H   0  0  0  0  0  0  0  0  0  0  0  0
    0.2330   11.7524    8.8600 H   0  0  0  0  0  0  0  0  0  0  0  0
   -0.4492    8.5638   11.3082 C   0  0  0  0  0  0  0  0  0  0  0  0
   -0.7226    9.1580   12.5873 O   0  0  0  0  0  0  0  0  0  0  0  0
   -0.1726    9.9490   12.7005 H   0  0  0  0  0  0  0  0  0  0  0  0
  1  2  1  0  0  0
  2  3  1  0  0  0
  2  8  1  0  0  0
  3  4  1  0  0  0
  3  5  1  0  0  0
  5  6  1  0  0  0
  6  7  1  0  0  0
  7  8  1  0  0  0
  8 12  1  0  0  0
 12 13  1  0  0  0
  1  9  1  0  0  0
  4 10  1  0  0  0
  6 11  1  0  0  0
 13 14  1  0  0  0
M  END
> <minimizedAffinity>
-5.27359

$$$$
1OIF_IFM_A_1447


 14 14  0  0  0  0  0  0  0  0999 V2000
   -1.3652   11.0908   11.5510 O   0  0  0  0  0  0  0  0  0  0  0  0
   -1.3386   10.0639   10.5542 C   0  0  0  0  0  0  0  0  0  0  0  0
   -0.6818   10.6895    9.2767 C   0  0  0  0  0  0  0  0  0  0  0  0
   -1.2691   11.8986    8.8056 O   0  0  0  0  0  0  0  0  0  0  0  0
   -0.5247    9.6926    8.1154 C   0  0  0  0  0  0  0  0  0  0  0  0
    0.0303    8.3950    8.5485 N   0  0  0  0  0  0  0  0  0  0  0  0
   -0.5900    7.8090    9.7571 C   0  0  0  0  0  0  0  0  0  0  0  0
   -0.5352    8.7849   10.9530 C   0  0  0  0  0  0  0  0  0  0  0  0
   -1.8814   11.8445   11.2250 H   0  0  0  0  0  0  0  0  0  0  0  0
   -2.1587   11.7148    8.4653 H   0  0  0  0  0  0  0  0  0  0  0  0
    1.0242    8.5255    8.7371 H   0  0  0  0  0  0  0  0  0  0  0  0
   -1.0881    8.0487   12.1921 C   0  0  0  0  0  0  0  0  0  0  0  0
   -0.8238    8.8732   13.3385 O   0  0  0  0  0  0  0  0  0  0  0  0
    0.1316    9.0217   13.4167 H   0  0  0  0  0  0  0  0  0  0  0  0
  1  2  1  0  0  0
  2  3  1  0  0  0
  2  8  1  0  0  0
  3  4  1  0  0  0
  3  5  1  0  0  0
  5  6  1  0  0  0
  6  7  1  0  0  0
  7  8  1  0  0  0
  8 12  1  0  0  0
 12 13  1  0  0  0
  1  9  1  0  0  0
  4 10  1  0  0  0
  6 11  1  0  0  0
 13 14  1  0  0  0
M  END
> <minimizedAffinity>
-5.17965

$$$$
1OIF_IFM_A_1447


 14 14  0  0  0  0  0  0  0  0999 V2000
   -1.1652   11.0931   11.0654 O   0  0  0  0  0  0  0  0  0  0  0  0
   -0.4877    9.9481   10.5375 C   0  0  0  0  0  0  0  0  0  0  0  0
   -1.0136    8.7042   11.3319 C   0  0  0  0  0  0  0  0  0  0  0  0
   -0.9243    8.7907   12.7508 O   0  0  0  0  0  0  0  0  0  0  0  0
   -0.4210    7.3698   10.8470 C   0  0  0  0  0  0  0  0  0  0  0  0
   -0.4339    7.2405    9.3765 N   0  0  0  0  0  0  0  0  0  0  0  0
    0.0601    8.4182    8.6297 C   0  0  0  0  0  0  0  0  0  0  0  0
   -0.7146    9.6986    9.0121 C   0  0  0  0  0  0  0  0  0  0  0  0
   -0.9722   11.1749   12.0125 H   0  0  0  0  0  0  0  0  0  0  0  0
    0.0083    8.7794   13.0174 H   0  0  0  0  0  0  0  0  0  0  0  0
   -1.3953    7.0640    9.0850 H   0  0  0  0  0  0  0  0  0  0  0  0
   -0.2199   10.8425    8.1013 C   0  0  0  0  0  0  0  0  0  0  0  0
   -0.7314   10.5962    6.7816 O   0  0  0  0  0  0  0  0  0  0  0  0
   -0.4133    9.7356    6.4670 H   0  0  0  0  0  0  0  0  0  0  0  0
  1  2  1  0  0  0
  2  3  1  0  0  0
  2  8  1  0  0  0
  3  4  1  0  0  0
  3  5  1  0  0  0
  5  6  1  0  0  0
  6  7  1  0  0  0
  7  8  1  0  0  0
  8 12  1  0  0  0
 12 13  1  0  0  0
  1  9  1  0  0  0
  4 10  1  0  0  0
  6 11  1  0  0  0
 13 14  1  0  0  0
M  END
> <minimizedAffinity>
-5.17795

$$$$
1OIF_IFM_A_1447


 14 14  0  0  0  0  0  0  0  0999 V2000
    0.3628    7.8929    8.3231 O   0  0  0  0  0  0  0  0  0  0  0  0
   -0.0101    9.0844    9.0231 C   0  0  0  0  0  0  0  0  0  0  0  0
   -0.9187    9.9141    8.0531 C   0  0  0  0  0  0  0  0  0  0  0  0
   -0.3709   10.1809    6.7656 O   0  0  0  0  0  0  0  0  0  0  0  0
   -1.4571   11.2136    8.6763 C   0  0  0  0  0  0  0  0  0  0  0  0
   -1.9913   11.0148   10.0380 N   0  0  0  0  0  0  0  0  0  0  0  0
   -1.1324   10.2279   10.9501 C   0  0  0  0  0  0  0  0  0  0  0  0
   -0.7906    8.8442   10.3549 C   0  0  0  0  0  0  0  0  0  0  0  0
    0.8403    8.1300    7.5127 H   0  0  0  0  0  0  0  0  0  0  0  0
    0.3807   10.7877    6.8535 H   0  0  0  0  0  0  0  0  0  0  0  0
   -2.8872   10.5339    9.9571 H   0  0  0  0  0  0  0  0  0  0  0  0
   -0.0015    8.0517   11.4190 C   0  0  0  0  0  0  0  0  0  0  0  0
    1.3970    8.2547   11.1602 O   0  0  0  0  0  0  0  0  0  0  0  0
    1.6084    7.9458   10.2654 H   0  0  0  0  0  0  0  0  0  0  0  0
  1  2  1  0  0  0
  2  3  1  0  0  0
  2  8  1  0  0  0
  3  4  1  0  0  0
  3  5  1  0  0  0
  5  6  1  0  0  0
  6  7  1  0  0  0
  7  8  1  0  0  0
  8 12  1  0  0  0
 12 13  1  0  0  0
  1  9  1  0  0  0
  4 10  1  0  0  0
  6 11  1  0  0  0
 13 14  1  0  0  0
M  END
> <minimizedAffinity>
-5.16297

$$$$
