4TKJ_PLM_A_201


 19 18  0  0  0  0  0  0  0  0999 V2000
    6.7677  -24.2329   -3.2742 C   0  0  0  0  0  0  0  0  0  0  0  0
    7.4151  -23.6032   -4.4983 C   0  0  0  0  0  0  0  0  0  0  0  0
    6.5350  -23.5354   -5.7407 C   0  0  0  0  0  0  0  0  0  0  0  0
    5.9554  -22.1628   -6.0377 C   0  0  0  0  0  0  0  0  0  0  0  0
    6.4527  -21.1031   -5.0779 C   0  0  0  0  0  0  0  0  0  0  0  0
    6.9660  -19.8678   -5.7640 C   0  0  0  0  0  0  0  0  0  0  0  0
    7.9809  -20.0849   -6.8636 C   0  0  0  0  0  0  0  0  0  0  0  0
    9.0138  -20.7808   -6.5652 O   0  0  0  0  0  0  0  0  0  0  0  0
    7.8055  -19.5716   -7.9771 O   0  0  0  0  0  0  0  0  0  0  0  0
    9.0994  -21.1481   -5.7074 H   0  0  0  0  0  0  0  0  0  0  0  0
    6.5921  -23.2777   -2.1099 C   0  0  0  0  0  0  0  0  0  0  0  0
    7.4780  -23.6138   -0.8887 C   0  0  0  0  0  0  0  0  0  0  0  0
    6.7615  -23.6685    0.4856 C   0  0  0  0  0  0  0  0  0  0  0  0
    7.0654  -22.5159    1.4868 C   0  0  0  0  0  0  0  0  0  0  0  0
    8.3413  -21.6602    1.3172 C   0  0  0  0  0  0  0  0  0  0  0  0
    8.1896  -20.3160    0.4618 C   0  0  0  0  0  0  0  0  0  0  0  0
    6.9206  -19.9520   -0.1521 C   0  0  0  0  0  0  0  0  0  0  0  0
    6.9881  -19.6596   -1.6663 C   0  0  0  0  0  0  0  0  0  0  0  0
    8.3894  -19.9493   -2.1224 C   0  0  0  0  0  0  0  0  0  0  0  0
  7  8  1  0  0  0
  7  9  2  0  0  0
  7  6  1  0  0  0
  6  5  1  0  0  0
  5  4  1  0  0  0
  4  3  1  0  0  0
  3  2  1  0  0  0
  2  1  1  0  0  0
  1 11  1  0  0  0
 11 12  1  0  0  0
 12 13  1  0  0  0
 13 14  1  0  0  0
 14 15  1  0  0  0
 15 16  1  0  0  0
 16 17  1  0  0  0
 17 18  1  0  0  0
 18 19  1  0  0  0
  8 10  1  0  0  0
M  END
> <minimizedAffinity>
-5.83397

$$$$
4TKJ_PLM_A_201


 19 18  0  0  0  0  0  0  0  0999 V2000
    8.1282  -21.2056    1.5661 C   0  0  0  0  0  0  0  0  0  0  0  0
    9.2784  -21.0151    0.5890 C   0  0  0  0  0  0  0  0  0  0  0  0
    8.9119  -20.3417   -0.7281 C   0  0  0  0  0  0  0  0  0  0  0  0
    7.5213  -19.7309   -0.7669 C   0  0  0  0  0  0  0  0  0  0  0  0
    7.0309  -19.4941   -2.1794 C   0  0  0  0  0  0  0  0  0  0  0  0
    6.8621  -18.0391   -2.5181 C   0  0  0  0  0  0  0  0  0  0  0  0
    5.5583  -17.3999   -2.0964 C   0  0  0  0  0  0  0  0  0  0  0  0
    4.6401  -17.3230   -2.9858 O   0  0  0  0  0  0  0  0  0  0  0  0
    5.4316  -16.9532   -0.9481 O   0  0  0  0  0  0  0  0  0  0  0  0
    4.7855  -17.6770   -3.8411 H   0  0  0  0  0  0  0  0  0  0  0  0
    7.7758  -22.6570    1.8276 C   0  0  0  0  0  0  0  0  0  0  0  0
    6.5907  -23.1733    0.9803 C   0  0  0  0  0  0  0  0  0  0  0  0
    6.9529  -23.8496   -0.3674 C   0  0  0  0  0  0  0  0  0  0  0  0
    6.3450  -23.2246   -1.6570 C   0  0  0  0  0  0  0  0  0  0  0  0
    7.1824  -23.1609   -2.9546 C   0  0  0  0  0  0  0  0  0  0  0  0
    6.5528  -23.8685   -4.2448 C   0  0  0  0  0  0  0  0  0  0  0  0
    6.7219  -23.3003   -5.5745 C   0  0  0  0  0  0  0  0  0  0  0  0
    5.8618  -22.0519   -5.8652 C   0  0  0  0  0  0  0  0  0  0  0  0
    6.7497  -20.8480   -5.7318 C   0  0  0  0  0  0  0  0  0  0  0  0
  7  8  1  0  0  0
  7  9  2  0  0  0
  7  6  1  0  0  0
  6  5  1  0  0  0
  5  4  1  0  0  0
  4  3  1  0  0  0
  3  2  1  0  0  0
  2  1  1  0  0  0
  1 11  1  0  0  0
 11 12  1  0  0  0
 12 13  1  0  0  0
 13 14  1  0  0  0
 14 15  1  0  0  0
 15 16  1  0  0  0
 16 17  1  0  0  0
 17 18  1  0  0  0
 18 19  1  0  0  0
  8 10  1  0  0  0
M  END
> <minimizedAffinity>
-5.82271

$$$$
4TKJ_PLM_A_201


 19 18  0  0  0  0  0  0  0  0999 V2000
    7.7590  -23.4653   -4.5031 C   0  0  0  0  0  0  0  0  0  0  0  0
    6.6412  -23.6240   -5.5225 C   0  0  0  0  0  0  0  0  0  0  0  0
    6.0779  -22.3231   -6.0820 C   0  0  0  0  0  0  0  0  0  0  0  0
    7.1231  -21.3009   -6.4952 C   0  0  0  0  0  0  0  0  0  0  0  0
    6.9937  -19.9987   -5.7342 C   0  0  0  0  0  0  0  0  0  0  0  0
    7.4180  -18.7958   -6.5301 C   0  0  0  0  0  0  0  0  0  0  0  0
    8.5508  -19.0058   -7.5093 C   0  0  0  0  0  0  0  0  0  0  0  0
    8.2856  -18.8127   -8.7472 O   0  0  0  0  0  0  0  0  0  0  0  0
    9.6592  -19.3790   -7.1017 O   0  0  0  0  0  0  0  0  0  0  0  0
    7.4301  -18.5299   -9.0045 H   0  0  0  0  0  0  0  0  0  0  0  0
    7.4435  -24.0610   -3.1449 C   0  0  0  0  0  0  0  0  0  0  0  0
    7.6030  -23.0641   -1.9745 C   0  0  0  0  0  0  0  0  0  0  0  0
    7.2788  -21.5801   -2.2870 C   0  0  0  0  0  0  0  0  0  0  0  0
    7.7878  -20.5169   -1.2702 C   0  0  0  0  0  0  0  0  0  0  0  0
    8.6460  -20.9519   -0.0606 C   0  0  0  0  0  0  0  0  0  0  0  0
    7.8519  -21.3459    1.2721 C   0  0  0  0  0  0  0  0  0  0  0  0
    7.6171  -22.7384    1.6261 C   0  0  0  0  0  0  0  0  0  0  0  0
    6.1528  -23.2081    1.4917 C   0  0  0  0  0  0  0  0  0  0  0  0
    5.3378  -22.0299    1.0411 C   0  0  0  0  0  0  0  0  0  0  0  0
  7  8  1  0  0  0
  7  9  2  0  0  0
  7  6  1  0  0  0
  6  5  1  0  0  0
  5  4  1  0  0  0
  4  3  1  0  0  0
  3  2  1  0  0  0
  2  1  1  0  0  0
  1 11  1  0  0  0
 11 12  1  0  0  0
 12 13  1  0  0  0
 13 14  1  0  0  0
 14 15  1  0  0  0
 15 16  1  0  0  0
 16 17  1  0  0  0
 17 18  1  0  0  0
 18 19  1  0  0  0
  8 10  1  0  0  0
M  END
> <minimizedAffinity>
-5.82181

$$$$
4TKJ_PLM_A_201


 19 18  0  0  0  0  0  0  0  0999 V2000
    6.7159  -24.9428   -4.2285 C   0  0  0  0  0  0  0  0  0  0  0  0
    7.9649  -25.0000   -3.3621 C   0  0  0  0  0  0  0  0  0  0  0  0
    7.7155  -25.0747   -1.8605 C   0  0  0  0  0  0  0  0  0  0  0  0
    6.9764  -23.8827   -1.2765 C   0  0  0  0  0  0  0  0  0  0  0  0
    7.9136  -22.7799   -0.8325 C   0  0  0  0  0  0  0  0  0  0  0  0
    7.3705  -21.9529    0.2995 C   0  0  0  0  0  0  0  0  0  0  0  0
    8.0863  -22.0793    1.6253 C   0  0  0  0  0  0  0  0  0  0  0  0
    8.8431  -21.1042    1.9668 O   0  0  0  0  0  0  0  0  0  0  0  0
    7.9502  -23.1049    2.3062 O   0  0  0  0  0  0  0  0  0  0  0  0
    8.9118  -20.3493    1.4160 H   0  0  0  0  0  0  0  0  0  0  0  0
    6.7449  -23.8510   -5.2802 C   0  0  0  0  0  0  0  0  0  0  0  0
    6.2907  -22.4693   -4.7571 C   0  0  0  0  0  0  0  0  0  0  0  0
    7.3836  -21.3719   -4.6766 C   0  0  0  0  0  0  0  0  0  0  0  0
    6.9983  -20.0424   -3.9644 C   0  0  0  0  0  0  0  0  0  0  0  0
    6.8964  -18.7312   -4.7764 C   0  0  0  0  0  0  0  0  0  0  0  0
    6.2384  -17.4787   -4.0282 C   0  0  0  0  0  0  0  0  0  0  0  0
    5.3789  -17.6601   -2.8672 C   0  0  0  0  0  0  0  0  0  0  0  0
    5.9325  -17.0802   -1.5482 C   0  0  0  0  0  0  0  0  0  0  0  0
    7.2046  -16.3503   -1.8719 C   0  0  0  0  0  0  0  0  0  0  0  0
  7  8  1  0  0  0
  7  9  2  0  0  0
  7  6  1  0  0  0
  6  5  1  0  0  0
  5  4  1  0  0  0
  4  3  1  0  0  0
  3  2  1  0  0  0
  2  1  1  0  0  0
  1 11  1  0  0  0
 11 12  1  0  0  0
 12 13  1  0  0  0
 13 14  1  0  0  0
 14 15  1  0  0  0
 15 16  1  0  0  0
 16 17  1  0  0  0
 17 18  1  0  0  0
 18 19  1  0  0  0
  8 10  1  0  0  0
M  END
> <minimizedAffinity>
-5.80209

$$$$
4TKJ_PLM_A_201


 19 18  0  0  0  0  0  0  0  0999 V2000
    7.9618  -22.7086   -4.8477 C   0  0  0  0  0  0  0  0  0  0  0  0
    6.6689  -23.3518   -4.3695 C   0  0  0  0  0  0  0  0  0  0  0  0
    6.4980  -23.4287   -2.8570 C   0  0  0  0  0  0  0  0  0  0  0  0
    7.7963  -23.4346   -2.0679 C   0  0  0  0  0  0  0  0  0  0  0  0
    7.5676  -23.5477   -0.5758 C   0  0  0  0  0  0  0  0  0  0  0  0
    7.5998  -22.2241    0.1365 C   0  0  0  0  0  0  0  0  0  0  0  0
    8.1233  -22.2390    1.5549 C   0  0  0  0  0  0  0  0  0  0  0  0
    8.8923  -21.2732    1.8955 O   0  0  0  0  0  0  0  0  0  0  0  0
    7.8290  -23.1734    2.3129 O   0  0  0  0  0  0  0  0  0  0  0  0
    9.0843  -20.5894    1.2844 H   0  0  0  0  0  0  0  0  0  0  0  0
    7.7558  -21.4836   -5.7172 C   0  0  0  0  0  0  0  0  0  0  0  0
    6.3833  -20.8012   -5.5179 C   0  0  0  0  0  0  0  0  0  0  0  0
    6.3992  -19.2581   -5.3637 C   0  0  0  0  0  0  0  0  0  0  0  0
    6.4910  -18.6940   -3.9157 C   0  0  0  0  0  0  0  0  0  0  0  0
    6.9401  -19.6109   -2.7553 C   0  0  0  0  0  0  0  0  0  0  0  0
    8.5170  -19.7249   -2.5062 C   0  0  0  0  0  0  0  0  0  0  0  0
    9.4329  -18.7022   -2.9909 C   0  0  0  0  0  0  0  0  0  0  0  0
   10.3110  -19.1264   -4.1875 C   0  0  0  0  0  0  0  0  0  0  0  0
    9.9720  -18.2260   -5.3408 C   0  0  0  0  0  0  0  0  0  0  0  0
  7  8  1  0  0  0
  7  9  2  0  0  0
  7  6  1  0  0  0
  6  5  1  0  0  0
  5  4  1  0  0  0
  4  3  1  0  0  0
  3  2  1  0  0  0
  2  1  1  0  0  0
  1 11  1  0  0  0
 11 12  1  0  0  0
 12 13  1  0  0  0
 13 14  1  0  0  0
 14 15  1  0  0  0
 15 16  1  0  0  0
 16 17  1  0  0  0
 17 18  1  0  0  0
 18 19  1  0  0  0
  8 10  1  0  0  0
M  END
> <minimizedAffinity>
-5.72019

$$$$
4TKJ_PLM_A_201


 19 18  0  0  0  0  0  0  0  0999 V2000
    7.3004  -19.6221   -0.1211 C   0  0  0  0  0  0  0  0  0  0  0  0
    6.8504  -19.9223   -1.5428 C   0  0  0  0  0  0  0  0  0  0  0  0
    7.7560  -20.8620   -2.3300 C   0  0  0  0  0  0  0  0  0  0  0  0
    8.0272  -20.4351   -3.7626 C   0  0  0  0  0  0  0  0  0  0  0  0
    6.7609  -20.3259   -4.5849 C   0  0  0  0  0  0  0  0  0  0  0  0
    6.9157  -19.4698   -5.8111 C   0  0  0  0  0  0  0  0  0  0  0  0
    7.6497  -20.0944   -6.9760 C   0  0  0  0  0  0  0  0  0  0  0  0
    7.9280  -19.3248   -7.9612 O   0  0  0  0  0  0  0  0  0  0  0  0
    7.9231  -21.3023   -6.9588 O   0  0  0  0  0  0  0  0  0  0  0  0
    7.6998  -18.4167   -7.9253 H   0  0  0  0  0  0  0  0  0  0  0  0
    8.5440  -20.3781    0.3042 C   0  0  0  0  0  0  0  0  0  0  0  0
    8.3093  -21.3530    1.4804 C   0  0  0  0  0  0  0  0  0  0  0  0
    6.8711  -21.9130    1.6322 C   0  0  0  0  0  0  0  0  0  0  0  0
    6.5125  -23.1748    0.7940 C   0  0  0  0  0  0  0  0  0  0  0  0
    7.5573  -23.7889   -0.1653 C   0  0  0  0  0  0  0  0  0  0  0  0
    6.9940  -24.7620   -1.3044 C   0  0  0  0  0  0  0  0  0  0  0  0
    6.4946  -24.2357   -2.5665 C   0  0  0  0  0  0  0  0  0  0  0  0
    7.4254  -24.4532   -3.7785 C   0  0  0  0  0  0  0  0  0  0  0  0
    6.6861  -24.0016   -5.0054 C   0  0  0  0  0  0  0  0  0  0  0  0
  7  8  1  0  0  0
  7  9  2  0  0  0
  7  6  1  0  0  0
  6  5  1  0  0  0
  5  4  1  0  0  0
  4  3  1  0  0  0
  3  2  1  0  0  0
  2  1  1  0  0  0
  1 11  1  0  0  0
 11 12  1  0  0  0
 12 13  1  0  0  0
 13 14  1  0  0  0
 14 15  1  0  0  0
 15 16  1  0  0  0
 16 17  1  0  0  0
 17 18  1  0  0  0
 18 19  1  0  0  0
  8 10  1  0  0  0
M  END
> <minimizedAffinity>
-5.70209

$$$$
4TKJ_PLM_A_201


 19 18  0  0  0  0  0  0  0  0999 V2000
    6.4144  -23.3824   -4.5187 C   0  0  0  0  0  0  0  0  0  0  0  0
    6.0013  -22.4579   -5.6538 C   0  0  0  0  0  0  0  0  0  0  0  0
    6.9954  -21.3530   -5.9911 C   0  0  0  0  0  0  0  0  0  0  0  0
    6.5590  -19.9560   -5.5835 C   0  0  0  0  0  0  0  0  0  0  0  0
    7.3803  -18.8738   -6.2512 C   0  0  0  0  0  0  0  0  0  0  0  0
    8.8448  -18.9428   -5.9182 C   0  0  0  0  0  0  0  0  0  0  0  0
    9.8040  -18.6847   -7.0582 C   0  0  0  0  0  0  0  0  0  0  0  0
    9.3320  -18.7919   -8.2438 O   0  0  0  0  0  0  0  0  0  0  0  0
   10.9898  -18.4176   -6.8201 O   0  0  0  0  0  0  0  0  0  0  0  0
    8.4263  -18.9958   -8.3709 H   0  0  0  0  0  0  0  0  0  0  0  0
    7.9150  -23.5059   -4.3396 C   0  0  0  0  0  0  0  0  0  0  0  0
    8.3328  -24.5600   -3.2892 C   0  0  0  0  0  0  0  0  0  0  0  0
    7.2248  -25.0343   -2.3134 C   0  0  0  0  0  0  0  0  0  0  0  0
    7.2656  -24.4618   -0.8664 C   0  0  0  0  0  0  0  0  0  0  0  0
    6.3816  -23.2517   -0.4880 C   0  0  0  0  0  0  0  0  0  0  0  0
    7.1486  -21.9260   -0.0234 C   0  0  0  0  0  0  0  0  0  0  0  0
    8.2000  -21.3376   -0.8407 C   0  0  0  0  0  0  0  0  0  0  0  0
    7.7139  -20.6526   -2.1358 C   0  0  0  0  0  0  0  0  0  0  0  0
    8.5162  -19.3953   -2.3128 C   0  0  0  0  0  0  0  0  0  0  0  0
  7  8  1  0  0  0
  7  9  2  0  0  0
  7  6  1  0  0  0
  6  5  1  0  0  0
  5  4  1  0  0  0
  4  3  1  0  0  0
  3  2  1  0  0  0
  2  1  1  0  0  0
  1 11  1  0  0  0
 11 12  1  0  0  0
 12 13  1  0  0  0
 13 14  1  0  0  0
 14 15  1  0  0  0
 15 16  1  0  0  0
 16 17  1  0  0  0
 17 18  1  0  0  0
 18 19  1  0  0  0
  8 10  1  0  0  0
M  END
> <minimizedAffinity>
-5.66994

$$$$
4TKJ_PLM_A_201


 19 18  0  0  0  0  0  0  0  0999 V2000
    7.9918  -24.2359   -3.6260 C   0  0  0  0  0  0  0  0  0  0  0  0
    8.0671  -25.1299   -2.3976 C   0  0  0  0  0  0  0  0  0  0  0  0
    7.3791  -24.5863   -1.1510 C   0  0  0  0  0  0  0  0  0  0  0  0
    7.0185  -23.1118   -1.2131 C   0  0  0  0  0  0  0  0  0  0  0  0
    6.1892  -22.6669   -0.0274 C   0  0  0  0  0  0  0  0  0  0  0  0
    6.8373  -21.5776    0.7811 C   0  0  0  0  0  0  0  0  0  0  0  0
    7.9349  -22.0083    1.7276 C   0  0  0  0  0  0  0  0  0  0  0  0
    8.8900  -21.1768    1.9189 O   0  0  0  0  0  0  0  0  0  0  0  0
    7.8967  -23.1312    2.2488 O   0  0  0  0  0  0  0  0  0  0  0  0
    8.8720  -20.3384    1.5008 H   0  0  0  0  0  0  0  0  0  0  0  0
    6.8865  -24.6105   -4.5940 C   0  0  0  0  0  0  0  0  0  0  0  0
    6.4262  -23.4434   -5.4967 C   0  0  0  0  0  0  0  0  0  0  0  0
    7.2609  -22.1391   -5.4125 C   0  0  0  0  0  0  0  0  0  0  0  0
    6.4758  -20.8099   -5.2126 C   0  0  0  0  0  0  0  0  0  0  0  0
    7.1966  -19.4529   -5.3802 C   0  0  0  0  0  0  0  0  0  0  0  0
    7.6809  -19.0810   -6.8597 C   0  0  0  0  0  0  0  0  0  0  0  0
    9.0953  -18.9539   -7.1805 C   0  0  0  0  0  0  0  0  0  0  0  0
   10.0580  -19.5692   -6.1425 C   0  0  0  0  0  0  0  0  0  0  0  0
   11.1378  -18.5611   -5.8715 C   0  0  0  0  0  0  0  0  0  0  0  0
  7  8  1  0  0  0
  7  9  2  0  0  0
  7  6  1  0  0  0
  6  5  1  0  0  0
  5  4  1  0  0  0
  4  3  1  0  0  0
  3  2  1  0  0  0
  2  1  1  0  0  0
  1 11  1  0  0  0
 11 12  1  0  0  0
 12 13  1  0  0  0
 13 14  1  0  0  0
 14 15  1  0  0  0
 15 16  1  0  0  0
 16 17  1  0  0  0
 17 18  1  0  0  0
 18 19  1  0  0  0
  8 10  1  0  0  0
M  END
> <minimizedAffinity>
-5.65801

$$$$
4TKJ_PLM_A_201


 19 18  0  0  0  0  0  0  0  0999 V2000
    6.9457  -23.3971   -1.4208 C   0  0  0  0  0  0  0  0  0  0  0  0
    6.7320  -23.5640    0.0760 C   0  0  0  0  0  0  0  0  0  0  0  0
    6.5481  -22.2688    0.8580 C   0  0  0  0  0  0  0  0  0  0  0  0
    7.6940  -21.9197    1.7925 C   0  0  0  0  0  0  0  0  0  0  0  0
    8.5202  -20.7561    1.2876 C   0  0  0  0  0  0  0  0  0  0  0  0
    9.6034  -21.1632    0.3278 C   0  0  0  0  0  0  0  0  0  0  0  0
   10.6600  -20.1236    0.0297 C   0  0  0  0  0  0  0  0  0  0  0  0
   11.5769  -19.9651    0.9097 O   0  0  0  0  0  0  0  0  0  0  0  0
   10.5919  -19.4529   -1.0093 O   0  0  0  0  0  0  0  0  0  0  0  0
   11.5843  -20.4987    1.6799 H   0  0  0  0  0  0  0  0  0  0  0  0
    8.1020  -24.2080   -1.9723 C   0  0  0  0  0  0  0  0  0  0  0  0
    7.6755  -25.2883   -2.9922 C   0  0  0  0  0  0  0  0  0  0  0  0
    6.7330  -24.8228   -4.1324 C   0  0  0  0  0  0  0  0  0  0  0  0
    7.2465  -23.6735   -5.0482 C   0  0  0  0  0  0  0  0  0  0  0  0
    6.2389  -22.7775   -5.8037 C   0  0  0  0  0  0  0  0  0  0  0  0
    6.6587  -21.2463   -6.0061 C   0  0  0  0  0  0  0  0  0  0  0  0
    6.6041  -20.2974   -4.9033 C   0  0  0  0  0  0  0  0  0  0  0  0
    6.2638  -18.8467   -5.3066 C   0  0  0  0  0  0  0  0  0  0  0  0
    7.2680  -17.9451   -4.6476 C   0  0  0  0  0  0  0  0  0  0  0  0
  7  8  1  0  0  0
  7  9  2  0  0  0
  7  6  1  0  0  0
  6  5  1  0  0  0
  5  4  1  0  0  0
  4  3  1  0  0  0
  3  2  1  0  0  0
  2  1  1  0  0  0
  1 11  1  0  0  0
 11 12  1  0  0  0
 12 13  1  0  0  0
 13 14  1  0  0  0
 14 15  1  0  0  0
 15 16  1  0  0  0
 16 17  1  0  0  0
 17 18  1  0  0  0
 18 19  1  0  0  0
  8 10  1  0  0  0
M  END
> <minimizedAffinity>
-5.62122

$$$$
4TKJ_PLM_A_201


 19 18  0  0  0  0  0  0  0  0999 V2000
    6.9521  -24.8582   -3.6408 C   0  0  0  0  0  0  0  0  0  0  0  0
    8.1824  -24.3926   -2.8770 C   0  0  0  0  0  0  0  0  0  0  0  0
    7.9069  -23.7589   -1.5186 C   0  0  0  0  0  0  0  0  0  0  0  0
    6.5108  -23.1823   -1.3551 C   0  0  0  0  0  0  0  0  0  0  0  0
    6.2047  -22.8013    0.0776 C   0  0  0  0  0  0  0  0  0  0  0  0
    7.0590  -21.6768    0.5932 C   0  0  0  0  0  0  0  0  0  0  0  0
    7.9895  -22.0123    1.7368 C   0  0  0  0  0  0  0  0  0  0  0  0
    8.8348  -21.1116    2.0751 O   0  0  0  0  0  0  0  0  0  0  0  0
    7.9312  -23.1263    2.2750 O   0  0  0  0  0  0  0  0  0  0  0  0
    8.8380  -20.2837    1.6363 H   0  0  0  0  0  0  0  0  0  0  0  0
    6.7951  -24.2171   -5.0059 C   0  0  0  0  0  0  0  0  0  0  0  0
    6.0472  -22.8648   -4.9773 C   0  0  0  0  0  0  0  0  0  0  0  0
    6.6654  -21.7197   -5.8210 C   0  0  0  0  0  0  0  0  0  0  0  0
    6.9577  -20.3792   -5.0856 C   0  0  0  0  0  0  0  0  0  0  0  0
    8.0237  -20.3267   -3.9675 C   0  0  0  0  0  0  0  0  0  0  0  0
    7.5151  -19.8766   -2.5182 C   0  0  0  0  0  0  0  0  0  0  0  0
    8.2657  -18.9183   -1.7197 C   0  0  0  0  0  0  0  0  0  0  0  0
    9.8004  -19.0185   -1.8518 C   0  0  0  0  0  0  0  0  0  0  0  0
   10.2978  -19.8772   -0.7245 C   0  0  0  0  0  0  0  0  0  0  0  0
  7  8  1  0  0  0
  7  9  2  0  0  0
  7  6  1  0  0  0
  6  5  1  0  0  0
  5  4  1  0  0  0
  4  3  1  0  0  0
  3  2  1  0  0  0
  2  1  1  0  0  0
  1 11  1  0  0  0
 11 12  1  0  0  0
 12 13  1  0  0  0
 13 14  1  0  0  0
 14 15  1  0  0  0
 15 16  1  0  0  0
 16 17  1  0  0  0
 17 18  1  0  0  0
 18 19  1  0  0  0
  8 10  1  0  0  0
M  END
> <minimizedAffinity>
-5.59253

$$$$
