1ZGE_SDA_A_300


 17 17  0  0  0  0  0  0  0  0999 V2000
   15.8857    4.1485   15.6902 C   0  0  0  0  0  0  0  0  0  0  0  0
   14.9735    5.0750   15.1830 C   0  0  0  0  0  0  0  0  0  0  0  0
   15.3867    6.2119   14.5004 C   0  0  0  0  0  0  0  0  0  0  0  0
   14.3262    7.4295   13.8194 Cl  0  0  0  0  0  0  0  0  0  0  0  0
   16.7531    6.4439   14.3095 C   0  0  0  0  0  0  0  0  0  0  0  0
   17.1757    7.6013   13.6215 N   0  0  0  0  0  0  0  0  0  0  0  0
   17.6663    5.5381   14.8078 C   0  0  0  0  0  0  0  0  0  0  0  0
   19.3381    5.8715   14.5542 Cl  0  0  0  0  0  0  0  0  0  0  0  0
   17.2644    4.3928   15.4958 C   0  0  0  0  0  0  0  0  0  0  0  0
   16.5100    8.2372   13.2726 H   0  0  0  0  0  0  0  0  0  0  0  0
   18.1363    7.7729   13.4905 H   0  0  0  0  0  0  0  0  0  0  0  0
   15.4095    2.6786   16.5686 S   0  0  0  0  0  0  0  0  0  0  0  0
   15.8107    2.8994   17.9820 N   0  0  0  0  0  0  0  0  0  0  0  0
   13.9521    2.6577   16.4476 O   0  0  0  0  0  0  0  0  0  0  0  0
   16.1233    1.5481   15.9864 O   0  0  0  0  0  0  0  0  0  0  0  0
   15.5602    2.0819   18.5382 H   0  0  0  0  0  0  0  0  0  0  0  0
   15.3285    3.7203   18.3480 H   0  0  0  0  0  0  0  0  0  0  0  0
 12 13  1  0  0  0
 12 14  2  0  0  0
 12 15  2  0  0  0
 12  1  1  0  0  0
  1  2  1  0  0  0
  1  9  2  0  0  0
  2  3  2  0  0  0
  3  4  1  0  0  0
  3  5  1  0  0  0
  5  6  1  0  0  0
  5  7  2  0  0  0
  7  8  1  0  0  0
  7  9  1  0  0  0
 13 16  1  0  0  0
 13 17  1  0  0  0
  6 10  1  0  0  0
  6 11  1  0  0  0
M  END
> <minimizedAffinity>
-6.08710

$$$$
1ZGE_SDA_A_300


 17 17  0  0  0  0  0  0  0  0999 V2000
   16.0060    4.0926   15.7098 C   0  0  0  0  0  0  0  0  0  0  0  0
   17.3553    4.3769   15.4946 C   0  0  0  0  0  0  0  0  0  0  0  0
   17.7645    5.5162   14.8135 C   0  0  0  0  0  0  0  0  0  0  0  0
   19.4278    5.9686   14.4978 Cl  0  0  0  0  0  0  0  0  0  0  0  0
   16.8055    6.4108   14.3263 C   0  0  0  0  0  0  0  0  0  0  0  0
   17.2184    7.5660   13.6287 N   0  0  0  0  0  0  0  0  0  0  0  0
   15.4680    6.1412   14.5292 C   0  0  0  0  0  0  0  0  0  0  0  0
   14.3246    7.2688   13.9035 Cl  0  0  0  0  0  0  0  0  0  0  0  0
   15.0439    5.0002   15.2108 C   0  0  0  0  0  0  0  0  0  0  0  0
   18.1774    7.7427   13.4931 H   0  0  0  0  0  0  0  0  0  0  0  0
   16.5475    8.1952   13.2777 H   0  0  0  0  0  0  0  0  0  0  0  0
   15.4304    2.6510   16.5756 S   0  0  0  0  0  0  0  0  0  0  0  0
   15.7994    2.8557   18.0002 N   0  0  0  0  0  0  0  0  0  0  0  0
   13.9781    2.7029   16.4107 O   0  0  0  0  0  0  0  0  0  0  0  0
   16.1038    1.4844   16.0169 O   0  0  0  0  0  0  0  0  0  0  0  0
   15.4916    2.0534   18.5498 H   0  0  0  0  0  0  0  0  0  0  0  0
   15.3482    3.7008   18.3503 H   0  0  0  0  0  0  0  0  0  0  0  0
 12 13  1  0  0  0
 12 14  2  0  0  0
 12 15  2  0  0  0
 12  1  1  0  0  0
  1  2  1  0  0  0
  1  9  2  0  0  0
  2  3  2  0  0  0
  3  4  1  0  0  0
  3  5  1  0  0  0
  5  6  1  0  0  0
  5  7  2  0  0  0
  7  8  1  0  0  0
  7  9  1  0  0  0
 13 16  1  0  0  0
 13 17  1  0  0  0
  6 10  1  0  0  0
  6 11  1  0  0  0
M  END
> <minimizedAffinity>
-6.07407

$$$$
1ZGE_SDA_A_300


 17 17  0  0  0  0  0  0  0  0999 V2000
   15.2749    4.0400   15.7857 C   0  0  0  0  0  0  0  0  0  0  0  0
   14.7682    5.3006   15.4670 C   0  0  0  0  0  0  0  0  0  0  0  0
   15.1635    5.9814   14.3226 C   0  0  0  0  0  0  0  0  0  0  0  0
   14.5841    7.5597   13.8282 Cl  0  0  0  0  0  0  0  0  0  0  0  0
   16.0945    5.3955   13.4580 C   0  0  0  0  0  0  0  0  0  0  0  0
   16.5023    6.0877   12.2978 N   0  0  0  0  0  0  0  0  0  0  0  0
   16.6059    4.1510   13.7619 C   0  0  0  0  0  0  0  0  0  0  0  0
   17.7555    3.4745   12.6704 Cl  0  0  0  0  0  0  0  0  0  0  0  0
   16.2178    3.4573   14.9083 C   0  0  0  0  0  0  0  0  0  0  0  0
   16.1268    6.9752   12.0965 H   0  0  0  0  0  0  0  0  0  0  0  0
   17.1623    5.6830   11.6896 H   0  0  0  0  0  0  0  0  0  0  0  0
   14.8011    3.1271   17.2352 S   0  0  0  0  0  0  0  0  0  0  0  0
   15.7707    2.0068   17.3474 N   0  0  0  0  0  0  0  0  0  0  0  0
   14.9940    4.0818   18.3262 O   0  0  0  0  0  0  0  0  0  0  0  0
   13.4429    2.6336   17.0397 O   0  0  0  0  0  0  0  0  0  0  0  0
   15.5466    1.4440   18.1680 H   0  0  0  0  0  0  0  0  0  0  0  0
   16.7146    2.3821   17.4400 H   0  0  0  0  0  0  0  0  0  0  0  0
 12 13  1  0  0  0
 12 14  2  0  0  0
 12 15  2  0  0  0
 12  1  1  0  0  0
  1  2  1  0  0  0
  1  9  2  0  0  0
  2  3  2  0  0  0
  3  4  1  0  0  0
  3  5  1  0  0  0
  5  6  1  0  0  0
  5  7  2  0  0  0
  7  8  1  0  0  0
  7  9  1  0  0  0
 13 16  1  0  0  0
 13 17  1  0  0  0
  6 10  1  0  0  0
  6 11  1  0  0  0
M  END
> <minimizedAffinity>
-5.98694

$$$$
1ZGE_SDA_A_300


 17 17  0  0  0  0  0  0  0  0999 V2000
   16.7537    3.6232   14.2782 C   0  0  0  0  0  0  0  0  0  0  0  0
   16.6100    4.9843   14.0057 C   0  0  0  0  0  0  0  0  0  0  0  0
   16.6088    5.4754   12.7064 C   0  0  0  0  0  0  0  0  0  0  0  0
   16.4277    7.1595   12.2570 Cl  0  0  0  0  0  0  0  0  0  0  0  0
   16.7541    4.5893   11.6336 C   0  0  0  0  0  0  0  0  0  0  0  0
   16.7593    5.0863   10.3128 N   0  0  0  0  0  0  0  0  0  0  0  0
   16.9000    3.2414   11.8881 C   0  0  0  0  0  0  0  0  0  0  0  0
   17.0836    2.1908   10.5342 Cl  0  0  0  0  0  0  0  0  0  0  0  0
   16.9037    2.7356   13.1882 C   0  0  0  0  0  0  0  0  0  0  0  0
   16.6539    6.0514   10.1496 H   0  0  0  0  0  0  0  0  0  0  0  0
   16.8682    4.4679    9.5545 H   0  0  0  0  0  0  0  0  0  0  0  0
   16.7602    2.9441   15.9207 S   0  0  0  0  0  0  0  0  0  0  0  0
   16.3956    1.5115   15.7718 N   0  0  0  0  0  0  0  0  0  0  0  0
   18.1533    3.0759   16.3462 O   0  0  0  0  0  0  0  0  0  0  0  0
   15.7703    3.6622   16.7150 O   0  0  0  0  0  0  0  0  0  0  0  0
   16.3833    1.0666   16.6896 H   0  0  0  0  0  0  0  0  0  0  0  0
   17.0816    1.0460   15.1775 H   0  0  0  0  0  0  0  0  0  0  0  0
 12 13  1  0  0  0
 12 14  2  0  0  0
 12 15  2  0  0  0
 12  1  1  0  0  0
  1  2  1  0  0  0
  1  9  2  0  0  0
  2  3  2  0  0  0
  3  4  1  0  0  0
  3  5  1  0  0  0
  5  6  1  0  0  0
  5  7  2  0  0  0
  7  8  1  0  0  0
  7  9  1  0  0  0
 13 16  1  0  0  0
 13 17  1  0  0  0
  6 10  1  0  0  0
  6 11  1  0  0  0
M  END
> <minimizedAffinity>
-5.78999

$$$$
1ZGE_SDA_A_300


 17 17  0  0  0  0  0  0  0  0999 V2000
   16.8309    2.8093   14.0929 C   0  0  0  0  0  0  0  0  0  0  0  0
   16.6962    3.8407   13.1625 C   0  0  0  0  0  0  0  0  0  0  0  0
   16.7728    3.6088   11.7951 C   0  0  0  0  0  0  0  0  0  0  0  0
   16.6098    4.8283   10.5472 Cl  0  0  0  0  0  0  0  0  0  0  0  0
   16.9899    2.3085   11.3268 C   0  0  0  0  0  0  0  0  0  0  0  0
   17.0741    2.0711    9.9382 N   0  0  0  0  0  0  0  0  0  0  0  0
   17.1278    1.2795   12.2350 C   0  0  0  0  0  0  0  0  0  0  0  0
   17.4016   -0.3031   11.6097 Cl  0  0  0  0  0  0  0  0  0  0  0  0
   17.0537    1.4992   13.6107 C   0  0  0  0  0  0  0  0  0  0  0  0
   16.9733    2.8175    9.3042 H   0  0  0  0  0  0  0  0  0  0  0  0
   17.2337    1.1591    9.6035 H   0  0  0  0  0  0  0  0  0  0  0  0
   16.7395    3.0523   15.8511 S   0  0  0  0  0  0  0  0  0  0  0  0
   16.1429    1.8092   16.4048 N   0  0  0  0  0  0  0  0  0  0  0  0
   18.1388    3.1739   16.2588 O   0  0  0  0  0  0  0  0  0  0  0  0
   15.8879    4.2078   16.1080 O   0  0  0  0  0  0  0  0  0  0  0  0
   16.0654    1.8916   17.4185 H   0  0  0  0  0  0  0  0  0  0  0  0
   16.7380    1.0139   16.1728 H   0  0  0  0  0  0  0  0  0  0  0  0
 12 13  1  0  0  0
 12 14  2  0  0  0
 12 15  2  0  0  0
 12  1  1  0  0  0
  1  2  1  0  0  0
  1  9  2  0  0  0
  2  3  2  0  0  0
  3  4  1  0  0  0
  3  5  1  0  0  0
  5  6  1  0  0  0
  5  7  2  0  0  0
  7  8  1  0  0  0
  7  9  1  0  0  0
 13 16  1  0  0  0
 13 17  1  0  0  0
  6 10  1  0  0  0
  6 11  1  0  0  0
M  END
> <minimizedAffinity>
-5.77046

$$$$
1ZGE_SDA_A_300


 17 17  0  0  0  0  0  0  0  0999 V2000
   16.7612    3.5827   13.2468 C   0  0  0  0  0  0  0  0  0  0  0  0
   16.6503    2.9096   14.4642 C   0  0  0  0  0  0  0  0  0  0  0  0
   15.8851    3.4086   15.5105 C   0  0  0  0  0  0  0  0  0  0  0  0
   15.6742    2.6403   17.0713 Cl  0  0  0  0  0  0  0  0  0  0  0  0
   15.2015    4.6186   15.3496 C   0  0  0  0  0  0  0  0  0  0  0  0
   14.4282    5.1309   16.4132 N   0  0  0  0  0  0  0  0  0  0  0  0
   15.3042    5.2964   14.1526 C   0  0  0  0  0  0  0  0  0  0  0  0
   14.4502    6.7863   14.0054 Cl  0  0  0  0  0  0  0  0  0  0  0  0
   16.0700    4.8065   13.0944 C   0  0  0  0  0  0  0  0  0  0  0  0
   14.3662    4.6337   17.2606 H   0  0  0  0  0  0  0  0  0  0  0  0
   13.9508    5.9854   16.3077 H   0  0  0  0  0  0  0  0  0  0  0  0
   17.7250    2.9870   11.8774 S   0  0  0  0  0  0  0  0  0  0  0  0
   17.0713    3.5213   10.6548 N   0  0  0  0  0  0  0  0  0  0  0  0
   19.0323    3.6127   12.0737 O   0  0  0  0  0  0  0  0  0  0  0  0
   17.6955    1.5292   11.8990 O   0  0  0  0  0  0  0  0  0  0  0  0
   17.5851    3.2095    9.8306 H   0  0  0  0  0  0  0  0  0  0  0  0
   17.0690    4.5408   10.6883 H   0  0  0  0  0  0  0  0  0  0  0  0
 12 13  1  0  0  0
 12 14  2  0  0  0
 12 15  2  0  0  0
 12  1  1  0  0  0
  1  2  1  0  0  0
  1  9  2  0  0  0
  2  3  2  0  0  0
  3  4  1  0  0  0
  3  5  1  0  0  0
  5  6  1  0  0  0
  5  7  2  0  0  0
  7  8  1  0  0  0
  7  9  1  0  0  0
 13 16  1  0  0  0
 13 17  1  0  0  0
  6 10  1  0  0  0
  6 11  1  0  0  0
M  END
> <minimizedAffinity>
-5.73776

$$$$
1ZGE_SDA_A_300


 17 17  0  0  0  0  0  0  0  0999 V2000
   16.7881    3.5696   13.0367 C   0  0  0  0  0  0  0  0  0  0  0  0
   16.1152    4.7877   12.9315 C   0  0  0  0  0  0  0  0  0  0  0  0
   15.3815    5.3132   13.9874 C   0  0  0  0  0  0  0  0  0  0  0  0
   14.5092    6.8329   13.9613 Cl  0  0  0  0  0  0  0  0  0  0  0  0
   15.3093    4.6103   15.1948 C   0  0  0  0  0  0  0  0  0  0  0  0
   14.5596    5.1390   16.2672 N   0  0  0  0  0  0  0  0  0  0  0  0
   15.9671    3.4036   15.3123 C   0  0  0  0  0  0  0  0  0  0  0  0
   15.8419    2.5716   16.8165 Cl  0  0  0  0  0  0  0  0  0  0  0  0
   16.7066    2.8645   14.2592 C   0  0  0  0  0  0  0  0  0  0  0  0
   14.0964    6.0018   16.1657 H   0  0  0  0  0  0  0  0  0  0  0  0
   14.4998    4.6451   17.1167 H   0  0  0  0  0  0  0  0  0  0  0  0
   17.7409    2.8549   11.7175 S   0  0  0  0  0  0  0  0  0  0  0  0
   17.5266    1.3874   11.8075 N   0  0  0  0  0  0  0  0  0  0  0  0
   17.1166    3.3900   10.5079 O   0  0  0  0  0  0  0  0  0  0  0  0
   19.1421    3.1990   11.9288 O   0  0  0  0  0  0  0  0  0  0  0  0
   18.0535    0.9210   11.0690 H   0  0  0  0  0  0  0  0  0  0  0  0
   16.5336    1.1815   11.6987 H   0  0  0  0  0  0  0  0  0  0  0  0
 12 13  1  0  0  0
 12 14  2  0  0  0
 12 15  2  0  0  0
 12  1  1  0  0  0
  1  2  1  0  0  0
  1  9  2  0  0  0
  2  3  2  0  0  0
  3  4  1  0  0  0
  3  5  1  0  0  0
  5  6  1  0  0  0
  5  7  2  0  0  0
  7  8  1  0  0  0
  7  9  1  0  0  0
 13 16  1  0  0  0
 13 17  1  0  0  0
  6 10  1  0  0  0
  6 11  1  0  0  0
M  END
> <minimizedAffinity>
-5.68658

$$$$
1ZGE_SDA_A_300


 17 17  0  0  0  0  0  0  0  0999 V2000
   16.8472    3.6008   14.1942 C   0  0  0  0  0  0  0  0  0  0  0  0
   16.6912    2.7972   13.0638 C   0  0  0  0  0  0  0  0  0  0  0  0
   16.7057    3.3275   11.7801 C   0  0  0  0  0  0  0  0  0  0  0  0
   16.5270    2.4080   10.2990 Cl  0  0  0  0  0  0  0  0  0  0  0  0
   16.8817    4.7043   11.6041 C   0  0  0  0  0  0  0  0  0  0  0  0
   16.8908    5.2464   10.3012 N   0  0  0  0  0  0  0  0  0  0  0  0
   17.0343    5.5111   12.7124 C   0  0  0  0  0  0  0  0  0  0  0  0
   17.2403    7.2012   12.4447 Cl  0  0  0  0  0  0  0  0  0  0  0  0
   17.0209    4.9912   14.0070 C   0  0  0  0  0  0  0  0  0  0  0  0
   16.7805    4.6556    9.5214 H   0  0  0  0  0  0  0  0  0  0  0  0
   17.0073    6.2154   10.1720 H   0  0  0  0  0  0  0  0  0  0  0  0
   16.8379    2.9724   15.8567 S   0  0  0  0  0  0  0  0  0  0  0  0
   16.5089    1.5278   15.7455 N   0  0  0  0  0  0  0  0  0  0  0  0
   18.2192    3.1497   16.3034 O   0  0  0  0  0  0  0  0  0  0  0  0
   15.8169    3.6911   16.6101 O   0  0  0  0  0  0  0  0  0  0  0  0
   16.4893    1.1109   16.6763 H   0  0  0  0  0  0  0  0  0  0  0  0
   17.2165    1.0606   15.1786 H   0  0  0  0  0  0  0  0  0  0  0  0
 12 13  1  0  0  0
 12 14  2  0  0  0
 12 15  2  0  0  0
 12  1  1  0  0  0
  1  2  1  0  0  0
  1  9  2  0  0  0
  2  3  2  0  0  0
  3  4  1  0  0  0
  3  5  1  0  0  0
  5  6  1  0  0  0
  5  7  2  0  0  0
  7  8  1  0  0  0
  7  9  1  0  0  0
 13 16  1  0  0  0
 13 17  1  0  0  0
  6 10  1  0  0  0
  6 11  1  0  0  0
M  END
> <minimizedAffinity>
-5.66608

$$$$
1ZGE_SDA_A_300


 17 17  0  0  0  0  0  0  0  0999 V2000
   16.8291    4.7389   14.8396 C   0  0  0  0  0  0  0  0  0  0  0  0
   15.6651    5.4484   14.5408 C   0  0  0  0  0  0  0  0  0  0  0  0
   15.7047    6.7202   13.9837 C   0  0  0  0  0  0  0  0  0  0  0  0
   14.3063    7.6898   13.5649 Cl  0  0  0  0  0  0  0  0  0  0  0  0
   16.9408    7.3154   13.7097 C   0  0  0  0  0  0  0  0  0  0  0  0
   16.9838    8.6098   13.1492 N   0  0  0  0  0  0  0  0  0  0  0  0
   18.0997    6.6270   14.0024 C   0  0  0  0  0  0  0  0  0  0  0  0
   19.5976    7.4050   13.6539 Cl  0  0  0  0  0  0  0  0  0  0  0  0
   18.0736    5.3496   14.5627 C   0  0  0  0  0  0  0  0  0  0  0  0
   16.1466    9.0866   12.9466 H   0  0  0  0  0  0  0  0  0  0  0  0
   17.8510    9.0361   12.9608 H   0  0  0  0  0  0  0  0  0  0  0  0
   16.8332    3.1101   15.5509 S   0  0  0  0  0  0  0  0  0  0  0  0
   15.6632    3.0607   16.4653 N   0  0  0  0  0  0  0  0  0  0  0  0
   16.6229    2.2286   14.4029 O   0  0  0  0  0  0  0  0  0  0  0  0
   18.0832    2.9345   16.2811 O   0  0  0  0  0  0  0  0  0  0  0  0
   15.6143    2.1420   16.9056 H   0  0  0  0  0  0  0  0  0  0  0  0
   14.8090    3.2290   15.9339 H   0  0  0  0  0  0  0  0  0  0  0  0
 12 13  1  0  0  0
 12 14  2  0  0  0
 12 15  2  0  0  0
 12  1  1  0  0  0
  1  2  1  0  0  0
  1  9  2  0  0  0
  2  3  2  0  0  0
  3  4  1  0  0  0
  3  5  1  0  0  0
  5  6  1  0  0  0
  5  7  2  0  0  0
  7  8  1  0  0  0
  7  9  1  0  0  0
 13 16  1  0  0  0
 13 17  1  0  0  0
  6 10  1  0  0  0
  6 11  1  0  0  0
M  END
> <minimizedAffinity>
-5.62515

$$$$
1ZGE_SDA_A_300


 17 17  0  0  0  0  0  0  0  0999 V2000
   18.1712    3.6502   11.3398 C   0  0  0  0  0  0  0  0  0  0  0  0
   19.2902    3.6258   10.5063 C   0  0  0  0  0  0  0  0  0  0  0  0
   20.3516    4.5051   10.6785 C   0  0  0  0  0  0  0  0  0  0  0  0
   21.8015    4.5522    9.6953 Cl  0  0  0  0  0  0  0  0  0  0  0  0
   20.3082    5.4449   11.7139 C   0  0  0  0  0  0  0  0  0  0  0  0
   21.3825    6.3434   11.8873 N   0  0  0  0  0  0  0  0  0  0  0  0
   19.2071    5.4825   12.5439 C   0  0  0  0  0  0  0  0  0  0  0  0
   19.1966    6.6628   13.7999 Cl  0  0  0  0  0  0  0  0  0  0  0  0
   18.1343    4.6056   12.3812 C   0  0  0  0  0  0  0  0  0  0  0  0
   22.1606    6.3023   11.2855 H   0  0  0  0  0  0  0  0  0  0  0  0
   21.3540    7.0113   12.6101 H   0  0  0  0  0  0  0  0  0  0  0  0
   16.7887    2.5473   11.1633 S   0  0  0  0  0  0  0  0  0  0  0  0
   15.5859    3.4133   11.0594 N   0  0  0  0  0  0  0  0  0  0  0  0
   17.0435    1.8707    9.8920 O   0  0  0  0  0  0  0  0  0  0  0  0
   16.7287    1.6983   12.3475 O   0  0  0  0  0  0  0  0  0  0  0  0
   14.7553    2.8305   10.9555 H   0  0  0  0  0  0  0  0  0  0  0  0
   15.6761    4.0245   10.2478 H   0  0  0  0  0  0  0  0  0  0  0  0
 12 13  1  0  0  0
 12 14  2  0  0  0
 12 15  2  0  0  0
 12  1  1  0  0  0
  1  2  1  0  0  0
  1  9  2  0  0  0
  2  3  2  0  0  0
  3  4  1  0  0  0
  3  5  1  0  0  0
  5  6  1  0  0  0
  5  7  2  0  0  0
  7  8  1  0  0  0
  7  9  1  0  0  0
 13 16  1  0  0  0
 13 17  1  0  0  0
  6 10  1  0  0  0
  6 11  1  0  0  0
M  END
> <minimizedAffinity>
-5.58301

$$$$
