4X8U_3ZB_H_301


 15 16  0  0  0  0  0  0  0  0999 V2000
    8.6171   36.0708   28.3149 C   0  0  0  0  0  0  0  0  0  0  0  0
    8.9111   35.3244   27.1593 C   0  0  0  0  0  0  0  0  0  0  0  0
    8.9384   35.2983   29.4131 N   0  0  0  0  0  0  0  0  0  0  0  0
    8.1406   37.3756   28.2386 C   0  0  0  0  0  0  0  0  0  0  0  0
    9.4100   34.0557   27.6077 C   0  0  0  0  0  0  0  0  0  0  0  0
    8.7475   35.9233   25.9155 C   0  0  0  0  0  0  0  0  0  0  0  0
    9.4304   34.0845   28.9765 C   0  0  0  0  0  0  0  0  0  0  0  0
    7.9940   37.9630   26.9835 C   0  0  0  0  0  0  0  0  0  0  0  0
    8.3092   37.2336   25.8460 C   0  0  0  0  0  0  0  0  0  0  0  0
    8.2041   38.0048   24.2865 Cl  0  0  0  0  0  0  0  0  0  0  0  0
    8.8338   35.5688   30.3539 H   0  0  0  0  0  0  0  0  0  0  0  0
    9.8446   33.0902   29.9913 C   0  0  0  0  0  0  0  0  0  0  0  0
   10.7539   32.2375   29.5862 O   0  0  0  0  0  0  0  0  0  0  0  0
    9.3996   33.1225   31.1398 O   0  0  0  0  0  0  0  0  0  0  0  0
   11.0552   32.2599   28.6993 H   0  0  0  0  0  0  0  0  0  0  0  0
 13 12  1  0  0  0
  5  2  1  0  0  0
  5  7  2  0  0  0
  6  2  2  0  0  0
  6  9  1  0  0  0
  2  1  1  0  0  0
 12  7  1  0  0  0
 12 14  2  0  0  0
 10  9  1  0  0  0
  7  3  1  0  0  0
  9  8  2  0  0  0
  1  3  1  0  0  0
  1  4  2  0  0  0
  8  4  1  0  0  0
  3 11  1  0  0  0
 13 15  1  0  0  0
M  END
> <minimizedAffinity>
-6.85223

$$$$
4X8U_3ZB_H_301


 15 16  0  0  0  0  0  0  0  0999 V2000
    8.9472   35.4385   27.0233 C   0  0  0  0  0  0  0  0  0  0  0  0
    9.1627   36.0532   28.2702 C   0  0  0  0  0  0  0  0  0  0  0  0
    9.3081   34.1107   27.1360 N   0  0  0  0  0  0  0  0  0  0  0  0
    8.4057   36.1377   25.9495 C   0  0  0  0  0  0  0  0  0  0  0  0
    9.6877   35.0401   29.1405 C   0  0  0  0  0  0  0  0  0  0  0  0
    8.7946   37.3838   28.4334 C   0  0  0  0  0  0  0  0  0  0  0  0
    9.7430   33.8741   28.4248 C   0  0  0  0  0  0  0  0  0  0  0  0
    8.0321   37.4672   26.1355 C   0  0  0  0  0  0  0  0  0  0  0  0
    8.2218   38.0640   27.3737 C   0  0  0  0  0  0  0  0  0  0  0  0
    7.6732   39.6998   27.6209 Cl  0  0  0  0  0  0  0  0  0  0  0  0
    9.2628   33.4418   26.4151 H   0  0  0  0  0  0  0  0  0  0  0  0
   10.1810   32.5051   28.7765 C   0  0  0  0  0  0  0  0  0  0  0  0
   10.6533   32.3743   29.9921 O   0  0  0  0  0  0  0  0  0  0  0  0
   10.0433   31.5660   27.9908 O   0  0  0  0  0  0  0  0  0  0  0  0
   10.7358   33.1256   30.5460 H   0  0  0  0  0  0  0  0  0  0  0  0
 13 12  1  0  0  0
  5  2  1  0  0  0
  5  7  2  0  0  0
  6  2  2  0  0  0
  6  9  1  0  0  0
  2  1  1  0  0  0
 12  7  1  0  0  0
 12 14  2  0  0  0
 10  9  1  0  0  0
  7  3  1  0  0  0
  9  8  2  0  0  0
  1  3  1  0  0  0
  1  4  2  0  0  0
  8  4  1  0  0  0
  3 11  1  0  0  0
 13 15  1  0  0  0
M  END
> <minimizedAffinity>
-6.71721

$$$$
4X8U_3ZB_H_301


 15 16  0  0  0  0  0  0  0  0999 V2000
    8.9047   36.7807   28.4510 C   0  0  0  0  0  0  0  0  0  0  0  0
    8.5687   36.2714   27.1834 C   0  0  0  0  0  0  0  0  0  0  0  0
    9.5050   35.7670   29.1709 N   0  0  0  0  0  0  0  0  0  0  0  0
    8.6735   38.1106   28.7873 C   0  0  0  0  0  0  0  0  0  0  0  0
    8.9776   34.8959   27.1736 C   0  0  0  0  0  0  0  0  0  0  0  0
    8.0204   37.1323   26.2397 C   0  0  0  0  0  0  0  0  0  0  0  0
    9.5574   34.6326   28.3858 C   0  0  0  0  0  0  0  0  0  0  0  0
    8.1340   38.9612   27.8244 C   0  0  0  0  0  0  0  0  0  0  0  0
    7.8272   38.4627   26.5663 C   0  0  0  0  0  0  0  0  0  0  0  0
    7.2331   39.5525   25.3428 Cl  0  0  0  0  0  0  0  0  0  0  0  0
    9.8408   35.8410   30.0934 H   0  0  0  0  0  0  0  0  0  0  0  0
   10.1684   33.4121   28.9577 C   0  0  0  0  0  0  0  0  0  0  0  0
   10.1729   33.3615   30.2673 O   0  0  0  0  0  0  0  0  0  0  0  0
   10.5772   32.5009   28.2359 O   0  0  0  0  0  0  0  0  0  0  0  0
    9.8488   34.0861   30.7653 H   0  0  0  0  0  0  0  0  0  0  0  0
 13 12  1  0  0  0
  5  2  1  0  0  0
  5  7  2  0  0  0
  6  2  2  0  0  0
  6  9  1  0  0  0
  2  1  1  0  0  0
 12  7  1  0  0  0
 12 14  2  0  0  0
 10  9  1  0  0  0
  7  3  1  0  0  0
  9  8  2  0  0  0
  1  3  1  0  0  0
  1  4  2  0  0  0
  8  4  1  0  0  0
  3 11  1  0  0  0
 13 15  1  0  0  0
M  END
> <minimizedAffinity>
-6.37640

$$$$
4X8U_3ZB_H_301


 15 16  0  0  0  0  0  0  0  0999 V2000
    9.1067   35.2577   26.3346 C   0  0  0  0  0  0  0  0  0  0  0  0
    8.6200   36.0005   27.4257 C   0  0  0  0  0  0  0  0  0  0  0  0
    8.9030   36.0015   25.1895 N   0  0  0  0  0  0  0  0  0  0  0  0
    9.7192   34.0210   26.5095 C   0  0  0  0  0  0  0  0  0  0  0  0
    8.0956   37.2229   26.8872 C   0  0  0  0  0  0  0  0  0  0  0  0
    8.7865   35.4927   28.7091 C   0  0  0  0  0  0  0  0  0  0  0  0
    8.3024   37.1960   25.5339 C   0  0  0  0  0  0  0  0  0  0  0  0
    9.8875   33.5337   27.8041 C   0  0  0  0  0  0  0  0  0  0  0  0
    9.4298   34.2800   28.8806 C   0  0  0  0  0  0  0  0  0  0  0  0
    9.7211   33.7028   30.4992 Cl  0  0  0  0  0  0  0  0  0  0  0  0
    9.1464   35.7253   24.2764 H   0  0  0  0  0  0  0  0  0  0  0  0
    7.9905   38.1602   24.4556 C   0  0  0  0  0  0  0  0  0  0  0  0
    8.7087   38.0200   23.3682 O   0  0  0  0  0  0  0  0  0  0  0  0
    7.0789   38.9809   24.5729 O   0  0  0  0  0  0  0  0  0  0  0  0
    9.3904   37.3779   23.3365 H   0  0  0  0  0  0  0  0  0  0  0  0
 13 12  1  0  0  0
  5  2  1  0  0  0
  5  7  2  0  0  0
  6  2  2  0  0  0
  6  9  1  0  0  0
  2  1  1  0  0  0
 12  7  1  0  0  0
 12 14  2  0  0  0
 10  9  1  0  0  0
  7  3  1  0  0  0
  9  8  2  0  0  0
  1  3  1  0  0  0
  1  4  2  0  0  0
  8  4  1  0  0  0
  3 11  1  0  0  0
 13 15  1  0  0  0
M  END
> <minimizedAffinity>
-6.20014

$$$$
4X8U_3ZB_H_301


 15 16  0  0  0  0  0  0  0  0999 V2000
    9.4642   34.7297   29.0759 C   0  0  0  0  0  0  0  0  0  0  0  0
    9.4320   34.4679   27.6941 C   0  0  0  0  0  0  0  0  0  0  0  0
    9.1302   36.0559   29.2651 N   0  0  0  0  0  0  0  0  0  0  0  0
    9.7432   33.7293   30.0014 C   0  0  0  0  0  0  0  0  0  0  0  0
    9.0795   35.7020   27.0520 C   0  0  0  0  0  0  0  0  0  0  0  0
    9.6557   33.1686   27.2533 C   0  0  0  0  0  0  0  0  0  0  0  0
    8.8857   36.6345   28.0357 C   0  0  0  0  0  0  0  0  0  0  0  0
    9.9533   32.4308   29.5415 C   0  0  0  0  0  0  0  0  0  0  0  0
    9.8955   32.1698   28.1800 C   0  0  0  0  0  0  0  0  0  0  0  0
   10.0747   30.5285   27.6215 Cl  0  0  0  0  0  0  0  0  0  0  0  0
    9.0754   36.5142   30.1347 H   0  0  0  0  0  0  0  0  0  0  0  0
    8.5046   38.0639   27.9971 C   0  0  0  0  0  0  0  0  0  0  0  0
    8.7493   38.7280   29.1003 O   0  0  0  0  0  0  0  0  0  0  0  0
    8.0521   38.5795   26.9735 O   0  0  0  0  0  0  0  0  0  0  0  0
    9.0939   38.2821   29.8489 H   0  0  0  0  0  0  0  0  0  0  0  0
 13 12  1  0  0  0
  5  2  1  0  0  0
  5  7  2  0  0  0
  6  2  2  0  0  0
  6  9  1  0  0  0
  2  1  1  0  0  0
 12  7  1  0  0  0
 12 14  2  0  0  0
 10  9  1  0  0  0
  7  3  1  0  0  0
  9  8  2  0  0  0
  1  3  1  0  0  0
  1  4  2  0  0  0
  8  4  1  0  0  0
  3 11  1  0  0  0
 13 15  1  0  0  0
M  END
> <minimizedAffinity>
-6.14731

$$$$
4X8U_3ZB_H_301


 15 16  0  0  0  0  0  0  0  0999 V2000
    8.2024   37.6652   27.0077 C   0  0  0  0  0  0  0  0  0  0  0  0
    8.6803   37.5480   28.3256 C   0  0  0  0  0  0  0  0  0  0  0  0
    8.4561   36.4747   26.3561 N   0  0  0  0  0  0  0  0  0  0  0  0
    7.5521   38.8134   26.5672 C   0  0  0  0  0  0  0  0  0  0  0  0
    9.2517   36.2364   28.4385 C   0  0  0  0  0  0  0  0  0  0  0  0
    8.4666   38.5978   29.2114 C   0  0  0  0  0  0  0  0  0  0  0  0
    9.0798   35.6099   27.2331 C   0  0  0  0  0  0  0  0  0  0  0  0
    7.3368   39.8505   27.4726 C   0  0  0  0  0  0  0  0  0  0  0  0
    7.7862   39.7222   28.7790 C   0  0  0  0  0  0  0  0  0  0  0  0
    7.4371   40.9878   29.9254 Cl  0  0  0  0  0  0  0  0  0  0  0  0
    8.2293   36.2751   25.4191 H   0  0  0  0  0  0  0  0  0  0  0  0
    9.4459   34.2612   26.7462 C   0  0  0  0  0  0  0  0  0  0  0  0
    9.5820   34.1644   25.4463 O   0  0  0  0  0  0  0  0  0  0  0  0
    9.6615   33.3337   27.5283 O   0  0  0  0  0  0  0  0  0  0  0  0
    9.4035   34.9045   24.9001 H   0  0  0  0  0  0  0  0  0  0  0  0
 13 12  1  0  0  0
  5  2  1  0  0  0
  5  7  2  0  0  0
  6  2  2  0  0  0
  6  9  1  0  0  0
  2  1  1  0  0  0
 12  7  1  0  0  0
 12 14  2  0  0  0
 10  9  1  0  0  0
  7  3  1  0  0  0
  9  8  2  0  0  0
  1  3  1  0  0  0
  1  4  2  0  0  0
  8  4  1  0  0  0
  3 11  1  0  0  0
 13 15  1  0  0  0
M  END
> <minimizedAffinity>
-5.45241

$$$$
4X8U_3ZB_H_301


 15 16  0  0  0  0  0  0  0  0999 V2000
    8.5849   35.4008   26.1749 C   0  0  0  0  0  0  0  0  0  0  0  0
    8.0776   36.0531   27.3133 C   0  0  0  0  0  0  0  0  0  0  0  0
    8.0047   35.9757   25.0617 N   0  0  0  0  0  0  0  0  0  0  0  0
    9.5456   34.3998   26.2755 C   0  0  0  0  0  0  0  0  0  0  0  0
    7.1489   37.0395   26.8399 C   0  0  0  0  0  0  0  0  0  0  0  0
    8.5759   35.7037   28.5631 C   0  0  0  0  0  0  0  0  0  0  0  0
    7.1464   36.9761   25.4721 C   0  0  0  0  0  0  0  0  0  0  0  0
   10.0416   34.0713   27.5356 C   0  0  0  0  0  0  0  0  0  0  0  0
    9.5583   34.7340   28.6548 C   0  0  0  0  0  0  0  0  0  0  0  0
   10.2456   34.3765   30.2161 Cl  0  0  0  0  0  0  0  0  0  0  0  0
    8.1752   35.7148   24.1278 H   0  0  0  0  0  0  0  0  0  0  0  0
    6.4108   37.7366   24.4374 C   0  0  0  0  0  0  0  0  0  0  0  0
    5.4750   37.0590   23.8185 O   0  0  0  0  0  0  0  0  0  0  0  0
    6.6378   38.9309   24.2366 O   0  0  0  0  0  0  0  0  0  0  0  0
    5.3479   36.1511   24.0125 H   0  0  0  0  0  0  0  0  0  0  0  0
 13 12  1  0  0  0
  5  2  1  0  0  0
  5  7  2  0  0  0
  6  2  2  0  0  0
  6  9  1  0  0  0
  2  1  1  0  0  0
 12  7  1  0  0  0
 12 14  2  0  0  0
 10  9  1  0  0  0
  7  3  1  0  0  0
  9  8  2  0  0  0
  1  3  1  0  0  0
  1  4  2  0  0  0
  8  4  1  0  0  0
  3 11  1  0  0  0
 13 15  1  0  0  0
M  END
> <minimizedAffinity>
-5.41397

$$$$
4X8U_3ZB_H_301


 15 16  0  0  0  0  0  0  0  0999 V2000
    7.0205   36.6556   25.7146 C   0  0  0  0  0  0  0  0  0  0  0  0
    7.1868   36.9346   27.0833 C   0  0  0  0  0  0  0  0  0  0  0  0
    7.9603   35.7097   25.3563 N   0  0  0  0  0  0  0  0  0  0  0  0
    6.0104   37.2515   24.9663 C   0  0  0  0  0  0  0  0  0  0  0  0
    8.2831   36.1263   27.5354 C   0  0  0  0  0  0  0  0  0  0  0  0
    6.2970   37.8049   27.7023 C   0  0  0  0  0  0  0  0  0  0  0  0
    8.7123   35.3845   26.4675 C   0  0  0  0  0  0  0  0  0  0  0  0
    5.1210   38.1121   25.6067 C   0  0  0  0  0  0  0  0  0  0  0  0
    5.2713   38.3658   26.9625 C   0  0  0  0  0  0  0  0  0  0  0  0
    4.1038   39.3756   27.7720 Cl  0  0  0  0  0  0  0  0  0  0  0  0
    8.0753   35.3293   24.4556 H   0  0  0  0  0  0  0  0  0  0  0  0
    9.7873   34.3788   26.3164 C   0  0  0  0  0  0  0  0  0  0  0  0
   10.7102   34.6882   25.4388 O   0  0  0  0  0  0  0  0  0  0  0  0
    9.8219   33.3667   27.0185 O   0  0  0  0  0  0  0  0  0  0  0  0
   10.6308   35.4724   24.9321 H   0  0  0  0  0  0  0  0  0  0  0  0
 13 12  1  0  0  0
  5  2  1  0  0  0
  5  7  2  0  0  0
  6  2  2  0  0  0
  6  9  1  0  0  0
  2  1  1  0  0  0
 12  7  1  0  0  0
 12 14  2  0  0  0
 10  9  1  0  0  0
  7  3  1  0  0  0
  9  8  2  0  0  0
  1  3  1  0  0  0
  1  4  2  0  0  0
  8  4  1  0  0  0
  3 11  1  0  0  0
 13 15  1  0  0  0
M  END
> <minimizedAffinity>
-5.33212

$$$$
4X8U_3ZB_H_301


 15 16  0  0  0  0  0  0  0  0999 V2000
    8.8753   35.7362   26.9369 C   0  0  0  0  0  0  0  0  0  0  0  0
    8.7473   35.8858   28.3298 C   0  0  0  0  0  0  0  0  0  0  0  0
    8.4856   36.9208   26.3445 N   0  0  0  0  0  0  0  0  0  0  0  0
    9.3740   34.5668   26.3719 C   0  0  0  0  0  0  0  0  0  0  0  0
    8.2450   37.2112   28.5545 C   0  0  0  0  0  0  0  0  0  0  0  0
    9.1597   34.8465   29.1557 C   0  0  0  0  0  0  0  0  0  0  0  0
    8.1180   37.8136   27.3314 C   0  0  0  0  0  0  0  0  0  0  0  0
    9.7932   33.5406   27.2161 C   0  0  0  0  0  0  0  0  0  0  0  0
    9.6900   33.7005   28.5905 C   0  0  0  0  0  0  0  0  0  0  0  0
   10.2955   32.4469   29.6392 Cl  0  0  0  0  0  0  0  0  0  0  0  0
    8.4721   37.0997   25.3765 H   0  0  0  0  0  0  0  0  0  0  0  0
    7.6638   39.1615   26.9232 C   0  0  0  0  0  0  0  0  0  0  0  0
    8.0177   40.1294   27.7330 O   0  0  0  0  0  0  0  0  0  0  0  0
    7.0552   39.3407   25.8669 O   0  0  0  0  0  0  0  0  0  0  0  0
    8.4799   39.9330   28.5241 H   0  0  0  0  0  0  0  0  0  0  0  0
 13 12  1  0  0  0
  5  2  1  0  0  0
  5  7  2  0  0  0
  6  2  2  0  0  0
  6  9  1  0  0  0
  2  1  1  0  0  0
 12  7  1  0  0  0
 12 14  2  0  0  0
 10  9  1  0  0  0
  7  3  1  0  0  0
  9  8  2  0  0  0
  1  3  1  0  0  0
  1  4  2  0  0  0
  8  4  1  0  0  0
  3 11  1  0  0  0
 13 15  1  0  0  0
M  END
> <minimizedAffinity>
-5.25327

$$$$
4X8U_3ZB_H_301


 15 16  0  0  0  0  0  0  0  0999 V2000
    6.5912   36.6599   27.3452 C   0  0  0  0  0  0  0  0  0  0  0  0
    7.1615   36.2651   26.1213 C   0  0  0  0  0  0  0  0  0  0  0  0
    7.4806   36.3398   28.3515 N   0  0  0  0  0  0  0  0  0  0  0  0
    5.3598   37.3046   27.4016 C   0  0  0  0  0  0  0  0  0  0  0  0
    8.4317   35.6746   26.4334 C   0  0  0  0  0  0  0  0  0  0  0  0
    6.4856   36.5574   24.9423 C   0  0  0  0  0  0  0  0  0  0  0  0
    8.5985   35.7556   27.7901 C   0  0  0  0  0  0  0  0  0  0  0  0
    4.7026   37.5995   26.2088 C   0  0  0  0  0  0  0  0  0  0  0  0
    5.2793   37.2322   25.0014 C   0  0  0  0  0  0  0  0  0  0  0  0
    4.4916   37.6808   23.5127 Cl  0  0  0  0  0  0  0  0  0  0  0  0
    7.3406   36.5018   29.3125 H   0  0  0  0  0  0  0  0  0  0  0  0
    9.6939   35.3307   28.6898 C   0  0  0  0  0  0  0  0  0  0  0  0
   10.2199   36.2927   29.4078 O   0  0  0  0  0  0  0  0  0  0  0  0
   10.0242   34.1473   28.7835 O   0  0  0  0  0  0  0  0  0  0  0  0
    9.9287   37.1759   29.2931 H   0  0  0  0  0  0  0  0  0  0  0  0
 13 12  1  0  0  0
  5  2  1  0  0  0
  5  7  2  0  0  0
  6  2  2  0  0  0
  6  9  1  0  0  0
  2  1  1  0  0  0
 12  7  1  0  0  0
 12 14  2  0  0  0
 10  9  1  0  0  0
  7  3  1  0  0  0
  9  8  2  0  0  0
  1  3  1  0  0  0
  1  4  2  0  0  0
  8  4  1  0  0  0
  3 11  1  0  0  0
 13 15  1  0  0  0
M  END
> <minimizedAffinity>
-5.25222

$$$$
