2WNC_TKT_A_300


 22 25  0  0  0  0  0  0  0  0999 V2000
  -72.7979  -50.9813  -74.2167 O   0  0  0  0  0  0  0  0  0  0  0  0
  -72.3044  -50.5760  -73.1706 C   0  0  0  0  0  0  0  0  0  0  0  0
  -71.8410  -51.3837  -72.0043 C   0  0  0  0  0  0  0  0  0  0  0  0
  -72.5223  -52.3217  -71.2620 C   0  0  0  0  0  0  0  0  0  0  0  0
  -68.1567  -51.6131  -69.8699 C   0  0  0  0  0  0  0  0  0  0  0  0
  -70.4554  -52.2396  -70.3367 C   0  0  0  0  0  0  0  0  0  0  0  0
  -70.4612  -51.2717  -71.4408 C   0  0  0  0  0  0  0  0  0  0  0  0
  -69.3469  -50.5121  -71.7199 C   0  0  0  0  0  0  0  0  0  0  0  0
  -68.1885  -50.7021  -70.9336 C   0  0  0  0  0  0  0  0  0  0  0  0
  -71.6854  -52.8183  -70.2953 N   0  0  0  0  0  0  0  0  0  0  0  0
  -69.2971  -52.3789  -69.5690 C   0  0  0  0  0  0  0  0  0  0  0  0
  -71.9448  -53.5125  -69.6472 H   0  0  0  0  0  0  0  0  0  0  0  0
  -72.1308  -49.1616  -72.9239 O   0  0  0  0  0  0  0  0  0  0  0  0
  -70.4142  -44.5422  -73.9275 C   0  0  0  0  0  0  0  0  0  0  0  0
  -69.7433  -47.5701  -72.7298 C   0  0  0  0  0  0  0  0  0  0  0  0
  -70.7833  -46.9738  -71.7460 C   0  0  0  0  0  0  0  0  0  0  0  0
  -70.8503  -45.8778  -73.6494 N   0  0  0  0  0  0  0  0  0  0  0  0
  -71.8021  -46.1641  -72.5953 C   0  0  0  0  0  0  0  0  0  0  0  0
  -72.9469  -47.0015  -73.1707 C   0  0  0  0  0  0  0  0  0  0  0  0
  -70.1691  -47.0820  -74.1336 C   0  0  0  0  0  0  0  0  0  0  0  0
  -71.1745  -48.0205  -74.7925 C   0  0  0  0  0  0  0  0  0  0  0  0
  -72.4403  -48.2372  -73.9354 C   0  0  0  0  0  0  0  0  0  0  0  0
  3  2  1  0  0  0
  3  4  2  0  0  0
  3  7  1  0  0  0
  1  2  2  0  0  0
 14 17  1  0  0  0
  2 13  1  0  0  0
  4 10  1  0  0  0
 13 22  1  0  0  0
 15 16  1  0  0  0
 15 20  1  0  0  0
 16 18  1  0  0  0
 17 18  1  0  0  0
 17 20  1  0  0  0
 18 19  1  0  0  0
 19 22  1  0  0  0
 20 21  1  0  0  0
 21 22  1  0  0  0
  5  9  2  0  0  0
  5 11  1  0  0  0
  6  7  1  0  0  0
  6 10  1  0  0  0
  6 11  2  0  0  0
  7  8  2  0  0  0
  8  9  1  0  0  0
 10 12  1  0  0  0
M  END
> <minimizedAffinity>
-8.44977

$$$$
2WNC_TKT_A_300


 22 25  0  0  0  0  0  0  0  0999 V2000
  -72.6672  -51.4689  -72.3182 O   0  0  0  0  0  0  0  0  0  0  0  0
  -72.5040  -50.7769  -73.3164 C   0  0  0  0  0  0  0  0  0  0  0  0
  -72.9516  -51.0626  -74.7112 C   0  0  0  0  0  0  0  0  0  0  0  0
  -72.9581  -52.2529  -75.4028 C   0  0  0  0  0  0  0  0  0  0  0  0
  -74.5678  -48.6449  -77.8297 C   0  0  0  0  0  0  0  0  0  0  0  0
  -73.8089  -50.7345  -76.8538 C   0  0  0  0  0  0  0  0  0  0  0  0
  -73.4975  -50.0067  -75.6172 C   0  0  0  0  0  0  0  0  0  0  0  0
  -73.7153  -48.6502  -75.5222 C   0  0  0  0  0  0  0  0  0  0  0  0
  -74.2677  -47.9775  -76.6351 C   0  0  0  0  0  0  0  0  0  0  0  0
  -73.4754  -52.0378  -76.6548 N   0  0  0  0  0  0  0  0  0  0  0  0
  -74.3312  -50.0269  -77.9386 C   0  0  0  0  0  0  0  0  0  0  0  0
  -73.5917  -52.7444  -77.3304 H   0  0  0  0  0  0  0  0  0  0  0  0
  -71.7801  -49.5266  -73.2499 O   0  0  0  0  0  0  0  0  0  0  0  0
  -69.8078  -45.0736  -71.9953 C   0  0  0  0  0  0  0  0  0  0  0  0
  -71.4077  -46.8711  -74.2893 C   0  0  0  0  0  0  0  0  0  0  0  0
  -70.0076  -47.5279  -74.1735 C   0  0  0  0  0  0  0  0  0  0  0  0
  -70.4072  -46.3145  -72.3856 N   0  0  0  0  0  0  0  0  0  0  0  0
  -69.6087  -47.4890  -72.6721 C   0  0  0  0  0  0  0  0  0  0  0  0
  -70.1394  -48.6658  -71.8498 C   0  0  0  0  0  0  0  0  0  0  0  0
  -71.7903  -46.4479  -72.8524 C   0  0  0  0  0  0  0  0  0  0  0  0
  -72.4932  -47.5646  -72.0878 C   0  0  0  0  0  0  0  0  0  0  0  0
  -71.6565  -48.8604  -72.0193 C   0  0  0  0  0  0  0  0  0  0  0  0
  3  2  1  0  0  0
  3  4  2  0  0  0
  3  7  1  0  0  0
  1  2  2  0  0  0
 14 17  1  0  0  0
  2 13  1  0  0  0
  4 10  1  0  0  0
 13 22  1  0  0  0
 15 16  1  0  0  0
 15 20  1  0  0  0
 16 18  1  0  0  0
 17 18  1  0  0  0
 17 20  1  0  0  0
 18 19  1  0  0  0
 19 22  1  0  0  0
 20 21  1  0  0  0
 21 22  1  0  0  0
  5  9  2  0  0  0
  5 11  1  0  0  0
  6  7  1  0  0  0
  6 10  1  0  0  0
  6 11  2  0  0  0
  7  8  2  0  0  0
  8  9  1  0  0  0
 10 12  1  0  0  0
M  END
> <minimizedAffinity>
-8.11868

$$$$
2WNC_TKT_A_300


 22 25  0  0  0  0  0  0  0  0999 V2000
  -73.1681  -50.6385  -75.1730 O   0  0  0  0  0  0  0  0  0  0  0  0
  -72.7185  -50.5823  -74.0342 C   0  0  0  0  0  0  0  0  0  0  0  0
  -72.4966  -51.7094  -73.0813 C   0  0  0  0  0  0  0  0  0  0  0  0
  -72.0067  -51.6858  -71.7950 C   0  0  0  0  0  0  0  0  0  0  0  0
  -73.0963  -55.9239  -73.3278 C   0  0  0  0  0  0  0  0  0  0  0  0
  -72.4443  -53.8703  -72.2088 C   0  0  0  0  0  0  0  0  0  0  0  0
  -72.8022  -53.1312  -73.4261 C   0  0  0  0  0  0  0  0  0  0  0  0
  -73.2779  -53.7899  -74.5380 C   0  0  0  0  0  0  0  0  0  0  0  0
  -73.4362  -55.1924  -74.4732 C   0  0  0  0  0  0  0  0  0  0  0  0
  -71.9950  -52.9646  -71.2993 N   0  0  0  0  0  0  0  0  0  0  0  0
  -72.5935  -55.2588  -72.1954 C   0  0  0  0  0  0  0  0  0  0  0  0
  -71.6963  -53.1994  -70.3911 H   0  0  0  0  0  0  0  0  0  0  0  0
  -72.3530  -49.3175  -73.4356 O   0  0  0  0  0  0  0  0  0  0  0  0
  -70.1931  -44.7776  -73.3041 C   0  0  0  0  0  0  0  0  0  0  0  0
  -69.7912  -48.0682  -73.0524 C   0  0  0  0  0  0  0  0  0  0  0  0
  -70.6842  -47.6823  -71.8448 C   0  0  0  0  0  0  0  0  0  0  0  0
  -70.7588  -46.0923  -73.3597 N   0  0  0  0  0  0  0  0  0  0  0  0
  -71.6607  -46.5771  -72.3347 C   0  0  0  0  0  0  0  0  0  0  0  0
  -72.9314  -47.1109  -73.0002 C   0  0  0  0  0  0  0  0  0  0  0  0
  -70.2558  -47.1673  -74.2199 C   0  0  0  0  0  0  0  0  0  0  0  0
  -71.4060  -47.7868  -75.0067 C   0  0  0  0  0  0  0  0  0  0  0  0
  -72.6249  -48.1212  -74.1199 C   0  0  0  0  0  0  0  0  0  0  0  0
  3  2  1  0  0  0
  3  4  2  0  0  0
  3  7  1  0  0  0
  1  2  2  0  0  0
 14 17  1  0  0  0
  2 13  1  0  0  0
  4 10  1  0  0  0
 13 22  1  0  0  0
 15 16  1  0  0  0
 15 20  1  0  0  0
 16 18  1  0  0  0
 17 18  1  0  0  0
 17 20  1  0  0  0
 18 19  1  0  0  0
 19 22  1  0  0  0
 20 21  1  0  0  0
 21 22  1  0  0  0
  5  9  2  0  0  0
  5 11  1  0  0  0
  6  7  1  0  0  0
  6 10  1  0  0  0
  6 11  2  0  0  0
  7  8  2  0  0  0
  8  9  1  0  0  0
 10 12  1  0  0  0
M  END
> <minimizedAffinity>
-7.85709

$$$$
2WNC_TKT_A_300


 22 25  0  0  0  0  0  0  0  0999 V2000
  -72.2208  -51.0720  -71.1998 O   0  0  0  0  0  0  0  0  0  0  0  0
  -72.2075  -50.8801  -72.4103 C   0  0  0  0  0  0  0  0  0  0  0  0
  -72.6490  -51.8119  -73.4893 C   0  0  0  0  0  0  0  0  0  0  0  0
  -72.9853  -51.5421  -74.7967 C   0  0  0  0  0  0  0  0  0  0  0  0
  -73.3043  -56.0224  -73.6463 C   0  0  0  0  0  0  0  0  0  0  0  0
  -73.2317  -53.7847  -74.5856 C   0  0  0  0  0  0  0  0  0  0  0  0
  -72.7968  -53.2838  -73.2757 C   0  0  0  0  0  0  0  0  0  0  0  0
  -72.6385  -54.1404  -72.2091 C   0  0  0  0  0  0  0  0  0  0  0  0
  -72.8818  -55.5176  -72.4098 C   0  0  0  0  0  0  0  0  0  0  0  0
  -73.3138  -52.7169  -75.4237 N   0  0  0  0  0  0  0  0  0  0  0  0
  -73.4846  -55.1501  -74.7346 C   0  0  0  0  0  0  0  0  0  0  0  0
  -73.5781  -52.7798  -76.3699 H   0  0  0  0  0  0  0  0  0  0  0  0
  -71.6972  -49.6466  -72.9668 O   0  0  0  0  0  0  0  0  0  0  0  0
  -70.7882  -44.7123  -73.3121 C   0  0  0  0  0  0  0  0  0  0  0  0
  -69.7601  -47.7956  -74.0116 C   0  0  0  0  0  0  0  0  0  0  0  0
  -69.7101  -47.7002  -72.4646 C   0  0  0  0  0  0  0  0  0  0  0  0
  -71.0183  -46.1252  -73.2623 N   0  0  0  0  0  0  0  0  0  0  0  0
  -70.9430  -46.8656  -72.0193 C   0  0  0  0  0  0  0  0  0  0  0  0
  -72.2260  -47.6822  -71.8466 C   0  0  0  0  0  0  0  0  0  0  0  0
  -71.0150  -46.9999  -74.4385 C   0  0  0  0  0  0  0  0  0  0  0  0
  -72.2720  -47.8635  -74.4495 C   0  0  0  0  0  0  0  0  0  0  0  0
  -72.5476  -48.5349  -73.0867 C   0  0  0  0  0  0  0  0  0  0  0  0
  3  2  1  0  0  0
  3  4  2  0  0  0
  3  7  1  0  0  0
  1  2  2  0  0  0
 14 17  1  0  0  0
  2 13  1  0  0  0
  4 10  1  0  0  0
 13 22  1  0  0  0
 15 16  1  0  0  0
 15 20  1  0  0  0
 16 18  1  0  0  0
 17 18  1  0  0  0
 17 20  1  0  0  0
 18 19  1  0  0  0
 19 22  1  0  0  0
 20 21  1  0  0  0
 21 22  1  0  0  0
  5  9  2  0  0  0
  5 11  1  0  0  0
  6  7  1  0  0  0
  6 10  1  0  0  0
  6 11  2  0  0  0
  7  8  2  0  0  0
  8  9  1  0  0  0
 10 12  1  0  0  0
M  END
> <minimizedAffinity>
-7.42095

$$$$
2WNC_TKT_A_300


 22 25  0  0  0  0  0  0  0  0999 V2000
  -72.9699  -51.3032  -73.7174 O   0  0  0  0  0  0  0  0  0  0  0  0
  -72.6980  -50.1778  -74.1195 C   0  0  0  0  0  0  0  0  0  0  0  0
  -73.3481  -49.4208  -75.2293 C   0  0  0  0  0  0  0  0  0  0  0  0
  -73.9333  -48.1748  -75.2149 C   0  0  0  0  0  0  0  0  0  0  0  0
  -74.0449  -50.2706  -79.3493 C   0  0  0  0  0  0  0  0  0  0  0  0
  -74.1458  -48.8906  -77.3543 C   0  0  0  0  0  0  0  0  0  0  0  0
  -73.4592  -49.9599  -76.6189 C   0  0  0  0  0  0  0  0  0  0  0  0
  -73.0991  -51.1309  -77.2478 C   0  0  0  0  0  0  0  0  0  0  0  0
  -73.3847  -51.2711  -78.6244 C   0  0  0  0  0  0  0  0  0  0  0  0
  -74.3851  -47.8803  -76.4760 N   0  0  0  0  0  0  0  0  0  0  0  0
  -74.4307  -49.0798  -78.7084 C   0  0  0  0  0  0  0  0  0  0  0  0
  -74.8306  -47.0361  -76.7172 H   0  0  0  0  0  0  0  0  0  0  0  0
  -71.6166  -49.4155  -73.5354 O   0  0  0  0  0  0  0  0  0  0  0  0
  -69.7537  -45.7700  -70.6144 C   0  0  0  0  0  0  0  0  0  0  0  0
  -71.2419  -46.5647  -73.4791 C   0  0  0  0  0  0  0  0  0  0  0  0
  -69.8383  -47.2186  -73.5644 C   0  0  0  0  0  0  0  0  0  0  0  0
  -70.3210  -46.7704  -71.4680 N   0  0  0  0  0  0  0  0  0  0  0  0
  -69.4963  -47.7506  -72.1449 C   0  0  0  0  0  0  0  0  0  0  0  0
  -70.0413  -49.1502  -71.8498 C   0  0  0  0  0  0  0  0  0  0  0  0
  -71.6837  -46.7154  -72.0052 C   0  0  0  0  0  0  0  0  0  0  0  0
  -72.3995  -48.0373  -71.7477 C   0  0  0  0  0  0  0  0  0  0  0  0
  -71.5482  -49.2641  -72.1405 C   0  0  0  0  0  0  0  0  0  0  0  0
  3  2  1  0  0  0
  3  4  2  0  0  0
  3  7  1  0  0  0
  1  2  2  0  0  0
 14 17  1  0  0  0
  2 13  1  0  0  0
  4 10  1  0  0  0
 13 22  1  0  0  0
 15 16  1  0  0  0
 15 20  1  0  0  0
 16 18  1  0  0  0
 17 18  1  0  0  0
 17 20  1  0  0  0
 18 19  1  0  0  0
 19 22  1  0  0  0
 20 21  1  0  0  0
 21 22  1  0  0  0
  5  9  2  0  0  0
  5 11  1  0  0  0
  6  7  1  0  0  0
  6 10  1  0  0  0
  6 11  2  0  0  0
  7  8  2  0  0  0
  8  9  1  0  0  0
 10 12  1  0  0  0
M  END
> <minimizedAffinity>
-7.41898

$$$$
2WNC_TKT_A_300


 22 25  0  0  0  0  0  0  0  0999 V2000
  -73.0011  -51.6356  -72.2868 O   0  0  0  0  0  0  0  0  0  0  0  0
  -71.8756  -51.2504  -71.9919 C   0  0  0  0  0  0  0  0  0  0  0  0
  -70.7980  -52.0171  -71.3003 C   0  0  0  0  0  0  0  0  0  0  0  0
  -69.6998  -51.5563  -70.6097 C   0  0  0  0  0  0  0  0  0  0  0  0
  -70.0270  -56.1783  -70.7785 C   0  0  0  0  0  0  0  0  0  0  0  0
  -69.5595  -53.8143  -70.4821 C   0  0  0  0  0  0  0  0  0  0  0  0
  -70.7654  -53.5109  -71.2628 C   0  0  0  0  0  0  0  0  0  0  0  0
  -71.5475  -54.5217  -71.7758 C   0  0  0  0  0  0  0  0  0  0  0  0
  -71.1758  -55.8594  -71.5140 C   0  0  0  0  0  0  0  0  0  0  0  0
  -68.9932  -52.6293  -70.1295 N   0  0  0  0  0  0  0  0  0  0  0  0
  -69.2148  -55.1505  -70.2669 C   0  0  0  0  0  0  0  0  0  0  0  0
  -68.1720  -52.5508  -69.5922 H   0  0  0  0  0  0  0  0  0  0  0  0
  -71.4480  -49.8991  -72.2795 O   0  0  0  0  0  0  0  0  0  0  0  0
  -71.0403  -45.0347  -73.4897 C   0  0  0  0  0  0  0  0  0  0  0  0
  -69.5776  -48.0186  -73.3914 C   0  0  0  0  0  0  0  0  0  0  0  0
  -69.7989  -47.6341  -71.9054 C   0  0  0  0  0  0  0  0  0  0  0  0
  -71.1192  -46.4323  -73.1864 N   0  0  0  0  0  0  0  0  0  0  0  0
  -71.1730  -46.9133  -71.8209 C   0  0  0  0  0  0  0  0  0  0  0  0
  -72.3694  -47.8561  -71.6709 C   0  0  0  0  0  0  0  0  0  0  0  0
  -70.8226  -47.4993  -74.1467 C   0  0  0  0  0  0  0  0  0  0  0  0
  -71.9575  -48.5180  -74.1613 C   0  0  0  0  0  0  0  0  0  0  0  0
  -72.3828  -48.9590  -72.7441 C   0  0  0  0  0  0  0  0  0  0  0  0
  3  2  1  0  0  0
  3  4  2  0  0  0
  3  7  1  0  0  0
  1  2  2  0  0  0
 14 17  1  0  0  0
  2 13  1  0  0  0
  4 10  1  0  0  0
 13 22  1  0  0  0
 15 16  1  0  0  0
 15 20  1  0  0  0
 16 18  1  0  0  0
 17 18  1  0  0  0
 17 20  1  0  0  0
 18 19  1  0  0  0
 19 22  1  0  0  0
 20 21  1  0  0  0
 21 22  1  0  0  0
  5  9  2  0  0  0
  5 11  1  0  0  0
  6  7  1  0  0  0
  6 10  1  0  0  0
  6 11  2  0  0  0
  7  8  2  0  0  0
  8  9  1  0  0  0
 10 12  1  0  0  0
M  END
> <minimizedAffinity>
-7.28440

$$$$
2WNC_TKT_A_300


 22 25  0  0  0  0  0  0  0  0999 V2000
  -69.0367  -50.5606  -70.7177 O   0  0  0  0  0  0  0  0  0  0  0  0
  -70.0671  -50.5082  -71.3793 C   0  0  0  0  0  0  0  0  0  0  0  0
  -71.0338  -51.6111  -71.6561 C   0  0  0  0  0  0  0  0  0  0  0  0
  -72.3314  -51.5452  -72.1113 C   0  0  0  0  0  0  0  0  0  0  0  0
  -70.8138  -55.8575  -71.3372 C   0  0  0  0  0  0  0  0  0  0  0  0
  -71.9171  -53.7586  -71.8590 C   0  0  0  0  0  0  0  0  0  0  0  0
  -70.6930  -53.0529  -71.4594 C   0  0  0  0  0  0  0  0  0  0  0  0
  -69.5913  -53.7478  -71.0124 C   0  0  0  0  0  0  0  0  0  0  0  0
  -69.6570  -55.1584  -70.9688 C   0  0  0  0  0  0  0  0  0  0  0  0
  -72.8260  -52.8187  -72.2327 N   0  0  0  0  0  0  0  0  0  0  0  0
  -71.9480  -55.1525  -71.7778 C   0  0  0  0  0  0  0  0  0  0  0  0
  -73.7331  -53.0279  -72.5530 H   0  0  0  0  0  0  0  0  0  0  0  0
  -70.4731  -49.2854  -72.0363 O   0  0  0  0  0  0  0  0  0  0  0  0
  -70.8358  -44.5364  -73.6510 C   0  0  0  0  0  0  0  0  0  0  0  0
  -72.1349  -46.9531  -71.7736 C   0  0  0  0  0  0  0  0  0  0  0  0
  -72.2732  -47.4631  -73.2316 C   0  0  0  0  0  0  0  0  0  0  0  0
  -70.7588  -45.8733  -73.1430 N   0  0  0  0  0  0  0  0  0  0  0  0
  -70.9904  -47.0247  -73.9914 C   0  0  0  0  0  0  0  0  0  0  0  0
  -69.8138  -47.9934  -73.8498 C   0  0  0  0  0  0  0  0  0  0  0  0
  -70.7788  -46.2128  -71.7172 C   0  0  0  0  0  0  0  0  0  0  0  0
  -69.6212  -47.1495  -71.3880 C   0  0  0  0  0  0  0  0  0  0  0  0
  -69.5049  -48.3272  -72.3797 C   0  0  0  0  0  0  0  0  0  0  0  0
  3  2  1  0  0  0
  3  4  2  0  0  0
  3  7  1  0  0  0
  1  2  2  0  0  0
 14 17  1  0  0  0
  2 13  1  0  0  0
  4 10  1  0  0  0
 13 22  1  0  0  0
 15 16  1  0  0  0
 15 20  1  0  0  0
 16 18  1  0  0  0
 17 18  1  0  0  0
 17 20  1  0  0  0
 18 19  1  0  0  0
 19 22  1  0  0  0
 20 21  1  0  0  0
 21 22  1  0  0  0
  5  9  2  0  0  0
  5 11  1  0  0  0
  6  7  1  0  0  0
  6 10  1  0  0  0
  6 11  2  0  0  0
  7  8  2  0  0  0
  8  9  1  0  0  0
 10 12  1  0  0  0
M  END
> <minimizedAffinity>
-7.17680

$$$$
2WNC_TKT_A_300


 22 25  0  0  0  0  0  0  0  0999 V2000
  -74.6301  -47.1362  -73.9740 O   0  0  0  0  0  0  0  0  0  0  0  0
  -73.8044  -48.0299  -73.8272 C   0  0  0  0  0  0  0  0  0  0  0  0
  -72.5777  -48.0118  -72.9772 C   0  0  0  0  0  0  0  0  0  0  0  0
  -72.0272  -49.0148  -72.2117 C   0  0  0  0  0  0  0  0  0  0  0  0
  -69.6772  -45.0203  -72.0714 C   0  0  0  0  0  0  0  0  0  0  0  0
  -70.6418  -47.2439  -71.9303 C   0  0  0  0  0  0  0  0  0  0  0  0
  -71.7127  -46.8016  -72.8322 C   0  0  0  0  0  0  0  0  0  0  0  0
  -71.7435  -45.5112  -73.3125 C   0  0  0  0  0  0  0  0  0  0  0  0
  -70.7073  -44.6278  -72.9359 C   0  0  0  0  0  0  0  0  0  0  0  0
  -70.8856  -48.5440  -71.6148 N   0  0  0  0  0  0  0  0  0  0  0  0
  -69.6499  -46.3315  -71.5639 C   0  0  0  0  0  0  0  0  0  0  0  0
  -70.3098  -49.0842  -71.0266 H   0  0  0  0  0  0  0  0  0  0  0  0
  -73.9243  -49.2837  -74.5381 O   0  0  0  0  0  0  0  0  0  0  0  0
  -74.0777  -51.0102  -79.2591 C   0  0  0  0  0  0  0  0  0  0  0  0
  -75.4568  -49.0445  -76.9598 C   0  0  0  0  0  0  0  0  0  0  0  0
  -75.6545  -50.4857  -76.4225 C   0  0  0  0  0  0  0  0  0  0  0  0
  -74.0584  -50.4702  -77.9326 N   0  0  0  0  0  0  0  0  0  0  0  0
  -74.3686  -51.2839  -76.7747 C   0  0  0  0  0  0  0  0  0  0  0  0
  -73.2407  -51.1432  -75.7496 C   0  0  0  0  0  0  0  0  0  0  0  0
  -74.0633  -49.0362  -77.6293 C   0  0  0  0  0  0  0  0  0  0  0  0
  -72.9484  -48.7083  -76.6416 C   0  0  0  0  0  0  0  0  0  0  0  0
  -72.9160  -49.6720  -75.4357 C   0  0  0  0  0  0  0  0  0  0  0  0
  3  2  1  0  0  0
  3  4  2  0  0  0
  3  7  1  0  0  0
  1  2  2  0  0  0
 14 17  1  0  0  0
  2 13  1  0  0  0
  4 10  1  0  0  0
 13 22  1  0  0  0
 15 16  1  0  0  0
 15 20  1  0  0  0
 16 18  1  0  0  0
 17 18  1  0  0  0
 17 20  1  0  0  0
 18 19  1  0  0  0
 19 22  1  0  0  0
 20 21  1  0  0  0
 21 22  1  0  0  0
  5  9  2  0  0  0
  5 11  1  0  0  0
  6  7  1  0  0  0
  6 10  1  0  0  0
  6 11  2  0  0  0
  7  8  2  0  0  0
  8  9  1  0  0  0
 10 12  1  0  0  0
M  END
> <minimizedAffinity>
-7.12519

$$$$
2WNC_TKT_A_300


 22 25  0  0  0  0  0  0  0  0999 V2000
  -71.7852  -54.3708  -71.5041 O   0  0  0  0  0  0  0  0  0  0  0  0
  -72.5915  -54.3941  -72.4268 C   0  0  0  0  0  0  0  0  0  0  0  0
  -72.8121  -53.3554  -73.4756 C   0  0  0  0  0  0  0  0  0  0  0  0
  -73.2259  -53.5018  -74.7804 C   0  0  0  0  0  0  0  0  0  0  0  0
  -72.4070  -49.1110  -73.5356 C   0  0  0  0  0  0  0  0  0  0  0  0
  -72.9386  -51.2704  -74.5100 C   0  0  0  0  0  0  0  0  0  0  0  0
  -72.5949  -51.8976  -73.2277 C   0  0  0  0  0  0  0  0  0  0  0  0
  -72.1690  -51.1373  -72.1613 C   0  0  0  0  0  0  0  0  0  0  0  0
  -72.0923  -49.7357  -72.3219 C   0  0  0  0  0  0  0  0  0  0  0  0
  -73.3030  -52.2633  -75.3648 N   0  0  0  0  0  0  0  0  0  0  0  0
  -72.8257  -49.8839  -74.6334 C   0  0  0  0  0  0  0  0  0  0  0  0
  -73.5887  -52.1109  -76.2945 H   0  0  0  0  0  0  0  0  0  0  0  0
  -73.5047  -55.5029  -72.5947 O   0  0  0  0  0  0  0  0  0  0  0  0
  -75.6242  -59.7230  -74.3242 C   0  0  0  0  0  0  0  0  0  0  0  0
  -75.5328  -56.4012  -74.4251 C   0  0  0  0  0  0  0  0  0  0  0  0
  -76.0135  -56.7433  -72.9909 C   0  0  0  0  0  0  0  0  0  0  0  0
  -75.0323  -58.4962  -73.8815 N   0  0  0  0  0  0  0  0  0  0  0  0
  -75.2239  -58.0012  -72.5334 C   0  0  0  0  0  0  0  0  0  0  0  0
  -73.8575  -57.6954  -71.9153 C   0  0  0  0  0  0  0  0  0  0  0  0
  -74.4821  -57.4780  -74.7810 C   0  0  0  0  0  0  0  0  0  0  0  0
  -73.0782  -57.0881  -74.3306 C   0  0  0  0  0  0  0  0  0  0  0  0
  -72.9964  -56.7935  -72.8172 C   0  0  0  0  0  0  0  0  0  0  0  0
  3  2  1  0  0  0
  3  4  2  0  0  0
  3  7  1  0  0  0
  1  2  2  0  0  0
 14 17  1  0  0  0
  2 13  1  0  0  0
  4 10  1  0  0  0
 13 22  1  0  0  0
 15 16  1  0  0  0
 15 20  1  0  0  0
 16 18  1  0  0  0
 17 18  1  0  0  0
 17 20  1  0  0  0
 18 19  1  0  0  0
 19 22  1  0  0  0
 20 21  1  0  0  0
 21 22  1  0  0  0
  5  9  2  0  0  0
  5 11  1  0  0  0
  6  7  1  0  0  0
  6 10  1  0  0  0
  6 11  2  0  0  0
  7  8  2  0  0  0
  8  9  1  0  0  0
 10 12  1  0  0  0
M  END
> <minimizedAffinity>
-6.96370

$$$$
2WNC_TKT_A_300


 22 25  0  0  0  0  0  0  0  0999 V2000
  -73.5777  -47.5194  -72.6482 O   0  0  0  0  0  0  0  0  0  0  0  0
  -72.9995  -48.5415  -72.9992 C   0  0  0  0  0  0  0  0  0  0  0  0
  -71.7513  -49.1285  -72.4290 C   0  0  0  0  0  0  0  0  0  0  0  0
  -70.5172  -48.5485  -72.2402 C   0  0  0  0  0  0  0  0  0  0  0  0
  -70.7527  -52.9790  -70.8934 C   0  0  0  0  0  0  0  0  0  0  0  0
  -70.2856  -50.6680  -71.4727 C   0  0  0  0  0  0  0  0  0  0  0  0
  -71.6691  -50.5410  -71.9476 C   0  0  0  0  0  0  0  0  0  0  0  0
  -72.5354  -51.6102  -71.8930 C   0  0  0  0  0  0  0  0  0  0  0  0
  -72.0692  -52.8272  -71.3475 C   0  0  0  0  0  0  0  0  0  0  0  0
  -69.6758  -49.4682  -71.6677 N   0  0  0  0  0  0  0  0  0  0  0  0
  -69.8584  -51.8960  -70.9627 C   0  0  0  0  0  0  0  0  0  0  0  0
  -68.7398  -49.2815  -71.4263 H   0  0  0  0  0  0  0  0  0  0  0  0
  -73.4864  -49.3339  -74.1067 O   0  0  0  0  0  0  0  0  0  0  0  0
  -74.0847  -49.5965  -79.0932 C   0  0  0  0  0  0  0  0  0  0  0  0
  -74.9221  -48.0760  -76.2578 C   0  0  0  0  0  0  0  0  0  0  0  0
  -75.4693  -49.5197  -76.1125 C   0  0  0  0  0  0  0  0  0  0  0  0
  -73.9260  -49.4660  -77.6758 N   0  0  0  0  0  0  0  0  0  0  0  0
  -74.4235  -50.4707  -76.7582 C   0  0  0  0  0  0  0  0  0  0  0  0
  -73.2916  -50.8918  -75.8179 C   0  0  0  0  0  0  0  0  0  0  0  0
  -73.5731  -48.2138  -77.0005 C   0  0  0  0  0  0  0  0  0  0  0  0
  -72.4075  -48.4471  -76.0451 C   0  0  0  0  0  0  0  0  0  0  0  0
  -72.6102  -49.6863  -75.1466 C   0  0  0  0  0  0  0  0  0  0  0  0
  3  2  1  0  0  0
  3  4  2  0  0  0
  3  7  1  0  0  0
  1  2  2  0  0  0
 14 17  1  0  0  0
  2 13  1  0  0  0
  4 10  1  0  0  0
 13 22  1  0  0  0
 15 16  1  0  0  0
 15 20  1  0  0  0
 16 18  1  0  0  0
 17 18  1  0  0  0
 17 20  1  0  0  0
 18 19  1  0  0  0
 19 22  1  0  0  0
 20 21  1  0  0  0
 21 22  1  0  0  0
  5  9  2  0  0  0
  5 11  1  0  0  0
  6  7  1  0  0  0
  6 10  1  0  0  0
  6 11  2  0  0  0
  7  8  2  0  0  0
  8  9  1  0  0  0
 10 12  1  0  0  0
M  END
> <minimizedAffinity>
-6.77787

$$$$
