1J37_X8Z_A_801


 16 16  0  0  0  0  0  0  0  0999 V2000
   12.2905   -2.9413   17.2901 O   0  0  0  0  0  0  0  0  0  0  0  0
   12.1184   -3.7840   18.2189 C   0  0  0  0  0  0  0  0  0  0  0  0
   12.8472   -3.7029   19.3388 N   0  0  0  0  0  0  0  0  0  0  0  0
   13.8732   -2.6388   19.5553 C   0  0  0  0  0  0  0  0  0  0  0  0
   12.7666   -4.6130   20.5318 C   0  0  0  0  0  0  0  0  0  0  0  0
   13.7293   -4.0808   21.5200 C   0  0  0  0  0  0  0  0  0  0  0  0
   14.4329   -2.8927   20.9276 C   0  0  0  0  0  0  0  0  0  0  0  0
   14.9606   -2.6360   18.4796 C   0  0  0  0  0  0  0  0  0  0  0  0
   15.6620   -3.5913   18.2592 O   0  0  0  0  0  0  0  0  0  0  0  0
   15.0634   -1.5327   17.8060 O   0  0  0  0  0  0  0  0  0  0  0  0
   14.5019   -0.8091   18.0037 H   0  0  0  0  0  0  0  0  0  0  0  0
   11.0676   -4.8832   18.0736 C   0  0  0  0  0  0  0  0  0  0  0  0
   11.3298   -5.6703   16.7852 C   0  0  0  0  0  0  0  0  0  0  0  0
    9.6945   -4.1978   18.1322 C   0  0  0  0  0  0  0  0  0  0  0  0
    8.9945   -3.8526   16.5075 S   0  0  0  0  0  0  0  0  0  0  0  0
    9.8094   -2.9958   15.8356 H   0  0  0  0  0  0  0  0  0  0  0  0
  1  2  2  0  0  0
  2 12  1  0  0  0
  2  3  1  0  0  0
 12 14  1  0  0  0
 12 13  1  0  0  0
 14 15  1  0  0  0
  3  4  1  0  0  0
  3  5  1  0  0  0
  4  8  1  0  0  0
  4  7  1  0  0  0
  8  9  2  0  0  0
  8 10  1  0  0  0
  5  6  1  0  0  0
  6  7  1  0  0  0
 15 16  1  0  0  0
 10 11  1  0  0  0
M  END
> <minimizedAffinity>
-5.95235

$$$$
1J37_X8Z_A_801


 16 16  0  0  0  0  0  0  0  0999 V2000
   13.5932   -6.0494   22.9250 O   0  0  0  0  0  0  0  0  0  0  0  0
   14.2704   -5.9266   21.8626 C   0  0  0  0  0  0  0  0  0  0  0  0
   15.1133   -6.8977   21.4909 N   0  0  0  0  0  0  0  0  0  0  0  0
   15.2945   -8.1518   22.2823 C   0  0  0  0  0  0  0  0  0  0  0  0
   15.9825   -6.9135   20.2652 C   0  0  0  0  0  0  0  0  0  0  0  0
   16.6836   -8.2154   20.2757 C   0  0  0  0  0  0  0  0  0  0  0  0
   16.2956   -8.9707   21.5154 C   0  0  0  0  0  0  0  0  0  0  0  0
   15.7457   -7.8860   23.7195 C   0  0  0  0  0  0  0  0  0  0  0  0
   16.8000   -7.3658   23.9860 O   0  0  0  0  0  0  0  0  0  0  0  0
   14.9013   -8.2462   24.6354 O   0  0  0  0  0  0  0  0  0  0  0  0
   14.0904   -8.6481   24.3929 H   0  0  0  0  0  0  0  0  0  0  0  0
   14.1149   -4.6806   20.9925 C   0  0  0  0  0  0  0  0  0  0  0  0
   14.4593   -3.4369   21.8189 C   0  0  0  0  0  0  0  0  0  0  0  0
   12.6828   -4.6998   20.4383 C   0  0  0  0  0  0  0  0  0  0  0  0
   12.4831   -5.7693   19.0013 S   0  0  0  0  0  0  0  0  0  0  0  0
   13.2683   -5.3172   17.9871 H   0  0  0  0  0  0  0  0  0  0  0  0
  1  2  2  0  0  0
  2 12  1  0  0  0
  2  3  1  0  0  0
 12 14  1  0  0  0
 12 13  1  0  0  0
 14 15  1  0  0  0
  3  4  1  0  0  0
  3  5  1  0  0  0
  4  8  1  0  0  0
  4  7  1  0  0  0
  8  9  2  0  0  0
  8 10  1  0  0  0
  5  6  1  0  0  0
  6  7  1  0  0  0
 15 16  1  0  0  0
 10 11  1  0  0  0
M  END
> <minimizedAffinity>
-5.89567

$$$$
1J37_X8Z_A_801


 16 16  0  0  0  0  0  0  0  0999 V2000
   16.4132   -5.2452   20.8465 O   0  0  0  0  0  0  0  0  0  0  0  0
   15.4963   -5.6188   21.6353 C   0  0  0  0  0  0  0  0  0  0  0  0
   15.6504   -6.7340   22.3593 N   0  0  0  0  0  0  0  0  0  0  0  0
   16.8821   -7.5765   22.2862 C   0  0  0  0  0  0  0  0  0  0  0  0
   14.6693   -7.3124   23.3396 C   0  0  0  0  0  0  0  0  0  0  0  0
   15.3195   -8.5102   23.9131 C   0  0  0  0  0  0  0  0  0  0  0  0
   16.6591   -8.7007   23.2596 C   0  0  0  0  0  0  0  0  0  0  0  0
   17.1695   -8.0852   20.8726 C   0  0  0  0  0  0  0  0  0  0  0  0
   16.5059   -8.9387   20.3396 O   0  0  0  0  0  0  0  0  0  0  0  0
   18.1726   -7.5175   20.2785 O   0  0  0  0  0  0  0  0  0  0  0  0
   18.6674   -6.8571   20.7223 H   0  0  0  0  0  0  0  0  0  0  0  0
   14.2210   -4.7901   21.7778 C   0  0  0  0  0  0  0  0  0  0  0  0
   13.1906   -5.2609   20.7457 C   0  0  0  0  0  0  0  0  0  0  0  0
   14.6297   -3.3159   21.6420 C   0  0  0  0  0  0  0  0  0  0  0  0
   14.2604   -2.6146   20.0232 S   0  0  0  0  0  0  0  0  0  0  0  0
   14.9606   -3.2841   19.0687 H   0  0  0  0  0  0  0  0  0  0  0  0
  1  2  2  0  0  0
  2 12  1  0  0  0
  2  3  1  0  0  0
 12 14  1  0  0  0
 12 13  1  0  0  0
 14 15  1  0  0  0
  3  4  1  0  0  0
  3  5  1  0  0  0
  4  8  1  0  0  0
  4  7  1  0  0  0
  8  9  2  0  0  0
  8 10  1  0  0  0
  5  6  1  0  0  0
  6  7  1  0  0  0
 15 16  1  0  0  0
 10 11  1  0  0  0
M  END
> <minimizedAffinity>
-5.86800

$$$$
1J37_X8Z_A_801


 16 16  0  0  0  0  0  0  0  0999 V2000
   14.9790   -7.8788   18.8837 O   0  0  0  0  0  0  0  0  0  0  0  0
   14.2678   -6.9717   19.4068 C   0  0  0  0  0  0  0  0  0  0  0  0
   14.3823   -6.7020   20.7128 N   0  0  0  0  0  0  0  0  0  0  0  0
   15.3345   -7.4308   21.6040 C   0  0  0  0  0  0  0  0  0  0  0  0
   13.6223   -5.6615   21.4861 C   0  0  0  0  0  0  0  0  0  0  0  0
   14.1401   -5.7188   22.8700 C   0  0  0  0  0  0  0  0  0  0  0  0
   15.1656   -6.8129   22.9645 C   0  0  0  0  0  0  0  0  0  0  0  0
   15.0923   -8.9410   21.6217 C   0  0  0  0  0  0  0  0  0  0  0  0
   14.1655   -9.4457   22.2042 O   0  0  0  0  0  0  0  0  0  0  0  0
   15.9497   -9.6422   20.9474 O   0  0  0  0  0  0  0  0  0  0  0  0
   16.6587   -9.2173   20.5062 H   0  0  0  0  0  0  0  0  0  0  0  0
   13.2917   -6.1700   18.5476 C   0  0  0  0  0  0  0  0  0  0  0  0
   12.1345   -7.0757   18.1130 C   0  0  0  0  0  0  0  0  0  0  0  0
   14.1036   -5.5745   17.3880 C   0  0  0  0  0  0  0  0  0  0  0  0
   14.8210   -3.9648   17.7661 S   0  0  0  0  0  0  0  0  0  0  0  0
   13.8258   -3.0732   18.0196 H   0  0  0  0  0  0  0  0  0  0  0  0
  1  2  2  0  0  0
  2 12  1  0  0  0
  2  3  1  0  0  0
 12 14  1  0  0  0
 12 13  1  0  0  0
 14 15  1  0  0  0
  3  4  1  0  0  0
  3  5  1  0  0  0
  4  8  1  0  0  0
  4  7  1  0  0  0
  8  9  2  0  0  0
  8 10  1  0  0  0
  5  6  1  0  0  0
  6  7  1  0  0  0
 15 16  1  0  0  0
 10 11  1  0  0  0
M  END
> <minimizedAffinity>
-5.84557

$$$$
1J37_X8Z_A_801


 16 16  0  0  0  0  0  0  0  0999 V2000
   13.3677   -2.9274   19.4035 O   0  0  0  0  0  0  0  0  0  0  0  0
   13.4135   -4.1318   19.7906 C   0  0  0  0  0  0  0  0  0  0  0  0
   12.8788   -5.0980   19.0341 N   0  0  0  0  0  0  0  0  0  0  0  0
   12.2209   -4.8206   17.7218 C   0  0  0  0  0  0  0  0  0  0  0  0
   12.8513   -6.5688   19.3411 C   0  0  0  0  0  0  0  0  0  0  0  0
   12.2018   -7.2180   18.1821 C   0  0  0  0  0  0  0  0  0  0  0  0
   11.7859   -6.1614   17.1982 C   0  0  0  0  0  0  0  0  0  0  0  0
   11.0527   -3.8402   17.8398 C   0  0  0  0  0  0  0  0  0  0  0  0
   10.0862   -4.0575   18.5266 O   0  0  0  0  0  0  0  0  0  0  0  0
   11.1845   -2.7449   17.1582 O   0  0  0  0  0  0  0  0  0  0  0  0
   11.9492   -2.6083   16.6343 H   0  0  0  0  0  0  0  0  0  0  0  0
   14.0942   -4.4889   21.1107 C   0  0  0  0  0  0  0  0  0  0  0  0
   13.1966   -4.0625   22.2773 C   0  0  0  0  0  0  0  0  0  0  0  0
   15.4768   -3.8205   21.0945 C   0  0  0  0  0  0  0  0  0  0  0  0
   16.7570   -4.8375   20.3361 S   0  0  0  0  0  0  0  0  0  0  0  0
   16.9070   -5.9850   21.0506 H   0  0  0  0  0  0  0  0  0  0  0  0
  1  2  2  0  0  0
  2 12  1  0  0  0
  2  3  1  0  0  0
 12 14  1  0  0  0
 12 13  1  0  0  0
 14 15  1  0  0  0
  3  4  1  0  0  0
  3  5  1  0  0  0
  4  8  1  0  0  0
  4  7  1  0  0  0
  8  9  2  0  0  0
  8 10  1  0  0  0
  5  6  1  0  0  0
  6  7  1  0  0  0
 15 16  1  0  0  0
 10 11  1  0  0  0
M  END
> <minimizedAffinity>
-5.80870

$$$$
1J37_X8Z_A_801


 16 16  0  0  0  0  0  0  0  0999 V2000
   12.7674   -6.8226   19.8082 O   0  0  0  0  0  0  0  0  0  0  0  0
   12.9777   -5.6367   19.4187 C   0  0  0  0  0  0  0  0  0  0  0  0
   13.8613   -4.8671   20.0659 N   0  0  0  0  0  0  0  0  0  0  0  0
   14.6346   -5.3512   21.2489 C   0  0  0  0  0  0  0  0  0  0  0  0
   14.2308   -3.4488   19.7344 C   0  0  0  0  0  0  0  0  0  0  0  0
   15.2790   -3.0607   20.7025 C   0  0  0  0  0  0  0  0  0  0  0  0
   15.5163   -4.2014   21.6512 C   0  0  0  0  0  0  0  0  0  0  0  0
   13.7351   -5.8175   22.3949 C   0  0  0  0  0  0  0  0  0  0  0  0
   13.1337   -5.0510   23.1047 O   0  0  0  0  0  0  0  0  0  0  0  0
   13.6515   -7.1035   22.5384 O   0  0  0  0  0  0  0  0  0  0  0  0
   14.1329   -7.6708   21.9687 H   0  0  0  0  0  0  0  0  0  0  0  0
   12.2395   -5.0864   18.1997 C   0  0  0  0  0  0  0  0  0  0  0  0
   10.8952   -4.4984   18.6419 C   0  0  0  0  0  0  0  0  0  0  0  0
   12.1289   -6.2370   17.1885 C   0  0  0  0  0  0  0  0  0  0  0  0
   13.6345   -6.5006   16.2333 S   0  0  0  0  0  0  0  0  0  0  0  0
   13.9078   -5.3873   15.5015 H   0  0  0  0  0  0  0  0  0  0  0  0
  1  2  2  0  0  0
  2 12  1  0  0  0
  2  3  1  0  0  0
 12 14  1  0  0  0
 12 13  1  0  0  0
 14 15  1  0  0  0
  3  4  1  0  0  0
  3  5  1  0  0  0
  4  8  1  0  0  0
  4  7  1  0  0  0
  8  9  2  0  0  0
  8 10  1  0  0  0
  5  6  1  0  0  0
  6  7  1  0  0  0
 15 16  1  0  0  0
 10 11  1  0  0  0
M  END
> <minimizedAffinity>
-5.73113

$$$$
1J37_X8Z_A_801


 16 16  0  0  0  0  0  0  0  0999 V2000
   16.2197   -4.0321   18.8470 O   0  0  0  0  0  0  0  0  0  0  0  0
   15.2870   -4.6163   19.4725 C   0  0  0  0  0  0  0  0  0  0  0  0
   14.0128   -4.4096   19.1186 N   0  0  0  0  0  0  0  0  0  0  0  0
   13.6272   -3.5079   17.9917 C   0  0  0  0  0  0  0  0  0  0  0  0
   12.7940   -5.0230   19.7483 C   0  0  0  0  0  0  0  0  0  0  0  0
   11.6370   -4.5249   18.9738 C   0  0  0  0  0  0  0  0  0  0  0  0
   12.1270   -3.5769   17.9161 C   0  0  0  0  0  0  0  0  0  0  0  0
   14.1305   -2.0757   18.1795 C   0  0  0  0  0  0  0  0  0  0  0  0
   13.5701   -1.2751   18.8851 O   0  0  0  0  0  0  0  0  0  0  0  0
   15.2187   -1.7876   17.5357 O   0  0  0  0  0  0  0  0  0  0  0  0
   15.6286   -2.4342   16.9955 H   0  0  0  0  0  0  0  0  0  0  0  0
   15.6123   -5.5718   20.6191 C   0  0  0  0  0  0  0  0  0  0  0  0
   15.7138   -4.7804   21.9274 C   0  0  0  0  0  0  0  0  0  0  0  0
   16.8952   -6.3192   20.2264 C   0  0  0  0  0  0  0  0  0  0  0  0
   17.0611   -7.9280   21.0220 S   0  0  0  0  0  0  0  0  0  0  0  0
   17.1250   -7.7625   22.3703 H   0  0  0  0  0  0  0  0  0  0  0  0
  1  2  2  0  0  0
  2 12  1  0  0  0
  2  3  1  0  0  0
 12 14  1  0  0  0
 12 13  1  0  0  0
 14 15  1  0  0  0
  3  4  1  0  0  0
  3  5  1  0  0  0
  4  8  1  0  0  0
  4  7  1  0  0  0
  8  9  2  0  0  0
  8 10  1  0  0  0
  5  6  1  0  0  0
  6  7  1  0  0  0
 15 16  1  0  0  0
 10 11  1  0  0  0
M  END
> <minimizedAffinity>
-5.72387

$$$$
1J37_X8Z_A_801


 16 16  0  0  0  0  0  0  0  0999 V2000
   14.5829   -6.7861   23.6934 O   0  0  0  0  0  0  0  0  0  0  0  0
   15.4197   -6.8801   22.7483 C   0  0  0  0  0  0  0  0  0  0  0  0
   15.6121   -5.8461   21.9203 N   0  0  0  0  0  0  0  0  0  0  0  0
   14.8762   -4.5538   22.0630 C   0  0  0  0  0  0  0  0  0  0  0  0
   16.5637   -5.7894   20.7587 C   0  0  0  0  0  0  0  0  0  0  0  0
   16.4451   -4.4268   20.1969 C   0  0  0  0  0  0  0  0  0  0  0  0
   15.3986   -3.6698   20.9645 C   0  0  0  0  0  0  0  0  0  0  0  0
   13.3578   -4.7253   21.9933 C   0  0  0  0  0  0  0  0  0  0  0  0
   12.7627   -4.8461   20.9521 O   0  0  0  0  0  0  0  0  0  0  0  0
   12.7550   -4.7491   23.1412 O   0  0  0  0  0  0  0  0  0  0  0  0
   13.2486   -4.6522   23.9317 H   0  0  0  0  0  0  0  0  0  0  0  0
   16.2251   -8.1645   22.5605 C   0  0  0  0  0  0  0  0  0  0  0  0
   15.4476   -9.1244   21.6535 C   0  0  0  0  0  0  0  0  0  0  0  0
   16.5210   -8.7143   23.9636 C   0  0  0  0  0  0  0  0  0  0  0  0
   18.2690   -8.6648   24.4002 S   0  0  0  0  0  0  0  0  0  0  0  0
   18.9738   -9.4460   23.5384 H   0  0  0  0  0  0  0  0  0  0  0  0
  1  2  2  0  0  0
  2 12  1  0  0  0
  2  3  1  0  0  0
 12 14  1  0  0  0
 12 13  1  0  0  0
 14 15  1  0  0  0
  3  4  1  0  0  0
  3  5  1  0  0  0
  4  8  1  0  0  0
  4  7  1  0  0  0
  8  9  2  0  0  0
  8 10  1  0  0  0
  5  6  1  0  0  0
  6  7  1  0  0  0
 15 16  1  0  0  0
 10 11  1  0  0  0
M  END
> <minimizedAffinity>
-5.64936

$$$$
1J37_X8Z_A_801


 16 16  0  0  0  0  0  0  0  0999 V2000
   16.1201   -6.2134   23.0703 O   0  0  0  0  0  0  0  0  0  0  0  0
   15.6394   -7.2438   22.5140 C   0  0  0  0  0  0  0  0  0  0  0  0
   14.7569   -7.1147   21.5158 N   0  0  0  0  0  0  0  0  0  0  0  0
   14.3050   -5.7839   21.0092 C   0  0  0  0  0  0  0  0  0  0  0  0
   14.0976   -8.2262   20.7492 C   0  0  0  0  0  0  0  0  0  0  0  0
   13.2542   -7.5742   19.7244 C   0  0  0  0  0  0  0  0  0  0  0  0
   13.3482   -6.0836   19.8885 C   0  0  0  0  0  0  0  0  0  0  0  0
   13.6662   -4.9205   22.0983 C   0  0  0  0  0  0  0  0  0  0  0  0
   13.6447   -3.7164   22.0465 O   0  0  0  0  0  0  0  0  0  0  0  0
   13.1314   -5.5802   23.0782 O   0  0  0  0  0  0  0  0  0  0  0  0
   13.1663   -6.5165   23.0870 H   0  0  0  0  0  0  0  0  0  0  0  0
   16.0777   -8.6357   22.9659 C   0  0  0  0  0  0  0  0  0  0  0  0
   15.3833   -8.9836   24.2869 C   0  0  0  0  0  0  0  0  0  0  0  0
   17.6117   -8.6183   23.0387 C   0  0  0  0  0  0  0  0  0  0  0  0
   18.2532   -8.8093   24.7122 S   0  0  0  0  0  0  0  0  0  0  0  0
   17.8326   -7.7688   25.4804 H   0  0  0  0  0  0  0  0  0  0  0  0
  1  2  2  0  0  0
  2 12  1  0  0  0
  2  3  1  0  0  0
 12 14  1  0  0  0
 12 13  1  0  0  0
 14 15  1  0  0  0
  3  4  1  0  0  0
  3  5  1  0  0  0
  4  8  1  0  0  0
  4  7  1  0  0  0
  8  9  2  0  0  0
  8 10  1  0  0  0
  5  6  1  0  0  0
  6  7  1  0  0  0
 15 16  1  0  0  0
 10 11  1  0  0  0
M  END
> <minimizedAffinity>
-5.58900

$$$$
1J37_X8Z_A_801


 16 16  0  0  0  0  0  0  0  0999 V2000
   13.8362   -4.2328   17.7945 O   0  0  0  0  0  0  0  0  0  0  0  0
   13.7077   -5.2186   18.5781 C   0  0  0  0  0  0  0  0  0  0  0  0
   13.6764   -5.0211   19.9017 N   0  0  0  0  0  0  0  0  0  0  0  0
   13.7816   -3.6628   20.5147 C   0  0  0  0  0  0  0  0  0  0  0  0
   13.5259   -6.0727   20.9644 C   0  0  0  0  0  0  0  0  0  0  0  0
   13.4970   -5.3513   22.2548 C   0  0  0  0  0  0  0  0  0  0  0  0
   13.6804   -3.8821   21.9989 C   0  0  0  0  0  0  0  0  0  0  0  0
   15.0691   -2.9345   20.1252 C   0  0  0  0  0  0  0  0  0  0  0  0
   16.1567   -3.2814   20.5122 O   0  0  0  0  0  0  0  0  0  0  0  0
   14.9083   -1.9223   19.3308 O   0  0  0  0  0  0  0  0  0  0  0  0
   14.0481   -1.6799   19.0492 H   0  0  0  0  0  0  0  0  0  0  0  0
   13.5692   -6.6327   18.0170 C   0  0  0  0  0  0  0  0  0  0  0  0
   14.9624   -7.2372   17.8122 C   0  0  0  0  0  0  0  0  0  0  0  0
   12.7283   -6.5239   16.7366 C   0  0  0  0  0  0  0  0  0  0  0  0
   13.6558   -6.8907   15.2352 S   0  0  0  0  0  0  0  0  0  0  0  0
   14.6654   -5.9904   15.0947 H   0  0  0  0  0  0  0  0  0  0  0  0
  1  2  2  0  0  0
  2 12  1  0  0  0
  2  3  1  0  0  0
 12 14  1  0  0  0
 12 13  1  0  0  0
 14 15  1  0  0  0
  3  4  1  0  0  0
  3  5  1  0  0  0
  4  8  1  0  0  0
  4  7  1  0  0  0
  8  9  2  0  0  0
  8 10  1  0  0  0
  5  6  1  0  0  0
  6  7  1  0  0  0
 15 16  1  0  0  0
 10 11  1  0  0  0
M  END
> <minimizedAffinity>
-5.44753

$$$$
