4MPN_PV0_A_501


 26 28  0  0  0  0  0  0  0  0999 V2000
   12.7049    1.1001  -36.2539 S   0  0  0  0  0  0  0  0  0  0  0  0
   13.0716    0.8415  -34.8689 O   0  0  0  0  0  0  0  0  0  0  0  0
   12.0596   -0.0758  -36.7996 O   0  0  0  0  0  0  0  0  0  0  0  0
   16.2144    2.0940  -37.4107 C   0  0  0  0  0  0  0  0  0  0  0  0
   16.1489    0.7504  -37.7650 C   0  0  0  0  0  0  0  0  0  0  0  0
   14.0281    1.4696  -37.1103 N   0  0  0  0  0  0  0  0  0  0  0  0
   14.9206    2.5468  -36.8821 C   0  0  0  0  0  0  0  0  0  0  0  0
   14.7466    0.2723  -37.4691 C   0  0  0  0  0  0  0  0  0  0  0  0
   17.2978    0.1090  -38.3021 C   0  0  0  0  0  0  0  0  0  0  0  0
   18.4667    0.8622  -38.4589 C   0  0  0  0  0  0  0  0  0  0  0  0
   18.5088    2.2122  -38.0963 C   0  0  0  0  0  0  0  0  0  0  0  0
   17.3947    2.8293  -37.5710 C   0  0  0  0  0  0  0  0  0  0  0  0
   17.3923    4.1468  -37.2051 O   0  0  0  0  0  0  0  0  0  0  0  0
   19.6009    0.2851  -38.9784 O   0  0  0  0  0  0  0  0  0  0  0  0
   18.1693    4.6614  -37.3021 H   0  0  0  0  0  0  0  0  0  0  0  0
   19.5949   -0.6180  -39.2280 H   0  0  0  0  0  0  0  0  0  0  0  0
   11.7725    2.5004  -38.6714 O   0  0  0  0  0  0  0  0  0  0  0  0
   11.3918    3.1222  -37.5014 C   0  0  0  0  0  0  0  0  0  0  0  0
   10.6539    4.2968  -37.5238 C   0  0  0  0  0  0  0  0  0  0  0  0
   10.2865    4.8949  -36.3217 C   0  0  0  0  0  0  0  0  0  0  0  0
    9.5585    6.0608  -36.3143 O   0  0  0  0  0  0  0  0  0  0  0  0
   10.6632    4.3369  -35.1153 C   0  0  0  0  0  0  0  0  0  0  0  0
   11.4090    3.1806  -35.0905 C   0  0  0  0  0  0  0  0  0  0  0  0
   11.7679    2.5710  -36.2869 C   0  0  0  0  0  0  0  0  0  0  0  0
   11.5235    2.8646  -39.4980 H   0  0  0  0  0  0  0  0  0  0  0  0
    9.2945    6.4534  -37.1231 H   0  0  0  0  0  0  0  0  0  0  0  0
 14 10  1  0  0  0
 17 18  1  0  0  0
 10  9  2  0  0  0
 10 11  1  0  0  0
  9  5  1  0  0  0
 11 12  2  0  0  0
  5  8  1  0  0  0
  5  4  2  0  0  0
  8  6  1  0  0  0
 18 19  2  0  0  0
 18 24  1  0  0  0
 12  4  1  0  0  0
 12 13  1  0  0  0
 19 20  1  0  0  0
  4  7  1  0  0  0
  6  7  1  0  0  0
  6  1  1  0  0  0
  3  1  2  0  0  0
  1 24  1  0  0  0
  1  2  2  0  0  0
 24 23  2  0  0  0
 20 21  1  0  0  0
 20 22  2  0  0  0
 23 22  1  0  0  0
 17 25  1  0  0  0
 21 26  1  0  0  0
 13 15  1  0  0  0
 14 16  1  0  0  0
M  END
> <minimizedAffinity>
-8.73856

$$$$
4MPN_PV0_A_501


 26 28  0  0  0  0  0  0  0  0999 V2000
   13.2266    0.4587  -37.6681 S   0  0  0  0  0  0  0  0  0  0  0  0
   12.6703    0.0012  -38.9334 O   0  0  0  0  0  0  0  0  0  0  0  0
   12.7680   -0.4136  -36.6071 O   0  0  0  0  0  0  0  0  0  0  0  0
   11.2700    3.7151  -37.2098 C   0  0  0  0  0  0  0  0  0  0  0  0
   11.6562    3.4092  -35.9089 C   0  0  0  0  0  0  0  0  0  0  0  0
   12.7646    1.9846  -37.3873 N   0  0  0  0  0  0  0  0  0  0  0  0
   11.8605    2.7592  -38.1564 C   0  0  0  0  0  0  0  0  0  0  0  0
   12.5532    2.1954  -35.9768 C   0  0  0  0  0  0  0  0  0  0  0  0
   11.1948    4.2137  -34.8319 C   0  0  0  0  0  0  0  0  0  0  0  0
   10.3605    5.2987  -35.1232 C   0  0  0  0  0  0  0  0  0  0  0  0
    9.9859    5.5875  -36.4393 C   0  0  0  0  0  0  0  0  0  0  0  0
   10.4308    4.8023  -37.4803 C   0  0  0  0  0  0  0  0  0  0  0  0
   10.0900    5.0502  -38.7812 O   0  0  0  0  0  0  0  0  0  0  0  0
    9.8936    6.1069  -34.1143 O   0  0  0  0  0  0  0  0  0  0  0  0
    9.5296    5.7717  -38.9894 H   0  0  0  0  0  0  0  0  0  0  0  0
   10.1322    5.9316  -33.2252 H   0  0  0  0  0  0  0  0  0  0  0  0
   14.9518   -1.4970  -39.0367 O   0  0  0  0  0  0  0  0  0  0  0  0
   15.6453   -0.4156  -38.5366 C   0  0  0  0  0  0  0  0  0  0  0  0
   17.0216   -0.3196  -38.6830 C   0  0  0  0  0  0  0  0  0  0  0  0
   17.6873    0.7882  -38.1659 C   0  0  0  0  0  0  0  0  0  0  0  0
   19.0507    0.9075  -38.2934 O   0  0  0  0  0  0  0  0  0  0  0  0
   16.9912    1.7782  -37.4994 C   0  0  0  0  0  0  0  0  0  0  0  0
   15.6281    1.6774  -37.3386 C   0  0  0  0  0  0  0  0  0  0  0  0
   14.9556    0.5804  -37.8640 C   0  0  0  0  0  0  0  0  0  0  0  0
   15.4085   -2.1760  -39.4931 H   0  0  0  0  0  0  0  0  0  0  0  0
   19.5389    0.2456  -38.7423 H   0  0  0  0  0  0  0  0  0  0  0  0
 14 10  1  0  0  0
 17 18  1  0  0  0
 10  9  2  0  0  0
 10 11  1  0  0  0
  9  5  1  0  0  0
 11 12  2  0  0  0
  5  8  1  0  0  0
  5  4  2  0  0  0
  8  6  1  0  0  0
 18 19  2  0  0  0
 18 24  1  0  0  0
 12  4  1  0  0  0
 12 13  1  0  0  0
 19 20  1  0  0  0
  4  7  1  0  0  0
  6  7  1  0  0  0
  6  1  1  0  0  0
  3  1  2  0  0  0
  1 24  1  0  0  0
  1  2  2  0  0  0
 24 23  2  0  0  0
 20 21  1  0  0  0
 20 22  2  0  0  0
 23 22  1  0  0  0
 17 25  1  0  0  0
 21 26  1  0  0  0
 13 15  1  0  0  0
 14 16  1  0  0  0
M  END
> <minimizedAffinity>
-8.10212

$$$$
4MPN_PV0_A_501


 26 28  0  0  0  0  0  0  0  0999 V2000
   12.1016    1.5938  -35.9413 S   0  0  0  0  0  0  0  0  0  0  0  0
   11.6443    1.2161  -34.6117 O   0  0  0  0  0  0  0  0  0  0  0  0
   11.8523    0.4990  -36.8557 O   0  0  0  0  0  0  0  0  0  0  0  0
   15.5274    3.2897  -36.1151 C   0  0  0  0  0  0  0  0  0  0  0  0
   15.3550    3.0965  -34.7483 C   0  0  0  0  0  0  0  0  0  0  0  0
   13.6808    1.9471  -35.8969 N   0  0  0  0  0  0  0  0  0  0  0  0
   14.4211    2.6754  -36.8615 C   0  0  0  0  0  0  0  0  0  0  0  0
   14.0781    2.3114  -34.5597 C   0  0  0  0  0  0  0  0  0  0  0  0
   16.3177    3.6129  -33.8392 C   0  0  0  0  0  0  0  0  0  0  0  0
   17.4185    4.3033  -34.3586 C   0  0  0  0  0  0  0  0  0  0  0  0
   17.5713    4.4846  -35.7370 C   0  0  0  0  0  0  0  0  0  0  0  0
   16.6333    3.9872  -36.6149 C   0  0  0  0  0  0  0  0  0  0  0  0
   16.7449    4.1407  -37.9691 O   0  0  0  0  0  0  0  0  0  0  0  0
   18.3771    4.8164  -33.5177 O   0  0  0  0  0  0  0  0  0  0  0  0
   17.4755    4.6035  -38.3295 H   0  0  0  0  0  0  0  0  0  0  0  0
   18.2946    4.7065  -32.5909 H   0  0  0  0  0  0  0  0  0  0  0  0
   11.7266    2.6651  -38.6590 O   0  0  0  0  0  0  0  0  0  0  0  0
   11.2351    3.4952  -37.6742 C   0  0  0  0  0  0  0  0  0  0  0  0
   10.6441    4.7094  -37.9923 C   0  0  0  0  0  0  0  0  0  0  0  0
   10.1579    5.5202  -36.9706 C   0  0  0  0  0  0  0  0  0  0  0  0
    9.5709    6.7297  -37.2567 O   0  0  0  0  0  0  0  0  0  0  0  0
   10.2735    5.1315  -35.6499 C   0  0  0  0  0  0  0  0  0  0  0  0
   10.8739    3.9350  -35.3306 C   0  0  0  0  0  0  0  0  0  0  0  0
   11.3496    3.1146  -36.3467 C   0  0  0  0  0  0  0  0  0  0  0  0
   11.6543    2.9129  -39.5597 H   0  0  0  0  0  0  0  0  0  0  0  0
    9.4841    7.0095  -38.1468 H   0  0  0  0  0  0  0  0  0  0  0  0
 14 10  1  0  0  0
 17 18  1  0  0  0
 10  9  2  0  0  0
 10 11  1  0  0  0
  9  5  1  0  0  0
 11 12  2  0  0  0
  5  8  1  0  0  0
  5  4  2  0  0  0
  8  6  1  0  0  0
 18 19  2  0  0  0
 18 24  1  0  0  0
 12  4  1  0  0  0
 12 13  1  0  0  0
 19 20  1  0  0  0
  4  7  1  0  0  0
  6  7  1  0  0  0
  6  1  1  0  0  0
  3  1  2  0  0  0
  1 24  1  0  0  0
  1  2  2  0  0  0
 24 23  2  0  0  0
 20 21  1  0  0  0
 20 22  2  0  0  0
 23 22  1  0  0  0
 17 25  1  0  0  0
 21 26  1  0  0  0
 13 15  1  0  0  0
 14 16  1  0  0  0
M  END
> <minimizedAffinity>
-8.09264

$$$$
4MPN_PV0_A_501


 26 28  0  0  0  0  0  0  0  0999 V2000
   16.0080    0.7385  -35.7265 S   0  0  0  0  0  0  0  0  0  0  0  0
   15.2925   -0.4421  -35.2641 O   0  0  0  0  0  0  0  0  0  0  0  0
   16.9420    1.1567  -34.7019 O   0  0  0  0  0  0  0  0  0  0  0  0
   12.8951    2.8173  -36.5209 C   0  0  0  0  0  0  0  0  0  0  0  0
   13.1893    3.2004  -35.2164 C   0  0  0  0  0  0  0  0  0  0  0  0
   14.9547    1.9241  -36.0516 N   0  0  0  0  0  0  0  0  0  0  0  0
   13.9340    1.9145  -37.0349 C   0  0  0  0  0  0  0  0  0  0  0  0
   14.4884    2.5326  -34.8306 C   0  0  0  0  0  0  0  0  0  0  0  0
   12.3093    4.0781  -34.5270 C   0  0  0  0  0  0  0  0  0  0  0  0
   11.1663    4.5322  -35.1944 C   0  0  0  0  0  0  0  0  0  0  0  0
   10.8915    4.1340  -36.5066 C   0  0  0  0  0  0  0  0  0  0  0  0
   11.7440    3.2788  -37.1700 C   0  0  0  0  0  0  0  0  0  0  0  0
   11.5138    2.8660  -38.4531 O   0  0  0  0  0  0  0  0  0  0  0  0
   10.2892    5.3857  -34.5689 O   0  0  0  0  0  0  0  0  0  0  0  0
   10.7506    3.1603  -38.9101 H   0  0  0  0  0  0  0  0  0  0  0  0
   10.4539    5.6652  -33.6899 H   0  0  0  0  0  0  0  0  0  0  0  0
   17.9446    2.3949  -37.2030 O   0  0  0  0  0  0  0  0  0  0  0  0
   17.6062    1.2336  -37.8642 C   0  0  0  0  0  0  0  0  0  0  0  0
   18.1473    0.9349  -39.1063 C   0  0  0  0  0  0  0  0  0  0  0  0
   17.7827   -0.2482  -39.7428 C   0  0  0  0  0  0  0  0  0  0  0  0
   18.3006   -0.5676  -40.9754 O   0  0  0  0  0  0  0  0  0  0  0  0
   16.8799   -1.1130  -39.1548 C   0  0  0  0  0  0  0  0  0  0  0  0
   16.3293   -0.8113  -37.9302 C   0  0  0  0  0  0  0  0  0  0  0  0
   16.6991    0.3620  -37.2832 C   0  0  0  0  0  0  0  0  0  0  0  0
   18.5570    2.9912  -37.5869 H   0  0  0  0  0  0  0  0  0  0  0  0
   18.9141    0.0072  -41.3891 H   0  0  0  0  0  0  0  0  0  0  0  0
 14 10  1  0  0  0
 17 18  1  0  0  0
 10  9  2  0  0  0
 10 11  1  0  0  0
  9  5  1  0  0  0
 11 12  2  0  0  0
  5  8  1  0  0  0
  5  4  2  0  0  0
  8  6  1  0  0  0
 18 19  2  0  0  0
 18 24  1  0  0  0
 12  4  1  0  0  0
 12 13  1  0  0  0
 19 20  1  0  0  0
  4  7  1  0  0  0
  6  7  1  0  0  0
  6  1  1  0  0  0
  3  1  2  0  0  0
  1 24  1  0  0  0
  1  2  2  0  0  0
 24 23  2  0  0  0
 20 21  1  0  0  0
 20 22  2  0  0  0
 23 22  1  0  0  0
 17 25  1  0  0  0
 21 26  1  0  0  0
 13 15  1  0  0  0
 14 16  1  0  0  0
M  END
> <minimizedAffinity>
-7.46937

$$$$
4MPN_PV0_A_501


 26 28  0  0  0  0  0  0  0  0999 V2000
   12.5148    1.1098  -37.2898 S   0  0  0  0  0  0  0  0  0  0  0  0
   11.8316   -0.0329  -36.7007 O   0  0  0  0  0  0  0  0  0  0  0  0
   12.4336    1.0169  -38.7326 O   0  0  0  0  0  0  0  0  0  0  0  0
   16.2802    0.5592  -36.8882 C   0  0  0  0  0  0  0  0  0  0  0  0
   16.2117    1.8838  -37.3074 C   0  0  0  0  0  0  0  0  0  0  0  0
   14.0604    1.1307  -36.8090 N   0  0  0  0  0  0  0  0  0  0  0  0
   14.9300    0.0190  -36.6787 C   0  0  0  0  0  0  0  0  0  0  0  0
   14.7504    2.2606  -37.3797 C   0  0  0  0  0  0  0  0  0  0  0  0
   17.4109    2.6007  -37.5679 C   0  0  0  0  0  0  0  0  0  0  0  0
   18.6317    1.9406  -37.3890 C   0  0  0  0  0  0  0  0  0  0  0  0
   18.6759    0.6083  -36.9659 C   0  0  0  0  0  0  0  0  0  0  0  0
   17.5113   -0.0852  -36.7194 C   0  0  0  0  0  0  0  0  0  0  0  0
   17.5095   -1.3877  -36.3030 O   0  0  0  0  0  0  0  0  0  0  0  0
   19.8170    2.5954  -37.6246 O   0  0  0  0  0  0  0  0  0  0  0  0
   18.3200   -1.8420  -36.1823 H   0  0  0  0  0  0  0  0  0  0  0  0
   19.8105    3.4882  -37.9087 H   0  0  0  0  0  0  0  0  0  0  0  0
   12.7336    1.9047  -34.4624 O   0  0  0  0  0  0  0  0  0  0  0  0
   12.0248    2.8059  -35.2277 C   0  0  0  0  0  0  0  0  0  0  0  0
   11.4806    3.9505  -34.6631 C   0  0  0  0  0  0  0  0  0  0  0  0
   10.7724    4.8381  -35.4682 C   0  0  0  0  0  0  0  0  0  0  0  0
   10.2195    5.9779  -34.9347 O   0  0  0  0  0  0  0  0  0  0  0  0
   10.5972    4.5795  -36.8140 C   0  0  0  0  0  0  0  0  0  0  0  0
   11.1220    3.4368  -37.3732 C   0  0  0  0  0  0  0  0  0  0  0  0
   11.8416    2.5529  -36.5777 C   0  0  0  0  0  0  0  0  0  0  0  0
   12.8633    2.0662  -33.5485 H   0  0  0  0  0  0  0  0  0  0  0  0
   10.3283    6.1693  -34.0239 H   0  0  0  0  0  0  0  0  0  0  0  0
 14 10  1  0  0  0
 17 18  1  0  0  0
 10  9  2  0  0  0
 10 11  1  0  0  0
  9  5  1  0  0  0
 11 12  2  0  0  0
  5  8  1  0  0  0
  5  4  2  0  0  0
  8  6  1  0  0  0
 18 19  2  0  0  0
 18 24  1  0  0  0
 12  4  1  0  0  0
 12 13  1  0  0  0
 19 20  1  0  0  0
  4  7  1  0  0  0
  6  7  1  0  0  0
  6  1  1  0  0  0
  3  1  2  0  0  0
  1 24  1  0  0  0
  1  2  2  0  0  0
 24 23  2  0  0  0
 20 21  1  0  0  0
 20 22  2  0  0  0
 23 22  1  0  0  0
 17 25  1  0  0  0
 21 26  1  0  0  0
 13 15  1  0  0  0
 14 16  1  0  0  0
M  END
> <minimizedAffinity>
-7.27277

$$$$
4MPN_PV0_A_501


 26 28  0  0  0  0  0  0  0  0999 V2000
   13.6342    1.2607  -36.5485 S   0  0  0  0  0  0  0  0  0  0  0  0
   13.8049    0.7877  -37.9148 O   0  0  0  0  0  0  0  0  0  0  0  0
   13.4971    0.1201  -35.6670 O   0  0  0  0  0  0  0  0  0  0  0  0
   11.1812    4.1583  -36.0700 C   0  0  0  0  0  0  0  0  0  0  0  0
   11.1651    3.9736  -37.4486 C   0  0  0  0  0  0  0  0  0  0  0  0
   12.3250    2.2085  -36.4573 N   0  0  0  0  0  0  0  0  0  0  0  0
   12.0043    3.1260  -35.4256 C   0  0  0  0  0  0  0  0  0  0  0  0
   12.0100    2.7584  -37.7522 C   0  0  0  0  0  0  0  0  0  0  0  0
   10.4231    4.8667  -38.2682 C   0  0  0  0  0  0  0  0  0  0  0  0
    9.7256    5.9109  -37.6507 C   0  0  0  0  0  0  0  0  0  0  0  0
    9.7558    6.0766  -36.2623 C   0  0  0  0  0  0  0  0  0  0  0  0
   10.4805    5.2120  -35.4714 C   0  0  0  0  0  0  0  0  0  0  0  0
   10.5356    5.3369  -34.1109 O   0  0  0  0  0  0  0  0  0  0  0  0
    8.9910    6.7964  -38.4027 O   0  0  0  0  0  0  0  0  0  0  0  0
   10.0756    6.0335  -33.6853 H   0  0  0  0  0  0  0  0  0  0  0  0
    8.9569    6.7039  -39.3345 H   0  0  0  0  0  0  0  0  0  0  0  0
   14.9308    1.6082  -33.9270 O   0  0  0  0  0  0  0  0  0  0  0  0
   15.4733    2.4051  -34.9123 C   0  0  0  0  0  0  0  0  0  0  0  0
   16.5176    3.2750  -34.6336 C   0  0  0  0  0  0  0  0  0  0  0  0
   17.0406    4.0629  -35.6550 C   0  0  0  0  0  0  0  0  0  0  0  0
   18.0728    4.9360  -35.4063 O   0  0  0  0  0  0  0  0  0  0  0  0
   16.5189    3.9944  -36.9324 C   0  0  0  0  0  0  0  0  0  0  0  0
   15.4724    3.1443  -37.2080 C   0  0  0  0  0  0  0  0  0  0  0  0
   14.9542    2.3451  -36.1957 C   0  0  0  0  0  0  0  0  0  0  0  0
   15.2743    1.6410  -33.0559 H   0  0  0  0  0  0  0  0  0  0  0  0
   18.4388    4.9957  -34.5459 H   0  0  0  0  0  0  0  0  0  0  0  0
 14 10  1  0  0  0
 17 18  1  0  0  0
 10  9  2  0  0  0
 10 11  1  0  0  0
  9  5  1  0  0  0
 11 12  2  0  0  0
  5  8  1  0  0  0
  5  4  2  0  0  0
  8  6  1  0  0  0
 18 19  2  0  0  0
 18 24  1  0  0  0
 12  4  1  0  0  0
 12 13  1  0  0  0
 19 20  1  0  0  0
  4  7  1  0  0  0
  6  7  1  0  0  0
  6  1  1  0  0  0
  3  1  2  0  0  0
  1 24  1  0  0  0
  1  2  2  0  0  0
 24 23  2  0  0  0
 20 21  1  0  0  0
 20 22  2  0  0  0
 23 22  1  0  0  0
 17 25  1  0  0  0
 21 26  1  0  0  0
 13 15  1  0  0  0
 14 16  1  0  0  0
M  END
> <minimizedAffinity>
-7.25996

$$$$
4MPN_PV0_A_501


 26 28  0  0  0  0  0  0  0  0999 V2000
   15.9713    1.1607  -35.8585 S   0  0  0  0  0  0  0  0  0  0  0  0
   16.0711    0.0416  -34.9327 O   0  0  0  0  0  0  0  0  0  0  0  0
   16.5542    2.3355  -35.2447 O   0  0  0  0  0  0  0  0  0  0  0  0
   12.3412    2.3654  -35.9762 C   0  0  0  0  0  0  0  0  0  0  0  0
   12.8935    2.9598  -37.1062 C   0  0  0  0  0  0  0  0  0  0  0  0
   14.4183    1.4264  -36.2301 N   0  0  0  0  0  0  0  0  0  0  0  0
   13.3220    1.4805  -35.3333 C   0  0  0  0  0  0  0  0  0  0  0  0
   14.3098    2.4507  -37.2389 C   0  0  0  0  0  0  0  0  0  0  0  0
   12.1101    3.8571  -37.8815 C   0  0  0  0  0  0  0  0  0  0  0  0
   10.7951    4.1114  -37.4762 C   0  0  0  0  0  0  0  0  0  0  0  0
   10.2609    3.5015  -36.3366 C   0  0  0  0  0  0  0  0  0  0  0  0
   11.0250    2.6363  -35.5845 C   0  0  0  0  0  0  0  0  0  0  0  0
   10.5416    2.0178  -34.4648 O   0  0  0  0  0  0  0  0  0  0  0  0
    9.9990    4.9687  -38.1975 O   0  0  0  0  0  0  0  0  0  0  0  0
    9.6638    2.1818  -34.1810 H   0  0  0  0  0  0  0  0  0  0  0  0
   10.3366    5.3882  -38.9643 H   0  0  0  0  0  0  0  0  0  0  0  0
   15.0954   -1.1215  -37.5012 O   0  0  0  0  0  0  0  0  0  0  0  0
   16.1609   -0.4367  -38.0453 C   0  0  0  0  0  0  0  0  0  0  0  0
   16.7309   -0.8379  -39.2448 C   0  0  0  0  0  0  0  0  0  0  0  0
   17.8048   -0.1203  -39.7639 C   0  0  0  0  0  0  0  0  0  0  0  0
   18.3910   -0.4976  -40.9485 O   0  0  0  0  0  0  0  0  0  0  0  0
   18.3119    0.9726  -39.0879 C   0  0  0  0  0  0  0  0  0  0  0  0
   17.7588    1.3630  -37.8897 C   0  0  0  0  0  0  0  0  0  0  0  0
   16.6778    0.6589  -37.3724 C   0  0  0  0  0  0  0  0  0  0  0  0
   14.7382   -1.8637  -37.9480 H   0  0  0  0  0  0  0  0  0  0  0  0
   18.0603   -1.2364  -41.4205 H   0  0  0  0  0  0  0  0  0  0  0  0
 14 10  1  0  0  0
 17 18  1  0  0  0
 10  9  2  0  0  0
 10 11  1  0  0  0
  9  5  1  0  0  0
 11 12  2  0  0  0
  5  8  1  0  0  0
  5  4  2  0  0  0
  8  6  1  0  0  0
 18 19  2  0  0  0
 18 24  1  0  0  0
 12  4  1  0  0  0
 12 13  1  0  0  0
 19 20  1  0  0  0
  4  7  1  0  0  0
  6  7  1  0  0  0
  6  1  1  0  0  0
  3  1  2  0  0  0
  1 24  1  0  0  0
  1  2  2  0  0  0
 24 23  2  0  0  0
 20 21  1  0  0  0
 20 22  2  0  0  0
 23 22  1  0  0  0
 17 25  1  0  0  0
 21 26  1  0  0  0
 13 15  1  0  0  0
 14 16  1  0  0  0
M  END
> <minimizedAffinity>
-7.24432

$$$$
4MPN_PV0_A_501


 26 28  0  0  0  0  0  0  0  0999 V2000
   14.2041    2.3662  -35.5912 S   0  0  0  0  0  0  0  0  0  0  0  0
   14.9423    3.3873  -34.8620 O   0  0  0  0  0  0  0  0  0  0  0  0
   13.9140    1.2640  -34.6980 O   0  0  0  0  0  0  0  0  0  0  0  0
   16.9756    1.1537  -37.9347 C   0  0  0  0  0  0  0  0  0  0  0  0
   16.1608    0.0316  -37.8245 C   0  0  0  0  0  0  0  0  0  0  0  0
   15.0781    1.8569  -36.8551 N   0  0  0  0  0  0  0  0  0  0  0  0
   16.3733    2.2937  -37.2302 C   0  0  0  0  0  0  0  0  0  0  0  0
   14.9493    0.4298  -37.0144 C   0  0  0  0  0  0  0  0  0  0  0  0
   16.5579   -1.1874  -38.4379 C   0  0  0  0  0  0  0  0  0  0  0  0
   17.7676   -1.2141  -39.1408 C   0  0  0  0  0  0  0  0  0  0  0  0
   18.5702   -0.0729  -39.2387 C   0  0  0  0  0  0  0  0  0  0  0  0
   18.1847    1.1056  -38.6383 C   0  0  0  0  0  0  0  0  0  0  0  0
   18.9383    2.2443  -38.7107 O   0  0  0  0  0  0  0  0  0  0  0  0
   18.1899   -2.3695  -39.7538 O   0  0  0  0  0  0  0  0  0  0  0  0
   19.7518    2.2389  -39.1757 H   0  0  0  0  0  0  0  0  0  0  0  0
   17.6677   -3.1458  -39.7009 H   0  0  0  0  0  0  0  0  0  0  0  0
   12.0762    3.8235  -34.1691 O   0  0  0  0  0  0  0  0  0  0  0  0
   11.8963    3.7945  -35.5355 C   0  0  0  0  0  0  0  0  0  0  0  0
   10.7950    4.3989  -36.1242 C   0  0  0  0  0  0  0  0  0  0  0  0
   10.6481    4.3502  -37.5076 C   0  0  0  0  0  0  0  0  0  0  0  0
    9.5650    4.9374  -38.1171 O   0  0  0  0  0  0  0  0  0  0  0  0
   11.5789    3.6949  -38.2903 C   0  0  0  0  0  0  0  0  0  0  0  0
   12.6637    3.0806  -37.7075 C   0  0  0  0  0  0  0  0  0  0  0  0
   12.8234    3.1368  -36.3279 C   0  0  0  0  0  0  0  0  0  0  0  0
   11.4553    4.2654  -33.6240 H   0  0  0  0  0  0  0  0  0  0  0  0
    8.9237    5.3861  -37.6019 H   0  0  0  0  0  0  0  0  0  0  0  0
 14 10  1  0  0  0
 17 18  1  0  0  0
 10  9  2  0  0  0
 10 11  1  0  0  0
  9  5  1  0  0  0
 11 12  2  0  0  0
  5  8  1  0  0  0
  5  4  2  0  0  0
  8  6  1  0  0  0
 18 19  2  0  0  0
 18 24  1  0  0  0
 12  4  1  0  0  0
 12 13  1  0  0  0
 19 20  1  0  0  0
  4  7  1  0  0  0
  6  7  1  0  0  0
  6  1  1  0  0  0
  3  1  2  0  0  0
  1 24  1  0  0  0
  1  2  2  0  0  0
 24 23  2  0  0  0
 20 21  1  0  0  0
 20 22  2  0  0  0
 23 22  1  0  0  0
 17 25  1  0  0  0
 21 26  1  0  0  0
 13 15  1  0  0  0
 14 16  1  0  0  0
M  END
> <minimizedAffinity>
-7.15442

$$$$
4MPN_PV0_A_501


 26 28  0  0  0  0  0  0  0  0999 V2000
   14.9321    1.0591  -34.4901 S   0  0  0  0  0  0  0  0  0  0  0  0
   15.8028    2.1225  -34.0098 O   0  0  0  0  0  0  0  0  0  0  0  0
   14.4567    0.2902  -33.3589 O   0  0  0  0  0  0  0  0  0  0  0  0
   16.4071   -0.6507  -37.5794 C   0  0  0  0  0  0  0  0  0  0  0  0
   17.5100    0.0045  -37.0414 C   0  0  0  0  0  0  0  0  0  0  0  0
   15.7445    0.1101  -35.5197 N   0  0  0  0  0  0  0  0  0  0  0  0
   15.2428   -0.5012  -36.6959 C   0  0  0  0  0  0  0  0  0  0  0  0
   17.0759    0.6207  -35.7320 C   0  0  0  0  0  0  0  0  0  0  0  0
   18.7480   -0.0157  -37.7391 C   0  0  0  0  0  0  0  0  0  0  0  0
   18.8137   -0.7040  -38.9557 C   0  0  0  0  0  0  0  0  0  0  0  0
   17.6916   -1.3563  -39.4768 C   0  0  0  0  0  0  0  0  0  0  0  0
   16.4918   -1.3301  -38.8003 C   0  0  0  0  0  0  0  0  0  0  0  0
   15.3715   -1.9555  -39.2732 O   0  0  0  0  0  0  0  0  0  0  0  0
   19.9910   -0.7541  -39.6632 O   0  0  0  0  0  0  0  0  0  0  0  0
   15.4013   -2.4172  -40.0879 H   0  0  0  0  0  0  0  0  0  0  0  0
   20.7550   -0.3241  -39.3325 H   0  0  0  0  0  0  0  0  0  0  0  0
   15.3716    3.1515  -36.5157 O   0  0  0  0  0  0  0  0  0  0  0  0
   14.0520    2.7679  -36.4071 C   0  0  0  0  0  0  0  0  0  0  0  0
   13.0702    3.3548  -37.1922 C   0  0  0  0  0  0  0  0  0  0  0  0
   11.7485    2.9400  -37.0554 C   0  0  0  0  0  0  0  0  0  0  0  0
   10.7550    3.5067  -37.8178 O   0  0  0  0  0  0  0  0  0  0  0  0
   11.4097    1.9645  -36.1377 C   0  0  0  0  0  0  0  0  0  0  0  0
   12.3792    1.3922  -35.3462 C   0  0  0  0  0  0  0  0  0  0  0  0
   13.7028    1.7923  -35.4870 C   0  0  0  0  0  0  0  0  0  0  0  0
   15.6185    3.8103  -37.1346 H   0  0  0  0  0  0  0  0  0  0  0  0
   10.9665    4.1698  -38.4452 H   0  0  0  0  0  0  0  0  0  0  0  0
 14 10  1  0  0  0
 17 18  1  0  0  0
 10  9  2  0  0  0
 10 11  1  0  0  0
  9  5  1  0  0  0
 11 12  2  0  0  0
  5  8  1  0  0  0
  5  4  2  0  0  0
  8  6  1  0  0  0
 18 19  2  0  0  0
 18 24  1  0  0  0
 12  4  1  0  0  0
 12 13  1  0  0  0
 19 20  1  0  0  0
  4  7  1  0  0  0
  6  7  1  0  0  0
  6  1  1  0  0  0
  3  1  2  0  0  0
  1 24  1  0  0  0
  1  2  2  0  0  0
 24 23  2  0  0  0
 20 21  1  0  0  0
 20 22  2  0  0  0
 23 22  1  0  0  0
 17 25  1  0  0  0
 21 26  1  0  0  0
 13 15  1  0  0  0
 14 16  1  0  0  0
M  END
> <minimizedAffinity>
-6.84872

$$$$
4MPN_PV0_A_501


 26 28  0  0  0  0  0  0  0  0999 V2000
   15.1511    1.1580  -35.4014 S   0  0  0  0  0  0  0  0  0  0  0  0
   16.0333    2.1263  -34.7660 O   0  0  0  0  0  0  0  0  0  0  0  0
   15.1092   -0.0439  -34.5948 O   0  0  0  0  0  0  0  0  0  0  0  0
   17.2701    0.3437  -38.4819 C   0  0  0  0  0  0  0  0  0  0  0  0
   16.5552   -0.8336  -38.2873 C   0  0  0  0  0  0  0  0  0  0  0  0
   15.6891    0.8228  -36.8910 N   0  0  0  0  0  0  0  0  0  0  0  0
   16.8260    1.3739  -37.5333 C   0  0  0  0  0  0  0  0  0  0  0  0
   15.5789   -0.5892  -37.1605 C   0  0  0  0  0  0  0  0  0  0  0  0
   16.8277   -1.9638  -39.1048 C   0  0  0  0  0  0  0  0  0  0  0  0
   17.8157   -1.8490  -40.0891 C   0  0  0  0  0  0  0  0  0  0  0  0
   18.5211   -0.6546  -40.2670 C   0  0  0  0  0  0  0  0  0  0  0  0
   18.2580    0.4373  -39.4691 C   0  0  0  0  0  0  0  0  0  0  0  0
   18.9229    1.6238  -39.6103 O   0  0  0  0  0  0  0  0  0  0  0  0
   18.1101   -2.9145  -40.9060 O   0  0  0  0  0  0  0  0  0  0  0  0
   19.5887    1.7129  -40.2636 H   0  0  0  0  0  0  0  0  0  0  0  0
   17.6496   -3.7241  -40.8042 H   0  0  0  0  0  0  0  0  0  0  0  0
   14.7415    3.6551  -36.9082 O   0  0  0  0  0  0  0  0  0  0  0  0
   13.5710    3.1182  -36.4161 C   0  0  0  0  0  0  0  0  0  0  0  0
   12.3518    3.7447  -36.6307 C   0  0  0  0  0  0  0  0  0  0  0  0
   11.1908    3.1715  -36.1196 C   0  0  0  0  0  0  0  0  0  0  0  0
    9.9699    3.7724  -36.3140 O   0  0  0  0  0  0  0  0  0  0  0  0
   11.2478    1.9984  -35.3922 C   0  0  0  0  0  0  0  0  0  0  0  0
   12.4577    1.3836  -35.1640 C   0  0  0  0  0  0  0  0  0  0  0  0
   13.6193    1.9435  -35.6828 C   0  0  0  0  0  0  0  0  0  0  0  0
   14.7201    4.4491  -37.4053 H   0  0  0  0  0  0  0  0  0  0  0  0
    9.9124    4.5685  -36.8048 H   0  0  0  0  0  0  0  0  0  0  0  0
 14 10  1  0  0  0
 17 18  1  0  0  0
 10  9  2  0  0  0
 10 11  1  0  0  0
  9  5  1  0  0  0
 11 12  2  0  0  0
  5  8  1  0  0  0
  5  4  2  0  0  0
  8  6  1  0  0  0
 18 19  2  0  0  0
 18 24  1  0  0  0
 12  4  1  0  0  0
 12 13  1  0  0  0
 19 20  1  0  0  0
  4  7  1  0  0  0
  6  7  1  0  0  0
  6  1  1  0  0  0
  3  1  2  0  0  0
  1 24  1  0  0  0
  1  2  2  0  0  0
 24 23  2  0  0  0
 20 21  1  0  0  0
 20 22  2  0  0  0
 23 22  1  0  0  0
 17 25  1  0  0  0
 21 26  1  0  0  0
 13 15  1  0  0  0
 14 16  1  0  0  0
M  END
> <minimizedAffinity>
-6.77378

$$$$
