5N84_8Q5_A_901


 28 31  0  0  0  0  0  0  0  0999 V2000
   36.8222   43.2808   38.8077 C   0  0  0  0  0  0  0  0  0  0  0  0
   36.1491   43.4927   39.9568 N   0  0  0  0  0  0  0  0  0  0  0  0
   35.9746   42.8139   41.1303 C   0  0  0  0  0  0  0  0  0  0  0  0
   35.1934   43.3382   42.1853 C   0  0  0  0  0  0  0  0  0  0  0  0
   34.5795   44.5341   42.0737 N   0  0  0  0  0  0  0  0  0  0  0  0
   34.7167   45.2663   40.9368 C   0  0  0  0  0  0  0  0  0  0  0  0
   35.5461   44.7095   39.8105 C   0  0  0  0  0  0  0  0  0  0  0  0
   35.8297   45.2274   38.5805 N   0  0  0  0  0  0  0  0  0  0  0  0
   36.6241   44.3346   37.9384 C   0  0  0  0  0  0  0  0  0  0  0  0
   38.8699   39.5326   38.1678 C   0  0  0  0  0  0  0  0  0  0  0  0
   37.6483   39.8521   37.5202 C   0  0  0  0  0  0  0  0  0  0  0  0
   37.0140   41.0940   37.7530 C   0  0  0  0  0  0  0  0  0  0  0  0
   37.5680   42.0202   38.6101 C   0  0  0  0  0  0  0  0  0  0  0  0
   38.7737   41.7174   39.2542 C   0  0  0  0  0  0  0  0  0  0  0  0
   39.4297   40.4931   39.0385 C   0  0  0  0  0  0  0  0  0  0  0  0
   40.4574   37.9723   38.7825 O   0  0  0  0  0  0  0  0  0  0  0  0
   39.6135   38.2229   37.9524 C   0  0  0  0  0  0  0  0  0  0  0  0
   39.3949   37.3994   36.9079 N   0  0  0  0  0  0  0  0  0  0  0  0
   38.7306   37.6678   36.2327 H   0  0  0  0  0  0  0  0  0  0  0  0
   40.1001   36.1168   36.7245 C   0  0  0  0  0  0  0  0  0  0  0  0
   39.7112   35.4556   35.3925 C   0  0  0  0  0  0  0  0  0  0  0  0
   41.1553   35.8954   35.6189 C   0  0  0  0  0  0  0  0  0  0  0  0
   34.1491   46.4952   40.7951 N   0  0  0  0  0  0  0  0  0  0  0  0
   34.1414   46.9114   39.9029 H   0  0  0  0  0  0  0  0  0  0  0  0
   33.5498   47.2232   41.9136 C   0  0  0  0  0  0  0  0  0  0  0  0
   34.5249   48.2193   42.5904 C   0  0  0  0  0  0  0  0  0  0  0  0
   35.4689   48.8974   41.5855 C   0  0  0  0  0  0  0  0  0  0  0  0
   33.7937   49.2700   43.4296 C   0  0  0  0  0  0  0  0  0  0  0  0
 21 22  1  0  0  0
 21 20  1  0  0  0
 22 20  1  0  0  0
 20 18  1  0  0  0
 18 17  1  0  0  0
 11 12  2  0  0  0
 11 10  1  0  0  0
 12 13  1  0  0  0
 17 10  1  0  0  0
 17 16  2  0  0  0
  9  8  1  0  0  0
  9  1  2  0  0  0
 10 15  2  0  0  0
  8  7  2  0  0  0
 13  1  1  0  0  0
 13 14  2  0  0  0
  1  2  1  0  0  0
 15 14  1  0  0  0
  7  2  1  0  0  0
  7  6  1  0  0  0
  2  3  1  0  0  0
 23  6  1  0  0  0
 23 25  1  0  0  0
  6  5  2  0  0  0
  3  4  2  0  0  0
 27 26  1  0  0  0
 25 26  1  0  0  0
  5  4  1  0  0  0
 26 28  1  0  0  0
 18 19  1  0  0  0
 23 24  1  0  0  0
M  END
> <minimizedAffinity>
-7.68911

$$$$
5N84_8Q5_A_901


 28 31  0  0  0  0  0  0  0  0999 V2000
   36.1406   44.2024   39.7303 C   0  0  0  0  0  0  0  0  0  0  0  0
   35.3347   44.3663   40.7990 N   0  0  0  0  0  0  0  0  0  0  0  0
   35.0262   43.6398   41.9149 C   0  0  0  0  0  0  0  0  0  0  0  0
   34.1221   44.1195   42.8899 C   0  0  0  0  0  0  0  0  0  0  0  0
   33.5185   45.3182   42.7547 N   0  0  0  0  0  0  0  0  0  0  0  0
   33.7852   46.0965   41.6728 C   0  0  0  0  0  0  0  0  0  0  0  0
   34.7458   45.5873   40.6314 C   0  0  0  0  0  0  0  0  0  0  0  0
   35.1703   46.1555   39.4659 N   0  0  0  0  0  0  0  0  0  0  0  0
   36.0408   45.2908   38.8872 C   0  0  0  0  0  0  0  0  0  0  0  0
   38.2681   40.4818   39.1987 C   0  0  0  0  0  0  0  0  0  0  0  0
   37.0749   40.7834   38.4921 C   0  0  0  0  0  0  0  0  0  0  0  0
   36.4132   42.0168   38.6912 C   0  0  0  0  0  0  0  0  0  0  0  0
   36.9123   42.9520   39.5719 C   0  0  0  0  0  0  0  0  0  0  0  0
   38.0894   42.6668   40.2743 C   0  0  0  0  0  0  0  0  0  0  0  0
   38.7718   41.4513   40.0933 C   0  0  0  0  0  0  0  0  0  0  0  0
   39.4526   38.9815   37.9032 O   0  0  0  0  0  0  0  0  0  0  0  0
   39.0390   39.1821   39.0225 C   0  0  0  0  0  0  0  0  0  0  0  0
   39.2343   38.2861   40.0104 N   0  0  0  0  0  0  0  0  0  0  0  0
   38.8394   38.4707   40.8931 H   0  0  0  0  0  0  0  0  0  0  0  0
   40.0094   37.0431   39.8367 C   0  0  0  0  0  0  0  0  0  0  0  0
   40.4707   36.4834   41.1919 C   0  0  0  0  0  0  0  0  0  0  0  0
   39.5062   35.6699   40.3327 C   0  0  0  0  0  0  0  0  0  0  0  0
   33.2309   47.3294   41.5145 N   0  0  0  0  0  0  0  0  0  0  0  0
   32.2845   47.3909   41.2505 H   0  0  0  0  0  0  0  0  0  0  0  0
   33.9833   48.5671   41.7204 C   0  0  0  0  0  0  0  0  0  0  0  0
   34.8128   48.5705   43.0292 C   0  0  0  0  0  0  0  0  0  0  0  0
   35.9733   49.5768   42.9910 C   0  0  0  0  0  0  0  0  0  0  0  0
   33.9442   48.8034   44.2679 C   0  0  0  0  0  0  0  0  0  0  0  0
 21 22  1  0  0  0
 21 20  1  0  0  0
 22 20  1  0  0  0
 20 18  1  0  0  0
 18 17  1  0  0  0
 11 12  2  0  0  0
 11 10  1  0  0  0
 12 13  1  0  0  0
 17 10  1  0  0  0
 17 16  2  0  0  0
  9  8  1  0  0  0
  9  1  2  0  0  0
 10 15  2  0  0  0
  8  7  2  0  0  0
 13  1  1  0  0  0
 13 14  2  0  0  0
  1  2  1  0  0  0
 15 14  1  0  0  0
  7  2  1  0  0  0
  7  6  1  0  0  0
  2  3  1  0  0  0
 23  6  1  0  0  0
 23 25  1  0  0  0
  6  5  2  0  0  0
  3  4  2  0  0  0
 27 26  1  0  0  0
 25 26  1  0  0  0
  5  4  1  0  0  0
 26 28  1  0  0  0
 18 19  1  0  0  0
 23 24  1  0  0  0
M  END
> <minimizedAffinity>
-7.42126

$$$$
5N84_8Q5_A_901


 28 31  0  0  0  0  0  0  0  0999 V2000
   35.0558   43.8933   42.1424 C   0  0  0  0  0  0  0  0  0  0  0  0
   34.8689   45.1878   41.8136 N   0  0  0  0  0  0  0  0  0  0  0  0
   35.3383   46.0311   40.8459 C   0  0  0  0  0  0  0  0  0  0  0  0
   34.9152   47.3773   40.7614 C   0  0  0  0  0  0  0  0  0  0  0  0
   34.0303   47.8890   41.6415 N   0  0  0  0  0  0  0  0  0  0  0  0
   33.5169   47.1039   42.6251 C   0  0  0  0  0  0  0  0  0  0  0  0
   33.9675   45.6705   42.7193 C   0  0  0  0  0  0  0  0  0  0  0  0
   33.6215   44.6904   43.6032 N   0  0  0  0  0  0  0  0  0  0  0  0
   34.3054   43.5715   43.2554 C   0  0  0  0  0  0  0  0  0  0  0  0
   37.9745   41.5742   39.9621 C   0  0  0  0  0  0  0  0  0  0  0  0
   38.3351   42.4539   41.0156 C   0  0  0  0  0  0  0  0  0  0  0  0
   37.3466   43.1900   41.7082 C   0  0  0  0  0  0  0  0  0  0  0  0
   36.0142   43.0680   41.3779 C   0  0  0  0  0  0  0  0  0  0  0  0
   35.6454   42.2024   40.3411 C   0  0  0  0  0  0  0  0  0  0  0  0
   36.6054   41.4540   39.6381 C   0  0  0  0  0  0  0  0  0  0  0  0
   39.8682   41.3742   38.6558 O   0  0  0  0  0  0  0  0  0  0  0  0
   38.9832   40.7413   39.1852 C   0  0  0  0  0  0  0  0  0  0  0  0
   38.9053   39.4024   39.0506 N   0  0  0  0  0  0  0  0  0  0  0  0
   38.1416   38.9355   39.4606 H   0  0  0  0  0  0  0  0  0  0  0  0
   39.9055   38.6008   38.3206 C   0  0  0  0  0  0  0  0  0  0  0  0
   39.5292   37.1105   38.3210 C   0  0  0  0  0  0  0  0  0  0  0  0
   39.5853   37.8703   36.9983 C   0  0  0  0  0  0  0  0  0  0  0  0
   32.5918   47.5656   43.5103 N   0  0  0  0  0  0  0  0  0  0  0  0
   31.7136   47.1224   43.5493 H   0  0  0  0  0  0  0  0  0  0  0  0
   32.8485   48.6934   44.4062 C   0  0  0  0  0  0  0  0  0  0  0  0
   32.3851   48.4379   45.8625 C   0  0  0  0  0  0  0  0  0  0  0  0
   31.0285   49.0887   46.1739 C   0  0  0  0  0  0  0  0  0  0  0  0
   32.3553   46.9477   46.2107 C   0  0  0  0  0  0  0  0  0  0  0  0
 21 22  1  0  0  0
 21 20  1  0  0  0
 22 20  1  0  0  0
 20 18  1  0  0  0
 18 17  1  0  0  0
 11 12  2  0  0  0
 11 10  1  0  0  0
 12 13  1  0  0  0
 17 10  1  0  0  0
 17 16  2  0  0  0
  9  8  1  0  0  0
  9  1  2  0  0  0
 10 15  2  0  0  0
  8  7  2  0  0  0
 13  1  1  0  0  0
 13 14  2  0  0  0
  1  2  1  0  0  0
 15 14  1  0  0  0
  7  2  1  0  0  0
  7  6  1  0  0  0
  2  3  1  0  0  0
 23  6  1  0  0  0
 23 25  1  0  0  0
  6  5  2  0  0  0
  3  4  2  0  0  0
 27 26  1  0  0  0
 25 26  1  0  0  0
  5  4  1  0  0  0
 26 28  1  0  0  0
 18 19  1  0  0  0
 23 24  1  0  0  0
M  END
> <minimizedAffinity>
-7.05218

$$$$
5N84_8Q5_A_901


 28 31  0  0  0  0  0  0  0  0999 V2000
   39.2221   39.4461   39.7215 C   0  0  0  0  0  0  0  0  0  0  0  0
   39.9432   39.2228   40.8389 N   0  0  0  0  0  0  0  0  0  0  0  0
   40.0776   39.8290   42.0565 C   0  0  0  0  0  0  0  0  0  0  0  0
   40.9360   39.3140   43.0546 C   0  0  0  0  0  0  0  0  0  0  0  0
   41.6665   38.2000   42.8424 N   0  0  0  0  0  0  0  0  0  0  0  0
   41.5755   37.5420   41.6566 C   0  0  0  0  0  0  0  0  0  0  0  0
   40.6641   38.0895   40.5907 C   0  0  0  0  0  0  0  0  0  0  0  0
   40.4032   37.6354   39.3308 N   0  0  0  0  0  0  0  0  0  0  0  0
   39.5047   38.4846   38.7722 C   0  0  0  0  0  0  0  0  0  0  0  0
   36.7889   43.0016   39.4240 C   0  0  0  0  0  0  0  0  0  0  0  0
   38.0927   42.9237   38.8694 C   0  0  0  0  0  0  0  0  0  0  0  0
   38.8534   41.7376   38.9838 C   0  0  0  0  0  0  0  0  0  0  0  0
   38.3458   40.6328   39.6328 C   0  0  0  0  0  0  0  0  0  0  0  0
   37.0601   40.6967   40.1833 C   0  0  0  0  0  0  0  0  0  0  0  0
   36.2786   41.8606   40.0809 C   0  0  0  0  0  0  0  0  0  0  0  0
   35.6895   44.6206   38.1982 O   0  0  0  0  0  0  0  0  0  0  0  0
   35.9102   44.2397   39.3252 C   0  0  0  0  0  0  0  0  0  0  0  0
   35.4269   44.9037   40.3941 N   0  0  0  0  0  0  0  0  0  0  0  0
   35.6712   44.5834   41.2924 H   0  0  0  0  0  0  0  0  0  0  0  0
   34.5506   46.0855   40.2869 C   0  0  0  0  0  0  0  0  0  0  0  0
   33.6516   46.2234   41.5260 C   0  0  0  0  0  0  0  0  0  0  0  0
   34.6812   47.3083   41.2210 C   0  0  0  0  0  0  0  0  0  0  0  0
   42.2626   36.3927   41.4127 N   0  0  0  0  0  0  0  0  0  0  0  0
   41.8608   35.7202   40.8164 H   0  0  0  0  0  0  0  0  0  0  0  0
   43.5735   36.1153   41.9999 C   0  0  0  0  0  0  0  0  0  0  0  0
   44.0240   34.6428   41.8275 C   0  0  0  0  0  0  0  0  0  0  0  0
   44.6087   34.3627   40.4344 C   0  0  0  0  0  0  0  0  0  0  0  0
   45.0051   34.2031   42.9170 C   0  0  0  0  0  0  0  0  0  0  0  0
 21 22  1  0  0  0
 21 20  1  0  0  0
 22 20  1  0  0  0
 20 18  1  0  0  0
 18 17  1  0  0  0
 11 12  2  0  0  0
 11 10  1  0  0  0
 12 13  1  0  0  0
 17 10  1  0  0  0
 17 16  2  0  0  0
  9  8  1  0  0  0
  9  1  2  0  0  0
 10 15  2  0  0  0
  8  7  2  0  0  0
 13  1  1  0  0  0
 13 14  2  0  0  0
  1  2  1  0  0  0
 15 14  1  0  0  0
  7  2  1  0  0  0
  7  6  1  0  0  0
  2  3  1  0  0  0
 23  6  1  0  0  0
 23 25  1  0  0  0
  6  5  2  0  0  0
  3  4  2  0  0  0
 27 26  1  0  0  0
 25 26  1  0  0  0
  5  4  1  0  0  0
 26 28  1  0  0  0
 18 19  1  0  0  0
 23 24  1  0  0  0
M  END
> <minimizedAffinity>
-6.97850

$$$$
5N84_8Q5_A_901


 28 31  0  0  0  0  0  0  0  0999 V2000
   38.8884   39.6896   39.4889 C   0  0  0  0  0  0  0  0  0  0  0  0
   38.8222   38.7992   40.4995 N   0  0  0  0  0  0  0  0  0  0  0  0
   38.1304   38.6988   41.6740 C   0  0  0  0  0  0  0  0  0  0  0  0
   38.2796   37.5868   42.5339 C   0  0  0  0  0  0  0  0  0  0  0  0
   39.1206   36.5765   42.2316 N   0  0  0  0  0  0  0  0  0  0  0  0
   39.8343   36.6078   41.0752 C   0  0  0  0  0  0  0  0  0  0  0  0
   39.6795   37.7919   40.1585 C   0  0  0  0  0  0  0  0  0  0  0  0
   40.2776   38.0707   38.9643 N   0  0  0  0  0  0  0  0  0  0  0  0
   39.7944   39.2645   38.5381 C   0  0  0  0  0  0  0  0  0  0  0  0
   36.5083   43.2928   39.5478 C   0  0  0  0  0  0  0  0  0  0  0  0
   36.1194   42.1361   38.8235 C   0  0  0  0  0  0  0  0  0  0  0  0
   36.9252   40.9745   38.8364 C   0  0  0  0  0  0  0  0  0  0  0  0
   38.1020   40.9393   39.5528 C   0  0  0  0  0  0  0  0  0  0  0  0
   38.4961   42.0737   40.2725 C   0  0  0  0  0  0  0  0  0  0  0  0
   37.7131   43.2410   40.2824 C   0  0  0  0  0  0  0  0  0  0  0  0
   35.4606   45.0704   38.5110 O   0  0  0  0  0  0  0  0  0  0  0  0
   35.6831   44.5702   39.5901 C   0  0  0  0  0  0  0  0  0  0  0  0
   35.2471   45.1441   40.7292 N   0  0  0  0  0  0  0  0  0  0  0  0
   35.4921   44.7260   41.5862 H   0  0  0  0  0  0  0  0  0  0  0  0
   34.4217   46.3664   40.7576 C   0  0  0  0  0  0  0  0  0  0  0  0
   33.8375   46.6085   42.1585 C   0  0  0  0  0  0  0  0  0  0  0  0
   34.8158   47.6205   41.5679 C   0  0  0  0  0  0  0  0  0  0  0  0
   40.6640   35.5927   40.7097 N   0  0  0  0  0  0  0  0  0  0  0  0
   41.5061   35.8138   40.2502 H   0  0  0  0  0  0  0  0  0  0  0  0
   40.3562   34.1866   40.9714 C   0  0  0  0  0  0  0  0  0  0  0  0
   41.2530   33.5556   42.0662 C   0  0  0  0  0  0  0  0  0  0  0  0
   40.4963   33.3086   43.3804 C   0  0  0  0  0  0  0  0  0  0  0  0
   41.9329   32.2690   41.5912 C   0  0  0  0  0  0  0  0  0  0  0  0
 21 22  1  0  0  0
 21 20  1  0  0  0
 22 20  1  0  0  0
 20 18  1  0  0  0
 18 17  1  0  0  0
 11 12  2  0  0  0
 11 10  1  0  0  0
 12 13  1  0  0  0
 17 10  1  0  0  0
 17 16  2  0  0  0
  9  8  1  0  0  0
  9  1  2  0  0  0
 10 15  2  0  0  0
  8  7  2  0  0  0
 13  1  1  0  0  0
 13 14  2  0  0  0
  1  2  1  0  0  0
 15 14  1  0  0  0
  7  2  1  0  0  0
  7  6  1  0  0  0
  2  3  1  0  0  0
 23  6  1  0  0  0
 23 25  1  0  0  0
  6  5  2  0  0  0
  3  4  2  0  0  0
 27 26  1  0  0  0
 25 26  1  0  0  0
  5  4  1  0  0  0
 26 28  1  0  0  0
 18 19  1  0  0  0
 23 24  1  0  0  0
M  END
> <minimizedAffinity>
-6.94217

$$$$
5N84_8Q5_A_901


 28 31  0  0  0  0  0  0  0  0999 V2000
   35.2634   43.1504   42.5990 C   0  0  0  0  0  0  0  0  0  0  0  0
   35.2656   44.0293   41.5762 N   0  0  0  0  0  0  0  0  0  0  0  0
   35.8712   44.1091   40.3535 C   0  0  0  0  0  0  0  0  0  0  0  0
   35.6406   45.1940   39.4771 C   0  0  0  0  0  0  0  0  0  0  0  0
   34.8133   46.2039   39.8167 N   0  0  0  0  0  0  0  0  0  0  0  0
   34.1718   46.1848   41.0148 C   0  0  0  0  0  0  0  0  0  0  0  0
   34.4174   45.0319   41.9514 C   0  0  0  0  0  0  0  0  0  0  0  0
   33.9172   44.7807   43.1956 N   0  0  0  0  0  0  0  0  0  0  0  0
   34.4481   43.6051   43.6159 C   0  0  0  0  0  0  0  0  0  0  0  0
   37.6264   39.5400   42.4185 C   0  0  0  0  0  0  0  0  0  0  0  0
   36.2535   39.5692   42.0605 C   0  0  0  0  0  0  0  0  0  0  0  0
   35.5180   40.7746   42.1278 C   0  0  0  0  0  0  0  0  0  0  0  0
   36.1172   41.9455   42.5395 C   0  0  0  0  0  0  0  0  0  0  0  0
   37.4714   41.9301   42.8944 C   0  0  0  0  0  0  0  0  0  0  0  0
   38.2293   40.7479   42.8326 C   0  0  0  0  0  0  0  0  0  0  0  0
   39.6380   38.4665   42.0531 O   0  0  0  0  0  0  0  0  0  0  0  0
   38.4809   38.2829   42.3556 C   0  0  0  0  0  0  0  0  0  0  0  0
   38.0067   37.0415   42.5816 N   0  0  0  0  0  0  0  0  0  0  0  0
   37.0479   36.9367   42.7792 H   0  0  0  0  0  0  0  0  0  0  0  0
   38.8504   35.8320   42.5479 C   0  0  0  0  0  0  0  0  0  0  0  0
   37.9986   34.5668   42.3577 C   0  0  0  0  0  0  0  0  0  0  0  0
   39.0088   34.9602   41.2831 C   0  0  0  0  0  0  0  0  0  0  0  0
   33.2977   47.1610   41.3828 N   0  0  0  0  0  0  0  0  0  0  0  0
   32.3360   46.9509   41.4012 H   0  0  0  0  0  0  0  0  0  0  0  0
   33.7280   48.5096   41.7522 C   0  0  0  0  0  0  0  0  0  0  0  0
   35.0379   48.5307   42.5797 C   0  0  0  0  0  0  0  0  0  0  0  0
   35.9606   49.6980   42.1963 C   0  0  0  0  0  0  0  0  0  0  0  0
   34.7737   48.5314   44.0874 C   0  0  0  0  0  0  0  0  0  0  0  0
 21 22  1  0  0  0
 21 20  1  0  0  0
 22 20  1  0  0  0
 20 18  1  0  0  0
 18 17  1  0  0  0
 11 12  2  0  0  0
 11 10  1  0  0  0
 12 13  1  0  0  0
 17 10  1  0  0  0
 17 16  2  0  0  0
  9  8  1  0  0  0
  9  1  2  0  0  0
 10 15  2  0  0  0
  8  7  2  0  0  0
 13  1  1  0  0  0
 13 14  2  0  0  0
  1  2  1  0  0  0
 15 14  1  0  0  0
  7  2  1  0  0  0
  7  6  1  0  0  0
  2  3  1  0  0  0
 23  6  1  0  0  0
 23 25  1  0  0  0
  6  5  2  0  0  0
  3  4  2  0  0  0
 27 26  1  0  0  0
 25 26  1  0  0  0
  5  4  1  0  0  0
 26 28  1  0  0  0
 18 19  1  0  0  0
 23 24  1  0  0  0
M  END
> <minimizedAffinity>
-6.71190

$$$$
5N84_8Q5_A_901


 28 31  0  0  0  0  0  0  0  0999 V2000
   36.7086   42.4058   41.2176 C   0  0  0  0  0  0  0  0  0  0  0  0
   36.4410   43.2077   40.1669 N   0  0  0  0  0  0  0  0  0  0  0  0
   36.7095   43.1903   38.8269 C   0  0  0  0  0  0  0  0  0  0  0  0
   36.2535   44.2114   37.9622 C   0  0  0  0  0  0  0  0  0  0  0  0
   35.5357   45.2540   38.4284 N   0  0  0  0  0  0  0  0  0  0  0  0
   35.2258   45.3307   39.7495 C   0  0  0  0  0  0  0  0  0  0  0  0
   35.7122   44.2460   40.6734 C   0  0  0  0  0  0  0  0  0  0  0  0
   35.5521   44.0926   42.0196 N   0  0  0  0  0  0  0  0  0  0  0  0
   36.1810   42.9440   42.3741 C   0  0  0  0  0  0  0  0  0  0  0  0
   39.0071   38.7763   40.7763 C   0  0  0  0  0  0  0  0  0  0  0  0
   37.7364   38.7998   41.4076 C   0  0  0  0  0  0  0  0  0  0  0  0
   37.0139   40.0093   41.5253 C   0  0  0  0  0  0  0  0  0  0  0  0
   37.5255   41.1888   41.0287 C   0  0  0  0  0  0  0  0  0  0  0  0
   38.7778   41.1785   40.4027 C   0  0  0  0  0  0  0  0  0  0  0  0
   39.5167   39.9905   40.2666 C   0  0  0  0  0  0  0  0  0  0  0  0
   40.9448   37.6814   40.1607 O   0  0  0  0  0  0  0  0  0  0  0  0
   39.8315   37.5095   40.6022 C   0  0  0  0  0  0  0  0  0  0  0  0
   39.3728   36.2724   40.8779 N   0  0  0  0  0  0  0  0  0  0  0  0
   38.4443   36.1776   41.1913 H   0  0  0  0  0  0  0  0  0  0  0  0
   40.1906   35.0531   40.7343 C   0  0  0  0  0  0  0  0  0  0  0  0
   40.9918   34.7688   42.0149 C   0  0  0  0  0  0  0  0  0  0  0  0
   39.9303   33.7722   41.5567 C   0  0  0  0  0  0  0  0  0  0  0  0
   34.4704   46.3424   40.2577 N   0  0  0  0  0  0  0  0  0  0  0  0
   33.4910   46.2425   40.2647 H   0  0  0  0  0  0  0  0  0  0  0  0
   35.0536   47.5723   40.7939 C   0  0  0  0  0  0  0  0  0  0  0  0
   34.7761   47.7750   42.3049 C   0  0  0  0  0  0  0  0  0  0  0  0
   34.8299   49.2527   42.7227 C   0  0  0  0  0  0  0  0  0  0  0  0
   33.4523   47.1437   42.7431 C   0  0  0  0  0  0  0  0  0  0  0  0
 21 22  1  0  0  0
 21 20  1  0  0  0
 22 20  1  0  0  0
 20 18  1  0  0  0
 18 17  1  0  0  0
 11 12  2  0  0  0
 11 10  1  0  0  0
 12 13  1  0  0  0
 17 10  1  0  0  0
 17 16  2  0  0  0
  9  8  1  0  0  0
  9  1  2  0  0  0
 10 15  2  0  0  0
  8  7  2  0  0  0
 13  1  1  0  0  0
 13 14  2  0  0  0
  1  2  1  0  0  0
 15 14  1  0  0  0
  7  2  1  0  0  0
  7  6  1  0  0  0
  2  3  1  0  0  0
 23  6  1  0  0  0
 23 25  1  0  0  0
  6  5  2  0  0  0
  3  4  2  0  0  0
 27 26  1  0  0  0
 25 26  1  0  0  0
  5  4  1  0  0  0
 26 28  1  0  0  0
 18 19  1  0  0  0
 23 24  1  0  0  0
M  END
> <minimizedAffinity>
-6.64150

$$$$
5N84_8Q5_A_901


 28 31  0  0  0  0  0  0  0  0999 V2000
   35.6389   43.1411   42.3894 C   0  0  0  0  0  0  0  0  0  0  0  0
   35.5113   44.0349   41.3877 N   0  0  0  0  0  0  0  0  0  0  0  0
   36.0090   44.1662   40.1215 C   0  0  0  0  0  0  0  0  0  0  0  0
   35.6512   45.2511   39.2889 C   0  0  0  0  0  0  0  0  0  0  0  0
   34.8037   46.2101   39.7151 N   0  0  0  0  0  0  0  0  0  0  0  0
   34.2651   46.1380   40.9609 C   0  0  0  0  0  0  0  0  0  0  0  0
   34.6463   44.9851   41.8510 C   0  0  0  0  0  0  0  0  0  0  0  0
   34.2641   44.6879   43.1266 N   0  0  0  0  0  0  0  0  0  0  0  0
   34.8880   43.5358   43.4783 C   0  0  0  0  0  0  0  0  0  0  0  0
   38.4132   39.8612   41.9465 C   0  0  0  0  0  0  0  0  0  0  0  0
   38.8170   41.1425   42.4038 C   0  0  0  0  0  0  0  0  0  0  0  0
   37.8746   42.1873   42.5408 C   0  0  0  0  0  0  0  0  0  0  0  0
   36.5459   41.9844   42.2361 C   0  0  0  0  0  0  0  0  0  0  0  0
   36.1347   40.7244   41.7850 C   0  0  0  0  0  0  0  0  0  0  0  0
   37.0480   39.6652   41.6438 C   0  0  0  0  0  0  0  0  0  0  0  0
   39.0959   37.9217   40.8954 O   0  0  0  0  0  0  0  0  0  0  0  0
   39.3701   38.6888   41.7900 C   0  0  0  0  0  0  0  0  0  0  0  0
   40.4321   38.4752   42.5923 N   0  0  0  0  0  0  0  0  0  0  0  0
   40.5889   39.1010   43.3359 H   0  0  0  0  0  0  0  0  0  0  0  0
   41.3713   37.3519   42.4132 C   0  0  0  0  0  0  0  0  0  0  0  0
   42.6796   37.8222   41.7576 C   0  0  0  0  0  0  0  0  0  0  0  0
   42.7114   37.2554   43.1746 C   0  0  0  0  0  0  0  0  0  0  0  0
   33.3752   47.0605   41.4186 N   0  0  0  0  0  0  0  0  0  0  0  0
   32.4342   46.7934   41.5305 H   0  0  0  0  0  0  0  0  0  0  0  0
   33.7590   48.4324   41.7513 C   0  0  0  0  0  0  0  0  0  0  0  0
   35.0537   48.5193   42.5982 C   0  0  0  0  0  0  0  0  0  0  0  0
   35.9159   49.7386   42.2366 C   0  0  0  0  0  0  0  0  0  0  0  0
   34.7682   48.4937   44.1018 C   0  0  0  0  0  0  0  0  0  0  0  0
 21 22  1  0  0  0
 21 20  1  0  0  0
 22 20  1  0  0  0
 20 18  1  0  0  0
 18 17  1  0  0  0
 11 12  2  0  0  0
 11 10  1  0  0  0
 12 13  1  0  0  0
 17 10  1  0  0  0
 17 16  2  0  0  0
  9  8  1  0  0  0
  9  1  2  0  0  0
 10 15  2  0  0  0
  8  7  2  0  0  0
 13  1  1  0  0  0
 13 14  2  0  0  0
  1  2  1  0  0  0
 15 14  1  0  0  0
  7  2  1  0  0  0
  7  6  1  0  0  0
  2  3  1  0  0  0
 23  6  1  0  0  0
 23 25  1  0  0  0
  6  5  2  0  0  0
  3  4  2  0  0  0
 27 26  1  0  0  0
 25 26  1  0  0  0
  5  4  1  0  0  0
 26 28  1  0  0  0
 18 19  1  0  0  0
 23 24  1  0  0  0
M  END
> <minimizedAffinity>
-6.59216

$$$$
5N84_8Q5_A_901


 28 31  0  0  0  0  0  0  0  0999 V2000
   35.7064   44.3853   40.3824 C   0  0  0  0  0  0  0  0  0  0  0  0
   36.6962   43.5665   40.7927 N   0  0  0  0  0  0  0  0  0  0  0  0
   37.2210   43.1898   41.9972 C   0  0  0  0  0  0  0  0  0  0  0  0
   38.2844   42.2630   42.0896 C   0  0  0  0  0  0  0  0  0  0  0  0
   38.8318   41.7141   40.9857 N   0  0  0  0  0  0  0  0  0  0  0  0
   38.3534   42.0382   39.7555 C   0  0  0  0  0  0  0  0  0  0  0  0
   37.2227   43.0269   39.6537 C   0  0  0  0  0  0  0  0  0  0  0  0
   36.5771   43.5234   38.5590 N   0  0  0  0  0  0  0  0  0  0  0  0
   35.6278   44.3841   39.0043 C   0  0  0  0  0  0  0  0  0  0  0  0
   33.5401   46.8119   43.2232 C   0  0  0  0  0  0  0  0  0  0  0  0
   34.2203   47.3693   42.1095 C   0  0  0  0  0  0  0  0  0  0  0  0
   34.9123   46.5378   41.1994 C   0  0  0  0  0  0  0  0  0  0  0  0
   34.9395   45.1707   41.3720 C   0  0  0  0  0  0  0  0  0  0  0  0
   34.2713   44.6084   42.4663 C   0  0  0  0  0  0  0  0  0  0  0  0
   33.5708   45.4094   43.3848 C   0  0  0  0  0  0  0  0  0  0  0  0
   32.6154   47.1269   45.3156 O   0  0  0  0  0  0  0  0  0  0  0  0
   32.7640   47.6450   44.2323 C   0  0  0  0  0  0  0  0  0  0  0  0
   32.2406   48.8569   43.9599 N   0  0  0  0  0  0  0  0  0  0  0  0
   32.3474   49.2180   43.0503 H   0  0  0  0  0  0  0  0  0  0  0  0
   31.5158   49.6699   44.9548 C   0  0  0  0  0  0  0  0  0  0  0  0
   30.9819   50.9676   44.3276 C   0  0  0  0  0  0  0  0  0  0  0  0
   29.9968   49.9348   44.8689 C   0  0  0  0  0  0  0  0  0  0  0  0
   38.8475   41.4793   38.6171 N   0  0  0  0  0  0  0  0  0  0  0  0
   39.4528   42.0134   38.0534 H   0  0  0  0  0  0  0  0  0  0  0  0
   38.5165   40.1178   38.1963 C   0  0  0  0  0  0  0  0  0  0  0  0
   39.7023   39.1292   38.3286 C   0  0  0  0  0  0  0  0  0  0  0  0
   39.8148   38.5260   39.7372 C   0  0  0  0  0  0  0  0  0  0  0  0
   39.6555   38.0202   37.2746 C   0  0  0  0  0  0  0  0  0  0  0  0
 21 22  1  0  0  0
 21 20  1  0  0  0
 22 20  1  0  0  0
 20 18  1  0  0  0
 18 17  1  0  0  0
 11 12  2  0  0  0
 11 10  1  0  0  0
 12 13  1  0  0  0
 17 10  1  0  0  0
 17 16  2  0  0  0
  9  8  1  0  0  0
  9  1  2  0  0  0
 10 15  2  0  0  0
  8  7  2  0  0  0
 13  1  1  0  0  0
 13 14  2  0  0  0
  1  2  1  0  0  0
 15 14  1  0  0  0
  7  2  1  0  0  0
  7  6  1  0  0  0
  2  3  1  0  0  0
 23  6  1  0  0  0
 23 25  1  0  0  0
  6  5  2  0  0  0
  3  4  2  0  0  0
 27 26  1  0  0  0
 25 26  1  0  0  0
  5  4  1  0  0  0
 26 28  1  0  0  0
 18 19  1  0  0  0
 23 24  1  0  0  0
M  END
> <minimizedAffinity>
-6.53173

$$$$
5N84_8Q5_A_901


 28 31  0  0  0  0  0  0  0  0999 V2000
   36.0455   42.9669   40.4605 C   0  0  0  0  0  0  0  0  0  0  0  0
   37.0928   42.4569   41.1399 N   0  0  0  0  0  0  0  0  0  0  0  0
   37.8193   42.8205   42.2390 C   0  0  0  0  0  0  0  0  0  0  0  0
   38.8841   42.0274   42.7242 C   0  0  0  0  0  0  0  0  0  0  0  0
   39.2327   40.8757   42.1147 N   0  0  0  0  0  0  0  0  0  0  0  0
   38.5476   40.4500   41.0207 C   0  0  0  0  0  0  0  0  0  0  0  0
   37.4146   41.2938   40.5001 C   0  0  0  0  0  0  0  0  0  0  0  0
   36.5882   41.1035   39.4313 N   0  0  0  0  0  0  0  0  0  0  0  0
   35.7290   42.1526   39.3917 C   0  0  0  0  0  0  0  0  0  0  0  0
   34.2420   46.6720   41.7531 C   0  0  0  0  0  0  0  0  0  0  0  0
   34.1295   45.4703   42.4995 C   0  0  0  0  0  0  0  0  0  0  0  0
   34.7413   44.2802   42.0434 C   0  0  0  0  0  0  0  0  0  0  0  0
   35.4606   44.2615   40.8679 C   0  0  0  0  0  0  0  0  0  0  0  0
   35.5799   45.4409   40.1229 C   0  0  0  0  0  0  0  0  0  0  0  0
   34.9868   46.6403   40.5539 C   0  0  0  0  0  0  0  0  0  0  0  0
   33.2643   48.0270   43.3469 O   0  0  0  0  0  0  0  0  0  0  0  0
   33.6225   47.9905   42.1918 C   0  0  0  0  0  0  0  0  0  0  0  0
   33.4421   49.0443   41.3709 N   0  0  0  0  0  0  0  0  0  0  0  0
   33.7071   48.9518   40.4272 H   0  0  0  0  0  0  0  0  0  0  0  0
   32.8682   50.3290   41.8139 C   0  0  0  0  0  0  0  0  0  0  0  0
   33.9660   51.3848   42.0206 C   0  0  0  0  0  0  0  0  0  0  0  0
   32.9066   51.6042   40.9437 C   0  0  0  0  0  0  0  0  0  0  0  0
   38.8377   39.2753   40.3975 N   0  0  0  0  0  0  0  0  0  0  0  0
   38.2016   38.5283   40.4790 H   0  0  0  0  0  0  0  0  0  0  0  0
   40.0556   39.0767   39.6117 C   0  0  0  0  0  0  0  0  0  0  0  0
   39.8200   38.2752   38.3067 C   0  0  0  0  0  0  0  0  0  0  0  0
   39.4791   36.8007   38.5719 C   0  0  0  0  0  0  0  0  0  0  0  0
   38.7555   38.9174   37.4136 C   0  0  0  0  0  0  0  0  0  0  0  0
 21 22  1  0  0  0
 21 20  1  0  0  0
 22 20  1  0  0  0
 20 18  1  0  0  0
 18 17  1  0  0  0
 11 12  2  0  0  0
 11 10  1  0  0  0
 12 13  1  0  0  0
 17 10  1  0  0  0
 17 16  2  0  0  0
  9  8  1  0  0  0
  9  1  2  0  0  0
 10 15  2  0  0  0
  8  7  2  0  0  0
 13  1  1  0  0  0
 13 14  2  0  0  0
  1  2  1  0  0  0
 15 14  1  0  0  0
  7  2  1  0  0  0
  7  6  1  0  0  0
  2  3  1  0  0  0
 23  6  1  0  0  0
 23 25  1  0  0  0
  6  5  2  0  0  0
  3  4  2  0  0  0
 27 26  1  0  0  0
 25 26  1  0  0  0
  5  4  1  0  0  0
 26 28  1  0  0  0
 18 19  1  0  0  0
 23 24  1  0  0  0
M  END
> <minimizedAffinity>
-6.43423

$$$$
