1QBQ_HFP_B_2001


 23 22  0  0  0  0  0  0  0  0999 V2000
  186.0891  128.6012   29.8295 C   0  0  0  0  0  0  0  0  0  0  0  0
  186.4020  127.1856   29.4121 C   0  0  0  0  0  0  0  0  0  0  0  0
  186.0144  129.5800   28.9153 C   0  0  0  0  0  0  0  0  0  0  0  0
  185.1728  129.4707   27.6634 C   0  0  0  0  0  0  0  0  0  0  0  0
  184.2529  130.5786   27.6191 O   0  0  0  0  0  0  0  0  0  0  0  0
  184.7500  131.4116   27.6128 H   0  0  0  0  0  0  0  0  0  0  0  0
  186.2642  129.5307   26.1868 P   0  0  0  0  0  0  0  0  0  0  0  0
  187.2994  130.5218   26.4362 O   0  0  0  0  0  0  0  0  0  0  0  0
  185.3748  129.8915   24.9509 O   0  0  0  0  0  0  0  0  0  0  0  0
  186.8522  128.1199   25.9834 O   0  0  0  0  0  0  0  0  0  0  0  0
  185.9278  129.9299   24.1548 H   0  0  0  0  0  0  0  0  0  0  0  0
  187.4347  128.1212   25.2078 H   0  0  0  0  0  0  0  0  0  0  0  0
  185.8485  128.9013   31.3001 C   0  0  0  0  0  0  0  0  0  0  0  0
  187.0055  128.3641   32.1939 C   0  0  0  0  0  0  0  0  0  0  0  0
  186.5582  127.1187   32.9455 C   0  0  0  0  0  0  0  0  0  0  0  0
  187.2268  125.9532   32.8649 C   0  0  0  0  0  0  0  0  0  0  0  0
  188.7057  125.9075   33.1661 C   0  0  0  0  0  0  0  0  0  0  0  0
  186.5248  124.6654   32.4501 C   0  0  0  0  0  0  0  0  0  0  0  0
  187.4563  123.7438   31.6965 C   0  0  0  0  0  0  0  0  0  0  0  0
  186.6727  122.5469   31.1718 C   0  0  0  0  0  0  0  0  0  0  0  0
  185.4645  122.6632   30.5671 C   0  0  0  0  0  0  0  0  0  0  0  0
  184.2256  122.0190   31.1478 C   0  0  0  0  0  0  0  0  0  0  0  0
  185.3100  123.4622   29.2863 C   0  0  0  0  0  0  0  0  0  0  0  0
  7  8  2  0  0  0
  7  9  1  0  0  0
  7 10  1  0  0  0
  7  4  1  0  0  0
  4  5  1  0  0  0
  4  3  1  0  0  0
  3  1  1  0  0  0
  1  2  1  0  0  0
  1 13  1  0  0  0
 13 14  1  0  0  0
 14 15  1  0  0  0
 15 16  1  0  0  0
 16 17  1  0  0  0
 16 18  1  0  0  0
 18 19  1  0  0  0
 19 20  1  0  0  0
 20 21  1  0  0  0
 21 22  1  0  0  0
 21 23  1  0  0  0
  9 11  1  0  0  0
 10 12  1  0  0  0
  5  6  1  0  0  0
M  END
> <minimizedAffinity>
-7.14604

$$$$
1QBQ_HFP_B_2001


 23 22  0  0  0  0  0  0  0  0999 V2000
  187.4767  128.0975   29.1529 C   0  0  0  0  0  0  0  0  0  0  0  0
  188.6638  127.1687   29.0894 C   0  0  0  0  0  0  0  0  0  0  0  0
  187.4909  129.2668   28.4957 C   0  0  0  0  0  0  0  0  0  0  0  0
  186.3868  129.6918   27.5535 C   0  0  0  0  0  0  0  0  0  0  0  0
  186.0820  131.0808   27.7850 O   0  0  0  0  0  0  0  0  0  0  0  0
  186.8756  131.6163   27.6288 H   0  0  0  0  0  0  0  0  0  0  0  0
  186.9487  129.4765   25.8177 P   0  0  0  0  0  0  0  0  0  0  0  0
  187.3801  128.0967   25.6555 O   0  0  0  0  0  0  0  0  0  0  0  0
  188.1043  130.4997   25.5602 O   0  0  0  0  0  0  0  0  0  0  0  0
  185.7616  129.8226   24.8966 O   0  0  0  0  0  0  0  0  0  0  0  0
  188.4207  130.4073   24.6479 H   0  0  0  0  0  0  0  0  0  0  0  0
  186.0298  129.7176   23.9703 H   0  0  0  0  0  0  0  0  0  0  0  0
  186.2588  127.6847   29.9634 C   0  0  0  0  0  0  0  0  0  0  0  0
  186.1681  128.4693   31.3060 C   0  0  0  0  0  0  0  0  0  0  0  0
  186.1612  127.5042   32.4826 C   0  0  0  0  0  0  0  0  0  0  0  0
  187.1174  126.5719   32.6515 C   0  0  0  0  0  0  0  0  0  0  0  0
  188.5592  126.9889   32.8167 C   0  0  0  0  0  0  0  0  0  0  0  0
  186.7808  125.0854   32.6580 C   0  0  0  0  0  0  0  0  0  0  0  0
  187.6839  124.3080   31.7280 C   0  0  0  0  0  0  0  0  0  0  0  0
  187.0269  122.9795   31.3739 C   0  0  0  0  0  0  0  0  0  0  0  0
  185.7862  122.8904   30.8339 C   0  0  0  0  0  0  0  0  0  0  0  0
  184.6789  122.1235   31.5216 C   0  0  0  0  0  0  0  0  0  0  0  0
  185.4595  123.5748   29.5195 C   0  0  0  0  0  0  0  0  0  0  0  0
  7  8  2  0  0  0
  7  9  1  0  0  0
  7 10  1  0  0  0
  7  4  1  0  0  0
  4  5  1  0  0  0
  4  3  1  0  0  0
  3  1  1  0  0  0
  1  2  1  0  0  0
  1 13  1  0  0  0
 13 14  1  0  0  0
 14 15  1  0  0  0
 15 16  1  0  0  0
 16 17  1  0  0  0
 16 18  1  0  0  0
 18 19  1  0  0  0
 19 20  1  0  0  0
 20 21  1  0  0  0
 21 22  1  0  0  0
 21 23  1  0  0  0
  9 11  1  0  0  0
 10 12  1  0  0  0
  5  6  1  0  0  0
M  END
> <minimizedAffinity>
-6.96842

$$$$
1QBQ_HFP_B_2001


 23 22  0  0  0  0  0  0  0  0999 V2000
  186.8559  128.2673   32.4319 C   0  0  0  0  0  0  0  0  0  0  0  0
  187.9180  129.1040   33.1010 C   0  0  0  0  0  0  0  0  0  0  0  0
  186.4439  128.5566   31.1885 C   0  0  0  0  0  0  0  0  0  0  0  0
  187.3639  129.1243   30.1308 C   0  0  0  0  0  0  0  0  0  0  0  0
  188.3147  128.1128   29.7450 O   0  0  0  0  0  0  0  0  0  0  0  0
  187.8420  127.3418   29.3942 H   0  0  0  0  0  0  0  0  0  0  0  0
  186.3757  129.6175   28.6628 P   0  0  0  0  0  0  0  0  0  0  0  0
  185.1119  130.1601   29.1366 O   0  0  0  0  0  0  0  0  0  0  0  0
  186.1847  128.3480   27.7680 O   0  0  0  0  0  0  0  0  0  0  0  0
  187.1948  130.6620   27.8783 O   0  0  0  0  0  0  0  0  0  0  0  0
  185.6645  128.5809   26.9832 H   0  0  0  0  0  0  0  0  0  0  0  0
  186.6961  130.9419   27.0948 H   0  0  0  0  0  0  0  0  0  0  0  0
  186.2664  127.0843   33.1825 C   0  0  0  0  0  0  0  0  0  0  0  0
  187.1940  125.8352   33.1081 C   0  0  0  0  0  0  0  0  0  0  0  0
  186.4321  124.6437   32.5464 C   0  0  0  0  0  0  0  0  0  0  0  0
  186.7478  124.0829   31.3640 C   0  0  0  0  0  0  0  0  0  0  0  0
  186.9819  124.9535   30.1528 C   0  0  0  0  0  0  0  0  0  0  0  0
  186.8545  122.5704   31.2091 C   0  0  0  0  0  0  0  0  0  0  0  0
  187.9635  122.0019   32.0644 C   0  0  0  0  0  0  0  0  0  0  0  0
  189.2825  122.0810   31.3054 C   0  0  0  0  0  0  0  0  0  0  0  0
  190.4337  122.5226   31.8699 C   0  0  0  0  0  0  0  0  0  0  0  0
  191.7707  122.3317   31.1896 C   0  0  0  0  0  0  0  0  0  0  0  0
  190.4182  123.2421   33.2059 C   0  0  0  0  0  0  0  0  0  0  0  0
  7  8  2  0  0  0
  7  9  1  0  0  0
  7 10  1  0  0  0
  7  4  1  0  0  0
  4  5  1  0  0  0
  4  3  1  0  0  0
  3  1  1  0  0  0
  1  2  1  0  0  0
  1 13  1  0  0  0
 13 14  1  0  0  0
 14 15  1  0  0  0
 15 16  1  0  0  0
 16 17  1  0  0  0
 16 18  1  0  0  0
 18 19  1  0  0  0
 19 20  1  0  0  0
 20 21  1  0  0  0
 21 22  1  0  0  0
 21 23  1  0  0  0
  9 11  1  0  0  0
 10 12  1  0  0  0
  5  6  1  0  0  0
M  END
> <minimizedAffinity>
-6.63170

$$$$
1QBQ_HFP_B_2001


 23 22  0  0  0  0  0  0  0  0999 V2000
  191.0206  123.1337   31.1538 C   0  0  0  0  0  0  0  0  0  0  0  0
  192.4368  122.7961   30.7583 C   0  0  0  0  0  0  0  0  0  0  0  0
  190.6731  124.4006   31.4255 C   0  0  0  0  0  0  0  0  0  0  0  0
  191.6539  125.4259   31.9491 C   0  0  0  0  0  0  0  0  0  0  0  0
  191.1679  126.7444   31.6311 O   0  0  0  0  0  0  0  0  0  0  0  0
  190.2991  126.8765   32.0420 H   0  0  0  0  0  0  0  0  0  0  0  0
  191.7980  125.2575   33.7729 P   0  0  0  0  0  0  0  0  0  0  0  0
  192.9130  124.3660   34.0526 O   0  0  0  0  0  0  0  0  0  0  0  0
  190.4372  124.7015   34.3094 O   0  0  0  0  0  0  0  0  0  0  0  0
  192.0254  126.6670   34.3552 O   0  0  0  0  0  0  0  0  0  0  0  0
  190.4858  124.6026   35.2731 H   0  0  0  0  0  0  0  0  0  0  0  0
  192.1054  126.6091   35.3201 H   0  0  0  0  0  0  0  0  0  0  0  0
  189.9896  122.0194   31.2295 C   0  0  0  0  0  0  0  0  0  0  0  0
  188.8721  122.3387   32.2665 C   0  0  0  0  0  0  0  0  0  0  0  0
  187.5120  121.9279   31.7213 C   0  0  0  0  0  0  0  0  0  0  0  0
  186.5282  122.8199   31.5009 C   0  0  0  0  0  0  0  0  0  0  0  0
  185.0836  122.3941   31.6086 C   0  0  0  0  0  0  0  0  0  0  0  0
  186.8388  124.2622   31.1184 C   0  0  0  0  0  0  0  0  0  0  0  0
  186.8052  125.1751   32.3227 C   0  0  0  0  0  0  0  0  0  0  0  0
  187.7439  126.3534   32.0941 C   0  0  0  0  0  0  0  0  0  0  0  0
  187.3982  127.6361   32.3662 C   0  0  0  0  0  0  0  0  0  0  0  0
  188.3502  128.5785   33.0681 C   0  0  0  0  0  0  0  0  0  0  0  0
  186.0406  128.1784   31.9593 C   0  0  0  0  0  0  0  0  0  0  0  0
  7  8  2  0  0  0
  7  9  1  0  0  0
  7 10  1  0  0  0
  7  4  1  0  0  0
  4  5  1  0  0  0
  4  3  1  0  0  0
  3  1  1  0  0  0
  1  2  1  0  0  0
  1 13  1  0  0  0
 13 14  1  0  0  0
 14 15  1  0  0  0
 15 16  1  0  0  0
 16 17  1  0  0  0
 16 18  1  0  0  0
 18 19  1  0  0  0
 19 20  1  0  0  0
 20 21  1  0  0  0
 21 22  1  0  0  0
 21 23  1  0  0  0
  9 11  1  0  0  0
 10 12  1  0  0  0
  5  6  1  0  0  0
M  END
> <minimizedAffinity>
-6.61084

$$$$
1QBQ_HFP_B_2001


 23 22  0  0  0  0  0  0  0  0999 V2000
  186.9784  126.8746   32.3812 C   0  0  0  0  0  0  0  0  0  0  0  0
  186.2096  126.0888   33.4144 C   0  0  0  0  0  0  0  0  0  0  0  0
  186.4381  127.9628   31.8125 C   0  0  0  0  0  0  0  0  0  0  0  0
  186.6533  128.3211   30.3590 C   0  0  0  0  0  0  0  0  0  0  0  0
  185.7899  127.5062   29.5428 O   0  0  0  0  0  0  0  0  0  0  0  0
  184.8657  127.6658   29.7903 H   0  0  0  0  0  0  0  0  0  0  0  0
  186.2382  130.0918   30.0986 P   0  0  0  0  0  0  0  0  0  0  0  0
  185.3440  130.5033   31.1698 O   0  0  0  0  0  0  0  0  0  0  0  0
  185.5805  130.2245   28.6850 O   0  0  0  0  0  0  0  0  0  0  0  0
  187.5588  130.8875   30.1111 O   0  0  0  0  0  0  0  0  0  0  0  0
  185.3506  131.1525   28.5212 H   0  0  0  0  0  0  0  0  0  0  0  0
  187.3702  131.8292   29.9754 H   0  0  0  0  0  0  0  0  0  0  0  0
  188.3789  126.4223   32.0012 C   0  0  0  0  0  0  0  0  0  0  0  0
  189.1171  125.7632   33.2040 C   0  0  0  0  0  0  0  0  0  0  0  0
  190.2731  124.9060   32.7093 C   0  0  0  0  0  0  0  0  0  0  0  0
  190.0775  123.7665   32.0198 C   0  0  0  0  0  0  0  0  0  0  0  0
  190.7011  123.5916   30.6559 C   0  0  0  0  0  0  0  0  0  0  0  0
  189.2130  122.6422   32.5783 C   0  0  0  0  0  0  0  0  0  0  0  0
  188.2417  122.1229   31.5431 C   0  0  0  0  0  0  0  0  0  0  0  0
  186.8191  122.4794   31.9566 C   0  0  0  0  0  0  0  0  0  0  0  0
  185.8653  122.8569   31.0696 C   0  0  0  0  0  0  0  0  0  0  0  0
  186.1246  123.9368   30.0432 C   0  0  0  0  0  0  0  0  0  0  0  0
  184.5005  122.1935   31.0664 C   0  0  0  0  0  0  0  0  0  0  0  0
  7  8  2  0  0  0
  7  9  1  0  0  0
  7 10  1  0  0  0
  7  4  1  0  0  0
  4  5  1  0  0  0
  4  3  1  0  0  0
  3  1  1  0  0  0
  1  2  1  0  0  0
  1 13  1  0  0  0
 13 14  1  0  0  0
 14 15  1  0  0  0
 15 16  1  0  0  0
 16 17  1  0  0  0
 16 18  1  0  0  0
 18 19  1  0  0  0
 19 20  1  0  0  0
 20 21  1  0  0  0
 21 22  1  0  0  0
 21 23  1  0  0  0
  9 11  1  0  0  0
 10 12  1  0  0  0
  5  6  1  0  0  0
M  END
> <minimizedAffinity>
-6.52784

$$$$
1QBQ_HFP_B_2001


 23 22  0  0  0  0  0  0  0  0999 V2000
  192.5156  124.2356   31.2235 C   0  0  0  0  0  0  0  0  0  0  0  0
  192.3387  122.7926   30.8205 C   0  0  0  0  0  0  0  0  0  0  0  0
  193.7431  124.7623   31.3482 C   0  0  0  0  0  0  0  0  0  0  0  0
  194.3278  125.7272   30.3410 C   0  0  0  0  0  0  0  0  0  0  0  0
  194.9297  126.8311   31.0445 O   0  0  0  0  0  0  0  0  0  0  0  0
  195.6282  126.4992   31.6299 H   0  0  0  0  0  0  0  0  0  0  0  0
  195.6135  124.8690   29.3482 P   0  0  0  0  0  0  0  0  0  0  0  0
  196.0063  123.6677   30.0685 O   0  0  0  0  0  0  0  0  0  0  0  0
  196.8046  125.8639   29.1482 O   0  0  0  0  0  0  0  0  0  0  0  0
  194.9998  124.5426   27.9719 O   0  0  0  0  0  0  0  0  0  0  0  0
  197.5000  125.4349   28.6254 H   0  0  0  0  0  0  0  0  0  0  0  0
  195.6582  124.0874   27.4241 H   0  0  0  0  0  0  0  0  0  0  0  0
  191.2828  125.0882   31.4757 C   0  0  0  0  0  0  0  0  0  0  0  0
  190.1081  124.6952   30.5315 C   0  0  0  0  0  0  0  0  0  0  0  0
  188.7882  125.2096   31.0876 C   0  0  0  0  0  0  0  0  0  0  0  0
  187.9413  124.4187   31.7726 C   0  0  0  0  0  0  0  0  0  0  0  0
  188.3273  122.9940   32.0906 C   0  0  0  0  0  0  0  0  0  0  0  0
  186.5753  124.9239   32.2220 C   0  0  0  0  0  0  0  0  0  0  0  0
  186.6737  125.7285   33.4978 C   0  0  0  0  0  0  0  0  0  0  0  0
  186.1267  127.1305   33.2583 C   0  0  0  0  0  0  0  0  0  0  0  0
  186.7691  128.0540   32.5011 C   0  0  0  0  0  0  0  0  0  0  0  0
  188.1695  128.5152   32.8375 C   0  0  0  0  0  0  0  0  0  0  0  0
  186.1062  128.6492   31.2727 C   0  0  0  0  0  0  0  0  0  0  0  0
  7  8  2  0  0  0
  7  9  1  0  0  0
  7 10  1  0  0  0
  7  4  1  0  0  0
  4  5  1  0  0  0
  4  3  1  0  0  0
  3  1  1  0  0  0
  1  2  1  0  0  0
  1 13  1  0  0  0
 13 14  1  0  0  0
 14 15  1  0  0  0
 15 16  1  0  0  0
 16 17  1  0  0  0
 16 18  1  0  0  0
 18 19  1  0  0  0
 19 20  1  0  0  0
 20 21  1  0  0  0
 21 22  1  0  0  0
 21 23  1  0  0  0
  9 11  1  0  0  0
 10 12  1  0  0  0
  5  6  1  0  0  0
M  END
> <minimizedAffinity>
-6.48138

$$$$
1QBQ_HFP_B_2001


 23 22  0  0  0  0  0  0  0  0999 V2000
  189.9435  127.9461   31.9024 C   0  0  0  0  0  0  0  0  0  0  0  0
  189.6163  128.8383   30.7308 C   0  0  0  0  0  0  0  0  0  0  0  0
  191.0422  127.1766   31.8865 C   0  0  0  0  0  0  0  0  0  0  0  0
  190.9853  125.6665   31.8264 C   0  0  0  0  0  0  0  0  0  0  0  0
  191.9620  125.1982   30.8764 O   0  0  0  0  0  0  0  0  0  0  0  0
  192.8461  125.4859   31.1532 H   0  0  0  0  0  0  0  0  0  0  0  0
  191.3724  124.9743   33.4835 P   0  0  0  0  0  0  0  0  0  0  0  0
  190.1161  124.6106   34.1205 O   0  0  0  0  0  0  0  0  0  0  0  0
  192.1565  126.0658   34.2850 O   0  0  0  0  0  0  0  0  0  0  0  0
  192.2897  123.7524   33.2762 O   0  0  0  0  0  0  0  0  0  0  0  0
  192.3742  125.7254   35.1668 H   0  0  0  0  0  0  0  0  0  0  0  0
  192.5115  123.3648   34.1373 H   0  0  0  0  0  0  0  0  0  0  0  0
  189.0162  127.9391   33.1068 C   0  0  0  0  0  0  0  0  0  0  0  0
  187.6437  128.5992   32.7803 C   0  0  0  0  0  0  0  0  0  0  0  0
  186.5534  127.5405   32.7013 C   0  0  0  0  0  0  0  0  0  0  0  0
  186.6741  126.4423   31.9322 C   0  0  0  0  0  0  0  0  0  0  0  0
  186.7036  126.5721   30.4282 C   0  0  0  0  0  0  0  0  0  0  0  0
  186.7605  125.0507   32.5480 C   0  0  0  0  0  0  0  0  0  0  0  0
  187.6175  124.1269   31.7131 C   0  0  0  0  0  0  0  0  0  0  0  0
  186.9113  122.7864   31.5507 C   0  0  0  0  0  0  0  0  0  0  0  0
  185.6488  122.6708   31.0692 C   0  0  0  0  0  0  0  0  0  0  0  0
  184.5480  122.0309   31.8851 C   0  0  0  0  0  0  0  0  0  0  0  0
  185.2911  123.1971   29.6916 C   0  0  0  0  0  0  0  0  0  0  0  0
  7  8  2  0  0  0
  7  9  1  0  0  0
  7 10  1  0  0  0
  7  4  1  0  0  0
  4  5  1  0  0  0
  4  3  1  0  0  0
  3  1  1  0  0  0
  1  2  1  0  0  0
  1 13  1  0  0  0
 13 14  1  0  0  0
 14 15  1  0  0  0
 15 16  1  0  0  0
 16 17  1  0  0  0
 16 18  1  0  0  0
 18 19  1  0  0  0
 19 20  1  0  0  0
 20 21  1  0  0  0
 21 22  1  0  0  0
 21 23  1  0  0  0
  9 11  1  0  0  0
 10 12  1  0  0  0
  5  6  1  0  0  0
M  END
> <minimizedAffinity>
-6.47989

$$$$
1QBQ_HFP_B_2001


 23 22  0  0  0  0  0  0  0  0999 V2000
  186.2417  128.6500   29.8953 C   0  0  0  0  0  0  0  0  0  0  0  0
  186.5633  127.1825   29.7579 C   0  0  0  0  0  0  0  0  0  0  0  0
  186.2688  129.4565   28.8237 C   0  0  0  0  0  0  0  0  0  0  0  0
  185.2842  129.3367   27.6819 C   0  0  0  0  0  0  0  0  0  0  0  0
  184.2742  130.3540   27.8255 O   0  0  0  0  0  0  0  0  0  0  0  0
  184.6925  131.2291   27.8122 H   0  0  0  0  0  0  0  0  0  0  0  0
  186.1651  129.5791   26.0880 P   0  0  0  0  0  0  0  0  0  0  0  0
  185.1682  129.8439   25.0622 O   0  0  0  0  0  0  0  0  0  0  0  0
  186.9928  128.2831   25.7987 O   0  0  0  0  0  0  0  0  0  0  0  0
  187.1374  130.7623   26.2674 O   0  0  0  0  0  0  0  0  0  0  0  0
  187.4695  128.3844   24.9599 H   0  0  0  0  0  0  0  0  0  0  0  0
  187.6183  130.9142   25.4388 H   0  0  0  0  0  0  0  0  0  0  0  0
  185.8755  129.2006   31.2640 C   0  0  0  0  0  0  0  0  0  0  0  0
  186.9129  130.2522   31.7578 C   0  0  0  0  0  0  0  0  0  0  0  0
  187.8978  129.6098   32.7239 C   0  0  0  0  0  0  0  0  0  0  0  0
  189.0368  129.0271   32.3054 C   0  0  0  0  0  0  0  0  0  0  0  0
  189.7307  129.5297   31.0621 C   0  0  0  0  0  0  0  0  0  0  0  0
  189.6403  127.8429   33.0515 C   0  0  0  0  0  0  0  0  0  0  0  0
  189.4096  126.5451   32.3115 C   0  0  0  0  0  0  0  0  0  0  0  0
  188.5604  125.6148   33.1690 C   0  0  0  0  0  0  0  0  0  0  0  0
  187.2266  125.4538   32.9850 C   0  0  0  0  0  0  0  0  0  0  0  0
  186.2231  126.3898   33.6207 C   0  0  0  0  0  0  0  0  0  0  0  0
  186.6917  124.3303   32.1164 C   0  0  0  0  0  0  0  0  0  0  0  0
  7  8  2  0  0  0
  7  9  1  0  0  0
  7 10  1  0  0  0
  7  4  1  0  0  0
  4  5  1  0  0  0
  4  3  1  0  0  0
  3  1  1  0  0  0
  1  2  1  0  0  0
  1 13  1  0  0  0
 13 14  1  0  0  0
 14 15  1  0  0  0
 15 16  1  0  0  0
 16 17  1  0  0  0
 16 18  1  0  0  0
 18 19  1  0  0  0
 19 20  1  0  0  0
 20 21  1  0  0  0
 21 22  1  0  0  0
 21 23  1  0  0  0
  9 11  1  0  0  0
 10 12  1  0  0  0
  5  6  1  0  0  0
M  END
> <minimizedAffinity>
-6.45226

$$$$
1QBQ_HFP_B_2001


 23 22  0  0  0  0  0  0  0  0999 V2000
  192.0552  125.6531   31.5871 C   0  0  0  0  0  0  0  0  0  0  0  0
  190.7951  125.9535   30.8139 C   0  0  0  0  0  0  0  0  0  0  0  0
  193.2540  125.7219   30.9890 C   0  0  0  0  0  0  0  0  0  0  0  0
  194.0619  124.4955   30.6278 C   0  0  0  0  0  0  0  0  0  0  0  0
  193.2354  123.5992   29.8602 O   0  0  0  0  0  0  0  0  0  0  0  0
  192.9344  124.0472   29.0542 H   0  0  0  0  0  0  0  0  0  0  0  0
  195.5126  124.9957   29.6175 P   0  0  0  0  0  0  0  0  0  0  0  0
  196.6979  124.3952   30.2096 O   0  0  0  0  0  0  0  0  0  0  0  0
  195.5728  126.5593   29.6110 O   0  0  0  0  0  0  0  0  0  0  0  0
  195.2718  124.4998   28.1775 O   0  0  0  0  0  0  0  0  0  0  0  0
  196.3321  126.8514   29.0829 H   0  0  0  0  0  0  0  0  0  0  0  0
  196.0243  124.7505   27.6192 H   0  0  0  0  0  0  0  0  0  0  0  0
  191.9485  125.2818   33.0572 C   0  0  0  0  0  0  0  0  0  0  0  0
  191.9889  123.7387   33.2655 C   0  0  0  0  0  0  0  0  0  0  0  0
  190.5766  123.1838   33.3807 C   0  0  0  0  0  0  0  0  0  0  0  0
  189.9711  122.5457   32.3617 C   0  0  0  0  0  0  0  0  0  0  0  0
  190.7769  122.0928   31.1678 C   0  0  0  0  0  0  0  0  0  0  0  0
  188.4694  122.2849   32.3720 C   0  0  0  0  0  0  0  0  0  0  0  0
  187.6885  123.5248   32.0008 C   0  0  0  0  0  0  0  0  0  0  0  0
  186.6449  123.1721   30.9480 C   0  0  0  0  0  0  0  0  0  0  0  0
  186.2075  124.0560   30.0171 C   0  0  0  0  0  0  0  0  0  0  0  0
  185.2368  123.6451   28.9327 C   0  0  0  0  0  0  0  0  0  0  0  0
  186.6684  125.5016   30.0408 C   0  0  0  0  0  0  0  0  0  0  0  0
  7  8  2  0  0  0
  7  9  1  0  0  0
  7 10  1  0  0  0
  7  4  1  0  0  0
  4  5  1  0  0  0
  4  3  1  0  0  0
  3  1  1  0  0  0
  1  2  1  0  0  0
  1 13  1  0  0  0
 13 14  1  0  0  0
 14 15  1  0  0  0
 15 16  1  0  0  0
 16 17  1  0  0  0
 16 18  1  0  0  0
 18 19  1  0  0  0
 19 20  1  0  0  0
 20 21  1  0  0  0
 21 22  1  0  0  0
 21 23  1  0  0  0
  9 11  1  0  0  0
 10 12  1  0  0  0
  5  6  1  0  0  0
M  END
> <minimizedAffinity>
-6.40913

$$$$
1QBQ_HFP_B_2001


 23 22  0  0  0  0  0  0  0  0999 V2000
  190.1910  126.3878   31.3145 C   0  0  0  0  0  0  0  0  0  0  0  0
  189.7949  126.7555   29.9060 C   0  0  0  0  0  0  0  0  0  0  0  0
  190.5632  125.1338   31.6118 C   0  0  0  0  0  0  0  0  0  0  0  0
  191.9370  124.7901   32.1430 C   0  0  0  0  0  0  0  0  0  0  0  0
  192.8424  125.8668   31.8321 O   0  0  0  0  0  0  0  0  0  0  0  0
  192.5236  126.6859   32.2424 H   0  0  0  0  0  0  0  0  0  0  0  0
  191.8515  124.5785   33.9659 P   0  0  0  0  0  0  0  0  0  0  0  0
  192.5318  123.3380   34.3042 O   0  0  0  0  0  0  0  0  0  0  0  0
  190.3409  124.5638   34.3740 O   0  0  0  0  0  0  0  0  0  0  0  0
  192.5303  125.8038   34.6103 O   0  0  0  0  0  0  0  0  0  0  0  0
  190.2666  124.4529   35.3347 H   0  0  0  0  0  0  0  0  0  0  0  0
  192.5002  125.7194   35.5762 H   0  0  0  0  0  0  0  0  0  0  0  0
  190.1730  127.4611   32.3906 C   0  0  0  0  0  0  0  0  0  0  0  0
  189.1974  128.6207   32.0307 C   0  0  0  0  0  0  0  0  0  0  0  0
  187.9954  128.6090   32.9640 C   0  0  0  0  0  0  0  0  0  0  0  0
  186.7883  128.1588   32.5736 C   0  0  0  0  0  0  0  0  0  0  0  0
  186.0489  128.8514   31.4540 C   0  0  0  0  0  0  0  0  0  0  0  0
  186.1300  126.9658   33.2567 C   0  0  0  0  0  0  0  0  0  0  0  0
  186.9310  125.6998   33.0555 C   0  0  0  0  0  0  0  0  0  0  0  0
  186.7933  125.2350   31.6109 C   0  0  0  0  0  0  0  0  0  0  0  0
  186.7683  123.9265   31.2557 C   0  0  0  0  0  0  0  0  0  0  0  0
  187.6740  122.9116   31.9164 C   0  0  0  0  0  0  0  0  0  0  0  0
  185.8132  123.4294   30.1864 C   0  0  0  0  0  0  0  0  0  0  0  0
  7  8  2  0  0  0
  7  9  1  0  0  0
  7 10  1  0  0  0
  7  4  1  0  0  0
  4  5  1  0  0  0
  4  3  1  0  0  0
  3  1  1  0  0  0
  1  2  1  0  0  0
  1 13  1  0  0  0
 13 14  1  0  0  0
 14 15  1  0  0  0
 15 16  1  0  0  0
 16 17  1  0  0  0
 16 18  1  0  0  0
 18 19  1  0  0  0
 19 20  1  0  0  0
 20 21  1  0  0  0
 21 22  1  0  0  0
 21 23  1  0  0  0
  9 11  1  0  0  0
 10 12  1  0  0  0
  5  6  1  0  0  0
M  END
> <minimizedAffinity>
-6.37726

$$$$
