2VOT_NHV_A_1865


 28 30  0  0  0  0  0  0  0  0999 V2000
   26.8583   48.3970   -1.8367 C   0  0  0  0  0  0  0  0  0  0  0  0
   27.9674   48.5136   -0.7595 C   0  0  0  0  0  0  0  0  0  0  0  0
   27.5558   49.4506    0.2385 O   0  0  0  0  0  0  0  0  0  0  0  0
   28.3292   47.1550   -0.1024 C   0  0  0  0  0  0  0  0  0  0  0  0
   29.7219   47.1347    0.2317 O   0  0  0  0  0  0  0  0  0  0  0  0
   28.7030   44.7350   -0.8684 O   0  0  0  0  0  0  0  0  0  0  0  0
   27.4909   47.5215   -2.8487 N   0  0  0  0  0  0  0  0  0  0  0  0
   27.7606   47.7238   -4.1519 C   0  0  0  0  0  0  0  0  0  0  0  0
   28.5368   46.6474   -4.5417 C   0  0  0  0  0  0  0  0  0  0  0  0
   28.6449   45.7797   -3.4975 N   0  0  0  0  0  0  0  0  0  0  0  0
   28.0354   46.3884   -2.4569 C   0  0  0  0  0  0  0  0  0  0  0  0
   27.9599   45.9650   -1.0066 C   0  0  0  0  0  0  0  0  0  0  0  0
   26.7515   49.1271    0.6736 H   0  0  0  0  0  0  0  0  0  0  0  0
   30.2498   47.2266   -0.5769 H   0  0  0  0  0  0  0  0  0  0  0  0
   28.6709   44.4399    0.0551 H   0  0  0  0  0  0  0  0  0  0  0  0
   29.0764   44.8948   -3.5004 H   0  0  0  0  0  0  0  0  0  0  0  0
   27.2260   50.2305   -3.3933 O   0  0  0  0  0  0  0  0  0  0  0  0
   26.3883   49.7773   -2.3424 C   0  0  0  0  0  0  0  0  0  0  0  0
   26.9188   51.0977   -3.7005 H   0  0  0  0  0  0  0  0  0  0  0  0
   29.0510   46.4236   -5.9268 C   0  0  0  0  0  0  0  0  0  0  0  0
   30.1344   47.3442   -6.2483 N   0  0  0  0  0  0  0  0  0  0  0  0
   30.6101   47.7683   -5.4979 H   0  0  0  0  0  0  0  0  0  0  0  0
   30.5423   47.6652   -7.5262 C   0  0  0  0  0  0  0  0  0  0  0  0
   31.2873   48.8223   -7.7983 C   0  0  0  0  0  0  0  0  0  0  0  0
   31.6822   49.1076   -9.1322 C   0  0  0  0  0  0  0  0  0  0  0  0
   31.3511   48.2549  -10.2043 C   0  0  0  0  0  0  0  0  0  0  0  0
   30.5961   47.0915   -9.9425 C   0  0  0  0  0  0  0  0  0  0  0  0
   30.2025   46.8185   -8.6106 C   0  0  0  0  0  0  0  0  0  0  0  0
 17 18  1  0  0  0
 18  1  1  0  0  0
  1  2  1  0  0  0
  1  7  1  0  0  0
  2  3  1  0  0  0
  2  4  1  0  0  0
  4  5  1  0  0  0
  4 12  1  0  0  0
  6 12  1  0  0  0
  7  8  1  0  0  0
  7 11  2  0  0  0
  8  9  2  0  0  0
  9 10  1  0  0  0
  9 20  1  0  0  0
 10 11  1  0  0  0
 11 12  1  0  0  0
 20 21  1  0  0  0
 21 23  1  0  0  0
 23 24  1  0  0  0
 23 28  2  0  0  0
 24 25  2  0  0  0
 25 26  1  0  0  0
 26 27  2  0  0  0
 27 28  1  0  0  0
 17 19  1  0  0  0
  3 13  1  0  0  0
  5 14  1  0  0  0
  6 15  1  0  0  0
 10 16  1  0  0  0
 21 22  1  0  0  0
M  CHG 1   7   1
M  END
> <minimizedAffinity>
-11.13677

$$$$
2VOT_NHV_A_1865


 28 30  0  0  0  0  0  0  0  0999 V2000
   26.9536   48.3730   -1.8740 C   0  0  0  0  0  0  0  0  0  0  0  0
   28.0615   48.4481   -0.7918 C   0  0  0  0  0  0  0  0  0  0  0  0
   27.6647   49.3735    0.2228 O   0  0  0  0  0  0  0  0  0  0  0  0
   28.3956   47.0706   -0.1599 C   0  0  0  0  0  0  0  0  0  0  0  0
   29.7867   47.0176    0.1774 O   0  0  0  0  0  0  0  0  0  0  0  0
   28.7259   44.6590   -0.9709 O   0  0  0  0  0  0  0  0  0  0  0  0
   27.5726   47.5051   -2.9009 N   0  0  0  0  0  0  0  0  0  0  0  0
   27.8500   47.7271   -4.1993 C   0  0  0  0  0  0  0  0  0  0  0  0
   28.6069   46.6438   -4.6075 C   0  0  0  0  0  0  0  0  0  0  0  0
   28.6955   45.7544   -3.5797 N   0  0  0  0  0  0  0  0  0  0  0  0
   28.0945   46.3547   -2.5293 C   0  0  0  0  0  0  0  0  0  0  0  0
   28.0066   45.9052   -1.0876 C   0  0  0  0  0  0  0  0  0  0  0  0
   26.8532   49.0571    0.6495 H   0  0  0  0  0  0  0  0  0  0  0  0
   30.3186   47.1148   -0.6279 H   0  0  0  0  0  0  0  0  0  0  0  0
   28.6856   44.3470   -0.0533 H   0  0  0  0  0  0  0  0  0  0  0  0
   29.1102   44.8618   -3.5984 H   0  0  0  0  0  0  0  0  0  0  0  0
   25.8867   50.4826   -1.2983 O   0  0  0  0  0  0  0  0  0  0  0  0
   26.5113   49.7713   -2.3545 C   0  0  0  0  0  0  0  0  0  0  0  0
   25.6145   51.3582   -1.6147 H   0  0  0  0  0  0  0  0  0  0  0  0
   29.1210   46.4367   -5.9953 C   0  0  0  0  0  0  0  0  0  0  0  0
   30.5665   46.6129   -6.0600 N   0  0  0  0  0  0  0  0  0  0  0  0
   31.1029   45.8596   -6.3975 H   0  0  0  0  0  0  0  0  0  0  0  0
   31.2381   47.7571   -5.6833 C   0  0  0  0  0  0  0  0  0  0  0  0
   31.0101   48.9914   -6.3101 C   0  0  0  0  0  0  0  0  0  0  0  0
   31.7287   50.1400   -5.8849 C   0  0  0  0  0  0  0  0  0  0  0  0
   32.6713   50.0825   -4.8388 C   0  0  0  0  0  0  0  0  0  0  0  0
   32.9132   48.8444   -4.2060 C   0  0  0  0  0  0  0  0  0  0  0  0
   32.1959   47.7040   -4.6403 C   0  0  0  0  0  0  0  0  0  0  0  0
 17 18  1  0  0  0
 18  1  1  0  0  0
  1  2  1  0  0  0
  1  7  1  0  0  0
  2  3  1  0  0  0
  2  4  1  0  0  0
  4  5  1  0  0  0
  4 12  1  0  0  0
  6 12  1  0  0  0
  7  8  1  0  0  0
  7 11  2  0  0  0
  8  9  2  0  0  0
  9 10  1  0  0  0
  9 20  1  0  0  0
 10 11  1  0  0  0
 11 12  1  0  0  0
 20 21  1  0  0  0
 21 23  1  0  0  0
 23 24  1  0  0  0
 23 28  2  0  0  0
 24 25  2  0  0  0
 25 26  1  0  0  0
 26 27  2  0  0  0
 27 28  1  0  0  0
 17 19  1  0  0  0
  3 13  1  0  0  0
  5 14  1  0  0  0
  6 15  1  0  0  0
 10 16  1  0  0  0
 21 22  1  0  0  0
M  CHG 1   7   1
M  END
> <minimizedAffinity>
-10.69438

$$$$
2VOT_NHV_A_1865


 28 30  0  0  0  0  0  0  0  0999 V2000
   30.0054   45.3086   -7.6588 C   0  0  0  0  0  0  0  0  0  0  0  0
   31.4745   45.0075   -8.0530 C   0  0  0  0  0  0  0  0  0  0  0  0
   31.5478   43.7007   -8.6278 O   0  0  0  0  0  0  0  0  0  0  0  0
   32.0750   46.0559   -9.0270 C   0  0  0  0  0  0  0  0  0  0  0  0
   33.4737   46.2163   -8.7630 O   0  0  0  0  0  0  0  0  0  0  0  0
   32.0562   48.6080   -9.2894 O   0  0  0  0  0  0  0  0  0  0  0  0
   30.1253   46.6079   -6.9599 N   0  0  0  0  0  0  0  0  0  0  0  0
   29.8010   46.9732   -5.7056 C   0  0  0  0  0  0  0  0  0  0  0  0
   30.3199   48.2450   -5.5435 C   0  0  0  0  0  0  0  0  0  0  0  0
   30.8655   48.6531   -6.7229 N   0  0  0  0  0  0  0  0  0  0  0  0
   30.7765   47.5886   -7.5499 C   0  0  0  0  0  0  0  0  0  0  0  0
   31.3379   47.4048   -8.9425 C   0  0  0  0  0  0  0  0  0  0  0  0
   31.0113   43.6721   -9.4354 H   0  0  0  0  0  0  0  0  0  0  0  0
   33.5965   46.5431   -7.8580 H   0  0  0  0  0  0  0  0  0  0  0  0
   32.4279   48.5171  -10.1808 H   0  0  0  0  0  0  0  0  0  0  0  0
   31.2448   49.5378   -6.9294 H   0  0  0  0  0  0  0  0  0  0  0  0
   30.2968   43.6714   -5.8827 O   0  0  0  0  0  0  0  0  0  0  0  0
   29.3738   44.1622   -6.8412 C   0  0  0  0  0  0  0  0  0  0  0  0
   29.8864   42.9524   -5.3773 H   0  0  0  0  0  0  0  0  0  0  0  0
   30.1761   49.0742   -4.3086 C   0  0  0  0  0  0  0  0  0  0  0  0
   28.8321   48.9744   -3.7533 N   0  0  0  0  0  0  0  0  0  0  0  0
   28.1198   49.4980   -4.1866 H   0  0  0  0  0  0  0  0  0  0  0  0
   28.4846   48.2007   -2.6657 C   0  0  0  0  0  0  0  0  0  0  0  0
   27.2007   47.6532   -2.5248 C   0  0  0  0  0  0  0  0  0  0  0  0
   26.8934   46.8638   -1.3851 C   0  0  0  0  0  0  0  0  0  0  0  0
   27.8475   46.6047   -0.3807 C   0  0  0  0  0  0  0  0  0  0  0  0
   29.1402   47.1563   -0.5094 C   0  0  0  0  0  0  0  0  0  0  0  0
   29.4354   47.9462   -1.6462 C   0  0  0  0  0  0  0  0  0  0  0  0
 17 18  1  0  0  0
 18  1  1  0  0  0
  1  2  1  0  0  0
  1  7  1  0  0  0
  2  3  1  0  0  0
  2  4  1  0  0  0
  4  5  1  0  0  0
  4 12  1  0  0  0
  6 12  1  0  0  0
  7  8  1  0  0  0
  7 11  2  0  0  0
  8  9  2  0  0  0
  9 10  1  0  0  0
  9 20  1  0  0  0
 10 11  1  0  0  0
 11 12  1  0  0  0
 20 21  1  0  0  0
 21 23  1  0  0  0
 23 24  1  0  0  0
 23 28  2  0  0  0
 24 25  2  0  0  0
 25 26  1  0  0  0
 26 27  2  0  0  0
 27 28  1  0  0  0
 17 19  1  0  0  0
  3 13  1  0  0  0
  5 14  1  0  0  0
  6 15  1  0  0  0
 10 16  1  0  0  0
 21 22  1  0  0  0
M  CHG 1   7   1
M  END
> <minimizedAffinity>
-9.91791

$$$$
2VOT_NHV_A_1865


 28 30  0  0  0  0  0  0  0  0999 V2000
   34.0080   49.6024   -4.7263 C   0  0  0  0  0  0  0  0  0  0  0  0
   33.7422   50.7657   -3.7361 C   0  0  0  0  0  0  0  0  0  0  0  0
   34.9919   51.3015   -3.2952 O   0  0  0  0  0  0  0  0  0  0  0  0
   32.8581   51.8914   -4.3358 C   0  0  0  0  0  0  0  0  0  0  0  0
   32.0423   52.4653   -3.3079 O   0  0  0  0  0  0  0  0  0  0  0  0
   30.7529   52.0554   -5.7931 O   0  0  0  0  0  0  0  0  0  0  0  0
   32.6463   49.0742   -4.9667 N   0  0  0  0  0  0  0  0  0  0  0  0
   32.1208   47.8517   -4.7633 C   0  0  0  0  0  0  0  0  0  0  0  0
   30.7612   47.9923   -4.9747 C   0  0  0  0  0  0  0  0  0  0  0  0
   30.5073   49.2662   -5.3845 N   0  0  0  0  0  0  0  0  0  0  0  0
   31.6904   49.9136   -5.3066 C   0  0  0  0  0  0  0  0  0  0  0  0
   31.9968   51.3816   -5.5055 C   0  0  0  0  0  0  0  0  0  0  0  0
   35.4752   51.6622   -4.0549 H   0  0  0  0  0  0  0  0  0  0  0  0
   31.4548   51.7848   -2.9437 H   0  0  0  0  0  0  0  0  0  0  0  0
   30.9208   53.0016   -5.9256 H   0  0  0  0  0  0  0  0  0  0  0  0
   29.6433   49.6372   -5.6762 H   0  0  0  0  0  0  0  0  0  0  0  0
   34.9459   48.5165   -2.7614 O   0  0  0  0  0  0  0  0  0  0  0  0
   35.0335   48.5895   -4.1751 C   0  0  0  0  0  0  0  0  0  0  0  0
   35.5954   47.8770   -2.4297 H   0  0  0  0  0  0  0  0  0  0  0  0
   29.7657   46.8808   -4.8934 C   0  0  0  0  0  0  0  0  0  0  0  0
   29.2204   46.7513   -3.5478 N   0  0  0  0  0  0  0  0  0  0  0  0
   29.5003   45.9717   -3.0156 H   0  0  0  0  0  0  0  0  0  0  0  0
   28.3414   47.6401   -2.9651 C   0  0  0  0  0  0  0  0  0  0  0  0
   28.3569   47.9031   -1.5872 C   0  0  0  0  0  0  0  0  0  0  0  0
   27.4297   48.8270   -1.0365 C   0  0  0  0  0  0  0  0  0  0  0  0
   26.4859   49.5004   -1.8377 C   0  0  0  0  0  0  0  0  0  0  0  0
   26.4573   49.2381   -3.2242 C   0  0  0  0  0  0  0  0  0  0  0  0
   27.3820   48.3117   -3.7630 C   0  0  0  0  0  0  0  0  0  0  0  0
 17 18  1  0  0  0
 18  1  1  0  0  0
  1  2  1  0  0  0
  1  7  1  0  0  0
  2  3  1  0  0  0
  2  4  1  0  0  0
  4  5  1  0  0  0
  4 12  1  0  0  0
  6 12  1  0  0  0
  7  8  1  0  0  0
  7 11  2  0  0  0
  8  9  2  0  0  0
  9 10  1  0  0  0
  9 20  1  0  0  0
 10 11  1  0  0  0
 11 12  1  0  0  0
 20 21  1  0  0  0
 21 23  1  0  0  0
 23 24  1  0  0  0
 23 28  2  0  0  0
 24 25  2  0  0  0
 25 26  1  0  0  0
 26 27  2  0  0  0
 27 28  1  0  0  0
 17 19  1  0  0  0
  3 13  1  0  0  0
  5 14  1  0  0  0
  6 15  1  0  0  0
 10 16  1  0  0  0
 21 22  1  0  0  0
M  CHG 1   7   1
M  END
> <minimizedAffinity>
-9.71280

$$$$
2VOT_NHV_A_1865


 28 30  0  0  0  0  0  0  0  0999 V2000
   30.7154   48.6041   -3.5447 C   0  0  0  0  0  0  0  0  0  0  0  0
   30.7648   47.9002   -2.1640 C   0  0  0  0  0  0  0  0  0  0  0  0
   31.1326   48.8532   -1.1641 O   0  0  0  0  0  0  0  0  0  0  0  0
   29.4294   47.2089   -1.7802 C   0  0  0  0  0  0  0  0  0  0  0  0
   29.6981   46.0292   -1.0135 O   0  0  0  0  0  0  0  0  0  0  0  0
   27.6478   45.7785   -2.9474 O   0  0  0  0  0  0  0  0  0  0  0  0
   30.4712   47.4732   -4.4679 N   0  0  0  0  0  0  0  0  0  0  0  0
   31.1842   47.0112   -5.5120 C   0  0  0  0  0  0  0  0  0  0  0  0
   30.5856   45.8170   -5.8709 C   0  0  0  0  0  0  0  0  0  0  0  0
   29.4792   45.6282   -5.0993 N   0  0  0  0  0  0  0  0  0  0  0  0
   29.4823   46.6434   -4.2081 C   0  0  0  0  0  0  0  0  0  0  0  0
   28.5771   46.8809   -3.0195 C   0  0  0  0  0  0  0  0  0  0  0  0
   30.4596   49.5502   -1.1187 H   0  0  0  0  0  0  0  0  0  0  0  0
   30.2149   45.4067   -1.5485 H   0  0  0  0  0  0  0  0  0  0  0  0
   27.0534   45.9056   -2.1915 H   0  0  0  0  0  0  0  0  0  0  0  0
   28.8165   44.9041   -5.1751 H   0  0  0  0  0  0  0  0  0  0  0  0
   31.9919   50.6098   -3.0274 O   0  0  0  0  0  0  0  0  0  0  0  0
   31.9860   49.4351   -3.8220 C   0  0  0  0  0  0  0  0  0  0  0  0
   32.7951   51.1212   -3.2122 H   0  0  0  0  0  0  0  0  0  0  0  0
   31.0181   44.9551   -7.0123 C   0  0  0  0  0  0  0  0  0  0  0  0
   30.6306   45.5329   -8.2932 N   0  0  0  0  0  0  0  0  0  0  0  0
   29.7548   45.2766   -8.6627 H   0  0  0  0  0  0  0  0  0  0  0  0
   31.4003   46.4123   -9.0257 C   0  0  0  0  0  0  0  0  0  0  0  0
   32.7656   46.1877   -9.2573 C   0  0  0  0  0  0  0  0  0  0  0  0
   33.5140   47.1248  -10.0178 C   0  0  0  0  0  0  0  0  0  0  0  0
   32.9234   48.2845  -10.5586 C   0  0  0  0  0  0  0  0  0  0  0  0
   31.5520   48.5234  -10.3260 C   0  0  0  0  0  0  0  0  0  0  0  0
   30.8156   47.5864   -9.5622 C   0  0  0  0  0  0  0  0  0  0  0  0
 17 18  1  0  0  0
 18  1  1  0  0  0
  1  2  1  0  0  0
  1  7  1  0  0  0
  2  3  1  0  0  0
  2  4  1  0  0  0
  4  5  1  0  0  0
  4 12  1  0  0  0
  6 12  1  0  0  0
  7  8  1  0  0  0
  7 11  2  0  0  0
  8  9  2  0  0  0
  9 10  1  0  0  0
  9 20  1  0  0  0
 10 11  1  0  0  0
 11 12  1  0  0  0
 20 21  1  0  0  0
 21 23  1  0  0  0
 23 24  1  0  0  0
 23 28  2  0  0  0
 24 25  2  0  0  0
 25 26  1  0  0  0
 26 27  2  0  0  0
 27 28  1  0  0  0
 17 19  1  0  0  0
  3 13  1  0  0  0
  5 14  1  0  0  0
  6 15  1  0  0  0
 10 16  1  0  0  0
 21 22  1  0  0  0
M  CHG 1   7   1
M  END
> <minimizedAffinity>
-9.57922

$$$$
2VOT_NHV_A_1865


 28 30  0  0  0  0  0  0  0  0999 V2000
   32.4275   47.9080   -7.9587 C   0  0  0  0  0  0  0  0  0  0  0  0
   31.1407   47.7532   -8.8098 C   0  0  0  0  0  0  0  0  0  0  0  0
   31.3561   48.3369  -10.0967 O   0  0  0  0  0  0  0  0  0  0  0  0
   30.6788   46.2793   -8.9602 C   0  0  0  0  0  0  0  0  0  0  0  0
   29.2489   46.2243   -9.0233 O   0  0  0  0  0  0  0  0  0  0  0  0
   30.4725   44.2096   -7.4581 O   0  0  0  0  0  0  0  0  0  0  0  0
   31.9968   47.3970   -6.6380 N   0  0  0  0  0  0  0  0  0  0  0  0
   31.9654   47.9844   -5.4272 C   0  0  0  0  0  0  0  0  0  0  0  0
   31.2827   47.1056   -4.6059 C   0  0  0  0  0  0  0  0  0  0  0  0
   30.9956   45.9755   -5.3099 N   0  0  0  0  0  0  0  0  0  0  0  0
   31.4009   46.2244   -6.5742 C   0  0  0  0  0  0  0  0  0  0  0  0
   31.2167   45.3914   -7.8235 C   0  0  0  0  0  0  0  0  0  0  0  0
   32.0714   47.8643  -10.5505 H   0  0  0  0  0  0  0  0  0  0  0  0
   28.8752   46.5729   -8.1988 H   0  0  0  0  0  0  0  0  0  0  0  0
   30.3397   43.6555   -8.2431 H   0  0  0  0  0  0  0  0  0  0  0  0
   30.5800   45.1507   -4.9690 H   0  0  0  0  0  0  0  0  0  0  0  0
   31.8994   50.2801   -8.0768 O   0  0  0  0  0  0  0  0  0  0  0  0
   32.9682   49.3533   -7.9757 C   0  0  0  0  0  0  0  0  0  0  0  0
   32.2541   51.1829   -8.0864 H   0  0  0  0  0  0  0  0  0  0  0  0
   31.0297   47.3210   -3.1489 C   0  0  0  0  0  0  0  0  0  0  0  0
   29.6907   46.8869   -2.7706 N   0  0  0  0  0  0  0  0  0  0  0  0
   29.5308   45.9187   -2.6911 H   0  0  0  0  0  0  0  0  0  0  0  0
   28.6311   47.7323   -2.5158 C   0  0  0  0  0  0  0  0  0  0  0  0
   28.3433   48.1917   -1.2219 C   0  0  0  0  0  0  0  0  0  0  0  0
   27.2398   49.0607   -1.0128 C   0  0  0  0  0  0  0  0  0  0  0  0
   26.4168   49.4863   -2.0747 C   0  0  0  0  0  0  0  0  0  0  0  0
   26.6936   49.0247   -3.3794 C   0  0  0  0  0  0  0  0  0  0  0  0
   27.7923   48.1546   -3.5771 C   0  0  0  0  0  0  0  0  0  0  0  0
 17 18  1  0  0  0
 18  1  1  0  0  0
  1  2  1  0  0  0
  1  7  1  0  0  0
  2  3  1  0  0  0
  2  4  1  0  0  0
  4  5  1  0  0  0
  4 12  1  0  0  0
  6 12  1  0  0  0
  7  8  1  0  0  0
  7 11  2  0  0  0
  8  9  2  0  0  0
  9 10  1  0  0  0
  9 20  1  0  0  0
 10 11  1  0  0  0
 11 12  1  0  0  0
 20 21  1  0  0  0
 21 23  1  0  0  0
 23 24  1  0  0  0
 23 28  2  0  0  0
 24 25  2  0  0  0
 25 26  1  0  0  0
 26 27  2  0  0  0
 27 28  1  0  0  0
 17 19  1  0  0  0
  3 13  1  0  0  0
  5 14  1  0  0  0
  6 15  1  0  0  0
 10 16  1  0  0  0
 21 22  1  0  0  0
M  CHG 1   7   1
M  END
> <minimizedAffinity>
-9.43910

$$$$
2VOT_NHV_A_1865


 28 30  0  0  0  0  0  0  0  0999 V2000
   29.8228   46.6349   -4.3870 C   0  0  0  0  0  0  0  0  0  0  0  0
   28.7014   47.0117   -3.3847 C   0  0  0  0  0  0  0  0  0  0  0  0
   27.8584   45.8765   -3.1749 O   0  0  0  0  0  0  0  0  0  0  0  0
   29.2425   47.5355   -2.0278 C   0  0  0  0  0  0  0  0  0  0  0  0
   28.3501   48.5238   -1.4999 O   0  0  0  0  0  0  0  0  0  0  0  0
   31.1053   49.1067   -1.2254 O   0  0  0  0  0  0  0  0  0  0  0  0
   30.5026   47.9318   -4.6035 N   0  0  0  0  0  0  0  0  0  0  0  0
   30.7067   48.6497   -5.7237 C   0  0  0  0  0  0  0  0  0  0  0  0
   31.2133   49.8646   -5.2988 C   0  0  0  0  0  0  0  0  0  0  0  0
   31.3865   49.8229   -3.9484 N   0  0  0  0  0  0  0  0  0  0  0  0
   30.8785   48.6345   -3.5552 C   0  0  0  0  0  0  0  0  0  0  0  0
   30.6713   48.0936   -2.1577 C   0  0  0  0  0  0  0  0  0  0  0  0
   28.3773   45.1564   -2.7837 H   0  0  0  0  0  0  0  0  0  0  0  0
   28.2999   49.2743   -2.1124 H   0  0  0  0  0  0  0  0  0  0  0  0
   30.9831   48.7851   -0.3184 H   0  0  0  0  0  0  0  0  0  0  0  0
   31.7958   50.5136   -3.3787 H   0  0  0  0  0  0  0  0  0  0  0  0
   29.4560   44.5444   -5.5766 O   0  0  0  0  0  0  0  0  0  0  0  0
   29.2678   45.9481   -5.6527 C   0  0  0  0  0  0  0  0  0  0  0  0
   29.1029   44.1270   -6.3778 H   0  0  0  0  0  0  0  0  0  0  0  0
   31.6252   50.9805   -6.2032 C   0  0  0  0  0  0  0  0  0  0  0  0
   32.5782   50.5275   -7.2088 N   0  0  0  0  0  0  0  0  0  0  0  0
   32.3782   50.7311   -8.1510 H   0  0  0  0  0  0  0  0  0  0  0  0
   33.7395   49.8345   -6.9377 C   0  0  0  0  0  0  0  0  0  0  0  0
   34.7295   50.3498   -6.0877 C   0  0  0  0  0  0  0  0  0  0  0  0
   35.9078   49.5964   -5.8417 C   0  0  0  0  0  0  0  0  0  0  0  0
   36.1169   48.3311   -6.4259 C   0  0  0  0  0  0  0  0  0  0  0  0
   35.1303   47.8063   -7.2879 C   0  0  0  0  0  0  0  0  0  0  0  0
   33.9617   48.5671   -7.5313 C   0  0  0  0  0  0  0  0  0  0  0  0
 17 18  1  0  0  0
 18  1  1  0  0  0
  1  2  1  0  0  0
  1  7  1  0  0  0
  2  3  1  0  0  0
  2  4  1  0  0  0
  4  5  1  0  0  0
  4 12  1  0  0  0
  6 12  1  0  0  0
  7  8  1  0  0  0
  7 11  2  0  0  0
  8  9  2  0  0  0
  9 10  1  0  0  0
  9 20  1  0  0  0
 10 11  1  0  0  0
 11 12  1  0  0  0
 20 21  1  0  0  0
 21 23  1  0  0  0
 23 24  1  0  0  0
 23 28  2  0  0  0
 24 25  2  0  0  0
 25 26  1  0  0  0
 26 27  2  0  0  0
 27 28  1  0  0  0
 17 19  1  0  0  0
  3 13  1  0  0  0
  5 14  1  0  0  0
  6 15  1  0  0  0
 10 16  1  0  0  0
 21 22  1  0  0  0
M  CHG 1   7   1
M  END
> <minimizedAffinity>
-9.27924

$$$$
2VOT_NHV_A_1865


 28 30  0  0  0  0  0  0  0  0999 V2000
   29.9752   48.0396   -1.6474 C   0  0  0  0  0  0  0  0  0  0  0  0
   29.6169   47.0129   -0.5422 C   0  0  0  0  0  0  0  0  0  0  0  0
   30.1087   47.4849    0.7142 O   0  0  0  0  0  0  0  0  0  0  0  0
   28.0957   46.7207   -0.4467 C   0  0  0  0  0  0  0  0  0  0  0  0
   27.8882   45.3574   -0.0594 O   0  0  0  0  0  0  0  0  0  0  0  0
   26.1503   46.3248   -2.0720 O   0  0  0  0  0  0  0  0  0  0  0  0
   29.5361   47.3454   -2.8787 N   0  0  0  0  0  0  0  0  0  0  0  0
   30.2174   46.9758   -3.9792 C   0  0  0  0  0  0  0  0  0  0  0  0
   29.3454   46.1878   -4.7085 C   0  0  0  0  0  0  0  0  0  0  0  0
   28.1362   46.1707   -4.0818 N   0  0  0  0  0  0  0  0  0  0  0  0
   28.3178   46.8478   -2.9271 C   0  0  0  0  0  0  0  0  0  0  0  0
   27.3675   47.0379   -1.7655 C   0  0  0  0  0  0  0  0  0  0  0  0
   29.6759   48.3241    0.9363 H   0  0  0  0  0  0  0  0  0  0  0  0
   28.2648   44.7691   -0.7325 H   0  0  0  0  0  0  0  0  0  0  0  0
   25.5211   46.4302   -1.3413 H   0  0  0  0  0  0  0  0  0  0  0  0
   27.3047   45.7527   -4.4028 H   0  0  0  0  0  0  0  0  0  0  0  0
   31.6394   49.7301   -2.1881 O   0  0  0  0  0  0  0  0  0  0  0  0
   31.4621   48.4508   -1.6023 C   0  0  0  0  0  0  0  0  0  0  0  0
   32.5774   49.9748   -2.1526 H   0  0  0  0  0  0  0  0  0  0  0  0
   29.6560   45.5744   -6.0352 C   0  0  0  0  0  0  0  0  0  0  0  0
   29.2347   46.4363   -7.1326 N   0  0  0  0  0  0  0  0  0  0  0  0
   28.2708   46.4906   -7.3255 H   0  0  0  0  0  0  0  0  0  0  0  0
   30.0867   47.1815   -7.9207 C   0  0  0  0  0  0  0  0  0  0  0  0
   30.7537   48.3130   -7.4278 C   0  0  0  0  0  0  0  0  0  0  0  0
   31.6202   49.0465   -8.2809 C   0  0  0  0  0  0  0  0  0  0  0  0
   31.8391   48.6690   -9.6210 C   0  0  0  0  0  0  0  0  0  0  0  0
   31.1679   47.5361  -10.1288 C   0  0  0  0  0  0  0  0  0  0  0  0
   30.3021   46.8146   -9.2724 C   0  0  0  0  0  0  0  0  0  0  0  0
 17 18  1  0  0  0
 18  1  1  0  0  0
  1  2  1  0  0  0
  1  7  1  0  0  0
  2  3  1  0  0  0
  2  4  1  0  0  0
  4  5  1  0  0  0
  4 12  1  0  0  0
  6 12  1  0  0  0
  7  8  1  0  0  0
  7 11  2  0  0  0
  8  9  2  0  0  0
  9 10  1  0  0  0
  9 20  1  0  0  0
 10 11  1  0  0  0
 11 12  1  0  0  0
 20 21  1  0  0  0
 21 23  1  0  0  0
 23 24  1  0  0  0
 23 28  2  0  0  0
 24 25  2  0  0  0
 25 26  1  0  0  0
 26 27  2  0  0  0
 27 28  1  0  0  0
 17 19  1  0  0  0
  3 13  1  0  0  0
  5 14  1  0  0  0
  6 15  1  0  0  0
 10 16  1  0  0  0
 21 22  1  0  0  0
M  CHG 1   7   1
M  END
> <minimizedAffinity>
-9.10652

$$$$
2VOT_NHV_A_1865


 28 30  0  0  0  0  0  0  0  0999 V2000
   32.7259   51.5363   -4.3876 C   0  0  0  0  0  0  0  0  0  0  0  0
   33.9351   51.4825   -5.3566 C   0  0  0  0  0  0  0  0  0  0  0  0
   34.3379   52.8155   -5.6792 O   0  0  0  0  0  0  0  0  0  0  0  0
   35.1381   50.6809   -4.7919 C   0  0  0  0  0  0  0  0  0  0  0  0
   35.8245   50.0206   -5.8617 O   0  0  0  0  0  0  0  0  0  0  0  0
   35.5020   48.4935   -3.5014 O   0  0  0  0  0  0  0  0  0  0  0  0
   32.3481   50.1097   -4.2735 N   0  0  0  0  0  0  0  0  0  0  0  0
   31.1975   49.4717   -4.5582 C   0  0  0  0  0  0  0  0  0  0  0  0
   31.4846   48.1230   -4.4507 C   0  0  0  0  0  0  0  0  0  0  0  0
   32.7687   47.9776   -4.0203 N   0  0  0  0  0  0  0  0  0  0  0  0
   33.2810   49.2270   -3.9828 C   0  0  0  0  0  0  0  0  0  0  0  0
   34.7001   49.6754   -3.7116 C   0  0  0  0  0  0  0  0  0  0  0  0
   34.6237   53.2712   -4.8720 H   0  0  0  0  0  0  0  0  0  0  0  0
   35.2232   49.3940   -6.2937 H   0  0  0  0  0  0  0  0  0  0  0  0
   36.4199   48.7528   -3.3248 H   0  0  0  0  0  0  0  0  0  0  0  0
   33.2270   47.1385   -3.7859 H   0  0  0  0  0  0  0  0  0  0  0  0
   31.8782   53.8155   -4.4682 O   0  0  0  0  0  0  0  0  0  0  0  0
   31.6179   52.4864   -4.8890 C   0  0  0  0  0  0  0  0  0  0  0  0
   31.1745   54.4003   -4.7903 H   0  0  0  0  0  0  0  0  0  0  0  0
   30.4940   47.0215   -4.6475 C   0  0  0  0  0  0  0  0  0  0  0  0
   29.7564   46.7428   -3.4215 N   0  0  0  0  0  0  0  0  0  0  0  0
   29.9842   45.9212   -2.9292 H   0  0  0  0  0  0  0  0  0  0  0  0
   28.7630   47.5451   -2.9002 C   0  0  0  0  0  0  0  0  0  0  0  0
   28.6832   47.8304   -1.5290 C   0  0  0  0  0  0  0  0  0  0  0  0
   27.6399   48.6620   -1.0427 C   0  0  0  0  0  0  0  0  0  0  0  0
   26.6728   49.2210   -1.9019 C   0  0  0  0  0  0  0  0  0  0  0  0
   26.7400   48.9349   -3.2823 C   0  0  0  0  0  0  0  0  0  0  0  0
   27.7804   48.1007   -3.7569 C   0  0  0  0  0  0  0  0  0  0  0  0
 17 18  1  0  0  0
 18  1  1  0  0  0
  1  2  1  0  0  0
  1  7  1  0  0  0
  2  3  1  0  0  0
  2  4  1  0  0  0
  4  5  1  0  0  0
  4 12  1  0  0  0
  6 12  1  0  0  0
  7  8  1  0  0  0
  7 11  2  0  0  0
  8  9  2  0  0  0
  9 10  1  0  0  0
  9 20  1  0  0  0
 10 11  1  0  0  0
 11 12  1  0  0  0
 20 21  1  0  0  0
 21 23  1  0  0  0
 23 24  1  0  0  0
 23 28  2  0  0  0
 24 25  2  0  0  0
 25 26  1  0  0  0
 26 27  2  0  0  0
 27 28  1  0  0  0
 17 19  1  0  0  0
  3 13  1  0  0  0
  5 14  1  0  0  0
  6 15  1  0  0  0
 10 16  1  0  0  0
 21 22  1  0  0  0
M  CHG 1   7   1
M  END
> <minimizedAffinity>
-8.87894

$$$$
2VOT_NHV_A_1865


 28 30  0  0  0  0  0  0  0  0999 V2000
   32.5144   49.9101   -4.5569 C   0  0  0  0  0  0  0  0  0  0  0  0
   31.5899   49.9417   -5.8013 C   0  0  0  0  0  0  0  0  0  0  0  0
   31.9250   51.0743   -6.6064 O   0  0  0  0  0  0  0  0  0  0  0  0
   31.6574   48.6431   -6.6484 C   0  0  0  0  0  0  0  0  0  0  0  0
   30.3764   48.3788   -7.2320 O   0  0  0  0  0  0  0  0  0  0  0  0
   31.7362   46.1157   -6.2144 O   0  0  0  0  0  0  0  0  0  0  0  0
   31.9506   48.7887   -3.7723 N   0  0  0  0  0  0  0  0  0  0  0  0
   31.4420   48.7456   -2.5267 C   0  0  0  0  0  0  0  0  0  0  0  0
   30.8834   47.4869   -2.3973 C   0  0  0  0  0  0  0  0  0  0  0  0
   31.1420   46.7707   -3.5266 N   0  0  0  0  0  0  0  0  0  0  0  0
   31.7494   47.6330   -4.3705 C   0  0  0  0  0  0  0  0  0  0  0  0
   32.1453   47.4421   -5.8180 C   0  0  0  0  0  0  0  0  0  0  0  0
   32.8399   50.9904   -6.9176 H   0  0  0  0  0  0  0  0  0  0  0  0
   29.7222   48.2441   -6.5285 H   0  0  0  0  0  0  0  0  0  0  0  0
   31.9788   45.9661   -7.1416 H   0  0  0  0  0  0  0  0  0  0  0  0
   30.9307   45.8236   -3.6928 H   0  0  0  0  0  0  0  0  0  0  0  0
   33.8789   51.5252   -3.3530 O   0  0  0  0  0  0  0  0  0  0  0  0
   32.5693   51.2734   -3.8358 C   0  0  0  0  0  0  0  0  0  0  0  0
   33.8980   52.3842   -2.9028 H   0  0  0  0  0  0  0  0  0  0  0  0
   30.2253   46.9688   -1.1598 C   0  0  0  0  0  0  0  0  0  0  0  0
   28.7963   46.7643   -1.3619 N   0  0  0  0  0  0  0  0  0  0  0  0
   28.4073   45.9179   -1.0434 H   0  0  0  0  0  0  0  0  0  0  0  0
   27.9488   47.6691   -1.9664 C   0  0  0  0  0  0  0  0  0  0  0  0
   27.6722   47.6222   -3.3410 C   0  0  0  0  0  0  0  0  0  0  0  0
   26.7926   48.5781   -3.9148 C   0  0  0  0  0  0  0  0  0  0  0  0
   26.1769   49.5815   -3.1401 C   0  0  0  0  0  0  0  0  0  0  0  0
   26.4536   49.6416   -1.7574 C   0  0  0  0  0  0  0  0  0  0  0  0
   27.3358   48.6879   -1.1955 C   0  0  0  0  0  0  0  0  0  0  0  0
 17 18  1  0  0  0
 18  1  1  0  0  0
  1  2  1  0  0  0
  1  7  1  0  0  0
  2  3  1  0  0  0
  2  4  1  0  0  0
  4  5  1  0  0  0
  4 12  1  0  0  0
  6 12  1  0  0  0
  7  8  1  0  0  0
  7 11  2  0  0  0
  8  9  2  0  0  0
  9 10  1  0  0  0
  9 20  1  0  0  0
 10 11  1  0  0  0
 11 12  1  0  0  0
 20 21  1  0  0  0
 21 23  1  0  0  0
 23 24  1  0  0  0
 23 28  2  0  0  0
 24 25  2  0  0  0
 25 26  1  0  0  0
 26 27  2  0  0  0
 27 28  1  0  0  0
 17 19  1  0  0  0
  3 13  1  0  0  0
  5 14  1  0  0  0
  6 15  1  0  0  0
 10 16  1  0  0  0
 21 22  1  0  0  0
M  CHG 1   7   1
M  END
> <minimizedAffinity>
-8.83908

$$$$
