4Q8X_7FH_A_304


 13 13  0  0  0  0  0  0  0  0999 V2000
   16.7785    5.3188   13.9651 S   0  0  0  0  0  0  0  0  0  0  0  0
   16.1194    4.1268   14.9827 C   0  0  0  0  0  0  0  0  0  0  0  0
   14.8140    4.2610   15.4600 C   0  0  0  0  0  0  0  0  0  0  0  0
   14.2932    3.3198   16.3138 C   0  0  0  0  0  0  0  0  0  0  0  0
   15.0564    2.2645   16.7102 C   0  0  0  0  0  0  0  0  0  0  0  0
   16.3592    2.1271   16.2298 C   0  0  0  0  0  0  0  0  0  0  0  0
   16.8732    3.0593   15.3579 N   0  0  0  0  0  0  0  0  0  0  0  0
   18.1179    2.9569   14.9458 O   0  0  0  0  0  0  0  0  0  0  0  0
   18.6379    2.2214   15.2041 H   0  0  0  0  0  0  0  0  0  0  0  0
   14.5102    1.2760   17.6002 C   0  0  0  0  0  0  0  0  0  0  0  0
   13.2987    0.9248   17.1835 F   0  0  0  0  0  0  0  0  0  0  0  0
   15.3011    0.2076   17.6152 F   0  0  0  0  0  0  0  0  0  0  0  0
   14.4274    1.7824   18.8266 F   0  0  0  0  0  0  0  0  0  0  0  0
 13 10  1  0  0  0
 12 10  1  0  0  0
 10 11  1  0  0  0
 10  5  1  0  0  0
  5  4  1  0  0  0
  5  6  2  0  0  0
  4  3  2  0  0  0
  6  7  1  0  0  0
  3  2  1  0  0  0
  7  2  1  0  0  0
  7  8  1  0  0  0
  2  1  2  0  0  0
  8  9  1  0  0  0
M  END
> <minimizedAffinity>
-6.51904

$$$$
4Q8X_7FH_A_304


 13 13  0  0  0  0  0  0  0  0999 V2000
   16.7601    3.6873   12.9035 S   0  0  0  0  0  0  0  0  0  0  0  0
   16.0939    2.9293   14.2718 C   0  0  0  0  0  0  0  0  0  0  0  0
   15.2873    3.6570   15.1491 C   0  0  0  0  0  0  0  0  0  0  0  0
   14.7806    3.0575   16.2761 C   0  0  0  0  0  0  0  0  0  0  0  0
   15.0798    1.7576   16.5481 C   0  0  0  0  0  0  0  0  0  0  0  0
   15.8817    1.0284   15.6694 C   0  0  0  0  0  0  0  0  0  0  0  0
   16.3719    1.6236   14.5298 N   0  0  0  0  0  0  0  0  0  0  0  0
   17.1691    0.9511   13.7286 O   0  0  0  0  0  0  0  0  0  0  0  0
   17.3611    0.0513   13.9058 H   0  0  0  0  0  0  0  0  0  0  0  0
   14.5457    1.1278   17.7252 C   0  0  0  0  0  0  0  0  0  0  0  0
   15.2315    0.0203   17.9858 F   0  0  0  0  0  0  0  0  0  0  0  0
   14.6411    1.9615   18.7562 F   0  0  0  0  0  0  0  0  0  0  0  0
   13.2684    0.8204   17.5215 F   0  0  0  0  0  0  0  0  0  0  0  0
 13 10  1  0  0  0
 12 10  1  0  0  0
 10 11  1  0  0  0
 10  5  1  0  0  0
  5  4  1  0  0  0
  5  6  2  0  0  0
  4  3  2  0  0  0
  6  7  1  0  0  0
  3  2  1  0  0  0
  7  2  1  0  0  0
  7  8  1  0  0  0
  2  1  2  0  0  0
  8  9  1  0  0  0
M  END
> <minimizedAffinity>
-6.39725

$$$$
4Q8X_7FH_A_304


 13 13  0  0  0  0  0  0  0  0999 V2000
   17.0796    4.2094   13.2527 S   0  0  0  0  0  0  0  0  0  0  0  0
   16.3538    3.3840   14.5499 C   0  0  0  0  0  0  0  0  0  0  0  0
   17.0652    2.3958   15.2335 C   0  0  0  0  0  0  0  0  0  0  0  0
   16.4675    1.7002   16.2558 C   0  0  0  0  0  0  0  0  0  0  0  0
   15.1742    1.9612   16.5911 C   0  0  0  0  0  0  0  0  0  0  0  0
   14.4643    2.9518   15.9117 C   0  0  0  0  0  0  0  0  0  0  0  0
   15.0704    3.6629   14.9015 N   0  0  0  0  0  0  0  0  0  0  0  0
   14.3851    4.5607   14.2278 O   0  0  0  0  0  0  0  0  0  0  0  0
   13.5006    4.7533   14.4696 H   0  0  0  0  0  0  0  0  0  0  0  0
   14.5493    1.2368   17.6645 C   0  0  0  0  0  0  0  0  0  0  0  0
   14.5349    1.9899   18.7587 F   0  0  0  0  0  0  0  0  0  0  0  0
   13.3025    0.9266   17.3233 F   0  0  0  0  0  0  0  0  0  0  0  0
   15.2331    0.1219   17.9029 F   0  0  0  0  0  0  0  0  0  0  0  0
 13 10  1  0  0  0
 12 10  1  0  0  0
 10 11  1  0  0  0
 10  5  1  0  0  0
  5  4  1  0  0  0
  5  6  2  0  0  0
  4  3  2  0  0  0
  6  7  1  0  0  0
  3  2  1  0  0  0
  7  2  1  0  0  0
  7  8  1  0  0  0
  2  1  2  0  0  0
  8  9  1  0  0  0
M  END
> <minimizedAffinity>
-6.31771

$$$$
4Q8X_7FH_A_304


 13 13  0  0  0  0  0  0  0  0999 V2000
   14.9396    0.6528   17.2486 S   0  0  0  0  0  0  0  0  0  0  0  0
   15.4794    2.0297   16.4097 C   0  0  0  0  0  0  0  0  0  0  0  0
   14.5982    3.0833   16.1579 C   0  0  0  0  0  0  0  0  0  0  0  0
   15.0210    4.1790   15.4461 C   0  0  0  0  0  0  0  0  0  0  0  0
   16.2951    4.2302   14.9692 C   0  0  0  0  0  0  0  0  0  0  0  0
   17.1776    3.1800   15.2246 C   0  0  0  0  0  0  0  0  0  0  0  0
   16.7595    2.0919   15.9558 N   0  0  0  0  0  0  0  0  0  0  0  0
   17.5760    1.0798   16.1524 O   0  0  0  0  0  0  0  0  0  0  0  0
   18.4583    1.1221   15.8398 H   0  0  0  0  0  0  0  0  0  0  0  0
   16.7400    5.3792   14.2281 C   0  0  0  0  0  0  0  0  0  0  0  0
   15.7603    5.8040   13.4379 F   0  0  0  0  0  0  0  0  0  0  0  0
   17.0796    6.3476   15.0731 F   0  0  0  0  0  0  0  0  0  0  0  0
   17.7938    5.0477   13.4884 F   0  0  0  0  0  0  0  0  0  0  0  0
 13 10  1  0  0  0
 12 10  1  0  0  0
 10 11  1  0  0  0
 10  5  1  0  0  0
  5  4  1  0  0  0
  5  6  2  0  0  0
  4  3  2  0  0  0
  6  7  1  0  0  0
  3  2  1  0  0  0
  7  2  1  0  0  0
  7  8  1  0  0  0
  2  1  2  0  0  0
  8  9  1  0  0  0
M  END
> <minimizedAffinity>
-6.26242

$$$$
4Q8X_7FH_A_304


 13 13  0  0  0  0  0  0  0  0999 V2000
   16.0481    2.3706   15.9985 S   0  0  0  0  0  0  0  0  0  0  0  0
   16.4108    1.6092   14.5223 C   0  0  0  0  0  0  0  0  0  0  0  0
   16.4048    2.3470   13.3368 C   0  0  0  0  0  0  0  0  0  0  0  0
   16.6585    1.7260   12.1383 C   0  0  0  0  0  0  0  0  0  0  0  0
   16.8978    0.3864   12.1035 C   0  0  0  0  0  0  0  0  0  0  0  0
   16.9087   -0.3507   13.2882 C   0  0  0  0  0  0  0  0  0  0  0  0
   16.6752    0.2758   14.4909 N   0  0  0  0  0  0  0  0  0  0  0  0
   16.6351   -0.4280   15.6011 O   0  0  0  0  0  0  0  0  0  0  0  0
   16.8172   -1.3469   15.5802 H   0  0  0  0  0  0  0  0  0  0  0  0
   17.1683   -0.2636   10.8498 C   0  0  0  0  0  0  0  0  0  0  0  0
   18.1990    0.3282   10.2566 F   0  0  0  0  0  0  0  0  0  0  0  0
   17.4563   -1.5431   11.0668 F   0  0  0  0  0  0  0  0  0  0  0  0
   16.0973   -0.1778   10.0669 F   0  0  0  0  0  0  0  0  0  0  0  0
 13 10  1  0  0  0
 12 10  1  0  0  0
 10 11  1  0  0  0
 10  5  1  0  0  0
  5  4  1  0  0  0
  5  6  2  0  0  0
  4  3  2  0  0  0
  6  7  1  0  0  0
  3  2  1  0  0  0
  7  2  1  0  0  0
  7  8  1  0  0  0
  2  1  2  0  0  0
  8  9  1  0  0  0
M  END
> <minimizedAffinity>
-5.85223

$$$$
4Q8X_7FH_A_304


 13 13  0  0  0  0  0  0  0  0999 V2000
   14.4926    2.0370   17.9550 S   0  0  0  0  0  0  0  0  0  0  0  0
   15.2487    2.0108   16.4324 C   0  0  0  0  0  0  0  0  0  0  0  0
   15.1813    3.1305   15.6007 C   0  0  0  0  0  0  0  0  0  0  0  0
   15.7572    3.0977   14.3543 C   0  0  0  0  0  0  0  0  0  0  0  0
   16.3785    1.9664   13.9216 C   0  0  0  0  0  0  0  0  0  0  0  0
   16.4505    0.8488   14.7539 C   0  0  0  0  0  0  0  0  0  0  0  0
   15.8915    0.8894   16.0106 N   0  0  0  0  0  0  0  0  0  0  0  0
   15.9150   -0.1808   16.7747 O   0  0  0  0  0  0  0  0  0  0  0  0
   16.3578   -0.9539   16.4847 H   0  0  0  0  0  0  0  0  0  0  0  0
   16.9860    1.9329   12.6188 C   0  0  0  0  0  0  0  0  0  0  0  0
   17.4960    0.7263   12.3980 F   0  0  0  0  0  0  0  0  0  0  0  0
   16.0690    2.2026   11.6949 F   0  0  0  0  0  0  0  0  0  0  0  0
   17.9548    2.8412   12.5589 F   0  0  0  0  0  0  0  0  0  0  0  0
 13 10  1  0  0  0
 12 10  1  0  0  0
 10 11  1  0  0  0
 10  5  1  0  0  0
  5  4  1  0  0  0
  5  6  2  0  0  0
  4  3  2  0  0  0
  6  7  1  0  0  0
  3  2  1  0  0  0
  7  2  1  0  0  0
  7  8  1  0  0  0
  2  1  2  0  0  0
  8  9  1  0  0  0
M  END
> <minimizedAffinity>
-5.52917

$$$$
4Q8X_7FH_A_304


 13 13  0  0  0  0  0  0  0  0999 V2000
   20.1869    4.4282   11.3610 S   0  0  0  0  0  0  0  0  0  0  0  0
   19.3328    2.9583   11.3862 C   0  0  0  0  0  0  0  0  0  0  0  0
   19.8798    1.8232   10.7842 C   0  0  0  0  0  0  0  0  0  0  0  0
   19.1744    0.6449   10.7685 C   0  0  0  0  0  0  0  0  0  0  0  0
   17.9329    0.5879   11.3239 C   0  0  0  0  0  0  0  0  0  0  0  0
   17.3877    1.7203   11.9299 C   0  0  0  0  0  0  0  0  0  0  0  0
   18.1036    2.8949   11.9638 N   0  0  0  0  0  0  0  0  0  0  0  0
   17.5686    3.9752   12.4897 O   0  0  0  0  0  0  0  0  0  0  0  0
   16.7215    3.9322   12.8879 H   0  0  0  0  0  0  0  0  0  0  0  0
   17.1958   -0.6466   11.3123 C   0  0  0  0  0  0  0  0  0  0  0  0
   17.9384   -1.6016   10.7634 F   0  0  0  0  0  0  0  0  0  0  0  0
   16.8838   -0.9886   12.5584 F   0  0  0  0  0  0  0  0  0  0  0  0
   16.0814   -0.4899   10.6044 F   0  0  0  0  0  0  0  0  0  0  0  0
 13 10  1  0  0  0
 12 10  1  0  0  0
 10 11  1  0  0  0
 10  5  1  0  0  0
  5  4  1  0  0  0
  5  6  2  0  0  0
  4  3  2  0  0  0
  6  7  1  0  0  0
  3  2  1  0  0  0
  7  2  1  0  0  0
  7  8  1  0  0  0
  2  1  2  0  0  0
  8  9  1  0  0  0
M  END
> <minimizedAffinity>
-5.34776

$$$$
4Q8X_7FH_A_304


 13 13  0  0  0  0  0  0  0  0999 V2000
   16.2344    3.2963   15.5245 S   0  0  0  0  0  0  0  0  0  0  0  0
   16.3755    2.1658   14.2624 C   0  0  0  0  0  0  0  0  0  0  0  0
   16.6957    0.8370   14.5486 C   0  0  0  0  0  0  0  0  0  0  0  0
   16.8492   -0.0691   13.5280 C   0  0  0  0  0  0  0  0  0  0  0  0
   16.7074    0.3322   12.2350 C   0  0  0  0  0  0  0  0  0  0  0  0
   16.3827    1.6586   11.9485 C   0  0  0  0  0  0  0  0  0  0  0  0
   16.2084    2.5612   12.9724 N   0  0  0  0  0  0  0  0  0  0  0  0
   15.9528    3.8222   12.6998 O   0  0  0  0  0  0  0  0  0  0  0  0
   15.8375    4.0954   11.8110 H   0  0  0  0  0  0  0  0  0  0  0  0
   16.8631   -0.6169   11.1661 C   0  0  0  0  0  0  0  0  0  0  0  0
   16.7056   -1.8480   11.6396 F   0  0  0  0  0  0  0  0  0  0  0  0
   15.9506   -0.3823   10.2284 F   0  0  0  0  0  0  0  0  0  0  0  0
   18.0784   -0.4963   10.6409 F   0  0  0  0  0  0  0  0  0  0  0  0
 13 10  1  0  0  0
 12 10  1  0  0  0
 10 11  1  0  0  0
 10  5  1  0  0  0
  5  4  1  0  0  0
  5  6  2  0  0  0
  4  3  2  0  0  0
  6  7  1  0  0  0
  3  2  1  0  0  0
  7  2  1  0  0  0
  7  8  1  0  0  0
  2  1  2  0  0  0
  8  9  1  0  0  0
M  END
> <minimizedAffinity>
-5.30792

$$$$
4Q8X_7FH_A_304


 13 13  0  0  0  0  0  0  0  0999 V2000
   20.1564    4.4483   11.1164 S   0  0  0  0  0  0  0  0  0  0  0  0
   19.2628    3.0023   11.1499 C   0  0  0  0  0  0  0  0  0  0  0  0
   18.1237    2.9046   11.9517 C   0  0  0  0  0  0  0  0  0  0  0  0
   17.4229    1.7249   12.0110 C   0  0  0  0  0  0  0  0  0  0  0  0
   17.8494    0.6440   11.3019 C   0  0  0  0  0  0  0  0  0  0  0  0
   18.9846    0.7423   10.4967 C   0  0  0  0  0  0  0  0  0  0  0  0
   19.6743    1.9306   10.4214 N   0  0  0  0  0  0  0  0  0  0  0  0
   20.7730    2.0079    9.7026 O   0  0  0  0  0  0  0  0  0  0  0  0
   21.0571    1.2697    9.2004 H   0  0  0  0  0  0  0  0  0  0  0  0
   17.1134   -0.5900   11.3596 C   0  0  0  0  0  0  0  0  0  0  0  0
   16.7921   -0.8563   12.6208 F   0  0  0  0  0  0  0  0  0  0  0  0
   16.0054   -0.4797   10.6334 F   0  0  0  0  0  0  0  0  0  0  0  0
   17.8633   -1.5754   10.8758 F   0  0  0  0  0  0  0  0  0  0  0  0
 13 10  1  0  0  0
 12 10  1  0  0  0
 10 11  1  0  0  0
 10  5  1  0  0  0
  5  4  1  0  0  0
  5  6  2  0  0  0
  4  3  2  0  0  0
  6  7  1  0  0  0
  3  2  1  0  0  0
  7  2  1  0  0  0
  7  8  1  0  0  0
  2  1  2  0  0  0
  8  9  1  0  0  0
M  END
> <minimizedAffinity>
-5.29123

$$$$
4Q8X_7FH_A_304


 13 13  0  0  0  0  0  0  0  0999 V2000
   19.2739    6.3870   13.0771 S   0  0  0  0  0  0  0  0  0  0  0  0
   18.0747    5.4502   13.8352 C   0  0  0  0  0  0  0  0  0  0  0  0
   16.7683    5.9340   13.9312 C   0  0  0  0  0  0  0  0  0  0  0  0
   15.8070    5.1967   14.5781 C   0  0  0  0  0  0  0  0  0  0  0  0
   16.1319    4.0013   15.1426 C   0  0  0  0  0  0  0  0  0  0  0  0
   17.4359    3.5149   15.0429 C   0  0  0  0  0  0  0  0  0  0  0  0
   18.3936    4.2444   14.3765 N   0  0  0  0  0  0  0  0  0  0  0  0
   19.6339    3.8097   14.3270 O   0  0  0  0  0  0  0  0  0  0  0  0
   19.8543    2.9788   14.6999 H   0  0  0  0  0  0  0  0  0  0  0  0
   15.1250    3.2264   15.8157 C   0  0  0  0  0  0  0  0  0  0  0  0
   15.7042    2.4051   16.6844 F   0  0  0  0  0  0  0  0  0  0  0  0
   14.2960    4.0413   16.4607 F   0  0  0  0  0  0  0  0  0  0  0  0
   14.4421    2.5169   14.9226 F   0  0  0  0  0  0  0  0  0  0  0  0
 13 10  1  0  0  0
 12 10  1  0  0  0
 10 11  1  0  0  0
 10  5  1  0  0  0
  5  4  1  0  0  0
  5  6  2  0  0  0
  4  3  2  0  0  0
  6  7  1  0  0  0
  3  2  1  0  0  0
  7  2  1  0  0  0
  7  8  1  0  0  0
  2  1  2  0  0  0
  8  9  1  0  0  0
M  END
> <minimizedAffinity>
-5.21370

$$$$
