2PGZ_COC_A_401


 22 24  0  0  0  0  0  0  0  0999 V2000
  -10.7612   20.0128   63.7124 C   0  0  0  0  0  0  0  0  0  0  0  0
  -11.6513   18.9353   64.3645 C   0  0  0  0  0  0  0  0  0  0  0  0
  -13.0158   19.4133   64.3891 N   0  0  0  0  0  0  0  0  0  0  0  0
  -14.1323   18.5758   63.9824 C   0  0  0  0  0  0  0  0  0  0  0  0
  -11.5507   18.9601   65.9011 C   0  0  0  0  0  0  0  0  0  0  0  0
  -12.5080   20.0555   66.4131 C   0  0  0  0  0  0  0  0  0  0  0  0
  -13.2218   20.6170   65.1677 C   0  0  0  0  0  0  0  0  0  0  0  0
  -12.4486   21.7761   64.5088 C   0  0  0  0  0  0  0  0  0  0  0  0
  -10.9642   21.4151   64.3001 C   0  0  0  0  0  0  0  0  0  0  0  0
  -10.9764   20.0574   62.2235 C   0  0  0  0  0  0  0  0  0  0  0  0
  -12.0118   20.4795   61.6859 O   0  0  0  0  0  0  0  0  0  0  0  0
  -10.1044   19.5131   59.9614 C   0  0  0  0  0  0  0  0  0  0  0  0
   -9.9080   19.6127   61.3763 O   0  0  0  0  0  0  0  0  0  0  0  0
  -10.3913   22.3047   63.3765 O   0  0  0  0  0  0  0  0  0  0  0  0
   -9.6475   23.3728   63.9817 C   0  0  0  0  0  0  0  0  0  0  0  0
   -9.4258   23.3745   65.1820 O   0  0  0  0  0  0  0  0  0  0  0  0
   -9.2501   24.4905   63.0736 C   0  0  0  0  0  0  0  0  0  0  0  0
   -8.4682   25.5498   63.5344 C   0  0  0  0  0  0  0  0  0  0  0  0
   -8.1522   26.5741   62.6531 C   0  0  0  0  0  0  0  0  0  0  0  0
   -8.6069   26.5535   61.3327 C   0  0  0  0  0  0  0  0  0  0  0  0
   -9.4008   25.5097   60.8764 C   0  0  0  0  0  0  0  0  0  0  0  0
   -9.7190   24.4711   61.7541 C   0  0  0  0  0  0  0  0  0  0  0  0
 12 13  1  0  0  0
 13 10  1  0  0  0
 10 11  2  0  0  0
 10  1  1  0  0  0
  1  2  1  0  0  0
  1  9  1  0  0  0
  2  3  1  0  0  0
  2  5  1  0  0  0
  3  4  1  0  0  0
  3  7  1  0  0  0
  5  6  1  0  0  0
  6  7  1  0  0  0
  7  8  1  0  0  0
  8  9  1  0  0  0
  9 14  1  0  0  0
 14 15  1  0  0  0
 15 16  2  0  0  0
 15 17  1  0  0  0
 17 18  2  0  0  0
 17 22  1  0  0  0
 18 19  1  0  0  0
 19 20  2  0  0  0
 20 21  1  0  0  0
 21 22  2  0  0  0
M  END
> <minimizedAffinity>
-8.40404

$$$$
2PGZ_COC_A_401


 22 24  0  0  0  0  0  0  0  0999 V2000
  -11.9461   21.3182   64.0045 C   0  0  0  0  0  0  0  0  0  0  0  0
  -12.7772   20.7091   65.1522 C   0  0  0  0  0  0  0  0  0  0  0  0
  -12.2659   19.3885   65.4450 N   0  0  0  0  0  0  0  0  0  0  0  0
  -12.0210   18.9424   66.8068 C   0  0  0  0  0  0  0  0  0  0  0  0
  -14.1200   20.1447   64.6521 C   0  0  0  0  0  0  0  0  0  0  0  0
  -13.8538   18.7299   64.0990 C   0  0  0  0  0  0  0  0  0  0  0  0
  -12.3595   18.4462   64.3492 C   0  0  0  0  0  0  0  0  0  0  0  0
  -11.4590   18.9308   63.1960 C   0  0  0  0  0  0  0  0  0  0  0  0
  -11.7874   20.3839   62.7984 C   0  0  0  0  0  0  0  0  0  0  0  0
  -10.5870   21.7419   64.4926 C   0  0  0  0  0  0  0  0  0  0  0  0
   -9.5701   21.0361   64.4085 O   0  0  0  0  0  0  0  0  0  0  0  0
   -9.4697   23.9602   64.5580 C   0  0  0  0  0  0  0  0  0  0  0  0
  -10.4553   23.0517   65.0616 O   0  0  0  0  0  0  0  0  0  0  0  0
  -10.7298   20.9123   62.0403 O   0  0  0  0  0  0  0  0  0  0  0  0
  -11.1260   21.4019   60.7505 C   0  0  0  0  0  0  0  0  0  0  0  0
  -12.0066   22.2408   60.6470 O   0  0  0  0  0  0  0  0  0  0  0  0
  -10.4590   20.7650   59.5752 C   0  0  0  0  0  0  0  0  0  0  0  0
   -9.8535   19.5129   59.6815 C   0  0  0  0  0  0  0  0  0  0  0  0
   -9.2255   18.9820   58.5637 C   0  0  0  0  0  0  0  0  0  0  0  0
   -9.1932   19.6824   57.3557 C   0  0  0  0  0  0  0  0  0  0  0  0
   -9.7790   20.9371   57.2520 C   0  0  0  0  0  0  0  0  0  0  0  0
  -10.4188   21.4769   58.3698 C   0  0  0  0  0  0  0  0  0  0  0  0
 12 13  1  0  0  0
 13 10  1  0  0  0
 10 11  2  0  0  0
 10  1  1  0  0  0
  1  2  1  0  0  0
  1  9  1  0  0  0
  2  3  1  0  0  0
  2  5  1  0  0  0
  3  4  1  0  0  0
  3  7  1  0  0  0
  5  6  1  0  0  0
  6  7  1  0  0  0
  7  8  1  0  0  0
  8  9  1  0  0  0
  9 14  1  0  0  0
 14 15  1  0  0  0
 15 16  2  0  0  0
 15 17  1  0  0  0
 17 18  2  0  0  0
 17 22  1  0  0  0
 18 19  1  0  0  0
 19 20  2  0  0  0
 20 21  1  0  0  0
 21 22  2  0  0  0
M  END
> <minimizedAffinity>
-7.86890

$$$$
2PGZ_COC_A_401


 22 24  0  0  0  0  0  0  0  0999 V2000
  -12.5917   21.3036   64.0239 C   0  0  0  0  0  0  0  0  0  0  0  0
  -13.3645   20.6025   65.1598 C   0  0  0  0  0  0  0  0  0  0  0  0
  -12.5273   19.5642   65.7184 N   0  0  0  0  0  0  0  0  0  0  0  0
  -12.3710   19.3901   67.1532 C   0  0  0  0  0  0  0  0  0  0  0  0
  -14.3782   19.5779   64.6175 C   0  0  0  0  0  0  0  0  0  0  0  0
  -13.6126   18.2691   64.3358 C   0  0  0  0  0  0  0  0  0  0  0  0
  -12.1600   18.5166   64.7883 C   0  0  0  0  0  0  0  0  0  0  0  0
  -11.2833   19.1225   63.6749 C   0  0  0  0  0  0  0  0  0  0  0  0
  -11.9728   20.3316   63.0114 C   0  0  0  0  0  0  0  0  0  0  0  0
  -11.5180   22.2000   64.5792 C   0  0  0  0  0  0  0  0  0  0  0  0
  -10.5501   22.6111   63.9207 O   0  0  0  0  0  0  0  0  0  0  0  0
  -10.8069   23.6809   66.4434 C   0  0  0  0  0  0  0  0  0  0  0  0
  -11.6383   22.6280   65.9427 O   0  0  0  0  0  0  0  0  0  0  0  0
  -11.0225   21.0776   62.2952 O   0  0  0  0  0  0  0  0  0  0  0  0
  -10.5385   20.4221   61.1135 C   0  0  0  0  0  0  0  0  0  0  0  0
   -9.6791   19.5585   61.1887 O   0  0  0  0  0  0  0  0  0  0  0  0
  -11.0877   20.9206   59.8167 C   0  0  0  0  0  0  0  0  0  0  0  0
  -11.5721   20.0369   58.8522 C   0  0  0  0  0  0  0  0  0  0  0  0
  -12.0456   20.5550   57.6551 C   0  0  0  0  0  0  0  0  0  0  0  0
  -12.0369   21.9305   57.4125 C   0  0  0  0  0  0  0  0  0  0  0  0
  -11.5382   22.8111   58.3633 C   0  0  0  0  0  0  0  0  0  0  0  0
  -11.0653   22.2996   59.5737 C   0  0  0  0  0  0  0  0  0  0  0  0
 12 13  1  0  0  0
 13 10  1  0  0  0
 10 11  2  0  0  0
 10  1  1  0  0  0
  1  2  1  0  0  0
  1  9  1  0  0  0
  2  3  1  0  0  0
  2  5  1  0  0  0
  3  4  1  0  0  0
  3  7  1  0  0  0
  5  6  1  0  0  0
  6  7  1  0  0  0
  7  8  1  0  0  0
  8  9  1  0  0  0
  9 14  1  0  0  0
 14 15  1  0  0  0
 15 16  2  0  0  0
 15 17  1  0  0  0
 17 18  2  0  0  0
 17 22  1  0  0  0
 18 19  1  0  0  0
 19 20  2  0  0  0
 20 21  1  0  0  0
 21 22  2  0  0  0
M  END
> <minimizedAffinity>
-7.75949

$$$$
2PGZ_COC_A_401


 22 24  0  0  0  0  0  0  0  0999 V2000
  -10.9174   20.1061   63.9196 C   0  0  0  0  0  0  0  0  0  0  0  0
  -11.7037   18.8640   64.3861 C   0  0  0  0  0  0  0  0  0  0  0  0
  -13.1174   19.1641   64.3358 N   0  0  0  0  0  0  0  0  0  0  0  0
  -14.0798   18.2422   63.7550 C   0  0  0  0  0  0  0  0  0  0  0  0
  -11.7227   18.7393   65.9209 C   0  0  0  0  0  0  0  0  0  0  0  0
  -12.8520   19.6476   66.4483 C   0  0  0  0  0  0  0  0  0  0  0  0
  -13.5383   20.2443   65.2038 C   0  0  0  0  0  0  0  0  0  0  0  0
  -12.8778   21.5531   64.7281 C   0  0  0  0  0  0  0  0  0  0  0  0
  -11.3473   21.4027   64.6174 C   0  0  0  0  0  0  0  0  0  0  0  0
  -11.0243   20.2801   62.4286 C   0  0  0  0  0  0  0  0  0  0  0  0
  -11.9980   20.7977   61.8599 O   0  0  0  0  0  0  0  0  0  0  0  0
  -10.1068   19.5943   60.2236 C   0  0  0  0  0  0  0  0  0  0  0  0
   -9.9209   19.8483   61.6206 O   0  0  0  0  0  0  0  0  0  0  0  0
  -10.8293   22.4487   63.8362 O   0  0  0  0  0  0  0  0  0  0  0  0
   -9.7627   23.1731   64.4670 C   0  0  0  0  0  0  0  0  0  0  0  0
   -8.6141   23.0611   64.0693 O   0  0  0  0  0  0  0  0  0  0  0  0
  -10.1399   23.9840   65.6637 C   0  0  0  0  0  0  0  0  0  0  0  0
  -10.9030   23.4352   66.6944 C   0  0  0  0  0  0  0  0  0  0  0  0
  -11.2462   24.2434   67.7690 C   0  0  0  0  0  0  0  0  0  0  0  0
  -10.8431   25.5796   67.8224 C   0  0  0  0  0  0  0  0  0  0  0  0
  -10.0993   26.1336   66.7890 C   0  0  0  0  0  0  0  0  0  0  0  0
   -9.7436   25.3265   65.7063 C   0  0  0  0  0  0  0  0  0  0  0  0
 12 13  1  0  0  0
 13 10  1  0  0  0
 10 11  2  0  0  0
 10  1  1  0  0  0
  1  2  1  0  0  0
  1  9  1  0  0  0
  2  3  1  0  0  0
  2  5  1  0  0  0
  3  4  1  0  0  0
  3  7  1  0  0  0
  5  6  1  0  0  0
  6  7  1  0  0  0
  7  8  1  0  0  0
  8  9  1  0  0  0
  9 14  1  0  0  0
 14 15  1  0  0  0
 15 16  2  0  0  0
 15 17  1  0  0  0
 17 18  2  0  0  0
 17 22  1  0  0  0
 18 19  1  0  0  0
 19 20  2  0  0  0
 20 21  1  0  0  0
 21 22  2  0  0  0
M  END
> <minimizedAffinity>
-7.75754

$$$$
2PGZ_COC_A_401


 22 24  0  0  0  0  0  0  0  0999 V2000
  -12.2327   21.8599   64.8270 C   0  0  0  0  0  0  0  0  0  0  0  0
  -13.1462   20.7568   65.3993 C   0  0  0  0  0  0  0  0  0  0  0  0
  -12.3185   19.6776   65.8905 N   0  0  0  0  0  0  0  0  0  0  0  0
  -12.5471   19.0609   67.1870 C   0  0  0  0  0  0  0  0  0  0  0  0
  -13.7450   19.8736   64.2889 C   0  0  0  0  0  0  0  0  0  0  0  0
  -12.6925   18.8071   63.9234 C   0  0  0  0  0  0  0  0  0  0  0  0
  -11.5058   19.0303   64.8815 C   0  0  0  0  0  0  0  0  0  0  0  0
  -10.4827   20.0464   64.3373 C   0  0  0  0  0  0  0  0  0  0  0  0
  -11.1748   21.3346   63.8483 C   0  0  0  0  0  0  0  0  0  0  0  0
  -11.5565   22.6240   65.9333 C   0  0  0  0  0  0  0  0  0  0  0  0
  -11.3824   22.1770   67.0776 O   0  0  0  0  0  0  0  0  0  0  0  0
  -10.1152   24.5630   66.5137 C   0  0  0  0  0  0  0  0  0  0  0  0
  -11.0577   23.9356   65.6370 O   0  0  0  0  0  0  0  0  0  0  0  0
  -10.2230   22.3599   63.7255 O   0  0  0  0  0  0  0  0  0  0  0  0
  -10.0674   22.8524   62.3863 C   0  0  0  0  0  0  0  0  0  0  0  0
  -10.4103   22.1750   61.4305 O   0  0  0  0  0  0  0  0  0  0  0  0
   -9.3969   24.1805   62.2507 C   0  0  0  0  0  0  0  0  0  0  0  0
   -8.5018   24.6377   63.2179 C   0  0  0  0  0  0  0  0  0  0  0  0
   -7.9293   25.8911   63.0531 C   0  0  0  0  0  0  0  0  0  0  0  0
   -8.2409   26.6849   61.9470 C   0  0  0  0  0  0  0  0  0  0  0  0
   -9.1457   26.2401   60.9922 C   0  0  0  0  0  0  0  0  0  0  0  0
   -9.7222   24.9775   61.1461 C   0  0  0  0  0  0  0  0  0  0  0  0
 12 13  1  0  0  0
 13 10  1  0  0  0
 10 11  2  0  0  0
 10  1  1  0  0  0
  1  2  1  0  0  0
  1  9  1  0  0  0
  2  3  1  0  0  0
  2  5  1  0  0  0
  3  4  1  0  0  0
  3  7  1  0  0  0
  5  6  1  0  0  0
  6  7  1  0  0  0
  7  8  1  0  0  0
  8  9  1  0  0  0
  9 14  1  0  0  0
 14 15  1  0  0  0
 15 16  2  0  0  0
 15 17  1  0  0  0
 17 18  2  0  0  0
 17 22  1  0  0  0
 18 19  1  0  0  0
 19 20  2  0  0  0
 20 21  1  0  0  0
 21 22  2  0  0  0
M  END
> <minimizedAffinity>
-7.58123

$$$$
2PGZ_COC_A_401


 22 24  0  0  0  0  0  0  0  0999 V2000
  -12.1016   21.5765   64.3493 C   0  0  0  0  0  0  0  0  0  0  0  0
  -13.0298   20.7744   65.2840 C   0  0  0  0  0  0  0  0  0  0  0  0
  -12.3797   19.5288   65.6262 N   0  0  0  0  0  0  0  0  0  0  0  0
  -12.3337   19.0345   66.9926 C   0  0  0  0  0  0  0  0  0  0  0  0
  -14.1428   20.0497   64.5045 C   0  0  0  0  0  0  0  0  0  0  0  0
  -13.5518   18.7309   63.9660 C   0  0  0  0  0  0  0  0  0  0  0  0
  -12.1081   18.6585   64.5010 C   0  0  0  0  0  0  0  0  0  0  0  0
  -11.0916   19.3485   63.5703 C   0  0  0  0  0  0  0  0  0  0  0  0
  -11.5657   20.7592   63.1670 C   0  0  0  0  0  0  0  0  0  0  0  0
  -10.9479   22.1656   65.1153 C   0  0  0  0  0  0  0  0  0  0  0  0
   -9.7618   21.8513   64.9311 O   0  0  0  0  0  0  0  0  0  0  0  0
  -10.3370   24.2704   66.2861 C   0  0  0  0  0  0  0  0  0  0  0  0
  -11.2358   23.1720   66.0957 O   0  0  0  0  0  0  0  0  0  0  0  0
  -10.4803   21.4897   62.6563 O   0  0  0  0  0  0  0  0  0  0  0  0
  -10.8345   22.3990   61.6037 C   0  0  0  0  0  0  0  0  0  0  0  0
  -11.6704   22.0901   60.7696 O   0  0  0  0  0  0  0  0  0  0  0  0
  -10.0656   23.6791   61.5578 C   0  0  0  0  0  0  0  0  0  0  0  0
  -10.1559   24.5348   60.4599 C   0  0  0  0  0  0  0  0  0  0  0  0
   -9.3980   25.6973   60.4602 C   0  0  0  0  0  0  0  0  0  0  0  0
   -8.5578   26.0086   61.5316 C   0  0  0  0  0  0  0  0  0  0  0  0
   -8.4518   25.1495   62.6173 C   0  0  0  0  0  0  0  0  0  0  0  0
   -9.2153   23.9802   62.6291 C   0  0  0  0  0  0  0  0  0  0  0  0
 12 13  1  0  0  0
 13 10  1  0  0  0
 10 11  2  0  0  0
 10  1  1  0  0  0
  1  2  1  0  0  0
  1  9  1  0  0  0
  2  3  1  0  0  0
  2  5  1  0  0  0
  3  4  1  0  0  0
  3  7  1  0  0  0
  5  6  1  0  0  0
  6  7  1  0  0  0
  7  8  1  0  0  0
  8  9  1  0  0  0
  9 14  1  0  0  0
 14 15  1  0  0  0
 15 16  2  0  0  0
 15 17  1  0  0  0
 17 18  2  0  0  0
 17 22  1  0  0  0
 18 19  1  0  0  0
 19 20  2  0  0  0
 20 21  1  0  0  0
 21 22  2  0  0  0
M  END
> <minimizedAffinity>
-7.43688

$$$$
2PGZ_COC_A_401


 22 24  0  0  0  0  0  0  0  0999 V2000
   -8.9025   23.7118   64.9469 C   0  0  0  0  0  0  0  0  0  0  0  0
   -7.8320   24.8175   64.8461 C   0  0  0  0  0  0  0  0  0  0  0  0
   -8.3446   25.8852   64.0164 N   0  0  0  0  0  0  0  0  0  0  0  0
   -8.2280   27.2824   64.4007 C   0  0  0  0  0  0  0  0  0  0  0  0
   -6.7371   24.4652   63.8220 C   0  0  0  0  0  0  0  0  0  0  0  0
   -7.2635   24.8527   62.4251 C   0  0  0  0  0  0  0  0  0  0  0  0
   -8.6430   25.5018   62.6521 C   0  0  0  0  0  0  0  0  0  0  0  0
   -9.7915   24.4740   62.6623 C   0  0  0  0  0  0  0  0  0  0  0  0
   -9.4726   23.2835   63.5889 C   0  0  0  0  0  0  0  0  0  0  0  0
  -10.0278   24.1355   65.8519 C   0  0  0  0  0  0  0  0  0  0  0  0
  -11.0381   23.4486   66.0686 O   0  0  0  0  0  0  0  0  0  0  0  0
  -11.0144   25.9198   67.2720 C   0  0  0  0  0  0  0  0  0  0  0  0
   -9.9098   25.3955   66.5266 O   0  0  0  0  0  0  0  0  0  0  0  0
  -10.6555   22.5817   63.8735 O   0  0  0  0  0  0  0  0  0  0  0  0
  -10.6100   21.1935   63.5116 C   0  0  0  0  0  0  0  0  0  0  0  0
   -9.7004   20.7594   62.8231 O   0  0  0  0  0  0  0  0  0  0  0  0
  -11.7690   20.3625   63.9565 C   0  0  0  0  0  0  0  0  0  0  0  0
  -12.9951   20.9472   64.2738 C   0  0  0  0  0  0  0  0  0  0  0  0
  -14.0285   20.1288   64.7074 C   0  0  0  0  0  0  0  0  0  0  0  0
  -13.8510   18.7488   64.8295 C   0  0  0  0  0  0  0  0  0  0  0  0
  -12.6261   18.1663   64.5321 C   0  0  0  0  0  0  0  0  0  0  0  0
  -11.5819   18.9809   64.0890 C   0  0  0  0  0  0  0  0  0  0  0  0
 12 13  1  0  0  0
 13 10  1  0  0  0
 10 11  2  0  0  0
 10  1  1  0  0  0
  1  2  1  0  0  0
  1  9  1  0  0  0
  2  3  1  0  0  0
  2  5  1  0  0  0
  3  4  1  0  0  0
  3  7  1  0  0  0
  5  6  1  0  0  0
  6  7  1  0  0  0
  7  8  1  0  0  0
  8  9  1  0  0  0
  9 14  1  0  0  0
 14 15  1  0  0  0
 15 16  2  0  0  0
 15 17  1  0  0  0
 17 18  2  0  0  0
 17 22  1  0  0  0
 18 19  1  0  0  0
 19 20  2  0  0  0
 20 21  1  0  0  0
 21 22  2  0  0  0
M  END
> <minimizedAffinity>
-7.07585

$$$$
2PGZ_COC_A_401


 22 24  0  0  0  0  0  0  0  0999 V2000
  -11.4888   22.4756   64.2179 C   0  0  0  0  0  0  0  0  0  0  0  0
  -12.2176   21.2667   63.5964 C   0  0  0  0  0  0  0  0  0  0  0  0
  -11.4280   20.0782   63.8310 N   0  0  0  0  0  0  0  0  0  0  0  0
  -12.0225   18.8412   64.3101 C   0  0  0  0  0  0  0  0  0  0  0  0
  -11.9995   21.1850   62.0741 C   0  0  0  0  0  0  0  0  0  0  0  0
  -10.6453   20.4871   61.8342 C   0  0  0  0  0  0  0  0  0  0  0  0
  -10.1120   20.0966   63.2267 C   0  0  0  0  0  0  0  0  0  0  0  0
   -9.2778   21.2152   63.8813 C   0  0  0  0  0  0  0  0  0  0  0  0
  -10.0100   22.5709   63.8220 C   0  0  0  0  0  0  0  0  0  0  0  0
  -11.6062   22.4595   65.7182 C   0  0  0  0  0  0  0  0  0  0  0  0
  -11.7127   21.4240   66.3933 O   0  0  0  0  0  0  0  0  0  0  0  0
  -10.9379   23.8086   67.6948 C   0  0  0  0  0  0  0  0  0  0  0  0
  -11.5620   23.7154   66.4094 O   0  0  0  0  0  0  0  0  0  0  0  0
   -9.4242   23.4598   64.7381 O   0  0  0  0  0  0  0  0  0  0  0  0
   -8.2929   24.1723   64.2156 C   0  0  0  0  0  0  0  0  0  0  0  0
   -7.1714   23.9636   64.6498 O   0  0  0  0  0  0  0  0  0  0  0  0
   -8.5934   25.2172   63.1910 C   0  0  0  0  0  0  0  0  0  0  0  0
   -9.1531   24.8783   61.9591 C   0  0  0  0  0  0  0  0  0  0  0  0
   -9.3858   25.8875   61.0354 C   0  0  0  0  0  0  0  0  0  0  0  0
   -9.0654   27.2158   61.3247 C   0  0  0  0  0  0  0  0  0  0  0  0
   -8.4910   27.5535   62.5429 C   0  0  0  0  0  0  0  0  0  0  0  0
   -8.2589   26.5457   63.4814 C   0  0  0  0  0  0  0  0  0  0  0  0
 12 13  1  0  0  0
 13 10  1  0  0  0
 10 11  2  0  0  0
 10  1  1  0  0  0
  1  2  1  0  0  0
  1  9  1  0  0  0
  2  3  1  0  0  0
  2  5  1  0  0  0
  3  4  1  0  0  0
  3  7  1  0  0  0
  5  6  1  0  0  0
  6  7  1  0  0  0
  7  8  1  0  0  0
  8  9  1  0  0  0
  9 14  1  0  0  0
 14 15  1  0  0  0
 15 16  2  0  0  0
 15 17  1  0  0  0
 17 18  2  0  0  0
 17 22  1  0  0  0
 18 19  1  0  0  0
 19 20  2  0  0  0
 20 21  1  0  0  0
 21 22  2  0  0  0
M  END
> <minimizedAffinity>
-6.72031

$$$$
2PGZ_COC_A_401


 22 24  0  0  0  0  0  0  0  0999 V2000
  -10.3590   20.4937   62.1850 C   0  0  0  0  0  0  0  0  0  0  0  0
  -11.0058   19.6957   63.3354 C   0  0  0  0  0  0  0  0  0  0  0  0
  -12.4042   20.0538   63.4196 N   0  0  0  0  0  0  0  0  0  0  0  0
  -13.4487   19.0517   63.5550 C   0  0  0  0  0  0  0  0  0  0  0  0
  -10.7005   20.3197   64.7099 C   0  0  0  0  0  0  0  0  0  0  0  0
  -11.7119   21.4614   64.9383 C   0  0  0  0  0  0  0  0  0  0  0  0
  -12.6552   21.4483   63.7192 C   0  0  0  0  0  0  0  0  0  0  0  0
  -12.1346   22.3109   62.5529 C   0  0  0  0  0  0  0  0  0  0  0  0
  -10.6586   21.9972   62.2364 C   0  0  0  0  0  0  0  0  0  0  0  0
  -10.7792   19.9442   60.8484 C   0  0  0  0  0  0  0  0  0  0  0  0
  -11.9068   20.1059   60.3568 O   0  0  0  0  0  0  0  0  0  0  0  0
   -9.6489   19.4746   58.6860 C   0  0  0  0  0  0  0  0  0  0  0  0
   -9.8075   19.2158   60.0855 O   0  0  0  0  0  0  0  0  0  0  0  0
  -10.3363   22.4962   60.9637 O   0  0  0  0  0  0  0  0  0  0  0  0
  -10.1719   23.9215   60.9220 C   0  0  0  0  0  0  0  0  0  0  0  0
  -10.7096   24.5847   60.0496 O   0  0  0  0  0  0  0  0  0  0  0  0
   -9.2527   24.5049   61.9451 C   0  0  0  0  0  0  0  0  0  0  0  0
   -8.9275   23.8025   63.1055 C   0  0  0  0  0  0  0  0  0  0  0  0
   -8.0900   24.4050   64.0336 C   0  0  0  0  0  0  0  0  0  0  0  0
   -7.5828   25.6886   63.8189 C   0  0  0  0  0  0  0  0  0  0  0  0
   -7.9197   26.3974   62.6734 C   0  0  0  0  0  0  0  0  0  0  0  0
   -8.7568   25.7970   61.7306 C   0  0  0  0  0  0  0  0  0  0  0  0
 12 13  1  0  0  0
 13 10  1  0  0  0
 10 11  2  0  0  0
 10  1  1  0  0  0
  1  2  1  0  0  0
  1  9  1  0  0  0
  2  3  1  0  0  0
  2  5  1  0  0  0
  3  4  1  0  0  0
  3  7  1  0  0  0
  5  6  1  0  0  0
  6  7  1  0  0  0
  7  8  1  0  0  0
  8  9  1  0  0  0
  9 14  1  0  0  0
 14 15  1  0  0  0
 15 16  2  0  0  0
 15 17  1  0  0  0
 17 18  2  0  0  0
 17 22  1  0  0  0
 18 19  1  0  0  0
 19 20  2  0  0  0
 20 21  1  0  0  0
 21 22  2  0  0  0
M  END
> <minimizedAffinity>
-6.52162

$$$$
2PGZ_COC_A_401


 22 24  0  0  0  0  0  0  0  0999 V2000
   -9.5239   22.5133   64.2928 C   0  0  0  0  0  0  0  0  0  0  0  0
   -8.6584   23.5952   64.9703 C   0  0  0  0  0  0  0  0  0  0  0  0
   -9.1470   24.8967   64.5722 N   0  0  0  0  0  0  0  0  0  0  0  0
   -9.3538   25.9681   65.5328 C   0  0  0  0  0  0  0  0  0  0  0  0
   -7.3215   23.8048   64.2352 C   0  0  0  0  0  0  0  0  0  0  0  0
   -7.5843   24.7604   63.0535 C   0  0  0  0  0  0  0  0  0  0  0  0
   -9.0688   25.1641   63.1511 C   0  0  0  0  0  0  0  0  0  0  0  0
  -10.0023   24.1888   62.4075 C   0  0  0  0  0  0  0  0  0  0  0  0
   -9.7006   22.7243   62.7838 C   0  0  0  0  0  0  0  0  0  0  0  0
  -10.8757   22.4199   64.9476 C   0  0  0  0  0  0  0  0  0  0  0  0
  -11.4765   23.3889   65.4370 O   0  0  0  0  0  0  0  0  0  0  0  0
  -12.9479   21.0517   65.0381 C   0  0  0  0  0  0  0  0  0  0  0  0
  -11.5197   21.1389   64.9804 O   0  0  0  0  0  0  0  0  0  0  0  0
  -10.7823   21.9116   62.4069 O   0  0  0  0  0  0  0  0  0  0  0  0
  -10.4278   20.8518   61.5062 C   0  0  0  0  0  0  0  0  0  0  0  0
   -9.7747   19.8968   61.8953 O   0  0  0  0  0  0  0  0  0  0  0  0
  -10.8334   21.0406   60.0808 C   0  0  0  0  0  0  0  0  0  0  0  0
  -11.0219   22.3160   59.5483 C   0  0  0  0  0  0  0  0  0  0  0  0
  -11.4249   22.4302   58.2253 C   0  0  0  0  0  0  0  0  0  0  0  0
  -11.6428   21.2967   57.4388 C   0  0  0  0  0  0  0  0  0  0  0  0
  -11.4739   20.0256   57.9716 C   0  0  0  0  0  0  0  0  0  0  0  0
  -11.0625   19.9006   59.3003 C   0  0  0  0  0  0  0  0  0  0  0  0
 12 13  1  0  0  0
 13 10  1  0  0  0
 10 11  2  0  0  0
 10  1  1  0  0  0
  1  2  1  0  0  0
  1  9  1  0  0  0
  2  3  1  0  0  0
  2  5  1  0  0  0
  3  4  1  0  0  0
  3  7  1  0  0  0
  5  6  1  0  0  0
  6  7  1  0  0  0
  7  8  1  0  0  0
  8  9  1  0  0  0
  9 14  1  0  0  0
 14 15  1  0  0  0
 15 16  2  0  0  0
 15 17  1  0  0  0
 17 18  2  0  0  0
 17 22  1  0  0  0
 18 19  1  0  0  0
 19 20  2  0  0  0
 20 21  1  0  0  0
 21 22  2  0  0  0
M  END
> <minimizedAffinity>
-6.50933

$$$$
