3S5Y_DGJ_A_801


 16 16  0  0  0  0  0  0  0  0999 V2000
   38.8125   16.3005   31.9074 C   0  0  0  0  0  0  0  0  0  0  0  0
   40.0029   16.1521   30.9745 C   0  0  0  0  0  0  0  0  0  0  0  0
   41.1168   16.8998   31.4632 O   0  0  0  0  0  0  0  0  0  0  0  0
   39.5721   16.5797   29.5742 C   0  0  0  0  0  0  0  0  0  0  0  0
   40.7001   16.6079   28.6872 O   0  0  0  0  0  0  0  0  0  0  0  0
   38.5147   15.6030   29.0813 C   0  0  0  0  0  0  0  0  0  0  0  0
   39.1369   14.3242   28.9205 O   0  0  0  0  0  0  0  0  0  0  0  0
   37.3302   15.4929   30.0496 C   0  0  0  0  0  0  0  0  0  0  0  0
   37.8023   15.3933   31.4157 N   0  0  0  0  0  0  0  0  0  0  0  0
   40.8758   17.8375   31.5223 H   0  0  0  0  0  0  0  0  0  0  0  0
   41.0961   15.7237   28.6396 H   0  0  0  0  0  0  0  0  0  0  0  0
   39.4850   14.0244   29.7748 H   0  0  0  0  0  0  0  0  0  0  0  0
   36.9864   15.5102   32.0166 H   0  0  0  0  0  0  0  0  0  0  0  0
   36.4613   14.2835   29.7398 C   0  0  0  0  0  0  0  0  0  0  0  0
   36.8843   13.1610   30.5097 O   0  0  0  0  0  0  0  0  0  0  0  0
   37.8050   12.9477   30.2913 H   0  0  0  0  0  0  0  0  0  0  0  0
  9  1  1  0  0  0
  2  1  1  0  0  0
  4  2  1  0  0  0
  2  3  1  0  0  0
  6  4  1  0  0  0
  5  4  1  0  0  0
  7  6  1  0  0  0
  6  8  1  0  0  0
 14  8  1  0  0  0
  8  9  1  0  0  0
 14 15  1  0  0  0
  3 10  1  0  0  0
  5 11  1  0  0  0
  7 12  1  0  0  0
  9 13  1  0  0  0
 15 16  1  0  0  0
M  END
> <minimizedAffinity>
-7.17050

$$$$
3S5Y_DGJ_A_801


 16 16  0  0  0  0  0  0  0  0999 V2000
   38.2125   16.2155   29.0927 C   0  0  0  0  0  0  0  0  0  0  0  0
   39.5217   16.6373   29.7389 C   0  0  0  0  0  0  0  0  0  0  0  0
   40.5922   16.5565   28.7975 O   0  0  0  0  0  0  0  0  0  0  0  0
   39.7512   15.7672   30.9716 C   0  0  0  0  0  0  0  0  0  0  0  0
   41.0495   16.0177   31.5298 O   0  0  0  0  0  0  0  0  0  0  0  0
   38.6549   16.0722   31.9817 C   0  0  0  0  0  0  0  0  0  0  0  0
   38.8269   17.4223   32.4242 O   0  0  0  0  0  0  0  0  0  0  0  0
   37.2523   15.8882   31.3888 C   0  0  0  0  0  0  0  0  0  0  0  0
   37.1808   16.4795   30.0680 N   0  0  0  0  0  0  0  0  0  0  0  0
   40.6754   15.6437   28.4801 H   0  0  0  0  0  0  0  0  0  0  0  0
   41.1172   16.9510   31.7850 H   0  0  0  0  0  0  0  0  0  0  0  0
   38.7489   18.0233   31.6667 H   0  0  0  0  0  0  0  0  0  0  0  0
   36.3013   16.1685   29.6554 H   0  0  0  0  0  0  0  0  0  0  0  0
   36.1830   16.5180   32.2684 C   0  0  0  0  0  0  0  0  0  0  0  0
   35.9275   17.8574   31.8532 O   0  0  0  0  0  0  0  0  0  0  0  0
   36.7411   18.3801   31.9286 H   0  0  0  0  0  0  0  0  0  0  0  0
  9  1  1  0  0  0
  2  1  1  0  0  0
  4  2  1  0  0  0
  2  3  1  0  0  0
  6  4  1  0  0  0
  5  4  1  0  0  0
  7  6  1  0  0  0
  6  8  1  0  0  0
 14  8  1  0  0  0
  8  9  1  0  0  0
 14 15  1  0  0  0
  3 10  1  0  0  0
  5 11  1  0  0  0
  7 12  1  0  0  0
  9 13  1  0  0  0
 15 16  1  0  0  0
M  END
> <minimizedAffinity>
-5.41422

$$$$
3S5Y_DGJ_A_801


 16 16  0  0  0  0  0  0  0  0999 V2000
   36.6606   14.1462   29.3919 C   0  0  0  0  0  0  0  0  0  0  0  0
   36.4586   14.4040   30.8760 C   0  0  0  0  0  0  0  0  0  0  0  0
   35.1861   13.9137   31.2994 O   0  0  0  0  0  0  0  0  0  0  0  0
   36.6315   15.8985   31.1318 C   0  0  0  0  0  0  0  0  0  0  0  0
   36.2970   16.2186   32.4903 O   0  0  0  0  0  0  0  0  0  0  0  0
   38.0739   16.2717   30.8227 C   0  0  0  0  0  0  0  0  0  0  0  0
   38.9131   15.6162   31.7789 O   0  0  0  0  0  0  0  0  0  0  0  0
   38.4849   15.8704   29.4005 C   0  0  0  0  0  0  0  0  0  0  0  0
   38.0214   14.5310   29.0998 N   0  0  0  0  0  0  0  0  0  0  0  0
   34.4848   14.3625   30.8017 H   0  0  0  0  0  0  0  0  0  0  0  0
   36.8778   15.7260   33.0910 H   0  0  0  0  0  0  0  0  0  0  0  0
   38.8012   14.6557   31.7027 H   0  0  0  0  0  0  0  0  0  0  0  0
   38.1563   14.3925   28.0983 H   0  0  0  0  0  0  0  0  0  0  0  0
   39.9938   15.9220   29.2156 C   0  0  0  0  0  0  0  0  0  0  0  0
   40.5377   17.0454   29.9039 O   0  0  0  0  0  0  0  0  0  0  0  0
   40.1517   17.8609   29.5477 H   0  0  0  0  0  0  0  0  0  0  0  0
  9  1  1  0  0  0
  2  1  1  0  0  0
  4  2  1  0  0  0
  2  3  1  0  0  0
  6  4  1  0  0  0
  5  4  1  0  0  0
  7  6  1  0  0  0
  6  8  1  0  0  0
 14  8  1  0  0  0
  8  9  1  0  0  0
 14 15  1  0  0  0
  3 10  1  0  0  0
  5 11  1  0  0  0
  7 12  1  0  0  0
  9 13  1  0  0  0
 15 16  1  0  0  0
M  END
> <minimizedAffinity>
-5.16637

$$$$
3S5Y_DGJ_A_801


 16 16  0  0  0  0  0  0  0  0999 V2000
   39.4381   15.0980   29.0534 C   0  0  0  0  0  0  0  0  0  0  0  0
   39.4731   16.3773   29.8731 C   0  0  0  0  0  0  0  0  0  0  0  0
   40.7592   16.9913   29.7859 O   0  0  0  0  0  0  0  0  0  0  0  0
   39.0748   16.0399   31.3072 C   0  0  0  0  0  0  0  0  0  0  0  0
   39.2430   17.1831   32.1584 O   0  0  0  0  0  0  0  0  0  0  0  0
   37.6272   15.5713   31.3026 C   0  0  0  0  0  0  0  0  0  0  0  0
   36.8063   16.6809   30.9244 O   0  0  0  0  0  0  0  0  0  0  0  0
   37.4003   14.3979   30.3411 C   0  0  0  0  0  0  0  0  0  0  0  0
   38.0678   14.6431   29.0788 N   0  0  0  0  0  0  0  0  0  0  0  0
   41.4328   16.3803   30.1235 H   0  0  0  0  0  0  0  0  0  0  0  0
   38.6854   17.9094   31.8383 H   0  0  0  0  0  0  0  0  0  0  0  0
   37.0553   16.9792   30.0356 H   0  0  0  0  0  0  0  0  0  0  0  0
   38.0407   13.7663   28.5583 H   0  0  0  0  0  0  0  0  0  0  0  0
   35.9204   14.1647   30.0781 C   0  0  0  0  0  0  0  0  0  0  0  0
   35.2262   13.9623   31.3064 O   0  0  0  0  0  0  0  0  0  0  0  0
   35.5890   13.1847   31.7586 H   0  0  0  0  0  0  0  0  0  0  0  0
  9  1  1  0  0  0
  2  1  1  0  0  0
  4  2  1  0  0  0
  2  3  1  0  0  0
  6  4  1  0  0  0
  5  4  1  0  0  0
  7  6  1  0  0  0
  6  8  1  0  0  0
 14  8  1  0  0  0
  8  9  1  0  0  0
 14 15  1  0  0  0
  3 10  1  0  0  0
  5 11  1  0  0  0
  7 12  1  0  0  0
  9 13  1  0  0  0
 15 16  1  0  0  0
M  END
> <minimizedAffinity>
-5.03744

$$$$
3S5Y_DGJ_A_801


 16 16  0  0  0  0  0  0  0  0999 V2000
   38.8224   16.9916   33.5630 C   0  0  0  0  0  0  0  0  0  0  0  0
   37.3431   17.2267   33.3063 C   0  0  0  0  0  0  0  0  0  0  0  0
   36.6580   17.4836   34.5325 O   0  0  0  0  0  0  0  0  0  0  0  0
   36.7868   16.0172   32.5602 C   0  0  0  0  0  0  0  0  0  0  0  0
   35.3609   16.1177   32.4309 O   0  0  0  0  0  0  0  0  0  0  0  0
   37.4551   15.9500   31.1949 C   0  0  0  0  0  0  0  0  0  0  0  0
   37.0369   17.0938   30.4431 O   0  0  0  0  0  0  0  0  0  0  0  0
   38.9851   15.9203   31.2988 C   0  0  0  0  0  0  0  0  0  0  0  0
   39.4449   16.8986   32.2634 N   0  0  0  0  0  0  0  0  0  0  0  0
   36.7595   16.7224   35.1251 H   0  0  0  0  0  0  0  0  0  0  0  0
   35.1369   16.9229   31.9386 H   0  0  0  0  0  0  0  0  0  0  0  0
   37.3142   17.9018   30.9026 H   0  0  0  0  0  0  0  0  0  0  0  0
   40.4337   16.7076   32.4254 H   0  0  0  0  0  0  0  0  0  0  0  0
   39.6453   16.2032   29.9580 C   0  0  0  0  0  0  0  0  0  0  0  0
   40.8388   16.9597   30.1448 O   0  0  0  0  0  0  0  0  0  0  0  0
   40.6231   17.8041   30.5706 H   0  0  0  0  0  0  0  0  0  0  0  0
  9  1  1  0  0  0
  2  1  1  0  0  0
  4  2  1  0  0  0
  2  3  1  0  0  0
  6  4  1  0  0  0
  5  4  1  0  0  0
  7  6  1  0  0  0
  6  8  1  0  0  0
 14  8  1  0  0  0
  8  9  1  0  0  0
 14 15  1  0  0  0
  3 10  1  0  0  0
  5 11  1  0  0  0
  7 12  1  0  0  0
  9 13  1  0  0  0
 15 16  1  0  0  0
M  END
> <minimizedAffinity>
-4.72926

$$$$
3S5Y_DGJ_A_801


 16 16  0  0  0  0  0  0  0  0999 V2000
   38.4149   16.5352   31.6605 C   0  0  0  0  0  0  0  0  0  0  0  0
   38.9806   15.5148   30.6865 C   0  0  0  0  0  0  0  0  0  0  0  0
   40.2495   15.9451   30.1933 O   0  0  0  0  0  0  0  0  0  0  0  0
   37.9583   15.2934   29.5752 C   0  0  0  0  0  0  0  0  0  0  0  0
   38.5069   14.4572   28.5459 O   0  0  0  0  0  0  0  0  0  0  0  0
   36.7170   14.6616   30.1877 C   0  0  0  0  0  0  0  0  0  0  0  0
   37.0714   13.3553   30.6526 O   0  0  0  0  0  0  0  0  0  0  0  0
   36.1521   15.4956   31.3444 C   0  0  0  0  0  0  0  0  0  0  0  0
   37.2211   15.9412   32.2148 N   0  0  0  0  0  0  0  0  0  0  0  0
   40.1479   16.7954   29.7376 H   0  0  0  0  0  0  0  0  0  0  0  0
   38.7533   13.5985   28.9240 H   0  0  0  0  0  0  0  0  0  0  0  0
   37.7659   13.4290   31.3257 H   0  0  0  0  0  0  0  0  0  0  0  0
   36.8159   16.6327   32.8457 H   0  0  0  0  0  0  0  0  0  0  0  0
   35.1445   14.7068   32.1667 C   0  0  0  0  0  0  0  0  0  0  0  0
   34.5716   13.6655   31.3797 O   0  0  0  0  0  0  0  0  0  0  0  0
   34.1164   14.0514   30.6150 H   0  0  0  0  0  0  0  0  0  0  0  0
  9  1  1  0  0  0
  2  1  1  0  0  0
  4  2  1  0  0  0
  2  3  1  0  0  0
  6  4  1  0  0  0
  5  4  1  0  0  0
  7  6  1  0  0  0
  6  8  1  0  0  0
 14  8  1  0  0  0
  8  9  1  0  0  0
 14 15  1  0  0  0
  3 10  1  0  0  0
  5 11  1  0  0  0
  7 12  1  0  0  0
  9 13  1  0  0  0
 15 16  1  0  0  0
M  END
> <minimizedAffinity>
-4.71388

$$$$
3S5Y_DGJ_A_801


 16 16  0  0  0  0  0  0  0  0999 V2000
   36.8161   13.8994   29.8162 C   0  0  0  0  0  0  0  0  0  0  0  0
   37.5766   15.1615   29.4444 C   0  0  0  0  0  0  0  0  0  0  0  0
   38.5489   14.8804   28.4372 O   0  0  0  0  0  0  0  0  0  0  0  0
   38.1917   15.7434   30.7141 C   0  0  0  0  0  0  0  0  0  0  0  0
   39.0504   16.8487   30.3966 O   0  0  0  0  0  0  0  0  0  0  0  0
   37.0616   16.1777   31.6359 C   0  0  0  0  0  0  0  0  0  0  0  0
   36.3731   17.2635   31.0074 O   0  0  0  0  0  0  0  0  0  0  0  0
   36.0821   15.0349   31.9311 C   0  0  0  0  0  0  0  0  0  0  0  0
   35.7647   14.3149   30.7146 N   0  0  0  0  0  0  0  0  0  0  0  0
   39.1761   14.2190   28.7689 H   0  0  0  0  0  0  0  0  0  0  0  0
   38.5366   17.5393   29.9494 H   0  0  0  0  0  0  0  0  0  0  0  0
   36.0068   16.9667   30.1597 H   0  0  0  0  0  0  0  0  0  0  0  0
   35.2687   13.4692   30.9959 H   0  0  0  0  0  0  0  0  0  0  0  0
   34.7909   15.5471   32.5509 C   0  0  0  0  0  0  0  0  0  0  0  0
   33.8667   14.4758   32.7234 O   0  0  0  0  0  0  0  0  0  0  0  0
   33.6637   14.0818   31.8605 H   0  0  0  0  0  0  0  0  0  0  0  0
  9  1  1  0  0  0
  2  1  1  0  0  0
  4  2  1  0  0  0
  2  3  1  0  0  0
  6  4  1  0  0  0
  5  4  1  0  0  0
  7  6  1  0  0  0
  6  8  1  0  0  0
 14  8  1  0  0  0
  8  9  1  0  0  0
 14 15  1  0  0  0
  3 10  1  0  0  0
  5 11  1  0  0  0
  7 12  1  0  0  0
  9 13  1  0  0  0
 15 16  1  0  0  0
M  END
> <minimizedAffinity>
-4.62308

$$$$
3S5Y_DGJ_A_801


 16 16  0  0  0  0  0  0  0  0999 V2000
   37.8091   16.1433   31.7633 C   0  0  0  0  0  0  0  0  0  0  0  0
   36.7372   15.5590   30.8582 C   0  0  0  0  0  0  0  0  0  0  0  0
   35.6147   15.1270   31.6277 O   0  0  0  0  0  0  0  0  0  0  0  0
   37.3615   14.4327   30.0393 C   0  0  0  0  0  0  0  0  0  0  0  0
   36.3557   13.7436   29.2821 O   0  0  0  0  0  0  0  0  0  0  0  0
   38.4159   15.0366   29.1233 C   0  0  0  0  0  0  0  0  0  0  0  0
   37.7480   15.8777   28.1774 O   0  0  0  0  0  0  0  0  0  0  0  0
   39.4630   15.8459   29.8986 C   0  0  0  0  0  0  0  0  0  0  0  0
   38.8203   16.6873   30.8876 N   0  0  0  0  0  0  0  0  0  0  0  0
   35.8984   14.4492   32.2609 H   0  0  0  0  0  0  0  0  0  0  0  0
   35.9199   14.3674   28.6805 H   0  0  0  0  0  0  0  0  0  0  0  0
   37.2804   16.5855   28.6478 H   0  0  0  0  0  0  0  0  0  0  0  0
   39.5605   17.0527   31.4866 H   0  0  0  0  0  0  0  0  0  0  0  0
   40.2948   16.7213   28.9736 C   0  0  0  0  0  0  0  0  0  0  0  0
   39.5423   17.8595   28.5615 O   0  0  0  0  0  0  0  0  0  0  0  0
   38.7493   17.5676   28.0852 H   0  0  0  0  0  0  0  0  0  0  0  0
  9  1  1  0  0  0
  2  1  1  0  0  0
  4  2  1  0  0  0
  2  3  1  0  0  0
  6  4  1  0  0  0
  5  4  1  0  0  0
  7  6  1  0  0  0
  6  8  1  0  0  0
 14  8  1  0  0  0
  8  9  1  0  0  0
 14 15  1  0  0  0
  3 10  1  0  0  0
  5 11  1  0  0  0
  7 12  1  0  0  0
  9 13  1  0  0  0
 15 16  1  0  0  0
M  END
> <minimizedAffinity>
-4.62011

$$$$
3S5Y_DGJ_A_801


 16 16  0  0  0  0  0  0  0  0999 V2000
   37.8156   16.0092   30.9982 C   0  0  0  0  0  0  0  0  0  0  0  0
   38.7929   16.5327   32.0376 C   0  0  0  0  0  0  0  0  0  0  0  0
   40.0591   15.8868   31.9026 O   0  0  0  0  0  0  0  0  0  0  0  0
   38.1744   16.3387   33.4193 C   0  0  0  0  0  0  0  0  0  0  0  0
   39.1206   16.6723   34.4456 O   0  0  0  0  0  0  0  0  0  0  0  0
   36.9345   17.2156   33.5143 C   0  0  0  0  0  0  0  0  0  0  0  0
   37.3570   18.5822   33.4684 O   0  0  0  0  0  0  0  0  0  0  0  0
   35.9378   16.9355   32.3827 C   0  0  0  0  0  0  0  0  0  0  0  0
   36.6305   16.8262   31.1150 N   0  0  0  0  0  0  0  0  0  0  0  0
   39.9491   14.9308   32.0246 H   0  0  0  0  0  0  0  0  0  0  0  0
   39.3906   17.5988   34.3477 H   0  0  0  0  0  0  0  0  0  0  0  0
   37.8128   18.7517   32.6291 H   0  0  0  0  0  0  0  0  0  0  0  0
   35.9557   16.4607   30.4431 H   0  0  0  0  0  0  0  0  0  0  0  0
   34.8862   18.0294   32.2761 C   0  0  0  0  0  0  0  0  0  0  0  0
   35.2424   18.9594   31.2564 O   0  0  0  0  0  0  0  0  0  0  0  0
   36.0954   19.3668   31.4740 H   0  0  0  0  0  0  0  0  0  0  0  0
  9  1  1  0  0  0
  2  1  1  0  0  0
  4  2  1  0  0  0
  2  3  1  0  0  0
  6  4  1  0  0  0
  5  4  1  0  0  0
  7  6  1  0  0  0
  6  8  1  0  0  0
 14  8  1  0  0  0
  8  9  1  0  0  0
 14 15  1  0  0  0
  3 10  1  0  0  0
  5 11  1  0  0  0
  7 12  1  0  0  0
  9 13  1  0  0  0
 15 16  1  0  0  0
M  END
> <minimizedAffinity>
-4.38971

$$$$
3S5Y_DGJ_A_801


 16 16  0  0  0  0  0  0  0  0999 V2000
   39.5860   16.6736   31.1094 C   0  0  0  0  0  0  0  0  0  0  0  0
   39.5159   15.9045   29.8005 C   0  0  0  0  0  0  0  0  0  0  0  0
   40.6524   16.1976   28.9874 O   0  0  0  0  0  0  0  0  0  0  0  0
   38.1951   16.2429   29.1147 C   0  0  0  0  0  0  0  0  0  0  0  0
   38.1473   15.6655   27.8016 O   0  0  0  0  0  0  0  0  0  0  0  0
   37.0595   15.7203   29.9823 C   0  0  0  0  0  0  0  0  0  0  0  0
   37.1347   14.2912   29.9923 O   0  0  0  0  0  0  0  0  0  0  0  0
   37.1292   16.2602   31.4162 C   0  0  0  0  0  0  0  0  0  0  0  0
   38.4877   16.1942   31.9152 N   0  0  0  0  0  0  0  0  0  0  0  0
   40.6761   17.1481   28.7954 H   0  0  0  0  0  0  0  0  0  0  0  0
   38.2302   14.7014   27.8692 H   0  0  0  0  0  0  0  0  0  0  0  0
   37.9855   14.0148   30.3674 H   0  0  0  0  0  0  0  0  0  0  0  0
   38.5068   16.7287   32.7838 H   0  0  0  0  0  0  0  0  0  0  0  0
   36.2216   15.4805   32.3553 C   0  0  0  0  0  0  0  0  0  0  0  0
   35.8110   16.3048   33.4432 O   0  0  0  0  0  0  0  0  0  0  0  0
   36.5915   16.6002   33.9376 H   0  0  0  0  0  0  0  0  0  0  0  0
  9  1  1  0  0  0
  2  1  1  0  0  0
  4  2  1  0  0  0
  2  3  1  0  0  0
  6  4  1  0  0  0
  5  4  1  0  0  0
  7  6  1  0  0  0
  6  8  1  0  0  0
 14  8  1  0  0  0
  8  9  1  0  0  0
 14 15  1  0  0  0
  3 10  1  0  0  0
  5 11  1  0  0  0
  7 12  1  0  0  0
  9 13  1  0  0  0
 15 16  1  0  0  0
M  END
> <minimizedAffinity>
-4.21298

$$$$
