4YC0_5OF_A_301


 17 18  0  0  0  0  0  0  0  0999 V2000
    1.7197  -16.0679   -6.0251 C   0  0  0  0  0  0  0  0  0  0  0  0
    2.9864  -18.3138   -5.0251 C   0  0  0  0  0  0  0  0  0  0  0  0
    2.9851  -15.9182   -5.4963 C   0  0  0  0  0  0  0  0  0  0  0  0
    3.5801  -14.6008   -5.5102 C   0  0  0  0  0  0  0  0  0  0  0  0
    2.9482  -13.5383   -5.9412 N   0  0  0  0  0  0  0  0  0  0  0  0
    1.6861  -13.7330   -6.4664 N   0  0  0  0  0  0  0  0  0  0  0  0
    1.0347  -14.8823   -6.5267 C   0  0  0  0  0  0  0  0  0  0  0  0
   -0.1120  -14.9157   -6.9719 O   0  0  0  0  0  0  0  0  0  0  0  0
    1.1105  -17.2980   -6.0577 C   0  0  0  0  0  0  0  0  0  0  0  0
    1.7147  -18.4322   -5.5687 C   0  0  0  0  0  0  0  0  0  0  0  0
    3.6153  -17.0718   -4.9979 C   0  0  0  0  0  0  0  0  0  0  0  0
    1.2278  -12.9413   -6.8304 H   0  0  0  0  0  0  0  0  0  0  0  0
    4.9849  -14.3533   -4.9426 C   0  0  0  0  0  0  0  0  0  0  0  0
    6.9282  -14.1954   -6.4004 O   0  0  0  0  0  0  0  0  0  0  0  0
    5.8720  -13.6312   -5.9528 C   0  0  0  0  0  0  0  0  0  0  0  0
    5.5520  -12.4842   -6.3737 O   0  0  0  0  0  0  0  0  0  0  0  0
    4.7792  -12.0650   -6.0498 H   0  0  0  0  0  0  0  0  0  0  0  0
  8  7  2  0  0  0
 14 15  2  0  0  0
  7  6  1  0  0  0
  7  1  1  0  0  0
  6  5  1  0  0  0
  9  1  2  0  0  0
  9 10  1  0  0  0
  1  3  1  0  0  0
  5  4  2  0  0  0
 10  2  2  0  0  0
  3  4  1  0  0  0
  3 11  2  0  0  0
  4 13  1  0  0  0
 15 13  1  0  0  0
 15 16  1  0  0  0
  2 11  1  0  0  0
 16 17  1  0  0  0
  6 12  1  0  0  0
M  END
> <minimizedAffinity>
-9.22429

$$$$
4YC0_5OF_A_301


 17 18  0  0  0  0  0  0  0  0999 V2000
    1.7806  -17.2566   -5.8262 C   0  0  0  0  0  0  0  0  0  0  0  0
    1.3871  -14.6172   -6.5523 C   0  0  0  0  0  0  0  0  0  0  0  0
    2.7776  -16.3481   -5.5369 C   0  0  0  0  0  0  0  0  0  0  0  0
    3.9611  -16.8256   -4.8579 C   0  0  0  0  0  0  0  0  0  0  0  0
    4.1547  -18.0870   -4.5657 N   0  0  0  0  0  0  0  0  0  0  0  0
    3.1302  -18.9620   -4.8682 N   0  0  0  0  0  0  0  0  0  0  0  0
    1.9949  -18.6551   -5.4728 C   0  0  0  0  0  0  0  0  0  0  0  0
    1.1803  -19.5393   -5.7352 O   0  0  0  0  0  0  0  0  0  0  0  0
    0.6249  -16.8592   -6.4522 C   0  0  0  0  0  0  0  0  0  0  0  0
    0.4005  -15.5548   -6.8249 C   0  0  0  0  0  0  0  0  0  0  0  0
    2.5574  -15.0103   -5.9084 C   0  0  0  0  0  0  0  0  0  0  0  0
    3.2571  -19.9033   -4.6093 H   0  0  0  0  0  0  0  0  0  0  0  0
    5.1133  -15.8765   -4.4993 C   0  0  0  0  0  0  0  0  0  0  0  0
    7.3105  -16.7219   -5.1190 O   0  0  0  0  0  0  0  0  0  0  0  0
    6.4013  -16.6471   -4.2235 C   0  0  0  0  0  0  0  0  0  0  0  0
    6.5881  -17.1907   -3.0988 O   0  0  0  0  0  0  0  0  0  0  0  0
    5.9258  -17.1397   -2.4380 H   0  0  0  0  0  0  0  0  0  0  0  0
  8  7  2  0  0  0
 14 15  2  0  0  0
  7  6  1  0  0  0
  7  1  1  0  0  0
  6  5  1  0  0  0
  9  1  2  0  0  0
  9 10  1  0  0  0
  1  3  1  0  0  0
  5  4  2  0  0  0
 10  2  2  0  0  0
  3  4  1  0  0  0
  3 11  2  0  0  0
  4 13  1  0  0  0
 15 13  1  0  0  0
 15 16  1  0  0  0
  2 11  1  0  0  0
 16 17  1  0  0  0
  6 12  1  0  0  0
M  END
> <minimizedAffinity>
-9.14263

$$$$
4YC0_5OF_A_301


 17 18  0  0  0  0  0  0  0  0999 V2000
    2.4521  -16.6561   -5.7033 C   0  0  0  0  0  0  0  0  0  0  0  0
    1.0713  -14.4429   -6.6217 C   0  0  0  0  0  0  0  0  0  0  0  0
    3.0450  -15.4180   -5.5661 C   0  0  0  0  0  0  0  0  0  0  0  0
    4.3446  -15.3487   -4.9369 C   0  0  0  0  0  0  0  0  0  0  0  0
    5.0076  -16.4102   -4.5527 N   0  0  0  0  0  0  0  0  0  0  0  0
    4.3763  -17.6289   -4.7039 N   0  0  0  0  0  0  0  0  0  0  0  0
    3.1880  -17.8300   -5.2481 C   0  0  0  0  0  0  0  0  0  0  0  0
    2.7560  -18.9752   -5.3739 O   0  0  0  0  0  0  0  0  0  0  0  0
    1.2102  -16.7834   -6.2750 C   0  0  0  0  0  0  0  0  0  0  0  0
    0.4996  -15.7022   -6.7405 C   0  0  0  0  0  0  0  0  0  0  0  0
    2.3257  -14.3043   -6.0336 C   0  0  0  0  0  0  0  0  0  0  0  0
    4.8563  -18.4232   -4.3754 H   0  0  0  0  0  0  0  0  0  0  0  0
    5.0684  -14.0084   -4.7456 C   0  0  0  0  0  0  0  0  0  0  0  0
    5.8632  -12.6396   -6.5953 O   0  0  0  0  0  0  0  0  0  0  0  0
    6.0045  -13.7119   -5.9138 C   0  0  0  0  0  0  0  0  0  0  0  0
    6.9419  -14.5102   -6.1954 O   0  0  0  0  0  0  0  0  0  0  0  0
    7.0511  -15.2980   -5.6999 H   0  0  0  0  0  0  0  0  0  0  0  0
  8  7  2  0  0  0
 14 15  2  0  0  0
  7  6  1  0  0  0
  7  1  1  0  0  0
  6  5  1  0  0  0
  9  1  2  0  0  0
  9 10  1  0  0  0
  1  3  1  0  0  0
  5  4  2  0  0  0
 10  2  2  0  0  0
  3  4  1  0  0  0
  3 11  2  0  0  0
  4 13  1  0  0  0
 15 13  1  0  0  0
 15 16  1  0  0  0
  2 11  1  0  0  0
 16 17  1  0  0  0
  6 12  1  0  0  0
M  END
> <minimizedAffinity>
-8.81760

$$$$
4YC0_5OF_A_301


 17 18  0  0  0  0  0  0  0  0999 V2000
    1.9058  -16.6885   -5.9724 C   0  0  0  0  0  0  0  0  0  0  0  0
    3.9267  -17.8820   -4.5095 C   0  0  0  0  0  0  0  0  0  0  0  0
    2.9506  -15.8968   -5.5425 C   0  0  0  0  0  0  0  0  0  0  0  0
    2.9356  -14.4949   -5.8949 C   0  0  0  0  0  0  0  0  0  0  0  0
    1.9471  -13.9343   -6.5449 N   0  0  0  0  0  0  0  0  0  0  0  0
    0.9239  -14.7631   -6.9606 N   0  0  0  0  0  0  0  0  0  0  0  0
    0.8223  -16.0592   -6.7185 C   0  0  0  0  0  0  0  0  0  0  0  0
   -0.1699  -16.6792   -7.0996 O   0  0  0  0  0  0  0  0  0  0  0  0
    1.8744  -18.0309   -5.6855 C   0  0  0  0  0  0  0  0  0  0  0  0
    2.8640  -18.6524   -4.9610 C   0  0  0  0  0  0  0  0  0  0  0  0
    3.9712  -16.5221   -4.8052 C   0  0  0  0  0  0  0  0  0  0  0  0
    0.2017  -14.3501   -7.4870 H   0  0  0  0  0  0  0  0  0  0  0  0
    4.0628  -13.5494   -5.4562 C   0  0  0  0  0  0  0  0  0  0  0  0
    3.5497  -11.5170   -4.2182 O   0  0  0  0  0  0  0  0  0  0  0  0
    3.5692  -12.1092   -5.3510 C   0  0  0  0  0  0  0  0  0  0  0  0
    3.2046  -11.4852   -6.3868 O   0  0  0  0  0  0  0  0  0  0  0  0
    3.2165  -11.9134   -7.2202 H   0  0  0  0  0  0  0  0  0  0  0  0
  8  7  2  0  0  0
 14 15  2  0  0  0
  7  6  1  0  0  0
  7  1  1  0  0  0
  6  5  1  0  0  0
  9  1  2  0  0  0
  9 10  1  0  0  0
  1  3  1  0  0  0
  5  4  2  0  0  0
 10  2  2  0  0  0
  3  4  1  0  0  0
  3 11  2  0  0  0
  4 13  1  0  0  0
 15 13  1  0  0  0
 15 16  1  0  0  0
  2 11  1  0  0  0
 16 17  1  0  0  0
  6 12  1  0  0  0
M  END
> <minimizedAffinity>
-8.71044

$$$$
4YC0_5OF_A_301


 17 18  0  0  0  0  0  0  0  0999 V2000
    2.5302  -14.6735   -5.9358 C   0  0  0  0  0  0  0  0  0  0  0  0
    0.7747  -16.7408   -6.4774 C   0  0  0  0  0  0  0  0  0  0  0  0
    2.8950  -15.9500   -5.5610 C   0  0  0  0  0  0  0  0  0  0  0  0
    4.1787  -16.1340   -4.9222 C   0  0  0  0  0  0  0  0  0  0  0  0
    4.9768  -15.1390   -4.6272 N   0  0  0  0  0  0  0  0  0  0  0  0
    4.5758  -13.8786   -5.0240 N   0  0  0  0  0  0  0  0  0  0  0  0
    3.4382  -13.5752   -5.6262 C   0  0  0  0  0  0  0  0  0  0  0  0
    3.1727  -12.4012   -5.8817 O   0  0  0  0  0  0  0  0  0  0  0  0
    1.3319  -14.4388   -6.5639 C   0  0  0  0  0  0  0  0  0  0  0  0
    0.4391  -15.4455   -6.8466 C   0  0  0  0  0  0  0  0  0  0  0  0
    1.9926  -16.9886   -5.8495 C   0  0  0  0  0  0  0  0  0  0  0  0
    5.1953  -13.1357   -4.8412 H   0  0  0  0  0  0  0  0  0  0  0  0
    4.6575  -17.5234   -4.4779 C   0  0  0  0  0  0  0  0  0  0  0  0
    7.0854  -17.6954   -4.4312 O   0  0  0  0  0  0  0  0  0  0  0  0
    6.0130  -17.4464   -3.7813 C   0  0  0  0  0  0  0  0  0  0  0  0
    6.0849  -17.1082   -2.5665 O   0  0  0  0  0  0  0  0  0  0  0  0
    5.3028  -16.9243   -2.0843 H   0  0  0  0  0  0  0  0  0  0  0  0
  8  7  2  0  0  0
 14 15  2  0  0  0
  7  6  1  0  0  0
  7  1  1  0  0  0
  6  5  1  0  0  0
  9  1  2  0  0  0
  9 10  1  0  0  0
  1  3  1  0  0  0
  5  4  2  0  0  0
 10  2  2  0  0  0
  3  4  1  0  0  0
  3 11  2  0  0  0
  4 13  1  0  0  0
 15 13  1  0  0  0
 15 16  1  0  0  0
  2 11  1  0  0  0
 16 17  1  0  0  0
  6 12  1  0  0  0
M  END
> <minimizedAffinity>
-8.48377

$$$$
4YC0_5OF_A_301


 17 18  0  0  0  0  0  0  0  0999 V2000
    2.6238  -16.0563   -5.7062 C   0  0  0  0  0  0  0  0  0  0  0  0
    2.3579  -18.7446   -5.1136 C   0  0  0  0  0  0  0  0  0  0  0  0
    3.6123  -16.6562   -4.9538 C   0  0  0  0  0  0  0  0  0  0  0  0
    4.7355  -15.8491   -4.5332 C   0  0  0  0  0  0  0  0  0  0  0  0
    4.8225  -14.5661   -4.7788 N   0  0  0  0  0  0  0  0  0  0  0  0
    3.8144  -14.0065   -5.5387 N   0  0  0  0  0  0  0  0  0  0  0  0
    2.7433  -14.6323   -5.9966 C   0  0  0  0  0  0  0  0  0  0  0  0
    1.8862  -14.0069   -6.6200 O   0  0  0  0  0  0  0  0  0  0  0  0
    1.5424  -16.7760   -6.1513 C   0  0  0  0  0  0  0  0  0  0  0  0
    1.3827  -18.1131   -5.8732 C   0  0  0  0  0  0  0  0  0  0  0  0
    3.4628  -18.0244   -4.6674 C   0  0  0  0  0  0  0  0  0  0  0  0
    3.9014  -13.0512   -5.7604 H   0  0  0  0  0  0  0  0  0  0  0  0
    5.8767  -16.4437   -3.6959 C   0  0  0  0  0  0  0  0  0  0  0  0
    7.6112  -16.5929   -5.3975 O   0  0  0  0  0  0  0  0  0  0  0  0
    6.8620  -17.2150   -4.5693 C   0  0  0  0  0  0  0  0  0  0  0  0
    6.9629  -18.4691   -4.4582 O   0  0  0  0  0  0  0  0  0  0  0  0
    6.4168  -18.9313   -3.8531 H   0  0  0  0  0  0  0  0  0  0  0  0
  8  7  2  0  0  0
 14 15  2  0  0  0
  7  6  1  0  0  0
  7  1  1  0  0  0
  6  5  1  0  0  0
  9  1  2  0  0  0
  9 10  1  0  0  0
  1  3  1  0  0  0
  5  4  2  0  0  0
 10  2  2  0  0  0
  3  4  1  0  0  0
  3 11  2  0  0  0
  4 13  1  0  0  0
 15 13  1  0  0  0
 15 16  1  0  0  0
  2 11  1  0  0  0
 16 17  1  0  0  0
  6 12  1  0  0  0
M  END
> <minimizedAffinity>
-8.29231

$$$$
4YC0_5OF_A_301


 17 18  0  0  0  0  0  0  0  0999 V2000
    3.8471  -16.3876   -5.0232 C   0  0  0  0  0  0  0  0  0  0  0  0
    6.0441  -16.8694   -3.4139 C   0  0  0  0  0  0  0  0  0  0  0  0
    4.6916  -15.3329   -4.7445 C   0  0  0  0  0  0  0  0  0  0  0  0
    4.3876  -14.0431   -5.3221 C   0  0  0  0  0  0  0  0  0  0  0  0
    3.3164  -13.8190   -6.0408 N   0  0  0  0  0  0  0  0  0  0  0  0
    2.5007  -14.9026   -6.2997 N   0  0  0  0  0  0  0  0  0  0  0  0
    2.6708  -16.1333   -5.8465 C   0  0  0  0  0  0  0  0  0  0  0  0
    1.8404  -17.0035   -6.1060 O   0  0  0  0  0  0  0  0  0  0  0  0
    4.0947  -17.6407   -4.5193 C   0  0  0  0  0  0  0  0  0  0  0  0
    5.1782  -17.9110   -3.7171 C   0  0  0  0  0  0  0  0  0  0  0  0
    5.8059  -15.5981   -3.9295 C   0  0  0  0  0  0  0  0  0  0  0  0
    1.7185  -14.7440   -6.8761 H   0  0  0  0  0  0  0  0  0  0  0  0
    5.2797  -12.8212   -5.0612 C   0  0  0  0  0  0  0  0  0  0  0  0
    7.2617  -11.7884   -6.0262 O   0  0  0  0  0  0  0  0  0  0  0  0
    6.3421  -12.6683   -6.1459 C   0  0  0  0  0  0  0  0  0  0  0  0
    6.3353  -13.4295   -7.1538 O   0  0  0  0  0  0  0  0  0  0  0  0
    5.6641  -14.0765   -7.2478 H   0  0  0  0  0  0  0  0  0  0  0  0
  8  7  2  0  0  0
 14 15  2  0  0  0
  7  6  1  0  0  0
  7  1  1  0  0  0
  6  5  1  0  0  0
  9  1  2  0  0  0
  9 10  1  0  0  0
  1  3  1  0  0  0
  5  4  2  0  0  0
 10  2  2  0  0  0
  3  4  1  0  0  0
  3 11  2  0  0  0
  4 13  1  0  0  0
 15 13  1  0  0  0
 15 16  1  0  0  0
  2 11  1  0  0  0
 16 17  1  0  0  0
  6 12  1  0  0  0
M  END
> <minimizedAffinity>
-8.24570

$$$$
4YC0_5OF_A_301


 17 18  0  0  0  0  0  0  0  0999 V2000
    4.7344  -15.3508   -4.5749 C   0  0  0  0  0  0  0  0  0  0  0  0
    5.4674  -17.8942   -3.7732 C   0  0  0  0  0  0  0  0  0  0  0  0
    3.9455  -16.4099   -4.9738 C   0  0  0  0  0  0  0  0  0  0  0  0
    2.7748  -16.1269   -5.7732 C   0  0  0  0  0  0  0  0  0  0  0  0
    2.4687  -14.9230   -6.1869 N   0  0  0  0  0  0  0  0  0  0  0  0
    3.2818  -13.8913   -5.7612 N   0  0  0  0  0  0  0  0  0  0  0  0
    4.3699  -14.0106   -5.0193 C   0  0  0  0  0  0  0  0  0  0  0  0
    5.0417  -13.0155   -4.7500 O   0  0  0  0  0  0  0  0  0  0  0  0
    5.8481  -15.5550   -3.7981 C   0  0  0  0  0  0  0  0  0  0  0  0
    6.2376  -16.8070   -3.3839 C   0  0  0  0  0  0  0  0  0  0  0  0
    4.3306  -17.6945   -4.5520 C   0  0  0  0  0  0  0  0  0  0  0  0
    3.0273  -12.9809   -6.0361 H   0  0  0  0  0  0  0  0  0  0  0  0
    1.8458  -17.2505   -6.2542 C   0  0  0  0  0  0  0  0  0  0  0  0
   -0.5226  -16.9685   -5.7662 O   0  0  0  0  0  0  0  0  0  0  0  0
    0.4478  -16.7211   -6.5610 C   0  0  0  0  0  0  0  0  0  0  0  0
    0.2479  -16.0116   -7.5866 O   0  0  0  0  0  0  0  0  0  0  0  0
    0.9547  -15.8265   -8.1732 H   0  0  0  0  0  0  0  0  0  0  0  0
  8  7  2  0  0  0
 14 15  2  0  0  0
  7  6  1  0  0  0
  7  1  1  0  0  0
  6  5  1  0  0  0
  9  1  2  0  0  0
  9 10  1  0  0  0
  1  3  1  0  0  0
  5  4  2  0  0  0
 10  2  2  0  0  0
  3  4  1  0  0  0
  3 11  2  0  0  0
  4 13  1  0  0  0
 15 13  1  0  0  0
 15 16  1  0  0  0
  2 11  1  0  0  0
 16 17  1  0  0  0
  6 12  1  0  0  0
M  END
> <minimizedAffinity>
-8.08213

$$$$
4YC0_5OF_A_301


 17 18  0  0  0  0  0  0  0  0999 V2000
    4.8709  -15.2958   -4.5810 C   0  0  0  0  0  0  0  0  0  0  0  0
    3.9006  -12.8047   -5.2893 C   0  0  0  0  0  0  0  0  0  0  0  0
    3.6946  -15.2374   -5.2993 C   0  0  0  0  0  0  0  0  0  0  0  0
    3.0474  -16.4808   -5.6527 C   0  0  0  0  0  0  0  0  0  0  0  0
    3.4922  -17.6502   -5.2670 N   0  0  0  0  0  0  0  0  0  0  0  0
    4.6746  -17.6640   -4.5541 N   0  0  0  0  0  0  0  0  0  0  0  0
    5.3719  -16.6049   -4.1788 C   0  0  0  0  0  0  0  0  0  0  0  0
    6.3867  -16.7476   -3.4976 O   0  0  0  0  0  0  0  0  0  0  0  0
    5.5417  -14.1493   -4.2330 C   0  0  0  0  0  0  0  0  0  0  0  0
    5.0846  -12.8973   -4.5709 C   0  0  0  0  0  0  0  0  0  0  0  0
    3.2199  -13.9630   -5.6551 C   0  0  0  0  0  0  0  0  0  0  0  0
    5.0324  -18.5456   -4.3013 H   0  0  0  0  0  0  0  0  0  0  0  0
    1.7371  -16.4996   -6.4526 C   0  0  0  0  0  0  0  0  0  0  0  0
   -0.2973  -17.3260   -5.4015 O   0  0  0  0  0  0  0  0  0  0  0  0
    0.8101  -17.6126   -5.9725 C   0  0  0  0  0  0  0  0  0  0  0  0
    1.1183  -18.8226   -6.1625 O   0  0  0  0  0  0  0  0  0  0  0  0
    1.9284  -19.0396   -6.5803 H   0  0  0  0  0  0  0  0  0  0  0  0
  8  7  2  0  0  0
 14 15  2  0  0  0
  7  6  1  0  0  0
  7  1  1  0  0  0
  6  5  1  0  0  0
  9  1  2  0  0  0
  9 10  1  0  0  0
  1  3  1  0  0  0
  5  4  2  0  0  0
 10  2  2  0  0  0
  3  4  1  0  0  0
  3 11  2  0  0  0
  4 13  1  0  0  0
 15 13  1  0  0  0
 15 16  1  0  0  0
  2 11  1  0  0  0
 16 17  1  0  0  0
  6 12  1  0  0  0
M  END
> <minimizedAffinity>
-7.57796

$$$$
4YC0_5OF_A_301


 17 18  0  0  0  0  0  0  0  0999 V2000
    2.2699  -15.9226   -5.9376 C   0  0  0  0  0  0  0  0  0  0  0  0
    3.8600  -13.7559   -5.2853 C   0  0  0  0  0  0  0  0  0  0  0  0
    3.3918  -16.1491   -5.1675 C   0  0  0  0  0  0  0  0  0  0  0  0
    3.6614  -17.5016   -4.7340 C   0  0  0  0  0  0  0  0  0  0  0  0
    2.9271  -18.5244   -5.0927 N   0  0  0  0  0  0  0  0  0  0  0  0
    1.8113  -18.2531   -5.8596 N   0  0  0  0  0  0  0  0  0  0  0  0
    1.4439  -17.0653   -6.3098 C   0  0  0  0  0  0  0  0  0  0  0  0
    0.4529  -16.9618   -7.0319 O   0  0  0  0  0  0  0  0  0  0  0  0
    1.9509  -14.6566   -6.3629 C   0  0  0  0  0  0  0  0  0  0  0  0
    2.7213  -13.5603   -6.0546 C   0  0  0  0  0  0  0  0  0  0  0  0
    4.1847  -15.0350   -4.8413 C   0  0  0  0  0  0  0  0  0  0  0  0
    1.2348  -19.0162   -6.0932 H   0  0  0  0  0  0  0  0  0  0  0  0
    4.8881  -17.8344   -3.8730 C   0  0  0  0  0  0  0  0  0  0  0  0
    6.5012  -16.0137   -3.7761 O   0  0  0  0  0  0  0  0  0  0  0  0
    6.1267  -17.0876   -4.3598 C   0  0  0  0  0  0  0  0  0  0  0  0
    6.8047  -17.5420   -5.3237 O   0  0  0  0  0  0  0  0  0  0  0  0
    6.5358  -18.3286   -5.7560 H   0  0  0  0  0  0  0  0  0  0  0  0
  8  7  2  0  0  0
 14 15  2  0  0  0
  7  6  1  0  0  0
  7  1  1  0  0  0
  6  5  1  0  0  0
  9  1  2  0  0  0
  9 10  1  0  0  0
  1  3  1  0  0  0
  5  4  2  0  0  0
 10  2  2  0  0  0
  3  4  1  0  0  0
  3 11  2  0  0  0
  4 13  1  0  0  0
 15 13  1  0  0  0
 15 16  1  0  0  0
  2 11  1  0  0  0
 16 17  1  0  0  0
  6 12  1  0  0  0
M  END
> <minimizedAffinity>
-6.74072

$$$$
