5II2_LU2_A_803


 25 27  0  0  0  0  0  0  0  0999 V2000
   10.8055   -9.8564  -27.8610 C   0  0  0  0  0  0  0  0  0  0  0  0
    9.9178   -7.9982  -26.6680 O   0  0  0  0  0  0  0  0  0  0  0  0
   10.1181   -8.6433  -27.8466 C   0  0  0  0  0  0  0  0  0  0  0  0
    9.3881   -8.1791  -31.4659 O   0  0  0  0  0  0  0  0  0  0  0  0
    9.6423   -8.0956  -29.0448 C   0  0  0  0  0  0  0  0  0  0  0  0
   10.2717  -10.2711  -32.5830 O   0  0  0  0  0  0  0  0  0  0  0  0
    9.8445   -8.7472  -30.2852 C   0  0  0  0  0  0  0  0  0  0  0  0
   11.6975  -11.6882  -29.0465 O   0  0  0  0  0  0  0  0  0  0  0  0
   10.5336   -9.9693  -30.3034 C   0  0  0  0  0  0  0  0  0  0  0  0
   11.0044  -10.5157  -29.0844 C   0  0  0  0  0  0  0  0  0  0  0  0
   10.7451  -10.6756  -31.5071 C   0  0  0  0  0  0  0  0  0  0  0  0
   11.3818  -11.9195  -31.4451 C   0  0  0  0  0  0  0  0  0  0  0  0
   11.8750  -12.4064  -30.2144 C   0  0  0  0  0  0  0  0  0  0  0  0
   10.2386   -8.3699  -25.8700 H   0  0  0  0  0  0  0  0  0  0  0  0
    8.9286   -7.3627  -31.4461 H   0  0  0  0  0  0  0  0  0  0  0  0
   14.0775  -15.9412  -27.6146 O   0  0  0  0  0  0  0  0  0  0  0  0
   14.4406  -17.3470  -29.9542 O   0  0  0  0  0  0  0  0  0  0  0  0
   12.5061  -13.6672  -30.0932 C   0  0  0  0  0  0  0  0  0  0  0  0
   12.9828  -14.1750  -28.8592 C   0  0  0  0  0  0  0  0  0  0  0  0
   13.6261  -15.4185  -28.8034 C   0  0  0  0  0  0  0  0  0  0  0  0
   13.8153  -16.1478  -29.9888 C   0  0  0  0  0  0  0  0  0  0  0  0
   13.3342  -15.6704  -31.2149 C   0  0  0  0  0  0  0  0  0  0  0  0
   12.7331  -14.4300  -31.2523 C   0  0  0  0  0  0  0  0  0  0  0  0
   13.9570  -15.4640  -26.8173 H   0  0  0  0  0  0  0  0  0  0  0  0
   14.7684  -17.6812  -29.1425 H   0  0  0  0  0  0  0  0  0  0  0  0
  1  3  2  0  0  0
  1 10  1  0  0  0
  2  3  1  0  0  0
  3  5  1  0  0  0
  7  4  1  0  0  0
  5  7  2  0  0  0
 11  6  2  0  0  0
  9  7  1  0  0  0
  8 10  1  0  0  0
  8 13  1  0  0  0
 10  9  2  0  0  0
  9 11  1  0  0  0
 20 16  1  0  0  0
 17 21  1  0  0  0
 12 11  1  0  0  0
 13 12  2  0  0  0
 18 13  1  0  0  0
 23 18  2  0  0  0
 18 19  1  0  0  0
 20 19  2  0  0  0
 21 20  1  0  0  0
 22 21  2  0  0  0
 22 23  1  0  0  0
  2 14  1  0  0  0
  4 15  1  0  0  0
 16 24  1  0  0  0
 17 25  1  0  0  0
M  END
> <minimizedAffinity>
-8.99190

$$$$
5II2_LU2_A_803


 25 27  0  0  0  0  0  0  0  0999 V2000
   11.3045  -13.2003  -33.2625 C   0  0  0  0  0  0  0  0  0  0  0  0
   11.5373  -14.7645  -35.0411 O   0  0  0  0  0  0  0  0  0  0  0  0
   11.7418  -14.4356  -33.7391 C   0  0  0  0  0  0  0  0  0  0  0  0
   13.2879  -15.8878  -30.6814 O   0  0  0  0  0  0  0  0  0  0  0  0
   12.3917  -15.3271  -32.8760 C   0  0  0  0  0  0  0  0  0  0  0  0
   12.8576  -14.1833  -28.8607 O   0  0  0  0  0  0  0  0  0  0  0  0
   12.6209  -15.0034  -31.5171 C   0  0  0  0  0  0  0  0  0  0  0  0
   11.0888  -11.6462  -31.5033 O   0  0  0  0  0  0  0  0  0  0  0  0
   12.1800  -13.7623  -31.0333 C   0  0  0  0  0  0  0  0  0  0  0  0
   11.5188  -12.8721  -31.9144 C   0  0  0  0  0  0  0  0  0  0  0  0
   12.3603  -13.3942  -29.6825 C   0  0  0  0  0  0  0  0  0  0  0  0
   11.8383  -12.1701  -29.2515 C   0  0  0  0  0  0  0  0  0  0  0  0
   11.2254  -11.2932  -30.1736 C   0  0  0  0  0  0  0  0  0  0  0  0
   11.1019  -14.1636  -35.6133 H   0  0  0  0  0  0  0  0  0  0  0  0
   13.5794  -16.7148  -31.0115 H   0  0  0  0  0  0  0  0  0  0  0  0
   10.0440   -7.9055  -26.8221 O   0  0  0  0  0  0  0  0  0  0  0  0
    8.8537   -6.4343  -28.8223 O   0  0  0  0  0  0  0  0  0  0  0  0
   10.6618  -10.0544  -29.7859 C   0  0  0  0  0  0  0  0  0  0  0  0
   10.6482   -9.6001  -28.4439 C   0  0  0  0  0  0  0  0  0  0  0  0
   10.0501   -8.3768  -28.1137 C   0  0  0  0  0  0  0  0  0  0  0  0
    9.4419   -7.6145  -29.1246 C   0  0  0  0  0  0  0  0  0  0  0  0
    9.4620   -8.0387  -30.4597 C   0  0  0  0  0  0  0  0  0  0  0  0
   10.0272   -9.2605  -30.7575 C   0  0  0  0  0  0  0  0  0  0  0  0
   10.4465   -8.4051  -26.1392 H   0  0  0  0  0  0  0  0  0  0  0  0
    8.8315   -6.1357  -27.9345 H   0  0  0  0  0  0  0  0  0  0  0  0
  1  3  2  0  0  0
  1 10  1  0  0  0
  2  3  1  0  0  0
  3  5  1  0  0  0
  7  4  1  0  0  0
  5  7  2  0  0  0
 11  6  2  0  0  0
  9  7  1  0  0  0
  8 10  1  0  0  0
  8 13  1  0  0  0
 10  9  2  0  0  0
  9 11  1  0  0  0
 20 16  1  0  0  0
 17 21  1  0  0  0
 12 11  1  0  0  0
 13 12  2  0  0  0
 18 13  1  0  0  0
 23 18  2  0  0  0
 18 19  1  0  0  0
 20 19  2  0  0  0
 21 20  1  0  0  0
 22 21  2  0  0  0
 22 23  1  0  0  0
  2 14  1  0  0  0
  4 15  1  0  0  0
 16 24  1  0  0  0
 17 25  1  0  0  0
M  END
> <minimizedAffinity>
-8.67755

$$$$
5II2_LU2_A_803


 25 27  0  0  0  0  0  0  0  0999 V2000
   11.4217  -13.4317  -33.3604 C   0  0  0  0  0  0  0  0  0  0  0  0
   11.4935  -14.7561  -35.3366 O   0  0  0  0  0  0  0  0  0  0  0  0
   11.7848  -14.6064  -34.0182 C   0  0  0  0  0  0  0  0  0  0  0  0
   13.4497  -16.4904  -31.2747 O   0  0  0  0  0  0  0  0  0  0  0  0
   12.4499  -15.6216  -33.3191 C   0  0  0  0  0  0  0  0  0  0  0  0
   13.1885  -15.0267  -29.2266 O   0  0  0  0  0  0  0  0  0  0  0  0
   12.7689  -15.4852  -31.9466 C   0  0  0  0  0  0  0  0  0  0  0  0
   11.3656  -12.1153  -31.4058 O   0  0  0  0  0  0  0  0  0  0  0  0
   12.4029  -14.3056  -31.2807 C   0  0  0  0  0  0  0  0  0  0  0  0
   11.7254  -13.2889  -31.9972 C   0  0  0  0  0  0  0  0  0  0  0  0
   12.6743  -14.1227  -29.9075 C   0  0  0  0  0  0  0  0  0  0  0  0
   12.2237  -12.9507  -29.2911 C   0  0  0  0  0  0  0  0  0  0  0  0
   11.5916  -11.9432  -30.0528 C   0  0  0  0  0  0  0  0  0  0  0  0
   11.0484  -14.0731  -35.7986 H   0  0  0  0  0  0  0  0  0  0  0  0
   13.6908  -17.2753  -31.7259 H   0  0  0  0  0  0  0  0  0  0  0  0
    9.2219   -7.6496  -30.2833 O   0  0  0  0  0  0  0  0  0  0  0  0
    9.8245   -7.2474  -27.6268 O   0  0  0  0  0  0  0  0  0  0  0  0
   11.0975  -10.7498  -29.4747 C   0  0  0  0  0  0  0  0  0  0  0  0
   10.3796   -9.7759  -30.2121 C   0  0  0  0  0  0  0  0  0  0  0  0
    9.9388   -8.5985  -29.5935 C   0  0  0  0  0  0  0  0  0  0  0  0
   10.2365   -8.3817  -28.2381 C   0  0  0  0  0  0  0  0  0  0  0  0
   10.9288   -9.3417  -27.4884 C   0  0  0  0  0  0  0  0  0  0  0  0
   11.3814  -10.4781  -28.1247 C   0  0  0  0  0  0  0  0  0  0  0  0
    9.0172   -7.7829  -31.1879 H   0  0  0  0  0  0  0  0  0  0  0  0
    9.3602   -6.5950  -28.1134 H   0  0  0  0  0  0  0  0  0  0  0  0
  1  3  2  0  0  0
  1 10  1  0  0  0
  2  3  1  0  0  0
  3  5  1  0  0  0
  7  4  1  0  0  0
  5  7  2  0  0  0
 11  6  2  0  0  0
  9  7  1  0  0  0
  8 10  1  0  0  0
  8 13  1  0  0  0
 10  9  2  0  0  0
  9 11  1  0  0  0
 20 16  1  0  0  0
 17 21  1  0  0  0
 12 11  1  0  0  0
 13 12  2  0  0  0
 18 13  1  0  0  0
 23 18  2  0  0  0
 18 19  1  0  0  0
 20 19  2  0  0  0
 21 20  1  0  0  0
 22 21  2  0  0  0
 22 23  1  0  0  0
  2 14  1  0  0  0
  4 15  1  0  0  0
 16 24  1  0  0  0
 17 25  1  0  0  0
M  END
> <minimizedAffinity>
-8.37453

$$$$
5II2_LU2_A_803


 25 27  0  0  0  0  0  0  0  0999 V2000
    9.5903   -8.8252  -30.6726 C   0  0  0  0  0  0  0  0  0  0  0  0
    8.5298   -6.7126  -30.3951 O   0  0  0  0  0  0  0  0  0  0  0  0
    9.2775   -7.7224  -29.8786 C   0  0  0  0  0  0  0  0  0  0  0  0
   10.9275   -8.6440  -26.6730 O   0  0  0  0  0  0  0  0  0  0  0  0
    9.7312   -7.6635  -28.5548 C   0  0  0  0  0  0  0  0  0  0  0  0
   12.1073  -10.8312  -27.1520 O   0  0  0  0  0  0  0  0  0  0  0  0
   10.5065   -8.7066  -27.9936 C   0  0  0  0  0  0  0  0  0  0  0  0
   10.6283  -10.9245  -30.9404 O   0  0  0  0  0  0  0  0  0  0  0  0
   10.8254   -9.8167  -28.7903 C   0  0  0  0  0  0  0  0  0  0  0  0
   10.3659   -9.8616  -30.1293 C   0  0  0  0  0  0  0  0  0  0  0  0
   11.6143  -10.8761  -28.2922 C   0  0  0  0  0  0  0  0  0  0  0  0
   11.9494  -11.9205  -29.1602 C   0  0  0  0  0  0  0  0  0  0  0  0
   11.4328  -11.9478  -30.4745 C   0  0  0  0  0  0  0  0  0  0  0  0
    8.2294   -6.7582  -31.2815 H   0  0  0  0  0  0  0  0  0  0  0  0
   10.7108   -7.8995  -26.1469 H   0  0  0  0  0  0  0  0  0  0  0  0
   11.4339  -13.9074  -34.9760 O   0  0  0  0  0  0  0  0  0  0  0  0
   12.6997  -16.1231  -33.9416 O   0  0  0  0  0  0  0  0  0  0  0  0
   11.7584  -12.9686  -31.3988 C   0  0  0  0  0  0  0  0  0  0  0  0
   11.4147  -12.9035  -32.7718 C   0  0  0  0  0  0  0  0  0  0  0  0
   11.7379  -13.9578  -33.6362 C   0  0  0  0  0  0  0  0  0  0  0  0
   12.3864  -15.0929  -33.1226 C   0  0  0  0  0  0  0  0  0  0  0  0
   12.7508  -15.1670  -31.7718 C   0  0  0  0  0  0  0  0  0  0  0  0
   12.3944  -14.1327  -30.9325 C   0  0  0  0  0  0  0  0  0  0  0  0
   11.0014  -13.1554  -35.3303 H   0  0  0  0  0  0  0  0  0  0  0  0
   12.4634  -16.0898  -34.8477 H   0  0  0  0  0  0  0  0  0  0  0  0
  1  3  2  0  0  0
  1 10  1  0  0  0
  2  3  1  0  0  0
  3  5  1  0  0  0
  7  4  1  0  0  0
  5  7  2  0  0  0
 11  6  2  0  0  0
  9  7  1  0  0  0
  8 10  1  0  0  0
  8 13  1  0  0  0
 10  9  2  0  0  0
  9 11  1  0  0  0
 20 16  1  0  0  0
 17 21  1  0  0  0
 12 11  1  0  0  0
 13 12  2  0  0  0
 18 13  1  0  0  0
 23 18  2  0  0  0
 18 19  1  0  0  0
 20 19  2  0  0  0
 21 20  1  0  0  0
 22 21  2  0  0  0
 22 23  1  0  0  0
  2 14  1  0  0  0
  4 15  1  0  0  0
 16 24  1  0  0  0
 17 25  1  0  0  0
M  END
> <minimizedAffinity>
-8.14615

$$$$
5II2_LU2_A_803


 25 27  0  0  0  0  0  0  0  0999 V2000
   13.1576  -14.7952  -29.5535 C   0  0  0  0  0  0  0  0  0  0  0  0
   14.3340  -16.8636  -29.5095 O   0  0  0  0  0  0  0  0  0  0  0  0
   13.6534  -15.9203  -30.2112 C   0  0  0  0  0  0  0  0  0  0  0  0
   12.5129  -15.2858  -33.6961 O   0  0  0  0  0  0  0  0  0  0  0  0
   13.4440  -16.0738  -31.5876 C   0  0  0  0  0  0  0  0  0  0  0  0
   11.3979  -13.0153  -33.6142 O   0  0  0  0  0  0  0  0  0  0  0  0
   12.7326  -15.1068  -32.3378 C   0  0  0  0  0  0  0  0  0  0  0  0
   11.9786  -12.7544  -29.5964 O   0  0  0  0  0  0  0  0  0  0  0  0
   12.2344  -13.9720  -31.6799 C   0  0  0  0  0  0  0  0  0  0  0  0
   12.4579  -13.8254  -30.2890 C   0  0  0  0  0  0  0  0  0  0  0  0
   11.5374  -12.9636  -32.3801 C   0  0  0  0  0  0  0  0  0  0  0  0
   11.1255  -11.8280  -31.6749 C   0  0  0  0  0  0  0  0  0  0  0  0
   11.3296  -11.7430  -30.2799 C   0  0  0  0  0  0  0  0  0  0  0  0
   14.4706  -16.7550  -28.5889 H   0  0  0  0  0  0  0  0  0  0  0  0
   12.8486  -16.0461  -34.1288 H   0  0  0  0  0  0  0  0  0  0  0  0
    9.1156   -7.3909  -29.7688 O   0  0  0  0  0  0  0  0  0  0  0  0
   10.0390   -7.2976  -27.1764 O   0  0  0  0  0  0  0  0  0  0  0  0
   10.9524  -10.6079  -29.5238 C   0  0  0  0  0  0  0  0  0  0  0  0
   10.1913   -9.5411  -30.0624 C   0  0  0  0  0  0  0  0  0  0  0  0
    9.8711   -8.4277  -29.2744 C   0  0  0  0  0  0  0  0  0  0  0  0
   10.3331   -8.3683  -27.9493 C   0  0  0  0  0  0  0  0  0  0  0  0
   11.0708   -9.4220  -27.3939 C   0  0  0  0  0  0  0  0  0  0  0  0
   11.4022  -10.4930  -28.1966 C   0  0  0  0  0  0  0  0  0  0  0  0
    8.8017   -7.4192  -30.6512 H   0  0  0  0  0  0  0  0  0  0  0  0
    9.5465   -6.5842  -27.5320 H   0  0  0  0  0  0  0  0  0  0  0  0
  1  3  2  0  0  0
  1 10  1  0  0  0
  2  3  1  0  0  0
  3  5  1  0  0  0
  7  4  1  0  0  0
  5  7  2  0  0  0
 11  6  2  0  0  0
  9  7  1  0  0  0
  8 10  1  0  0  0
  8 13  1  0  0  0
 10  9  2  0  0  0
  9 11  1  0  0  0
 20 16  1  0  0  0
 17 21  1  0  0  0
 12 11  1  0  0  0
 13 12  2  0  0  0
 18 13  1  0  0  0
 23 18  2  0  0  0
 18 19  1  0  0  0
 20 19  2  0  0  0
 21 20  1  0  0  0
 22 21  2  0  0  0
 22 23  1  0  0  0
  2 14  1  0  0  0
  4 15  1  0  0  0
 16 24  1  0  0  0
 17 25  1  0  0  0
M  END
> <minimizedAffinity>
-8.10804

$$$$
5II2_LU2_A_803


 25 27  0  0  0  0  0  0  0  0999 V2000
   13.3311  -14.3791  -27.7447 C   0  0  0  0  0  0  0  0  0  0  0  0
   14.5742  -16.1212  -26.7033 O   0  0  0  0  0  0  0  0  0  0  0  0
   14.0063  -15.5969  -27.8204 C   0  0  0  0  0  0  0  0  0  0  0  0
   13.5755  -16.4437  -31.4184 O   0  0  0  0  0  0  0  0  0  0  0  0
   14.0917  -16.2734  -29.0439 C   0  0  0  0  0  0  0  0  0  0  0  0
   12.3566  -14.4615  -32.4135 O   0  0  0  0  0  0  0  0  0  0  0  0
   13.5026  -15.7490  -30.2195 C   0  0  0  0  0  0  0  0  0  0  0  0
   12.0867  -12.6626  -28.7749 O   0  0  0  0  0  0  0  0  0  0  0  0
   12.8245  -14.5227  -30.1478 C   0  0  0  0  0  0  0  0  0  0  0  0
   12.7503  -13.8454  -28.9061 C   0  0  0  0  0  0  0  0  0  0  0  0
   12.2372  -13.9400  -31.2915 C   0  0  0  0  0  0  0  0  0  0  0  0
   11.6336  -12.6847  -31.1625 C   0  0  0  0  0  0  0  0  0  0  0  0
   11.5426  -12.0650  -29.8966 C   0  0  0  0  0  0  0  0  0  0  0  0
   14.5134  -15.6635  -25.8879 H   0  0  0  0  0  0  0  0  0  0  0  0
   14.0300  -17.2621  -31.4588 H   0  0  0  0  0  0  0  0  0  0  0  0
    9.9544   -8.3625  -27.0907 O   0  0  0  0  0  0  0  0  0  0  0  0
    9.1356   -7.0654  -29.3774 O   0  0  0  0  0  0  0  0  0  0  0  0
   10.9627  -10.7869  -29.7153 C   0  0  0  0  0  0  0  0  0  0  0  0
   10.7534  -10.2096  -28.4384 C   0  0  0  0  0  0  0  0  0  0  0  0
   10.1480   -8.9518  -28.3176 C   0  0  0  0  0  0  0  0  0  0  0  0
    9.7282   -8.2775  -29.4761 C   0  0  0  0  0  0  0  0  0  0  0  0
    9.9437   -8.8242  -30.7479 C   0  0  0  0  0  0  0  0  0  0  0  0
   10.5116  -10.0771  -30.8421 C   0  0  0  0  0  0  0  0  0  0  0  0
   10.2303   -8.8025  -26.3108 H   0  0  0  0  0  0  0  0  0  0  0  0
    8.9840   -6.6852  -28.5345 H   0  0  0  0  0  0  0  0  0  0  0  0
  1  3  2  0  0  0
  1 10  1  0  0  0
  2  3  1  0  0  0
  3  5  1  0  0  0
  7  4  1  0  0  0
  5  7  2  0  0  0
 11  6  2  0  0  0
  9  7  1  0  0  0
  8 10  1  0  0  0
  8 13  1  0  0  0
 10  9  2  0  0  0
  9 11  1  0  0  0
 20 16  1  0  0  0
 17 21  1  0  0  0
 12 11  1  0  0  0
 13 12  2  0  0  0
 18 13  1  0  0  0
 23 18  2  0  0  0
 18 19  1  0  0  0
 20 19  2  0  0  0
 21 20  1  0  0  0
 22 21  2  0  0  0
 22 23  1  0  0  0
  2 14  1  0  0  0
  4 15  1  0  0  0
 16 24  1  0  0  0
 17 25  1  0  0  0
M  END
> <minimizedAffinity>
-7.92592

$$$$
5II2_LU2_A_803


 25 27  0  0  0  0  0  0  0  0999 V2000
   13.5343  -14.3328  -26.9356 C   0  0  0  0  0  0  0  0  0  0  0  0
   14.6519  -15.6150  -25.2708 O   0  0  0  0  0  0  0  0  0  0  0  0
   14.3093  -15.4338  -26.5728 C   0  0  0  0  0  0  0  0  0  0  0  0
   14.7761  -17.1092  -29.8627 O   0  0  0  0  0  0  0  0  0  0  0  0
   14.7258  -16.3472  -27.5495 C   0  0  0  0  0  0  0  0  0  0  0  0
   13.6512  -15.5815  -31.5378 O   0  0  0  0  0  0  0  0  0  0  0  0
   14.3757  -16.1819  -28.9112 C   0  0  0  0  0  0  0  0  0  0  0  0
   12.4151  -13.0729  -28.5837 O   0  0  0  0  0  0  0  0  0  0  0  0
   13.5982  -15.0739  -29.2805 C   0  0  0  0  0  0  0  0  0  0  0  0
   13.1883  -14.1541  -28.2844 C   0  0  0  0  0  0  0  0  0  0  0  0
   13.2377  -14.8449  -30.6259 C   0  0  0  0  0  0  0  0  0  0  0  0
   12.5171  -13.6860  -30.9332 C   0  0  0  0  0  0  0  0  0  0  0  0
   12.0904  -12.8188  -29.9033 C   0  0  0  0  0  0  0  0  0  0  0  0
   14.3700  -15.0002  -24.6223 H   0  0  0  0  0  0  0  0  0  0  0  0
   15.2952  -17.8467  -29.6087 H   0  0  0  0  0  0  0  0  0  0  0  0
    9.9803   -9.5738  -32.9235 O   0  0  0  0  0  0  0  0  0  0  0  0
    9.3867   -8.0164  -30.7317 O   0  0  0  0  0  0  0  0  0  0  0  0
   11.3789  -11.6231  -30.1618 C   0  0  0  0  0  0  0  0  0  0  0  0
   11.0292  -11.2015  -31.4685 C   0  0  0  0  0  0  0  0  0  0  0  0
   10.3490   -9.9928  -31.6671 C   0  0  0  0  0  0  0  0  0  0  0  0
   10.0371   -9.1898  -30.5576 C   0  0  0  0  0  0  0  0  0  0  0  0
   10.3582   -9.5993  -29.2568 C   0  0  0  0  0  0  0  0  0  0  0  0
   11.0561  -10.7762  -29.0868 C   0  0  0  0  0  0  0  0  0  0  0  0
   10.1828  -10.1009  -33.6713 H   0  0  0  0  0  0  0  0  0  0  0  0
    9.1643   -7.7276  -31.5949 H   0  0  0  0  0  0  0  0  0  0  0  0
  1  3  2  0  0  0
  1 10  1  0  0  0
  2  3  1  0  0  0
  3  5  1  0  0  0
  7  4  1  0  0  0
  5  7  2  0  0  0
 11  6  2  0  0  0
  9  7  1  0  0  0
  8 10  1  0  0  0
  8 13  1  0  0  0
 10  9  2  0  0  0
  9 11  1  0  0  0
 20 16  1  0  0  0
 17 21  1  0  0  0
 12 11  1  0  0  0
 13 12  2  0  0  0
 18 13  1  0  0  0
 23 18  2  0  0  0
 18 19  1  0  0  0
 20 19  2  0  0  0
 21 20  1  0  0  0
 22 21  2  0  0  0
 22 23  1  0  0  0
  2 14  1  0  0  0
  4 15  1  0  0  0
 16 24  1  0  0  0
 17 25  1  0  0  0
M  END
> <minimizedAffinity>
-7.44972

$$$$
5II2_LU2_A_803


 25 27  0  0  0  0  0  0  0  0999 V2000
   11.3601  -10.7994  -29.8862 C   0  0  0  0  0  0  0  0  0  0  0  0
   10.3210   -8.8458  -30.7627 O   0  0  0  0  0  0  0  0  0  0  0  0
   10.7843  -10.1086  -30.9520 C   0  0  0  0  0  0  0  0  0  0  0  0
   11.0939  -12.6095  -33.6903 O   0  0  0  0  0  0  0  0  0  0  0  0
   10.6908  -10.7174  -32.2100 C   0  0  0  0  0  0  0  0  0  0  0  0
   12.0915  -14.6595  -32.5914 O   0  0  0  0  0  0  0  0  0  0  0  0
   11.1722  -12.0300  -32.4319 C   0  0  0  0  0  0  0  0  0  0  0  0
   12.4031  -12.7295  -29.0241 O   0  0  0  0  0  0  0  0  0  0  0  0
   11.7498  -12.7292  -31.3613 C   0  0  0  0  0  0  0  0  0  0  0  0
   11.8331  -12.1050  -30.0926 C   0  0  0  0  0  0  0  0  0  0  0  0
   12.2264  -14.0487  -31.5172 C   0  0  0  0  0  0  0  0  0  0  0  0
   12.7304  -14.7108  -30.3929 C   0  0  0  0  0  0  0  0  0  0  0  0
   12.8365  -14.0356  -29.1569 C   0  0  0  0  0  0  0  0  0  0  0  0
   10.3866   -8.4443  -29.9186 H   0  0  0  0  0  0  0  0  0  0  0  0
   10.7068  -12.1366  -34.4005 H   0  0  0  0  0  0  0  0  0  0  0  0
   14.3237  -13.9753  -24.4784 O   0  0  0  0  0  0  0  0  0  0  0  0
   14.8421  -16.6724  -24.6753 O   0  0  0  0  0  0  0  0  0  0  0  0
   13.3179  -14.6656  -27.9848 C   0  0  0  0  0  0  0  0  0  0  0  0
   13.5793  -13.9617  -26.7832 C   0  0  0  0  0  0  0  0  0  0  0  0
   14.0830  -14.6331  -25.6613 C   0  0  0  0  0  0  0  0  0  0  0  0
   14.3491  -16.0096  -25.7468 C   0  0  0  0  0  0  0  0  0  0  0  0
   14.0794  -16.7257  -26.9204 C   0  0  0  0  0  0  0  0  0  0  0  0
   13.6147  -16.0395  -28.0223 C   0  0  0  0  0  0  0  0  0  0  0  0
   14.1501  -13.0571  -24.4092 H   0  0  0  0  0  0  0  0  0  0  0  0
   15.0281  -16.2088  -23.8826 H   0  0  0  0  0  0  0  0  0  0  0  0
  1  3  2  0  0  0
  1 10  1  0  0  0
  2  3  1  0  0  0
  3  5  1  0  0  0
  7  4  1  0  0  0
  5  7  2  0  0  0
 11  6  2  0  0  0
  9  7  1  0  0  0
  8 10  1  0  0  0
  8 13  1  0  0  0
 10  9  2  0  0  0
  9 11  1  0  0  0
 20 16  1  0  0  0
 17 21  1  0  0  0
 12 11  1  0  0  0
 13 12  2  0  0  0
 18 13  1  0  0  0
 23 18  2  0  0  0
 18 19  1  0  0  0
 20 19  2  0  0  0
 21 20  1  0  0  0
 22 21  2  0  0  0
 22 23  1  0  0  0
  2 14  1  0  0  0
  4 15  1  0  0  0
 16 24  1  0  0  0
 17 25  1  0  0  0
M  END
> <minimizedAffinity>
-7.42317

$$$$
5II2_LU2_A_803


 25 27  0  0  0  0  0  0  0  0999 V2000
   13.8348  -15.2523  -30.1657 C   0  0  0  0  0  0  0  0  0  0  0  0
   15.2246  -17.1768  -29.9942 O   0  0  0  0  0  0  0  0  0  0  0  0
   14.3814  -16.4052  -30.7284 C   0  0  0  0  0  0  0  0  0  0  0  0
   12.8437  -16.3588  -34.1168 O   0  0  0  0  0  0  0  0  0  0  0  0
   14.0558  -16.7629  -32.0429 C   0  0  0  0  0  0  0  0  0  0  0  0
   11.5053  -14.2122  -34.1962 O   0  0  0  0  0  0  0  0  0  0  0  0
   13.1749  -15.9773  -32.8245 C   0  0  0  0  0  0  0  0  0  0  0  0
   12.4455  -13.3553  -30.3323 O   0  0  0  0  0  0  0  0  0  0  0  0
   12.6249  -14.8152  -32.2625 C   0  0  0  0  0  0  0  0  0  0  0  0
   12.9666  -14.4610  -30.9344 C   0  0  0  0  0  0  0  0  0  0  0  0
   11.7588  -13.9807  -33.0015 C   0  0  0  0  0  0  0  0  0  0  0  0
   11.2986  -12.8034  -32.4026 C   0  0  0  0  0  0  0  0  0  0  0  0
   11.6281  -12.5111  -31.0606 C   0  0  0  0  0  0  0  0  0  0  0  0
   15.4383  -16.9319  -29.1154 H   0  0  0  0  0  0  0  0  0  0  0  0
   13.2149  -17.1361  -34.4855 H   0  0  0  0  0  0  0  0  0  0  0  0
   10.9894   -9.7119  -27.0781 O   0  0  0  0  0  0  0  0  0  0  0  0
    9.8070   -7.8116  -28.6821 O   0  0  0  0  0  0  0  0  0  0  0  0
   11.2075  -11.3241  -30.4153 C   0  0  0  0  0  0  0  0  0  0  0  0
   11.3257  -11.1232  -29.0177 C   0  0  0  0  0  0  0  0  0  0  0  0
   10.8656   -9.9381  -28.4286 C   0  0  0  0  0  0  0  0  0  0  0  0
   10.2631   -8.9588  -29.2354 C   0  0  0  0  0  0  0  0  0  0  0  0
   10.1545   -9.1319  -30.6214 C   0  0  0  0  0  0  0  0  0  0  0  0
   10.5842  -10.3190  -31.1758 C   0  0  0  0  0  0  0  0  0  0  0  0
   11.3895  -10.3577  -26.5297 H   0  0  0  0  0  0  0  0  0  0  0  0
    9.8719   -7.6796  -27.7567 H   0  0  0  0  0  0  0  0  0  0  0  0
  1  3  2  0  0  0
  1 10  1  0  0  0
  2  3  1  0  0  0
  3  5  1  0  0  0
  7  4  1  0  0  0
  5  7  2  0  0  0
 11  6  2  0  0  0
  9  7  1  0  0  0
  8 10  1  0  0  0
  8 13  1  0  0  0
 10  9  2  0  0  0
  9 11  1  0  0  0
 20 16  1  0  0  0
 17 21  1  0  0  0
 12 11  1  0  0  0
 13 12  2  0  0  0
 18 13  1  0  0  0
 23 18  2  0  0  0
 18 19  1  0  0  0
 20 19  2  0  0  0
 21 20  1  0  0  0
 22 21  2  0  0  0
 22 23  1  0  0  0
  2 14  1  0  0  0
  4 15  1  0  0  0
 16 24  1  0  0  0
 17 25  1  0  0  0
M  END
> <minimizedAffinity>
-7.25079

$$$$
5II2_LU2_A_803


 25 27  0  0  0  0  0  0  0  0999 V2000
   13.9960  -15.1811  -27.7968 C   0  0  0  0  0  0  0  0  0  0  0  0
   15.2364  -16.6873  -26.4340 O   0  0  0  0  0  0  0  0  0  0  0  0
   14.7006  -16.3745  -27.6424 C   0  0  0  0  0  0  0  0  0  0  0  0
   14.4281  -17.8257  -31.0583 O   0  0  0  0  0  0  0  0  0  0  0  0
   14.8483  -17.2442  -28.7304 C   0  0  0  0  0  0  0  0  0  0  0  0
   13.2047  -16.0743  -32.4152 O   0  0  0  0  0  0  0  0  0  0  0  0
   14.2934  -16.9418  -29.9972 C   0  0  0  0  0  0  0  0  0  0  0  0
   12.7544  -13.6981  -29.1442 O   0  0  0  0  0  0  0  0  0  0  0  0
   13.5860  -15.7407  -30.1570 C   0  0  0  0  0  0  0  0  0  0  0  0
   13.4488  -14.8667  -29.0508 C   0  0  0  0  0  0  0  0  0  0  0  0
   13.0304  -15.3753  -31.4022 C   0  0  0  0  0  0  0  0  0  0  0  0
   12.3946  -14.1339  -31.5079 C   0  0  0  0  0  0  0  0  0  0  0  0
   12.2409  -13.3132  -30.3688 C   0  0  0  0  0  0  0  0  0  0  0  0
   15.1340  -16.1011  -25.7102 H   0  0  0  0  0  0  0  0  0  0  0  0
   14.9019  -18.6260  -30.9442 H   0  0  0  0  0  0  0  0  0  0  0  0
   10.2713   -9.3311  -28.2788 O   0  0  0  0  0  0  0  0  0  0  0  0
    9.7218   -8.3603  -30.7963 O   0  0  0  0  0  0  0  0  0  0  0  0
   11.6261  -12.0399  -30.4260 C   0  0  0  0  0  0  0  0  0  0  0  0
   11.2541  -11.3109  -29.2693 C   0  0  0  0  0  0  0  0  0  0  0  0
   10.6217  -10.0662  -29.3866 C   0  0  0  0  0  0  0  0  0  0  0  0
   10.3381   -9.5574  -30.6647 C   0  0  0  0  0  0  0  0  0  0  0  0
   10.7153  -10.2552  -31.8196 C   0  0  0  0  0  0  0  0  0  0  0  0
   11.3072  -11.4928  -31.6814 C   0  0  0  0  0  0  0  0  0  0  0  0
   10.4552   -9.6600  -27.4210 H   0  0  0  0  0  0  0  0  0  0  0  0
    9.4629   -7.8804  -30.0343 H   0  0  0  0  0  0  0  0  0  0  0  0
  1  3  2  0  0  0
  1 10  1  0  0  0
  2  3  1  0  0  0
  3  5  1  0  0  0
  7  4  1  0  0  0
  5  7  2  0  0  0
 11  6  2  0  0  0
  9  7  1  0  0  0
  8 10  1  0  0  0
  8 13  1  0  0  0
 10  9  2  0  0  0
  9 11  1  0  0  0
 20 16  1  0  0  0
 17 21  1  0  0  0
 12 11  1  0  0  0
 13 12  2  0  0  0
 18 13  1  0  0  0
 23 18  2  0  0  0
 18 19  1  0  0  0
 20 19  2  0  0  0
 21 20  1  0  0  0
 22 21  2  0  0  0
 22 23  1  0  0  0
  2 14  1  0  0  0
  4 15  1  0  0  0
 16 24  1  0  0  0
 17 25  1  0  0  0
M  END
> <minimizedAffinity>
-7.15262

$$$$
