4UFI_AGK_A_1001


 15 15  0  0  0  0  0  0  0  0999 V2000
   79.1336   87.9482   20.5492 O   0  0  0  0  0  0  0  0  0  0  0  0
   79.1888   89.3349   20.2717 C   0  0  0  0  0  0  0  0  0  0  0  0
   77.8148   89.9375   20.5142 C   0  0  0  0  0  0  0  0  0  0  0  0
   77.3901   89.6788   21.8497 O   0  0  0  0  0  0  0  0  0  0  0  0
   76.8129   89.3541   19.5350 C   0  0  0  0  0  0  0  0  0  0  0  0
   77.3229   89.7470   18.1979 N   0  0  0  0  0  0  0  0  0  0  0  0
   79.6270   89.5438   18.8259 C   0  0  0  0  0  0  0  0  0  0  0  0
   78.5503   89.0906   17.9341 N   0  0  0  0  0  0  0  0  0  0  0  0
   78.8550   87.8133   21.4685 H   0  0  0  0  0  0  0  0  0  0  0  0
   77.3331   88.7208   21.9910 H   0  0  0  0  0  0  0  0  0  0  0  0
   77.4683   90.7564   18.1752 H   0  0  0  0  0  0  0  0  0  0  0  0
   78.8223   89.2786   16.9692 H   0  0  0  0  0  0  0  0  0  0  0  0
   80.7937   88.6494   18.5033 C   0  0  0  0  0  0  0  0  0  0  0  0
   80.9934   88.5732   17.1084 O   0  0  0  0  0  0  0  0  0  0  0  0
   80.2005   88.2053   16.6878 H   0  0  0  0  0  0  0  0  0  0  0  0
  1  2  1  0  0  0
  2  3  1  0  0  0
  2  7  1  0  0  0
  3  4  1  0  0  0
  3  5  1  0  0  0
  5  6  1  0  0  0
  6  8  1  0  0  0
  7 13  1  0  0  0
  7  8  1  0  0  0
 13 14  1  0  0  0
  1  9  1  0  0  0
  4 10  1  0  0  0
  6 11  1  0  0  0
 14 15  1  0  0  0
  8 12  1  0  0  0
M  END
> <minimizedAffinity>
-6.72168

$$$$
4UFI_AGK_A_1001


 15 15  0  0  0  0  0  0  0  0999 V2000
   77.7789   89.6388   17.8146 O   0  0  0  0  0  0  0  0  0  0  0  0
   77.2779   88.8431   18.8723 C   0  0  0  0  0  0  0  0  0  0  0  0
   76.8796   89.7530   20.0227 C   0  0  0  0  0  0  0  0  0  0  0  0
   75.9255   90.7162   19.5837 O   0  0  0  0  0  0  0  0  0  0  0  0
   78.1050   90.4586   20.5736 C   0  0  0  0  0  0  0  0  0  0  0  0
   78.9821   89.3638   21.0580 N   0  0  0  0  0  0  0  0  0  0  0  0
   78.3503   87.8507   19.3098 C   0  0  0  0  0  0  0  0  0  0  0  0
   79.4400   88.5885   19.9644 N   0  0  0  0  0  0  0  0  0  0  0  0
   77.0981   90.2706   17.5349 H   0  0  0  0  0  0  0  0  0  0  0  0
   76.3159   91.2620   18.8832 H   0  0  0  0  0  0  0  0  0  0  0  0
   78.4563   88.7680   21.6976 H   0  0  0  0  0  0  0  0  0  0  0  0
   80.1319   87.9199   20.3030 H   0  0  0  0  0  0  0  0  0  0  0  0
   78.9888   87.2129   18.1054 C   0  0  0  0  0  0  0  0  0  0  0  0
   80.0512   88.0075   17.6242 O   0  0  0  0  0  0  0  0  0  0  0  0
   79.7119   88.8785   17.3652 H   0  0  0  0  0  0  0  0  0  0  0  0
  1  2  1  0  0  0
  2  3  1  0  0  0
  2  7  1  0  0  0
  3  4  1  0  0  0
  3  5  1  0  0  0
  5  6  1  0  0  0
  6  8  1  0  0  0
  7 13  1  0  0  0
  7  8  1  0  0  0
 13 14  1  0  0  0
  1  9  1  0  0  0
  4 10  1  0  0  0
  6 11  1  0  0  0
 14 15  1  0  0  0
  8 12  1  0  0  0
M  END
> <minimizedAffinity>
-6.71770

$$$$
4UFI_AGK_A_1001


 15 15  0  0  0  0  0  0  0  0999 V2000
   78.5486   89.8922   18.0083 O   0  0  0  0  0  0  0  0  0  0  0  0
   79.5180   89.6663   19.0144 C   0  0  0  0  0  0  0  0  0  0  0  0
   80.3072   88.4162   18.6615 C   0  0  0  0  0  0  0  0  0  0  0  0
   80.8999   88.5530   17.3728 O   0  0  0  0  0  0  0  0  0  0  0  0
   79.3939   87.2043   18.6803 C   0  0  0  0  0  0  0  0  0  0  0  0
   78.8999   87.1287   20.0777 N   0  0  0  0  0  0  0  0  0  0  0  0
   78.8206   89.5073   20.3614 C   0  0  0  0  0  0  0  0  0  0  0  0
   78.0718   88.2426   20.3610 N   0  0  0  0  0  0  0  0  0  0  0  0
   78.9903   89.9937   17.1507 H   0  0  0  0  0  0  0  0  0  0  0  0
   80.2039   88.6731   16.7079 H   0  0  0  0  0  0  0  0  0  0  0  0
   79.6946   87.1274   20.7171 H   0  0  0  0  0  0  0  0  0  0  0  0
   77.6485   88.1116   21.2797 H   0  0  0  0  0  0  0  0  0  0  0  0
   77.7721   90.5734   20.5314 C   0  0  0  0  0  0  0  0  0  0  0  0
   76.4897   90.0638   20.2357 O   0  0  0  0  0  0  0  0  0  0  0  0
   76.4678   89.7573   19.3156 H   0  0  0  0  0  0  0  0  0  0  0  0
  1  2  1  0  0  0
  2  3  1  0  0  0
  2  7  1  0  0  0
  3  4  1  0  0  0
  3  5  1  0  0  0
  5  6  1  0  0  0
  6  8  1  0  0  0
  7 13  1  0  0  0
  7  8  1  0  0  0
 13 14  1  0  0  0
  1  9  1  0  0  0
  4 10  1  0  0  0
  6 11  1  0  0  0
 14 15  1  0  0  0
  8 12  1  0  0  0
M  END
> <minimizedAffinity>
-6.24049

$$$$
4UFI_AGK_A_1001


 15 15  0  0  0  0  0  0  0  0999 V2000
   78.2743   87.4810   20.1508 O   0  0  0  0  0  0  0  0  0  0  0  0
   77.9018   87.9434   18.8661 C   0  0  0  0  0  0  0  0  0  0  0  0
   79.0146   87.6124   17.8853 C   0  0  0  0  0  0  0  0  0  0  0  0
   79.2783   86.2120   17.8907 O   0  0  0  0  0  0  0  0  0  0  0  0
   80.2745   88.3733   18.2550 C   0  0  0  0  0  0  0  0  0  0  0  0
   79.8947   89.8037   18.1452 N   0  0  0  0  0  0  0  0  0  0  0  0
   77.6555   89.4475   18.9223 C   0  0  0  0  0  0  0  0  0  0  0  0
   78.9390   90.1301   19.1386 N   0  0  0  0  0  0  0  0  0  0  0  0
   78.4314   86.5243   20.1171 H   0  0  0  0  0  0  0  0  0  0  0  0
   79.5614   85.9397   18.7777 H   0  0  0  0  0  0  0  0  0  0  0  0
   79.4954   89.9770   17.2228 H   0  0  0  0  0  0  0  0  0  0  0  0
   78.7814   91.1377   19.1240 H   0  0  0  0  0  0  0  0  0  0  0  0
   76.8292   89.7928   20.1318 C   0  0  0  0  0  0  0  0  0  0  0  0
   75.9580   90.8669   19.8510 O   0  0  0  0  0  0  0  0  0  0  0  0
   76.4770   91.6477   19.6022 H   0  0  0  0  0  0  0  0  0  0  0  0
  1  2  1  0  0  0
  2  3  1  0  0  0
  2  7  1  0  0  0
  3  4  1  0  0  0
  3  5  1  0  0  0
  5  6  1  0  0  0
  6  8  1  0  0  0
  7 13  1  0  0  0
  7  8  1  0  0  0
 13 14  1  0  0  0
  1  9  1  0  0  0
  4 10  1  0  0  0
  6 11  1  0  0  0
 14 15  1  0  0  0
  8 12  1  0  0  0
M  END
> <minimizedAffinity>
-6.10004

$$$$
4UFI_AGK_A_1001


 15 15  0  0  0  0  0  0  0  0999 V2000
   76.9353   88.9803   18.9275 O   0  0  0  0  0  0  0  0  0  0  0  0
   78.0197   88.1268   19.2415 C   0  0  0  0  0  0  0  0  0  0  0  0
   79.0405   88.9101   20.0504 C   0  0  0  0  0  0  0  0  0  0  0  0
   78.4338   89.4517   21.2206 O   0  0  0  0  0  0  0  0  0  0  0  0
   79.6203   90.0308   19.2073 C   0  0  0  0  0  0  0  0  0  0  0  0
   80.2783   89.3421   18.0693 N   0  0  0  0  0  0  0  0  0  0  0  0
   78.6375   87.5990   17.9508 C   0  0  0  0  0  0  0  0  0  0  0  0
   79.3058   88.7089   17.2568 N   0  0  0  0  0  0  0  0  0  0  0  0
   76.5410   89.3170   19.7473 H   0  0  0  0  0  0  0  0  0  0  0  0
   77.7187   90.0550   20.9643 H   0  0  0  0  0  0  0  0  0  0  0  0
   80.9266   88.6411   18.4281 H   0  0  0  0  0  0  0  0  0  0  0  0
   79.7630   88.3454   16.4206 H   0  0  0  0  0  0  0  0  0  0  0  0
   77.5568   87.1505   17.0042 C   0  0  0  0  0  0  0  0  0  0  0  0
   77.1977   88.1950   16.1257 O   0  0  0  0  0  0  0  0  0  0  0  0
   76.8627   88.9475   16.6379 H   0  0  0  0  0  0  0  0  0  0  0  0
  1  2  1  0  0  0
  2  3  1  0  0  0
  2  7  1  0  0  0
  3  4  1  0  0  0
  3  5  1  0  0  0
  5  6  1  0  0  0
  6  8  1  0  0  0
  7 13  1  0  0  0
  7  8  1  0  0  0
 13 14  1  0  0  0
  1  9  1  0  0  0
  4 10  1  0  0  0
  6 11  1  0  0  0
 14 15  1  0  0  0
  8 12  1  0  0  0
M  END
> <minimizedAffinity>
-5.97635

$$$$
4UFI_AGK_A_1001


 15 15  0  0  0  0  0  0  0  0999 V2000
   76.6971   89.3512   18.7879 O   0  0  0  0  0  0  0  0  0  0  0  0
   78.0388   89.0881   18.4227 C   0  0  0  0  0  0  0  0  0  0  0  0
   78.0712   87.8563   17.5330 C   0  0  0  0  0  0  0  0  0  0  0  0
   77.2374   88.0474   16.3933 O   0  0  0  0  0  0  0  0  0  0  0  0
   77.6037   86.6413   18.3130 C   0  0  0  0  0  0  0  0  0  0  0  0
   78.5824   86.5072   19.4205 N   0  0  0  0  0  0  0  0  0  0  0  0
   78.8721   88.8720   19.6817 C   0  0  0  0  0  0  0  0  0  0  0  0
   78.4659   87.6057   20.3073 N   0  0  0  0  0  0  0  0  0  0  0  0
   76.1654   89.4890   17.9883 H   0  0  0  0  0  0  0  0  0  0  0  0
   76.3228   88.1919   16.6824 H   0  0  0  0  0  0  0  0  0  0  0  0
   79.5267   86.4829   19.0354 H   0  0  0  0  0  0  0  0  0  0  0  0
   79.0588   87.4360   21.1197 H   0  0  0  0  0  0  0  0  0  0  0  0
   78.5479   89.9266   20.7053 C   0  0  0  0  0  0  0  0  0  0  0  0
   77.4721   89.5160   21.5212 O   0  0  0  0  0  0  0  0  0  0  0  0
   76.6861   89.3716   20.9714 H   0  0  0  0  0  0  0  0  0  0  0  0
  1  2  1  0  0  0
  2  3  1  0  0  0
  2  7  1  0  0  0
  3  4  1  0  0  0
  3  5  1  0  0  0
  5  6  1  0  0  0
  6  8  1  0  0  0
  7 13  1  0  0  0
  7  8  1  0  0  0
 13 14  1  0  0  0
  1  9  1  0  0  0
  4 10  1  0  0  0
  6 11  1  0  0  0
 14 15  1  0  0  0
  8 12  1  0  0  0
M  END
> <minimizedAffinity>
-5.77586

$$$$
4UFI_AGK_A_1001


 15 15  0  0  0  0  0  0  0  0999 V2000
   79.2127   88.2380   20.2402 O   0  0  0  0  0  0  0  0  0  0  0  0
   77.8809   87.9115   19.8901 C   0  0  0  0  0  0  0  0  0  0  0  0
   77.9070   86.9042   18.7523 C   0  0  0  0  0  0  0  0  0  0  0  0
   78.6557   85.7517   19.1293 O   0  0  0  0  0  0  0  0  0  0  0  0
   78.5223   87.5342   17.5164 C   0  0  0  0  0  0  0  0  0  0  0  0
   77.6227   88.6672   17.1855 N   0  0  0  0  0  0  0  0  0  0  0  0
   77.1416   89.1799   19.4769 C   0  0  0  0  0  0  0  0  0  0  0  0
   77.6918   89.6543   18.1993 N   0  0  0  0  0  0  0  0  0  0  0  0
   79.6846   87.4325   20.5033 H   0  0  0  0  0  0  0  0  0  0  0  0
   79.5688   86.0107   19.3295 H   0  0  0  0  0  0  0  0  0  0  0  0
   76.6642   88.3264   17.1110 H   0  0  0  0  0  0  0  0  0  0  0  0
   77.1625   90.4722   17.8975 H   0  0  0  0  0  0  0  0  0  0  0  0
   77.4287   90.2887   20.4531 C   0  0  0  0  0  0  0  0  0  0  0  0
   77.3130   89.8265   21.7815 O   0  0  0  0  0  0  0  0  0  0  0  0
   76.4094   89.5095   21.9360 H   0  0  0  0  0  0  0  0  0  0  0  0
  1  2  1  0  0  0
  2  3  1  0  0  0
  2  7  1  0  0  0
  3  4  1  0  0  0
  3  5  1  0  0  0
  5  6  1  0  0  0
  6  8  1  0  0  0
  7 13  1  0  0  0
  7  8  1  0  0  0
 13 14  1  0  0  0
  1  9  1  0  0  0
  4 10  1  0  0  0
  6 11  1  0  0  0
 14 15  1  0  0  0
  8 12  1  0  0  0
M  END
> <minimizedAffinity>
-5.66923

$$$$
4UFI_AGK_A_1001


 15 15  0  0  0  0  0  0  0  0999 V2000
   78.9063   89.5118   17.5422 O   0  0  0  0  0  0  0  0  0  0  0  0
   77.9161   89.0686   18.4510 C   0  0  0  0  0  0  0  0  0  0  0  0
   78.3517   89.4270   19.8623 C   0  0  0  0  0  0  0  0  0  0  0  0
   78.5811   90.8295   19.9678 O   0  0  0  0  0  0  0  0  0  0  0  0
   79.6179   88.6714   20.2214 C   0  0  0  0  0  0  0  0  0  0  0  0
   79.2349   87.2397   20.1446 N   0  0  0  0  0  0  0  0  0  0  0  0
   77.7336   87.5615   18.3041 C   0  0  0  0  0  0  0  0  0  0  0  0
   78.9398   86.8871   18.8047 N   0  0  0  0  0  0  0  0  0  0  0  0
   79.0237   90.4702   17.6341 H   0  0  0  0  0  0  0  0  0  0  0  0
   79.2867   91.0887   19.3548 H   0  0  0  0  0  0  0  0  0  0  0  0
   78.4117   87.0789   20.7251 H   0  0  0  0  0  0  0  0  0  0  0  0
   78.7965   85.8785   18.7547 H   0  0  0  0  0  0  0  0  0  0  0  0
   77.6618   87.1874   16.8482 C   0  0  0  0  0  0  0  0  0  0  0  0
   77.0357   88.2079   16.1010 O   0  0  0  0  0  0  0  0  0  0  0  0
   76.1320   88.3399   16.4278 H   0  0  0  0  0  0  0  0  0  0  0  0
  1  2  1  0  0  0
  2  3  1  0  0  0
  2  7  1  0  0  0
  3  4  1  0  0  0
  3  5  1  0  0  0
  5  6  1  0  0  0
  6  8  1  0  0  0
  7 13  1  0  0  0
  7  8  1  0  0  0
 13 14  1  0  0  0
  1  9  1  0  0  0
  4 10  1  0  0  0
  6 11  1  0  0  0
 14 15  1  0  0  0
  8 12  1  0  0  0
M  END
> <minimizedAffinity>
-5.65423

$$$$
4UFI_AGK_A_1001


 15 15  0  0  0  0  0  0  0  0999 V2000
   78.2541   86.9266   20.3251 O   0  0  0  0  0  0  0  0  0  0  0  0
   79.0540   87.7642   19.5117 C   0  0  0  0  0  0  0  0  0  0  0  0
   78.8187   89.2098   19.9177 C   0  0  0  0  0  0  0  0  0  0  0  0
   79.1013   89.3866   21.3033 O   0  0  0  0  0  0  0  0  0  0  0  0
   77.3800   89.6003   19.6335 C   0  0  0  0  0  0  0  0  0  0  0  0
   77.2319   89.4432   18.1652 N   0  0  0  0  0  0  0  0  0  0  0  0
   78.6894   87.5442   18.0472 C   0  0  0  0  0  0  0  0  0  0  0  0
   77.3401   88.0762   17.8097 N   0  0  0  0  0  0  0  0  0  0  0  0
   78.4846   87.0651   21.2570 H   0  0  0  0  0  0  0  0  0  0  0  0
   78.5124   88.8219   21.8279 H   0  0  0  0  0  0  0  0  0  0  0  0
   77.9642   89.9737   17.6934 H   0  0  0  0  0  0  0  0  0  0  0  0
   77.1175   87.9761   16.8193 H   0  0  0  0  0  0  0  0  0  0  0  0
   78.5774   86.0718   17.7564 C   0  0  0  0  0  0  0  0  0  0  0  0
   77.2488   85.6285   17.9295 O   0  0  0  0  0  0  0  0  0  0  0  0
   76.9742   85.7807   18.8473 H   0  0  0  0  0  0  0  0  0  0  0  0
  1  2  1  0  0  0
  2  3  1  0  0  0
  2  7  1  0  0  0
  3  4  1  0  0  0
  3  5  1  0  0  0
  5  6  1  0  0  0
  6  8  1  0  0  0
  7 13  1  0  0  0
  7  8  1  0  0  0
 13 14  1  0  0  0
  1  9  1  0  0  0
  4 10  1  0  0  0
  6 11  1  0  0  0
 14 15  1  0  0  0
  8 12  1  0  0  0
M  END
> <minimizedAffinity>
-5.19281

$$$$
4UFI_AGK_A_1001


 15 15  0  0  0  0  0  0  0  0999 V2000
   78.4434   88.6361   17.0290 O   0  0  0  0  0  0  0  0  0  0  0  0
   78.7944   88.0769   18.2808 C   0  0  0  0  0  0  0  0  0  0  0  0
   77.5379   87.9389   19.1247 C   0  0  0  0  0  0  0  0  0  0  0  0
   76.5682   87.1486   18.4421 O   0  0  0  0  0  0  0  0  0  0  0  0
   76.9625   89.3106   19.4255 C   0  0  0  0  0  0  0  0  0  0  0  0
   78.0279   90.0045   20.1910 N   0  0  0  0  0  0  0  0  0  0  0  0
   79.8153   88.9776   18.9682 C   0  0  0  0  0  0  0  0  0  0  0  0
   79.1538   90.2298   19.3613 N   0  0  0  0  0  0  0  0  0  0  0  0
   77.7940   88.0646   16.5902 H   0  0  0  0  0  0  0  0  0  0  0  0
   76.3296   87.5799   17.6067 H   0  0  0  0  0  0  0  0  0  0  0  0
   78.3038   89.4268   20.9851 H   0  0  0  0  0  0  0  0  0  0  0  0
   79.8232   90.8099   19.8670 H   0  0  0  0  0  0  0  0  0  0  0  0
   80.8789   89.3970   17.9895 C   0  0  0  0  0  0  0  0  0  0  0  0
   81.3033   88.2980   17.2124 O   0  0  0  0  0  0  0  0  0  0  0  0
   81.6741   87.6153   17.7932 H   0  0  0  0  0  0  0  0  0  0  0  0
  1  2  1  0  0  0
  2  3  1  0  0  0
  2  7  1  0  0  0
  3  4  1  0  0  0
  3  5  1  0  0  0
  5  6  1  0  0  0
  6  8  1  0  0  0
  7 13  1  0  0  0
  7  8  1  0  0  0
 13 14  1  0  0  0
  1  9  1  0  0  0
  4 10  1  0  0  0
  6 11  1  0  0  0
 14 15  1  0  0  0
  8 12  1  0  0  0
M  END
> <minimizedAffinity>
-5.07123

$$$$
