6D50_GCB_A_903


 17 17  0  0  0  0  0  0  0  0999 V2000
   18.6016   -7.4884  -25.3792 C   0  0  0  0  0  0  0  0  0  0  0  0
   17.4331   -7.6694  -24.3406 C   0  0  0  0  0  0  0  0  0  0  0  0
   17.5171   -8.8737  -23.5519 C   0  0  0  0  0  0  0  0  0  0  0  0
   17.5707  -10.0656  -24.3900 C   0  0  0  0  0  0  0  0  0  0  0  0
   18.8001   -9.9867  -25.2445 C   0  0  0  0  0  0  0  0  0  0  0  0
   19.1856   -6.4801  -25.5996 O   0  0  0  0  0  0  0  0  0  0  0  0
   17.4186   -6.5318  -23.4196 O   0  0  0  0  0  0  0  0  0  0  0  0
   16.3627   -9.0096  -22.6658 O   0  0  0  0  0  0  0  0  0  0  0  0
   17.6598  -11.2480  -23.7086 O   0  0  0  0  0  0  0  0  0  0  0  0
   18.9175   -8.7571  -26.0896 O   0  0  0  0  0  0  0  0  0  0  0  0
   18.2463   -6.5146  -22.9140 H   0  0  0  0  0  0  0  0  0  0  0  0
   15.5544   -9.0844  -23.1969 H   0  0  0  0  0  0  0  0  0  0  0  0
   18.4878  -11.2686  -23.2037 H   0  0  0  0  0  0  0  0  0  0  0  0
   18.8947  -11.1264  -26.1925 C   0  0  0  0  0  0  0  0  0  0  0  0
   19.5487  -12.1306  -25.8348 O   0  0  0  0  0  0  0  0  0  0  0  0
   18.3476  -11.0776  -27.3204 O   0  0  0  0  0  0  0  0  0  0  0  0
   19.9511  -12.1507  -24.9888 H   0  0  0  0  0  0  0  0  0  0  0  0
  1  2  1  0  0  0
  1  6  2  0  0  0
  1 10  1  0  0  0
  2  3  1  0  0  0
  2  7  1  0  0  0
  3  4  1  0  0  0
  3  8  1  0  0  0
  4  5  1  0  0  0
  4  9  1  0  0  0
  5 14  1  0  0  0
  5 10  1  0  0  0
 14 15  1  0  0  0
 14 16  2  0  0  0
  7 11  1  0  0  0
  8 12  1  0  0  0
  9 13  1  0  0  0
 15 17  1  0  0  0
M  END
> <minimizedAffinity>
-7.49707

$$$$
6D50_GCB_A_903


 17 17  0  0  0  0  0  0  0  0999 V2000
   18.5900   -6.7132  -25.1895 C   0  0  0  0  0  0  0  0  0  0  0  0
   17.3463   -6.1227  -24.4271 C   0  0  0  0  0  0  0  0  0  0  0  0
   16.9253   -6.8949  -23.2843 C   0  0  0  0  0  0  0  0  0  0  0  0
   16.6250   -8.2751  -23.6460 C   0  0  0  0  0  0  0  0  0  0  0  0
   17.8725   -8.9018  -24.1924 C   0  0  0  0  0  0  0  0  0  0  0  0
   19.5120   -6.0916  -25.6015 O   0  0  0  0  0  0  0  0  0  0  0  0
   17.6562   -4.7696  -23.9627 O   0  0  0  0  0  0  0  0  0  0  0  0
   15.7243   -6.3281  -22.6738 O   0  0  0  0  0  0  0  0  0  0  0  0
   16.2260   -9.0711  -22.6080 O   0  0  0  0  0  0  0  0  0  0  0  0
   18.4950   -8.1893  -25.3520 O   0  0  0  0  0  0  0  0  0  0  0  0
   18.3872   -4.8057  -23.3262 H   0  0  0  0  0  0  0  0  0  0  0  0
   14.9931   -6.3579  -23.3105 H   0  0  0  0  0  0  0  0  0  0  0  0
   16.9439   -9.1407  -21.9594 H   0  0  0  0  0  0  0  0  0  0  0  0
   17.6389  -10.2910  -24.6635 C   0  0  0  0  0  0  0  0  0  0  0  0
   18.4976  -11.1555  -24.3816 O   0  0  0  0  0  0  0  0  0  0  0  0
   16.6198  -10.5847  -25.3339 O   0  0  0  0  0  0  0  0  0  0  0  0
   19.2529  -10.9193  -23.8799 H   0  0  0  0  0  0  0  0  0  0  0  0
  1  2  1  0  0  0
  1  6  2  0  0  0
  1 10  1  0  0  0
  2  3  1  0  0  0
  2  7  1  0  0  0
  3  4  1  0  0  0
  3  8  1  0  0  0
  4  5  1  0  0  0
  4  9  1  0  0  0
  5 14  1  0  0  0
  5 10  1  0  0  0
 14 15  1  0  0  0
 14 16  2  0  0  0
  7 11  1  0  0  0
  8 12  1  0  0  0
  9 13  1  0  0  0
 15 17  1  0  0  0
M  END
> <minimizedAffinity>
-7.07531

$$$$
6D50_GCB_A_903


 17 17  0  0  0  0  0  0  0  0999 V2000
   19.8589   -8.5435  -27.4953 C   0  0  0  0  0  0  0  0  0  0  0  0
   19.4098   -7.1929  -26.8236 C   0  0  0  0  0  0  0  0  0  0  0  0
   19.3026   -7.2480  -25.3866 C   0  0  0  0  0  0  0  0  0  0  0  0
   18.3892   -8.2986  -24.9531 C   0  0  0  0  0  0  0  0  0  0  0  0
   18.9261   -9.6158  -25.4267 C   0  0  0  0  0  0  0  0  0  0  0  0
   20.6493   -8.6542  -28.3724 O   0  0  0  0  0  0  0  0  0  0  0  0
   20.3676   -6.1386  -27.1604 O   0  0  0  0  0  0  0  0  0  0  0  0
   18.8106   -5.9840  -24.8420 O   0  0  0  0  0  0  0  0  0  0  0  0
   18.2437   -8.4154  -23.5982 O   0  0  0  0  0  0  0  0  0  0  0  0
   19.1675   -9.7190  -26.9001 O   0  0  0  0  0  0  0  0  0  0  0  0
   21.2369   -6.3619  -26.7926 H   0  0  0  0  0  0  0  0  0  0  0  0
   17.9170   -5.8131  -25.1783 H   0  0  0  0  0  0  0  0  0  0  0  0
   19.0956   -8.6550  -23.2010 H   0  0  0  0  0  0  0  0  0  0  0  0
   18.0139  -10.7410  -25.0976 C   0  0  0  0  0  0  0  0  0  0  0  0
   17.9160  -11.0816  -23.8982 O   0  0  0  0  0  0  0  0  0  0  0  0
   17.3729  -11.3388  -25.9953 O   0  0  0  0  0  0  0  0  0  0  0  0
   18.4017  -10.6245  -23.2402 H   0  0  0  0  0  0  0  0  0  0  0  0
  1  2  1  0  0  0
  1  6  2  0  0  0
  1 10  1  0  0  0
  2  3  1  0  0  0
  2  7  1  0  0  0
  3  4  1  0  0  0
  3  8  1  0  0  0
  4  5  1  0  0  0
  4  9  1  0  0  0
  5 14  1  0  0  0
  5 10  1  0  0  0
 14 15  1  0  0  0
 14 16  2  0  0  0
  7 11  1  0  0  0
  8 12  1  0  0  0
  9 13  1  0  0  0
 15 17  1  0  0  0
M  END
> <minimizedAffinity>
-7.06542

$$$$
6D50_GCB_A_903


 17 17  0  0  0  0  0  0  0  0999 V2000
   19.1405   -9.5441  -22.8470 C   0  0  0  0  0  0  0  0  0  0  0  0
   17.8302   -8.6910  -23.0262 C   0  0  0  0  0  0  0  0  0  0  0  0
   16.7380   -9.3984  -23.6475 C   0  0  0  0  0  0  0  0  0  0  0  0
   17.1137   -9.9356  -24.9499 C   0  0  0  0  0  0  0  0  0  0  0  0
   18.2396  -10.9059  -24.7531 C   0  0  0  0  0  0  0  0  0  0  0  0
   19.8307   -9.5637  -21.8829 O   0  0  0  0  0  0  0  0  0  0  0  0
   17.3718   -8.2207  -21.7181 O   0  0  0  0  0  0  0  0  0  0  0  0
   15.5844   -8.5235  -23.8480 O   0  0  0  0  0  0  0  0  0  0  0  0
   16.1272  -10.6281  -25.5961 O   0  0  0  0  0  0  0  0  0  0  0  0
   19.4448  -10.3587  -24.0545 O   0  0  0  0  0  0  0  0  0  0  0  0
   17.1399   -8.9822  -21.1638 H   0  0  0  0  0  0  0  0  0  0  0  0
   15.8254   -7.8039  -24.4522 H   0  0  0  0  0  0  0  0  0  0  0  0
   15.8835  -11.4077  -25.0729 H   0  0  0  0  0  0  0  0  0  0  0  0
   18.7431  -11.4453  -26.0423 C   0  0  0  0  0  0  0  0  0  0  0  0
   19.5839  -12.3702  -25.9997 O   0  0  0  0  0  0  0  0  0  0  0  0
   18.3477  -10.9791  -27.1379 O   0  0  0  0  0  0  0  0  0  0  0  0
   19.8685  -12.7069  -25.1729 H   0  0  0  0  0  0  0  0  0  0  0  0
  1  2  1  0  0  0
  1  6  2  0  0  0
  1 10  1  0  0  0
  2  3  1  0  0  0
  2  7  1  0  0  0
  3  4  1  0  0  0
  3  8  1  0  0  0
  4  5  1  0  0  0
  4  9  1  0  0  0
  5 14  1  0  0  0
  5 10  1  0  0  0
 14 15  1  0  0  0
 14 16  2  0  0  0
  7 11  1  0  0  0
  8 12  1  0  0  0
  9 13  1  0  0  0
 15 17  1  0  0  0
M  END
> <minimizedAffinity>
-7.06150

$$$$
6D50_GCB_A_903


 17 17  0  0  0  0  0  0  0  0999 V2000
   18.5861   -8.7822  -25.3231 C   0  0  0  0  0  0  0  0  0  0  0  0
   17.9425   -9.3725  -24.0138 C   0  0  0  0  0  0  0  0  0  0  0  0
   16.7141   -8.7328  -23.6121 C   0  0  0  0  0  0  0  0  0  0  0  0
   16.8882   -7.2971  -23.4272 C   0  0  0  0  0  0  0  0  0  0  0  0
   17.3127   -6.7008  -24.7356 C   0  0  0  0  0  0  0  0  0  0  0  0
   19.0582   -9.4119  -26.2102 O   0  0  0  0  0  0  0  0  0  0  0  0
   17.6629  -10.7962  -24.2068 O   0  0  0  0  0  0  0  0  0  0  0  0
   16.2167   -9.2822  -22.3523 O   0  0  0  0  0  0  0  0  0  0  0  0
   15.7596   -6.6213  -23.0528 O   0  0  0  0  0  0  0  0  0  0  0  0
   18.5447   -7.2950  -25.3431 O   0  0  0  0  0  0  0  0  0  0  0  0
   17.0103  -10.9043  -24.9162 H   0  0  0  0  0  0  0  0  0  0  0  0
   16.8604   -9.1091  -21.6475 H   0  0  0  0  0  0  0  0  0  0  0  0
   15.0908   -6.6970  -23.7513 H   0  0  0  0  0  0  0  0  0  0  0  0
   17.5922   -5.2464  -24.6215 C   0  0  0  0  0  0  0  0  0  0  0  0
   17.9752   -4.8106  -23.5136 O   0  0  0  0  0  0  0  0  0  0  0  0
   17.4364   -4.4782  -25.6012 O   0  0  0  0  0  0  0  0  0  0  0  0
   18.0865   -5.3981  -22.7921 H   0  0  0  0  0  0  0  0  0  0  0  0
  1  2  1  0  0  0
  1  6  2  0  0  0
  1 10  1  0  0  0
  2  3  1  0  0  0
  2  7  1  0  0  0
  3  4  1  0  0  0
  3  8  1  0  0  0
  4  5  1  0  0  0
  4  9  1  0  0  0
  5 14  1  0  0  0
  5 10  1  0  0  0
 14 15  1  0  0  0
 14 16  2  0  0  0
  7 11  1  0  0  0
  8 12  1  0  0  0
  9 13  1  0  0  0
 15 17  1  0  0  0
M  END
> <minimizedAffinity>
-7.03337

$$$$
6D50_GCB_A_903


 17 17  0  0  0  0  0  0  0  0999 V2000
   16.1377   -9.2159  -24.1741 C   0  0  0  0  0  0  0  0  0  0  0  0
   17.1142   -9.0978  -22.9455 C   0  0  0  0  0  0  0  0  0  0  0  0
   18.5127   -9.0642  -23.2959 C   0  0  0  0  0  0  0  0  0  0  0  0
   18.9019  -10.2323  -24.0770 C   0  0  0  0  0  0  0  0  0  0  0  0
   18.1074  -10.2360  -25.3484 C   0  0  0  0  0  0  0  0  0  0  0  0
   15.1289   -8.6100  -24.3207 O   0  0  0  0  0  0  0  0  0  0  0  0
   16.8114   -7.8768  -22.1973 O   0  0  0  0  0  0  0  0  0  0  0  0
   19.3580   -9.0295  -22.1041 O   0  0  0  0  0  0  0  0  0  0  0  0
   20.2164  -10.2644  -24.4532 O   0  0  0  0  0  0  0  0  0  0  0  0
   16.6209  -10.2027  -25.1774 O   0  0  0  0  0  0  0  0  0  0  0  0
   16.9716   -7.1040  -22.7612 H   0  0  0  0  0  0  0  0  0  0  0  0
   19.2230   -9.8398  -21.5882 H   0  0  0  0  0  0  0  0  0  0  0  0
   20.4051   -9.5103  -25.0334 H   0  0  0  0  0  0  0  0  0  0  0  0
   18.3817  -11.4397  -26.1744 C   0  0  0  0  0  0  0  0  0  0  0  0
   18.4943  -12.5378  -25.5866 O   0  0  0  0  0  0  0  0  0  0  0  0
   18.5095  -11.3552  -27.4196 O   0  0  0  0  0  0  0  0  0  0  0  0
   18.3959  -12.5834  -24.6559 H   0  0  0  0  0  0  0  0  0  0  0  0
  1  2  1  0  0  0
  1  6  2  0  0  0
  1 10  1  0  0  0
  2  3  1  0  0  0
  2  7  1  0  0  0
  3  4  1  0  0  0
  3  8  1  0  0  0
  4  5  1  0  0  0
  4  9  1  0  0  0
  5 14  1  0  0  0
  5 10  1  0  0  0
 14 15  1  0  0  0
 14 16  2  0  0  0
  7 11  1  0  0  0
  8 12  1  0  0  0
  9 13  1  0  0  0
 15 17  1  0  0  0
M  END
> <minimizedAffinity>
-6.95897

$$$$
6D50_GCB_A_903


 17 17  0  0  0  0  0  0  0  0999 V2000
   18.8694  -10.5457  -26.3589 C   0  0  0  0  0  0  0  0  0  0  0  0
   18.8177  -10.3076  -24.8040 C   0  0  0  0  0  0  0  0  0  0  0  0
   18.4624   -8.9645  -24.4177 C   0  0  0  0  0  0  0  0  0  0  0  0
   19.3649   -7.9784  -25.0000 C   0  0  0  0  0  0  0  0  0  0  0  0
   19.2650   -8.0709  -26.4931 C   0  0  0  0  0  0  0  0  0  0  0  0
   18.4406  -11.4913  -26.9318 O   0  0  0  0  0  0  0  0  0  0  0  0
   17.8420  -11.2185  -24.2033 O   0  0  0  0  0  0  0  0  0  0  0  0
   18.5077   -8.8001  -22.9660 O   0  0  0  0  0  0  0  0  0  0  0  0
   19.0832   -6.6783  -24.6827 O   0  0  0  0  0  0  0  0  0  0  0  0
   19.5369   -9.4237  -27.0727 O   0  0  0  0  0  0  0  0  0  0  0  0
   16.9580  -11.0194  -24.5495 H   0  0  0  0  0  0  0  0  0  0  0  0
   19.4138   -8.9462  -22.6521 H   0  0  0  0  0  0  0  0  0  0  0  0
   18.2089   -6.4427  -25.0305 H   0  0  0  0  0  0  0  0  0  0  0  0
   20.2140   -7.1530  -27.1738 C   0  0  0  0  0  0  0  0  0  0  0  0
   19.9174   -6.7521  -28.3207 O   0  0  0  0  0  0  0  0  0  0  0  0
   21.2845   -6.8022  -26.6214 O   0  0  0  0  0  0  0  0  0  0  0  0
   19.1138   -7.0237  -28.7187 H   0  0  0  0  0  0  0  0  0  0  0  0
  1  2  1  0  0  0
  1  6  2  0  0  0
  1 10  1  0  0  0
  2  3  1  0  0  0
  2  7  1  0  0  0
  3  4  1  0  0  0
  3  8  1  0  0  0
  4  5  1  0  0  0
  4  9  1  0  0  0
  5 14  1  0  0  0
  5 10  1  0  0  0
 14 15  1  0  0  0
 14 16  2  0  0  0
  7 11  1  0  0  0
  8 12  1  0  0  0
  9 13  1  0  0  0
 15 17  1  0  0  0
M  END
> <minimizedAffinity>
-6.91302

$$$$
6D50_GCB_A_903


 17 17  0  0  0  0  0  0  0  0999 V2000
   19.1901   -7.6437  -26.1582 C   0  0  0  0  0  0  0  0  0  0  0  0
   19.7391   -9.0989  -26.3988 C   0  0  0  0  0  0  0  0  0  0  0  0
   18.8736  -10.1494  -25.9223 C   0  0  0  0  0  0  0  0  0  0  0  0
   18.5777  -10.0028  -24.5021 C   0  0  0  0  0  0  0  0  0  0  0  0
   17.8718   -8.6957  -24.2996 C   0  0  0  0  0  0  0  0  0  0  0  0
   19.2241   -6.7504  -26.9375 O   0  0  0  0  0  0  0  0  0  0  0  0
   19.9509   -9.3096  -27.8317 O   0  0  0  0  0  0  0  0  0  0  0  0
   19.4814  -11.4650  -26.1123 O   0  0  0  0  0  0  0  0  0  0  0  0
   17.7533  -10.9617  -23.9813 O   0  0  0  0  0  0  0  0  0  0  0  0
   18.5994   -7.4879  -24.8015 O   0  0  0  0  0  0  0  0  0  0  0  0
   19.1018   -9.2472  -28.2966 H   0  0  0  0  0  0  0  0  0  0  0  0
   20.2971  -11.5227  -25.5906 H   0  0  0  0  0  0  0  0  0  0  0  0
   16.8875  -10.9145  -24.4160 H   0  0  0  0  0  0  0  0  0  0  0  0
   17.6013   -8.4241  -22.8645 C   0  0  0  0  0  0  0  0  0  0  0  0
   18.4187   -8.8589  -22.0238 O   0  0  0  0  0  0  0  0  0  0  0  0
   16.5790   -7.7908  -22.5068 O   0  0  0  0  0  0  0  0  0  0  0  0
   19.1772   -9.3300  -22.3079 H   0  0  0  0  0  0  0  0  0  0  0  0
  1  2  1  0  0  0
  1  6  2  0  0  0
  1 10  1  0  0  0
  2  3  1  0  0  0
  2  7  1  0  0  0
  3  4  1  0  0  0
  3  8  1  0  0  0
  4  5  1  0  0  0
  4  9  1  0  0  0
  5 14  1  0  0  0
  5 10  1  0  0  0
 14 15  1  0  0  0
 14 16  2  0  0  0
  7 11  1  0  0  0
  8 12  1  0  0  0
  9 13  1  0  0  0
 15 17  1  0  0  0
M  END
> <minimizedAffinity>
-6.80510

$$$$
6D50_GCB_A_903


 17 17  0  0  0  0  0  0  0  0999 V2000
   20.1100   -8.6938  -27.1514 C   0  0  0  0  0  0  0  0  0  0  0  0
   20.9349   -7.8324  -26.1246 C   0  0  0  0  0  0  0  0  0  0  0  0
   21.1244   -8.4567  -24.8386 C   0  0  0  0  0  0  0  0  0  0  0  0
   19.8537   -8.8121  -24.2182 C   0  0  0  0  0  0  0  0  0  0  0  0
   19.1519   -9.7931  -25.1086 C   0  0  0  0  0  0  0  0  0  0  0  0
   20.3653   -8.8384  -28.3004 O   0  0  0  0  0  0  0  0  0  0  0  0
   22.2577   -7.5446  -26.6812 O   0  0  0  0  0  0  0  0  0  0  0  0
   21.8319   -7.5699  -23.9170 O   0  0  0  0  0  0  0  0  0  0  0  0
   19.9562   -9.4176  -22.9963 O   0  0  0  0  0  0  0  0  0  0  0  0
   18.9281   -9.3372  -26.5165 O   0  0  0  0  0  0  0  0  0  0  0  0
   22.7429   -8.3750  -26.8078 H   0  0  0  0  0  0  0  0  0  0  0  0
   21.2993   -6.7743  -23.7609 H   0  0  0  0  0  0  0  0  0  0  0  0
   20.4243  -10.2618  -23.0920 H   0  0  0  0  0  0  0  0  0  0  0  0
   17.8060  -10.1516  -24.5923 C   0  0  0  0  0  0  0  0  0  0  0  0
   17.7054  -11.1815  -23.8900 O   0  0  0  0  0  0  0  0  0  0  0  0
   16.8008   -9.4514  -24.8632 O   0  0  0  0  0  0  0  0  0  0  0  0
   18.4662  -11.6932  -23.6971 H   0  0  0  0  0  0  0  0  0  0  0  0
  1  2  1  0  0  0
  1  6  2  0  0  0
  1 10  1  0  0  0
  2  3  1  0  0  0
  2  7  1  0  0  0
  3  4  1  0  0  0
  3  8  1  0  0  0
  4  5  1  0  0  0
  4  9  1  0  0  0
  5 14  1  0  0  0
  5 10  1  0  0  0
 14 15  1  0  0  0
 14 16  2  0  0  0
  7 11  1  0  0  0
  8 12  1  0  0  0
  9 13  1  0  0  0
 15 17  1  0  0  0
M  END
> <minimizedAffinity>
-6.77587

$$$$
6D50_GCB_A_903


 17 17  0  0  0  0  0  0  0  0999 V2000
   16.7051   -9.0527  -24.1628 C   0  0  0  0  0  0  0  0  0  0  0  0
   17.9268   -8.0734  -24.0038 C   0  0  0  0  0  0  0  0  0  0  0  0
   18.8359   -8.0670  -25.1232 C   0  0  0  0  0  0  0  0  0  0  0  0
   19.3541   -9.4002  -25.4058 C   0  0  0  0  0  0  0  0  0  0  0  0
   18.1998  -10.2913  -25.7537 C   0  0  0  0  0  0  0  0  0  0  0  0
   15.5793   -8.8110  -23.8795 O   0  0  0  0  0  0  0  0  0  0  0  0
   17.4358   -6.7070  -23.8188 O   0  0  0  0  0  0  0  0  0  0  0  0
   19.9805   -7.1932  -24.8726 O   0  0  0  0  0  0  0  0  0  0  0  0
   20.2188   -9.4723  -26.4629 O   0  0  0  0  0  0  0  0  0  0  0  0
   17.1144  -10.3677  -24.7261 O   0  0  0  0  0  0  0  0  0  0  0  0
   16.9507   -6.4277  -24.6110 H   0  0  0  0  0  0  0  0  0  0  0  0
   20.4822   -7.5275  -24.1127 H   0  0  0  0  0  0  0  0  0  0  0  0
   19.7575   -9.2137  -27.2761 H   0  0  0  0  0  0  0  0  0  0  0  0
   18.6273  -11.6958  -25.9798 C   0  0  0  0  0  0  0  0  0  0  0  0
   17.7535  -12.5254  -26.3150 O   0  0  0  0  0  0  0  0  0  0  0  0
   19.8237  -12.0411  -25.8264 O   0  0  0  0  0  0  0  0  0  0  0  0
   16.8645  -12.2507  -26.4252 H   0  0  0  0  0  0  0  0  0  0  0  0
  1  2  1  0  0  0
  1  6  2  0  0  0
  1 10  1  0  0  0
  2  3  1  0  0  0
  2  7  1  0  0  0
  3  4  1  0  0  0
  3  8  1  0  0  0
  4  5  1  0  0  0
  4  9  1  0  0  0
  5 14  1  0  0  0
  5 10  1  0  0  0
 14 15  1  0  0  0
 14 16  2  0  0  0
  7 11  1  0  0  0
  8 12  1  0  0  0
  9 13  1  0  0  0
 15 17  1  0  0  0
M  END
> <minimizedAffinity>
-6.52968

$$$$
