1RO6_ROL_A_601


 21 23  0  0  0  0  0  0  0  0999 V2000
   32.0251   75.5934   22.3844 C   0  0  0  0  0  0  0  0  0  0  0  0
   32.0997   76.1184   21.0911 C   0  0  0  0  0  0  0  0  0  0  0  0
   31.9023   77.5026   20.8159 C   0  0  0  0  0  0  0  0  0  0  0  0
   31.6636   78.3886   21.8808 C   0  0  0  0  0  0  0  0  0  0  0  0
   31.5673   77.8597   23.1834 C   0  0  0  0  0  0  0  0  0  0  0  0
   31.7314   76.4829   23.4381 C   0  0  0  0  0  0  0  0  0  0  0  0
   32.2445   74.0981   22.5686 C   0  0  0  0  0  0  0  0  0  0  0  0
   32.7971   73.3151   21.3548 C   0  0  0  0  0  0  0  0  0  0  0  0
   34.0097   72.5651   21.9298 C   0  0  0  0  0  0  0  0  0  0  0  0
   34.8409   71.9598   21.2555 O   0  0  0  0  0  0  0  0  0  0  0  0
   34.0316   72.6909   23.2673 N   0  0  0  0  0  0  0  0  0  0  0  0
   33.2044   73.8014   23.7151 C   0  0  0  0  0  0  0  0  0  0  0  0
   34.5437   72.1044   23.8698 H   0  0  0  0  0  0  0  0  0  0  0  0
   31.5349   79.7338   21.5371 O   0  0  0  0  0  0  0  0  0  0  0  0
   31.5724   80.7311   22.5527 C   0  0  0  0  0  0  0  0  0  0  0  0
   31.9177   78.0917   19.5454 O   0  0  0  0  0  0  0  0  0  0  0  0
   32.2273   77.2949   18.3948 C   0  0  0  0  0  0  0  0  0  0  0  0
   32.9281   78.1547   17.3429 C   0  0  0  0  0  0  0  0  0  0  0  0
   31.7907   78.9891   16.7666 C   0  0  0  0  0  0  0  0  0  0  0  0
   30.5842   78.0559   16.7611 C   0  0  0  0  0  0  0  0  0  0  0  0
   30.9209   76.9016   17.6988 C   0  0  0  0  0  0  0  0  0  0  0  0
  1  2  2  0  0  0
  1  6  1  0  0  0
  1  7  1  0  0  0
  2  3  1  0  0  0
  3  4  2  0  0  0
  3 16  1  0  0  0
  4  5  1  0  0  0
  4 14  1  0  0  0
  5  6  2  0  0  0
  7  8  1  0  0  0
  7 12  1  0  0  0
  8  9  1  0  0  0
  9 10  2  0  0  0
  9 11  1  0  0  0
 11 12  1  0  0  0
 16 17  1  0  0  0
 17 18  1  0  0  0
 17 21  1  0  0  0
 18 19  1  0  0  0
 19 20  1  0  0  0
 20 21  1  0  0  0
 14 15  1  0  0  0
 11 13  1  0  0  0
M  END
> <minimizedAffinity>
-8.26101

$$$$
1RO6_ROL_A_601


 21 23  0  0  0  0  0  0  0  0999 V2000
   32.0602   76.8989   20.0100 C   0  0  0  0  0  0  0  0  0  0  0  0
   32.1876   75.7196   20.7493 C   0  0  0  0  0  0  0  0  0  0  0  0
   32.0280   75.6843   22.1649 C   0  0  0  0  0  0  0  0  0  0  0  0
   31.6897   76.8648   22.8489 C   0  0  0  0  0  0  0  0  0  0  0  0
   31.5808   78.0594   22.1094 C   0  0  0  0  0  0  0  0  0  0  0  0
   31.7742   78.0870   20.7133 C   0  0  0  0  0  0  0  0  0  0  0  0
   32.2579   76.8288   18.5020 C   0  0  0  0  0  0  0  0  0  0  0  0
   31.0080   76.5235   17.6439 C   0  0  0  0  0  0  0  0  0  0  0  0
   31.0013   77.6522   16.6001 C   0  0  0  0  0  0  0  0  0  0  0  0
   30.0725   77.8850   15.8288 O   0  0  0  0  0  0  0  0  0  0  0  0
   32.1469   78.3503   16.6759 N   0  0  0  0  0  0  0  0  0  0  0  0
   32.8281   78.1270   17.9424 C   0  0  0  0  0  0  0  0  0  0  0  0
   32.4837   78.9398   15.9629 H   0  0  0  0  0  0  0  0  0  0  0  0
   31.4976   76.7387   24.2242 O   0  0  0  0  0  0  0  0  0  0  0  0
   30.1789   76.6166   24.7470 C   0  0  0  0  0  0  0  0  0  0  0  0
   32.1841   74.5525   22.9752 O   0  0  0  0  0  0  0  0  0  0  0  0
   33.4994   74.1064   23.3293 C   0  0  0  0  0  0  0  0  0  0  0  0
   34.0658   73.2277   22.2140 C   0  0  0  0  0  0  0  0  0  0  0  0
   33.3058   71.9183   22.3875 C   0  0  0  0  0  0  0  0  0  0  0  0
   33.1333   71.7625   23.8949 C   0  0  0  0  0  0  0  0  0  0  0  0
   33.3919   73.1344   24.5081 C   0  0  0  0  0  0  0  0  0  0  0  0
  1  2  2  0  0  0
  1  6  1  0  0  0
  1  7  1  0  0  0
  2  3  1  0  0  0
  3  4  2  0  0  0
  3 16  1  0  0  0
  4  5  1  0  0  0
  4 14  1  0  0  0
  5  6  2  0  0  0
  7  8  1  0  0  0
  7 12  1  0  0  0
  8  9  1  0  0  0
  9 10  2  0  0  0
  9 11  1  0  0  0
 11 12  1  0  0  0
 16 17  1  0  0  0
 17 18  1  0  0  0
 17 21  1  0  0  0
 18 19  1  0  0  0
 19 20  1  0  0  0
 20 21  1  0  0  0
 14 15  1  0  0  0
 11 13  1  0  0  0
M  END
> <minimizedAffinity>
-8.22888

$$$$
1RO6_ROL_A_601


 21 23  0  0  0  0  0  0  0  0999 V2000
   31.8889   76.8643   19.4579 C   0  0  0  0  0  0  0  0  0  0  0  0
   32.2661   75.7008   20.1346 C   0  0  0  0  0  0  0  0  0  0  0  0
   32.3631   75.6405   21.5550 C   0  0  0  0  0  0  0  0  0  0  0  0
   32.0304   76.7744   22.3162 C   0  0  0  0  0  0  0  0  0  0  0  0
   31.6698   77.9550   21.6366 C   0  0  0  0  0  0  0  0  0  0  0  0
   31.6101   78.0111   20.2292 C   0  0  0  0  0  0  0  0  0  0  0  0
   31.8238   76.8243   17.9374 C   0  0  0  0  0  0  0  0  0  0  0  0
   30.8784   75.7777   17.3027 C   0  0  0  0  0  0  0  0  0  0  0  0
   30.0178   76.6069   16.3357 C   0  0  0  0  0  0  0  0  0  0  0  0
   29.0175   76.1881   15.7561 O   0  0  0  0  0  0  0  0  0  0  0  0
   30.5110   77.8531   16.2402 N   0  0  0  0  0  0  0  0  0  0  0  0
   31.3977   78.1655   17.3512 C   0  0  0  0  0  0  0  0  0  0  0  0
   30.2988   78.4776   15.5093 H   0  0  0  0  0  0  0  0  0  0  0  0
   32.0980   76.6206   23.7004 O   0  0  0  0  0  0  0  0  0  0  0  0
   30.9147   76.3389   24.4404 C   0  0  0  0  0  0  0  0  0  0  0  0
   32.7759   74.5270   22.2976 O   0  0  0  0  0  0  0  0  0  0  0  0
   31.9101   73.3910   22.4184 C   0  0  0  0  0  0  0  0  0  0  0  0
   32.0388   72.7884   23.8174 C   0  0  0  0  0  0  0  0  0  0  0  0
   33.3818   72.0705   23.7610 C   0  0  0  0  0  0  0  0  0  0  0  0
   33.4720   71.5195   22.3416 C   0  0  0  0  0  0  0  0  0  0  0  0
   32.4341   72.2709   21.5148 C   0  0  0  0  0  0  0  0  0  0  0  0
  1  2  2  0  0  0
  1  6  1  0  0  0
  1  7  1  0  0  0
  2  3  1  0  0  0
  3  4  2  0  0  0
  3 16  1  0  0  0
  4  5  1  0  0  0
  4 14  1  0  0  0
  5  6  2  0  0  0
  7  8  1  0  0  0
  7 12  1  0  0  0
  8  9  1  0  0  0
  9 10  2  0  0  0
  9 11  1  0  0  0
 11 12  1  0  0  0
 16 17  1  0  0  0
 17 18  1  0  0  0
 17 21  1  0  0  0
 18 19  1  0  0  0
 19 20  1  0  0  0
 20 21  1  0  0  0
 14 15  1  0  0  0
 11 13  1  0  0  0
M  END
> <minimizedAffinity>
-7.49239

$$$$
1RO6_ROL_A_601


 21 23  0  0  0  0  0  0  0  0999 V2000
   31.3430   76.5253   18.0527 C   0  0  0  0  0  0  0  0  0  0  0  0
   31.9172   75.3795   18.6108 C   0  0  0  0  0  0  0  0  0  0  0  0
   32.3446   75.3232   19.9690 C   0  0  0  0  0  0  0  0  0  0  0  0
   32.1496   76.4411   20.7987 C   0  0  0  0  0  0  0  0  0  0  0  0
   31.5900   77.6047   20.2340 C   0  0  0  0  0  0  0  0  0  0  0  0
   31.2020   77.6584   18.8798 C   0  0  0  0  0  0  0  0  0  0  0  0
   30.9275   76.4828   16.5887 C   0  0  0  0  0  0  0  0  0  0  0  0
   29.8990   75.4017   16.1821 C   0  0  0  0  0  0  0  0  0  0  0  0
   28.8077   76.1983   15.4487 C   0  0  0  0  0  0  0  0  0  0  0  0
   27.7159   75.7427   15.1138 O   0  0  0  0  0  0  0  0  0  0  0  0
   29.2198   77.4620   15.2519 N   0  0  0  0  0  0  0  0  0  0  0  0
   30.3287   77.8072   16.1291 C   0  0  0  0  0  0  0  0  0  0  0  0
   28.8211   78.0781   14.5957 H   0  0  0  0  0  0  0  0  0  0  0  0
   32.5441   76.2901   22.1275 O   0  0  0  0  0  0  0  0  0  0  0  0
   32.7190   77.4395   22.9494 C   0  0  0  0  0  0  0  0  0  0  0  0
   32.9666   74.2291   20.5835 O   0  0  0  0  0  0  0  0  0  0  0  0
   32.3503   72.9361   20.5279 C   0  0  0  0  0  0  0  0  0  0  0  0
   31.2353   72.8488   21.5700 C   0  0  0  0  0  0  0  0  0  0  0  0
   31.9992   72.7021   22.8804 C   0  0  0  0  0  0  0  0  0  0  0  0
   33.2134   71.8472   22.5322 C   0  0  0  0  0  0  0  0  0  0  0  0
   33.3549   71.8874   21.0144 C   0  0  0  0  0  0  0  0  0  0  0  0
  1  2  2  0  0  0
  1  6  1  0  0  0
  1  7  1  0  0  0
  2  3  1  0  0  0
  3  4  2  0  0  0
  3 16  1  0  0  0
  4  5  1  0  0  0
  4 14  1  0  0  0
  5  6  2  0  0  0
  7  8  1  0  0  0
  7 12  1  0  0  0
  8  9  1  0  0  0
  9 10  2  0  0  0
  9 11  1  0  0  0
 11 12  1  0  0  0
 16 17  1  0  0  0
 17 18  1  0  0  0
 17 21  1  0  0  0
 18 19  1  0  0  0
 19 20  1  0  0  0
 20 21  1  0  0  0
 14 15  1  0  0  0
 11 13  1  0  0  0
M  END
> <minimizedAffinity>
-7.37762

$$$$
1RO6_ROL_A_601


 21 23  0  0  0  0  0  0  0  0999 V2000
   31.9711   76.5690   20.9134 C   0  0  0  0  0  0  0  0  0  0  0  0
   31.9792   75.3262   20.2738 C   0  0  0  0  0  0  0  0  0  0  0  0
   31.7201   75.1826   18.8799 C   0  0  0  0  0  0  0  0  0  0  0  0
   31.4866   76.3297   18.1017 C   0  0  0  0  0  0  0  0  0  0  0  0
   31.4573   77.5822   18.7469 C   0  0  0  0  0  0  0  0  0  0  0  0
   31.6822   77.7071   20.1330 C   0  0  0  0  0  0  0  0  0  0  0  0
   32.2532   76.6113   22.4089 C   0  0  0  0  0  0  0  0  0  0  0  0
   31.3126   77.4803   23.2762 C   0  0  0  0  0  0  0  0  0  0  0  0
   30.8569   76.5212   24.3879 C   0  0  0  0  0  0  0  0  0  0  0  0
   29.9604   76.7620   25.1942 O   0  0  0  0  0  0  0  0  0  0  0  0
   31.5682   75.3829   24.3282 N   0  0  0  0  0  0  0  0  0  0  0  0
   32.2145   75.2216   23.0343 C   0  0  0  0  0  0  0  0  0  0  0  0
   31.6428   74.7377   25.0681 H   0  0  0  0  0  0  0  0  0  0  0  0
   31.2950   76.1123   16.7378 O   0  0  0  0  0  0  0  0  0  0  0  0
   30.0354   76.4080   16.1435 C   0  0  0  0  0  0  0  0  0  0  0  0
   31.6675   73.9701   18.1808 O   0  0  0  0  0  0  0  0  0  0  0  0
   30.7168   72.9680   18.5640 C   0  0  0  0  0  0  0  0  0  0  0  0
   31.2965   71.5778   18.3032 C   0  0  0  0  0  0  0  0  0  0  0  0
   31.2004   71.4431   16.7884 C   0  0  0  0  0  0  0  0  0  0  0  0
   29.9041   72.1540   16.4135 C   0  0  0  0  0  0  0  0  0  0  0  0
   29.5235   73.0254   17.6055 C   0  0  0  0  0  0  0  0  0  0  0  0
  1  2  2  0  0  0
  1  6  1  0  0  0
  1  7  1  0  0  0
  2  3  1  0  0  0
  3  4  2  0  0  0
  3 16  1  0  0  0
  4  5  1  0  0  0
  4 14  1  0  0  0
  5  6  2  0  0  0
  7  8  1  0  0  0
  7 12  1  0  0  0
  8  9  1  0  0  0
  9 10  2  0  0  0
  9 11  1  0  0  0
 11 12  1  0  0  0
 16 17  1  0  0  0
 17 18  1  0  0  0
 17 21  1  0  0  0
 18 19  1  0  0  0
 19 20  1  0  0  0
 20 21  1  0  0  0
 14 15  1  0  0  0
 11 13  1  0  0  0
M  END
> <minimizedAffinity>
-7.30885

$$$$
1RO6_ROL_A_601


 21 23  0  0  0  0  0  0  0  0999 V2000
   32.0476   76.3271   20.4388 C   0  0  0  0  0  0  0  0  0  0  0  0
   32.5903   75.0481   20.2856 C   0  0  0  0  0  0  0  0  0  0  0  0
   33.1774   74.3324   21.3690 C   0  0  0  0  0  0  0  0  0  0  0  0
   33.1798   74.9066   22.6520 C   0  0  0  0  0  0  0  0  0  0  0  0
   32.6522   76.2042   22.8061 C   0  0  0  0  0  0  0  0  0  0  0  0
   32.1044   76.9153   21.7190 C   0  0  0  0  0  0  0  0  0  0  0  0
   31.4511   77.0080   19.2147 C   0  0  0  0  0  0  0  0  0  0  0  0
   32.2954   78.1195   18.5488 C   0  0  0  0  0  0  0  0  0  0  0  0
   32.3452   77.6994   17.0708 C   0  0  0  0  0  0  0  0  0  0  0  0
   33.0666   78.2181   16.2209 O   0  0  0  0  0  0  0  0  0  0  0  0
   31.5029   76.6741   16.8593 N   0  0  0  0  0  0  0  0  0  0  0  0
   31.1423   76.0110   18.1037 C   0  0  0  0  0  0  0  0  0  0  0  0
   31.1708   76.4048   15.9725 H   0  0  0  0  0  0  0  0  0  0  0  0
   33.7228   74.1229   23.6695 O   0  0  0  0  0  0  0  0  0  0  0  0
   32.8777   73.6027   24.6905 C   0  0  0  0  0  0  0  0  0  0  0  0
   33.7787   73.0705   21.2821 O   0  0  0  0  0  0  0  0  0  0  0  0
   34.2014   72.5694   20.0074 C   0  0  0  0  0  0  0  0  0  0  0  0
   33.5052   71.2398   19.7170 C   0  0  0  0  0  0  0  0  0  0  0  0
   34.2410   70.2605   20.6235 C   0  0  0  0  0  0  0  0  0  0  0  0
   35.6897   70.7375   20.6212 C   0  0  0  0  0  0  0  0  0  0  0  0
   35.6771   72.1695   20.0971 C   0  0  0  0  0  0  0  0  0  0  0  0
  1  2  2  0  0  0
  1  6  1  0  0  0
  1  7  1  0  0  0
  2  3  1  0  0  0
  3  4  2  0  0  0
  3 16  1  0  0  0
  4  5  1  0  0  0
  4 14  1  0  0  0
  5  6  2  0  0  0
  7  8  1  0  0  0
  7 12  1  0  0  0
  8  9  1  0  0  0
  9 10  2  0  0  0
  9 11  1  0  0  0
 11 12  1  0  0  0
 16 17  1  0  0  0
 17 18  1  0  0  0
 17 21  1  0  0  0
 18 19  1  0  0  0
 19 20  1  0  0  0
 20 21  1  0  0  0
 14 15  1  0  0  0
 11 13  1  0  0  0
M  END
> <minimizedAffinity>
-7.24815

$$$$
1RO6_ROL_A_601


 21 23  0  0  0  0  0  0  0  0999 V2000
   33.7552   71.5719   22.4166 C   0  0  0  0  0  0  0  0  0  0  0  0
   33.6582   72.6786   21.5683 C   0  0  0  0  0  0  0  0  0  0  0  0
   33.2759   73.9690   22.0366 C   0  0  0  0  0  0  0  0  0  0  0  0
   33.0243   74.1571   23.4067 C   0  0  0  0  0  0  0  0  0  0  0  0
   33.1011   73.0393   24.2614 C   0  0  0  0  0  0  0  0  0  0  0  0
   33.4479   71.7606   23.7796 C   0  0  0  0  0  0  0  0  0  0  0  0
   34.1648   70.2354   21.8132 C   0  0  0  0  0  0  0  0  0  0  0  0
   35.6774   69.9154   21.7781 C   0  0  0  0  0  0  0  0  0  0  0  0
   35.7693   68.5291   22.4361 C   0  0  0  0  0  0  0  0  0  0  0  0
   36.8190   67.9808   22.7667 O   0  0  0  0  0  0  0  0  0  0  0  0
   34.5363   68.0248   22.6114 N   0  0  0  0  0  0  0  0  0  0  0  0
   33.5176   69.0617   22.5394 C   0  0  0  0  0  0  0  0  0  0  0  0
   34.3456   67.0719   22.7691 H   0  0  0  0  0  0  0  0  0  0  0  0
   32.7089   75.4585   23.7954 O   0  0  0  0  0  0  0  0  0  0  0  0
   31.4082   75.7532   24.2942 C   0  0  0  0  0  0  0  0  0  0  0  0
   33.1146   75.1105   21.2411 O   0  0  0  0  0  0  0  0  0  0  0  0
   31.8071   75.4826   20.7866 C   0  0  0  0  0  0  0  0  0  0  0  0
   31.6127   75.0273   19.3403 C   0  0  0  0  0  0  0  0  0  0  0  0
   32.4439   76.0299   18.5489 C   0  0  0  0  0  0  0  0  0  0  0  0
   32.2741   77.3516   19.2911 C   0  0  0  0  0  0  0  0  0  0  0  0
   31.7369   77.0086   20.6763 C   0  0  0  0  0  0  0  0  0  0  0  0
  1  2  2  0  0  0
  1  6  1  0  0  0
  1  7  1  0  0  0
  2  3  1  0  0  0
  3  4  2  0  0  0
  3 16  1  0  0  0
  4  5  1  0  0  0
  4 14  1  0  0  0
  5  6  2  0  0  0
  7  8  1  0  0  0
  7 12  1  0  0  0
  8  9  1  0  0  0
  9 10  2  0  0  0
  9 11  1  0  0  0
 11 12  1  0  0  0
 16 17  1  0  0  0
 17 18  1  0  0  0
 17 21  1  0  0  0
 18 19  1  0  0  0
 19 20  1  0  0  0
 20 21  1  0  0  0
 14 15  1  0  0  0
 11 13  1  0  0  0
M  END
> <minimizedAffinity>
-6.87548

$$$$
1RO6_ROL_A_601


 21 23  0  0  0  0  0  0  0  0999 V2000
   33.0413   73.4252   21.7248 C   0  0  0  0  0  0  0  0  0  0  0  0
   32.4364   74.0497   20.6303 C   0  0  0  0  0  0  0  0  0  0  0  0
   32.1272   75.4407   20.6191 C   0  0  0  0  0  0  0  0  0  0  0  0
   32.4756   76.2320   21.7274 C   0  0  0  0  0  0  0  0  0  0  0  0
   33.0668   75.6020   22.8407 C   0  0  0  0  0  0  0  0  0  0  0  0
   33.3369   74.2185   22.8523 C   0  0  0  0  0  0  0  0  0  0  0  0
   33.3220   71.9314   21.6374 C   0  0  0  0  0  0  0  0  0  0  0  0
   34.4337   71.4823   20.6606 C   0  0  0  0  0  0  0  0  0  0  0  0
   35.3465   70.6032   21.5309 C   0  0  0  0  0  0  0  0  0  0  0  0
   36.4505   70.1861   21.1859 O   0  0  0  0  0  0  0  0  0  0  0  0
   34.7658   70.3821   22.7223 N   0  0  0  0  0  0  0  0  0  0  0  0
   33.7086   71.3456   22.9906 C   0  0  0  0  0  0  0  0  0  0  0  0
   35.0236   69.6579   23.3374 H   0  0  0  0  0  0  0  0  0  0  0  0
   32.1897   77.5924   21.6190 O   0  0  0  0  0  0  0  0  0  0  0  0
   31.6248   78.2879   22.7256 C   0  0  0  0  0  0  0  0  0  0  0  0
   31.4835   76.1247   19.5801 O   0  0  0  0  0  0  0  0  0  0  0  0
   32.1543   76.3104   18.3270 C   0  0  0  0  0  0  0  0  0  0  0  0
   32.1282   77.7891   17.9401 C   0  0  0  0  0  0  0  0  0  0  0  0
   30.6897   78.0004   17.4838 C   0  0  0  0  0  0  0  0  0  0  0  0
   30.3055   76.7002   16.7850 C   0  0  0  0  0  0  0  0  0  0  0  0
   31.3253   75.6532   17.2194 C   0  0  0  0  0  0  0  0  0  0  0  0
  1  2  2  0  0  0
  1  6  1  0  0  0
  1  7  1  0  0  0
  2  3  1  0  0  0
  3  4  2  0  0  0
  3 16  1  0  0  0
  4  5  1  0  0  0
  4 14  1  0  0  0
  5  6  2  0  0  0
  7  8  1  0  0  0
  7 12  1  0  0  0
  8  9  1  0  0  0
  9 10  2  0  0  0
  9 11  1  0  0  0
 11 12  1  0  0  0
 16 17  1  0  0  0
 17 18  1  0  0  0
 17 21  1  0  0  0
 18 19  1  0  0  0
 19 20  1  0  0  0
 20 21  1  0  0  0
 14 15  1  0  0  0
 11 13  1  0  0  0
M  END
> <minimizedAffinity>
-6.86748

$$$$
1RO6_ROL_A_601


 21 23  0  0  0  0  0  0  0  0999 V2000
   32.3374   75.7114   21.2163 C   0  0  0  0  0  0  0  0  0  0  0  0
   32.7095   74.4051   20.8865 C   0  0  0  0  0  0  0  0  0  0  0  0
   32.6380   73.9035   19.5545 C   0  0  0  0  0  0  0  0  0  0  0  0
   32.2182   74.7570   18.5195 C   0  0  0  0  0  0  0  0  0  0  0  0
   31.8227   76.0681   18.8515 C   0  0  0  0  0  0  0  0  0  0  0  0
   31.8664   76.5417   20.1786 C   0  0  0  0  0  0  0  0  0  0  0  0
   32.4448   76.1454   22.6716 C   0  0  0  0  0  0  0  0  0  0  0  0
   31.3862   77.1496   23.1844 C   0  0  0  0  0  0  0  0  0  0  0  0
   30.8339   76.4772   24.4518 C   0  0  0  0  0  0  0  0  0  0  0  0
   29.8442   76.8618   25.0720 O   0  0  0  0  0  0  0  0  0  0  0  0
   31.5799   75.4032   24.7604 N   0  0  0  0  0  0  0  0  0  0  0  0
   32.3748   74.9583   23.6254 C   0  0  0  0  0  0  0  0  0  0  0  0
   31.5878   74.9707   25.6448 H   0  0  0  0  0  0  0  0  0  0  0  0
   32.2265   74.2096   17.2371 O   0  0  0  0  0  0  0  0  0  0  0  0
   31.0394   74.2286   16.4511 C   0  0  0  0  0  0  0  0  0  0  0  0
   32.9503   72.5973   19.1572 O   0  0  0  0  0  0  0  0  0  0  0  0
   34.3113   72.1486   19.1923 C   0  0  0  0  0  0  0  0  0  0  0  0
   34.5256   71.0622   18.1384 C   0  0  0  0  0  0  0  0  0  0  0  0
   33.8482   69.8449   18.7559 C   0  0  0  0  0  0  0  0  0  0  0  0
   34.1240   69.9598   20.2516 C   0  0  0  0  0  0  0  0  0  0  0  0
   34.5523   71.4009   20.5071 C   0  0  0  0  0  0  0  0  0  0  0  0
  1  2  2  0  0  0
  1  6  1  0  0  0
  1  7  1  0  0  0
  2  3  1  0  0  0
  3  4  2  0  0  0
  3 16  1  0  0  0
  4  5  1  0  0  0
  4 14  1  0  0  0
  5  6  2  0  0  0
  7  8  1  0  0  0
  7 12  1  0  0  0
  8  9  1  0  0  0
  9 10  2  0  0  0
  9 11  1  0  0  0
 11 12  1  0  0  0
 16 17  1  0  0  0
 17 18  1  0  0  0
 17 21  1  0  0  0
 18 19  1  0  0  0
 19 20  1  0  0  0
 20 21  1  0  0  0
 14 15  1  0  0  0
 11 13  1  0  0  0
M  END
> <minimizedAffinity>
-6.82405

$$$$
1RO6_ROL_A_601


 21 23  0  0  0  0  0  0  0  0999 V2000
   32.3735   76.0005   21.1785 C   0  0  0  0  0  0  0  0  0  0  0  0
   32.1580   75.0065   20.2198 C   0  0  0  0  0  0  0  0  0  0  0  0
   31.5448   75.2778   18.9624 C   0  0  0  0  0  0  0  0  0  0  0  0
   31.1760   76.5971   18.6471 C   0  0  0  0  0  0  0  0  0  0  0  0
   31.3729   77.5980   19.6193 C   0  0  0  0  0  0  0  0  0  0  0  0
   31.9501   77.3102   20.8729 C   0  0  0  0  0  0  0  0  0  0  0  0
   33.0299   75.6030   22.4934 C   0  0  0  0  0  0  0  0  0  0  0  0
   32.0895   75.2107   23.6569 C   0  0  0  0  0  0  0  0  0  0  0  0
   32.6268   73.8439   24.1112 C   0  0  0  0  0  0  0  0  0  0  0  0
   32.0555   73.0967   24.9030 O   0  0  0  0  0  0  0  0  0  0  0  0
   33.7945   73.5863   23.4984 N   0  0  0  0  0  0  0  0  0  0  0  0
   33.9782   74.4220   22.3212 C   0  0  0  0  0  0  0  0  0  0  0  0
   34.4452   72.9152   23.8075 H   0  0  0  0  0  0  0  0  0  0  0  0
   30.6321   76.7911   17.3780 O   0  0  0  0  0  0  0  0  0  0  0  0
   30.7619   78.0562   16.7376 C   0  0  0  0  0  0  0  0  0  0  0  0
   31.2570   74.3285   17.9737 O   0  0  0  0  0  0  0  0  0  0  0  0
   30.2881   73.3039   18.2309 C   0  0  0  0  0  0  0  0  0  0  0  0
   30.9862   71.9491   18.3487 C   0  0  0  0  0  0  0  0  0  0  0  0
   31.3262   71.6098   16.9025 C   0  0  0  0  0  0  0  0  0  0  0  0
   30.1537   72.1469   16.0882 C   0  0  0  0  0  0  0  0  0  0  0  0
   29.4108   73.1288   16.9878 C   0  0  0  0  0  0  0  0  0  0  0  0
  1  2  2  0  0  0
  1  6  1  0  0  0
  1  7  1  0  0  0
  2  3  1  0  0  0
  3  4  2  0  0  0
  3 16  1  0  0  0
  4  5  1  0  0  0
  4 14  1  0  0  0
  5  6  2  0  0  0
  7  8  1  0  0  0
  7 12  1  0  0  0
  8  9  1  0  0  0
  9 10  2  0  0  0
  9 11  1  0  0  0
 11 12  1  0  0  0
 16 17  1  0  0  0
 17 18  1  0  0  0
 17 21  1  0  0  0
 18 19  1  0  0  0
 19 20  1  0  0  0
 20 21  1  0  0  0
 14 15  1  0  0  0
 11 13  1  0  0  0
M  END
> <minimizedAffinity>
-6.69213

$$$$
