4MR3_1K0_A_202


 26 28  0  0  0  0  0  0  0  0999 V2000
   22.1369   34.2482   17.5600 C   0  0  0  0  0  0  0  0  0  0  0  0
   21.9821   33.5571   18.7724 C   0  0  0  0  0  0  0  0  0  0  0  0
   22.5779   33.9654   19.9161 C   0  0  0  0  0  0  0  0  0  0  0  0
   24.7704   36.8087   21.0408 N   0  0  0  0  0  0  0  0  0  0  0  0
   23.3717   35.1240   19.9573 C   0  0  0  0  0  0  0  0  0  0  0  0
   24.2610   36.9978   18.7096 N   0  0  0  0  0  0  0  0  0  0  0  0
   24.0162   35.6147   21.1407 C   0  0  0  0  0  0  0  0  0  0  0  0
   24.8545   37.4483   19.8421 C   0  0  0  0  0  0  0  0  0  0  0  0
   23.9381   35.0883   22.2705 O   0  0  0  0  0  0  0  0  0  0  0  0
   23.5055   35.8072   18.7129 C   0  0  0  0  0  0  0  0  0  0  0  0
   22.9162   35.3937   17.5301 C   0  0  0  0  0  0  0  0  0  0  0  0
   25.2301   37.1733   21.8314 H   0  0  0  0  0  0  0  0  0  0  0  0
   27.9503   42.0817   19.0772 O   0  0  0  0  0  0  0  0  0  0  0  0
   25.6468   38.6869   19.7764 C   0  0  0  0  0  0  0  0  0  0  0  0
   25.1466   39.9691   20.0876 C   0  0  0  0  0  0  0  0  0  0  0  0
   25.9232   41.0982   19.8630 C   0  0  0  0  0  0  0  0  0  0  0  0
   25.2776   42.4166   20.1475 C   0  0  0  0  0  0  0  0  0  0  0  0
   27.2473   40.9759   19.3625 C   0  0  0  0  0  0  0  0  0  0  0  0
   27.7766   39.7185   19.1068 C   0  0  0  0  0  0  0  0  0  0  0  0
   29.1840   39.6070   18.6007 C   0  0  0  0  0  0  0  0  0  0  0  0
   27.0005   38.5980   19.3006 C   0  0  0  0  0  0  0  0  0  0  0  0
   27.5858   42.9269   19.2529 H   0  0  0  0  0  0  0  0  0  0  0  0
   21.4912   33.7948   16.4375 O   0  0  0  0  0  0  0  0  0  0  0  0
   20.5359   32.7571   16.4949 C   0  0  0  0  0  0  0  0  0  0  0  0
   22.7055   31.8340   21.0828 C   0  0  0  0  0  0  0  0  0  0  0  0
   22.4696   33.2609   21.1093 O   0  0  0  0  0  0  0  0  0  0  0  0
 25 26  1  0  0  0
 26  3  1  0  0  0
  2  3  2  0  0  0
  2  1  1  0  0  0
 23  1  1  0  0  0
 23 24  1  0  0  0
  3  5  1  0  0  0
  1 11  2  0  0  0
  5 10  2  0  0  0
  5  7  1  0  0  0
 11 10  1  0  0  0
  9  7  2  0  0  0
 10  6  1  0  0  0
  7  4  1  0  0  0
  6  8  2  0  0  0
  4  8  1  0  0  0
  8 14  1  0  0  0
 14 15  2  0  0  0
 14 21  1  0  0  0
 15 16  1  0  0  0
 21 19  2  0  0  0
 16 17  1  0  0  0
 16 18  2  0  0  0
 19 18  1  0  0  0
 19 20  1  0  0  0
 18 13  1  0  0  0
  4 12  1  0  0  0
 13 22  1  0  0  0
M  END
> <minimizedAffinity>
-8.04640

$$$$
4MR3_1K0_A_202


 26 28  0  0  0  0  0  0  0  0999 V2000
   21.9247   34.6458   22.4494 C   0  0  0  0  0  0  0  0  0  0  0  0
   21.7502   33.8408   21.3123 C   0  0  0  0  0  0  0  0  0  0  0  0
   22.3016   34.1524   20.1170 C   0  0  0  0  0  0  0  0  0  0  0  0
   24.5242   36.8383   18.7020 N   0  0  0  0  0  0  0  0  0  0  0  0
   23.1025   35.2951   19.9534 C   0  0  0  0  0  0  0  0  0  0  0  0
   24.0930   37.2267   21.0242 N   0  0  0  0  0  0  0  0  0  0  0  0
   23.7252   35.6696   18.7171 C   0  0  0  0  0  0  0  0  0  0  0  0
   24.6791   37.5573   19.8474 C   0  0  0  0  0  0  0  0  0  0  0  0
   23.6471   35.0245   17.6506 O   0  0  0  0  0  0  0  0  0  0  0  0
   23.2660   36.0891   21.1264 C   0  0  0  0  0  0  0  0  0  0  0  0
   22.6953   35.7935   22.3529 C   0  0  0  0  0  0  0  0  0  0  0  0
   24.9640   37.1285   17.8703 H   0  0  0  0  0  0  0  0  0  0  0  0
   27.9442   42.0804   19.1277 O   0  0  0  0  0  0  0  0  0  0  0  0
   25.5171   38.7660   19.7939 C   0  0  0  0  0  0  0  0  0  0  0  0
   25.0665   40.0622   20.1227 C   0  0  0  0  0  0  0  0  0  0  0  0
   25.8842   41.1640   19.9090 C   0  0  0  0  0  0  0  0  0  0  0  0
   25.2895   42.5021   20.2120 C   0  0  0  0  0  0  0  0  0  0  0  0
   27.2011   40.9983   19.4020 C   0  0  0  0  0  0  0  0  0  0  0  0
   27.6820   39.7251   19.1290 C   0  0  0  0  0  0  0  0  0  0  0  0
   29.0826   39.5672   18.6163 C   0  0  0  0  0  0  0  0  0  0  0  0
   26.8650   38.6323   19.3121 C   0  0  0  0  0  0  0  0  0  0  0  0
   27.6124   42.9364   19.3150 H   0  0  0  0  0  0  0  0  0  0  0  0
   21.3555   34.2663   23.6387 O   0  0  0  0  0  0  0  0  0  0  0  0
   21.4198   35.0813   24.7895 C   0  0  0  0  0  0  0  0  0  0  0  0
   22.1468   31.9474   19.0999 C   0  0  0  0  0  0  0  0  0  0  0  0
   22.0945   33.3876   18.9750 O   0  0  0  0  0  0  0  0  0  0  0  0
 25 26  1  0  0  0
 26  3  1  0  0  0
  2  3  2  0  0  0
  2  1  1  0  0  0
 23  1  1  0  0  0
 23 24  1  0  0  0
  3  5  1  0  0  0
  1 11  2  0  0  0
  5 10  2  0  0  0
  5  7  1  0  0  0
 11 10  1  0  0  0
  9  7  2  0  0  0
 10  6  1  0  0  0
  7  4  1  0  0  0
  6  8  2  0  0  0
  4  8  1  0  0  0
  8 14  1  0  0  0
 14 15  2  0  0  0
 14 21  1  0  0  0
 15 16  1  0  0  0
 21 19  2  0  0  0
 16 17  1  0  0  0
 16 18  2  0  0  0
 19 18  1  0  0  0
 19 20  1  0  0  0
 18 13  1  0  0  0
  4 12  1  0  0  0
 13 22  1  0  0  0
M  END
> <minimizedAffinity>
-7.89855

$$$$
4MR3_1K0_A_202


 26 28  0  0  0  0  0  0  0  0999 V2000
   21.6423   35.0855   23.4358 C   0  0  0  0  0  0  0  0  0  0  0  0
   21.4671   34.0382   22.5172 C   0  0  0  0  0  0  0  0  0  0  0  0
   22.0174   34.0633   21.2818 C   0  0  0  0  0  0  0  0  0  0  0  0
   24.2378   36.3470   19.2789 N   0  0  0  0  0  0  0  0  0  0  0  0
   22.8178   35.1368   20.8562 C   0  0  0  0  0  0  0  0  0  0  0  0
   23.8084   37.2646   21.4476 N   0  0  0  0  0  0  0  0  0  0  0  0
   23.4392   35.2136   19.5661 C   0  0  0  0  0  0  0  0  0  0  0  0
   24.3933   37.3126   20.2256 C   0  0  0  0  0  0  0  0  0  0  0  0
   23.3605   34.3382   18.6789 O   0  0  0  0  0  0  0  0  0  0  0  0
   22.9820   36.1819   21.8123 C   0  0  0  0  0  0  0  0  0  0  0  0
   22.4124   36.1794   23.0744 C   0  0  0  0  0  0  0  0  0  0  0  0
   24.6767   36.4358   18.4022 H   0  0  0  0  0  0  0  0  0  0  0  0
   27.5283   41.9176   19.4484 O   0  0  0  0  0  0  0  0  0  0  0  0
   25.2309   38.4759   19.8917 C   0  0  0  0  0  0  0  0  0  0  0  0
   26.5683   38.3930   19.4494 C   0  0  0  0  0  0  0  0  0  0  0  0
   27.3275   39.5450   19.2922 C   0  0  0  0  0  0  0  0  0  0  0  0
   28.7568   39.3508   18.8981 C   0  0  0  0  0  0  0  0  0  0  0  0
   26.7559   40.8242   19.5280 C   0  0  0  0  0  0  0  0  0  0  0  0
   25.4244   40.9276   19.9063 C   0  0  0  0  0  0  0  0  0  0  0  0
   24.8312   42.2871   20.1285 C   0  0  0  0  0  0  0  0  0  0  0  0
   24.6760   39.7870   20.0913 C   0  0  0  0  0  0  0  0  0  0  0  0
   28.4262   41.8393   19.1922 H   0  0  0  0  0  0  0  0  0  0  0  0
   21.0742   34.9929   24.6813 O   0  0  0  0  0  0  0  0  0  0  0  0
   21.7568   35.4090   25.8448 C   0  0  0  0  0  0  0  0  0  0  0  0
   20.4502   32.7662   19.9468 C   0  0  0  0  0  0  0  0  0  0  0  0
   21.8096   33.0539   20.3491 O   0  0  0  0  0  0  0  0  0  0  0  0
 25 26  1  0  0  0
 26  3  1  0  0  0
  2  3  2  0  0  0
  2  1  1  0  0  0
 23  1  1  0  0  0
 23 24  1  0  0  0
  3  5  1  0  0  0
  1 11  2  0  0  0
  5 10  2  0  0  0
  5  7  1  0  0  0
 11 10  1  0  0  0
  9  7  2  0  0  0
 10  6  1  0  0  0
  7  4  1  0  0  0
  6  8  2  0  0  0
  4  8  1  0  0  0
  8 14  1  0  0  0
 14 15  2  0  0  0
 14 21  1  0  0  0
 15 16  1  0  0  0
 21 19  2  0  0  0
 16 17  1  0  0  0
 16 18  2  0  0  0
 19 18  1  0  0  0
 19 20  1  0  0  0
 18 13  1  0  0  0
  4 12  1  0  0  0
 13 22  1  0  0  0
M  END
> <minimizedAffinity>
-7.48733

$$$$
4MR3_1K0_A_202


 26 28  0  0  0  0  0  0  0  0999 V2000
   22.0032   33.8729   17.8888 C   0  0  0  0  0  0  0  0  0  0  0  0
   21.8703   33.3052   19.1661 C   0  0  0  0  0  0  0  0  0  0  0  0
   22.4713   33.8344   20.2563 C   0  0  0  0  0  0  0  0  0  0  0  0
   24.6336   36.8054   21.0652 N   0  0  0  0  0  0  0  0  0  0  0  0
   23.2487   35.0017   20.1721 C   0  0  0  0  0  0  0  0  0  0  0  0
   24.0987   36.7523   18.7327 N   0  0  0  0  0  0  0  0  0  0  0  0
   23.8976   35.6175   21.2929 C   0  0  0  0  0  0  0  0  0  0  0  0
   24.6967   37.3222   19.8074 C   0  0  0  0  0  0  0  0  0  0  0  0
   23.8383   35.2064   22.4706 O   0  0  0  0  0  0  0  0  0  0  0  0
   23.3604   35.5581   18.8639 C   0  0  0  0  0  0  0  0  0  0  0  0
   22.7656   35.0199   17.7352 C   0  0  0  0  0  0  0  0  0  0  0  0
   25.0957   37.2537   21.8100 H   0  0  0  0  0  0  0  0  0  0  0  0
   27.5569   42.1589   19.5549 O   0  0  0  0  0  0  0  0  0  0  0  0
   25.4704   38.5584   19.6088 C   0  0  0  0  0  0  0  0  0  0  0  0
   26.8272   38.5949   19.2233 C   0  0  0  0  0  0  0  0  0  0  0  0
   27.5163   39.8001   19.1960 C   0  0  0  0  0  0  0  0  0  0  0  0
   28.9700   39.7274   18.8537 C   0  0  0  0  0  0  0  0  0  0  0  0
   26.8542   41.0176   19.5091 C   0  0  0  0  0  0  0  0  0  0  0  0
   25.5044   41.0074   19.8329 C   0  0  0  0  0  0  0  0  0  0  0  0
   24.8161   42.3045   20.1380 C   0  0  0  0  0  0  0  0  0  0  0  0
   24.8243   39.8117   19.8892 C   0  0  0  0  0  0  0  0  0  0  0  0
   28.4677   42.1574   19.3349 H   0  0  0  0  0  0  0  0  0  0  0  0
   21.3531   33.3004   16.8248 O   0  0  0  0  0  0  0  0  0  0  0  0
   19.9776   32.9867   16.8726 C   0  0  0  0  0  0  0  0  0  0  0  0
   21.0728   33.0868   22.1017 C   0  0  0  0  0  0  0  0  0  0  0  0
   22.3849   33.2521   21.5153 O   0  0  0  0  0  0  0  0  0  0  0  0
 25 26  1  0  0  0
 26  3  1  0  0  0
  2  3  2  0  0  0
  2  1  1  0  0  0
 23  1  1  0  0  0
 23 24  1  0  0  0
  3  5  1  0  0  0
  1 11  2  0  0  0
  5 10  2  0  0  0
  5  7  1  0  0  0
 11 10  1  0  0  0
  9  7  2  0  0  0
 10  6  1  0  0  0
  7  4  1  0  0  0
  6  8  2  0  0  0
  4  8  1  0  0  0
  8 14  1  0  0  0
 14 15  2  0  0  0
 14 21  1  0  0  0
 15 16  1  0  0  0
 21 19  2  0  0  0
 16 17  1  0  0  0
 16 18  2  0  0  0
 19 18  1  0  0  0
 19 20  1  0  0  0
 18 13  1  0  0  0
  4 12  1  0  0  0
 13 22  1  0  0  0
M  END
> <minimizedAffinity>
-7.48210

$$$$
4MR3_1K0_A_202


 26 28  0  0  0  0  0  0  0  0999 V2000
   22.9550   32.7559   20.6972 C   0  0  0  0  0  0  0  0  0  0  0  0
   22.0440   33.0046   21.7363 C   0  0  0  0  0  0  0  0  0  0  0  0
   21.9213   34.2229   22.3111 C   0  0  0  0  0  0  0  0  0  0  0  0
   23.4150   37.6511   21.8945 N   0  0  0  0  0  0  0  0  0  0  0  0
   22.6891   35.3183   21.8812 C   0  0  0  0  0  0  0  0  0  0  0  0
   24.3670   36.1120   20.3278 N   0  0  0  0  0  0  0  0  0  0  0  0
   22.5936   36.6354   22.4406 C   0  0  0  0  0  0  0  0  0  0  0  0
   24.2544   37.3512   20.8656 C   0  0  0  0  0  0  0  0  0  0  0  0
   21.8134   36.9708   23.3562 O   0  0  0  0  0  0  0  0  0  0  0  0
   23.6005   35.0364   20.8215 C   0  0  0  0  0  0  0  0  0  0  0  0
   23.7502   33.7917   20.2334 C   0  0  0  0  0  0  0  0  0  0  0  0
   23.3795   38.5662   22.2558 H   0  0  0  0  0  0  0  0  0  0  0  0
   27.4592   41.6922   19.2773 O   0  0  0  0  0  0  0  0  0  0  0  0
   25.0927   38.4325   20.3231 C   0  0  0  0  0  0  0  0  0  0  0  0
   26.3625   38.2385   19.7393 C   0  0  0  0  0  0  0  0  0  0  0  0
   27.1440   39.3292   19.3816 C   0  0  0  0  0  0  0  0  0  0  0  0
   28.5062   39.0241   18.8459 C   0  0  0  0  0  0  0  0  0  0  0  0
   26.6579   40.6531   19.5540 C   0  0  0  0  0  0  0  0  0  0  0  0
   25.3869   40.8613   20.0719 C   0  0  0  0  0  0  0  0  0  0  0  0
   24.8811   42.2648   20.2253 C   0  0  0  0  0  0  0  0  0  0  0  0
   24.6201   39.7839   20.4546 C   0  0  0  0  0  0  0  0  0  0  0  0
   28.3158   41.5432   18.9279 H   0  0  0  0  0  0  0  0  0  0  0  0
   23.0194   31.5030   20.1416 O   0  0  0  0  0  0  0  0  0  0  0  0
   23.9482   30.5373   20.5859 C   0  0  0  0  0  0  0  0  0  0  0  0
   19.7929   33.7638   23.3971 C   0  0  0  0  0  0  0  0  0  0  0  0
   21.0572   34.4664   23.3722 O   0  0  0  0  0  0  0  0  0  0  0  0
 25 26  1  0  0  0
 26  3  1  0  0  0
  2  3  2  0  0  0
  2  1  1  0  0  0
 23  1  1  0  0  0
 23 24  1  0  0  0
  3  5  1  0  0  0
  1 11  2  0  0  0
  5 10  2  0  0  0
  5  7  1  0  0  0
 11 10  1  0  0  0
  9  7  2  0  0  0
 10  6  1  0  0  0
  7  4  1  0  0  0
  6  8  2  0  0  0
  4  8  1  0  0  0
  8 14  1  0  0  0
 14 15  2  0  0  0
 14 21  1  0  0  0
 15 16  1  0  0  0
 21 19  2  0  0  0
 16 17  1  0  0  0
 16 18  2  0  0  0
 19 18  1  0  0  0
 19 20  1  0  0  0
 18 13  1  0  0  0
  4 12  1  0  0  0
 13 22  1  0  0  0
M  END
> <minimizedAffinity>
-7.28236

$$$$
4MR3_1K0_A_202


 26 28  0  0  0  0  0  0  0  0999 V2000
   20.3679   33.2913   20.8980 C   0  0  0  0  0  0  0  0  0  0  0  0
   20.9594   33.1898   19.6287 C   0  0  0  0  0  0  0  0  0  0  0  0
   22.0526   33.9077   19.2834 C   0  0  0  0  0  0  0  0  0  0  0  0
   24.3714   36.3864   20.9069 N   0  0  0  0  0  0  0  0  0  0  0  0
   22.6725   34.7836   20.1904 C   0  0  0  0  0  0  0  0  0  0  0  0
   22.6597   35.6974   22.4317 N   0  0  0  0  0  0  0  0  0  0  0  0
   23.8402   35.5591   19.8881 C   0  0  0  0  0  0  0  0  0  0  0  0
   23.7686   36.4151   22.1271 C   0  0  0  0  0  0  0  0  0  0  0  0
   24.4527   35.5388   18.7999 O   0  0  0  0  0  0  0  0  0  0  0  0
   22.0528   34.8610   21.4723 C   0  0  0  0  0  0  0  0  0  0  0  0
   20.9244   34.1459   21.8364 C   0  0  0  0  0  0  0  0  0  0  0  0
   25.1697   36.9361   20.7344 H   0  0  0  0  0  0  0  0  0  0  0  0
   25.4935   39.8886   26.2011 O   0  0  0  0  0  0  0  0  0  0  0  0
   24.3490   37.2863   23.1617 C   0  0  0  0  0  0  0  0  0  0  0  0
   25.1310   36.8264   24.2425 C   0  0  0  0  0  0  0  0  0  0  0  0
   25.5199   37.7009   25.2487 C   0  0  0  0  0  0  0  0  0  0  0  0
   26.2766   37.1045   26.3922 C   0  0  0  0  0  0  0  0  0  0  0  0
   25.1775   39.0782   25.1805 C   0  0  0  0  0  0  0  0  0  0  0  0
   24.4594   39.5593   24.0943 C   0  0  0  0  0  0  0  0  0  0  0  0
   24.1268   41.0202   24.0274 C   0  0  0  0  0  0  0  0  0  0  0  0
   24.0470   38.6908   23.1090 C   0  0  0  0  0  0  0  0  0  0  0  0
   25.9785   39.5561   26.9306 H   0  0  0  0  0  0  0  0  0  0  0  0
   19.2710   32.5224   21.1949 O   0  0  0  0  0  0  0  0  0  0  0  0
   18.9411   31.3731   20.4446 C   0  0  0  0  0  0  0  0  0  0  0  0
   21.7747   34.1630   16.8796 C   0  0  0  0  0  0  0  0  0  0  0  0
   22.6159   33.8497   18.0140 O   0  0  0  0  0  0  0  0  0  0  0  0
 25 26  1  0  0  0
 26  3  1  0  0  0
  2  3  2  0  0  0
  2  1  1  0  0  0
 23  1  1  0  0  0
 23 24  1  0  0  0
  3  5  1  0  0  0
  1 11  2  0  0  0
  5 10  2  0  0  0
  5  7  1  0  0  0
 11 10  1  0  0  0
  9  7  2  0  0  0
 10  6  1  0  0  0
  7  4  1  0  0  0
  6  8  2  0  0  0
  4  8  1  0  0  0
  8 14  1  0  0  0
 14 15  2  0  0  0
 14 21  1  0  0  0
 15 16  1  0  0  0
 21 19  2  0  0  0
 16 17  1  0  0  0
 16 18  2  0  0  0
 19 18  1  0  0  0
 19 20  1  0  0  0
 18 13  1  0  0  0
  4 12  1  0  0  0
 13 22  1  0  0  0
M  END
> <minimizedAffinity>
-7.03983

$$$$
4MR3_1K0_A_202


 26 28  0  0  0  0  0  0  0  0999 V2000
   23.1967   36.8894   23.3947 C   0  0  0  0  0  0  0  0  0  0  0  0
   22.5780   35.9187   22.5908 C   0  0  0  0  0  0  0  0  0  0  0  0
   22.9282   35.7227   21.2990 C   0  0  0  0  0  0  0  0  0  0  0  0
   25.4385   37.1091   18.8633 N   0  0  0  0  0  0  0  0  0  0  0  0
   23.9525   36.4705   20.6943 C   0  0  0  0  0  0  0  0  0  0  0  0
   25.6257   38.1945   20.9884 N   0  0  0  0  0  0  0  0  0  0  0  0
   24.3778   36.2988   19.3356 C   0  0  0  0  0  0  0  0  0  0  0  0
   26.0175   38.0096   19.7039 C   0  0  0  0  0  0  0  0  0  0  0  0
   23.9074   35.4617   18.5372 O   0  0  0  0  0  0  0  0  0  0  0  0
   24.5655   37.4439   21.5369 C   0  0  0  0  0  0  0  0  0  0  0  0
   24.2080   37.6686   22.8556 C   0  0  0  0  0  0  0  0  0  0  0  0
   25.7545   37.0219   17.9350 H   0  0  0  0  0  0  0  0  0  0  0  0
   30.0493   41.0377   17.2113 O   0  0  0  0  0  0  0  0  0  0  0  0
   27.1175   38.8342   19.1782 C   0  0  0  0  0  0  0  0  0  0  0  0
   27.2740   40.2121   19.4385 C   0  0  0  0  0  0  0  0  0  0  0  0
   28.2609   40.9410   18.7882 C   0  0  0  0  0  0  0  0  0  0  0  0
   28.2964   42.4094   19.0679 C   0  0  0  0  0  0  0  0  0  0  0  0
   29.1563   40.3018   17.8890 C   0  0  0  0  0  0  0  0  0  0  0  0
   29.0547   38.9354   17.6663 C   0  0  0  0  0  0  0  0  0  0  0  0
   30.0229   38.2732   16.7318 C   0  0  0  0  0  0  0  0  0  0  0  0
   28.0596   38.2141   18.2868 C   0  0  0  0  0  0  0  0  0  0  0  0
   30.1116   41.9595   17.3675 H   0  0  0  0  0  0  0  0  0  0  0  0
   22.8104   37.0275   24.7040 O   0  0  0  0  0  0  0  0  0  0  0  0
   21.6549   37.7521   25.0679 C   0  0  0  0  0  0  0  0  0  0  0  0
   20.9721   34.3405   20.8702 C   0  0  0  0  0  0  0  0  0  0  0  0
   22.2885   34.7977   20.4822 O   0  0  0  0  0  0  0  0  0  0  0  0
 25 26  1  0  0  0
 26  3  1  0  0  0
  2  3  2  0  0  0
  2  1  1  0  0  0
 23  1  1  0  0  0
 23 24  1  0  0  0
  3  5  1  0  0  0
  1 11  2  0  0  0
  5 10  2  0  0  0
  5  7  1  0  0  0
 11 10  1  0  0  0
  9  7  2  0  0  0
 10  6  1  0  0  0
  7  4  1  0  0  0
  6  8  2  0  0  0
  4  8  1  0  0  0
  8 14  1  0  0  0
 14 15  2  0  0  0
 14 21  1  0  0  0
 15 16  1  0  0  0
 21 19  2  0  0  0
 16 17  1  0  0  0
 16 18  2  0  0  0
 19 18  1  0  0  0
 19 20  1  0  0  0
 18 13  1  0  0  0
  4 12  1  0  0  0
 13 22  1  0  0  0
M  END
> <minimizedAffinity>
-6.92281

$$$$
4MR3_1K0_A_202


 26 28  0  0  0  0  0  0  0  0999 V2000
   21.4195   33.0291   22.4806 C   0  0  0  0  0  0  0  0  0  0  0  0
   21.8061   32.4958   21.2407 C   0  0  0  0  0  0  0  0  0  0  0  0
   22.4961   33.2184   20.3288 C   0  0  0  0  0  0  0  0  0  0  0  0
   23.9709   36.6697   20.0631 N   0  0  0  0  0  0  0  0  0  0  0  0
   22.8849   34.5442   20.5844 C   0  0  0  0  0  0  0  0  0  0  0  0
   22.8822   36.3698   22.1737 N   0  0  0  0  0  0  0  0  0  0  0  0
   23.6288   35.3549   19.6646 C   0  0  0  0  0  0  0  0  0  0  0  0
   23.5929   37.1155   21.2925 C   0  0  0  0  0  0  0  0  0  0  0  0
   24.0328   34.9809   18.5436 O   0  0  0  0  0  0  0  0  0  0  0  0
   22.4831   35.0559   21.8532 C   0  0  0  0  0  0  0  0  0  0  0  0
   21.7626   34.3354   22.7909 C   0  0  0  0  0  0  0  0  0  0  0  0
   24.4776   37.2565   19.4564 H   0  0  0  0  0  0  0  0  0  0  0  0
   24.6074   42.5231   22.4614 O   0  0  0  0  0  0  0  0  0  0  0  0
   23.9666   38.4874   21.6726 C   0  0  0  0  0  0  0  0  0  0  0  0
   24.0220   38.9580   23.0017 C   0  0  0  0  0  0  0  0  0  0  0  0
   24.2472   40.3036   23.2603 C   0  0  0  0  0  0  0  0  0  0  0  0
   24.2078   40.7205   24.6957 C   0  0  0  0  0  0  0  0  0  0  0  0
   24.4721   41.2159   22.1945 C   0  0  0  0  0  0  0  0  0  0  0  0
   24.4801   40.7595   20.8836 C   0  0  0  0  0  0  0  0  0  0  0  0
   24.7421   41.7323   19.7726 C   0  0  0  0  0  0  0  0  0  0  0  0
   24.2287   39.4317   20.6207 C   0  0  0  0  0  0  0  0  0  0  0  0
   24.6010   42.8231   23.3491 H   0  0  0  0  0  0  0  0  0  0  0  0
   20.7373   32.2396   23.3717 O   0  0  0  0  0  0  0  0  0  0  0  0
   21.4068   31.4218   24.3075 C   0  0  0  0  0  0  0  0  0  0  0  0
   21.7860   32.1881   18.2420 C   0  0  0  0  0  0  0  0  0  0  0  0
   22.8409   32.7146   19.0801 O   0  0  0  0  0  0  0  0  0  0  0  0
 25 26  1  0  0  0
 26  3  1  0  0  0
  2  3  2  0  0  0
  2  1  1  0  0  0
 23  1  1  0  0  0
 23 24  1  0  0  0
  3  5  1  0  0  0
  1 11  2  0  0  0
  5 10  2  0  0  0
  5  7  1  0  0  0
 11 10  1  0  0  0
  9  7  2  0  0  0
 10  6  1  0  0  0
  7  4  1  0  0  0
  6  8  2  0  0  0
  4  8  1  0  0  0
  8 14  1  0  0  0
 14 15  2  0  0  0
 14 21  1  0  0  0
 15 16  1  0  0  0
 21 19  2  0  0  0
 16 17  1  0  0  0
 16 18  2  0  0  0
 19 18  1  0  0  0
 19 20  1  0  0  0
 18 13  1  0  0  0
  4 12  1  0  0  0
 13 22  1  0  0  0
M  END
> <minimizedAffinity>
-6.71721

$$$$
4MR3_1K0_A_202


 26 28  0  0  0  0  0  0  0  0999 V2000
   19.1908   41.8080   24.0685 C   0  0  0  0  0  0  0  0  0  0  0  0
   19.5858   43.0843   24.5004 C   0  0  0  0  0  0  0  0  0  0  0  0
   20.8061   43.5951   24.2182 C   0  0  0  0  0  0  0  0  0  0  0  0
   23.8788   42.5511   22.3141 N   0  0  0  0  0  0  0  0  0  0  0  0
   21.7427   42.8795   23.4535 C   0  0  0  0  0  0  0  0  0  0  0  0
   22.2004   40.8470   22.2213 N   0  0  0  0  0  0  0  0  0  0  0  0
   23.0445   43.3731   23.1097 C   0  0  0  0  0  0  0  0  0  0  0  0
   23.4232   41.3368   21.9009 C   0  0  0  0  0  0  0  0  0  0  0  0
   23.4941   44.4934   23.4295 O   0  0  0  0  0  0  0  0  0  0  0  0
   21.3110   41.5899   23.0247 C   0  0  0  0  0  0  0  0  0  0  0  0
   20.0722   41.0457   23.3186 C   0  0  0  0  0  0  0  0  0  0  0  0
   24.7805   42.8553   22.0618 H   0  0  0  0  0  0  0  0  0  0  0  0
   27.2353   38.3289   19.0622 O   0  0  0  0  0  0  0  0  0  0  0  0
   24.3179   40.5101   21.0749 C   0  0  0  0  0  0  0  0  0  0  0  0
   24.1773   39.1172   20.8985 C   0  0  0  0  0  0  0  0  0  0  0  0
   25.1479   38.3952   20.2165 C   0  0  0  0  0  0  0  0  0  0  0  0
   24.9520   36.9143   20.1514 C   0  0  0  0  0  0  0  0  0  0  0  0
   26.2702   39.0541   19.6463 C   0  0  0  0  0  0  0  0  0  0  0  0
   26.3941   40.4320   19.7590 C   0  0  0  0  0  0  0  0  0  0  0  0
   27.5733   41.1136   19.1310 C   0  0  0  0  0  0  0  0  0  0  0  0
   25.4493   41.1481   20.4589 C   0  0  0  0  0  0  0  0  0  0  0  0
   27.1440   37.3991   18.9901 H   0  0  0  0  0  0  0  0  0  0  0  0
   17.9320   41.3530   24.3704 O   0  0  0  0  0  0  0  0  0  0  0  0
   17.5506   40.0123   24.1475 C   0  0  0  0  0  0  0  0  0  0  0  0
   20.4149   45.9925   24.3596 C   0  0  0  0  0  0  0  0  0  0  0  0
   21.2233   44.8371   24.6823 O   0  0  0  0  0  0  0  0  0  0  0  0
 25 26  1  0  0  0
 26  3  1  0  0  0
  2  3  2  0  0  0
  2  1  1  0  0  0
 23  1  1  0  0  0
 23 24  1  0  0  0
  3  5  1  0  0  0
  1 11  2  0  0  0
  5 10  2  0  0  0
  5  7  1  0  0  0
 11 10  1  0  0  0
  9  7  2  0  0  0
 10  6  1  0  0  0
  7  4  1  0  0  0
  6  8  2  0  0  0
  4  8  1  0  0  0
  8 14  1  0  0  0
 14 15  2  0  0  0
 14 21  1  0  0  0
 15 16  1  0  0  0
 21 19  2  0  0  0
 16 17  1  0  0  0
 16 18  2  0  0  0
 19 18  1  0  0  0
 19 20  1  0  0  0
 18 13  1  0  0  0
  4 12  1  0  0  0
 13 22  1  0  0  0
M  END
> <minimizedAffinity>
-6.59798

$$$$
4MR3_1K0_A_202


 26 28  0  0  0  0  0  0  0  0999 V2000
   23.8324   41.5080   24.1874 C   0  0  0  0  0  0  0  0  0  0  0  0
   24.5148   41.0941   25.3426 C   0  0  0  0  0  0  0  0  0  0  0  0
   24.9035   39.8121   25.5298 C   0  0  0  0  0  0  0  0  0  0  0  0
   24.7730   36.5672   23.6296 N   0  0  0  0  0  0  0  0  0  0  0  0
   24.6629   38.8230   24.5612 C   0  0  0  0  0  0  0  0  0  0  0  0
   23.7421   38.3280   22.3782 N   0  0  0  0  0  0  0  0  0  0  0  0
   25.0631   37.4525   24.6958 C   0  0  0  0  0  0  0  0  0  0  0  0
   24.1369   37.0393   22.5226 C   0  0  0  0  0  0  0  0  0  0  0  0
   25.6825   36.9788   25.6712 O   0  0  0  0  0  0  0  0  0  0  0  0
   23.9738   39.2745   23.3975 C   0  0  0  0  0  0  0  0  0  0  0  0
   23.5544   40.5789   23.1975 C   0  0  0  0  0  0  0  0  0  0  0  0
   25.0291   35.6184   23.6884 H   0  0  0  0  0  0  0  0  0  0  0  0
   22.5441   33.4288   18.5146 O   0  0  0  0  0  0  0  0  0  0  0  0
   23.8524   36.0901   21.4344 C   0  0  0  0  0  0  0  0  0  0  0  0
   24.0911   36.3506   20.0683 C   0  0  0  0  0  0  0  0  0  0  0  0
   23.6625   35.4542   19.0982 C   0  0  0  0  0  0  0  0  0  0  0  0
   23.8886   35.8556   17.6756 C   0  0  0  0  0  0  0  0  0  0  0  0
   23.0213   34.2415   19.4685 C   0  0  0  0  0  0  0  0  0  0  0  0
   22.8316   33.9413   20.8104 C   0  0  0  0  0  0  0  0  0  0  0  0
   22.1738   32.6462   21.1836 C   0  0  0  0  0  0  0  0  0  0  0  0
   23.2288   34.8402   21.7745 C   0  0  0  0  0  0  0  0  0  0  0  0
   22.6764   33.6385   17.6110 H   0  0  0  0  0  0  0  0  0  0  0  0
   23.4812   42.8270   24.0471 O   0  0  0  0  0  0  0  0  0  0  0  0
   23.0252   43.3503   22.8180 C   0  0  0  0  0  0  0  0  0  0  0  0
   24.7608   39.3319   27.9108 C   0  0  0  0  0  0  0  0  0  0  0  0
   25.5363   39.3836   26.6908 O   0  0  0  0  0  0  0  0  0  0  0  0
 25 26  1  0  0  0
 26  3  1  0  0  0
  2  3  2  0  0  0
  2  1  1  0  0  0
 23  1  1  0  0  0
 23 24  1  0  0  0
  3  5  1  0  0  0
  1 11  2  0  0  0
  5 10  2  0  0  0
  5  7  1  0  0  0
 11 10  1  0  0  0
  9  7  2  0  0  0
 10  6  1  0  0  0
  7  4  1  0  0  0
  6  8  2  0  0  0
  4  8  1  0  0  0
  8 14  1  0  0  0
 14 15  2  0  0  0
 14 21  1  0  0  0
 15 16  1  0  0  0
 21 19  2  0  0  0
 16 17  1  0  0  0
 16 18  2  0  0  0
 19 18  1  0  0  0
 19 20  1  0  0  0
 18 13  1  0  0  0
  4 12  1  0  0  0
 13 22  1  0  0  0
M  END
> <minimizedAffinity>
-6.55125

$$$$
