1XBO_IX1_A_322


 34 36  0  0  0  0  0  0  0  0999 V2000
   32.9518   31.6639   18.0468 C   0  0  0  0  0  0  0  0  0  0  0  0
   32.4294   31.0068   19.2082 C   0  0  0  0  0  0  0  0  0  0  0  0
   31.0172   31.0298   19.4171 C   0  0  0  0  0  0  0  0  0  0  0  0
   30.1370   31.6812   18.5066 C   0  0  0  0  0  0  0  0  0  0  0  0
   30.6796   32.3312   17.3485 C   0  0  0  0  0  0  0  0  0  0  0  0
   32.0815   32.3182   17.1251 C   0  0  0  0  0  0  0  0  0  0  0  0
   33.2699   30.2965   20.2382 C   0  0  0  0  0  0  0  0  0  0  0  0
   32.6017   29.6060   21.2374 O   0  0  0  0  0  0  0  0  0  0  0  0
   33.5777   29.0479   22.0737 N   0  0  0  0  0  0  0  0  0  0  0  0
   34.8036   29.3790   21.6092 C   0  0  0  0  0  0  0  0  0  0  0  0
   34.6261   30.2030   20.3894 C   0  0  0  0  0  0  0  0  0  0  0  0
   36.1191   28.9502   22.2770 C   0  0  0  0  0  0  0  0  0  0  0  0
   36.4050   27.6199   22.2403 O   0  0  0  0  0  0  0  0  0  0  0  0
   36.8542   29.7675   22.7814 O   0  0  0  0  0  0  0  0  0  0  0  0
   35.8051   27.0227   21.8385 H   0  0  0  0  0  0  0  0  0  0  0  0
   35.8231   30.7404   19.6202 C   0  0  0  0  0  0  0  0  0  0  0  0
   36.0545   30.0294   18.4136 O   0  0  0  0  0  0  0  0  0  0  0  0
   36.2452   29.1004   18.6172 H   0  0  0  0  0  0  0  0  0  0  0  0
   28.6801   31.6760   18.7833 C   0  0  0  0  0  0  0  0  0  0  0  0
   28.1780   30.5234   19.3064 C   0  0  0  0  0  0  0  0  0  0  0  0
   26.7853   30.1029   19.7161 C   0  0  0  0  0  0  0  0  0  0  0  0
   26.6249   29.7282   21.1034 O   0  0  0  0  0  0  0  0  0  0  0  0
   25.2792   29.6999   21.6508 C   0  0  0  0  0  0  0  0  0  0  0  0
   24.6028   30.9012   22.1151 C   0  0  0  0  0  0  0  0  0  0  0  0
   23.2866   30.8720   22.6494 C   0  0  0  0  0  0  0  0  0  0  0  0
   22.6006   29.6494   22.7415 C   0  0  0  0  0  0  0  0  0  0  0  0
   23.2112   28.4454   22.3047 C   0  0  0  0  0  0  0  0  0  0  0  0
   24.5450   28.4406   21.7567 C   0  0  0  0  0  0  0  0  0  0  0  0
   22.4380   27.3083   22.4443 O   0  0  0  0  0  0  0  0  0  0  0  0
   21.5764   27.3693   22.8074 H   0  0  0  0  0  0  0  0  0  0  0  0
   25.1103   27.1196   21.3207 C   0  0  0  0  0  0  0  0  0  0  0  0
   25.4650   26.2934   22.1357 O   0  0  0  0  0  0  0  0  0  0  0  0
   25.1939   26.9047   19.9867 O   0  0  0  0  0  0  0  0  0  0  0  0
   26.2268   26.0154   19.4697 C   0  0  0  0  0  0  0  0  0  0  0  0
  1  2  2  0  0  0
  1  6  1  0  0  0
  2  3  1  0  0  0
  2  7  1  0  0  0
  3  4  2  0  0  0
  4  5  1  0  0  0
  4 19  1  0  0  0
  5  6  2  0  0  0
  7  8  1  0  0  0
  7 11  2  0  0  0
  8  9  1  0  0  0
  9 10  2  0  0  0
 10 11  1  0  0  0
 10 12  1  0  0  0
 11 16  1  0  0  0
 12 13  1  0  0  0
 12 14  2  0  0  0
 19 20  2  0  0  0
 23 24  2  0  0  0
 23 28  1  0  0  0
 23 22  1  0  0  0
 24 25  1  0  0  0
 25 26  2  0  0  0
 26 27  1  0  0  0
 27 28  2  0  0  0
 27 29  1  0  0  0
 28 31  1  0  0  0
 31 32  2  0  0  0
 31 33  1  0  0  0
 33 34  1  0  0  0
 22 21  1  0  0  0
 21 20  1  0  0  0
 16 17  1  0  0  0
 13 15  1  0  0  0
 29 30  1  0  0  0
 17 18  1  0  0  0
M  END
> <minimizedAffinity>
-10.64774

$$$$
1XBO_IX1_A_322


 34 36  0  0  0  0  0  0  0  0999 V2000
   32.8778   31.7452   18.0980 C   0  0  0  0  0  0  0  0  0  0  0  0
   32.3588   31.0040   19.2092 C   0  0  0  0  0  0  0  0  0  0  0  0
   30.9422   30.9461   19.3775 C   0  0  0  0  0  0  0  0  0  0  0  0
   30.0545   31.5990   18.4754 C   0  0  0  0  0  0  0  0  0  0  0  0
   30.5940   32.3339   17.3676 C   0  0  0  0  0  0  0  0  0  0  0  0
   32.0003   32.4021   17.1851 C   0  0  0  0  0  0  0  0  0  0  0  0
   33.2066   30.2841   20.2266 C   0  0  0  0  0  0  0  0  0  0  0  0
   32.5459   29.5525   21.2012 O   0  0  0  0  0  0  0  0  0  0  0  0
   33.5274   28.9930   22.0301 N   0  0  0  0  0  0  0  0  0  0  0  0
   34.7493   29.3629   21.5849 C   0  0  0  0  0  0  0  0  0  0  0  0
   34.5633   30.2158   20.3864 C   0  0  0  0  0  0  0  0  0  0  0  0
   36.0686   28.9446   22.2517 C   0  0  0  0  0  0  0  0  0  0  0  0
   36.3437   27.6115   22.2537 O   0  0  0  0  0  0  0  0  0  0  0  0
   36.8155   29.7712   22.7224 O   0  0  0  0  0  0  0  0  0  0  0  0
   35.7348   27.0069   21.8772 H   0  0  0  0  0  0  0  0  0  0  0  0
   35.7542   30.7996   19.6420 C   0  0  0  0  0  0  0  0  0  0  0  0
   36.0748   30.0630   18.4716 O   0  0  0  0  0  0  0  0  0  0  0  0
   36.3136   29.1552   18.7161 H   0  0  0  0  0  0  0  0  0  0  0  0
   28.5930   31.5072   18.7086 C   0  0  0  0  0  0  0  0  0  0  0  0
   28.2075   30.7680   19.7852 C   0  0  0  0  0  0  0  0  0  0  0  0
   26.8539   30.4197   20.3602 C   0  0  0  0  0  0  0  0  0  0  0  0
   25.9452   29.7427   19.4620 O   0  0  0  0  0  0  0  0  0  0  0  0
   26.3019   28.4090   19.0087 C   0  0  0  0  0  0  0  0  0  0  0  0
   27.0533   28.1785   17.7845 C   0  0  0  0  0  0  0  0  0  0  0  0
   27.4019   26.8739   17.3430 C   0  0  0  0  0  0  0  0  0  0  0  0
   27.0145   25.7565   18.1015 C   0  0  0  0  0  0  0  0  0  0  0  0
   26.2794   25.9211   19.3039 C   0  0  0  0  0  0  0  0  0  0  0  0
   25.9107   27.2311   19.7803 C   0  0  0  0  0  0  0  0  0  0  0  0
   25.9572   24.7494   19.9625 O   0  0  0  0  0  0  0  0  0  0  0  0
   26.2226   23.9240   19.6072 H   0  0  0  0  0  0  0  0  0  0  0  0
   25.1327   27.3086   21.0623 C   0  0  0  0  0  0  0  0  0  0  0  0
   25.5912   26.8717   22.0975 O   0  0  0  0  0  0  0  0  0  0  0  0
   23.9122   27.8909   20.9985 O   0  0  0  0  0  0  0  0  0  0  0  0
   23.4980   28.8000   22.0600 C   0  0  0  0  0  0  0  0  0  0  0  0
  1  2  2  0  0  0
  1  6  1  0  0  0
  2  3  1  0  0  0
  2  7  1  0  0  0
  3  4  2  0  0  0
  4  5  1  0  0  0
  4 19  1  0  0  0
  5  6  2  0  0  0
  7  8  1  0  0  0
  7 11  2  0  0  0
  8  9  1  0  0  0
  9 10  2  0  0  0
 10 11  1  0  0  0
 10 12  1  0  0  0
 11 16  1  0  0  0
 12 13  1  0  0  0
 12 14  2  0  0  0
 19 20  2  0  0  0
 23 24  2  0  0  0
 23 28  1  0  0  0
 23 22  1  0  0  0
 24 25  1  0  0  0
 25 26  2  0  0  0
 26 27  1  0  0  0
 27 28  2  0  0  0
 27 29  1  0  0  0
 28 31  1  0  0  0
 31 32  2  0  0  0
 31 33  1  0  0  0
 33 34  1  0  0  0
 22 21  1  0  0  0
 21 20  1  0  0  0
 16 17  1  0  0  0
 13 15  1  0  0  0
 29 30  1  0  0  0
 17 18  1  0  0  0
M  END
> <minimizedAffinity>
-10.05726

$$$$
1XBO_IX1_A_322


 34 36  0  0  0  0  0  0  0  0999 V2000
   32.8282   31.8220   18.2378 C   0  0  0  0  0  0  0  0  0  0  0  0
   32.3446   31.0166   19.3198 C   0  0  0  0  0  0  0  0  0  0  0  0
   30.9322   30.8890   19.4855 C   0  0  0  0  0  0  0  0  0  0  0  0
   30.0149   31.5355   18.6088 C   0  0  0  0  0  0  0  0  0  0  0  0
   30.5193   32.3354   17.5299 C   0  0  0  0  0  0  0  0  0  0  0  0
   31.9208   32.4733   17.3504 C   0  0  0  0  0  0  0  0  0  0  0  0
   33.2252   30.2972   20.3092 C   0  0  0  0  0  0  0  0  0  0  0  0
   32.5968   29.5681   21.3067 O   0  0  0  0  0  0  0  0  0  0  0  0
   33.6049   29.0085   22.1030 N   0  0  0  0  0  0  0  0  0  0  0  0
   34.8116   29.3759   21.6162 C   0  0  0  0  0  0  0  0  0  0  0  0
   34.5865   30.2272   20.4232 C   0  0  0  0  0  0  0  0  0  0  0  0
   36.1522   28.9568   22.2387 C   0  0  0  0  0  0  0  0  0  0  0  0
   36.4404   27.6269   22.2037 O   0  0  0  0  0  0  0  0  0  0  0  0
   36.9030   29.7805   22.7081 O   0  0  0  0  0  0  0  0  0  0  0  0
   35.8278   27.0245   21.8298 H   0  0  0  0  0  0  0  0  0  0  0  0
   35.7524   30.8080   19.6380 C   0  0  0  0  0  0  0  0  0  0  0  0
   36.0710   30.0348   18.4910 O   0  0  0  0  0  0  0  0  0  0  0  0
   36.3338   29.1423   18.7654 H   0  0  0  0  0  0  0  0  0  0  0  0
   28.5592   31.3697   18.8381 C   0  0  0  0  0  0  0  0  0  0  0  0
   28.2047   30.8003   20.0231 C   0  0  0  0  0  0  0  0  0  0  0  0
   26.8677   30.4505   20.6350 C   0  0  0  0  0  0  0  0  0  0  0  0
   25.8832   31.5095   20.6406 O   0  0  0  0  0  0  0  0  0  0  0  0
   24.6144   31.2646   19.9761 C   0  0  0  0  0  0  0  0  0  0  0  0
   24.3579   31.6889   18.6085 C   0  0  0  0  0  0  0  0  0  0  0  0
   23.1170   31.4480   17.9598 C   0  0  0  0  0  0  0  0  0  0  0  0
   22.0907   30.7797   18.6484 C   0  0  0  0  0  0  0  0  0  0  0  0
   22.2844   30.3435   19.9845 C   0  0  0  0  0  0  0  0  0  0  0  0
   23.5318   30.5712   20.6711 C   0  0  0  0  0  0  0  0  0  0  0  0
   21.2042   29.6974   20.5558 O   0  0  0  0  0  0  0  0  0  0  0  0
   20.4165   29.5764   20.0630 H   0  0  0  0  0  0  0  0  0  0  0  0
   23.6460   30.0748   22.0836 C   0  0  0  0  0  0  0  0  0  0  0  0
   23.8597   30.8422   22.9992 O   0  0  0  0  0  0  0  0  0  0  0  0
   23.4927   28.7433   22.2744 O   0  0  0  0  0  0  0  0  0  0  0  0
   24.5199   27.8293   21.7903 C   0  0  0  0  0  0  0  0  0  0  0  0
  1  2  2  0  0  0
  1  6  1  0  0  0
  2  3  1  0  0  0
  2  7  1  0  0  0
  3  4  2  0  0  0
  4  5  1  0  0  0
  4 19  1  0  0  0
  5  6  2  0  0  0
  7  8  1  0  0  0
  7 11  2  0  0  0
  8  9  1  0  0  0
  9 10  2  0  0  0
 10 11  1  0  0  0
 10 12  1  0  0  0
 11 16  1  0  0  0
 12 13  1  0  0  0
 12 14  2  0  0  0
 19 20  2  0  0  0
 23 24  2  0  0  0
 23 28  1  0  0  0
 23 22  1  0  0  0
 24 25  1  0  0  0
 25 26  2  0  0  0
 26 27  1  0  0  0
 27 28  2  0  0  0
 27 29  1  0  0  0
 28 31  1  0  0  0
 31 32  2  0  0  0
 31 33  1  0  0  0
 33 34  1  0  0  0
 22 21  1  0  0  0
 21 20  1  0  0  0
 16 17  1  0  0  0
 13 15  1  0  0  0
 29 30  1  0  0  0
 17 18  1  0  0  0
M  END
> <minimizedAffinity>
-9.05413

$$$$
1XBO_IX1_A_322


 34 36  0  0  0  0  0  0  0  0999 V2000
   32.8993   31.7696   18.2020 C   0  0  0  0  0  0  0  0  0  0  0  0
   32.3986   30.9574   19.2711 C   0  0  0  0  0  0  0  0  0  0  0  0
   30.9841   30.8122   19.4010 C   0  0  0  0  0  0  0  0  0  0  0  0
   30.0813   31.4479   18.5017 C   0  0  0  0  0  0  0  0  0  0  0  0
   30.6028   32.2548   17.4363 C   0  0  0  0  0  0  0  0  0  0  0  0
   32.0066   32.4102   17.2922 C   0  0  0  0  0  0  0  0  0  0  0  0
   33.2628   30.2482   20.2821 C   0  0  0  0  0  0  0  0  0  0  0  0
   32.6180   29.5337   21.2797 O   0  0  0  0  0  0  0  0  0  0  0  0
   33.6130   28.9815   22.0974 N   0  0  0  0  0  0  0  0  0  0  0  0
   34.8276   29.3392   21.6233 C   0  0  0  0  0  0  0  0  0  0  0  0
   34.6221   30.1758   20.4165 C   0  0  0  0  0  0  0  0  0  0  0  0
   36.1579   28.9243   22.2702 C   0  0  0  0  0  0  0  0  0  0  0  0
   36.4529   27.5959   22.2367 O   0  0  0  0  0  0  0  0  0  0  0  0
   36.8956   29.7500   22.7565 O   0  0  0  0  0  0  0  0  0  0  0  0
   35.8504   26.9918   21.8492 H   0  0  0  0  0  0  0  0  0  0  0  0
   35.8008   30.7433   19.6407 C   0  0  0  0  0  0  0  0  0  0  0  0
   36.0477   30.0340   18.4361 O   0  0  0  0  0  0  0  0  0  0  0  0
   36.2651   29.1116   18.6428 H   0  0  0  0  0  0  0  0  0  0  0  0
   28.6225   31.2639   18.6941 C   0  0  0  0  0  0  0  0  0  0  0  0
   28.2224   30.9659   19.9612 C   0  0  0  0  0  0  0  0  0  0  0  0
   26.8670   30.6977   20.5737 C   0  0  0  0  0  0  0  0  0  0  0  0
   25.7944   31.5585   20.1271 O   0  0  0  0  0  0  0  0  0  0  0  0
   24.5836   31.6109   20.9286 C   0  0  0  0  0  0  0  0  0  0  0  0
   24.3892   30.7708   22.1002 C   0  0  0  0  0  0  0  0  0  0  0  0
   23.2050   30.8239   22.8834 C   0  0  0  0  0  0  0  0  0  0  0  0
   22.1753   31.7111   22.5277 C   0  0  0  0  0  0  0  0  0  0  0  0
   22.3095   32.5540   21.3942 C   0  0  0  0  0  0  0  0  0  0  0  0
   23.4986   32.5257   20.5791 C   0  0  0  0  0  0  0  0  0  0  0  0
   21.2321   33.3835   21.1461 O   0  0  0  0  0  0  0  0  0  0  0  0
   20.4836   33.3605   21.7093 H   0  0  0  0  0  0  0  0  0  0  0  0
   23.5522   33.4528   19.3992 C   0  0  0  0  0  0  0  0  0  0  0  0
   23.7323   33.0254   18.2777 O   0  0  0  0  0  0  0  0  0  0  0  0
   23.3842   34.7716   19.6542 O   0  0  0  0  0  0  0  0  0  0  0  0
   23.2923   35.7085   18.5412 C   0  0  0  0  0  0  0  0  0  0  0  0
  1  2  2  0  0  0
  1  6  1  0  0  0
  2  3  1  0  0  0
  2  7  1  0  0  0
  3  4  2  0  0  0
  4  5  1  0  0  0
  4 19  1  0  0  0
  5  6  2  0  0  0
  7  8  1  0  0  0
  7 11  2  0  0  0
  8  9  1  0  0  0
  9 10  2  0  0  0
 10 11  1  0  0  0
 10 12  1  0  0  0
 11 16  1  0  0  0
 12 13  1  0  0  0
 12 14  2  0  0  0
 19 20  2  0  0  0
 23 24  2  0  0  0
 23 28  1  0  0  0
 23 22  1  0  0  0
 24 25  1  0  0  0
 25 26  2  0  0  0
 26 27  1  0  0  0
 27 28  2  0  0  0
 27 29  1  0  0  0
 28 31  1  0  0  0
 31 32  2  0  0  0
 31 33  1  0  0  0
 33 34  1  0  0  0
 22 21  1  0  0  0
 21 20  1  0  0  0
 16 17  1  0  0  0
 13 15  1  0  0  0
 29 30  1  0  0  0
 17 18  1  0  0  0
M  END
> <minimizedAffinity>
-9.05266

$$$$
1XBO_IX1_A_322


 34 36  0  0  0  0  0  0  0  0999 V2000
   32.7443   31.8964   18.5587 C   0  0  0  0  0  0  0  0  0  0  0  0
   32.2642   30.8993   19.4690 C   0  0  0  0  0  0  0  0  0  0  0  0
   30.8684   30.5992   19.4645 C   0  0  0  0  0  0  0  0  0  0  0  0
   29.9639   31.2610   18.5857 C   0  0  0  0  0  0  0  0  0  0  0  0
   30.4649   32.2545   17.6800 C   0  0  0  0  0  0  0  0  0  0  0  0
   31.8501   32.5655   17.6711 C   0  0  0  0  0  0  0  0  0  0  0  0
   33.1308   30.1459   20.4454 C   0  0  0  0  0  0  0  0  0  0  0  0
   32.4939   29.2948   21.3352 O   0  0  0  0  0  0  0  0  0  0  0  0
   33.4885   28.7251   22.1413 N   0  0  0  0  0  0  0  0  0  0  0  0
   34.6953   29.2039   21.7640 C   0  0  0  0  0  0  0  0  0  0  0  0
   34.4851   30.1447   20.6374 C   0  0  0  0  0  0  0  0  0  0  0  0
   36.0221   28.8087   22.4302 C   0  0  0  0  0  0  0  0  0  0  0  0
   35.9878   27.7069   23.2288 O   0  0  0  0  0  0  0  0  0  0  0  0
   37.0320   29.4418   22.2257 O   0  0  0  0  0  0  0  0  0  0  0  0
   35.1816   27.2472   23.3585 H   0  0  0  0  0  0  0  0  0  0  0  0
   35.6548   30.8603   19.9794 C   0  0  0  0  0  0  0  0  0  0  0  0
   36.1148   30.1890   18.8162 O   0  0  0  0  0  0  0  0  0  0  0  0
   36.4267   29.3026   19.0566 H   0  0  0  0  0  0  0  0  0  0  0  0
   28.5241   30.9098   18.6343 C   0  0  0  0  0  0  0  0  0  0  0  0
   27.7781   31.3086   17.5673 C   0  0  0  0  0  0  0  0  0  0  0  0
   26.3119   31.1670   17.2290 C   0  0  0  0  0  0  0  0  0  0  0  0
   25.5313   30.3626   18.1426 O   0  0  0  0  0  0  0  0  0  0  0  0
   24.7355   31.0489   19.1461 C   0  0  0  0  0  0  0  0  0  0  0  0
   23.7559   32.0669   18.7995 C   0  0  0  0  0  0  0  0  0  0  0  0
   22.9779   32.7365   19.7818 C   0  0  0  0  0  0  0  0  0  0  0  0
   23.1488   32.4183   21.1396 C   0  0  0  0  0  0  0  0  0  0  0  0
   24.0905   31.4339   21.5363 C   0  0  0  0  0  0  0  0  0  0  0  0
   24.8948   30.7352   20.5646 C   0  0  0  0  0  0  0  0  0  0  0  0
   24.1676   31.2072   22.8976 O   0  0  0  0  0  0  0  0  0  0  0  0
   23.6204   31.6906   23.4849 H   0  0  0  0  0  0  0  0  0  0  0  0
   25.8651   29.7101   21.0766 C   0  0  0  0  0  0  0  0  0  0  0  0
   26.8706   30.0438   21.6685 O   0  0  0  0  0  0  0  0  0  0  0  0
   25.5549   28.4122   20.8488 O   0  0  0  0  0  0  0  0  0  0  0  0
   24.5996   27.7420   21.7223 C   0  0  0  0  0  0  0  0  0  0  0  0
  1  2  2  0  0  0
  1  6  1  0  0  0
  2  3  1  0  0  0
  2  7  1  0  0  0
  3  4  2  0  0  0
  4  5  1  0  0  0
  4 19  1  0  0  0
  5  6  2  0  0  0
  7  8  1  0  0  0
  7 11  2  0  0  0
  8  9  1  0  0  0
  9 10  2  0  0  0
 10 11  1  0  0  0
 10 12  1  0  0  0
 11 16  1  0  0  0
 12 13  1  0  0  0
 12 14  2  0  0  0
 19 20  2  0  0  0
 23 24  2  0  0  0
 23 28  1  0  0  0
 23 22  1  0  0  0
 24 25  1  0  0  0
 25 26  2  0  0  0
 26 27  1  0  0  0
 27 28  2  0  0  0
 27 29  1  0  0  0
 28 31  1  0  0  0
 31 32  2  0  0  0
 31 33  1  0  0  0
 33 34  1  0  0  0
 22 21  1  0  0  0
 21 20  1  0  0  0
 16 17  1  0  0  0
 13 15  1  0  0  0
 29 30  1  0  0  0
 17 18  1  0  0  0
M  END
> <minimizedAffinity>
-9.01113

$$$$
1XBO_IX1_A_322


 34 36  0  0  0  0  0  0  0  0999 V2000
   32.7983   31.6867   18.2172 C   0  0  0  0  0  0  0  0  0  0  0  0
   32.3299   30.9203   19.3337 C   0  0  0  0  0  0  0  0  0  0  0  0
   30.9205   30.8240   19.5407 C   0  0  0  0  0  0  0  0  0  0  0  0
   29.9914   31.4636   18.6714 C   0  0  0  0  0  0  0  0  0  0  0  0
   30.4806   32.2242   17.5576 C   0  0  0  0  0  0  0  0  0  0  0  0
   31.8790   32.3306   17.3368 C   0  0  0  0  0  0  0  0  0  0  0  0
   33.2241   30.2115   20.3186 C   0  0  0  0  0  0  0  0  0  0  0  0
   32.6104   29.4397   21.2930 O   0  0  0  0  0  0  0  0  0  0  0  0
   33.6286   28.8992   22.0898 N   0  0  0  0  0  0  0  0  0  0  0  0
   34.8270   29.3192   21.6256 C   0  0  0  0  0  0  0  0  0  0  0  0
   34.5855   30.1871   20.4479 C   0  0  0  0  0  0  0  0  0  0  0  0
   36.1743   28.9344   22.2556 C   0  0  0  0  0  0  0  0  0  0  0  0
   36.4697   27.6058   22.2759 O   0  0  0  0  0  0  0  0  0  0  0  0
   36.9239   29.7816   22.6835 O   0  0  0  0  0  0  0  0  0  0  0  0
   35.8578   26.9846   21.9329 H   0  0  0  0  0  0  0  0  0  0  0  0
   35.7391   30.8252   19.6893 C   0  0  0  0  0  0  0  0  0  0  0  0
   36.1493   30.0481   18.5744 O   0  0  0  0  0  0  0  0  0  0  0  0
   36.4594   29.1816   18.8808 H   0  0  0  0  0  0  0  0  0  0  0  0
   28.5398   31.3317   18.9442 C   0  0  0  0  0  0  0  0  0  0  0  0
   28.1998   31.0494   20.2322 C   0  0  0  0  0  0  0  0  0  0  0  0
   26.8715   30.8302   20.9191 C   0  0  0  0  0  0  0  0  0  0  0  0
   26.1368   29.6555   20.5054 O   0  0  0  0  0  0  0  0  0  0  0  0
   24.7131   29.6058   20.7917 C   0  0  0  0  0  0  0  0  0  0  0  0
   24.1962   29.4458   22.1420 C   0  0  0  0  0  0  0  0  0  0  0  0
   22.8037   29.3982   22.4204 C   0  0  0  0  0  0  0  0  0  0  0  0
   21.8801   29.5062   21.3672 C   0  0  0  0  0  0  0  0  0  0  0  0
   22.3269   29.6631   20.0297 C   0  0  0  0  0  0  0  0  0  0  0  0
   23.7327   29.7163   19.7134 C   0  0  0  0  0  0  0  0  0  0  0  0
   21.3258   29.7597   19.0816 O   0  0  0  0  0  0  0  0  0  0  0  0
   20.4270   29.7189   19.3435 H   0  0  0  0  0  0  0  0  0  0  0  0
   24.1124   29.8841   18.2704 C   0  0  0  0  0  0  0  0  0  0  0  0
   23.9554   28.9810   17.4750 O   0  0  0  0  0  0  0  0  0  0  0  0
   24.6260   31.0844   17.9125 O   0  0  0  0  0  0  0  0  0  0  0  0
   25.5899   31.1524   16.8210 C   0  0  0  0  0  0  0  0  0  0  0  0
  1  2  2  0  0  0
  1  6  1  0  0  0
  2  3  1  0  0  0
  2  7  1  0  0  0
  3  4  2  0  0  0
  4  5  1  0  0  0
  4 19  1  0  0  0
  5  6  2  0  0  0
  7  8  1  0  0  0
  7 11  2  0  0  0
  8  9  1  0  0  0
  9 10  2  0  0  0
 10 11  1  0  0  0
 10 12  1  0  0  0
 11 16  1  0  0  0
 12 13  1  0  0  0
 12 14  2  0  0  0
 19 20  2  0  0  0
 23 24  2  0  0  0
 23 28  1  0  0  0
 23 22  1  0  0  0
 24 25  1  0  0  0
 25 26  2  0  0  0
 26 27  1  0  0  0
 27 28  2  0  0  0
 27 29  1  0  0  0
 28 31  1  0  0  0
 31 32  2  0  0  0
 31 33  1  0  0  0
 33 34  1  0  0  0
 22 21  1  0  0  0
 21 20  1  0  0  0
 16 17  1  0  0  0
 13 15  1  0  0  0
 29 30  1  0  0  0
 17 18  1  0  0  0
M  END
> <minimizedAffinity>
-8.78630

$$$$
1XBO_IX1_A_322


 34 36  0  0  0  0  0  0  0  0999 V2000
   32.5985   32.0004   18.7941 C   0  0  0  0  0  0  0  0  0  0  0  0
   32.1820   30.8796   19.5838 C   0  0  0  0  0  0  0  0  0  0  0  0
   30.8148   30.4747   19.5102 C   0  0  0  0  0  0  0  0  0  0  0  0
   29.8776   31.1528   18.6796 C   0  0  0  0  0  0  0  0  0  0  0  0
   30.3152   32.2712   17.8947 C   0  0  0  0  0  0  0  0  0  0  0  0
   31.6711   32.6875   17.9557 C   0  0  0  0  0  0  0  0  0  0  0  0
   33.0870   30.0975   20.5011 C   0  0  0  0  0  0  0  0  0  0  0  0
   32.4893   29.1883   21.3600 O   0  0  0  0  0  0  0  0  0  0  0  0
   33.5142   28.6012   22.1138 N   0  0  0  0  0  0  0  0  0  0  0  0
   34.7015   29.1257   21.7351 C   0  0  0  0  0  0  0  0  0  0  0  0
   34.4450   30.1173   20.6629 C   0  0  0  0  0  0  0  0  0  0  0  0
   36.0514   28.7274   22.3508 C   0  0  0  0  0  0  0  0  0  0  0  0
   36.0194   27.7219   23.2677 O   0  0  0  0  0  0  0  0  0  0  0  0
   37.0747   29.2745   22.0098 O   0  0  0  0  0  0  0  0  0  0  0  0
   35.2026   27.3269   23.5016 H   0  0  0  0  0  0  0  0  0  0  0  0
   35.5835   30.8916   20.0168 C   0  0  0  0  0  0  0  0  0  0  0  0
   36.2085   30.1630   18.9710 O   0  0  0  0  0  0  0  0  0  0  0  0
   36.5913   29.3469   19.3294 H   0  0  0  0  0  0  0  0  0  0  0  0
   28.4697   30.6882   18.6524 C   0  0  0  0  0  0  0  0  0  0  0  0
   27.5611   31.5078   19.2497 C   0  0  0  0  0  0  0  0  0  0  0  0
   26.0660   31.4114   19.4487 C   0  0  0  0  0  0  0  0  0  0  0  0
   25.6120   31.4375   20.8213 O   0  0  0  0  0  0  0  0  0  0  0  0
   24.7068   30.3889   21.2602 C   0  0  0  0  0  0  0  0  0  0  0  0
   25.1314   29.0051   21.4054 C   0  0  0  0  0  0  0  0  0  0  0  0
   24.2453   27.9811   21.8353 C   0  0  0  0  0  0  0  0  0  0  0  0
   22.9092   28.2976   22.1331 C   0  0  0  0  0  0  0  0  0  0  0  0
   22.4392   29.6305   22.0087 C   0  0  0  0  0  0  0  0  0  0  0  0
   23.3127   30.6931   21.5761 C   0  0  0  0  0  0  0  0  0  0  0  0
   21.1082   29.8184   22.3308 O   0  0  0  0  0  0  0  0  0  0  0  0
   20.5858   29.0911   22.6066 H   0  0  0  0  0  0  0  0  0  0  0  0
   22.7280   32.0723   21.4734 C   0  0  0  0  0  0  0  0  0  0  0  0
   22.5802   32.6085   20.3947 O   0  0  0  0  0  0  0  0  0  0  0  0
   22.3747   32.6710   22.6351 O   0  0  0  0  0  0  0  0  0  0  0  0
   21.0590   33.2880   22.7497 C   0  0  0  0  0  0  0  0  0  0  0  0
  1  2  2  0  0  0
  1  6  1  0  0  0
  2  3  1  0  0  0
  2  7  1  0  0  0
  3  4  2  0  0  0
  4  5  1  0  0  0
  4 19  1  0  0  0
  5  6  2  0  0  0
  7  8  1  0  0  0
  7 11  2  0  0  0
  8  9  1  0  0  0
  9 10  2  0  0  0
 10 11  1  0  0  0
 10 12  1  0  0  0
 11 16  1  0  0  0
 12 13  1  0  0  0
 12 14  2  0  0  0
 19 20  2  0  0  0
 23 24  2  0  0  0
 23 28  1  0  0  0
 23 22  1  0  0  0
 24 25  1  0  0  0
 25 26  2  0  0  0
 26 27  1  0  0  0
 27 28  2  0  0  0
 27 29  1  0  0  0
 28 31  1  0  0  0
 31 32  2  0  0  0
 31 33  1  0  0  0
 33 34  1  0  0  0
 22 21  1  0  0  0
 21 20  1  0  0  0
 16 17  1  0  0  0
 13 15  1  0  0  0
 29 30  1  0  0  0
 17 18  1  0  0  0
M  END
> <minimizedAffinity>
-8.69515

$$$$
1XBO_IX1_A_322


 34 36  0  0  0  0  0  0  0  0999 V2000
   32.4061   32.3998   17.0187 C   0  0  0  0  0  0  0  0  0  0  0  0
   32.3734   31.3301   17.9717 C   0  0  0  0  0  0  0  0  0  0  0  0
   31.1471   30.6198   18.1451 C   0  0  0  0  0  0  0  0  0  0  0  0
   29.9796   30.9500   17.3995 C   0  0  0  0  0  0  0  0  0  0  0  0
   30.0337   32.0227   16.4484 C   0  0  0  0  0  0  0  0  0  0  0  0
   31.2448   32.7398   16.2631 C   0  0  0  0  0  0  0  0  0  0  0  0
   33.5457   30.9039   18.8179 C   0  0  0  0  0  0  0  0  0  0  0  0
   34.8143   31.1750   18.3291 O   0  0  0  0  0  0  0  0  0  0  0  0
   35.7298   30.6803   19.2676 N   0  0  0  0  0  0  0  0  0  0  0  0
   35.0539   30.1255   20.2988 C   0  0  0  0  0  0  0  0  0  0  0  0
   33.6032   30.2657   20.0263 C   0  0  0  0  0  0  0  0  0  0  0  0
   35.7283   29.4715   21.5145 C   0  0  0  0  0  0  0  0  0  0  0  0
   36.2921   30.3205   22.4168 O   0  0  0  0  0  0  0  0  0  0  0  0
   35.7276   28.2701   21.6528 O   0  0  0  0  0  0  0  0  0  0  0  0
   36.2688   31.2454   22.2679 H   0  0  0  0  0  0  0  0  0  0  0  0
   32.5632   29.7384   21.0029 C   0  0  0  0  0  0  0  0  0  0  0  0
   32.9148   28.4703   21.5353 O   0  0  0  0  0  0  0  0  0  0  0  0
   32.9778   27.8234   20.8153 H   0  0  0  0  0  0  0  0  0  0  0  0
   28.7342   30.1790   17.6307 C   0  0  0  0  0  0  0  0  0  0  0  0
   27.9814   30.5701   18.6958 C   0  0  0  0  0  0  0  0  0  0  0  0
   26.6804   30.0639   19.2749 C   0  0  0  0  0  0  0  0  0  0  0  0
   26.7053   29.7349   20.6828 O   0  0  0  0  0  0  0  0  0  0  0  0
   25.4385   29.6773   21.3921 C   0  0  0  0  0  0  0  0  0  0  0  0
   24.8336   30.8521   22.0006 C   0  0  0  0  0  0  0  0  0  0  0  0
   23.5944   30.7944   22.6932 C   0  0  0  0  0  0  0  0  0  0  0  0
   22.9170   29.5685   22.8054 C   0  0  0  0  0  0  0  0  0  0  0  0
   23.4602   28.3897   22.2322 C   0  0  0  0  0  0  0  0  0  0  0  0
   24.7149   28.4142   21.5220 C   0  0  0  0  0  0  0  0  0  0  0  0
   22.7028   27.2467   22.4070 O   0  0  0  0  0  0  0  0  0  0  0  0
   21.8938   27.2882   22.8778 H   0  0  0  0  0  0  0  0  0  0  0  0
   25.2123   27.1185   20.9491 C   0  0  0  0  0  0  0  0  0  0  0  0
   25.5719   26.2135   21.6733 O   0  0  0  0  0  0  0  0  0  0  0  0
   25.2299   27.0176   19.5992 O   0  0  0  0  0  0  0  0  0  0  0  0
   26.3645   26.3772   18.9454 C   0  0  0  0  0  0  0  0  0  0  0  0
  1  2  2  0  0  0
  1  6  1  0  0  0
  2  3  1  0  0  0
  2  7  1  0  0  0
  3  4  2  0  0  0
  4  5  1  0  0  0
  4 19  1  0  0  0
  5  6  2  0  0  0
  7  8  1  0  0  0
  7 11  2  0  0  0
  8  9  1  0  0  0
  9 10  2  0  0  0
 10 11  1  0  0  0
 10 12  1  0  0  0
 11 16  1  0  0  0
 12 13  1  0  0  0
 12 14  2  0  0  0
 19 20  2  0  0  0
 23 24  2  0  0  0
 23 28  1  0  0  0
 23 22  1  0  0  0
 24 25  1  0  0  0
 25 26  2  0  0  0
 26 27  1  0  0  0
 27 28  2  0  0  0
 27 29  1  0  0  0
 28 31  1  0  0  0
 31 32  2  0  0  0
 31 33  1  0  0  0
 33 34  1  0  0  0
 22 21  1  0  0  0
 21 20  1  0  0  0
 16 17  1  0  0  0
 13 15  1  0  0  0
 29 30  1  0  0  0
 17 18  1  0  0  0
M  END
> <minimizedAffinity>
-8.62303

$$$$
1XBO_IX1_A_322


 34 36  0  0  0  0  0  0  0  0999 V2000
   32.2390   32.2500   18.9562 C   0  0  0  0  0  0  0  0  0  0  0  0
   32.1761   30.8622   19.3075 C   0  0  0  0  0  0  0  0  0  0  0  0
   31.1763   30.0547   18.6855 C   0  0  0  0  0  0  0  0  0  0  0  0
   30.2599   30.5957   17.7392 C   0  0  0  0  0  0  0  0  0  0  0  0
   30.3411   31.9871   17.3991 C   0  0  0  0  0  0  0  0  0  0  0  0
   31.3290   32.8049   18.0080 C   0  0  0  0  0  0  0  0  0  0  0  0
   33.0891   30.1903   20.3009 C   0  0  0  0  0  0  0  0  0  0  0  0
   32.5042   29.6404   21.4310 O   0  0  0  0  0  0  0  0  0  0  0  0
   33.5376   29.0930   22.2028 N   0  0  0  0  0  0  0  0  0  0  0  0
   34.7174   29.2948   21.5739 C   0  0  0  0  0  0  0  0  0  0  0  0
   34.4458   30.0164   20.3074 C   0  0  0  0  0  0  0  0  0  0  0  0
   36.0751   28.8370   22.1283 C   0  0  0  0  0  0  0  0  0  0  0  0
   36.8678   29.8108   22.6539 O   0  0  0  0  0  0  0  0  0  0  0  0
   36.3920   27.6701   22.1086 O   0  0  0  0  0  0  0  0  0  0  0  0
   36.5808   30.7028   22.6474 H   0  0  0  0  0  0  0  0  0  0  0  0
   35.5731   30.3980   19.3603 C   0  0  0  0  0  0  0  0  0  0  0  0
   36.4890   31.3092   19.9485 O   0  0  0  0  0  0  0  0  0  0  0  0
   36.0257   32.1297   20.1791 H   0  0  0  0  0  0  0  0  0  0  0  0
   29.2396   29.7063   17.1334 C   0  0  0  0  0  0  0  0  0  0  0  0
   27.9417   30.0293   17.3888 C   0  0  0  0  0  0  0  0  0  0  0  0
   26.6283   29.4007   16.9838 C   0  0  0  0  0  0  0  0  0  0  0  0
   25.6685   29.2099   18.0483 O   0  0  0  0  0  0  0  0  0  0  0  0
   25.7978   28.0245   18.8785 C   0  0  0  0  0  0  0  0  0  0  0  0
   26.3626   26.7812   18.3769 C   0  0  0  0  0  0  0  0  0  0  0  0
   26.4890   25.6231   19.1902 C   0  0  0  0  0  0  0  0  0  0  0  0
   26.0573   25.6616   20.5267 C   0  0  0  0  0  0  0  0  0  0  0  0
   25.4977   26.8470   21.0696 C   0  0  0  0  0  0  0  0  0  0  0  0
   25.3563   28.0396   20.2717 C   0  0  0  0  0  0  0  0  0  0  0  0
   25.1115   26.7631   22.3942 O   0  0  0  0  0  0  0  0  0  0  0  0
   25.2266   25.9617   22.8659 H   0  0  0  0  0  0  0  0  0  0  0  0
   24.7530   29.2466   20.9303 C   0  0  0  0  0  0  0  0  0  0  0  0
   23.5977   29.2423   21.3020 O   0  0  0  0  0  0  0  0  0  0  0  0
   25.5617   30.3206   21.0889 O   0  0  0  0  0  0  0  0  0  0  0  0
   25.4369   31.1379   22.2895 C   0  0  0  0  0  0  0  0  0  0  0  0
  1  2  2  0  0  0
  1  6  1  0  0  0
  2  3  1  0  0  0
  2  7  1  0  0  0
  3  4  2  0  0  0
  4  5  1  0  0  0
  4 19  1  0  0  0
  5  6  2  0  0  0
  7  8  1  0  0  0
  7 11  2  0  0  0
  8  9  1  0  0  0
  9 10  2  0  0  0
 10 11  1  0  0  0
 10 12  1  0  0  0
 11 16  1  0  0  0
 12 13  1  0  0  0
 12 14  2  0  0  0
 19 20  2  0  0  0
 23 24  2  0  0  0
 23 28  1  0  0  0
 23 22  1  0  0  0
 24 25  1  0  0  0
 25 26  2  0  0  0
 26 27  1  0  0  0
 27 28  2  0  0  0
 27 29  1  0  0  0
 28 31  1  0  0  0
 31 32  2  0  0  0
 31 33  1  0  0  0
 33 34  1  0  0  0
 22 21  1  0  0  0
 21 20  1  0  0  0
 16 17  1  0  0  0
 13 15  1  0  0  0
 29 30  1  0  0  0
 17 18  1  0  0  0
M  END
> <minimizedAffinity>
-8.60973

$$$$
1XBO_IX1_A_322


 34 36  0  0  0  0  0  0  0  0999 V2000
   32.8173   31.7609   18.2781 C   0  0  0  0  0  0  0  0  0  0  0  0
   32.3246   30.9323   19.3383 C   0  0  0  0  0  0  0  0  0  0  0  0
   30.9109   30.8057   19.4927 C   0  0  0  0  0  0  0  0  0  0  0  0
   30.0008   31.4753   18.6257 C   0  0  0  0  0  0  0  0  0  0  0  0
   30.5143   32.2983   17.5687 C   0  0  0  0  0  0  0  0  0  0  0  0
   31.9173   32.4356   17.4006 C   0  0  0  0  0  0  0  0  0  0  0  0
   33.1970   30.1873   20.3160 C   0  0  0  0  0  0  0  0  0  0  0  0
   32.5608   29.4093   21.2708 O   0  0  0  0  0  0  0  0  0  0  0  0
   33.5619   28.8337   22.0644 N   0  0  0  0  0  0  0  0  0  0  0  0
   34.7719   29.2386   21.6172 C   0  0  0  0  0  0  0  0  0  0  0  0
   34.5567   30.1334   20.4547 C   0  0  0  0  0  0  0  0  0  0  0  0
   36.1065   28.8152   22.2496 C   0  0  0  0  0  0  0  0  0  0  0  0
   36.8653   29.8154   22.7755 O   0  0  0  0  0  0  0  0  0  0  0  0
   36.4343   27.6517   22.2865 O   0  0  0  0  0  0  0  0  0  0  0  0
   36.5710   30.7035   22.7238 H   0  0  0  0  0  0  0  0  0  0  0  0
   35.7284   30.7629   19.7170 C   0  0  0  0  0  0  0  0  0  0  0  0
   36.1128   30.0148   18.5735 O   0  0  0  0  0  0  0  0  0  0  0  0
   36.3963   29.1285   18.8472 H   0  0  0  0  0  0  0  0  0  0  0  0
   28.5433   31.3091   18.8426 C   0  0  0  0  0  0  0  0  0  0  0  0
   27.9557   30.2798   18.1722 C   0  0  0  0  0  0  0  0  0  0  0  0
   26.5317   29.7778   18.1055 C   0  0  0  0  0  0  0  0  0  0  0  0
   26.3626   28.3482   18.2423 O   0  0  0  0  0  0  0  0  0  0  0  0
   27.3772   27.4833   17.6646 C   0  0  0  0  0  0  0  0  0  0  0  0
   28.4090   27.9843   16.7698 C   0  0  0  0  0  0  0  0  0  0  0  0
   29.4009   27.1374   16.2064 C   0  0  0  0  0  0  0  0  0  0  0  0
   29.3992   25.7659   16.5116 C   0  0  0  0  0  0  0  0  0  0  0  0
   28.4162   25.2215   17.3779 C   0  0  0  0  0  0  0  0  0  0  0  0
   27.3966   26.0536   17.9672 C   0  0  0  0  0  0  0  0  0  0  0  0
   28.5182   23.8616   17.6038 O   0  0  0  0  0  0  0  0  0  0  0  0
   29.2017   23.3686   17.1943 H   0  0  0  0  0  0  0  0  0  0  0  0
   26.3979   25.3904   18.8713 C   0  0  0  0  0  0  0  0  0  0  0  0
   26.4805   25.4979   20.0773 O   0  0  0  0  0  0  0  0  0  0  0  0
   25.4118   24.6822   18.2723 O   0  0  0  0  0  0  0  0  0  0  0  0
   25.3669   23.2352   18.4424 C   0  0  0  0  0  0  0  0  0  0  0  0
  1  2  2  0  0  0
  1  6  1  0  0  0
  2  3  1  0  0  0
  2  7  1  0  0  0
  3  4  2  0  0  0
  4  5  1  0  0  0
  4 19  1  0  0  0
  5  6  2  0  0  0
  7  8  1  0  0  0
  7 11  2  0  0  0
  8  9  1  0  0  0
  9 10  2  0  0  0
 10 11  1  0  0  0
 10 12  1  0  0  0
 11 16  1  0  0  0
 12 13  1  0  0  0
 12 14  2  0  0  0
 19 20  2  0  0  0
 23 24  2  0  0  0
 23 28  1  0  0  0
 23 22  1  0  0  0
 24 25  1  0  0  0
 25 26  2  0  0  0
 26 27  1  0  0  0
 27 28  2  0  0  0
 27 29  1  0  0  0
 28 31  1  0  0  0
 31 32  2  0  0  0
 31 33  1  0  0  0
 33 34  1  0  0  0
 22 21  1  0  0  0
 21 20  1  0  0  0
 16 17  1  0  0  0
 13 15  1  0  0  0
 29 30  1  0  0  0
 17 18  1  0  0  0
M  END
> <minimizedAffinity>
-8.55943

$$$$
