5EH8_5O6_A_303


 15 15  0  0  0  0  0  0  0  0999 V2000
   17.5953    6.4731   14.6111 C   0  0  0  0  0  0  0  0  0  0  0  0
   16.2661    6.2483   14.9421 C   0  0  0  0  0  0  0  0  0  0  0  0
   15.8511    4.9799   15.3200 C   0  0  0  0  0  0  0  0  0  0  0  0
   16.7755    3.9624   15.3215 C   0  0  0  0  0  0  0  0  0  0  0  0
   18.1109    4.1862   15.0090 C   0  0  0  0  0  0  0  0  0  0  0  0
   18.5129    5.4487   14.6260 C   0  0  0  0  0  0  0  0  0  0  0  0
   16.3139    2.5995   15.7487 C   0  0  0  0  0  0  0  0  0  0  0  0
   16.7812    1.3698   14.9880 C   0  0  0  0  0  0  0  0  0  0  0  0
   15.4838    2.6044   16.8167 C   0  0  0  0  0  0  0  0  0  0  0  0
   14.8379    1.3843   17.4309 C   0  0  0  0  0  0  0  0  0  0  0  0
   13.5915    1.2321   17.3047 O   0  0  0  0  0  0  0  0  0  0  0  0
   15.5180    0.5082   18.0118 O   0  0  0  0  0  0  0  0  0  0  0  0
   13.0812    1.8869   16.8703 H   0  0  0  0  0  0  0  0  0  0  0  0
   19.1026    8.2693   14.9406 C   0  0  0  0  0  0  0  0  0  0  0  0
   18.0071    7.7621   14.2168 O   0  0  0  0  0  0  0  0  0  0  0  0
  6  5  2  0  0  0
  6  1  1  0  0  0
 15  1  1  0  0  0
 15 14  1  0  0  0
  5  4  1  0  0  0
  1  2  2  0  0  0
  4  7  1  0  0  0
  4  3  2  0  0  0
  2  3  1  0  0  0
  7  8  1  0  0  0
  7  9  2  0  0  0
  9 10  1  0  0  0
 12 10  2  0  0  0
 10 11  1  0  0  0
 11 13  1  0  0  0
M  END
> <minimizedAffinity>
-6.10855

$$$$
5EH8_5O6_A_303


 15 15  0  0  0  0  0  0  0  0999 V2000
   15.3951    3.0045   16.4198 C   0  0  0  0  0  0  0  0  0  0  0  0
   15.2377    3.9023   15.3729 C   0  0  0  0  0  0  0  0  0  0  0  0
   15.8040    3.6306   14.1362 C   0  0  0  0  0  0  0  0  0  0  0  0
   16.5437    2.4806   13.9936 C   0  0  0  0  0  0  0  0  0  0  0  0
   16.6885    1.5700   15.0332 C   0  0  0  0  0  0  0  0  0  0  0  0
   16.1293    1.8524   16.2619 C   0  0  0  0  0  0  0  0  0  0  0  0
   17.1360    2.1933   12.6447 C   0  0  0  0  0  0  0  0  0  0  0  0
   18.0717    3.2017   11.9993 C   0  0  0  0  0  0  0  0  0  0  0  0
   16.7540    1.0103   12.1115 C   0  0  0  0  0  0  0  0  0  0  0  0
   17.1625    0.4874   10.7541 C   0  0  0  0  0  0  0  0  0  0  0  0
   16.4187    0.7306    9.7639 O   0  0  0  0  0  0  0  0  0  0  0  0
   18.2383   -0.1315   10.5895 O   0  0  0  0  0  0  0  0  0  0  0  0
   15.6133    1.1936    9.8855 H   0  0  0  0  0  0  0  0  0  0  0  0
   14.8811    2.2298   18.5976 C   0  0  0  0  0  0  0  0  0  0  0  0
   14.8265    3.2931   17.6769 O   0  0  0  0  0  0  0  0  0  0  0  0
  6  5  2  0  0  0
  6  1  1  0  0  0
 15  1  1  0  0  0
 15 14  1  0  0  0
  5  4  1  0  0  0
  1  2  2  0  0  0
  4  7  1  0  0  0
  4  3  2  0  0  0
  2  3  1  0  0  0
  7  8  1  0  0  0
  7  9  2  0  0  0
  9 10  1  0  0  0
 12 10  2  0  0  0
 10 11  1  0  0  0
 11 13  1  0  0  0
M  END
> <minimizedAffinity>
-6.09576

$$$$
5EH8_5O6_A_303


 15 15  0  0  0  0  0  0  0  0999 V2000
   15.2507    2.0963   16.9947 C   0  0  0  0  0  0  0  0  0  0  0  0
   16.1284    1.1934   16.4104 C   0  0  0  0  0  0  0  0  0  0  0  0
   16.7223    1.4933   15.1933 C   0  0  0  0  0  0  0  0  0  0  0  0
   16.3916    2.6773   14.5779 C   0  0  0  0  0  0  0  0  0  0  0  0
   15.5280    3.5924   15.1676 C   0  0  0  0  0  0  0  0  0  0  0  0
   14.9353    3.2822   16.3737 C   0  0  0  0  0  0  0  0  0  0  0  0
   17.0556    2.9941   13.2696 C   0  0  0  0  0  0  0  0  0  0  0  0
   17.8836    4.2604   13.1287 C   0  0  0  0  0  0  0  0  0  0  0  0
   16.8347    2.0780   12.2991 C   0  0  0  0  0  0  0  0  0  0  0  0
   17.3447    2.1640   10.8795 C   0  0  0  0  0  0  0  0  0  0  0  0
   16.7791    2.9611   10.0813 O   0  0  0  0  0  0  0  0  0  0  0  0
   18.3385    1.5029   10.5017 O   0  0  0  0  0  0  0  0  0  0  0  0
   16.0352    3.4566   10.3626 H   0  0  0  0  0  0  0  0  0  0  0  0
   14.8654    2.7242   19.2451 C   0  0  0  0  0  0  0  0  0  0  0  0
   14.6420    1.7794   18.2259 O   0  0  0  0  0  0  0  0  0  0  0  0
  6  5  2  0  0  0
  6  1  1  0  0  0
 15  1  1  0  0  0
 15 14  1  0  0  0
  5  4  1  0  0  0
  1  2  2  0  0  0
  4  7  1  0  0  0
  4  3  2  0  0  0
  2  3  1  0  0  0
  7  8  1  0  0  0
  7  9  2  0  0  0
  9 10  1  0  0  0
 12 10  2  0  0  0
 10 11  1  0  0  0
 11 13  1  0  0  0
M  END
> <minimizedAffinity>
-5.84793

$$$$
5EH8_5O6_A_303


 15 15  0  0  0  0  0  0  0  0999 V2000
   18.9237    6.8517   14.0837 C   0  0  0  0  0  0  0  0  0  0  0  0
   19.3789    5.5425   14.0096 C   0  0  0  0  0  0  0  0  0  0  0  0
   18.5785    4.5040   14.4620 C   0  0  0  0  0  0  0  0  0  0  0  0
   17.3555    4.8112   15.0098 C   0  0  0  0  0  0  0  0  0  0  0  0
   16.8879    6.1184   15.0692 C   0  0  0  0  0  0  0  0  0  0  0  0
   17.6940    7.1455   14.6250 C   0  0  0  0  0  0  0  0  0  0  0  0
   16.4948    3.6748   15.4795 C   0  0  0  0  0  0  0  0  0  0  0  0
   14.9899    3.8583   15.5824 C   0  0  0  0  0  0  0  0  0  0  0  0
   17.1799    2.5487   15.7835 C   0  0  0  0  0  0  0  0  0  0  0  0
   16.5748    1.2712   16.3171 C   0  0  0  0  0  0  0  0  0  0  0  0
   16.5307    0.2616   15.5612 O   0  0  0  0  0  0  0  0  0  0  0  0
   16.1681    1.1850   17.4980 O   0  0  0  0  0  0  0  0  0  0  0  0
   16.8347    0.3246   14.6771 H   0  0  0  0  0  0  0  0  0  0  0  0
   20.7371    7.5115   12.7114 C   0  0  0  0  0  0  0  0  0  0  0  0
   19.7476    7.9028   13.6328 O   0  0  0  0  0  0  0  0  0  0  0  0
  6  5  2  0  0  0
  6  1  1  0  0  0
 15  1  1  0  0  0
 15 14  1  0  0  0
  5  4  1  0  0  0
  1  2  2  0  0  0
  4  7  1  0  0  0
  4  3  2  0  0  0
  2  3  1  0  0  0
  7  8  1  0  0  0
  7  9  2  0  0  0
  9 10  1  0  0  0
 12 10  2  0  0  0
 10 11  1  0  0  0
 11 13  1  0  0  0
M  END
> <minimizedAffinity>
-5.83763

$$$$
5EH8_5O6_A_303


 15 15  0  0  0  0  0  0  0  0999 V2000
   15.3229    3.0471   16.1917 C   0  0  0  0  0  0  0  0  0  0  0  0
   16.6606    2.6922   16.0848 C   0  0  0  0  0  0  0  0  0  0  0  0
   17.5756    3.5904   15.5555 C   0  0  0  0  0  0  0  0  0  0  0  0
   17.1164    4.8089   15.1148 C   0  0  0  0  0  0  0  0  0  0  0  0
   15.7816    5.1758   15.2367 C   0  0  0  0  0  0  0  0  0  0  0  0
   14.8774    4.2732   15.7562 C   0  0  0  0  0  0  0  0  0  0  0  0
   18.1218    5.7755   14.5600 C   0  0  0  0  0  0  0  0  0  0  0  0
   19.3149    5.2579   13.7741 C   0  0  0  0  0  0  0  0  0  0  0  0
   17.8537    7.0729   14.8335 C   0  0  0  0  0  0  0  0  0  0  0  0
   18.7146    8.2490   14.4353 C   0  0  0  0  0  0  0  0  0  0  0  0
   19.5295    8.7146   15.2791 O   0  0  0  0  0  0  0  0  0  0  0  0
   18.6689    8.7302   13.2804 O   0  0  0  0  0  0  0  0  0  0  0  0
   19.5648    8.3555   16.1438 H   0  0  0  0  0  0  0  0  0  0  0  0
   14.9763    1.0855   17.4719 C   0  0  0  0  0  0  0  0  0  0  0  0
   14.3971    2.1247   16.7197 O   0  0  0  0  0  0  0  0  0  0  0  0
  6  5  2  0  0  0
  6  1  1  0  0  0
 15  1  1  0  0  0
 15 14  1  0  0  0
  5  4  1  0  0  0
  1  2  2  0  0  0
  4  7  1  0  0  0
  4  3  2  0  0  0
  2  3  1  0  0  0
  7  8  1  0  0  0
  7  9  2  0  0  0
  9 10  1  0  0  0
 12 10  2  0  0  0
 10 11  1  0  0  0
 11 13  1  0  0  0
M  END
> <minimizedAffinity>
-5.65816

$$$$
5EH8_5O6_A_303


 15 15  0  0  0  0  0  0  0  0999 V2000
   18.3287    3.8930   12.3713 C   0  0  0  0  0  0  0  0  0  0  0  0
   18.2773    4.7664   13.4490 C   0  0  0  0  0  0  0  0  0  0  0  0
   17.4389    4.4961   14.5205 C   0  0  0  0  0  0  0  0  0  0  0  0
   16.6478    3.3731   14.4653 C   0  0  0  0  0  0  0  0  0  0  0  0
   16.7093    2.4863   13.3973 C   0  0  0  0  0  0  0  0  0  0  0  0
   17.5393    2.7674   12.3322 C   0  0  0  0  0  0  0  0  0  0  0  0
   15.7585    3.0864   15.6400 C   0  0  0  0  0  0  0  0  0  0  0  0
   14.9078    4.1969   16.2334 C   0  0  0  0  0  0  0  0  0  0  0  0
   15.8108    1.8070   16.0762 C   0  0  0  0  0  0  0  0  0  0  0  0
   15.0551    1.2531   17.2615 C   0  0  0  0  0  0  0  0  0  0  0  0
   13.7935    1.2529   17.2276 O   0  0  0  0  0  0  0  0  0  0  0  0
   15.6531    0.7547   18.2421 O   0  0  0  0  0  0  0  0  0  0  0  0
   13.3445    1.6255   16.4944 H   0  0  0  0  0  0  0  0  0  0  0  0
   20.4107    4.7502   11.6383 C   0  0  0  0  0  0  0  0  0  0  0  0
   19.1743    4.1804   11.2809 O   0  0  0  0  0  0  0  0  0  0  0  0
  6  5  2  0  0  0
  6  1  1  0  0  0
 15  1  1  0  0  0
 15 14  1  0  0  0
  5  4  1  0  0  0
  1  2  2  0  0  0
  4  7  1  0  0  0
  4  3  2  0  0  0
  2  3  1  0  0  0
  7  8  1  0  0  0
  7  9  2  0  0  0
  9 10  1  0  0  0
 12 10  2  0  0  0
 10 11  1  0  0  0
 11 13  1  0  0  0
M  END
> <minimizedAffinity>
-5.59830

$$$$
5EH8_5O6_A_303


 15 15  0  0  0  0  0  0  0  0999 V2000
   15.9764    2.5380   16.5082 C   0  0  0  0  0  0  0  0  0  0  0  0
   17.2649    2.7053   16.0198 C   0  0  0  0  0  0  0  0  0  0  0  0
   17.5780    3.8223   15.2593 C   0  0  0  0  0  0  0  0  0  0  0  0
   16.5791    4.7245   14.9797 C   0  0  0  0  0  0  0  0  0  0  0  0
   15.2925    4.5708   15.4817 C   0  0  0  0  0  0  0  0  0  0  0  0
   14.9879    3.4528   16.2298 C   0  0  0  0  0  0  0  0  0  0  0  0
   16.9383    5.9359   14.1695 C   0  0  0  0  0  0  0  0  0  0  0  0
   17.6311    7.1129   14.8355 C   0  0  0  0  0  0  0  0  0  0  0  0
   16.5870    5.8555   12.8657 C   0  0  0  0  0  0  0  0  0  0  0  0
   16.7890    6.9412   11.8345 C   0  0  0  0  0  0  0  0  0  0  0  0
   17.8228    6.9034   11.1116 O   0  0  0  0  0  0  0  0  0  0  0  0
   15.9335    7.8372   11.6538 O   0  0  0  0  0  0  0  0  0  0  0  0
   18.4639    6.2334   11.2457 H   0  0  0  0  0  0  0  0  0  0  0  0
   14.2878    1.2166   17.5130 C   0  0  0  0  0  0  0  0  0  0  0  0
   15.6628    1.3945   17.2704 O   0  0  0  0  0  0  0  0  0  0  0  0
  6  5  2  0  0  0
  6  1  1  0  0  0
 15  1  1  0  0  0
 15 14  1  0  0  0
  5  4  1  0  0  0
  1  2  2  0  0  0
  4  7  1  0  0  0
  4  3  2  0  0  0
  2  3  1  0  0  0
  7  8  1  0  0  0
  7  9  2  0  0  0
  9 10  1  0  0  0
 12 10  2  0  0  0
 10 11  1  0  0  0
 11 13  1  0  0  0
M  END
> <minimizedAffinity>
-5.49705

$$$$
5EH8_5O6_A_303


 15 15  0  0  0  0  0  0  0  0999 V2000
   17.3741    5.4144   12.7702 C   0  0  0  0  0  0  0  0  0  0  0  0
   17.1792    4.0819   12.4337 C   0  0  0  0  0  0  0  0  0  0  0  0
   16.7957    3.1706   13.4065 C   0  0  0  0  0  0  0  0  0  0  0  0
   16.6520    3.6153   14.6994 C   0  0  0  0  0  0  0  0  0  0  0  0
   16.8279    4.9516   15.0376 C   0  0  0  0  0  0  0  0  0  0  0  0
   17.2177    5.8491   14.0656 C   0  0  0  0  0  0  0  0  0  0  0  0
   16.2206    2.6200   15.7369 C   0  0  0  0  0  0  0  0  0  0  0  0
   16.9054    1.2659   15.8168 C   0  0  0  0  0  0  0  0  0  0  0  0
   15.2128    3.0481   16.5312 C   0  0  0  0  0  0  0  0  0  0  0  0
   14.5565    2.2409   17.6269 C   0  0  0  0  0  0  0  0  0  0  0  0
   14.8426    2.5062   18.8271 O   0  0  0  0  0  0  0  0  0  0  0  0
   13.7066    1.3588   17.3683 O   0  0  0  0  0  0  0  0  0  0  0  0
   15.4785    3.1661   19.0223 H   0  0  0  0  0  0  0  0  0  0  0  0
   18.0879    7.6152   12.2661 C   0  0  0  0  0  0  0  0  0  0  0  0
   17.7752    6.3323   11.7786 O   0  0  0  0  0  0  0  0  0  0  0  0
  6  5  2  0  0  0
  6  1  1  0  0  0
 15  1  1  0  0  0
 15 14  1  0  0  0
  5  4  1  0  0  0
  1  2  2  0  0  0
  4  7  1  0  0  0
  4  3  2  0  0  0
  2  3  1  0  0  0
  7  8  1  0  0  0
  7  9  2  0  0  0
  9 10  1  0  0  0
 12 10  2  0  0  0
 10 11  1  0  0  0
 11 13  1  0  0  0
M  END
> <minimizedAffinity>
-5.32528

$$$$
5EH8_5O6_A_303


 15 15  0  0  0  0  0  0  0  0999 V2000
   18.2553    0.0964   11.1733 C   0  0  0  0  0  0  0  0  0  0  0  0
   19.0786    1.1842   10.9172 C   0  0  0  0  0  0  0  0  0  0  0  0
   18.7236    2.4447   11.3744 C   0  0  0  0  0  0  0  0  0  0  0  0
   17.5327    2.5854   12.0468 C   0  0  0  0  0  0  0  0  0  0  0  0
   16.7143    1.4966   12.3217 C   0  0  0  0  0  0  0  0  0  0  0  0
   17.0710    0.2484   11.8558 C   0  0  0  0  0  0  0  0  0  0  0  0
   17.1712    3.9529   12.5491 C   0  0  0  0  0  0  0  0  0  0  0  0
   17.7470    5.1845   11.8705 C   0  0  0  0  0  0  0  0  0  0  0  0
   16.3324    3.9503   13.6103 C   0  0  0  0  0  0  0  0  0  0  0  0
   15.8391    5.1772   14.3412 C   0  0  0  0  0  0  0  0  0  0  0  0
   16.6221    5.7597   15.1413 O   0  0  0  0  0  0  0  0  0  0  0  0
   14.6984    5.6482   14.1302 O   0  0  0  0  0  0  0  0  0  0  0  0
   17.4761    5.4084   15.3002 H   0  0  0  0  0  0  0  0  0  0  0  0
   18.0969   -2.2504   11.4461 C   0  0  0  0  0  0  0  0  0  0  0  0
   18.6170   -1.1794   10.6954 O   0  0  0  0  0  0  0  0  0  0  0  0
  6  5  2  0  0  0
  6  1  1  0  0  0
 15  1  1  0  0  0
 15 14  1  0  0  0
  5  4  1  0  0  0
  1  2  2  0  0  0
  4  7  1  0  0  0
  4  3  2  0  0  0
  2  3  1  0  0  0
  7  8  1  0  0  0
  7  9  2  0  0  0
  9 10  1  0  0  0
 12 10  2  0  0  0
 10 11  1  0  0  0
 11 13  1  0  0  0
M  END
> <minimizedAffinity>
-5.32009

$$$$
5EH8_5O6_A_303


 15 15  0  0  0  0  0  0  0  0999 V2000
   17.6627    0.2603   11.5933 C   0  0  0  0  0  0  0  0  0  0  0  0
   18.8800    0.4786   10.9630 C   0  0  0  0  0  0  0  0  0  0  0  0
   19.3887    1.7653   10.8652 C   0  0  0  0  0  0  0  0  0  0  0  0
   18.6439    2.8037   11.3723 C   0  0  0  0  0  0  0  0  0  0  0  0
   17.4338    2.5881   12.0204 C   0  0  0  0  0  0  0  0  0  0  0  0
   16.9315    1.3065   12.1055 C   0  0  0  0  0  0  0  0  0  0  0  0
   19.2161    4.1877   11.2730 C   0  0  0  0  0  0  0  0  0  0  0  0
   19.1462    4.9424    9.9559 C   0  0  0  0  0  0  0  0  0  0  0  0
   19.7678    4.6437   12.4208 C   0  0  0  0  0  0  0  0  0  0  0  0
   20.4502    5.9804   12.5953 C   0  0  0  0  0  0  0  0  0  0  0  0
   21.6990    6.0480   12.4263 O   0  0  0  0  0  0  0  0  0  0  0  0
   19.7981    7.0178   12.8518 O   0  0  0  0  0  0  0  0  0  0  0  0
   22.1885    5.2724   12.2343 H   0  0  0  0  0  0  0  0  0  0  0  0
   18.0841   -2.0621   11.4043 C   0  0  0  0  0  0  0  0  0  0  0  0
   17.1466   -1.0486   11.6785 O   0  0  0  0  0  0  0  0  0  0  0  0
  6  5  2  0  0  0
  6  1  1  0  0  0
 15  1  1  0  0  0
 15 14  1  0  0  0
  5  4  1  0  0  0
  1  2  2  0  0  0
  4  7  1  0  0  0
  4  3  2  0  0  0
  2  3  1  0  0  0
  7  8  1  0  0  0
  7  9  2  0  0  0
  9 10  1  0  0  0
 12 10  2  0  0  0
 10 11  1  0  0  0
 11 13  1  0  0  0
M  END
> <minimizedAffinity>
-5.10168

$$$$
