1QXK_429_A_322


 42 43  0  0  0  0  0  0  0  0999 V2000
   31.4341   31.8668   16.6798 C   0  0  0  0  0  0  0  0  0  0  0  0
   30.8033   33.0102   16.0004 N   0  0  0  0  0  0  0  0  0  0  0  0
   30.9472   33.2352   14.6762 C   0  0  0  0  0  0  0  0  0  0  0  0
   31.9928   33.1258   14.0389 O   0  0  0  0  0  0  0  0  0  0  0  0
   29.6379   33.6562   14.0027 C   0  0  0  0  0  0  0  0  0  0  0  0
   30.2565   33.6340   16.5306 H   0  0  0  0  0  0  0  0  0  0  0  0
   30.7612   30.5736   16.1553 C   0  0  0  0  0  0  0  0  0  0  0  0
   29.4494   30.4970   16.4933 N   0  0  0  0  0  0  0  0  0  0  0  0
   31.3759   29.7350   15.5072 O   0  0  0  0  0  0  0  0  0  0  0  0
   28.8902   31.3047   16.4290 H   0  0  0  0  0  0  0  0  0  0  0  0
   28.8449   29.2490   16.9497 C   0  0  0  0  0  0  0  0  0  0  0  0
   28.4082   29.4155   18.4093 C   0  0  0  0  0  0  0  0  0  0  0  0
   26.8881   29.6199   18.5860 C   0  0  0  0  0  0  0  0  0  0  0  0
   26.5645   30.4211   19.8469 C   0  0  0  0  0  0  0  0  0  0  0  0
   26.3111   29.5191   20.9173 O   0  0  0  0  0  0  0  0  0  0  0  0
   25.0415   29.5997   21.5358 C   0  0  0  0  0  0  0  0  0  0  0  0
   24.4445   30.8618   21.8990 C   0  0  0  0  0  0  0  0  0  0  0  0
   23.1753   30.9183   22.5176 C   0  0  0  0  0  0  0  0  0  0  0  0
   22.4760   29.7223   22.7905 C   0  0  0  0  0  0  0  0  0  0  0  0
   23.0312   28.4658   22.4500 C   0  0  0  0  0  0  0  0  0  0  0  0
   24.3187   28.3804   21.8212 C   0  0  0  0  0  0  0  0  0  0  0  0
   22.2814   27.3433   22.7537 O   0  0  0  0  0  0  0  0  0  0  0  0
   21.4444   27.4360   23.1645 H   0  0  0  0  0  0  0  0  0  0  0  0
   24.8600   27.0357   21.4851 C   0  0  0  0  0  0  0  0  0  0  0  0
   25.2537   26.2915   22.3537 O   0  0  0  0  0  0  0  0  0  0  0  0
   24.8825   26.7103   20.1845 O   0  0  0  0  0  0  0  0  0  0  0  0
   25.9578   25.8759   19.7110 C   0  0  0  0  0  0  0  0  0  0  0  0
   31.2726   31.9923   18.2369 C   0  0  0  0  0  0  0  0  0  0  0  0
   34.4070   30.1508   19.5112 C   0  0  0  0  0  0  0  0  0  0  0  0
   33.8538   29.2362   20.4443 C   0  0  0  0  0  0  0  0  0  0  0  0
   32.4431   29.2326   20.6679 C   0  0  0  0  0  0  0  0  0  0  0  0
   31.6156   30.1236   19.9582 C   0  0  0  0  0  0  0  0  0  0  0  0
   32.1677   31.0381   19.0151 C   0  0  0  0  0  0  0  0  0  0  0  0
   33.5695   31.0388   18.8020 C   0  0  0  0  0  0  0  0  0  0  0  0
   35.7725   30.1624   19.2880 O   0  0  0  0  0  0  0  0  0  0  0  0
   36.3292   29.5733   19.7582 H   0  0  0  0  0  0  0  0  0  0  0  0
   34.7460   28.3803   21.0934 O   0  0  0  0  0  0  0  0  0  0  0  0
   34.2535   27.0947   21.4014 C   0  0  0  0  0  0  0  0  0  0  0  0
   35.3897   26.3016   21.9893 C   0  0  0  0  0  0  0  0  0  0  0  0
   36.5457   26.5764   21.3608 O   0  0  0  0  0  0  0  0  0  0  0  0
   35.2826   25.5295   22.8865 O   0  0  0  0  0  0  0  0  0  0  0  0
   36.5613   27.1971   20.6590 H   0  0  0  0  0  0  0  0  0  0  0  0
 29 30  2  0  0  0
 29 34  1  0  0  0
 29 35  1  0  0  0
 30 31  1  0  0  0
 30 37  1  0  0  0
 31 32  2  0  0  0
 32 33  1  0  0  0
 33 34  2  0  0  0
 33 28  1  0  0  0
 37 38  1  0  0  0
  1  2  1  0  0  0
  1  7  1  0  0  0
  1 28  1  0  0  0
  2  3  1  0  0  0
  3  4  2  0  0  0
  3  5  1  0  0  0
  7  8  1  0  0  0
  7  9  2  0  0  0
  8 11  1  0  0  0
 11 12  1  0  0  0
 12 13  1  0  0  0
 14 13  1  0  0  0
 14 15  1  0  0  0
 15 16  1  0  0  0
 38 39  1  0  0  0
 39 40  1  0  0  0
 39 41  2  0  0  0
 16 17  2  0  0  0
 16 21  1  0  0  0
 17 18  1  0  0  0
 18 19  2  0  0  0
 19 20  1  0  0  0
 20 21  2  0  0  0
 20 22  1  0  0  0
 21 24  1  0  0  0
 24 25  2  0  0  0
 24 26  1  0  0  0
 26 27  1  0  0  0
  2  6  1  0  0  0
  8 10  1  0  0  0
 40 42  1  0  0  0
 22 23  1  0  0  0
 35 36  1  0  0  0
M  END
> <minimizedAffinity>
-9.24089

$$$$
1QXK_429_A_322


 42 43  0  0  0  0  0  0  0  0999 V2000
   31.7116   32.1189   16.6823 C   0  0  0  0  0  0  0  0  0  0  0  0
   30.9242   33.1704   16.0181 N   0  0  0  0  0  0  0  0  0  0  0  0
   31.2425   33.6509   14.7964 C   0  0  0  0  0  0  0  0  0  0  0  0
   32.3763   33.9169   14.4027 O   0  0  0  0  0  0  0  0  0  0  0  0
   30.0162   33.8446   13.8997 C   0  0  0  0  0  0  0  0  0  0  0  0
   30.1365   33.5368   16.4813 H   0  0  0  0  0  0  0  0  0  0  0  0
   31.5913   30.8287   15.8332 C   0  0  0  0  0  0  0  0  0  0  0  0
   30.3271   30.3366   15.8124 N   0  0  0  0  0  0  0  0  0  0  0  0
   32.5528   30.3360   15.2553 O   0  0  0  0  0  0  0  0  0  0  0  0
   29.5716   30.9608   15.7182 H   0  0  0  0  0  0  0  0  0  0  0  0
   30.0568   28.9065   15.9260 C   0  0  0  0  0  0  0  0  0  0  0  0
   29.5144   28.6154   17.3296 C   0  0  0  0  0  0  0  0  0  0  0  0
   28.2621   29.4401   17.6975 C   0  0  0  0  0  0  0  0  0  0  0  0
   27.1083   29.1858   16.7276 C   0  0  0  0  0  0  0  0  0  0  0  0
   25.9454   28.8404   17.4704 O   0  0  0  0  0  0  0  0  0  0  0  0
   25.8961   27.5349   18.0127 C   0  0  0  0  0  0  0  0  0  0  0  0
   26.1653   26.3631   17.2155 C   0  0  0  0  0  0  0  0  0  0  0  0
   26.1087   25.0681   17.7782 C   0  0  0  0  0  0  0  0  0  0  0  0
   25.7803   24.9118   19.1427 C   0  0  0  0  0  0  0  0  0  0  0  0
   25.5083   26.0383   19.9550 C   0  0  0  0  0  0  0  0  0  0  0  0
   25.5586   27.3645   19.4083 C   0  0  0  0  0  0  0  0  0  0  0  0
   25.1928   25.7970   21.2804 O   0  0  0  0  0  0  0  0  0  0  0  0
   25.1692   24.9179   21.6039 H   0  0  0  0  0  0  0  0  0  0  0  0
   25.2621   28.5160   20.3029 C   0  0  0  0  0  0  0  0  0  0  0  0
   26.1566   29.1537   20.8091 O   0  0  0  0  0  0  0  0  0  0  0  0
   23.9663   28.7942   20.5068 O   0  0  0  0  0  0  0  0  0  0  0  0
   23.4018   29.9359   19.8326 C   0  0  0  0  0  0  0  0  0  0  0  0
   31.1907   31.8797   18.1444 C   0  0  0  0  0  0  0  0  0  0  0  0
   34.3487   30.1728   19.5420 C   0  0  0  0  0  0  0  0  0  0  0  0
   33.8007   29.2578   20.4779 C   0  0  0  0  0  0  0  0  0  0  0  0
   32.3852   29.2098   20.6625 C   0  0  0  0  0  0  0  0  0  0  0  0
   31.5483   30.0577   19.9122 C   0  0  0  0  0  0  0  0  0  0  0  0
   32.0955   30.9723   18.9663 C   0  0  0  0  0  0  0  0  0  0  0  0
   33.5019   31.0174   18.7920 C   0  0  0  0  0  0  0  0  0  0  0  0
   35.7188   30.2273   19.3564 O   0  0  0  0  0  0  0  0  0  0  0  0
   36.2816   29.6670   19.8537 H   0  0  0  0  0  0  0  0  0  0  0  0
   34.7029   28.4460   21.1686 O   0  0  0  0  0  0  0  0  0  0  0  0
   34.3170   27.0995   21.3361 C   0  0  0  0  0  0  0  0  0  0  0  0
   35.4673   26.3741   21.9812 C   0  0  0  0  0  0  0  0  0  0  0  0
   36.6152   26.6069   21.3217 O   0  0  0  0  0  0  0  0  0  0  0  0
   35.3765   25.6817   22.9429 O   0  0  0  0  0  0  0  0  0  0  0  0
   36.6181   27.1644   20.5686 H   0  0  0  0  0  0  0  0  0  0  0  0
 29 30  2  0  0  0
 29 34  1  0  0  0
 29 35  1  0  0  0
 30 31  1  0  0  0
 30 37  1  0  0  0
 31 32  2  0  0  0
 32 33  1  0  0  0
 33 34  2  0  0  0
 33 28  1  0  0  0
 37 38  1  0  0  0
  1  2  1  0  0  0
  1  7  1  0  0  0
  1 28  1  0  0  0
  2  3  1  0  0  0
  3  4  2  0  0  0
  3  5  1  0  0  0
  7  8  1  0  0  0
  7  9  2  0  0  0
  8 11  1  0  0  0
 11 12  1  0  0  0
 12 13  1  0  0  0
 14 13  1  0  0  0
 14 15  1  0  0  0
 15 16  1  0  0  0
 38 39  1  0  0  0
 39 40  1  0  0  0
 39 41  2  0  0  0
 16 17  2  0  0  0
 16 21  1  0  0  0
 17 18  1  0  0  0
 18 19  2  0  0  0
 19 20  1  0  0  0
 20 21  2  0  0  0
 20 22  1  0  0  0
 21 24  1  0  0  0
 24 25  2  0  0  0
 24 26  1  0  0  0
 26 27  1  0  0  0
  2  6  1  0  0  0
  8 10  1  0  0  0
 40 42  1  0  0  0
 22 23  1  0  0  0
 35 36  1  0  0  0
M  END
> <minimizedAffinity>
-8.43504

$$$$
1QXK_429_A_322


 42 43  0  0  0  0  0  0  0  0999 V2000
   30.0920   29.4840   17.7184 C   0  0  0  0  0  0  0  0  0  0  0  0
   30.5438   29.5451   16.3188 N   0  0  0  0  0  0  0  0  0  0  0  0
   30.7848   30.7139   15.6859 C   0  0  0  0  0  0  0  0  0  0  0  0
   30.0897   31.7253   15.7568 O   0  0  0  0  0  0  0  0  0  0  0  0
   32.0566   30.6730   14.8336 C   0  0  0  0  0  0  0  0  0  0  0  0
   30.6751   28.7031   15.8258 H   0  0  0  0  0  0  0  0  0  0  0  0
   28.5484   29.6166   17.7245 C   0  0  0  0  0  0  0  0  0  0  0  0
   28.0765   30.1379   18.8849 N   0  0  0  0  0  0  0  0  0  0  0  0
   27.8609   29.2801   16.7678 O   0  0  0  0  0  0  0  0  0  0  0  0
   28.5540   30.8919   19.3004 H   0  0  0  0  0  0  0  0  0  0  0  0
   26.8799   29.6107   19.5339 C   0  0  0  0  0  0  0  0  0  0  0  0
   26.3631   30.6481   20.5367 C   0  0  0  0  0  0  0  0  0  0  0  0
   25.4857   30.0492   21.6571 C   0  0  0  0  0  0  0  0  0  0  0  0
   24.5813   31.1029   22.2961 C   0  0  0  0  0  0  0  0  0  0  0  0
   23.4388   30.4603   22.8485 O   0  0  0  0  0  0  0  0  0  0  0  0
   22.2414   31.2120   22.8959 C   0  0  0  0  0  0  0  0  0  0  0  0
   22.0526   32.4036   22.1048 C   0  0  0  0  0  0  0  0  0  0  0  0
   20.8483   33.1398   22.1693 C   0  0  0  0  0  0  0  0  0  0  0  0
   19.8094   32.7088   23.0232 C   0  0  0  0  0  0  0  0  0  0  0  0
   19.9597   31.5456   23.8153 C   0  0  0  0  0  0  0  0  0  0  0  0
   21.1729   30.7798   23.7688 C   0  0  0  0  0  0  0  0  0  0  0  0
   18.8948   31.1942   24.6257 O   0  0  0  0  0  0  0  0  0  0  0  0
   18.1175   31.7173   24.6311 H   0  0  0  0  0  0  0  0  0  0  0  0
   21.2828   29.5661   24.6226 C   0  0  0  0  0  0  0  0  0  0  0  0
   22.0229   29.5464   25.5791 O   0  0  0  0  0  0  0  0  0  0  0  0
   20.5242   28.5183   24.2695 O   0  0  0  0  0  0  0  0  0  0  0  0
   20.7007   27.9649   22.9507 C   0  0  0  0  0  0  0  0  0  0  0  0
   30.7574   30.6283   18.5636 C   0  0  0  0  0  0  0  0  0  0  0  0
   34.4632   30.2753   19.5545 C   0  0  0  0  0  0  0  0  0  0  0  0
   34.3964   29.3431   20.6222 C   0  0  0  0  0  0  0  0  0  0  0  0
   33.1246   28.8367   21.0298 C   0  0  0  0  0  0  0  0  0  0  0  0
   31.9550   29.2552   20.3673 C   0  0  0  0  0  0  0  0  0  0  0  0
   32.0199   30.1856   19.2899 C   0  0  0  0  0  0  0  0  0  0  0  0
   33.2856   30.6875   18.8941 C   0  0  0  0  0  0  0  0  0  0  0  0
   35.6905   30.7722   19.1526 O   0  0  0  0  0  0  0  0  0  0  0  0
   36.4726   30.4992   19.5905 H   0  0  0  0  0  0  0  0  0  0  0  0
   35.6062   28.9736   21.2135 O   0  0  0  0  0  0  0  0  0  0  0  0
   35.5109   28.3556   22.4780 C   0  0  0  0  0  0  0  0  0  0  0  0
   35.7866   26.8880   22.2884 C   0  0  0  0  0  0  0  0  0  0  0  0
   36.5877   26.6806   21.2292 O   0  0  0  0  0  0  0  0  0  0  0  0
   35.3514   26.0234   22.9780 O   0  0  0  0  0  0  0  0  0  0  0  0
   36.8970   27.4081   20.7261 H   0  0  0  0  0  0  0  0  0  0  0  0
 29 30  2  0  0  0
 29 34  1  0  0  0
 29 35  1  0  0  0
 30 31  1  0  0  0
 30 37  1  0  0  0
 31 32  2  0  0  0
 32 33  1  0  0  0
 33 34  2  0  0  0
 33 28  1  0  0  0
 37 38  1  0  0  0
  1  2  1  0  0  0
  1  7  1  0  0  0
  1 28  1  0  0  0
  2  3  1  0  0  0
  3  4  2  0  0  0
  3  5  1  0  0  0
  7  8  1  0  0  0
  7  9  2  0  0  0
  8 11  1  0  0  0
 11 12  1  0  0  0
 12 13  1  0  0  0
 14 13  1  0  0  0
 14 15  1  0  0  0
 15 16  1  0  0  0
 38 39  1  0  0  0
 39 40  1  0  0  0
 39 41  2  0  0  0
 16 17  2  0  0  0
 16 21  1  0  0  0
 17 18  1  0  0  0
 18 19  2  0  0  0
 19 20  1  0  0  0
 20 21  2  0  0  0
 20 22  1  0  0  0
 21 24  1  0  0  0
 24 25  2  0  0  0
 24 26  1  0  0  0
 26 27  1  0  0  0
  2  6  1  0  0  0
  8 10  1  0  0  0
 40 42  1  0  0  0
 22 23  1  0  0  0
 35 36  1  0  0  0
M  END
> <minimizedAffinity>
-8.41187

$$$$
1QXK_429_A_322


 42 43  0  0  0  0  0  0  0  0999 V2000
   30.9815   31.3954   16.4399 C   0  0  0  0  0  0  0  0  0  0  0  0
   30.3116   32.4272   15.6315 N   0  0  0  0  0  0  0  0  0  0  0  0
   30.9457   33.1009   14.6472 C   0  0  0  0  0  0  0  0  0  0  0  0
   32.0895   33.5477   14.7047 O   0  0  0  0  0  0  0  0  0  0  0  0
   30.0814   33.2684   13.3941 C   0  0  0  0  0  0  0  0  0  0  0  0
   29.3667   32.6338   15.8149 H   0  0  0  0  0  0  0  0  0  0  0  0
   30.2964   30.0388   16.1393 C   0  0  0  0  0  0  0  0  0  0  0  0
   29.0836   29.9257   16.7369 N   0  0  0  0  0  0  0  0  0  0  0  0
   30.8204   29.1857   15.4330 O   0  0  0  0  0  0  0  0  0  0  0  0
   28.4758   30.7002   16.7374 H   0  0  0  0  0  0  0  0  0  0  0  0
   28.6556   28.6866   17.3792 C   0  0  0  0  0  0  0  0  0  0  0  0
   27.3224   28.2458   16.7650 C   0  0  0  0  0  0  0  0  0  0  0  0
   26.5944   27.1513   17.5749 C   0  0  0  0  0  0  0  0  0  0  0  0
   25.3326   27.6881   18.2505 C   0  0  0  0  0  0  0  0  0  0  0  0
   25.5031   27.6339   19.6617 O   0  0  0  0  0  0  0  0  0  0  0  0
   25.5870   28.8697   20.3447 C   0  0  0  0  0  0  0  0  0  0  0  0
   26.5937   29.8535   20.0286 C   0  0  0  0  0  0  0  0  0  0  0  0
   26.6596   31.0811   20.7253 C   0  0  0  0  0  0  0  0  0  0  0  0
   25.7289   31.3540   21.7517 C   0  0  0  0  0  0  0  0  0  0  0  0
   24.7285   30.4120   22.0904 C   0  0  0  0  0  0  0  0  0  0  0  0
   24.6398   29.1574   21.3986 C   0  0  0  0  0  0  0  0  0  0  0  0
   23.8580   30.7571   23.1090 O   0  0  0  0  0  0  0  0  0  0  0  0
   23.9450   31.5850   23.5392 H   0  0  0  0  0  0  0  0  0  0  0  0
   23.5717   28.1996   21.7936 C   0  0  0  0  0  0  0  0  0  0  0  0
   23.8449   27.1651   22.3577 O   0  0  0  0  0  0  0  0  0  0  0  0
   22.3139   28.5509   21.4895 O   0  0  0  0  0  0  0  0  0  0  0  0
   21.2783   28.2704   22.4515 C   0  0  0  0  0  0  0  0  0  0  0  0
   30.8887   31.7451   17.9681 C   0  0  0  0  0  0  0  0  0  0  0  0
   34.2023   30.4343   19.4315 C   0  0  0  0  0  0  0  0  0  0  0  0
   33.7492   29.5058   20.4042 C   0  0  0  0  0  0  0  0  0  0  0  0
   32.3458   29.3182   20.5916 C   0  0  0  0  0  0  0  0  0  0  0  0
   31.4278   30.0433   19.8081 C   0  0  0  0  0  0  0  0  0  0  0  0
   31.8801   30.9708   18.8255 C   0  0  0  0  0  0  0  0  0  0  0  0
   33.2748   31.1551   18.6485 C   0  0  0  0  0  0  0  0  0  0  0  0
   35.5599   30.6236   19.2428 O   0  0  0  0  0  0  0  0  0  0  0  0
   36.1762   30.1456   19.7621 H   0  0  0  0  0  0  0  0  0  0  0  0
   34.7286   28.8209   21.1266 O   0  0  0  0  0  0  0  0  0  0  0  0
   34.6381   27.4133   21.1063 C   0  0  0  0  0  0  0  0  0  0  0  0
   35.7935   26.8721   21.9049 C   0  0  0  0  0  0  0  0  0  0  0  0
   35.6585   27.1673   23.2093 O   0  0  0  0  0  0  0  0  0  0  0  0
   36.7088   26.2683   21.4464 O   0  0  0  0  0  0  0  0  0  0  0  0
   34.9107   27.6476   23.5060 H   0  0  0  0  0  0  0  0  0  0  0  0
 29 30  2  0  0  0
 29 34  1  0  0  0
 29 35  1  0  0  0
 30 31  1  0  0  0
 30 37  1  0  0  0
 31 32  2  0  0  0
 32 33  1  0  0  0
 33 34  2  0  0  0
 33 28  1  0  0  0
 37 38  1  0  0  0
  1  2  1  0  0  0
  1  7  1  0  0  0
  1 28  1  0  0  0
  2  3  1  0  0  0
  3  4  2  0  0  0
  3  5  1  0  0  0
  7  8  1  0  0  0
  7  9  2  0  0  0
  8 11  1  0  0  0
 11 12  1  0  0  0
 12 13  1  0  0  0
 14 13  1  0  0  0
 14 15  1  0  0  0
 15 16  1  0  0  0
 38 39  1  0  0  0
 39 40  1  0  0  0
 39 41  2  0  0  0
 16 17  2  0  0  0
 16 21  1  0  0  0
 17 18  1  0  0  0
 18 19  2  0  0  0
 19 20  1  0  0  0
 20 21  2  0  0  0
 20 22  1  0  0  0
 21 24  1  0  0  0
 24 25  2  0  0  0
 24 26  1  0  0  0
 26 27  1  0  0  0
  2  6  1  0  0  0
  8 10  1  0  0  0
 40 42  1  0  0  0
 22 23  1  0  0  0
 35 36  1  0  0  0
M  END
> <minimizedAffinity>
-8.38702

$$$$
1QXK_429_A_322


 42 43  0  0  0  0  0  0  0  0999 V2000
   31.3212   31.8773   16.7186 C   0  0  0  0  0  0  0  0  0  0  0  0
   30.8812   33.1159   16.0560 N   0  0  0  0  0  0  0  0  0  0  0  0
   31.2844   33.4544   14.8120 C   0  0  0  0  0  0  0  0  0  0  0  0
   32.4266   33.3409   14.3718 O   0  0  0  0  0  0  0  0  0  0  0  0
   30.1467   34.0165   13.9546 C   0  0  0  0  0  0  0  0  0  0  0  0
   30.2705   33.7199   16.5373 H   0  0  0  0  0  0  0  0  0  0  0  0
   30.4041   30.7276   16.2315 C   0  0  0  0  0  0  0  0  0  0  0  0
   31.0986   29.6018   15.9293 N   0  0  0  0  0  0  0  0  0  0  0  0
   29.1887   30.8551   16.1436 O   0  0  0  0  0  0  0  0  0  0  0  0
   31.8319   29.3179   16.5217 H   0  0  0  0  0  0  0  0  0  0  0  0
   30.7878   28.8004   14.7494 C   0  0  0  0  0  0  0  0  0  0  0  0
   30.3890   27.3907   15.1997 C   0  0  0  0  0  0  0  0  0  0  0  0
   28.8669   27.1990   15.3737 C   0  0  0  0  0  0  0  0  0  0  0  0
   28.4310   27.3966   16.8255 C   0  0  0  0  0  0  0  0  0  0  0  0
   27.1034   27.9070   16.8458 O   0  0  0  0  0  0  0  0  0  0  0  0
   26.6157   28.3742   18.0887 C   0  0  0  0  0  0  0  0  0  0  0  0
   26.9430   29.6841   18.5970 C   0  0  0  0  0  0  0  0  0  0  0  0
   26.4456   30.1295   19.8424 C   0  0  0  0  0  0  0  0  0  0  0  0
   25.6162   29.2813   20.6084 C   0  0  0  0  0  0  0  0  0  0  0  0
   25.2754   27.9892   20.1425 C   0  0  0  0  0  0  0  0  0  0  0  0
   25.7676   27.5122   18.8813 C   0  0  0  0  0  0  0  0  0  0  0  0
   24.4599   27.2219   20.9552 O   0  0  0  0  0  0  0  0  0  0  0  0
   24.1567   27.5651   21.7727 H   0  0  0  0  0  0  0  0  0  0  0  0
   25.3827   26.1453   18.4368 C   0  0  0  0  0  0  0  0  0  0  0  0
   25.8266   25.1658   18.9905 O   0  0  0  0  0  0  0  0  0  0  0  0
   24.5302   26.0722   17.4043 O   0  0  0  0  0  0  0  0  0  0  0  0
   24.5431   24.8799   16.5951 C   0  0  0  0  0  0  0  0  0  0  0  0
   31.2486   32.0307   18.2798 C   0  0  0  0  0  0  0  0  0  0  0  0
   34.3944   30.1498   19.4655 C   0  0  0  0  0  0  0  0  0  0  0  0
   33.8521   29.2198   20.3899 C   0  0  0  0  0  0  0  0  0  0  0  0
   32.4453   29.2187   20.6370 C   0  0  0  0  0  0  0  0  0  0  0  0
   31.6107   30.1272   19.9586 C   0  0  0  0  0  0  0  0  0  0  0  0
   32.1517   31.0573   19.0243 C   0  0  0  0  0  0  0  0  0  0  0  0
   33.5497   31.0555   18.7878 C   0  0  0  0  0  0  0  0  0  0  0  0
   35.7560   30.1593   19.2198 O   0  0  0  0  0  0  0  0  0  0  0  0
   36.3174   29.5585   19.6692 H   0  0  0  0  0  0  0  0  0  0  0  0
   34.7506   28.3472   21.0072 O   0  0  0  0  0  0  0  0  0  0  0  0
   34.2131   27.1203   21.4497 C   0  0  0  0  0  0  0  0  0  0  0  0
   35.3447   26.3072   22.0188 C   0  0  0  0  0  0  0  0  0  0  0  0
   36.5064   26.6067   21.4124 O   0  0  0  0  0  0  0  0  0  0  0  0
   35.2301   25.5020   22.8854 O   0  0  0  0  0  0  0  0  0  0  0  0
   36.5280   27.2532   20.7345 H   0  0  0  0  0  0  0  0  0  0  0  0
 29 30  2  0  0  0
 29 34  1  0  0  0
 29 35  1  0  0  0
 30 31  1  0  0  0
 30 37  1  0  0  0
 31 32  2  0  0  0
 32 33  1  0  0  0
 33 34  2  0  0  0
 33 28  1  0  0  0
 37 38  1  0  0  0
  1  2  1  0  0  0
  1  7  1  0  0  0
  1 28  1  0  0  0
  2  3  1  0  0  0
  3  4  2  0  0  0
  3  5  1  0  0  0
  7  8  1  0  0  0
  7  9  2  0  0  0
  8 11  1  0  0  0
 11 12  1  0  0  0
 12 13  1  0  0  0
 14 13  1  0  0  0
 14 15  1  0  0  0
 15 16  1  0  0  0
 38 39  1  0  0  0
 39 40  1  0  0  0
 39 41  2  0  0  0
 16 17  2  0  0  0
 16 21  1  0  0  0
 17 18  1  0  0  0
 18 19  2  0  0  0
 19 20  1  0  0  0
 20 21  2  0  0  0
 20 22  1  0  0  0
 21 24  1  0  0  0
 24 25  2  0  0  0
 24 26  1  0  0  0
 26 27  1  0  0  0
  2  6  1  0  0  0
  8 10  1  0  0  0
 40 42  1  0  0  0
 22 23  1  0  0  0
 35 36  1  0  0  0
M  END
> <minimizedAffinity>
-8.05482

$$$$
1QXK_429_A_322


 42 43  0  0  0  0  0  0  0  0999 V2000
   29.8313   29.4196   17.9520 C   0  0  0  0  0  0  0  0  0  0  0  0
   30.1228   29.3334   16.5117 N   0  0  0  0  0  0  0  0  0  0  0  0
   30.3661   30.4258   15.7553 C   0  0  0  0  0  0  0  0  0  0  0  0
   29.7517   31.4891   15.8114 O   0  0  0  0  0  0  0  0  0  0  0  0
   31.5264   30.2208   14.7771 C   0  0  0  0  0  0  0  0  0  0  0  0
   30.1412   28.4468   16.0839 H   0  0  0  0  0  0  0  0  0  0  0  0
   28.3036   29.6189   18.1154 C   0  0  0  0  0  0  0  0  0  0  0  0
   27.9897   30.3475   19.2161 N   0  0  0  0  0  0  0  0  0  0  0  0
   27.4964   29.1574   17.3175 O   0  0  0  0  0  0  0  0  0  0  0  0
   28.5320   31.1389   19.4373 H   0  0  0  0  0  0  0  0  0  0  0  0
   26.8696   29.9896   20.0811 C   0  0  0  0  0  0  0  0  0  0  0  0
   25.7299   30.9888   19.8538 C   0  0  0  0  0  0  0  0  0  0  0  0
   24.3260   30.3463   19.8648 C   0  0  0  0  0  0  0  0  0  0  0  0
   23.2794   31.2767   20.4778 C   0  0  0  0  0  0  0  0  0  0  0  0
   23.4005   31.2415   21.8947 O   0  0  0  0  0  0  0  0  0  0  0  0
   22.2003   31.1548   22.6381 C   0  0  0  0  0  0  0  0  0  0  0  0
   21.4952   32.3277   23.0950 C   0  0  0  0  0  0  0  0  0  0  0  0
   20.2983   32.2172   23.8379 C   0  0  0  0  0  0  0  0  0  0  0  0
   19.7802   30.9398   24.1442 C   0  0  0  0  0  0  0  0  0  0  0  0
   20.4455   29.7670   23.7141 C   0  0  0  0  0  0  0  0  0  0  0  0
   21.6630   29.8512   22.9586 C   0  0  0  0  0  0  0  0  0  0  0  0
   19.8719   28.5559   24.0582 O   0  0  0  0  0  0  0  0  0  0  0  0
   19.0760   28.5380   24.5525 H   0  0  0  0  0  0  0  0  0  0  0  0
   22.3258   28.5892   22.5318 C   0  0  0  0  0  0  0  0  0  0  0  0
   21.7381   27.7802   21.8512 O   0  0  0  0  0  0  0  0  0  0  0  0
   23.5899   28.4114   22.9424 O   0  0  0  0  0  0  0  0  0  0  0  0
   24.4111   27.4685   22.2261 C   0  0  0  0  0  0  0  0  0  0  0  0
   30.6257   30.6061   18.6058 C   0  0  0  0  0  0  0  0  0  0  0  0
   34.3682   30.2573   19.4492 C   0  0  0  0  0  0  0  0  0  0  0  0
   34.3440   29.3315   20.5243 C   0  0  0  0  0  0  0  0  0  0  0  0
   33.0895   28.8281   20.9857 C   0  0  0  0  0  0  0  0  0  0  0  0
   31.8944   29.2433   20.3681 C   0  0  0  0  0  0  0  0  0  0  0  0
   31.9162   30.1672   19.2835 C   0  0  0  0  0  0  0  0  0  0  0  0
   33.1651   30.6660   18.8341 C   0  0  0  0  0  0  0  0  0  0  0  0
   35.5785   30.7511   18.9954 O   0  0  0  0  0  0  0  0  0  0  0  0
   36.3775   30.4803   19.4031 H   0  0  0  0  0  0  0  0  0  0  0  0
   35.5766   28.9649   21.0687 O   0  0  0  0  0  0  0  0  0  0  0  0
   35.5287   28.3110   22.3178 C   0  0  0  0  0  0  0  0  0  0  0  0
   35.8266   26.8549   22.0801 C   0  0  0  0  0  0  0  0  0  0  0  0
   35.0373   26.0716   22.8352 O   0  0  0  0  0  0  0  0  0  0  0  0
   36.6529   26.4472   21.3295 O   0  0  0  0  0  0  0  0  0  0  0  0
   34.4041   26.4577   23.4079 H   0  0  0  0  0  0  0  0  0  0  0  0
 29 30  2  0  0  0
 29 34  1  0  0  0
 29 35  1  0  0  0
 30 31  1  0  0  0
 30 37  1  0  0  0
 31 32  2  0  0  0
 32 33  1  0  0  0
 33 34  2  0  0  0
 33 28  1  0  0  0
 37 38  1  0  0  0
  1  2  1  0  0  0
  1  7  1  0  0  0
  1 28  1  0  0  0
  2  3  1  0  0  0
  3  4  2  0  0  0
  3  5  1  0  0  0
  7  8  1  0  0  0
  7  9  2  0  0  0
  8 11  1  0  0  0
 11 12  1  0  0  0
 12 13  1  0  0  0
 14 13  1  0  0  0
 14 15  1  0  0  0
 15 16  1  0  0  0
 38 39  1  0  0  0
 39 40  1  0  0  0
 39 41  2  0  0  0
 16 17  2  0  0  0
 16 21  1  0  0  0
 17 18  1  0  0  0
 18 19  2  0  0  0
 19 20  1  0  0  0
 20 21  2  0  0  0
 20 22  1  0  0  0
 21 24  1  0  0  0
 24 25  2  0  0  0
 24 26  1  0  0  0
 26 27  1  0  0  0
  2  6  1  0  0  0
  8 10  1  0  0  0
 40 42  1  0  0  0
 22 23  1  0  0  0
 35 36  1  0  0  0
M  END
> <minimizedAffinity>
-8.02997

$$$$
1QXK_429_A_322


 42 43  0  0  0  0  0  0  0  0999 V2000
   29.8096   29.6282   18.2271 C   0  0  0  0  0  0  0  0  0  0  0  0
   30.1115   29.4171   16.8019 N   0  0  0  0  0  0  0  0  0  0  0  0
   30.5070   30.4208   15.9890 C   0  0  0  0  0  0  0  0  0  0  0  0
   30.0349   31.5557   15.9676 O   0  0  0  0  0  0  0  0  0  0  0  0
   31.6471   30.0088   15.0532 C   0  0  0  0  0  0  0  0  0  0  0  0
   30.0218   28.5110   16.4274 H   0  0  0  0  0  0  0  0  0  0  0  0
   28.3068   29.9857   18.3455 C   0  0  0  0  0  0  0  0  0  0  0  0
   28.0014   30.5577   19.5373 N   0  0  0  0  0  0  0  0  0  0  0  0
   27.5103   29.7643   17.4411 O   0  0  0  0  0  0  0  0  0  0  0  0
   28.6132   31.2290   19.9172 H   0  0  0  0  0  0  0  0  0  0  0  0
   26.7899   30.2047   20.2714 C   0  0  0  0  0  0  0  0  0  0  0  0
   26.5397   31.2629   21.3514 C   0  0  0  0  0  0  0  0  0  0  0  0
   25.2855   30.9928   22.2103 C   0  0  0  0  0  0  0  0  0  0  0  0
   24.0084   30.9996   21.3702 C   0  0  0  0  0  0  0  0  0  0  0  0
   22.9527   31.5678   22.1356 O   0  0  0  0  0  0  0  0  0  0  0  0
   21.9647   30.6801   22.6223 C   0  0  0  0  0  0  0  0  0  0  0  0
   22.0409   29.2557   22.4069 C   0  0  0  0  0  0  0  0  0  0  0  0
   21.0414   28.3878   22.9011 C   0  0  0  0  0  0  0  0  0  0  0  0
   19.9451   28.9181   23.6159 C   0  0  0  0  0  0  0  0  0  0  0  0
   19.8360   30.3104   23.8450 C   0  0  0  0  0  0  0  0  0  0  0  0
   20.8373   31.2139   23.3535 C   0  0  0  0  0  0  0  0  0  0  0  0
   18.7300   30.7471   24.5522 O   0  0  0  0  0  0  0  0  0  0  0  0
   18.0957   30.1292   24.8584 H   0  0  0  0  0  0  0  0  0  0  0  0
   20.6759   32.6692   23.6183 C   0  0  0  0  0  0  0  0  0  0  0  0
   20.7571   33.1071   24.7430 O   0  0  0  0  0  0  0  0  0  0  0  0
   20.4394   33.4465   22.5516 O   0  0  0  0  0  0  0  0  0  0  0  0
   20.1865   34.8477   22.7741 C   0  0  0  0  0  0  0  0  0  0  0  0
   30.7076   30.7732   18.8178 C   0  0  0  0  0  0  0  0  0  0  0  0
   34.4538   30.2686   19.5601 C   0  0  0  0  0  0  0  0  0  0  0  0
   34.4220   29.2996   20.5963 C   0  0  0  0  0  0  0  0  0  0  0  0
   33.1618   28.8181   21.0651 C   0  0  0  0  0  0  0  0  0  0  0  0
   31.9680   29.2972   20.4927 C   0  0  0  0  0  0  0  0  0  0  0  0
   31.9971   30.2647   19.4470 C   0  0  0  0  0  0  0  0  0  0  0  0
   33.2519   30.7415   18.9902 C   0  0  0  0  0  0  0  0  0  0  0  0
   35.6697   30.7418   19.0995 O   0  0  0  0  0  0  0  0  0  0  0  0
   36.4679   30.4285   19.4772 H   0  0  0  0  0  0  0  0  0  0  0  0
   35.6532   28.8709   21.0967 O   0  0  0  0  0  0  0  0  0  0  0  0
   35.6315   28.3135   22.3924 C   0  0  0  0  0  0  0  0  0  0  0  0
   35.7198   26.8181   22.2453 C   0  0  0  0  0  0  0  0  0  0  0  0
   36.6036   26.4786   21.2912 O   0  0  0  0  0  0  0  0  0  0  0  0
   35.0894   26.0374   22.8822 O   0  0  0  0  0  0  0  0  0  0  0  0
   37.0689   27.1451   20.8250 H   0  0  0  0  0  0  0  0  0  0  0  0
 29 30  2  0  0  0
 29 34  1  0  0  0
 29 35  1  0  0  0
 30 31  1  0  0  0
 30 37  1  0  0  0
 31 32  2  0  0  0
 32 33  1  0  0  0
 33 34  2  0  0  0
 33 28  1  0  0  0
 37 38  1  0  0  0
  1  2  1  0  0  0
  1  7  1  0  0  0
  1 28  1  0  0  0
  2  3  1  0  0  0
  3  4  2  0  0  0
  3  5  1  0  0  0
  7  8  1  0  0  0
  7  9  2  0  0  0
  8 11  1  0  0  0
 11 12  1  0  0  0
 12 13  1  0  0  0
 14 13  1  0  0  0
 14 15  1  0  0  0
 15 16  1  0  0  0
 38 39  1  0  0  0
 39 40  1  0  0  0
 39 41  2  0  0  0
 16 17  2  0  0  0
 16 21  1  0  0  0
 17 18  1  0  0  0
 18 19  2  0  0  0
 19 20  1  0  0  0
 20 21  2  0  0  0
 20 22  1  0  0  0
 21 24  1  0  0  0
 24 25  2  0  0  0
 24 26  1  0  0  0
 26 27  1  0  0  0
  2  6  1  0  0  0
  8 10  1  0  0  0
 40 42  1  0  0  0
 22 23  1  0  0  0
 35 36  1  0  0  0
M  END
> <minimizedAffinity>
-7.92415

$$$$
1QXK_429_A_322


 42 43  0  0  0  0  0  0  0  0999 V2000
   31.2746   31.8426   16.6791 C   0  0  0  0  0  0  0  0  0  0  0  0
   30.8528   33.0741   15.9918 N   0  0  0  0  0  0  0  0  0  0  0  0
   31.4129   33.4851   14.8333 C   0  0  0  0  0  0  0  0  0  0  0  0
   32.6133   33.4632   14.5689 O   0  0  0  0  0  0  0  0  0  0  0  0
   30.3798   34.0038   13.8288 C   0  0  0  0  0  0  0  0  0  0  0  0
   30.1360   33.6182   16.3911 H   0  0  0  0  0  0  0  0  0  0  0  0
   30.3700   30.6879   16.1806 C   0  0  0  0  0  0  0  0  0  0  0  0
   31.0805   29.5882   15.8245 N   0  0  0  0  0  0  0  0  0  0  0  0
   29.1501   30.7903   16.1294 O   0  0  0  0  0  0  0  0  0  0  0  0
   31.8358   29.3028   16.3879 H   0  0  0  0  0  0  0  0  0  0  0  0
   30.7551   28.8167   14.6287 C   0  0  0  0  0  0  0  0  0  0  0  0
   30.3805   27.3906   15.0465 C   0  0  0  0  0  0  0  0  0  0  0  0
   28.9950   27.2814   15.7190 C   0  0  0  0  0  0  0  0  0  0  0  0
   28.5223   25.8310   15.8157 C   0  0  0  0  0  0  0  0  0  0  0  0
   28.0588   25.5813   17.1371 O   0  0  0  0  0  0  0  0  0  0  0  0
   27.4709   24.3181   17.3817 C   0  0  0  0  0  0  0  0  0  0  0  0
   28.2190   23.0898   17.2692 C   0  0  0  0  0  0  0  0  0  0  0  0
   27.6105   21.8387   17.5168 C   0  0  0  0  0  0  0  0  0  0  0  0
   26.2464   21.7832   17.8777 C   0  0  0  0  0  0  0  0  0  0  0  0
   25.4806   22.9675   17.9960 C   0  0  0  0  0  0  0  0  0  0  0  0
   26.0742   24.2509   17.7496 C   0  0  0  0  0  0  0  0  0  0  0  0
   24.1512   22.8244   18.3519 O   0  0  0  0  0  0  0  0  0  0  0  0
   23.7966   21.9708   18.5053 H   0  0  0  0  0  0  0  0  0  0  0  0
   25.2263   25.4662   17.8848 C   0  0  0  0  0  0  0  0  0  0  0  0
   24.2582   25.6280   17.1779 O   0  0  0  0  0  0  0  0  0  0  0  0
   25.5978   26.3511   18.8213 O   0  0  0  0  0  0  0  0  0  0  0  0
   25.6987   25.8959   20.1848 C   0  0  0  0  0  0  0  0  0  0  0  0
   31.1612   32.0130   18.2361 C   0  0  0  0  0  0  0  0  0  0  0  0
   34.3421   30.2364   19.4874 C   0  0  0  0  0  0  0  0  0  0  0  0
   33.8168   29.3265   20.4411 C   0  0  0  0  0  0  0  0  0  0  0  0
   32.4099   29.3048   20.6862 C   0  0  0  0  0  0  0  0  0  0  0  0
   31.5584   30.1735   19.9771 C   0  0  0  0  0  0  0  0  0  0  0  0
   32.0823   31.0831   19.0134 C   0  0  0  0  0  0  0  0  0  0  0  0
   33.4806   31.1020   18.7791 C   0  0  0  0  0  0  0  0  0  0  0  0
   35.7037   30.2655   19.2433 O   0  0  0  0  0  0  0  0  0  0  0  0
   36.2762   29.6913   19.7130 H   0  0  0  0  0  0  0  0  0  0  0  0
   34.7316   28.4931   21.0880 O   0  0  0  0  0  0  0  0  0  0  0  0
   34.3453   27.1433   21.2260 C   0  0  0  0  0  0  0  0  0  0  0  0
   35.5069   26.3972   21.8256 C   0  0  0  0  0  0  0  0  0  0  0  0
   35.1368   25.7437   22.9403 O   0  0  0  0  0  0  0  0  0  0  0  0
   36.6084   26.3887   21.3792 O   0  0  0  0  0  0  0  0  0  0  0  0
   34.2500   25.7919   23.2390 H   0  0  0  0  0  0  0  0  0  0  0  0
 29 30  2  0  0  0
 29 34  1  0  0  0
 29 35  1  0  0  0
 30 31  1  0  0  0
 30 37  1  0  0  0
 31 32  2  0  0  0
 32 33  1  0  0  0
 33 34  2  0  0  0
 33 28  1  0  0  0
 37 38  1  0  0  0
  1  2  1  0  0  0
  1  7  1  0  0  0
  1 28  1  0  0  0
  2  3  1  0  0  0
  3  4  2  0  0  0
  3  5  1  0  0  0
  7  8  1  0  0  0
  7  9  2  0  0  0
  8 11  1  0  0  0
 11 12  1  0  0  0
 12 13  1  0  0  0
 14 13  1  0  0  0
 14 15  1  0  0  0
 15 16  1  0  0  0
 38 39  1  0  0  0
 39 40  1  0  0  0
 39 41  2  0  0  0
 16 17  2  0  0  0
 16 21  1  0  0  0
 17 18  1  0  0  0
 18 19  2  0  0  0
 19 20  1  0  0  0
 20 21  2  0  0  0
 20 22  1  0  0  0
 21 24  1  0  0  0
 24 25  2  0  0  0
 24 26  1  0  0  0
 26 27  1  0  0  0
  2  6  1  0  0  0
  8 10  1  0  0  0
 40 42  1  0  0  0
 22 23  1  0  0  0
 35 36  1  0  0  0
M  END
> <minimizedAffinity>
-7.86994

$$$$
1QXK_429_A_322


 42 43  0  0  0  0  0  0  0  0999 V2000
   31.2628   30.9970   16.5702 C   0  0  0  0  0  0  0  0  0  0  0  0
   32.0381   29.9686   15.8573 N   0  0  0  0  0  0  0  0  0  0  0  0
   31.4534   29.0240   15.0888 C   0  0  0  0  0  0  0  0  0  0  0  0
   30.4319   28.4007   15.3702 O   0  0  0  0  0  0  0  0  0  0  0  0
   32.2032   28.7836   13.7753 C   0  0  0  0  0  0  0  0  0  0  0  0
   33.0188   29.9693   15.9438 H   0  0  0  0  0  0  0  0  0  0  0  0
   30.6922   31.9771   15.5147 C   0  0  0  0  0  0  0  0  0  0  0  0
   31.6375   32.8146   15.0190 N   0  0  0  0  0  0  0  0  0  0  0  0
   29.5119   31.9671   15.1860 O   0  0  0  0  0  0  0  0  0  0  0  0
   32.5298   32.4573   14.8059 H   0  0  0  0  0  0  0  0  0  0  0  0
   31.3672   34.2313   14.7930 C   0  0  0  0  0  0  0  0  0  0  0  0
   31.9431   34.6338   13.4310 C   0  0  0  0  0  0  0  0  0  0  0  0
   33.0672   35.6888   13.5164 C   0  0  0  0  0  0  0  0  0  0  0  0
   33.8284   35.8171   12.1971 C   0  0  0  0  0  0  0  0  0  0  0  0
   34.9715   34.9716   12.2369 O   0  0  0  0  0  0  0  0  0  0  0  0
   35.9876   35.3112   13.1606 C   0  0  0  0  0  0  0  0  0  0  0  0
   36.5860   36.6235   13.1937 C   0  0  0  0  0  0  0  0  0  0  0  0
   37.6010   36.9401   14.1244 C   0  0  0  0  0  0  0  0  0  0  0  0
   38.0437   35.9586   15.0380 C   0  0  0  0  0  0  0  0  0  0  0  0
   37.4811   34.6600   15.0336 C   0  0  0  0  0  0  0  0  0  0  0  0
   36.4491   34.3122   14.0985 C   0  0  0  0  0  0  0  0  0  0  0  0
   37.9731   33.7578   15.9602 O   0  0  0  0  0  0  0  0  0  0  0  0
   38.6475   34.0190   16.5560 H   0  0  0  0  0  0  0  0  0  0  0  0
   35.8916   32.9331   14.1325 C   0  0  0  0  0  0  0  0  0  0  0  0
   34.7452   32.7362   14.4644 O   0  0  0  0  0  0  0  0  0  0  0  0
   36.7254   31.9442   13.7789 O   0  0  0  0  0  0  0  0  0  0  0  0
   36.4314   31.2039   12.5780 C   0  0  0  0  0  0  0  0  0  0  0  0
   32.1697   31.7527   17.6061 C   0  0  0  0  0  0  0  0  0  0  0  0
   34.5836   29.7910   19.8787 C   0  0  0  0  0  0  0  0  0  0  0  0
   33.6902   29.1495   20.7752 C   0  0  0  0  0  0  0  0  0  0  0  0
   32.2857   29.3729   20.6424 C   0  0  0  0  0  0  0  0  0  0  0  0
   31.8000   30.2142   19.6233 C   0  0  0  0  0  0  0  0  0  0  0  0
   32.6945   30.8538   18.7170 C   0  0  0  0  0  0  0  0  0  0  0  0
   34.0876   30.6309   18.8581 C   0  0  0  0  0  0  0  0  0  0  0  0
   35.9459   29.5815   19.9995 O   0  0  0  0  0  0  0  0  0  0  0  0
   36.2760   29.0242   20.6766 H   0  0  0  0  0  0  0  0  0  0  0  0
   34.2574   28.3223   21.7468 O   0  0  0  0  0  0  0  0  0  0  0  0
   34.1727   26.9357   21.5016 C   0  0  0  0  0  0  0  0  0  0  0  0
   35.4459   26.3073   22.0012 C   0  0  0  0  0  0  0  0  0  0  0  0
   36.5072   26.7476   21.3036 O   0  0  0  0  0  0  0  0  0  0  0  0
   35.5088   25.5213   22.8905 O   0  0  0  0  0  0  0  0  0  0  0  0
   36.3884   27.3693   20.6127 H   0  0  0  0  0  0  0  0  0  0  0  0
 29 30  2  0  0  0
 29 34  1  0  0  0
 29 35  1  0  0  0
 30 31  1  0  0  0
 30 37  1  0  0  0
 31 32  2  0  0  0
 32 33  1  0  0  0
 33 34  2  0  0  0
 33 28  1  0  0  0
 37 38  1  0  0  0
  1  2  1  0  0  0
  1  7  1  0  0  0
  1 28  1  0  0  0
  2  3  1  0  0  0
  3  4  2  0  0  0
  3  5  1  0  0  0
  7  8  1  0  0  0
  7  9  2  0  0  0
  8 11  1  0  0  0
 11 12  1  0  0  0
 12 13  1  0  0  0
 14 13  1  0  0  0
 14 15  1  0  0  0
 15 16  1  0  0  0
 38 39  1  0  0  0
 39 40  1  0  0  0
 39 41  2  0  0  0
 16 17  2  0  0  0
 16 21  1  0  0  0
 17 18  1  0  0  0
 18 19  2  0  0  0
 19 20  1  0  0  0
 20 21  2  0  0  0
 20 22  1  0  0  0
 21 24  1  0  0  0
 24 25  2  0  0  0
 24 26  1  0  0  0
 26 27  1  0  0  0
  2  6  1  0  0  0
  8 10  1  0  0  0
 40 42  1  0  0  0
 22 23  1  0  0  0
 35 36  1  0  0  0
M  END
> <minimizedAffinity>
-7.69873

$$$$
1QXK_429_A_322


 42 43  0  0  0  0  0  0  0  0999 V2000
   31.5492   31.8746   16.7693 C   0  0  0  0  0  0  0  0  0  0  0  0
   30.8169   32.9976   16.1614 N   0  0  0  0  0  0  0  0  0  0  0  0
   31.1240   33.4860   14.9400 C   0  0  0  0  0  0  0  0  0  0  0  0
   32.2589   33.6796   14.5089 O   0  0  0  0  0  0  0  0  0  0  0  0
   29.8828   33.7917   14.0966 C   0  0  0  0  0  0  0  0  0  0  0  0
   30.0760   33.4077   16.6635 H   0  0  0  0  0  0  0  0  0  0  0  0
   31.0604   30.5688   16.0940 C   0  0  0  0  0  0  0  0  0  0  0  0
   29.7739   30.2723   16.4070 N   0  0  0  0  0  0  0  0  0  0  0  0
   31.7826   29.9033   15.3614 O   0  0  0  0  0  0  0  0  0  0  0  0
   29.1072   30.9964   16.4290 H   0  0  0  0  0  0  0  0  0  0  0  0
   29.3517   28.9086   16.7120 C   0  0  0  0  0  0  0  0  0  0  0  0
   28.1375   28.9636   17.6456 C   0  0  0  0  0  0  0  0  0  0  0  0
   26.8291   28.4622   16.9972 C   0  0  0  0  0  0  0  0  0  0  0  0
   25.7777   28.0984   18.0454 C   0  0  0  0  0  0  0  0  0  0  0  0
   26.2837   28.4103   19.3377 O   0  0  0  0  0  0  0  0  0  0  0  0
   25.3331   28.6786   20.3502 C   0  0  0  0  0  0  0  0  0  0  0  0
   24.7373   27.6285   21.1400 C   0  0  0  0  0  0  0  0  0  0  0  0
   23.7883   27.9198   22.1455 C   0  0  0  0  0  0  0  0  0  0  0  0
   23.4102   29.2593   22.3840 C   0  0  0  0  0  0  0  0  0  0  0  0
   23.9723   30.3153   21.6278 C   0  0  0  0  0  0  0  0  0  0  0  0
   24.9380   30.0468   20.6003 C   0  0  0  0  0  0  0  0  0  0  0  0
   23.5459   31.5978   21.9239 O   0  0  0  0  0  0  0  0  0  0  0  0
   22.9137   31.7367   22.6015 H   0  0  0  0  0  0  0  0  0  0  0  0
   25.4977   31.1912   19.8315 C   0  0  0  0  0  0  0  0  0  0  0  0
   26.6774   31.4538   19.8820 O   0  0  0  0  0  0  0  0  0  0  0  0
   24.6274   31.8972   19.0951 O   0  0  0  0  0  0  0  0  0  0  0  0
   24.4424   31.5219   17.7161 C   0  0  0  0  0  0  0  0  0  0  0  0
   31.3042   31.8308   18.3200 C   0  0  0  0  0  0  0  0  0  0  0  0
   34.5777   30.1637   19.4797 C   0  0  0  0  0  0  0  0  0  0  0  0
   34.1066   29.2052   20.4139 C   0  0  0  0  0  0  0  0  0  0  0  0
   32.7056   29.1141   20.6762 C   0  0  0  0  0  0  0  0  0  0  0  0
   31.8067   29.9633   20.0030 C   0  0  0  0  0  0  0  0  0  0  0  0
   32.2764   30.9217   19.0588 C   0  0  0  0  0  0  0  0  0  0  0  0
   33.6690   31.0093   18.8072 C   0  0  0  0  0  0  0  0  0  0  0  0
   35.9332   30.2601   19.2191 O   0  0  0  0  0  0  0  0  0  0  0  0
   36.5370   29.6993   19.6650 H   0  0  0  0  0  0  0  0  0  0  0  0
   35.0663   28.3958   21.0252 O   0  0  0  0  0  0  0  0  0  0  0  0
   34.6520   27.7243   22.1946 C   0  0  0  0  0  0  0  0  0  0  0  0
   34.9982   26.2688   22.0297 C   0  0  0  0  0  0  0  0  0  0  0  0
   33.9025   25.5406   21.7539 O   0  0  0  0  0  0  0  0  0  0  0  0
   36.0928   25.8178   22.1341 O   0  0  0  0  0  0  0  0  0  0  0  0
   33.0670   25.9591   21.6849 H   0  0  0  0  0  0  0  0  0  0  0  0
 29 30  2  0  0  0
 29 34  1  0  0  0
 29 35  1  0  0  0
 30 31  1  0  0  0
 30 37  1  0  0  0
 31 32  2  0  0  0
 32 33  1  0  0  0
 33 34  2  0  0  0
 33 28  1  0  0  0
 37 38  1  0  0  0
  1  2  1  0  0  0
  1  7  1  0  0  0
  1 28  1  0  0  0
  2  3  1  0  0  0
  3  4  2  0  0  0
  3  5  1  0  0  0
  7  8  1  0  0  0
  7  9  2  0  0  0
  8 11  1  0  0  0
 11 12  1  0  0  0
 12 13  1  0  0  0
 14 13  1  0  0  0
 14 15  1  0  0  0
 15 16  1  0  0  0
 38 39  1  0  0  0
 39 40  1  0  0  0
 39 41  2  0  0  0
 16 17  2  0  0  0
 16 21  1  0  0  0
 17 18  1  0  0  0
 18 19  2  0  0  0
 19 20  1  0  0  0
 20 21  2  0  0  0
 20 22  1  0  0  0
 21 24  1  0  0  0
 24 25  2  0  0  0
 24 26  1  0  0  0
 26 27  1  0  0  0
  2  6  1  0  0  0
  8 10  1  0  0  0
 40 42  1  0  0  0
 22 23  1  0  0  0
 35 36  1  0  0  0
M  END
> <minimizedAffinity>
-7.69752

$$$$
