3L3N_LSW_A_1


 43 45  0  0  0  0  0  0  0  0999 V2000
   42.0305   14.9146  109.8100 C   0  0  0  0  0  0  0  0  0  0  0  0
   43.2889   13.1797  108.7426 O   0  0  0  0  0  0  0  0  0  0  0  0
   41.0748   13.1867  108.3435 N   0  0  0  0  0  0  0  0  0  0  0  0
   42.1783   13.6851  108.9100 C   0  0  0  0  0  0  0  0  0  0  0  0
   40.1986   13.5960  108.5282 H   0  0  0  0  0  0  0  0  0  0  0  0
   41.1698   12.0281  107.4452 C   0  0  0  0  0  0  0  0  0  0  0  0
   42.7181   12.4160  105.6422 O   0  0  0  0  0  0  0  0  0  0  0  0
   40.5916   12.8935  105.2955 O   0  0  0  0  0  0  0  0  0  0  0  0
   41.5230   12.4875  106.0247 C   0  0  0  0  0  0  0  0  0  0  0  0
   39.7165   12.9277  105.6288 H   0  0  0  0  0  0  0  0  0  0  0  0
   39.8587   11.2294  107.3800 C   0  0  0  0  0  0  0  0  0  0  0  0
   42.1248    6.3860  107.6921 C   0  0  0  0  0  0  0  0  0  0  0  0
   42.4514    7.4098  106.7783 C   0  0  0  0  0  0  0  0  0  0  0  0
   41.1292    6.5463  108.6251 C   0  0  0  0  0  0  0  0  0  0  0  0
   41.7706    8.6262  106.7947 C   0  0  0  0  0  0  0  0  0  0  0  0
   39.0813    9.4946  109.0860 C   0  0  0  0  0  0  0  0  0  0  0  0
   39.8751    9.9066  108.0445 C   0  0  0  0  0  0  0  0  0  0  0  0
   40.4490    7.7663  108.6419 C   0  0  0  0  0  0  0  0  0  0  0  0
   40.7529    8.8163  107.7413 C   0  0  0  0  0  0  0  0  0  0  0  0
   39.4286    8.1931  109.4522 N   0  0  0  0  0  0  0  0  0  0  0  0
   39.0103    7.6687  110.1728 H   0  0  0  0  0  0  0  0  0  0  0  0
   42.5126   14.6283  111.1601 N   0  0  0  0  0  0  0  0  0  0  0  0
   42.7209   15.5034  111.6411 H   0  0  0  0  0  0  0  0  0  0  0  0
   41.4723   13.8970  111.8972 C   0  0  0  0  0  0  0  0  0  0  0  0
   41.0845   14.6757  113.1584 C   0  0  0  0  0  0  0  0  0  0  0  0
   41.8489   14.6442  114.1471 O   0  0  0  0  0  0  0  0  0  0  0  0
   40.0194   15.3303  113.1658 O   0  0  0  0  0  0  0  0  0  0  0  0
   39.4668   15.3345  112.4091 H   0  0  0  0  0  0  0  0  0  0  0  0
   41.9799   12.5074  112.2931 C   0  0  0  0  0  0  0  0  0  0  0  0
   41.2180   11.4178  111.5337 C   0  0  0  0  0  0  0  0  0  0  0  0
   43.7791    8.0559  110.6557 C   0  0  0  0  0  0  0  0  0  0  0  0
   43.8930    9.2321  109.9223 C   0  0  0  0  0  0  0  0  0  0  0  0
   42.8219    7.9558  111.6599 C   0  0  0  0  0  0  0  0  0  0  0  0
   43.0508   10.3040  110.1948 C   0  0  0  0  0  0  0  0  0  0  0  0
   41.9813    9.0295  111.9320 C   0  0  0  0  0  0  0  0  0  0  0  0
   42.0951   10.2068  111.2007 C   0  0  0  0  0  0  0  0  0  0  0  0
   42.7991   16.1068  109.2083 C   0  0  0  0  0  0  0  0  0  0  0  0
   42.6062   16.3522  107.6952 C   0  0  0  0  0  0  0  0  0  0  0  0
   41.7134   17.5944  107.4811 C   0  0  0  0  0  0  0  0  0  0  0  0
   41.9778   17.3589  104.9933 N   0  0  0  0  0  0  0  0  0  0  0  0
   41.9854   18.3142  106.1486 C   0  0  0  0  0  0  0  0  0  0  0  0
   42.1608   17.8689  104.1291 H   0  0  0  0  0  0  0  0  0  0  0  0
   41.0664   16.9048  104.9335 H   0  0  0  0  0  0  0  0  0  0  0  0
 26 25  2  0  0  0
 25 24  1  0  0  0
 25 27  1  0  0  0
  1 22  1  0  0  0
 22 24  1  0  0  0
 24 29  1  0  0  0
 29 30  1  0  0  0
 41 40  1  0  0  0
  7  9  2  0  0  0
  4  2  2  0  0  0
  9  8  1  0  0  0
 32 31  2  0  0  0
 33 31  1  0  0  0
 34 32  1  0  0  0
 35 33  2  0  0  0
 14 12  2  0  0  0
 12 13  1  0  0  0
 15 13  2  0  0  0
 36 34  2  0  0  0
 36 35  1  0  0  0
 18 14  1  0  0  0
 19 15  1  0  0  0
 16 20  1  0  0  0
 16 17  2  0  0  0
 41 39  1  0  0  0
 39 38  1  0  0  0
 38 37  1  0  0  0
 30 36  1  0  0  0
 37  1  1  0  0  0
 11 17  1  0  0  0
 11  6  1  0  0  0
  6  3  1  0  0  0
  3  4  1  0  0  0
  9  6  1  0  0  0
  4  1  1  0  0  0
 17 19  1  0  0  0
 20 18  1  0  0  0
 18 19  2  0  0  0
 22 23  1  0  0  0
 40 42  1  0  0  0
 40 43  1  0  0  0
  8 10  1  0  0  0
  3  5  1  0  0  0
 27 28  1  0  0  0
 20 21  1  0  0  0
M  END
> <minimizedAffinity>
-8.79706

$$$$
3L3N_LSW_A_1


 43 45  0  0  0  0  0  0  0  0999 V2000
   41.9846   12.2805  110.6570 C   0  0  0  0  0  0  0  0  0  0  0  0
   40.7041   10.2681  110.8639 O   0  0  0  0  0  0  0  0  0  0  0  0
   42.7379   10.0563  109.9255 N   0  0  0  0  0  0  0  0  0  0  0  0
   41.7634   10.7748  110.4923 C   0  0  0  0  0  0  0  0  0  0  0  0
   43.5569   10.5012  109.6084 H   0  0  0  0  0  0  0  0  0  0  0  0
   42.5862    8.6027  109.7758 C   0  0  0  0  0  0  0  0  0  0  0  0
   44.6896    7.5491  109.2616 O   0  0  0  0  0  0  0  0  0  0  0  0
   44.1068    7.7056  111.3844 O   0  0  0  0  0  0  0  0  0  0  0  0
   43.8881    7.8918  110.1672 C   0  0  0  0  0  0  0  0  0  0  0  0
   43.4764    7.9799  112.0210 H   0  0  0  0  0  0  0  0  0  0  0  0
   42.2308    8.1967  108.3370 C   0  0  0  0  0  0  0  0  0  0  0  0
   38.2374    8.4722  104.7778 C   0  0  0  0  0  0  0  0  0  0  0  0
   39.5743    8.8738  104.5742 C   0  0  0  0  0  0  0  0  0  0  0  0
   37.8161    7.9602  105.9810 C   0  0  0  0  0  0  0  0  0  0  0  0
   40.5175    8.7610  105.5946 C   0  0  0  0  0  0  0  0  0  0  0  0
   39.8580    7.4578  108.9267 C   0  0  0  0  0  0  0  0  0  0  0  0
   40.7922    7.9767  108.0652 C   0  0  0  0  0  0  0  0  0  0  0  0
   38.7625    7.8460  107.0021 C   0  0  0  0  0  0  0  0  0  0  0  0
   40.1132    8.2366  106.8313 C   0  0  0  0  0  0  0  0  0  0  0  0
   38.6222    7.3762  108.2826 N   0  0  0  0  0  0  0  0  0  0  0  0
   37.7883    7.0376  108.6816 H   0  0  0  0  0  0  0  0  0  0  0  0
   41.3369   13.0200  109.5751 N   0  0  0  0  0  0  0  0  0  0  0  0
   41.3812   14.0201  109.7705 H   0  0  0  0  0  0  0  0  0  0  0  0
   42.0334   12.7338  108.3128 C   0  0  0  0  0  0  0  0  0  0  0  0
   43.4825   13.2243  108.3962 C   0  0  0  0  0  0  0  0  0  0  0  0
   43.7004   14.4511  108.4980 O   0  0  0  0  0  0  0  0  0  0  0  0
   44.4106   12.3871  108.3697 O   0  0  0  0  0  0  0  0  0  0  0  0
   44.2157   11.4739  108.2926 H   0  0  0  0  0  0  0  0  0  0  0  0
   41.3266   13.4310  107.1467 C   0  0  0  0  0  0  0  0  0  0  0  0
   41.0567   12.4416  106.0098 C   0  0  0  0  0  0  0  0  0  0  0  0
   36.8201   11.9033  105.3823 C   0  0  0  0  0  0  0  0  0  0  0  0
   37.3843   11.6248  106.6226 C   0  0  0  0  0  0  0  0  0  0  0  0
   37.6276   12.3352  104.3353 C   0  0  0  0  0  0  0  0  0  0  0  0
   38.7526   11.7790  106.8127 C   0  0  0  0  0  0  0  0  0  0  0  0
   38.9960   12.4902  104.5278 C   0  0  0  0  0  0  0  0  0  0  0  0
   39.5613   12.2138  105.7679 C   0  0  0  0  0  0  0  0  0  0  0  0
   41.4465   12.7486  112.0229 C   0  0  0  0  0  0  0  0  0  0  0  0
   41.2398   14.2702  112.1922 C   0  0  0  0  0  0  0  0  0  0  0  0
   41.3647   14.6475  113.6849 C   0  0  0  0  0  0  0  0  0  0  0  0
   40.4628   16.1894  115.4523 N   0  0  0  0  0  0  0  0  0  0  0  0
   40.1314   15.3903  114.2279 C   0  0  0  0  0  0  0  0  0  0  0  0
   39.6246   16.6668  115.7839 H   0  0  0  0  0  0  0  0  0  0  0  0
   41.1793   16.8788  115.2248 H   0  0  0  0  0  0  0  0  0  0  0  0
 26 25  2  0  0  0
 25 24  1  0  0  0
 25 27  1  0  0  0
  1 22  1  0  0  0
 22 24  1  0  0  0
 24 29  1  0  0  0
 29 30  1  0  0  0
 41 40  1  0  0  0
  7  9  2  0  0  0
  4  2  2  0  0  0
  9  8  1  0  0  0
 32 31  2  0  0  0
 33 31  1  0  0  0
 34 32  1  0  0  0
 35 33  2  0  0  0
 14 12  2  0  0  0
 12 13  1  0  0  0
 15 13  2  0  0  0
 36 34  2  0  0  0
 36 35  1  0  0  0
 18 14  1  0  0  0
 19 15  1  0  0  0
 16 20  1  0  0  0
 16 17  2  0  0  0
 41 39  1  0  0  0
 39 38  1  0  0  0
 38 37  1  0  0  0
 30 36  1  0  0  0
 37  1  1  0  0  0
 11 17  1  0  0  0
 11  6  1  0  0  0
  6  3  1  0  0  0
  3  4  1  0  0  0
  9  6  1  0  0  0
  4  1  1  0  0  0
 17 19  1  0  0  0
 20 18  1  0  0  0
 18 19  2  0  0  0
 22 23  1  0  0  0
 40 42  1  0  0  0
 40 43  1  0  0  0
  8 10  1  0  0  0
  3  5  1  0  0  0
 27 28  1  0  0  0
 20 21  1  0  0  0
M  END
> <minimizedAffinity>
-8.63822

$$$$
3L3N_LSW_A_1


 43 45  0  0  0  0  0  0  0  0999 V2000
   41.8478   11.4453  111.4211 C   0  0  0  0  0  0  0  0  0  0  0  0
   43.1905   11.9037  109.4925 O   0  0  0  0  0  0  0  0  0  0  0  0
   40.9692   12.1509  109.2349 N   0  0  0  0  0  0  0  0  0  0  0  0
   42.0527   11.8612  109.9622 C   0  0  0  0  0  0  0  0  0  0  0  0
   40.0727   12.0719  109.6340 H   0  0  0  0  0  0  0  0  0  0  0  0
   41.1165   12.5871  107.8397 C   0  0  0  0  0  0  0  0  0  0  0  0
   41.0811   14.9533  108.2855 O   0  0  0  0  0  0  0  0  0  0  0  0
   42.8537   14.1227  107.2664 O   0  0  0  0  0  0  0  0  0  0  0  0
   41.7237   13.9950  107.7868 C   0  0  0  0  0  0  0  0  0  0  0  0
   43.2916   13.3758  106.9082 H   0  0  0  0  0  0  0  0  0  0  0  0
   39.7752   12.6138  107.0904 C   0  0  0  0  0  0  0  0  0  0  0  0
   37.9166    7.5934  107.2715 C   0  0  0  0  0  0  0  0  0  0  0  0
   38.1283    8.4518  108.3708 C   0  0  0  0  0  0  0  0  0  0  0  0
   38.1995    7.9884  105.9865 C   0  0  0  0  0  0  0  0  0  0  0  0
   38.6331    9.7381  108.1861 C   0  0  0  0  0  0  0  0  0  0  0  0
   39.5111   11.2065  104.9753 C   0  0  0  0  0  0  0  0  0  0  0  0
   39.4341   11.3878  106.3338 C   0  0  0  0  0  0  0  0  0  0  0  0
   38.7034    9.2781  105.8025 C   0  0  0  0  0  0  0  0  0  0  0  0
   38.9254   10.1668  106.8828 C   0  0  0  0  0  0  0  0  0  0  0  0
   39.0665    9.9241  104.6488 N   0  0  0  0  0  0  0  0  0  0  0  0
   39.0211    9.5463  103.7408 H   0  0  0  0  0  0  0  0  0  0  0  0
   42.6962   10.3034  111.7576 N   0  0  0  0  0  0  0  0  0  0  0  0
   43.3857   10.5839  112.4550 H   0  0  0  0  0  0  0  0  0  0  0  0
   41.8580    9.2248  112.3001 C   0  0  0  0  0  0  0  0  0  0  0  0
   42.7456    8.1008  112.8443 C   0  0  0  0  0  0  0  0  0  0  0  0
   42.2741    7.3174  113.6968 O   0  0  0  0  0  0  0  0  0  0  0  0
   43.9152    7.9883  112.4171 O   0  0  0  0  0  0  0  0  0  0  0  0
   44.2405    8.5912  111.7778 H   0  0  0  0  0  0  0  0  0  0  0  0
   40.9406    8.6655  111.2087 C   0  0  0  0  0  0  0  0  0  0  0  0
   41.5674    7.4295  110.5579 C   0  0  0  0  0  0  0  0  0  0  0  0
   41.9408    7.8796  106.2812 C   0  0  0  0  0  0  0  0  0  0  0  0
   41.5191    6.6700  106.8228 C   0  0  0  0  0  0  0  0  0  0  0  0
   42.2642    8.9396  107.1216 C   0  0  0  0  0  0  0  0  0  0  0  0
   41.4217    6.5238  108.2018 C   0  0  0  0  0  0  0  0  0  0  0  0
   42.1648    8.7919  108.5007 C   0  0  0  0  0  0  0  0  0  0  0  0
   41.7417    7.5837  109.0438 C   0  0  0  0  0  0  0  0  0  0  0  0
   42.1498   12.6314  112.3573 C   0  0  0  0  0  0  0  0  0  0  0  0
   40.9761   13.5947  112.6421 C   0  0  0  0  0  0  0  0  0  0  0  0
   41.3689   14.5702  113.7737 C   0  0  0  0  0  0  0  0  0  0  0  0
   40.5337   16.1843  115.5091 N   0  0  0  0  0  0  0  0  0  0  0  0
   40.2033   15.4608  114.2382 C   0  0  0  0  0  0  0  0  0  0  0  0
   39.7411   16.7633  115.7866 H   0  0  0  0  0  0  0  0  0  0  0  0
   41.3514   16.7758  115.3609 H   0  0  0  0  0  0  0  0  0  0  0  0
 26 25  2  0  0  0
 25 24  1  0  0  0
 25 27  1  0  0  0
  1 22  1  0  0  0
 22 24  1  0  0  0
 24 29  1  0  0  0
 29 30  1  0  0  0
 41 40  1  0  0  0
  7  9  2  0  0  0
  4  2  2  0  0  0
  9  8  1  0  0  0
 32 31  2  0  0  0
 33 31  1  0  0  0
 34 32  1  0  0  0
 35 33  2  0  0  0
 14 12  2  0  0  0
 12 13  1  0  0  0
 15 13  2  0  0  0
 36 34  2  0  0  0
 36 35  1  0  0  0
 18 14  1  0  0  0
 19 15  1  0  0  0
 16 20  1  0  0  0
 16 17  2  0  0  0
 41 39  1  0  0  0
 39 38  1  0  0  0
 38 37  1  0  0  0
 30 36  1  0  0  0
 37  1  1  0  0  0
 11 17  1  0  0  0
 11  6  1  0  0  0
  6  3  1  0  0  0
  3  4  1  0  0  0
  9  6  1  0  0  0
  4  1  1  0  0  0
 17 19  1  0  0  0
 20 18  1  0  0  0
 18 19  2  0  0  0
 22 23  1  0  0  0
 40 42  1  0  0  0
 40 43  1  0  0  0
  8 10  1  0  0  0
  3  5  1  0  0  0
 27 28  1  0  0  0
 20 21  1  0  0  0
M  END
> <minimizedAffinity>
-8.52617

$$$$
3L3N_LSW_A_1


 43 45  0  0  0  0  0  0  0  0999 V2000
   41.4094   14.2559  108.0939 C   0  0  0  0  0  0  0  0  0  0  0  0
   41.9329   12.4732  106.5839 O   0  0  0  0  0  0  0  0  0  0  0  0
   39.7507   12.7781  107.0383 N   0  0  0  0  0  0  0  0  0  0  0  0
   41.0434   13.0934  107.1677 C   0  0  0  0  0  0  0  0  0  0  0  0
   39.0696   13.2736  107.5479 H   0  0  0  0  0  0  0  0  0  0  0  0
   39.3468   11.6919  106.1352 C   0  0  0  0  0  0  0  0  0  0  0  0
   37.7237   12.0014  104.3835 O   0  0  0  0  0  0  0  0  0  0  0  0
   39.6791   13.0010  104.1654 O   0  0  0  0  0  0  0  0  0  0  0  0
   38.8830   12.2666  104.7905 C   0  0  0  0  0  0  0  0  0  0  0  0
   40.5334   13.1679  104.5122 H   0  0  0  0  0  0  0  0  0  0  0  0
   38.2042   10.8436  106.7150 C   0  0  0  0  0  0  0  0  0  0  0  0
   41.7892    6.8796  107.0690 C   0  0  0  0  0  0  0  0  0  0  0  0
   41.7975    7.9402  106.1389 C   0  0  0  0  0  0  0  0  0  0  0  0
   40.7951    6.7560  108.0091 C   0  0  0  0  0  0  0  0  0  0  0  0
   40.7908    8.9045  106.1458 C   0  0  0  0  0  0  0  0  0  0  0  0
   37.9769    8.9834  108.4506 C   0  0  0  0  0  0  0  0  0  0  0  0
   38.6101    9.5936  107.3965 C   0  0  0  0  0  0  0  0  0  0  0  0
   39.7880    7.7239  108.0163 C   0  0  0  0  0  0  0  0  0  0  0  0
   39.7669    8.8032  107.0993 C   0  0  0  0  0  0  0  0  0  0  0  0
   38.6915    7.8460  108.8305 N   0  0  0  0  0  0  0  0  0  0  0  0
   38.4485    7.2332  109.5617 H   0  0  0  0  0  0  0  0  0  0  0  0
   42.0872   13.7677  109.2936 N   0  0  0  0  0  0  0  0  0  0  0  0
   42.6847   14.5030  109.6715 H   0  0  0  0  0  0  0  0  0  0  0  0
   41.0798   13.3890  110.2947 C   0  0  0  0  0  0  0  0  0  0  0  0
   41.0125   14.4551  111.3930 C   0  0  0  0  0  0  0  0  0  0  0  0
   40.1755   14.3238  112.3122 O   0  0  0  0  0  0  0  0  0  0  0  0
   41.8007   15.4246  111.3489 O   0  0  0  0  0  0  0  0  0  0  0  0
   42.4172   15.4957  110.6468 H   0  0  0  0  0  0  0  0  0  0  0  0
   41.4347   12.0365  110.9195 C   0  0  0  0  0  0  0  0  0  0  0  0
   41.0497   10.8903  109.9802 C   0  0  0  0  0  0  0  0  0  0  0  0
   44.1313    7.8698  109.8681 C   0  0  0  0  0  0  0  0  0  0  0  0
   44.1599    8.9316  108.9704 C   0  0  0  0  0  0  0  0  0  0  0  0
   43.0943    7.7697  110.7896 C   0  0  0  0  0  0  0  0  0  0  0  0
   43.1530    9.8897  108.9967 C   0  0  0  0  0  0  0  0  0  0  0  0
   42.0887    8.7297  110.8153 C   0  0  0  0  0  0  0  0  0  0  0  0
   42.1168    9.7929  109.9195 C   0  0  0  0  0  0  0  0  0  0  0  0
   42.3020   15.2665  107.3481 C   0  0  0  0  0  0  0  0  0  0  0  0
   42.2598   16.7240  107.8585 C   0  0  0  0  0  0  0  0  0  0  0  0
   40.8733   17.0184  108.4727 C   0  0  0  0  0  0  0  0  0  0  0  0
   41.6747   18.4228  110.3962 N   0  0  0  0  0  0  0  0  0  0  0  0
   40.8004   18.3834  109.1791 C   0  0  0  0  0  0  0  0  0  0  0  0
   41.6018   19.3393  110.8378 H   0  0  0  0  0  0  0  0  0  0  0  0
   42.6431   18.2522  110.1249 H   0  0  0  0  0  0  0  0  0  0  0  0
 26 25  2  0  0  0
 25 24  1  0  0  0
 25 27  1  0  0  0
  1 22  1  0  0  0
 22 24  1  0  0  0
 24 29  1  0  0  0
 29 30  1  0  0  0
 41 40  1  0  0  0
  7  9  2  0  0  0
  4  2  2  0  0  0
  9  8  1  0  0  0
 32 31  2  0  0  0
 33 31  1  0  0  0
 34 32  1  0  0  0
 35 33  2  0  0  0
 14 12  2  0  0  0
 12 13  1  0  0  0
 15 13  2  0  0  0
 36 34  2  0  0  0
 36 35  1  0  0  0
 18 14  1  0  0  0
 19 15  1  0  0  0
 16 20  1  0  0  0
 16 17  2  0  0  0
 41 39  1  0  0  0
 39 38  1  0  0  0
 38 37  1  0  0  0
 30 36  1  0  0  0
 37  1  1  0  0  0
 11 17  1  0  0  0
 11  6  1  0  0  0
  6  3  1  0  0  0
  3  4  1  0  0  0
  9  6  1  0  0  0
  4  1  1  0  0  0
 17 19  1  0  0  0
 20 18  1  0  0  0
 18 19  2  0  0  0
 22 23  1  0  0  0
 40 42  1  0  0  0
 40 43  1  0  0  0
  8 10  1  0  0  0
  3  5  1  0  0  0
 27 28  1  0  0  0
 20 21  1  0  0  0
M  END
> <minimizedAffinity>
-8.49443

$$$$
3L3N_LSW_A_1


 43 45  0  0  0  0  0  0  0  0999 V2000
   41.4306   11.9294  110.1212 C   0  0  0  0  0  0  0  0  0  0  0  0
   40.9941   10.4545  111.9560 O   0  0  0  0  0  0  0  0  0  0  0  0
   42.0739    9.5567  110.1983 N   0  0  0  0  0  0  0  0  0  0  0  0
   41.4905   10.5768  110.8355 C   0  0  0  0  0  0  0  0  0  0  0  0
   42.4287    9.6826  109.2886 H   0  0  0  0  0  0  0  0  0  0  0  0
   42.1856    8.2477  110.8559 C   0  0  0  0  0  0  0  0  0  0  0  0
   44.4703    7.8498  110.2075 O   0  0  0  0  0  0  0  0  0  0  0  0
   43.9850    7.7952  112.3597 O   0  0  0  0  0  0  0  0  0  0  0  0
   43.6556    7.9325  111.1611 C   0  0  0  0  0  0  0  0  0  0  0  0
   43.3386    7.8662  113.0343 H   0  0  0  0  0  0  0  0  0  0  0  0
   41.6192    7.1094  109.9929 C   0  0  0  0  0  0  0  0  0  0  0  0
   38.0997    9.3724  106.6487 C   0  0  0  0  0  0  0  0  0  0  0  0
   37.9520    9.2122  108.0425 C   0  0  0  0  0  0  0  0  0  0  0  0
   39.2169    8.9222  105.9880 C   0  0  0  0  0  0  0  0  0  0  0  0
   38.9434    8.5891  108.7991 C   0  0  0  0  0  0  0  0  0  0  0  0
   42.0616    7.2561  107.4816 C   0  0  0  0  0  0  0  0  0  0  0  0
   41.2858    7.4640  108.5947 C   0  0  0  0  0  0  0  0  0  0  0  0
   40.2104    8.2997  106.7475 C   0  0  0  0  0  0  0  0  0  0  0  0
   40.0962    8.1249  108.1484 C   0  0  0  0  0  0  0  0  0  0  0  0
   41.4104    7.7642  106.3562 N   0  0  0  0  0  0  0  0  0  0  0  0
   41.7556    7.7417  105.4344 H   0  0  0  0  0  0  0  0  0  0  0  0
   42.5767   12.7594  110.4881 N   0  0  0  0  0  0  0  0  0  0  0  0
   43.1139   12.2953  111.2206 H   0  0  0  0  0  0  0  0  0  0  0  0
   43.4260   12.9568  109.3049 C   0  0  0  0  0  0  0  0  0  0  0  0
   44.7272   12.1632  109.4612 C   0  0  0  0  0  0  0  0  0  0  0  0
   45.7627   12.7648  109.8197 O   0  0  0  0  0  0  0  0  0  0  0  0
   44.7207   10.9335  109.2356 O   0  0  0  0  0  0  0  0  0  0  0  0
   43.9285   10.5105  108.9681 H   0  0  0  0  0  0  0  0  0  0  0  0
   43.7541   14.4424  109.1289 C   0  0  0  0  0  0  0  0  0  0  0  0
   43.1289   14.9843  107.8406 C   0  0  0  0  0  0  0  0  0  0  0  0
   40.0549   17.8913  108.6961 C   0  0  0  0  0  0  0  0  0  0  0  0
   40.0054   16.6292  109.2783 C   0  0  0  0  0  0  0  0  0  0  0  0
   41.0860   18.2092  107.8185 C   0  0  0  0  0  0  0  0  0  0  0  0
   40.9861   15.6896  108.9822 C   0  0  0  0  0  0  0  0  0  0  0  0
   42.0669   17.2684  107.5244 C   0  0  0  0  0  0  0  0  0  0  0  0
   42.0197   16.0067  108.1071 C   0  0  0  0  0  0  0  0  0  0  0  0
   41.3870   11.7209  108.5951 C   0  0  0  0  0  0  0  0  0  0  0  0
   40.1803   12.3385  107.8541 C   0  0  0  0  0  0  0  0  0  0  0  0
   40.5055   12.4654  106.3493 C   0  0  0  0  0  0  0  0  0  0  0  0
   42.8502   12.5218  105.4472 N   0  0  0  0  0  0  0  0  0  0  0  0
   41.7333   11.6420  105.9227 C   0  0  0  0  0  0  0  0  0  0  0  0
   43.6450   11.9441  105.1734 H   0  0  0  0  0  0  0  0  0  0  0  0
   43.1305   13.1516  106.1990 H   0  0  0  0  0  0  0  0  0  0  0  0
 26 25  2  0  0  0
 25 24  1  0  0  0
 25 27  1  0  0  0
  1 22  1  0  0  0
 22 24  1  0  0  0
 24 29  1  0  0  0
 29 30  1  0  0  0
 41 40  1  0  0  0
  7  9  2  0  0  0
  4  2  2  0  0  0
  9  8  1  0  0  0
 32 31  2  0  0  0
 33 31  1  0  0  0
 34 32  1  0  0  0
 35 33  2  0  0  0
 14 12  2  0  0  0
 12 13  1  0  0  0
 15 13  2  0  0  0
 36 34  2  0  0  0
 36 35  1  0  0  0
 18 14  1  0  0  0
 19 15  1  0  0  0
 16 20  1  0  0  0
 16 17  2  0  0  0
 41 39  1  0  0  0
 39 38  1  0  0  0
 38 37  1  0  0  0
 30 36  1  0  0  0
 37  1  1  0  0  0
 11 17  1  0  0  0
 11  6  1  0  0  0
  6  3  1  0  0  0
  3  4  1  0  0  0
  9  6  1  0  0  0
  4  1  1  0  0  0
 17 19  1  0  0  0
 20 18  1  0  0  0
 18 19  2  0  0  0
 22 23  1  0  0  0
 40 42  1  0  0  0
 40 43  1  0  0  0
  8 10  1  0  0  0
  3  5  1  0  0  0
 27 28  1  0  0  0
 20 21  1  0  0  0
M  END
> <minimizedAffinity>
-8.49172

$$$$
3L3N_LSW_A_1


 43 45  0  0  0  0  0  0  0  0999 V2000
   41.1517   13.1919  108.6912 C   0  0  0  0  0  0  0  0  0  0  0  0
   41.6688   12.2145  106.5675 O   0  0  0  0  0  0  0  0  0  0  0  0
   39.5742   11.8924  107.3228 N   0  0  0  0  0  0  0  0  0  0  0  0
   40.8093   12.3920  107.4317 C   0  0  0  0  0  0  0  0  0  0  0  0
   38.9237   12.0246  108.0500 H   0  0  0  0  0  0  0  0  0  0  0  0
   39.1876   11.1461  106.1178 C   0  0  0  0  0  0  0  0  0  0  0  0
   39.4619   12.4818  104.1330 O   0  0  0  0  0  0  0  0  0  0  0  0
   37.4780   12.4669  105.0994 O   0  0  0  0  0  0  0  0  0  0  0  0
   38.6751   12.1101  105.0401 C   0  0  0  0  0  0  0  0  0  0  0  0
   36.9321   12.1613  105.7970 H   0  0  0  0  0  0  0  0  0  0  0  0
   38.0875   10.1107  106.3988 C   0  0  0  0  0  0  0  0  0  0  0  0
   42.1414    6.7653  107.4312 C   0  0  0  0  0  0  0  0  0  0  0  0
   42.1929    7.9279  106.6340 C   0  0  0  0  0  0  0  0  0  0  0  0
   40.9759    6.3586  108.0344 C   0  0  0  0  0  0  0  0  0  0  0  0
   41.0548    8.7076  106.4332 C   0  0  0  0  0  0  0  0  0  0  0  0
   37.7684    8.0233  107.8359 C   0  0  0  0  0  0  0  0  0  0  0  0
   38.5298    8.8628  107.0614 C   0  0  0  0  0  0  0  0  0  0  0  0
   39.8367    7.1417  107.8340 C   0  0  0  0  0  0  0  0  0  0  0  0
   39.8534    8.3161  107.0424 C   0  0  0  0  0  0  0  0  0  0  0  0
   38.5609    6.9756  108.3081 N   0  0  0  0  0  0  0  0  0  0  0  0
   38.2545    6.2396  108.8857 H   0  0  0  0  0  0  0  0  0  0  0  0
   42.5849   13.4734  108.7515 N   0  0  0  0  0  0  0  0  0  0  0  0
   42.7378   14.4804  108.6965 H   0  0  0  0  0  0  0  0  0  0  0  0
   43.1223   12.9626  110.0206 C   0  0  0  0  0  0  0  0  0  0  0  0
   43.7736   14.1052  110.8064 C   0  0  0  0  0  0  0  0  0  0  0  0
   44.4026   14.9867  110.1818 O   0  0  0  0  0  0  0  0  0  0  0  0
   43.6531   14.1340  112.0505 O   0  0  0  0  0  0  0  0  0  0  0  0
   43.1755   13.4587  112.4907 H   0  0  0  0  0  0  0  0  0  0  0  0
   44.1623   11.8701  109.7552 C   0  0  0  0  0  0  0  0  0  0  0  0
   43.5436   10.7179  108.9590 C   0  0  0  0  0  0  0  0  0  0  0  0
   41.7093    7.8246  111.5851 C   0  0  0  0  0  0  0  0  0  0  0  0
   43.0837    7.8040  111.3731 C   0  0  0  0  0  0  0  0  0  0  0  0
   40.9216    8.7662  110.9314 C   0  0  0  0  0  0  0  0  0  0  0  0
   43.6662    8.7244  110.5094 C   0  0  0  0  0  0  0  0  0  0  0  0
   41.5063    9.6869  110.0688 C   0  0  0  0  0  0  0  0  0  0  0  0
   42.8805    9.6688  109.8571 C   0  0  0  0  0  0  0  0  0  0  0  0
   40.3461   14.5051  108.7198 C   0  0  0  0  0  0  0  0  0  0  0  0
   41.1043   15.7629  109.1989 C   0  0  0  0  0  0  0  0  0  0  0  0
   41.2407   16.7630  108.0295 C   0  0  0  0  0  0  0  0  0  0  0  0
   43.4698   15.8398  107.3273 N   0  0  0  0  0  0  0  0  0  0  0  0
   42.7028   17.0812  107.6710 C   0  0  0  0  0  0  0  0  0  0  0  0
   44.4317   16.0877  107.0957 H   0  0  0  0  0  0  0  0  0  0  0  0
   43.0345   15.3820  106.5265 H   0  0  0  0  0  0  0  0  0  0  0  0
 26 25  2  0  0  0
 25 24  1  0  0  0
 25 27  1  0  0  0
  1 22  1  0  0  0
 22 24  1  0  0  0
 24 29  1  0  0  0
 29 30  1  0  0  0
 41 40  1  0  0  0
  7  9  2  0  0  0
  4  2  2  0  0  0
  9  8  1  0  0  0
 32 31  2  0  0  0
 33 31  1  0  0  0
 34 32  1  0  0  0
 35 33  2  0  0  0
 14 12  2  0  0  0
 12 13  1  0  0  0
 15 13  2  0  0  0
 36 34  2  0  0  0
 36 35  1  0  0  0
 18 14  1  0  0  0
 19 15  1  0  0  0
 16 20  1  0  0  0
 16 17  2  0  0  0
 41 39  1  0  0  0
 39 38  1  0  0  0
 38 37  1  0  0  0
 30 36  1  0  0  0
 37  1  1  0  0  0
 11 17  1  0  0  0
 11  6  1  0  0  0
  6  3  1  0  0  0
  3  4  1  0  0  0
  9  6  1  0  0  0
  4  1  1  0  0  0
 17 19  1  0  0  0
 20 18  1  0  0  0
 18 19  2  0  0  0
 22 23  1  0  0  0
 40 42  1  0  0  0
 40 43  1  0  0  0
  8 10  1  0  0  0
  3  5  1  0  0  0
 27 28  1  0  0  0
 20 21  1  0  0  0
M  END
> <minimizedAffinity>
-8.12746

$$$$
3L3N_LSW_A_1


 43 45  0  0  0  0  0  0  0  0999 V2000
   40.7277   11.5932  105.9657 C   0  0  0  0  0  0  0  0  0  0  0  0
   42.8976   12.4048  105.3613 O   0  0  0  0  0  0  0  0  0  0  0  0
   42.3080   12.6638  107.5169 N   0  0  0  0  0  0  0  0  0  0  0  0
   42.0758   12.2534  106.2660 C   0  0  0  0  0  0  0  0  0  0  0  0
   41.6136   12.5580  108.2067 H   0  0  0  0  0  0  0  0  0  0  0  0
   43.5996   13.2729  107.8619 C   0  0  0  0  0  0  0  0  0  0  0  0
   44.0201   11.1489  108.9158 O   0  0  0  0  0  0  0  0  0  0  0  0
   45.3983   12.8131  109.3645 O   0  0  0  0  0  0  0  0  0  0  0  0
   44.3923   12.3428  108.7893 C   0  0  0  0  0  0  0  0  0  0  0  0
   45.6338   13.7111  109.2371 H   0  0  0  0  0  0  0  0  0  0  0  0
   43.4373   14.6292  108.5659 C   0  0  0  0  0  0  0  0  0  0  0  0
   41.2122   14.1008  113.4095 C   0  0  0  0  0  0  0  0  0  0  0  0
   42.5292   13.7492  113.0464 C   0  0  0  0  0  0  0  0  0  0  0  0
   40.3305   14.6252  112.4957 C   0  0  0  0  0  0  0  0  0  0  0  0
   42.9815   13.9262  111.7396 C   0  0  0  0  0  0  0  0  0  0  0  0
   41.0076   15.2850  109.0021 C   0  0  0  0  0  0  0  0  0  0  0  0
   42.2225   14.7832  109.3978 C   0  0  0  0  0  0  0  0  0  0  0  0
   40.7854   14.8039  111.1871 C   0  0  0  0  0  0  0  0  0  0  0  0
   42.1017   14.4647  110.7889 C   0  0  0  0  0  0  0  0  0  0  0  0
   40.1313   15.2996  110.0887 N   0  0  0  0  0  0  0  0  0  0  0  0
   39.1985   15.6137  110.0695 H   0  0  0  0  0  0  0  0  0  0  0  0
   40.0275   11.2599  107.2049 N   0  0  0  0  0  0  0  0  0  0  0  0
   39.0502   11.5424  107.1316 H   0  0  0  0  0  0  0  0  0  0  0  0
   40.1052    9.8089  107.4259 C   0  0  0  0  0  0  0  0  0  0  0  0
   39.0662    9.0945  106.5554 C   0  0  0  0  0  0  0  0  0  0  0  0
   37.8532    9.2386  106.8212 O   0  0  0  0  0  0  0  0  0  0  0  0
   39.4549    8.3930  105.5963 O   0  0  0  0  0  0  0  0  0  0  0  0
   40.3713    8.3041  105.4220 H   0  0  0  0  0  0  0  0  0  0  0  0
   39.8459    9.4817  108.8994 C   0  0  0  0  0  0  0  0  0  0  0  0
   40.2366    8.0337  109.2076 C   0  0  0  0  0  0  0  0  0  0  0  0
   44.5258    7.5750  109.3640 C   0  0  0  0  0  0  0  0  0  0  0  0
   43.8270    7.2282  108.2126 C   0  0  0  0  0  0  0  0  0  0  0  0
   43.8374    8.0499  110.4754 C   0  0  0  0  0  0  0  0  0  0  0  0
   42.4434    7.3574  108.1755 C   0  0  0  0  0  0  0  0  0  0  0  0
   42.4535    8.1797  110.4359 C   0  0  0  0  0  0  0  0  0  0  0  0
   41.7535    7.8350  109.2849 C   0  0  0  0  0  0  0  0  0  0  0  0
   39.8631   12.5263  105.0962 C   0  0  0  0  0  0  0  0  0  0  0  0
   38.7515   11.8502  104.2631 C   0  0  0  0  0  0  0  0  0  0  0  0
   37.4828   12.7313  104.2795 C   0  0  0  0  0  0  0  0  0  0  0  0
   36.9987   12.0996  106.6630 N   0  0  0  0  0  0  0  0  0  0  0  0
   36.4236   12.2505  105.2868 C   0  0  0  0  0  0  0  0  0  0  0  0
   36.2710   11.7805  107.3025 H   0  0  0  0  0  0  0  0  0  0  0  0
   37.3604   12.9988  106.9809 H   0  0  0  0  0  0  0  0  0  0  0  0
 26 25  2  0  0  0
 25 24  1  0  0  0
 25 27  1  0  0  0
  1 22  1  0  0  0
 22 24  1  0  0  0
 24 29  1  0  0  0
 29 30  1  0  0  0
 41 40  1  0  0  0
  7  9  2  0  0  0
  4  2  2  0  0  0
  9  8  1  0  0  0
 32 31  2  0  0  0
 33 31  1  0  0  0
 34 32  1  0  0  0
 35 33  2  0  0  0
 14 12  2  0  0  0
 12 13  1  0  0  0
 15 13  2  0  0  0
 36 34  2  0  0  0
 36 35  1  0  0  0
 18 14  1  0  0  0
 19 15  1  0  0  0
 16 20  1  0  0  0
 16 17  2  0  0  0
 41 39  1  0  0  0
 39 38  1  0  0  0
 38 37  1  0  0  0
 30 36  1  0  0  0
 37  1  1  0  0  0
 11 17  1  0  0  0
 11  6  1  0  0  0
  6  3  1  0  0  0
  3  4  1  0  0  0
  9  6  1  0  0  0
  4  1  1  0  0  0
 17 19  1  0  0  0
 20 18  1  0  0  0
 18 19  2  0  0  0
 22 23  1  0  0  0
 40 42  1  0  0  0
 40 43  1  0  0  0
  8 10  1  0  0  0
  3  5  1  0  0  0
 27 28  1  0  0  0
 20 21  1  0  0  0
M  END
> <minimizedAffinity>
-8.01791

$$$$
3L3N_LSW_A_1


 43 45  0  0  0  0  0  0  0  0999 V2000
   43.7872    8.7839  109.9554 C   0  0  0  0  0  0  0  0  0  0  0  0
   45.1821   10.5596  109.1592 O   0  0  0  0  0  0  0  0  0  0  0  0
   43.0039   11.0548  109.4272 N   0  0  0  0  0  0  0  0  0  0  0  0
   44.0446   10.2177  109.4848 C   0  0  0  0  0  0  0  0  0  0  0  0
   42.1023   10.7364  109.6617 H   0  0  0  0  0  0  0  0  0  0  0  0
   43.2060   12.4500  109.0137 C   0  0  0  0  0  0  0  0  0  0  0  0
   42.5233   14.6330  109.7669 O   0  0  0  0  0  0  0  0  0  0  0  0
   41.6124   12.8747  110.7412 O   0  0  0  0  0  0  0  0  0  0  0  0
   42.3936   13.3912  109.9124 C   0  0  0  0  0  0  0  0  0  0  0  0
   41.5526   11.9422  110.8107 H   0  0  0  0  0  0  0  0  0  0  0  0
   42.7850   12.6950  107.5563 C   0  0  0  0  0  0  0  0  0  0  0  0
   40.0806    8.7146  105.2039 C   0  0  0  0  0  0  0  0  0  0  0  0
   41.4824    8.8298  105.3119 C   0  0  0  0  0  0  0  0  0  0  0  0
   39.2395    9.6765  105.7085 C   0  0  0  0  0  0  0  0  0  0  0  0
   42.0625    9.9306  105.9405 C   0  0  0  0  0  0  0  0  0  0  0  0
   40.2341   12.7030  107.4261 C   0  0  0  0  0  0  0  0  0  0  0  0
   41.4642   12.1519  107.1661 C   0  0  0  0  0  0  0  0  0  0  0  0
   39.8219   10.7781  106.3399 C   0  0  0  0  0  0  0  0  0  0  0  0
   41.2248   10.9243  106.4684 C   0  0  0  0  0  0  0  0  0  0  0  0
   39.2328   11.8691  106.9254 N   0  0  0  0  0  0  0  0  0  0  0  0
   38.2644   12.0365  106.9831 H   0  0  0  0  0  0  0  0  0  0  0  0
   43.6737    8.7300  111.4118 N   0  0  0  0  0  0  0  0  0  0  0  0
   43.8101    9.6635  111.7998 H   0  0  0  0  0  0  0  0  0  0  0  0
   42.3365    8.2378  111.7721 C   0  0  0  0  0  0  0  0  0  0  0  0
   41.4862    9.3920  112.3126 C   0  0  0  0  0  0  0  0  0  0  0  0
   41.9987   10.5285  112.4051 O   0  0  0  0  0  0  0  0  0  0  0  0
   40.2995    9.1725  112.6392 O   0  0  0  0  0  0  0  0  0  0  0  0
   39.9433    8.3095  112.5585 H   0  0  0  0  0  0  0  0  0  0  0  0
   42.4432    7.1423  112.8370 C   0  0  0  0  0  0  0  0  0  0  0  0
   42.8808    7.7352  114.1792 C   0  0  0  0  0  0  0  0  0  0  0  0
   45.0857    4.8513  116.5145 C   0  0  0  0  0  0  0  0  0  0  0  0
   43.7895    4.5689  116.0971 C   0  0  0  0  0  0  0  0  0  0  0  0
   45.6643    6.0756  116.1971 C   0  0  0  0  0  0  0  0  0  0  0  0
   43.0762    5.5101  115.3639 C   0  0  0  0  0  0  0  0  0  0  0  0
   44.9497    7.0154  115.4624 C   0  0  0  0  0  0  0  0  0  0  0  0
   43.6542    6.7339  115.0428 C   0  0  0  0  0  0  0  0  0  0  0  0
   42.5077    8.2322  109.2976 C   0  0  0  0  0  0  0  0  0  0  0  0
   42.6998    7.0787  108.2880 C   0  0  0  0  0  0  0  0  0  0  0  0
   41.3398    6.4012  108.0099 C   0  0  0  0  0  0  0  0  0  0  0  0
   38.8433    6.6873  108.0275 N   0  0  0  0  0  0  0  0  0  0  0  0
   40.1446    7.1822  108.5836 C   0  0  0  0  0  0  0  0  0  0  0  0
   38.0755    7.2260  108.4284 H   0  0  0  0  0  0  0  0  0  0  0  0
   38.7261    5.7017  108.2623 H   0  0  0  0  0  0  0  0  0  0  0  0
 26 25  2  0  0  0
 25 24  1  0  0  0
 25 27  1  0  0  0
  1 22  1  0  0  0
 22 24  1  0  0  0
 24 29  1  0  0  0
 29 30  1  0  0  0
 41 40  1  0  0  0
  7  9  2  0  0  0
  4  2  2  0  0  0
  9  8  1  0  0  0
 32 31  2  0  0  0
 33 31  1  0  0  0
 34 32  1  0  0  0
 35 33  2  0  0  0
 14 12  2  0  0  0
 12 13  1  0  0  0
 15 13  2  0  0  0
 36 34  2  0  0  0
 36 35  1  0  0  0
 18 14  1  0  0  0
 19 15  1  0  0  0
 16 20  1  0  0  0
 16 17  2  0  0  0
 41 39  1  0  0  0
 39 38  1  0  0  0
 38 37  1  0  0  0
 30 36  1  0  0  0
 37  1  1  0  0  0
 11 17  1  0  0  0
 11  6  1  0  0  0
  6  3  1  0  0  0
  3  4  1  0  0  0
  9  6  1  0  0  0
  4  1  1  0  0  0
 17 19  1  0  0  0
 20 18  1  0  0  0
 18 19  2  0  0  0
 22 23  1  0  0  0
 40 42  1  0  0  0
 40 43  1  0  0  0
  8 10  1  0  0  0
  3  5  1  0  0  0
 27 28  1  0  0  0
 20 21  1  0  0  0
M  END
> <minimizedAffinity>
-7.98396

$$$$
3L3N_LSW_A_1


 43 45  0  0  0  0  0  0  0  0999 V2000
   42.4413   10.8984  110.4726 C   0  0  0  0  0  0  0  0  0  0  0  0
   44.0299   10.7308  108.6892 O   0  0  0  0  0  0  0  0  0  0  0  0
   41.9486   11.3554  108.1066 N   0  0  0  0  0  0  0  0  0  0  0  0
   42.8698   10.9962  109.0063 C   0  0  0  0  0  0  0  0  0  0  0  0
   41.0219   11.5259  108.3920 H   0  0  0  0  0  0  0  0  0  0  0  0
   42.3194   11.4956  106.6919 C   0  0  0  0  0  0  0  0  0  0  0  0
   43.4585   13.6161  106.7590 O   0  0  0  0  0  0  0  0  0  0  0  0
   41.5916   13.4854  105.5894 O   0  0  0  0  0  0  0  0  0  0  0  0
   42.4648   12.9787  106.3275 C   0  0  0  0  0  0  0  0  0  0  0  0
   40.8692   12.9668  105.2943 H   0  0  0  0  0  0  0  0  0  0  0  0
   41.2796   10.8690  105.7499 C   0  0  0  0  0  0  0  0  0  0  0  0
   40.9535    6.0256  108.0140 C   0  0  0  0  0  0  0  0  0  0  0  0
   42.1182    6.6412  107.5096 C   0  0  0  0  0  0  0  0  0  0  0  0
   39.7286    6.6444  107.9507 C   0  0  0  0  0  0  0  0  0  0  0  0
   42.0628    7.9073  106.9286 C   0  0  0  0  0  0  0  0  0  0  0  0
   39.0518    9.9152  106.5568 C   0  0  0  0  0  0  0  0  0  0  0  0
   40.4063    9.8346  106.3491 C   0  0  0  0  0  0  0  0  0  0  0  0
   39.6746    7.9137  107.3700 C   0  0  0  0  0  0  0  0  0  0  0  0
   40.8244    8.5622  106.8564 C   0  0  0  0  0  0  0  0  0  0  0  0
   38.6037    8.7484  107.1786 N   0  0  0  0  0  0  0  0  0  0  0  0
   37.6733    8.5566  107.4368 H   0  0  0  0  0  0  0  0  0  0  0  0
   42.7185   12.1489  111.1770 N   0  0  0  0  0  0  0  0  0  0  0  0
   43.6512   12.1100  111.5879 H   0  0  0  0  0  0  0  0  0  0  0  0
   42.6472   13.2645  110.2226 C   0  0  0  0  0  0  0  0  0  0  0  0
   43.9202   14.1118  110.3179 C   0  0  0  0  0  0  0  0  0  0  0  0
   45.0309   13.5476  110.2144 O   0  0  0  0  0  0  0  0  0  0  0  0
   43.8180   15.3463  110.4875 O   0  0  0  0  0  0  0  0  0  0  0  0
   42.9712   15.7405  110.5616 H   0  0  0  0  0  0  0  0  0  0  0  0
   41.4283   14.1421  110.5220 C   0  0  0  0  0  0  0  0  0  0  0  0
   40.6455   14.4344  109.2389 C   0  0  0  0  0  0  0  0  0  0  0  0
   40.6982   18.5799  108.0369 C   0  0  0  0  0  0  0  0  0  0  0  0
   41.6524   17.6965  107.5435 C   0  0  0  0  0  0  0  0  0  0  0  0
   39.7382   18.1303  108.9374 C   0  0  0  0  0  0  0  0  0  0  0  0
   41.6440   16.3675  107.9510 C   0  0  0  0  0  0  0  0  0  0  0  0
   39.7305   16.8002  109.3428 C   0  0  0  0  0  0  0  0  0  0  0  0
   40.6828   15.9154  108.8490 C   0  0  0  0  0  0  0  0  0  0  0  0
   40.9425   10.5526  110.5644 C   0  0  0  0  0  0  0  0  0  0  0  0
   40.5983    9.0968  110.9499 C   0  0  0  0  0  0  0  0  0  0  0  0
   41.8946    8.3325  111.2990 C   0  0  0  0  0  0  0  0  0  0  0  0
   42.0491    9.1697  113.6632 N   0  0  0  0  0  0  0  0  0  0  0  0
   41.9935    7.9544  112.7872 C   0  0  0  0  0  0  0  0  0  0  0  0
   42.1141    8.8822  114.6397 H   0  0  0  0  0  0  0  0  0  0  0  0
   41.2044    9.7253  113.5279 H   0  0  0  0  0  0  0  0  0  0  0  0
 26 25  2  0  0  0
 25 24  1  0  0  0
 25 27  1  0  0  0
  1 22  1  0  0  0
 22 24  1  0  0  0
 24 29  1  0  0  0
 29 30  1  0  0  0
 41 40  1  0  0  0
  7  9  2  0  0  0
  4  2  2  0  0  0
  9  8  1  0  0  0
 32 31  2  0  0  0
 33 31  1  0  0  0
 34 32  1  0  0  0
 35 33  2  0  0  0
 14 12  2  0  0  0
 12 13  1  0  0  0
 15 13  2  0  0  0
 36 34  2  0  0  0
 36 35  1  0  0  0
 18 14  1  0  0  0
 19 15  1  0  0  0
 16 20  1  0  0  0
 16 17  2  0  0  0
 41 39  1  0  0  0
 39 38  1  0  0  0
 38 37  1  0  0  0
 30 36  1  0  0  0
 37  1  1  0  0  0
 11 17  1  0  0  0
 11  6  1  0  0  0
  6  3  1  0  0  0
  3  4  1  0  0  0
  9  6  1  0  0  0
  4  1  1  0  0  0
 17 19  1  0  0  0
 20 18  1  0  0  0
 18 19  2  0  0  0
 22 23  1  0  0  0
 40 42  1  0  0  0
 40 43  1  0  0  0
  8 10  1  0  0  0
  3  5  1  0  0  0
 27 28  1  0  0  0
 20 21  1  0  0  0
M  END
> <minimizedAffinity>
-7.93922

$$$$
3L3N_LSW_A_1


 43 45  0  0  0  0  0  0  0  0999 V2000
   39.7492   10.2543  105.4169 C   0  0  0  0  0  0  0  0  0  0  0  0
   40.1818   12.5948  105.1569 O   0  0  0  0  0  0  0  0  0  0  0  0
   41.1980   11.5861  106.8923 N   0  0  0  0  0  0  0  0  0  0  0  0
   40.4059   11.5784  105.8154 C   0  0  0  0  0  0  0  0  0  0  0  0
   41.3262   10.7619  107.4152 H   0  0  0  0  0  0  0  0  0  0  0  0
   41.8773   12.8250  107.2952 C   0  0  0  0  0  0  0  0  0  0  0  0
   44.1859   13.4648  107.0516 O   0  0  0  0  0  0  0  0  0  0  0  0
   43.1397   12.6830  105.2727 O   0  0  0  0  0  0  0  0  0  0  0  0
   43.1622   13.0135  106.4786 C   0  0  0  0  0  0  0  0  0  0  0  0
   42.3501   12.3515  104.8924 H   0  0  0  0  0  0  0  0  0  0  0  0
   42.2502   12.8293  108.7859 C   0  0  0  0  0  0  0  0  0  0  0  0
   41.3178   14.6447  113.7383 C   0  0  0  0  0  0  0  0  0  0  0  0
   42.2898   13.6948  113.3601 C   0  0  0  0  0  0  0  0  0  0  0  0
   40.4669   15.2075  112.8183 C   0  0  0  0  0  0  0  0  0  0  0  0
   42.4197   13.2960  112.0306 C   0  0  0  0  0  0  0  0  0  0  0  0
   40.3990   14.5227  109.2651 C   0  0  0  0  0  0  0  0  0  0  0  0
   41.4238   13.6970  109.6554 C   0  0  0  0  0  0  0  0  0  0  0  0
   40.5993   14.8086  111.4862 C   0  0  0  0  0  0  0  0  0  0  0  0
   41.5657   13.8599  111.0711 C   0  0  0  0  0  0  0  0  0  0  0  0
   39.8958   15.2010  110.3766 N   0  0  0  0  0  0  0  0  0  0  0  0
   39.1581   15.8529  110.3656 H   0  0  0  0  0  0  0  0  0  0  0  0
   39.0482    9.6615  106.5546 N   0  0  0  0  0  0  0  0  0  0  0  0
   38.0478    9.6268  106.3589 H   0  0  0  0  0  0  0  0  0  0  0  0
   39.5543    8.2992  106.7745 C   0  0  0  0  0  0  0  0  0  0  0  0
   38.3890    7.3575  107.0949 C   0  0  0  0  0  0  0  0  0  0  0  0
   37.4268    7.2943  106.2994 O   0  0  0  0  0  0  0  0  0  0  0  0
   38.4321    6.6692  108.1377 O   0  0  0  0  0  0  0  0  0  0  0  0
   39.1671    6.7384  108.7147 H   0  0  0  0  0  0  0  0  0  0  0  0
   40.5537    8.2852  107.9350 C   0  0  0  0  0  0  0  0  0  0  0  0
   40.2093    9.3720  108.9570 C   0  0  0  0  0  0  0  0  0  0  0  0
   42.0444    8.6456  112.7959 C   0  0  0  0  0  0  0  0  0  0  0  0
   42.1581    7.7054  111.7773 C   0  0  0  0  0  0  0  0  0  0  0  0
   41.3185    9.8128  112.5832 C   0  0  0  0  0  0  0  0  0  0  0  0
   41.5466    7.9347  110.5502 C   0  0  0  0  0  0  0  0  0  0  0  0
   40.7087   10.0410  111.3545 C   0  0  0  0  0  0  0  0  0  0  0  0
   40.8229    9.1028  110.3346 C   0  0  0  0  0  0  0  0  0  0  0  0
   38.7745   10.4783  104.2447 C   0  0  0  0  0  0  0  0  0  0  0  0
   37.2775   10.2428  104.5448 C   0  0  0  0  0  0  0  0  0  0  0  0
   36.4621   11.4844  104.1208 C   0  0  0  0  0  0  0  0  0  0  0  0
   36.8812   12.0280  106.5381 N   0  0  0  0  0  0  0  0  0  0  0  0
   36.3270   12.5321  105.2396 C   0  0  0  0  0  0  0  0  0  0  0  0
   36.7752   12.7462  107.2547 H   0  0  0  0  0  0  0  0  0  0  0  0
   37.8701   11.8063  106.4226 H   0  0  0  0  0  0  0  0  0  0  0  0
 26 25  2  0  0  0
 25 24  1  0  0  0
 25 27  1  0  0  0
  1 22  1  0  0  0
 22 24  1  0  0  0
 24 29  1  0  0  0
 29 30  1  0  0  0
 41 40  1  0  0  0
  7  9  2  0  0  0
  4  2  2  0  0  0
  9  8  1  0  0  0
 32 31  2  0  0  0
 33 31  1  0  0  0
 34 32  1  0  0  0
 35 33  2  0  0  0
 14 12  2  0  0  0
 12 13  1  0  0  0
 15 13  2  0  0  0
 36 34  2  0  0  0
 36 35  1  0  0  0
 18 14  1  0  0  0
 19 15  1  0  0  0
 16 20  1  0  0  0
 16 17  2  0  0  0
 41 39  1  0  0  0
 39 38  1  0  0  0
 38 37  1  0  0  0
 30 36  1  0  0  0
 37  1  1  0  0  0
 11 17  1  0  0  0
 11  6  1  0  0  0
  6  3  1  0  0  0
  3  4  1  0  0  0
  9  6  1  0  0  0
  4  1  1  0  0  0
 17 19  1  0  0  0
 20 18  1  0  0  0
 18 19  2  0  0  0
 22 23  1  0  0  0
 40 42  1  0  0  0
 40 43  1  0  0  0
  8 10  1  0  0  0
  3  5  1  0  0  0
 27 28  1  0  0  0
 20 21  1  0  0  0
M  END
> <minimizedAffinity>
-7.80486

$$$$
