2QBQ_4B3_A_800


 34 36  0  0  0  0  0  0  0  0999 V2000
   44.8045   12.5991    0.1142 C   0  0  0  0  0  0  0  0  0  0  0  0
   45.0093   11.2005    0.4493 C   0  0  0  0  0  0  0  0  0  0  0  0
   44.8234   10.2062   -0.5655 C   0  0  0  0  0  0  0  0  0  0  0  0
   44.4777   10.6037   -1.9235 C   0  0  0  0  0  0  0  0  0  0  0  0
   44.2619   11.9763   -2.2956 C   0  0  0  0  0  0  0  0  0  0  0  0
   44.4305   12.9487   -1.2456 C   0  0  0  0  0  0  0  0  0  0  0  0
   44.1636   15.2268    1.0551 S   0  0  0  0  0  0  0  0  0  0  0  0
   44.9850   15.8451    2.4736 C   0  0  0  0  0  0  0  0  0  0  0  0
   45.8873   14.9529    2.9247 C   0  0  0  0  0  0  0  0  0  0  0  0
   45.9399   13.7069    2.1302 C   0  0  0  0  0  0  0  0  0  0  0  0
   45.0680   13.7028    1.1030 C   0  0  0  0  0  0  0  0  0  0  0  0
   47.1560   12.3284    2.6294 Br  0  0  0  0  0  0  0  0  0  0  0  0
   44.6590   17.2034    2.9616 C   0  0  0  0  0  0  0  0  0  0  0  0
   44.4342   18.0412    2.0632 O   0  0  0  0  0  0  0  0  0  0  0  0
   44.5972   17.4853    4.1759 O   0  0  0  0  0  0  0  0  0  0  0  0
   44.7732   16.8271    4.8192 H   0  0  0  0  0  0  0  0  0  0  0  0
   46.6346   15.1057    4.0102 O   0  0  0  0  0  0  0  0  0  0  0  0
   47.8205   15.8631    3.8562 C   0  0  0  0  0  0  0  0  0  0  0  0
   47.7905   17.0217    4.8373 C   0  0  0  0  0  0  0  0  0  0  0  0
   46.8436   17.1485    5.6464 O   0  0  0  0  0  0  0  0  0  0  0  0
   48.7465   17.8162    4.7843 O   0  0  0  0  0  0  0  0  0  0  0  0
   46.1441   16.5251    5.6503 H   0  0  0  0  0  0  0  0  0  0  0  0
   44.9616    8.8964   -0.1564 N   0  0  0  0  0  0  0  0  0  0  0  0
   44.1399    8.3974    0.0557 H   0  0  0  0  0  0  0  0  0  0  0  0
   46.2393    8.1894   -0.0131 C   0  0  0  0  0  0  0  0  0  0  0  0
   47.1842    8.5409   -1.1673 C   0  0  0  0  0  0  0  0  0  0  0  0
   48.5313    7.7981   -1.0204 C   0  0  0  0  0  0  0  0  0  0  0  0
   49.1184    7.9228    0.4039 C   0  0  0  0  0  0  0  0  0  0  0  0
   48.1338    7.6981    1.5706 C   0  0  0  0  0  0  0  0  0  0  0  0
   46.8461    8.5112    1.3556 C   0  0  0  0  0  0  0  0  0  0  0  0
   49.5768    8.3711   -2.0031 C   0  0  0  0  0  0  0  0  0  0  0  0
   48.3527    6.2893   -1.3640 C   0  0  0  0  0  0  0  0  0  0  0  0
   48.8639    8.2538    2.8026 C   0  0  0  0  0  0  0  0  0  0  0  0
   47.7840    6.1932    1.8217 C   0  0  0  0  0  0  0  0  0  0  0  0
  7  8  1  0  0  0
  7 11  1  0  0  0
  8  9  2  0  0  0
  8 13  1  0  0  0
  9 10  1  0  0  0
  9 17  1  0  0  0
 10 11  2  0  0  0
 10 12  1  0  0  0
 11  1  1  0  0  0
 13 14  2  0  0  0
 13 15  1  0  0  0
  1  2  1  0  0  0
  1  6  2  0  0  0
  2  3  2  0  0  0
  3  4  1  0  0  0
  3 23  1  0  0  0
  4  5  2  0  0  0
  5  6  1  0  0  0
 17 18  1  0  0  0
 18 19  1  0  0  0
 19 20  1  0  0  0
 19 21  2  0  0  0
 23 25  1  0  0  0
 25 26  1  0  0  0
 25 30  1  0  0  0
 26 27  1  0  0  0
 27 28  1  0  0  0
 27 31  1  0  0  0
 27 32  1  0  0  0
 28 29  1  0  0  0
 29 30  1  0  0  0
 29 33  1  0  0  0
 29 34  1  0  0  0
 15 16  1  0  0  0
 20 22  1  0  0  0
 23 24  1  0  0  0
M  END
> <minimizedAffinity>
-8.41028

$$$$
2QBQ_4B3_A_800


 34 36  0  0  0  0  0  0  0  0999 V2000
   45.8869   11.6170    1.0439 C   0  0  0  0  0  0  0  0  0  0  0  0
   47.2302   11.0646    1.0195 C   0  0  0  0  0  0  0  0  0  0  0  0
   47.4235    9.7215    0.5592 C   0  0  0  0  0  0  0  0  0  0  0  0
   46.2892    8.9425    0.0815 C   0  0  0  0  0  0  0  0  0  0  0  0
   44.9434    9.4502    0.0930 C   0  0  0  0  0  0  0  0  0  0  0  0
   44.7801   10.7940    0.5867 C   0  0  0  0  0  0  0  0  0  0  0  0
   44.5213   14.0719    0.4882 S   0  0  0  0  0  0  0  0  0  0  0  0
   44.7228   15.4233    1.5847 C   0  0  0  0  0  0  0  0  0  0  0  0
   45.5777   15.1055    2.5755 C   0  0  0  0  0  0  0  0  0  0  0  0
   46.1026   13.7259    2.4884 C   0  0  0  0  0  0  0  0  0  0  0  0
   45.6196   13.0471    1.4295 C   0  0  0  0  0  0  0  0  0  0  0  0
   47.3211   13.1020    3.8129 Br  0  0  0  0  0  0  0  0  0  0  0  0
   44.0212   16.6946    1.3000 C   0  0  0  0  0  0  0  0  0  0  0  0
   43.3003   16.6763    0.2803 O   0  0  0  0  0  0  0  0  0  0  0  0
   44.1285   17.7007    2.0308 O   0  0  0  0  0  0  0  0  0  0  0  0
   44.6804   17.6734    2.7875 H   0  0  0  0  0  0  0  0  0  0  0  0
   45.8996   15.8986    3.5893 O   0  0  0  0  0  0  0  0  0  0  0  0
   47.0411   16.7163    3.4107 C   0  0  0  0  0  0  0  0  0  0  0  0
   47.4565   17.2759    4.7598 C   0  0  0  0  0  0  0  0  0  0  0  0
   48.6390   17.6317    4.9664 O   0  0  0  0  0  0  0  0  0  0  0  0
   46.5650   17.3553    5.6239 O   0  0  0  0  0  0  0  0  0  0  0  0
   49.2775   17.5536    4.2851 H   0  0  0  0  0  0  0  0  0  0  0  0
   48.7135    9.2398    0.6346 N   0  0  0  0  0  0  0  0  0  0  0  0
   49.4283    9.7912    0.2419 H   0  0  0  0  0  0  0  0  0  0  0  0
   49.1026    7.9685    1.2553 C   0  0  0  0  0  0  0  0  0  0  0  0
   50.6270    7.8101    1.2534 C   0  0  0  0  0  0  0  0  0  0  0  0
   51.0412    6.4721    1.9063 C   0  0  0  0  0  0  0  0  0  0  0  0
   50.3324    6.2343    3.2590 C   0  0  0  0  0  0  0  0  0  0  0  0
   48.8167    6.5213    3.2956 C   0  0  0  0  0  0  0  0  0  0  0  0
   48.5102    7.8904    2.6653 C   0  0  0  0  0  0  0  0  0  0  0  0
   52.5632    6.4459    2.1710 C   0  0  0  0  0  0  0  0  0  0  0  0
   50.7183    5.2856    0.9500 C   0  0  0  0  0  0  0  0  0  0  0  0
   48.4728    6.5828    4.7914 C   0  0  0  0  0  0  0  0  0  0  0  0
   47.9464    5.4105    2.6181 C   0  0  0  0  0  0  0  0  0  0  0  0
  7  8  1  0  0  0
  7 11  1  0  0  0
  8  9  2  0  0  0
  8 13  1  0  0  0
  9 10  1  0  0  0
  9 17  1  0  0  0
 10 11  2  0  0  0
 10 12  1  0  0  0
 11  1  1  0  0  0
 13 14  2  0  0  0
 13 15  1  0  0  0
  1  2  1  0  0  0
  1  6  2  0  0  0
  2  3  2  0  0  0
  3  4  1  0  0  0
  3 23  1  0  0  0
  4  5  2  0  0  0
  5  6  1  0  0  0
 17 18  1  0  0  0
 18 19  1  0  0  0
 19 20  1  0  0  0
 19 21  2  0  0  0
 23 25  1  0  0  0
 25 26  1  0  0  0
 25 30  1  0  0  0
 26 27  1  0  0  0
 27 28  1  0  0  0
 27 31  1  0  0  0
 27 32  1  0  0  0
 28 29  1  0  0  0
 29 30  1  0  0  0
 29 33  1  0  0  0
 29 34  1  0  0  0
 15 16  1  0  0  0
 20 22  1  0  0  0
 23 24  1  0  0  0
M  END
> <minimizedAffinity>
-8.35053

$$$$
2QBQ_4B3_A_800


 34 36  0  0  0  0  0  0  0  0999 V2000
   45.9392   11.5343    1.1368 C   0  0  0  0  0  0  0  0  0  0  0  0
   47.2832   10.9828    1.1398 C   0  0  0  0  0  0  0  0  0  0  0  0
   47.4826    9.6301    0.7113 C   0  0  0  0  0  0  0  0  0  0  0  0
   46.3543    8.8397    0.2381 C   0  0  0  0  0  0  0  0  0  0  0  0
   45.0081    9.3462    0.2231 C   0  0  0  0  0  0  0  0  0  0  0  0
   44.8383   10.7004    0.6853 C   0  0  0  0  0  0  0  0  0  0  0  0
   44.5725   13.9730    0.5161 S   0  0  0  0  0  0  0  0  0  0  0  0
   44.7641   15.3495    1.5827 C   0  0  0  0  0  0  0  0  0  0  0  0
   45.6131   15.0563    2.5861 C   0  0  0  0  0  0  0  0  0  0  0  0
   46.1413   13.6761    2.5340 C   0  0  0  0  0  0  0  0  0  0  0  0
   45.6666   12.9723    1.4877 C   0  0  0  0  0  0  0  0  0  0  0  0
   47.3523   13.0853    3.8803 Br  0  0  0  0  0  0  0  0  0  0  0  0
   44.0619   16.6124    1.2643 C   0  0  0  0  0  0  0  0  0  0  0  0
   43.3297   16.5625    0.2538 O   0  0  0  0  0  0  0  0  0  0  0  0
   44.1793   17.6416    1.9606 O   0  0  0  0  0  0  0  0  0  0  0  0
   44.7395   17.6377    2.7117 H   0  0  0  0  0  0  0  0  0  0  0  0
   45.9268   15.8731    3.5835 O   0  0  0  0  0  0  0  0  0  0  0  0
   47.1119   16.6311    3.4271 C   0  0  0  0  0  0  0  0  0  0  0  0
   47.4710   17.2566    4.7634 C   0  0  0  0  0  0  0  0  0  0  0  0
   48.6220   17.7037    4.9699 O   0  0  0  0  0  0  0  0  0  0  0  0
   46.5670   17.2941    5.6173 O   0  0  0  0  0  0  0  0  0  0  0  0
   49.2718   17.6540    4.2966 H   0  0  0  0  0  0  0  0  0  0  0  0
   48.7720    9.1513    0.8120 N   0  0  0  0  0  0  0  0  0  0  0  0
   49.4219    9.4505    0.1357 H   0  0  0  0  0  0  0  0  0  0  0  0
   49.2496    8.2304    1.8495 C   0  0  0  0  0  0  0  0  0  0  0  0
   48.3430    6.9979    1.9374 C   0  0  0  0  0  0  0  0  0  0  0  0
   48.8425    6.0251    3.0293 C   0  0  0  0  0  0  0  0  0  0  0  0
   50.3595    5.7497    2.9214 C   0  0  0  0  0  0  0  0  0  0  0  0
   51.2630    6.9808    2.7000 C   0  0  0  0  0  0  0  0  0  0  0  0
   50.7089    7.8617    1.5675 C   0  0  0  0  0  0  0  0  0  0  0  0
   48.1168    4.6656    2.9179 C   0  0  0  0  0  0  0  0  0  0  0  0
   48.5317    6.6000    4.4434 C   0  0  0  0  0  0  0  0  0  0  0  0
   52.6094    6.3940    2.2499 C   0  0  0  0  0  0  0  0  0  0  0  0
   51.4875    7.8402    3.9890 C   0  0  0  0  0  0  0  0  0  0  0  0
  7  8  1  0  0  0
  7 11  1  0  0  0
  8  9  2  0  0  0
  8 13  1  0  0  0
  9 10  1  0  0  0
  9 17  1  0  0  0
 10 11  2  0  0  0
 10 12  1  0  0  0
 11  1  1  0  0  0
 13 14  2  0  0  0
 13 15  1  0  0  0
  1  2  1  0  0  0
  1  6  2  0  0  0
  2  3  2  0  0  0
  3  4  1  0  0  0
  3 23  1  0  0  0
  4  5  2  0  0  0
  5  6  1  0  0  0
 17 18  1  0  0  0
 18 19  1  0  0  0
 19 20  1  0  0  0
 19 21  2  0  0  0
 23 25  1  0  0  0
 25 26  1  0  0  0
 25 30  1  0  0  0
 26 27  1  0  0  0
 27 28  1  0  0  0
 27 31  1  0  0  0
 27 32  1  0  0  0
 28 29  1  0  0  0
 29 30  1  0  0  0
 29 33  1  0  0  0
 29 34  1  0  0  0
 15 16  1  0  0  0
 20 22  1  0  0  0
 23 24  1  0  0  0
M  END
> <minimizedAffinity>
-8.30299

$$$$
2QBQ_4B3_A_800


 34 36  0  0  0  0  0  0  0  0999 V2000
   45.8244   11.5672    1.2376 C   0  0  0  0  0  0  0  0  0  0  0  0
   47.1101   10.9110    1.4009 C   0  0  0  0  0  0  0  0  0  0  0  0
   47.2686    9.5636    0.9398 C   0  0  0  0  0  0  0  0  0  0  0  0
   46.1642    8.8836    0.2768 C   0  0  0  0  0  0  0  0  0  0  0  0
   44.8747    9.4957    0.0991 C   0  0  0  0  0  0  0  0  0  0  0  0
   44.7407   10.8409    0.5978 C   0  0  0  0  0  0  0  0  0  0  0  0
   44.5121   14.0550    0.6997 S   0  0  0  0  0  0  0  0  0  0  0  0
   44.7879   15.4108    1.7743 C   0  0  0  0  0  0  0  0  0  0  0  0
   45.6653   15.0783    2.7403 C   0  0  0  0  0  0  0  0  0  0  0  0
   46.1474   13.6833    2.6513 C   0  0  0  0  0  0  0  0  0  0  0  0
   45.6109   13.0083    1.6160 C   0  0  0  0  0  0  0  0  0  0  0  0
   47.3903   13.0376    3.9423 Br  0  0  0  0  0  0  0  0  0  0  0  0
   44.1140   16.6990    1.4986 C   0  0  0  0  0  0  0  0  0  0  0  0
   43.0349   16.6015    0.8776 O   0  0  0  0  0  0  0  0  0  0  0  0
   44.5793   17.7952    1.8720 O   0  0  0  0  0  0  0  0  0  0  0  0
   45.3929   17.8253    2.3359 H   0  0  0  0  0  0  0  0  0  0  0  0
   46.0428   15.8718    3.7344 O   0  0  0  0  0  0  0  0  0  0  0  0
   47.2963   16.5126    3.5869 C   0  0  0  0  0  0  0  0  0  0  0  0
   47.5995   17.2896    4.8557 C   0  0  0  0  0  0  0  0  0  0  0  0
   46.7308   17.4190    5.7479 O   0  0  0  0  0  0  0  0  0  0  0  0
   48.7409   17.7762    4.9468 O   0  0  0  0  0  0  0  0  0  0  0  0
   45.8835   17.0348    5.6360 H   0  0  0  0  0  0  0  0  0  0  0  0
   48.4919    8.9805    1.1956 N   0  0  0  0  0  0  0  0  0  0  0  0
   48.7570    8.8753    2.1379 H   0  0  0  0  0  0  0  0  0  0  0  0
   49.4287    8.5049    0.1714 C   0  0  0  0  0  0  0  0  0  0  0  0
   50.4352    9.6019   -0.1919 C   0  0  0  0  0  0  0  0  0  0  0  0
   51.4239    9.1052   -1.2707 C   0  0  0  0  0  0  0  0  0  0  0  0
   52.0183    7.7199   -0.9294 C   0  0  0  0  0  0  0  0  0  0  0  0
   51.0206    6.6513   -0.4359 C   0  0  0  0  0  0  0  0  0  0  0  0
   50.1125    7.2264    0.6643 C   0  0  0  0  0  0  0  0  0  0  0  0
   52.6044   10.0907   -1.4198 C   0  0  0  0  0  0  0  0  0  0  0  0
   50.7126    9.0239   -2.6541 C   0  0  0  0  0  0  0  0  0  0  0  0
   51.9035    5.5560    0.1808 C   0  0  0  0  0  0  0  0  0  0  0  0
   50.1517    6.0230   -1.5764 C   0  0  0  0  0  0  0  0  0  0  0  0
  7  8  1  0  0  0
  7 11  1  0  0  0
  8  9  2  0  0  0
  8 13  1  0  0  0
  9 10  1  0  0  0
  9 17  1  0  0  0
 10 11  2  0  0  0
 10 12  1  0  0  0
 11  1  1  0  0  0
 13 14  2  0  0  0
 13 15  1  0  0  0
  1  2  1  0  0  0
  1  6  2  0  0  0
  2  3  2  0  0  0
  3  4  1  0  0  0
  3 23  1  0  0  0
  4  5  2  0  0  0
  5  6  1  0  0  0
 17 18  1  0  0  0
 18 19  1  0  0  0
 19 20  1  0  0  0
 19 21  2  0  0  0
 23 25  1  0  0  0
 25 26  1  0  0  0
 25 30  1  0  0  0
 26 27  1  0  0  0
 27 28  1  0  0  0
 27 31  1  0  0  0
 27 32  1  0  0  0
 28 29  1  0  0  0
 29 30  1  0  0  0
 29 33  1  0  0  0
 29 34  1  0  0  0
 15 16  1  0  0  0
 20 22  1  0  0  0
 23 24  1  0  0  0
M  END
> <minimizedAffinity>
-7.33806

$$$$
2QBQ_4B3_A_800


 34 36  0  0  0  0  0  0  0  0999 V2000
   49.7633    6.6852    1.3608 C   0  0  0  0  0  0  0  0  0  0  0  0
   49.5295    8.1105    1.2055 C   0  0  0  0  0  0  0  0  0  0  0  0
   48.6780    8.5659    0.1468 C   0  0  0  0  0  0  0  0  0  0  0  0
   48.0237    7.6040   -0.7297 C   0  0  0  0  0  0  0  0  0  0  0  0
   48.2318    6.1856   -0.6125 C   0  0  0  0  0  0  0  0  0  0  0  0
   49.1143    5.7625    0.4450 C   0  0  0  0  0  0  0  0  0  0  0  0
   52.2384    5.5698    2.2719 S   0  0  0  0  0  0  0  0  0  0  0  0
   52.4253    5.1921    3.9723 C   0  0  0  0  0  0  0  0  0  0  0  0
   51.2900    5.4619    4.6447 C   0  0  0  0  0  0  0  0  0  0  0  0
   50.2099    6.0056    3.7937 C   0  0  0  0  0  0  0  0  0  0  0  0
   50.5722    6.1296    2.5020 C   0  0  0  0  0  0  0  0  0  0  0  0
   48.5330    6.4515    4.5797 Br  0  0  0  0  0  0  0  0  0  0  0  0
   53.7015    4.6130    4.4470 C   0  0  0  0  0  0  0  0  0  0  0  0
   54.4478    4.1821    3.5431 O   0  0  0  0  0  0  0  0  0  0  0  0
   54.0147    4.5736    5.6546 O   0  0  0  0  0  0  0  0  0  0  0  0
   53.4259    4.9078    6.3024 H   0  0  0  0  0  0  0  0  0  0  0  0
   51.1292    5.3289    5.9550 O   0  0  0  0  0  0  0  0  0  0  0  0
   50.7047    4.0580    6.4111 C   0  0  0  0  0  0  0  0  0  0  0  0
   51.6027    3.6256    7.5567 C   0  0  0  0  0  0  0  0  0  0  0  0
   52.2370    2.5478    7.4986 O   0  0  0  0  0  0  0  0  0  0  0  0
   51.6643    4.3955    8.5321 O   0  0  0  0  0  0  0  0  0  0  0  0
   52.1599    1.9990    6.7431 H   0  0  0  0  0  0  0  0  0  0  0  0
   48.5624    9.9338    0.0144 N   0  0  0  0  0  0  0  0  0  0  0  0
   49.3945   10.4558   -0.0527 H   0  0  0  0  0  0  0  0  0  0  0  0
   47.2947   10.6709   -0.0343 C   0  0  0  0  0  0  0  0  0  0  0  0
   47.1985   11.6589    1.1333 C   0  0  0  0  0  0  0  0  0  0  0  0
   45.8645   12.4374    1.0860 C   0  0  0  0  0  0  0  0  0  0  0  0
   45.5684   13.0105   -0.3186 C   0  0  0  0  0  0  0  0  0  0  0  0
   45.7927   12.0533   -1.5079 C   0  0  0  0  0  0  0  0  0  0  0  0
   47.1617   11.3615   -1.3947 C   0  0  0  0  0  0  0  0  0  0  0  0
   45.8944   13.6256    2.0731 C   0  0  0  0  0  0  0  0  0  0  0  0
   44.6871   11.5114    1.5134 C   0  0  0  0  0  0  0  0  0  0  0  0
   45.8072   12.9690   -2.7412 C   0  0  0  0  0  0  0  0  0  0  0  0
   44.6625   10.9841   -1.6808 C   0  0  0  0  0  0  0  0  0  0  0  0
  7  8  1  0  0  0
  7 11  1  0  0  0
  8  9  2  0  0  0
  8 13  1  0  0  0
  9 10  1  0  0  0
  9 17  1  0  0  0
 10 11  2  0  0  0
 10 12  1  0  0  0
 11  1  1  0  0  0
 13 14  2  0  0  0
 13 15  1  0  0  0
  1  2  1  0  0  0
  1  6  2  0  0  0
  2  3  2  0  0  0
  3  4  1  0  0  0
  3 23  1  0  0  0
  4  5  2  0  0  0
  5  6  1  0  0  0
 17 18  1  0  0  0
 18 19  1  0  0  0
 19 20  1  0  0  0
 19 21  2  0  0  0
 23 25  1  0  0  0
 25 26  1  0  0  0
 25 30  1  0  0  0
 26 27  1  0  0  0
 27 28  1  0  0  0
 27 31  1  0  0  0
 27 32  1  0  0  0
 28 29  1  0  0  0
 29 30  1  0  0  0
 29 33  1  0  0  0
 29 34  1  0  0  0
 15 16  1  0  0  0
 20 22  1  0  0  0
 23 24  1  0  0  0
M  END
> <minimizedAffinity>
-7.26159

$$$$
2QBQ_4B3_A_800


 34 36  0  0  0  0  0  0  0  0999 V2000
   50.5555    7.0316    1.1775 C   0  0  0  0  0  0  0  0  0  0  0  0
   49.8743    8.3119    1.2613 C   0  0  0  0  0  0  0  0  0  0  0  0
   49.2806    8.8643    0.0800 C   0  0  0  0  0  0  0  0  0  0  0  0
   49.3249    8.1251   -1.1742 C   0  0  0  0  0  0  0  0  0  0  0  0
   49.9926    6.8573   -1.3009 C   0  0  0  0  0  0  0  0  0  0  0  0
   50.6020    6.3425   -0.1009 C   0  0  0  0  0  0  0  0  0  0  0  0
   52.7861    5.7350    2.4200 S   0  0  0  0  0  0  0  0  0  0  0  0
   52.6452    5.2130    4.0863 C   0  0  0  0  0  0  0  0  0  0  0  0
   51.4141    5.4787    4.5632 C   0  0  0  0  0  0  0  0  0  0  0  0
   50.5258    6.1379    3.5818 C   0  0  0  0  0  0  0  0  0  0  0  0
   51.1235    6.3494    2.3929 C   0  0  0  0  0  0  0  0  0  0  0  0
   48.7469    6.5944    4.0873 Br  0  0  0  0  0  0  0  0  0  0  0  0
   53.7943    4.5401    4.7315 C   0  0  0  0  0  0  0  0  0  0  0  0
   54.5280    3.8970    3.9519 O   0  0  0  0  0  0  0  0  0  0  0  0
   54.0217    4.6228    5.9559 O   0  0  0  0  0  0  0  0  0  0  0  0
   53.4462    5.1157    6.5071 H   0  0  0  0  0  0  0  0  0  0  0  0
   51.0108    5.2477    5.8058 O   0  0  0  0  0  0  0  0  0  0  0  0
   50.6667    3.9105    6.1174 C   0  0  0  0  0  0  0  0  0  0  0  0
   51.1424    3.5995    7.5255 C   0  0  0  0  0  0  0  0  0  0  0  0
   50.8750    2.5000    8.0612 O   0  0  0  0  0  0  0  0  0  0  0  0
   51.7995    4.4885    8.0962 O   0  0  0  0  0  0  0  0  0  0  0  0
   50.3765    1.8596    7.5929 H   0  0  0  0  0  0  0  0  0  0  0  0
   48.7174   10.1156    0.2189 N   0  0  0  0  0  0  0  0  0  0  0  0
   49.2746   10.8231    0.6165 H   0  0  0  0  0  0  0  0  0  0  0  0
   47.3516   10.4732   -0.1804 C   0  0  0  0  0  0  0  0  0  0  0  0
   46.4140    9.2693   -0.0382 C   0  0  0  0  0  0  0  0  0  0  0  0
   44.9741    9.6416   -0.4579 C   0  0  0  0  0  0  0  0  0  0  0  0
   44.4952   10.9597    0.1917 C   0  0  0  0  0  0  0  0  0  0  0  0
   45.4932   12.1362    0.1653 C   0  0  0  0  0  0  0  0  0  0  0  0
   46.8823   11.6778    0.6405 C   0  0  0  0  0  0  0  0  0  0  0  0
   43.9830    8.5329   -0.0388 C   0  0  0  0  0  0  0  0  0  0  0  0
   44.8851    9.7791   -2.0070 C   0  0  0  0  0  0  0  0  0  0  0  0
   44.9330   13.1390    1.1852 C   0  0  0  0  0  0  0  0  0  0  0  0
   45.6066   12.8379   -1.2294 C   0  0  0  0  0  0  0  0  0  0  0  0
  7  8  1  0  0  0
  7 11  1  0  0  0
  8  9  2  0  0  0
  8 13  1  0  0  0
  9 10  1  0  0  0
  9 17  1  0  0  0
 10 11  2  0  0  0
 10 12  1  0  0  0
 11  1  1  0  0  0
 13 14  2  0  0  0
 13 15  1  0  0  0
  1  2  1  0  0  0
  1  6  2  0  0  0
  2  3  2  0  0  0
  3  4  1  0  0  0
  3 23  1  0  0  0
  4  5  2  0  0  0
  5  6  1  0  0  0
 17 18  1  0  0  0
 18 19  1  0  0  0
 19 20  1  0  0  0
 19 21  2  0  0  0
 23 25  1  0  0  0
 25 26  1  0  0  0
 25 30  1  0  0  0
 26 27  1  0  0  0
 27 28  1  0  0  0
 27 31  1  0  0  0
 27 32  1  0  0  0
 28 29  1  0  0  0
 29 30  1  0  0  0
 29 33  1  0  0  0
 29 34  1  0  0  0
 15 16  1  0  0  0
 20 22  1  0  0  0
 23 24  1  0  0  0
M  END
> <minimizedAffinity>
-7.14979

$$$$
2QBQ_4B3_A_800


 34 36  0  0  0  0  0  0  0  0999 V2000
   49.3158    6.6218    0.3096 C   0  0  0  0  0  0  0  0  0  0  0  0
   48.1065    7.3692    0.0106 C   0  0  0  0  0  0  0  0  0  0  0  0
   47.4895    7.2122   -1.2731 C   0  0  0  0  0  0  0  0  0  0  0  0
   48.0479    6.2801   -2.2431 C   0  0  0  0  0  0  0  0  0  0  0  0
   49.2452    5.5247   -1.9884 C   0  0  0  0  0  0  0  0  0  0  0  0
   49.8556    5.7257   -0.6987 C   0  0  0  0  0  0  0  0  0  0  0  0
   51.2034    7.8758    2.0603 S   0  0  0  0  0  0  0  0  0  0  0  0
   51.3442    7.3016    3.7094 C   0  0  0  0  0  0  0  0  0  0  0  0
   50.5183    6.2590    3.9198 C   0  0  0  0  0  0  0  0  0  0  0  0
   49.7169    5.8865    2.7342 C   0  0  0  0  0  0  0  0  0  0  0  0
   49.9670    6.6682    1.6657 C   0  0  0  0  0  0  0  0  0  0  0  0
   48.4880    4.4360    2.8524 Br  0  0  0  0  0  0  0  0  0  0  0  0
   52.3202    7.9449    4.6167 C   0  0  0  0  0  0  0  0  0  0  0  0
   52.3075    9.1935    4.5970 O   0  0  0  0  0  0  0  0  0  0  0  0
   53.0844    7.2909    5.3557 O   0  0  0  0  0  0  0  0  0  0  0  0
   53.0628    6.3543    5.3405 H   0  0  0  0  0  0  0  0  0  0  0  0
   50.3577    5.6346    5.0794 O   0  0  0  0  0  0  0  0  0  0  0  0
   51.0265    4.3956    5.2248 C   0  0  0  0  0  0  0  0  0  0  0  0
   51.9709    4.4869    6.4103 C   0  0  0  0  0  0  0  0  0  0  0  0
   51.5251    4.6204    7.5726 O   0  0  0  0  0  0  0  0  0  0  0  0
   53.1869    4.4213    6.1552 O   0  0  0  0  0  0  0  0  0  0  0  0
   50.6004    4.6653    7.7174 H   0  0  0  0  0  0  0  0  0  0  0  0
   46.3893    8.0085   -1.5128 N   0  0  0  0  0  0  0  0  0  0  0  0
   45.5781    7.5707   -1.8586 H   0  0  0  0  0  0  0  0  0  0  0  0
   46.3348    9.4580   -1.2921 C   0  0  0  0  0  0  0  0  0  0  0  0
   45.7194   10.1667   -2.5037 C   0  0  0  0  0  0  0  0  0  0  0  0
   45.6602   11.6939   -2.2754 C   0  0  0  0  0  0  0  0  0  0  0  0
   45.0651   12.0591   -0.8966 C   0  0  0  0  0  0  0  0  0  0  0  0
   45.5902   11.2523    0.3093 C   0  0  0  0  0  0  0  0  0  0  0  0
   45.5688    9.7454    0.0024 C   0  0  0  0  0  0  0  0  0  0  0  0
   44.7817   12.3697   -3.3518 C   0  0  0  0  0  0  0  0  0  0  0  0
   47.0866   12.3094   -2.3903 C   0  0  0  0  0  0  0  0  0  0  0  0
   44.5813   11.5378    1.4319 C   0  0  0  0  0  0  0  0  0  0  0  0
   47.0176   11.6840    0.7855 C   0  0  0  0  0  0  0  0  0  0  0  0
  7  8  1  0  0  0
  7 11  1  0  0  0
  8  9  2  0  0  0
  8 13  1  0  0  0
  9 10  1  0  0  0
  9 17  1  0  0  0
 10 11  2  0  0  0
 10 12  1  0  0  0
 11  1  1  0  0  0
 13 14  2  0  0  0
 13 15  1  0  0  0
  1  2  1  0  0  0
  1  6  2  0  0  0
  2  3  2  0  0  0
  3  4  1  0  0  0
  3 23  1  0  0  0
  4  5  2  0  0  0
  5  6  1  0  0  0
 17 18  1  0  0  0
 18 19  1  0  0  0
 19 20  1  0  0  0
 19 21  2  0  0  0
 23 25  1  0  0  0
 25 26  1  0  0  0
 25 30  1  0  0  0
 26 27  1  0  0  0
 27 28  1  0  0  0
 27 31  1  0  0  0
 27 32  1  0  0  0
 28 29  1  0  0  0
 29 30  1  0  0  0
 29 33  1  0  0  0
 29 34  1  0  0  0
 15 16  1  0  0  0
 20 22  1  0  0  0
 23 24  1  0  0  0
M  END
> <minimizedAffinity>
-7.12334

$$$$
2QBQ_4B3_A_800


 34 36  0  0  0  0  0  0  0  0999 V2000
   49.4063    6.3012    0.7925 C   0  0  0  0  0  0  0  0  0  0  0  0
   48.2330    7.1506    0.9024 C   0  0  0  0  0  0  0  0  0  0  0  0
   47.4359    7.3926   -0.2634 C   0  0  0  0  0  0  0  0  0  0  0  0
   47.7783    6.7557   -1.5278 C   0  0  0  0  0  0  0  0  0  0  0  0
   48.9331    5.9118   -1.6802 C   0  0  0  0  0  0  0  0  0  0  0  0
   49.7282    5.7104   -0.4955 C   0  0  0  0  0  0  0  0  0  0  0  0
   51.4201    7.0565    2.6831 S   0  0  0  0  0  0  0  0  0  0  0  0
   51.8382    5.9431    3.9694 C   0  0  0  0  0  0  0  0  0  0  0  0
   51.1342    4.8008    3.8542 C   0  0  0  0  0  0  0  0  0  0  0  0
   50.2040    4.7889    2.7049 C   0  0  0  0  0  0  0  0  0  0  0  0
   50.2381    5.9312    1.9910 C   0  0  0  0  0  0  0  0  0  0  0  0
   49.1211    3.2534    2.3922 Br  0  0  0  0  0  0  0  0  0  0  0  0
   52.8801    6.3281    4.9470 C   0  0  0  0  0  0  0  0  0  0  0  0
   52.9359    7.5505    5.1966 O   0  0  0  0  0  0  0  0  0  0  0  0
   53.6328    5.4946    5.4916 O   0  0  0  0  0  0  0  0  0  0  0  0
   53.5587    4.5857    5.2765 H   0  0  0  0  0  0  0  0  0  0  0  0
   51.1893    3.7818    4.7021 O   0  0  0  0  0  0  0  0  0  0  0  0
   50.3913    3.8881    5.8663 C   0  0  0  0  0  0  0  0  0  0  0  0
   51.2613    3.6160    7.0808 C   0  0  0  0  0  0  0  0  0  0  0  0
   51.4911    2.4423    7.4511 O   0  0  0  0  0  0  0  0  0  0  0  0
   51.7191    4.6128    7.6678 O   0  0  0  0  0  0  0  0  0  0  0  0
   51.1247    1.7214    6.9777 H   0  0  0  0  0  0  0  0  0  0  0  0
   46.3823    8.2676   -0.1004 N   0  0  0  0  0  0  0  0  0  0  0  0
   45.4812    7.8819   -0.0092 H   0  0  0  0  0  0  0  0  0  0  0  0
   46.5014    9.7292   -0.0526 C   0  0  0  0  0  0  0  0  0  0  0  0
   46.4019   10.2328    1.3914 C   0  0  0  0  0  0  0  0  0  0  0  0
   46.5267   11.7721    1.4464 C   0  0  0  0  0  0  0  0  0  0  0  0
   47.7262   12.2939    0.6231 C   0  0  0  0  0  0  0  0  0  0  0  0
   47.9035   11.6880   -0.7848 C   0  0  0  0  0  0  0  0  0  0  0  0
   47.8079   10.1539   -0.7293 C   0  0  0  0  0  0  0  0  0  0  0  0
   46.7233   12.2488    2.9029 C   0  0  0  0  0  0  0  0  0  0  0  0
   45.2213   12.4358    0.9155 C   0  0  0  0  0  0  0  0  0  0  0  0
   49.3328   12.0751   -1.1931 C   0  0  0  0  0  0  0  0  0  0  0  0
   46.9004   12.2513   -1.8464 C   0  0  0  0  0  0  0  0  0  0  0  0
  7  8  1  0  0  0
  7 11  1  0  0  0
  8  9  2  0  0  0
  8 13  1  0  0  0
  9 10  1  0  0  0
  9 17  1  0  0  0
 10 11  2  0  0  0
 10 12  1  0  0  0
 11  1  1  0  0  0
 13 14  2  0  0  0
 13 15  1  0  0  0
  1  2  1  0  0  0
  1  6  2  0  0  0
  2  3  2  0  0  0
  3  4  1  0  0  0
  3 23  1  0  0  0
  4  5  2  0  0  0
  5  6  1  0  0  0
 17 18  1  0  0  0
 18 19  1  0  0  0
 19 20  1  0  0  0
 19 21  2  0  0  0
 23 25  1  0  0  0
 25 26  1  0  0  0
 25 30  1  0  0  0
 26 27  1  0  0  0
 27 28  1  0  0  0
 27 31  1  0  0  0
 27 32  1  0  0  0
 28 29  1  0  0  0
 29 30  1  0  0  0
 29 33  1  0  0  0
 29 34  1  0  0  0
 15 16  1  0  0  0
 20 22  1  0  0  0
 23 24  1  0  0  0
M  END
> <minimizedAffinity>
-7.10372

$$$$
2QBQ_4B3_A_800


 34 36  0  0  0  0  0  0  0  0999 V2000
   50.6202    7.3137    1.3279 C   0  0  0  0  0  0  0  0  0  0  0  0
   49.2352    7.1630    0.9162 C   0  0  0  0  0  0  0  0  0  0  0  0
   48.7810    7.8389   -0.2628 C   0  0  0  0  0  0  0  0  0  0  0  0
   49.7124    8.6282   -1.0572 C   0  0  0  0  0  0  0  0  0  0  0  0
   51.0896    8.8062   -0.6824 C   0  0  0  0  0  0  0  0  0  0  0  0
   51.5075    8.1353    0.5224 C   0  0  0  0  0  0  0  0  0  0  0  0
   52.7958    5.8177    2.4365 S   0  0  0  0  0  0  0  0  0  0  0  0
   52.6938    5.2750    4.0991 C   0  0  0  0  0  0  0  0  0  0  0  0
   51.5128    5.6289    4.6409 C   0  0  0  0  0  0  0  0  0  0  0  0
   50.6344    6.3768    3.7159 C   0  0  0  0  0  0  0  0  0  0  0  0
   51.1891    6.5637    2.5023 C   0  0  0  0  0  0  0  0  0  0  0  0
   48.9250    6.9641    4.3167 Br  0  0  0  0  0  0  0  0  0  0  0  0
   53.8145    4.4993    4.6751 C   0  0  0  0  0  0  0  0  0  0  0  0
   54.4540    3.8141    3.8498 O   0  0  0  0  0  0  0  0  0  0  0  0
   54.1077    4.5398    5.8876 O   0  0  0  0  0  0  0  0  0  0  0  0
   53.6021    5.0669    6.4746 H   0  0  0  0  0  0  0  0  0  0  0  0
   51.1526    5.4058    5.8982 O   0  0  0  0  0  0  0  0  0  0  0  0
   50.6677    4.1092    6.1933 C   0  0  0  0  0  0  0  0  0  0  0  0
   51.3520    3.6069    7.4523 C   0  0  0  0  0  0  0  0  0  0  0  0
   51.5823    2.3865    7.6100 O   0  0  0  0  0  0  0  0  0  0  0  0
   51.6610    4.4685    8.2951 O   0  0  0  0  0  0  0  0  0  0  0  0
   51.3315    1.7730    6.9476 H   0  0  0  0  0  0  0  0  0  0  0  0
   47.4382    7.7103   -0.5499 N   0  0  0  0  0  0  0  0  0  0  0  0
   47.0604    6.8012   -0.5590 H   0  0  0  0  0  0  0  0  0  0  0  0
   46.5294    8.8243   -0.8428 C   0  0  0  0  0  0  0  0  0  0  0  0
   45.2215    8.3090   -1.4532 C   0  0  0  0  0  0  0  0  0  0  0  0
   44.2612    9.4793   -1.7634 C   0  0  0  0  0  0  0  0  0  0  0  0
   44.1206   10.4550   -0.5731 C   0  0  0  0  0  0  0  0  0  0  0  0
   45.4310   10.8716    0.1271 C   0  0  0  0  0  0  0  0  0  0  0  0
   46.2963    9.6376    0.4336 C   0  0  0  0  0  0  0  0  0  0  0  0
   42.8487    8.9486   -2.0956 C   0  0  0  0  0  0  0  0  0  0  0  0
   44.7625   10.2692   -3.0090 C   0  0  0  0  0  0  0  0  0  0  0  0
   44.9763   11.4933    1.4561 C   0  0  0  0  0  0  0  0  0  0  0  0
   46.2654   11.9289   -0.6706 C   0  0  0  0  0  0  0  0  0  0  0  0
  7  8  1  0  0  0
  7 11  1  0  0  0
  8  9  2  0  0  0
  8 13  1  0  0  0
  9 10  1  0  0  0
  9 17  1  0  0  0
 10 11  2  0  0  0
 10 12  1  0  0  0
 11  1  1  0  0  0
 13 14  2  0  0  0
 13 15  1  0  0  0
  1  2  1  0  0  0
  1  6  2  0  0  0
  2  3  2  0  0  0
  3  4  1  0  0  0
  3 23  1  0  0  0
  4  5  2  0  0  0
  5  6  1  0  0  0
 17 18  1  0  0  0
 18 19  1  0  0  0
 19 20  1  0  0  0
 19 21  2  0  0  0
 23 25  1  0  0  0
 25 26  1  0  0  0
 25 30  1  0  0  0
 26 27  1  0  0  0
 27 28  1  0  0  0
 27 31  1  0  0  0
 27 32  1  0  0  0
 28 29  1  0  0  0
 29 30  1  0  0  0
 29 33  1  0  0  0
 29 34  1  0  0  0
 15 16  1  0  0  0
 20 22  1  0  0  0
 23 24  1  0  0  0
M  END
> <minimizedAffinity>
-6.93134

$$$$
2QBQ_4B3_A_800


 34 36  0  0  0  0  0  0  0  0999 V2000
   49.6423    6.2101    2.8840 C   0  0  0  0  0  0  0  0  0  0  0  0
   49.4510    7.6483    2.8110 C   0  0  0  0  0  0  0  0  0  0  0  0
   48.4936    8.1781    1.8859 C   0  0  0  0  0  0  0  0  0  0  0  0
   47.6947    7.2780    1.0654 C   0  0  0  0  0  0  0  0  0  0  0  0
   47.8560    5.8491    1.1041 C   0  0  0  0  0  0  0  0  0  0  0  0
   48.8455    5.3505    2.0253 C   0  0  0  0  0  0  0  0  0  0  0  0
   49.9643    4.9803    5.4500 S   0  0  0  0  0  0  0  0  0  0  0  0
   51.5472    4.3935    5.9183 C   0  0  0  0  0  0  0  0  0  0  0  0
   52.4532    4.6572    4.9574 C   0  0  0  0  0  0  0  0  0  0  0  0
   51.8862    5.3471    3.7788 C   0  0  0  0  0  0  0  0  0  0  0  0
   50.5638    5.5784    3.8926 C   0  0  0  0  0  0  0  0  0  0  0  0
   53.0238    5.7927    2.3174 Br  0  0  0  0  0  0  0  0  0  0  0  0
   51.7187    3.7598    7.2444 C   0  0  0  0  0  0  0  0  0  0  0  0
   51.7374    4.5569    8.2056 O   0  0  0  0  0  0  0  0  0  0  0  0
   51.8200    2.5246    7.3919 O   0  0  0  0  0  0  0  0  0  0  0  0
   51.8014    1.9604    6.6440 H   0  0  0  0  0  0  0  0  0  0  0  0
   53.7293    4.2960    4.9921 O   0  0  0  0  0  0  0  0  0  0  0  0
   54.1131    3.2563    4.1116 C   0  0  0  0  0  0  0  0  0  0  0  0
   53.7670    1.9230    4.7506 C   0  0  0  0  0  0  0  0  0  0  0  0
   54.2780    1.5871    5.8430 O   0  0  0  0  0  0  0  0  0  0  0  0
   52.9614    1.2053    4.1310 O   0  0  0  0  0  0  0  0  0  0  0  0
   54.8807    2.1604    6.2743 H   0  0  0  0  0  0  0  0  0  0  0  0
   48.4199    9.5536    1.8186 N   0  0  0  0  0  0  0  0  0  0  0  0
   49.1319   10.0691    2.2620 H   0  0  0  0  0  0  0  0  0  0  0  0
   47.3620   10.3078    1.1369 C   0  0  0  0  0  0  0  0  0  0  0  0
   46.9470   11.5276    1.9668 C   0  0  0  0  0  0  0  0  0  0  0  0
   45.8326   12.3249    1.2524 C   0  0  0  0  0  0  0  0  0  0  0  0
   46.1616   12.5911   -0.2341 C   0  0  0  0  0  0  0  0  0  0  0  0
   46.7059   11.3921   -1.0385 C   0  0  0  0  0  0  0  0  0  0  0  0
   47.8376   10.6924   -0.2670 C   0  0  0  0  0  0  0  0  0  0  0  0
   45.6254   13.6966    1.9328 C   0  0  0  0  0  0  0  0  0  0  0  0
   44.4808   11.5561    1.3419 C   0  0  0  0  0  0  0  0  0  0  0  0
   47.2953   12.0184   -2.3113 C   0  0  0  0  0  0  0  0  0  0  0  0
   45.6084   10.3522   -1.4438 C   0  0  0  0  0  0  0  0  0  0  0  0
  7  8  1  0  0  0
  7 11  1  0  0  0
  8  9  2  0  0  0
  8 13  1  0  0  0
  9 10  1  0  0  0
  9 17  1  0  0  0
 10 11  2  0  0  0
 10 12  1  0  0  0
 11  1  1  0  0  0
 13 14  2  0  0  0
 13 15  1  0  0  0
  1  2  1  0  0  0
  1  6  2  0  0  0
  2  3  2  0  0  0
  3  4  1  0  0  0
  3 23  1  0  0  0
  4  5  2  0  0  0
  5  6  1  0  0  0
 17 18  1  0  0  0
 18 19  1  0  0  0
 19 20  1  0  0  0
 19 21  2  0  0  0
 23 25  1  0  0  0
 25 26  1  0  0  0
 25 30  1  0  0  0
 26 27  1  0  0  0
 27 28  1  0  0  0
 27 31  1  0  0  0
 27 32  1  0  0  0
 28 29  1  0  0  0
 29 30  1  0  0  0
 29 33  1  0  0  0
 29 34  1  0  0  0
 15 16  1  0  0  0
 20 22  1  0  0  0
 23 24  1  0  0  0
M  END
> <minimizedAffinity>
-6.84434

$$$$
