8CPA_AGF_A_309


 36 37  0  0  0  0  0  0  0  0999 V2000
   44.6304   21.1268   39.0253 C   0  0  0  0  0  0  0  0  0  0  0  0
   45.3773   18.8206   38.8541 C   0  0  0  0  0  0  0  0  0  0  0  0
   44.4506   18.4575   39.5060 O   0  0  0  0  0  0  0  0  0  0  0  0
   45.4925   20.1543   38.5434 N   0  0  0  0  0  0  0  0  0  0  0  0
   46.2251   20.4334   37.9479 H   0  0  0  0  0  0  0  0  0  0  0  0
   46.3684   17.9507   38.2569 C   0  0  0  0  0  0  0  0  0  0  0  0
   45.6097   16.9736   37.3503 C   0  0  0  0  0  0  0  0  0  0  0  0
   48.5735   17.1928   39.0135 C   0  0  0  0  0  0  0  0  0  0  0  0
   49.2254   16.7077   39.8867 O   0  0  0  0  0  0  0  0  0  0  0  0
   47.2519   17.2731   39.1479 N   0  0  0  0  0  0  0  0  0  0  0  0
   46.8503   16.8271   39.9282 H   0  0  0  0  0  0  0  0  0  0  0  0
   49.0822   17.6599   37.9071 O   0  0  0  0  0  0  0  0  0  0  0  0
   49.9394   16.8759   37.1225 C   0  0  0  0  0  0  0  0  0  0  0  0
   49.8316   17.2264   35.7433 C   0  0  0  0  0  0  0  0  0  0  0  0
   50.9349   17.4842   35.0124 C   0  0  0  0  0  0  0  0  0  0  0  0
   48.6121   17.3251   35.1828 C   0  0  0  0  0  0  0  0  0  0  0  0
   50.8186   17.8355   33.7149 C   0  0  0  0  0  0  0  0  0  0  0  0
   48.4969   17.6780   33.8879 C   0  0  0  0  0  0  0  0  0  0  0  0
   49.5960   17.9393   33.1518 C   0  0  0  0  0  0  0  0  0  0  0  0
   44.8361   22.6932   38.4520 P   0  0  0  0  0  0  0  0  0  0  0  0
   43.4772   23.4274   38.3456 O   0  0  0  0  0  0  0  0  0  0  0  0
   45.8957   23.2328   39.4522 O   0  0  0  0  0  0  0  0  0  0  0  0
   45.5021   23.2979   40.3363 H   0  0  0  0  0  0  0  0  0  0  0  0
   45.6654   22.6495   37.0311 O   0  0  0  0  0  0  0  0  0  0  0  0
   45.1551   23.4263   35.9131 C   0  0  0  0  0  0  0  0  0  0  0  0
   44.5764   22.3878   35.1037 C   0  0  0  0  0  0  0  0  0  0  0  0
   45.0445   21.2940   35.0460 O   0  0  0  0  0  0  0  0  0  0  0  0
   43.4967   22.6942   34.4272 O   0  0  0  0  0  0  0  0  0  0  0  0
   43.1391   23.5586   34.4818 H   0  0  0  0  0  0  0  0  0  0  0  0
   46.2386   23.9396   34.9679 C   0  0  0  0  0  0  0  0  0  0  0  0
   45.8552   24.8355   33.9100 C   0  0  0  0  0  0  0  0  0  0  0  0
   46.0647   24.5045   32.6173 C   0  0  0  0  0  0  0  0  0  0  0  0
   45.3131   26.0344   34.2092 C   0  0  0  0  0  0  0  0  0  0  0  0
   45.7055   25.3472   31.6237 C   0  0  0  0  0  0  0  0  0  0  0  0
   44.9640   26.8823   33.2217 C   0  0  0  0  0  0  0  0  0  0  0  0
   45.1603   26.5504   31.9263 C   0  0  0  0  0  0  0  0  0  0  0  0
  8  9  2  0  0  0
  8 12  1  0  0  0
  8 10  1  0  0  0
 12 13  1  0  0  0
 13 14  1  0  0  0
 14 15  2  0  0  0
 14 16  1  0  0  0
 15 17  1  0  0  0
 16 18  2  0  0  0
 17 19  2  0  0  0
 18 19  1  0  0  0
  2  3  2  0  0  0
  2  6  1  0  0  0
  2  4  1  0  0  0
  6  7  1  0  0  0
  6 10  1  0  0  0
  1  4  1  0  0  0
  1 20  1  0  0  0
 20 21  2  0  0  0
 20 22  1  0  0  0
 20 24  1  0  0  0
 24 25  1  0  0  0
 25 26  1  0  0  0
 25 30  1  0  0  0
 26 27  2  0  0  0
 26 28  1  0  0  0
 30 31  1  0  0  0
 31 32  2  0  0  0
 31 33  1  0  0  0
 32 34  1  0  0  0
 33 35  2  0  0  0
 34 36  2  0  0  0
 35 36  1  0  0  0
 10 11  1  0  0  0
  4  5  1  0  0  0
 22 23  1  0  0  0
 28 29  1  0  0  0
M  END
> <minimizedAffinity>
-9.52341

$$$$
8CPA_AGF_A_309


 36 37  0  0  0  0  0  0  0  0999 V2000
   44.5643   21.2176   39.1058 C   0  0  0  0  0  0  0  0  0  0  0  0
   45.2082   18.8934   38.8073 C   0  0  0  0  0  0  0  0  0  0  0  0
   44.4025   18.5522   39.6135 O   0  0  0  0  0  0  0  0  0  0  0  0
   45.3015   20.2247   38.4797 N   0  0  0  0  0  0  0  0  0  0  0  0
   45.9241   20.4868   37.7635 H   0  0  0  0  0  0  0  0  0  0  0  0
   46.0545   18.0001   38.0448 C   0  0  0  0  0  0  0  0  0  0  0  0
   47.3875   17.9048   38.7973 C   0  0  0  0  0  0  0  0  0  0  0  0
   46.3958   17.4228   35.6869 C   0  0  0  0  0  0  0  0  0  0  0  0
   46.4198   17.7942   34.5537 O   0  0  0  0  0  0  0  0  0  0  0  0
   46.2430   18.3112   36.6660 N   0  0  0  0  0  0  0  0  0  0  0  0
   46.2616   19.2636   36.4173 H   0  0  0  0  0  0  0  0  0  0  0  0
   46.5142   16.1727   36.0396 O   0  0  0  0  0  0  0  0  0  0  0  0
   47.7770   15.5772   36.1643 C   0  0  0  0  0  0  0  0  0  0  0  0
   47.8843   14.4282   35.3247 C   0  0  0  0  0  0  0  0  0  0  0  0
   47.1614   13.3197   35.5828 C   0  0  0  0  0  0  0  0  0  0  0  0
   48.7378   14.4506   34.2845 C   0  0  0  0  0  0  0  0  0  0  0  0
   47.2876   12.2322   34.7940 C   0  0  0  0  0  0  0  0  0  0  0  0
   48.8647   13.3637   33.4990 C   0  0  0  0  0  0  0  0  0  0  0  0
   48.1465   12.2512   33.7526 C   0  0  0  0  0  0  0  0  0  0  0  0
   44.7743   22.7939   38.5619 P   0  0  0  0  0  0  0  0  0  0  0  0
   43.4100   23.4989   38.3657 O   0  0  0  0  0  0  0  0  0  0  0  0
   45.7480   23.3466   39.6392 O   0  0  0  0  0  0  0  0  0  0  0  0
   45.2915   23.3941   40.4938 H   0  0  0  0  0  0  0  0  0  0  0  0
   45.7029   22.7829   37.2031 O   0  0  0  0  0  0  0  0  0  0  0  0
   45.1672   23.3979   35.9994 C   0  0  0  0  0  0  0  0  0  0  0  0
   44.5615   22.2605   35.3609 C   0  0  0  0  0  0  0  0  0  0  0  0
   44.9572   21.1506   35.5348 O   0  0  0  0  0  0  0  0  0  0  0  0
   43.5404   22.4953   34.5737 O   0  0  0  0  0  0  0  0  0  0  0  0
   43.2396   23.3734   34.4459 H   0  0  0  0  0  0  0  0  0  0  0  0
   46.2281   23.7620   34.9636 C   0  0  0  0  0  0  0  0  0  0  0  0
   45.9036   24.7508   33.9706 C   0  0  0  0  0  0  0  0  0  0  0  0
   46.0059   24.4646   32.6545 C   0  0  0  0  0  0  0  0  0  0  0  0
   45.5272   25.9885   34.3540 C   0  0  0  0  0  0  0  0  0  0  0  0
   45.7023   25.3945   31.7220 C   0  0  0  0  0  0  0  0  0  0  0  0
   45.2345   26.9220   33.4272 C   0  0  0  0  0  0  0  0  0  0  0  0
   45.3234   26.6367   32.1091 C   0  0  0  0  0  0  0  0  0  0  0  0
  8  9  2  0  0  0
  8 12  1  0  0  0
  8 10  1  0  0  0
 12 13  1  0  0  0
 13 14  1  0  0  0
 14 15  2  0  0  0
 14 16  1  0  0  0
 15 17  1  0  0  0
 16 18  2  0  0  0
 17 19  2  0  0  0
 18 19  1  0  0  0
  2  3  2  0  0  0
  2  6  1  0  0  0
  2  4  1  0  0  0
  6  7  1  0  0  0
  6 10  1  0  0  0
  1  4  1  0  0  0
  1 20  1  0  0  0
 20 21  2  0  0  0
 20 22  1  0  0  0
 20 24  1  0  0  0
 24 25  1  0  0  0
 25 26  1  0  0  0
 25 30  1  0  0  0
 26 27  2  0  0  0
 26 28  1  0  0  0
 30 31  1  0  0  0
 31 32  2  0  0  0
 31 33  1  0  0  0
 32 34  1  0  0  0
 33 35  2  0  0  0
 34 36  2  0  0  0
 35 36  1  0  0  0
 10 11  1  0  0  0
  4  5  1  0  0  0
 22 23  1  0  0  0
 28 29  1  0  0  0
M  END
> <minimizedAffinity>
-9.43244

$$$$
8CPA_AGF_A_309


 36 37  0  0  0  0  0  0  0  0999 V2000
   44.6028   21.2538   39.1443 C   0  0  0  0  0  0  0  0  0  0  0  0
   45.2370   18.9137   38.9800 C   0  0  0  0  0  0  0  0  0  0  0  0
   44.2060   18.5852   39.4747 O   0  0  0  0  0  0  0  0  0  0  0  0
   45.4706   20.2480   38.7488 N   0  0  0  0  0  0  0  0  0  0  0  0
   46.2970   20.5026   38.2781 H   0  0  0  0  0  0  0  0  0  0  0  0
   46.2548   18.0063   38.4937 C   0  0  0  0  0  0  0  0  0  0  0  0
   46.0701   17.9087   36.9742 C   0  0  0  0  0  0  0  0  0  0  0  0
   46.9552   16.4325   40.2378 C   0  0  0  0  0  0  0  0  0  0  0  0
   46.8345   15.3495   40.7227 O   0  0  0  0  0  0  0  0  0  0  0  0
   46.3171   16.7199   39.1058 N   0  0  0  0  0  0  0  0  0  0  0  0
   45.8486   15.9820   38.6527 H   0  0  0  0  0  0  0  0  0  0  0  0
   47.6907   17.3773   40.7551 O   0  0  0  0  0  0  0  0  0  0  0  0
   47.4352   17.8625   42.0451 C   0  0  0  0  0  0  0  0  0  0  0  0
   47.6883   19.2649   42.1219 C   0  0  0  0  0  0  0  0  0  0  0  0
   46.6827   20.1524   41.9842 C   0  0  0  0  0  0  0  0  0  0  0  0
   48.9495   19.6969   42.3059 C   0  0  0  0  0  0  0  0  0  0  0  0
   46.9382   21.4762   42.0373 C   0  0  0  0  0  0  0  0  0  0  0  0
   49.2039   21.0187   42.3566 C   0  0  0  0  0  0  0  0  0  0  0  0
   48.2033   21.9116   42.2175 C   0  0  0  0  0  0  0  0  0  0  0  0
   44.8098   22.7696   38.4484 P   0  0  0  0  0  0  0  0  0  0  0  0
   43.4562   23.5100   38.3201 O   0  0  0  0  0  0  0  0  0  0  0  0
   45.9002   23.3705   39.3779 O   0  0  0  0  0  0  0  0  0  0  0  0
   45.5301   23.5074   40.2640 H   0  0  0  0  0  0  0  0  0  0  0  0
   45.6019   22.6080   37.0148 O   0  0  0  0  0  0  0  0  0  0  0  0
   45.1251   23.3754   35.8756 C   0  0  0  0  0  0  0  0  0  0  0  0
   44.5333   22.3356   35.0775 C   0  0  0  0  0  0  0  0  0  0  0  0
   44.9934   21.2382   35.0236 O   0  0  0  0  0  0  0  0  0  0  0  0
   43.4507   22.6451   34.4070 O   0  0  0  0  0  0  0  0  0  0  0  0
   43.0995   23.5123   34.4586 H   0  0  0  0  0  0  0  0  0  0  0  0
   46.2332   23.8456   34.9365 C   0  0  0  0  0  0  0  0  0  0  0  0
   45.8982   24.7842   33.8992 C   0  0  0  0  0  0  0  0  0  0  0  0
   46.0144   24.4426   32.5975 C   0  0  0  0  0  0  0  0  0  0  0  0
   45.4975   26.0305   34.2257 C   0  0  0  0  0  0  0  0  0  0  0  0
   45.7008   25.3253   31.6234 C   0  0  0  0  0  0  0  0  0  0  0  0
   45.1948   26.9173   33.2572 C   0  0  0  0  0  0  0  0  0  0  0  0
   45.2976   26.5763   31.9534 C   0  0  0  0  0  0  0  0  0  0  0  0
  8  9  2  0  0  0
  8 12  1  0  0  0
  8 10  1  0  0  0
 12 13  1  0  0  0
 13 14  1  0  0  0
 14 15  2  0  0  0
 14 16  1  0  0  0
 15 17  1  0  0  0
 16 18  2  0  0  0
 17 19  2  0  0  0
 18 19  1  0  0  0
  2  3  2  0  0  0
  2  6  1  0  0  0
  2  4  1  0  0  0
  6  7  1  0  0  0
  6 10  1  0  0  0
  1  4  1  0  0  0
  1 20  1  0  0  0
 20 21  2  0  0  0
 20 22  1  0  0  0
 20 24  1  0  0  0
 24 25  1  0  0  0
 25 26  1  0  0  0
 25 30  1  0  0  0
 26 27  2  0  0  0
 26 28  1  0  0  0
 30 31  1  0  0  0
 31 32  2  0  0  0
 31 33  1  0  0  0
 32 34  1  0  0  0
 33 35  2  0  0  0
 34 36  2  0  0  0
 35 36  1  0  0  0
 10 11  1  0  0  0
  4  5  1  0  0  0
 22 23  1  0  0  0
 28 29  1  0  0  0
M  END
> <minimizedAffinity>
-9.35691

$$$$
8CPA_AGF_A_309


 36 37  0  0  0  0  0  0  0  0999 V2000
   45.2765   22.4299   39.5191 C   0  0  0  0  0  0  0  0  0  0  0  0
   46.9948   20.7734   39.9761 C   0  0  0  0  0  0  0  0  0  0  0  0
   47.8329   21.5070   39.5578 O   0  0  0  0  0  0  0  0  0  0  0  0
   45.6914   21.2063   40.0211 N   0  0  0  0  0  0  0  0  0  0  0  0
   45.0175   20.6171   40.4311 H   0  0  0  0  0  0  0  0  0  0  0  0
   47.2411   19.4678   40.5510 C   0  0  0  0  0  0  0  0  0  0  0  0
   46.7240   19.5158   41.9941 C   0  0  0  0  0  0  0  0  0  0  0  0
   49.1323   18.3947   39.4190 C   0  0  0  0  0  0  0  0  0  0  0  0
   50.2963   18.1347   39.4320 O   0  0  0  0  0  0  0  0  0  0  0  0
   48.5772   18.9743   40.4806 N   0  0  0  0  0  0  0  0  0  0  0  0
   49.1361   19.0705   41.2854 H   0  0  0  0  0  0  0  0  0  0  0  0
   48.3471   18.1409   38.4090 O   0  0  0  0  0  0  0  0  0  0  0  0
   48.4885   16.9598   37.6673 C   0  0  0  0  0  0  0  0  0  0  0  0
   48.8700   17.2450   36.3220 C   0  0  0  0  0  0  0  0  0  0  0  0
   47.9351   17.4455   35.3714 C   0  0  0  0  0  0  0  0  0  0  0  0
   50.1767   17.2848   36.0029 C   0  0  0  0  0  0  0  0  0  0  0  0
   48.3084   17.6932   34.0986 C   0  0  0  0  0  0  0  0  0  0  0  0
   50.5484   17.5299   34.7316 C   0  0  0  0  0  0  0  0  0  0  0  0
   49.6187   17.7292   33.7756 C   0  0  0  0  0  0  0  0  0  0  0  0
   44.5206   22.4320   38.0180 P   0  0  0  0  0  0  0  0  0  0  0  0
   43.8484   21.0665   37.7341 O   0  0  0  0  0  0  0  0  0  0  0  0
   43.6195   23.6911   38.1472 O   0  0  0  0  0  0  0  0  0  0  0  0
   42.9347   23.5314   38.8154 H   0  0  0  0  0  0  0  0  0  0  0  0
   45.6045   22.8769   36.8621 O   0  0  0  0  0  0  0  0  0  0  0  0
   45.1157   23.6159   35.7093 C   0  0  0  0  0  0  0  0  0  0  0  0
   44.5297   22.5543   34.9360 C   0  0  0  0  0  0  0  0  0  0  0  0
   43.4686   22.6669   34.4067 O   0  0  0  0  0  0  0  0  0  0  0  0
   45.2201   21.4455   34.8306 O   0  0  0  0  0  0  0  0  0  0  0  0
   46.0535   21.3706   35.2522 H   0  0  0  0  0  0  0  0  0  0  0  0
   46.2152   24.0763   34.7554 C   0  0  0  0  0  0  0  0  0  0  0  0
   45.8587   24.9550   33.6739 C   0  0  0  0  0  0  0  0  0  0  0  0
   45.3981   26.2004   33.9216 C   0  0  0  0  0  0  0  0  0  0  0  0
   45.9505   24.5221   32.3992 C   0  0  0  0  0  0  0  0  0  0  0  0
   45.0620   27.0252   32.9052 C   0  0  0  0  0  0  0  0  0  0  0  0
   45.6056   25.3375   31.3833 C   0  0  0  0  0  0  0  0  0  0  0  0
   45.1558   26.5888   31.6256 C   0  0  0  0  0  0  0  0  0  0  0  0
  8  9  2  0  0  0
  8 12  1  0  0  0
  8 10  1  0  0  0
 12 13  1  0  0  0
 13 14  1  0  0  0
 14 15  2  0  0  0
 14 16  1  0  0  0
 15 17  1  0  0  0
 16 18  2  0  0  0
 17 19  2  0  0  0
 18 19  1  0  0  0
  2  3  2  0  0  0
  2  6  1  0  0  0
  2  4  1  0  0  0
  6  7  1  0  0  0
  6 10  1  0  0  0
  1  4  1  0  0  0
  1 20  1  0  0  0
 20 21  2  0  0  0
 20 22  1  0  0  0
 20 24  1  0  0  0
 24 25  1  0  0  0
 25 26  1  0  0  0
 25 30  1  0  0  0
 26 27  2  0  0  0
 26 28  1  0  0  0
 30 31  1  0  0  0
 31 32  2  0  0  0
 31 33  1  0  0  0
 32 34  1  0  0  0
 33 35  2  0  0  0
 34 36  2  0  0  0
 35 36  1  0  0  0
 10 11  1  0  0  0
  4  5  1  0  0  0
 22 23  1  0  0  0
 28 29  1  0  0  0
M  END
> <minimizedAffinity>
-9.15781

$$$$
8CPA_AGF_A_309


 36 37  0  0  0  0  0  0  0  0999 V2000
   44.4477   21.0980   38.6686 C   0  0  0  0  0  0  0  0  0  0  0  0
   45.3811   18.9609   39.3521 C   0  0  0  0  0  0  0  0  0  0  0  0
   44.2893   18.4964   39.4397 O   0  0  0  0  0  0  0  0  0  0  0  0
   45.5212   20.2589   38.9232 N   0  0  0  0  0  0  0  0  0  0  0  0
   46.4309   20.6110   38.7899 H   0  0  0  0  0  0  0  0  0  0  0  0
   46.6154   18.2352   39.5651 C   0  0  0  0  0  0  0  0  0  0  0  0
   46.4701   16.8931   38.8370 C   0  0  0  0  0  0  0  0  0  0  0  0
   47.5126   19.0253   41.7052 C   0  0  0  0  0  0  0  0  0  0  0  0
   47.7166   18.7938   42.8573 O   0  0  0  0  0  0  0  0  0  0  0  0
   47.0377   18.0644   40.9164 N   0  0  0  0  0  0  0  0  0  0  0  0
   46.9724   17.1592   41.2980 H   0  0  0  0  0  0  0  0  0  0  0  0
   47.7313   20.1863   41.1524 O   0  0  0  0  0  0  0  0  0  0  0  0
   47.8369   21.3458   41.9330 C   0  0  0  0  0  0  0  0  0  0  0  0
   49.1534   21.8918   41.8597 C   0  0  0  0  0  0  0  0  0  0  0  0
   49.6293   22.6715   42.8514 C   0  0  0  0  0  0  0  0  0  0  0  0
   49.9092   21.6437   40.7742 C   0  0  0  0  0  0  0  0  0  0  0  0
   50.8677   23.1993   42.7604 C   0  0  0  0  0  0  0  0  0  0  0  0
   51.1446   22.1729   40.6832 C   0  0  0  0  0  0  0  0  0  0  0  0
   51.6259   22.9551   41.6704 C   0  0  0  0  0  0  0  0  0  0  0  0
   44.7914   22.7030   38.3071 P   0  0  0  0  0  0  0  0  0  0  0  0
   43.4921   23.5387   38.2054 O   0  0  0  0  0  0  0  0  0  0  0  0
   45.8079   23.0437   39.4317 O   0  0  0  0  0  0  0  0  0  0  0  0
   45.3565   23.0311   40.2902 H   0  0  0  0  0  0  0  0  0  0  0  0
   45.7165   22.7697   36.9475 O   0  0  0  0  0  0  0  0  0  0  0  0
   45.1885   23.4748   35.7907 C   0  0  0  0  0  0  0  0  0  0  0  0
   44.6149   22.3849   35.0481 C   0  0  0  0  0  0  0  0  0  0  0  0
   45.1324   21.3134   34.9932 O   0  0  0  0  0  0  0  0  0  0  0  0
   43.4831   22.6180   34.4301 O   0  0  0  0  0  0  0  0  0  0  0  0
   43.0870   23.4655   34.4818 H   0  0  0  0  0  0  0  0  0  0  0  0
   46.2587   23.9438   34.8080 C   0  0  0  0  0  0  0  0  0  0  0  0
   45.8810   24.8741   33.7780 C   0  0  0  0  0  0  0  0  0  0  0  0
   45.3295   26.0658   34.0948 C   0  0  0  0  0  0  0  0  0  0  0  0
   46.0450   24.5420   32.4806 C   0  0  0  0  0  0  0  0  0  0  0  0
   44.9735   26.9389   33.1266 C   0  0  0  0  0  0  0  0  0  0  0  0
   45.6809   25.4052   31.5119 C   0  0  0  0  0  0  0  0  0  0  0  0
   45.1401   26.6038   31.8241 C   0  0  0  0  0  0  0  0  0  0  0  0
  8  9  2  0  0  0
  8 12  1  0  0  0
  8 10  1  0  0  0
 12 13  1  0  0  0
 13 14  1  0  0  0
 14 15  2  0  0  0
 14 16  1  0  0  0
 15 17  1  0  0  0
 16 18  2  0  0  0
 17 19  2  0  0  0
 18 19  1  0  0  0
  2  3  2  0  0  0
  2  6  1  0  0  0
  2  4  1  0  0  0
  6  7  1  0  0  0
  6 10  1  0  0  0
  1  4  1  0  0  0
  1 20  1  0  0  0
 20 21  2  0  0  0
 20 22  1  0  0  0
 20 24  1  0  0  0
 24 25  1  0  0  0
 25 26  1  0  0  0
 25 30  1  0  0  0
 26 27  2  0  0  0
 26 28  1  0  0  0
 30 31  1  0  0  0
 31 32  2  0  0  0
 31 33  1  0  0  0
 32 34  1  0  0  0
 33 35  2  0  0  0
 34 36  2  0  0  0
 35 36  1  0  0  0
 10 11  1  0  0  0
  4  5  1  0  0  0
 22 23  1  0  0  0
 28 29  1  0  0  0
M  END
> <minimizedAffinity>
-9.14140

$$$$
8CPA_AGF_A_309


 36 37  0  0  0  0  0  0  0  0999 V2000
   45.3461   22.5096   39.5826 C   0  0  0  0  0  0  0  0  0  0  0  0
   46.3295   21.1538   41.3434 C   0  0  0  0  0  0  0  0  0  0  0  0
   45.7875   21.8128   42.1726 O   0  0  0  0  0  0  0  0  0  0  0  0
   46.1056   21.4344   40.0169 N   0  0  0  0  0  0  0  0  0  0  0  0
   46.5051   20.8414   39.3403 H   0  0  0  0  0  0  0  0  0  0  0  0
   47.1468   19.9886   41.6076 C   0  0  0  0  0  0  0  0  0  0  0  0
   48.1956   19.9220   40.4904 C   0  0  0  0  0  0  0  0  0  0  0  0
   46.0363   17.9639   40.7850 C   0  0  0  0  0  0  0  0  0  0  0  0
   45.5906   16.8872   41.0393 O   0  0  0  0  0  0  0  0  0  0  0  0
   46.4650   18.7469   41.7719 N   0  0  0  0  0  0  0  0  0  0  0  0
   46.2973   18.4434   42.6933 H   0  0  0  0  0  0  0  0  0  0  0  0
   46.1322   18.4377   39.5735 O   0  0  0  0  0  0  0  0  0  0  0  0
   45.6674   17.7018   38.4747 C   0  0  0  0  0  0  0  0  0  0  0  0
   46.6885   17.5589   37.4880 C   0  0  0  0  0  0  0  0  0  0  0  0
   47.9744   17.3804   37.8518 C   0  0  0  0  0  0  0  0  0  0  0  0
   46.3594   17.6319   36.1851 C   0  0  0  0  0  0  0  0  0  0  0  0
   48.9336   17.2681   36.9096 C   0  0  0  0  0  0  0  0  0  0  0  0
   47.3180   17.5218   35.2452 C   0  0  0  0  0  0  0  0  0  0  0  0
   48.6062   17.3454   35.6021 C   0  0  0  0  0  0  0  0  0  0  0  0
   44.6010   22.3721   38.0824 P   0  0  0  0  0  0  0  0  0  0  0  0
   44.0309   20.9477   37.8752 O   0  0  0  0  0  0  0  0  0  0  0  0
   43.6105   23.5679   38.1384 O   0  0  0  0  0  0  0  0  0  0  0  0
   42.9351   23.3970   38.8133 H   0  0  0  0  0  0  0  0  0  0  0  0
   45.6567   22.8285   36.9052 O   0  0  0  0  0  0  0  0  0  0  0  0
   45.1346   23.5485   35.7550 C   0  0  0  0  0  0  0  0  0  0  0  0
   44.5537   22.4700   35.0015 C   0  0  0  0  0  0  0  0  0  0  0  0
   43.4993   22.5731   34.4570 O   0  0  0  0  0  0  0  0  0  0  0  0
   45.2410   21.3564   34.9321 O   0  0  0  0  0  0  0  0  0  0  0  0
   46.0691   21.2891   35.3653 H   0  0  0  0  0  0  0  0  0  0  0  0
   46.2088   24.0193   34.7775 C   0  0  0  0  0  0  0  0  0  0  0  0
   45.8324   24.9411   33.7395 C   0  0  0  0  0  0  0  0  0  0  0  0
   45.9015   24.5803   32.4396 C   0  0  0  0  0  0  0  0  0  0  0  0
   45.4398   26.1911   34.0619 C   0  0  0  0  0  0  0  0  0  0  0  0
   45.5490   25.4473   31.4647 C   0  0  0  0  0  0  0  0  0  0  0  0
   45.0983   27.0623   33.0921 C   0  0  0  0  0  0  0  0  0  0  0  0
   45.1540   26.7019   31.7907 C   0  0  0  0  0  0  0  0  0  0  0  0
  8  9  2  0  0  0
  8 12  1  0  0  0
  8 10  1  0  0  0
 12 13  1  0  0  0
 13 14  1  0  0  0
 14 15  2  0  0  0
 14 16  1  0  0  0
 15 17  1  0  0  0
 16 18  2  0  0  0
 17 19  2  0  0  0
 18 19  1  0  0  0
  2  3  2  0  0  0
  2  6  1  0  0  0
  2  4  1  0  0  0
  6  7  1  0  0  0
  6 10  1  0  0  0
  1  4  1  0  0  0
  1 20  1  0  0  0
 20 21  2  0  0  0
 20 22  1  0  0  0
 20 24  1  0  0  0
 24 25  1  0  0  0
 25 26  1  0  0  0
 25 30  1  0  0  0
 26 27  2  0  0  0
 26 28  1  0  0  0
 30 31  1  0  0  0
 31 32  2  0  0  0
 31 33  1  0  0  0
 32 34  1  0  0  0
 33 35  2  0  0  0
 34 36  2  0  0  0
 35 36  1  0  0  0
 10 11  1  0  0  0
  4  5  1  0  0  0
 22 23  1  0  0  0
 28 29  1  0  0  0
M  END
> <minimizedAffinity>
-9.10098

$$$$
8CPA_AGF_A_309


 36 37  0  0  0  0  0  0  0  0999 V2000
   45.0348   21.8651   39.5290 C   0  0  0  0  0  0  0  0  0  0  0  0
   46.3725   19.8364   39.5096 C   0  0  0  0  0  0  0  0  0  0  0  0
   47.3341   20.4570   39.1843 O   0  0  0  0  0  0  0  0  0  0  0  0
   45.1943   20.5046   39.7411 N   0  0  0  0  0  0  0  0  0  0  0  0
   44.4237   19.9906   40.0747 H   0  0  0  0  0  0  0  0  0  0  0  0
   46.3522   18.4161   39.7892 C   0  0  0  0  0  0  0  0  0  0  0  0
   47.7934   17.9148   39.6343 C   0  0  0  0  0  0  0  0  0  0  0  0
   45.5377   17.3282   37.7490 C   0  0  0  0  0  0  0  0  0  0  0  0
   44.7746   16.5542   37.2578 O   0  0  0  0  0  0  0  0  0  0  0  0
   45.4306   17.6252   39.0418 N   0  0  0  0  0  0  0  0  0  0  0  0
   44.6490   17.2689   39.5229 H   0  0  0  0  0  0  0  0  0  0  0  0
   46.4932   17.9192   37.0864 O   0  0  0  0  0  0  0  0  0  0  0  0
   46.6475   17.7119   35.7086 C   0  0  0  0  0  0  0  0  0  0  0  0
   48.0261   17.5802   35.3640 C   0  0  0  0  0  0  0  0  0  0  0  0
   48.9404   17.2597   36.3017 C   0  0  0  0  0  0  0  0  0  0  0  0
   48.4117   17.8070   34.0948 C   0  0  0  0  0  0  0  0  0  0  0  0
   50.2438   17.1592   35.9676 C   0  0  0  0  0  0  0  0  0  0  0  0
   49.7135   17.7086   33.7627 C   0  0  0  0  0  0  0  0  0  0  0  0
   50.6332   17.3906   34.6959 C   0  0  0  0  0  0  0  0  0  0  0  0
   44.2858   22.3412   38.1018 P   0  0  0  0  0  0  0  0  0  0  0  0
   43.4050   21.2027   37.5317 O   0  0  0  0  0  0  0  0  0  0  0  0
   43.5959   23.6561   38.5593 O   0  0  0  0  0  0  0  0  0  0  0  0
   42.8959   23.4487   39.1979 H   0  0  0  0  0  0  0  0  0  0  0  0
   45.4241   22.8772   37.0409 O   0  0  0  0  0  0  0  0  0  0  0  0
   44.9781   23.6020   35.8621 C   0  0  0  0  0  0  0  0  0  0  0  0
   44.5194   22.5182   35.0355 C   0  0  0  0  0  0  0  0  0  0  0  0
   43.5044   22.5798   34.4150 O   0  0  0  0  0  0  0  0  0  0  0  0
   45.2739   21.4479   34.9867 O   0  0  0  0  0  0  0  0  0  0  0  0
   46.0699   21.4130   35.4800 H   0  0  0  0  0  0  0  0  0  0  0  0
   46.1152   24.1435   34.9992 C   0  0  0  0  0  0  0  0  0  0  0  0
   45.7812   24.9338   33.8447 C   0  0  0  0  0  0  0  0  0  0  0  0
   46.0691   24.4922   32.6010 C   0  0  0  0  0  0  0  0  0  0  0  0
   45.2069   26.1444   34.0033 C   0  0  0  0  0  0  0  0  0  0  0  0
   45.7563   25.2358   31.5167 C   0  0  0  0  0  0  0  0  0  0  0  0
   44.9037   26.8938   32.9252 C   0  0  0  0  0  0  0  0  0  0  0  0
   45.1785   26.4510   31.6782 C   0  0  0  0  0  0  0  0  0  0  0  0
  8  9  2  0  0  0
  8 12  1  0  0  0
  8 10  1  0  0  0
 12 13  1  0  0  0
 13 14  1  0  0  0
 14 15  2  0  0  0
 14 16  1  0  0  0
 15 17  1  0  0  0
 16 18  2  0  0  0
 17 19  2  0  0  0
 18 19  1  0  0  0
  2  3  2  0  0  0
  2  6  1  0  0  0
  2  4  1  0  0  0
  6  7  1  0  0  0
  6 10  1  0  0  0
  1  4  1  0  0  0
  1 20  1  0  0  0
 20 21  2  0  0  0
 20 22  1  0  0  0
 20 24  1  0  0  0
 24 25  1  0  0  0
 25 26  1  0  0  0
 25 30  1  0  0  0
 26 27  2  0  0  0
 26 28  1  0  0  0
 30 31  1  0  0  0
 31 32  2  0  0  0
 31 33  1  0  0  0
 32 34  1  0  0  0
 33 35  2  0  0  0
 34 36  2  0  0  0
 35 36  1  0  0  0
 10 11  1  0  0  0
  4  5  1  0  0  0
 22 23  1  0  0  0
 28 29  1  0  0  0
M  END
> <minimizedAffinity>
-9.08638

$$$$
8CPA_AGF_A_309


 36 37  0  0  0  0  0  0  0  0999 V2000
   45.4685   22.4693   39.5412 C   0  0  0  0  0  0  0  0  0  0  0  0
   46.1632   21.0536   41.3902 C   0  0  0  0  0  0  0  0  0  0  0  0
   45.8584   21.8989   42.1701 O   0  0  0  0  0  0  0  0  0  0  0  0
   45.9457   21.2719   40.0510 N   0  0  0  0  0  0  0  0  0  0  0  0
   46.1388   20.5403   39.4213 H   0  0  0  0  0  0  0  0  0  0  0  0
   46.6632   19.7402   41.7374 C   0  0  0  0  0  0  0  0  0  0  0  0
   48.1625   19.8986   42.0193 C   0  0  0  0  0  0  0  0  0  0  0  0
   46.0698   17.4394   41.1344 C   0  0  0  0  0  0  0  0  0  0  0  0
   45.7533   16.6744   40.2757 O   0  0  0  0  0  0  0  0  0  0  0  0
   46.4042   18.6866   40.8121 N   0  0  0  0  0  0  0  0  0  0  0  0
   46.4790   18.8998   39.8538 H   0  0  0  0  0  0  0  0  0  0  0  0
   46.1129   17.1268   42.3999 O   0  0  0  0  0  0  0  0  0  0  0  0
   46.3313   15.8032   42.8065 C   0  0  0  0  0  0  0  0  0  0  0  0
   45.3333   15.3841   43.7366 C   0  0  0  0  0  0  0  0  0  0  0  0
   44.1800   14.8352   43.3048 C   0  0  0  0  0  0  0  0  0  0  0  0
   45.5422   15.5678   45.0533 C   0  0  0  0  0  0  0  0  0  0  0  0
   43.2351   14.4627   44.1931 C   0  0  0  0  0  0  0  0  0  0  0  0
   44.5974   15.1976   45.9392 C   0  0  0  0  0  0  0  0  0  0  0  0
   43.4409   14.6501   45.5141 C   0  0  0  0  0  0  0  0  0  0  0  0
   44.6818   22.4172   38.0569 P   0  0  0  0  0  0  0  0  0  0  0  0
   44.0572   21.0224   37.8095 O   0  0  0  0  0  0  0  0  0  0  0  0
   43.7356   23.6428   38.1854 O   0  0  0  0  0  0  0  0  0  0  0  0
   43.0717   23.4683   38.8707 H   0  0  0  0  0  0  0  0  0  0  0  0
   45.7233   22.8839   36.8710 O   0  0  0  0  0  0  0  0  0  0  0  0
   45.1834   23.5911   35.7211 C   0  0  0  0  0  0  0  0  0  0  0  0
   44.5814   22.5060   34.9942 C   0  0  0  0  0  0  0  0  0  0  0  0
   43.5230   22.6121   34.4581 O   0  0  0  0  0  0  0  0  0  0  0  0
   45.2537   21.3825   34.9395 O   0  0  0  0  0  0  0  0  0  0  0  0
   46.0852   21.3129   35.3659 H   0  0  0  0  0  0  0  0  0  0  0  0
   46.2412   24.0414   34.7166 C   0  0  0  0  0  0  0  0  0  0  0  0
   45.8509   24.9530   33.6746 C   0  0  0  0  0  0  0  0  0  0  0  0
   45.3359   26.1647   33.9768 C   0  0  0  0  0  0  0  0  0  0  0  0
   45.9659   24.5838   32.3820 C   0  0  0  0  0  0  0  0  0  0  0  0
   44.9681   27.0203   32.9975 C   0  0  0  0  0  0  0  0  0  0  0  0
   45.5897   25.4297   31.4027 C   0  0  0  0  0  0  0  0  0  0  0  0
   45.0853   26.6478   31.6998 C   0  0  0  0  0  0  0  0  0  0  0  0
  8  9  2  0  0  0
  8 12  1  0  0  0
  8 10  1  0  0  0
 12 13  1  0  0  0
 13 14  1  0  0  0
 14 15  2  0  0  0
 14 16  1  0  0  0
 15 17  1  0  0  0
 16 18  2  0  0  0
 17 19  2  0  0  0
 18 19  1  0  0  0
  2  3  2  0  0  0
  2  6  1  0  0  0
  2  4  1  0  0  0
  6  7  1  0  0  0
  6 10  1  0  0  0
  1  4  1  0  0  0
  1 20  1  0  0  0
 20 21  2  0  0  0
 20 22  1  0  0  0
 20 24  1  0  0  0
 24 25  1  0  0  0
 25 26  1  0  0  0
 25 30  1  0  0  0
 26 27  2  0  0  0
 26 28  1  0  0  0
 30 31  1  0  0  0
 31 32  2  0  0  0
 31 33  1  0  0  0
 32 34  1  0  0  0
 33 35  2  0  0  0
 34 36  2  0  0  0
 35 36  1  0  0  0
 10 11  1  0  0  0
  4  5  1  0  0  0
 22 23  1  0  0  0
 28 29  1  0  0  0
M  END
> <minimizedAffinity>
-9.00645

$$$$
8CPA_AGF_A_309


 36 37  0  0  0  0  0  0  0  0999 V2000
   45.3408   22.7925   39.7194 C   0  0  0  0  0  0  0  0  0  0  0  0
   46.9056   21.7165   41.2358 C   0  0  0  0  0  0  0  0  0  0  0  0
   46.0936   21.7298   42.1053 O   0  0  0  0  0  0  0  0  0  0  0  0
   46.5633   22.2005   39.9960 N   0  0  0  0  0  0  0  0  0  0  0  0
   47.2201   22.1228   39.2668 H   0  0  0  0  0  0  0  0  0  0  0  0
   48.2253   21.1302   41.3366 C   0  0  0  0  0  0  0  0  0  0  0  0
   48.3070   20.0385   40.2624 C   0  0  0  0  0  0  0  0  0  0  0  0
   49.8404   20.7400   43.1390 C   0  0  0  0  0  0  0  0  0  0  0  0
   50.0246   20.4123   44.2709 O   0  0  0  0  0  0  0  0  0  0  0  0
   48.6191   20.6456   42.6186 N   0  0  0  0  0  0  0  0  0  0  0  0
   47.9294   20.2040   43.1648 H   0  0  0  0  0  0  0  0  0  0  0  0
   50.7801   21.1944   42.3569 O   0  0  0  0  0  0  0  0  0  0  0  0
   51.9199   21.8143   42.8875 C   0  0  0  0  0  0  0  0  0  0  0  0
   52.2571   22.9844   42.1433 C   0  0  0  0  0  0  0  0  0  0  0  0
   53.0398   22.8997   41.0487 C   0  0  0  0  0  0  0  0  0  0  0  0
   51.8082   24.1822   42.5612 C   0  0  0  0  0  0  0  0  0  0  0  0
   53.3692   24.0160   40.3659 C   0  0  0  0  0  0  0  0  0  0  0  0
   52.1394   25.2963   41.8802 C   0  0  0  0  0  0  0  0  0  0  0  0
   52.9234   25.2190   40.7860 C   0  0  0  0  0  0  0  0  0  0  0  0
   44.5982   22.3874   38.2672 P   0  0  0  0  0  0  0  0  0  0  0  0
   44.0743   20.9309   38.3001 O   0  0  0  0  0  0  0  0  0  0  0  0
   43.5695   23.5441   38.1334 O   0  0  0  0  0  0  0  0  0  0  0  0
   42.9011   23.4648   38.8318 H   0  0  0  0  0  0  0  0  0  0  0  0
   45.6367   22.6778   37.0238 O   0  0  0  0  0  0  0  0  0  0  0  0
   45.1419   23.4160   35.8731 C   0  0  0  0  0  0  0  0  0  0  0  0
   44.6388   22.3425   35.0589 C   0  0  0  0  0  0  0  0  0  0  0  0
   45.2294   21.3165   34.9270 O   0  0  0  0  0  0  0  0  0  0  0  0
   43.4877   22.5376   34.4638 O   0  0  0  0  0  0  0  0  0  0  0  0
   43.0338   23.3496   34.5763 H   0  0  0  0  0  0  0  0  0  0  0  0
   46.2419   23.9583   34.9638 C   0  0  0  0  0  0  0  0  0  0  0  0
   45.8750   24.8763   33.9190 C   0  0  0  0  0  0  0  0  0  0  0  0
   45.9974   24.5261   32.6201 C   0  0  0  0  0  0  0  0  0  0  0  0
   45.4374   26.1129   34.2351 C   0  0  0  0  0  0  0  0  0  0  0  0
   45.6539   25.3894   31.6388 C   0  0  0  0  0  0  0  0  0  0  0  0
   45.1046   26.9807   33.2593 C   0  0  0  0  0  0  0  0  0  0  0  0
   45.2136   26.6306   31.9585 C   0  0  0  0  0  0  0  0  0  0  0  0
  8  9  2  0  0  0
  8 12  1  0  0  0
  8 10  1  0  0  0
 12 13  1  0  0  0
 13 14  1  0  0  0
 14 15  2  0  0  0
 14 16  1  0  0  0
 15 17  1  0  0  0
 16 18  2  0  0  0
 17 19  2  0  0  0
 18 19  1  0  0  0
  2  3  2  0  0  0
  2  6  1  0  0  0
  2  4  1  0  0  0
  6  7  1  0  0  0
  6 10  1  0  0  0
  1  4  1  0  0  0
  1 20  1  0  0  0
 20 21  2  0  0  0
 20 22  1  0  0  0
 20 24  1  0  0  0
 24 25  1  0  0  0
 25 26  1  0  0  0
 25 30  1  0  0  0
 26 27  2  0  0  0
 26 28  1  0  0  0
 30 31  1  0  0  0
 31 32  2  0  0  0
 31 33  1  0  0  0
 32 34  1  0  0  0
 33 35  2  0  0  0
 34 36  2  0  0  0
 35 36  1  0  0  0
 10 11  1  0  0  0
  4  5  1  0  0  0
 22 23  1  0  0  0
 28 29  1  0  0  0
M  END
> <minimizedAffinity>
-8.89103

$$$$
8CPA_AGF_A_309


 36 37  0  0  0  0  0  0  0  0999 V2000
   45.9759   18.3547   39.8584 C   0  0  0  0  0  0  0  0  0  0  0  0
   46.3885   20.7401   40.0712 C   0  0  0  0  0  0  0  0  0  0  0  0
   46.6357   20.6082   41.2275 O   0  0  0  0  0  0  0  0  0  0  0  0
   46.0924   19.6272   39.3213 N   0  0  0  0  0  0  0  0  0  0  0  0
   45.9559   19.7396   38.3528 H   0  0  0  0  0  0  0  0  0  0  0  0
   46.4706   21.9855   39.3379 C   0  0  0  0  0  0  0  0  0  0  0  0
   47.5967   22.8039   39.9817 C   0  0  0  0  0  0  0  0  0  0  0  0
   44.5955   22.9448   38.0837 C   0  0  0  0  0  0  0  0  0  0  0  0
   43.5337   23.4870   38.1199 O   0  0  0  0  0  0  0  0  0  0  0  0
   45.2676   22.7411   39.2141 N   0  0  0  0  0  0  0  0  0  0  0  0
   44.9035   23.1463   40.0342 H   0  0  0  0  0  0  0  0  0  0  0  0
   45.1567   22.5292   36.9821 O   0  0  0  0  0  0  0  0  0  0  0  0
   44.4640   22.5661   35.7640 C   0  0  0  0  0  0  0  0  0  0  0  0
   45.0182   23.5504   34.8918 C   0  0  0  0  0  0  0  0  0  0  0  0
   44.4534   24.7701   34.7865 C   0  0  0  0  0  0  0  0  0  0  0  0
   46.0980   23.2401   34.1509 C   0  0  0  0  0  0  0  0  0  0  0  0
   44.9741   25.6849   33.9423 C   0  0  0  0  0  0  0  0  0  0  0  0
   46.6158   24.1533   33.3068 C   0  0  0  0  0  0  0  0  0  0  0  0
   46.0547   25.3742   33.1950 C   0  0  0  0  0  0  0  0  0  0  0  0
   47.2395   17.2816   39.5817 P   0  0  0  0  0  0  0  0  0  0  0  0
   48.6089   17.9911   39.7176 O   0  0  0  0  0  0  0  0  0  0  0  0
   46.8861   16.1501   40.5861 O   0  0  0  0  0  0  0  0  0  0  0  0
   46.9814   16.4812   41.4928 H   0  0  0  0  0  0  0  0  0  0  0  0
   47.0261   16.5525   38.1217 O   0  0  0  0  0  0  0  0  0  0  0  0
   47.4122   17.2832   36.9254 C   0  0  0  0  0  0  0  0  0  0  0  0
   46.1241   17.5518   36.3449 C   0  0  0  0  0  0  0  0  0  0  0  0
   45.4781   16.7028   35.8150 O   0  0  0  0  0  0  0  0  0  0  0  0
   45.6805   18.7821   36.4271 O   0  0  0  0  0  0  0  0  0  0  0  0
   46.1992   19.4401   36.8467 H   0  0  0  0  0  0  0  0  0  0  0  0
   48.0278   16.4089   35.8357 C   0  0  0  0  0  0  0  0  0  0  0  0
   49.1083   16.9488   35.0546 C   0  0  0  0  0  0  0  0  0  0  0  0
   50.3544   17.0340   35.5689 C   0  0  0  0  0  0  0  0  0  0  0  0
   48.8712   17.4082   33.8083 C   0  0  0  0  0  0  0  0  0  0  0  0
   51.3689   17.5426   34.8351 C   0  0  0  0  0  0  0  0  0  0  0  0
   49.8778   17.9266   33.0775 C   0  0  0  0  0  0  0  0  0  0  0  0
   51.1289   18.0026   33.5832 C   0  0  0  0  0  0  0  0  0  0  0  0
  8  9  2  0  0  0
  8 12  1  0  0  0
  8 10  1  0  0  0
 12 13  1  0  0  0
 13 14  1  0  0  0
 14 15  2  0  0  0
 14 16  1  0  0  0
 15 17  1  0  0  0
 16 18  2  0  0  0
 17 19  2  0  0  0
 18 19  1  0  0  0
  2  3  2  0  0  0
  2  6  1  0  0  0
  2  4  1  0  0  0
  6  7  1  0  0  0
  6 10  1  0  0  0
  1  4  1  0  0  0
  1 20  1  0  0  0
 20 21  2  0  0  0
 20 22  1  0  0  0
 20 24  1  0  0  0
 24 25  1  0  0  0
 25 26  1  0  0  0
 25 30  1  0  0  0
 26 27  2  0  0  0
 26 28  1  0  0  0
 30 31  1  0  0  0
 31 32  2  0  0  0
 31 33  1  0  0  0
 32 34  1  0  0  0
 33 35  2  0  0  0
 34 36  2  0  0  0
 35 36  1  0  0  0
 10 11  1  0  0  0
  4  5  1  0  0  0
 22 23  1  0  0  0
 28 29  1  0  0  0
M  END
> <minimizedAffinity>
-8.38927

$$$$
