1Y3X_UIB_A_1994


 36 40  0  0  0  0  0  0  0  0999 V2000
   -1.3300    4.3624   21.6944 C   0  0  0  0  0  0  0  0  0  0  0  0
   -0.8606    4.3936   23.1627 C   0  0  0  0  0  0  0  0  0  0  0  0
   -0.5472    2.8939   23.4390 C   0  0  0  0  0  0  0  0  0  0  0  0
   -1.4500    2.1316   22.4287 C   0  0  0  0  0  0  0  0  0  0  0  0
   -2.2283    1.0843   23.2512 C   0  0  0  0  0  0  0  0  0  0  0  0
   -0.4734    1.4465   21.4490 C   0  0  0  0  0  0  0  0  0  0  0  0
   -2.2108    3.1608   21.5958 N   0  0  0  0  0  0  0  0  0  0  0  0
   -2.4199    2.7231   20.2100 C   0  0  0  0  0  0  0  0  0  0  0  0
   -0.9683    2.7301   24.9333 C   0  0  0  0  0  0  0  0  0  0  0  0
   -2.0470    3.6926   25.0921 N   0  0  0  0  0  0  0  0  0  0  0  0
   -2.0213    4.6842   24.1434 C   0  0  0  0  0  0  0  0  0  0  0  0
   -2.8045    5.6719   24.0952 O   0  0  0  0  0  0  0  0  0  0  0  0
   -3.0383    7.9887   20.0786 C   0  0  0  0  0  0  0  0  0  0  0  0
   -1.6479    7.7516   20.0063 C   0  0  0  0  0  0  0  0  0  0  0  0
   -1.1232    6.5643   20.5076 C   0  0  0  0  0  0  0  0  0  0  0  0
   -1.9642    5.5837   21.0832 C   0  0  0  0  0  0  0  0  0  0  0  0
   -3.3357    5.8233   21.1677 C   0  0  0  0  0  0  0  0  0  0  0  0
   -3.8753    7.0312   20.6595 C   0  0  0  0  0  0  0  0  0  0  0  0
   -4.9140    9.3555   19.5058 N   0  0  0  0  0  0  0  0  0  0  0  0
   -3.6016    9.2032   19.5749 C   0  0  0  0  0  0  0  0  0  0  0  0
   -2.8661   10.2687   19.1365 N   0  0  0  0  0  0  0  0  0  0  0  0
   -5.2946   10.1942   19.1580 H   0  0  0  0  0  0  0  0  0  0  0  0
   -5.5101    8.6302   19.8022 H   0  0  0  0  0  0  0  0  0  0  0  0
   -3.3199   11.0756   18.8016 H   0  0  0  0  0  0  0  0  0  0  0  0
    0.1866    2.9165   25.9396 C   0  0  0  0  0  0  0  0  0  0  0  0
    1.3771    2.0561   25.5726 C   0  0  0  0  0  0  0  0  0  0  0  0
   -3.0994    3.6819   26.1707 C   0  0  0  0  0  0  0  0  0  0  0  0
   -3.0079    4.8859   27.1084 C   0  0  0  0  0  0  0  0  0  0  0  0
   -4.1876    5.5446   27.5736 C   0  0  0  0  0  0  0  0  0  0  0  0
   -4.1549    6.5739   28.5350 C   0  0  0  0  0  0  0  0  0  0  0  0
   -2.8963    6.9606   29.0134 C   0  0  0  0  0  0  0  0  0  0  0  0
   -1.7108    6.3396   28.5858 C   0  0  0  0  0  0  0  0  0  0  0  0
   -1.7363    5.3050   27.6351 C   0  0  0  0  0  0  0  0  0  0  0  0
   -0.5817    6.8836   29.2152 O   0  0  0  0  0  0  0  0  0  0  0  0
   -1.1449    7.9062   30.0769 C   0  0  0  0  0  0  0  0  0  0  0  0
   -2.5982    7.9284   29.9415 O   0  0  0  0  0  0  0  0  0  0  0  0
 19 20  1  0  0  0
 20 21  2  0  0  0
 20 13  1  0  0  0
 13 14  1  0  0  0
 13 18  2  0  0  0
 14 15  2  0  0  0
 15 16  1  0  0  0
 16  1  1  0  0  0
 16 17  2  0  0  0
  1  2  1  0  0  0
  1  7  1  0  0  0
  2  3  1  0  0  0
  2 11  1  0  0  0
  3  4  1  0  0  0
  3  9  1  0  0  0
  4  5  1  0  0  0
  4  6  1  0  0  0
  4  7  1  0  0  0
  7  8  1  0  0  0
  9 10  1  0  0  0
  9 25  1  0  0  0
 10 27  1  0  0  0
 10 11  1  0  0  0
 27 28  1  0  0  0
 28 29  1  0  0  0
 28 33  2  0  0  0
 29 30  2  0  0  0
 30 31  1  0  0  0
 31 32  2  0  0  0
 31 36  1  0  0  0
 32 33  1  0  0  0
 32 34  1  0  0  0
 34 35  1  0  0  0
 35 36  1  0  0  0
 11 12  2  0  0  0
 25 26  1  0  0  0
 17 18  1  0  0  0
 19 22  1  0  0  0
 19 23  1  0  0  0
 21 24  1  0  0  0
M  END
> <minimizedAffinity>
-9.90529

$$$$
1Y3X_UIB_A_1994


 36 40  0  0  0  0  0  0  0  0999 V2000
   -3.0976    4.2136   21.1497 C   0  0  0  0  0  0  0  0  0  0  0  0
   -2.5793    3.7679   22.5318 C   0  0  0  0  0  0  0  0  0  0  0  0
   -3.2676    2.3828   22.7093 C   0  0  0  0  0  0  0  0  0  0  0  0
   -4.5395    2.4814   21.8209 C   0  0  0  0  0  0  0  0  0  0  0  0
   -5.7240    2.0628   22.7159 C   0  0  0  0  0  0  0  0  0  0  0  0
   -4.3206    1.4596   20.6846 C   0  0  0  0  0  0  0  0  0  0  0  0
   -4.5459    3.8506   21.1447 N   0  0  0  0  0  0  0  0  0  0  0  0
   -5.1158    3.8102   19.7922 C   0  0  0  0  0  0  0  0  0  0  0  0
   -3.5527    2.3410   24.2436 C   0  0  0  0  0  0  0  0  0  0  0  0
   -3.7510    3.7389   24.5928 N   0  0  0  0  0  0  0  0  0  0  0  0
   -3.1901    4.6007   23.6837 C   0  0  0  0  0  0  0  0  0  0  0  0
   -3.1657    5.8579   23.7850 O   0  0  0  0  0  0  0  0  0  0  0  0
   -2.3022    8.2959   19.9746 C   0  0  0  0  0  0  0  0  0  0  0  0
   -1.2534    7.3548   20.0686 C   0  0  0  0  0  0  0  0  0  0  0  0
   -1.5364    6.0388   20.4213 C   0  0  0  0  0  0  0  0  0  0  0  0
   -2.8637    5.6250   20.6801 C   0  0  0  0  0  0  0  0  0  0  0  0
   -3.8984    6.5572   20.6011 C   0  0  0  0  0  0  0  0  0  0  0  0
   -3.6156    7.8990   20.2433 C   0  0  0  0  0  0  0  0  0  0  0  0
   -2.9768   10.3971   19.0554 N   0  0  0  0  0  0  0  0  0  0  0  0
   -2.0368    9.6557   19.6187 C   0  0  0  0  0  0  0  0  0  0  0  0
   -0.8391   10.2835   19.8182 N   0  0  0  0  0  0  0  0  0  0  0  0
   -2.7869   11.3322   18.8132 H   0  0  0  0  0  0  0  0  0  0  0  0
   -3.8661   10.0136   18.8785 H   0  0  0  0  0  0  0  0  0  0  0  0
   -0.7252   11.2235   19.5486 H   0  0  0  0  0  0  0  0  0  0  0  0
   -2.4546    1.6413   25.0718 C   0  0  0  0  0  0  0  0  0  0  0  0
   -1.7913    0.5355   24.2784 C   0  0  0  0  0  0  0  0  0  0  0  0
   -4.4613    4.2600   25.8155 C   0  0  0  0  0  0  0  0  0  0  0  0
   -3.5115    4.8780   26.8418 C   0  0  0  0  0  0  0  0  0  0  0  0
   -2.1203    4.5517   26.8435 C   0  0  0  0  0  0  0  0  0  0  0  0
   -1.1902    5.1916   27.6862 C   0  0  0  0  0  0  0  0  0  0  0  0
   -1.6875    6.1631   28.5644 C   0  0  0  0  0  0  0  0  0  0  0  0
   -3.0468    6.5172   28.5955 C   0  0  0  0  0  0  0  0  0  0  0  0
   -3.9787    5.8910   27.7504 C   0  0  0  0  0  0  0  0  0  0  0  0
   -3.3017    7.5216   29.5405 O   0  0  0  0  0  0  0  0  0  0  0  0
   -1.9928    7.7763   30.1127 C   0  0  0  0  0  0  0  0  0  0  0  0
   -0.9951    6.9207   29.4774 O   0  0  0  0  0  0  0  0  0  0  0  0
 19 20  1  0  0  0
 20 21  2  0  0  0
 20 13  1  0  0  0
 13 14  1  0  0  0
 13 18  2  0  0  0
 14 15  2  0  0  0
 15 16  1  0  0  0
 16  1  1  0  0  0
 16 17  2  0  0  0
  1  2  1  0  0  0
  1  7  1  0  0  0
  2  3  1  0  0  0
  2 11  1  0  0  0
  3  4  1  0  0  0
  3  9  1  0  0  0
  4  5  1  0  0  0
  4  6  1  0  0  0
  4  7  1  0  0  0
  7  8  1  0  0  0
  9 10  1  0  0  0
  9 25  1  0  0  0
 10 27  1  0  0  0
 10 11  1  0  0  0
 27 28  1  0  0  0
 28 29  1  0  0  0
 28 33  2  0  0  0
 29 30  2  0  0  0
 30 31  1  0  0  0
 31 32  2  0  0  0
 31 36  1  0  0  0
 32 33  1  0  0  0
 32 34  1  0  0  0
 34 35  1  0  0  0
 35 36  1  0  0  0
 11 12  2  0  0  0
 25 26  1  0  0  0
 17 18  1  0  0  0
 19 22  1  0  0  0
 19 23  1  0  0  0
 21 24  1  0  0  0
M  END
> <minimizedAffinity>
-8.73165

$$$$
1Y3X_UIB_A_1994


 36 40  0  0  0  0  0  0  0  0999 V2000
   -2.1132    3.7109   23.1655 C   0  0  0  0  0  0  0  0  0  0  0  0
   -1.4742    4.0550   24.5259 C   0  0  0  0  0  0  0  0  0  0  0  0
   -1.5433    2.6920   25.2751 C   0  0  0  0  0  0  0  0  0  0  0  0
   -2.7358    1.9561   24.6019 C   0  0  0  0  0  0  0  0  0  0  0  0
   -3.6585    1.4926   25.7477 C   0  0  0  0  0  0  0  0  0  0  0  0
   -2.1085    0.7461   23.8771 C   0  0  0  0  0  0  0  0  0  0  0  0
   -3.2895    2.8532   23.4971 N   0  0  0  0  0  0  0  0  0  0  0  0
   -3.7788    2.0904   22.3419 C   0  0  0  0  0  0  0  0  0  0  0  0
   -1.8041    3.1300   26.7506 C   0  0  0  0  0  0  0  0  0  0  0  0
   -2.5563    4.3671   26.6122 N   0  0  0  0  0  0  0  0  0  0  0  0
   -2.3832    4.9628   25.3879 C   0  0  0  0  0  0  0  0  0  0  0  0
   -2.8720    6.0716   25.0374 O   0  0  0  0  0  0  0  0  0  0  0  0
   -2.9890    7.0018   20.5043 C   0  0  0  0  0  0  0  0  0  0  0  0
   -1.6899    6.4513   20.5678 C   0  0  0  0  0  0  0  0  0  0  0  0
   -1.4374    5.3736   21.4110 C   0  0  0  0  0  0  0  0  0  0  0  0
   -2.4668    4.8130   22.2024 C   0  0  0  0  0  0  0  0  0  0  0  0
   -3.7467    5.3650   22.1506 C   0  0  0  0  0  0  0  0  0  0  0  0
   -4.0092    6.4633   21.2943 C   0  0  0  0  0  0  0  0  0  0  0  0
   -2.2972    8.7235   18.9970 N   0  0  0  0  0  0  0  0  0  0  0  0
   -3.2730    8.1128   19.6493 C   0  0  0  0  0  0  0  0  0  0  0  0
   -4.5238    8.6225   19.4399 N   0  0  0  0  0  0  0  0  0  0  0  0
   -2.5001    9.4876   18.4103 H   0  0  0  0  0  0  0  0  0  0  0  0
   -1.3681    8.4140   19.0985 H   0  0  0  0  0  0  0  0  0  0  0  0
   -4.6477    9.3907   18.8368 H   0  0  0  0  0  0  0  0  0  0  0  0
   -0.5260    3.2698   27.6039 C   0  0  0  0  0  0  0  0  0  0  0  0
   -0.6883    2.5924   28.9482 C   0  0  0  0  0  0  0  0  0  0  0  0
   -3.4306    5.0008   27.6634 C   0  0  0  0  0  0  0  0  0  0  0  0
   -2.6359    5.7692   28.7195 C   0  0  0  0  0  0  0  0  0  0  0  0
   -1.4076    6.4183   28.3848 C   0  0  0  0  0  0  0  0  0  0  0  0
   -0.7102    7.2404   29.2918 C   0  0  0  0  0  0  0  0  0  0  0  0
   -1.2570    7.3840   30.5734 C   0  0  0  0  0  0  0  0  0  0  0  0
   -2.4628    6.7663   30.9453 C   0  0  0  0  0  0  0  0  0  0  0  0
   -3.1697    5.9536   30.0428 C   0  0  0  0  0  0  0  0  0  0  0  0
   -2.8169    7.0695   32.2681 O   0  0  0  0  0  0  0  0  0  0  0  0
   -1.7346    7.9288   32.7107 C   0  0  0  0  0  0  0  0  0  0  0  0
   -0.7746    8.1205   31.6279 O   0  0  0  0  0  0  0  0  0  0  0  0
 19 20  1  0  0  0
 20 21  2  0  0  0
 20 13  1  0  0  0
 13 14  1  0  0  0
 13 18  2  0  0  0
 14 15  2  0  0  0
 15 16  1  0  0  0
 16  1  1  0  0  0
 16 17  2  0  0  0
  1  2  1  0  0  0
  1  7  1  0  0  0
  2  3  1  0  0  0
  2 11  1  0  0  0
  3  4  1  0  0  0
  3  9  1  0  0  0
  4  5  1  0  0  0
  4  6  1  0  0  0
  4  7  1  0  0  0
  7  8  1  0  0  0
  9 10  1  0  0  0
  9 25  1  0  0  0
 10 27  1  0  0  0
 10 11  1  0  0  0
 27 28  1  0  0  0
 28 29  1  0  0  0
 28 33  2  0  0  0
 29 30  2  0  0  0
 30 31  1  0  0  0
 31 32  2  0  0  0
 31 36  1  0  0  0
 32 33  1  0  0  0
 32 34  1  0  0  0
 34 35  1  0  0  0
 35 36  1  0  0  0
 11 12  2  0  0  0
 25 26  1  0  0  0
 17 18  1  0  0  0
 19 22  1  0  0  0
 19 23  1  0  0  0
 21 24  1  0  0  0
M  END
> <minimizedAffinity>
-8.65153

$$$$
1Y3X_UIB_A_1994


 36 40  0  0  0  0  0  0  0  0999 V2000
   -4.0150    3.2061   24.3577 C   0  0  0  0  0  0  0  0  0  0  0  0
   -4.4011    3.8960   23.0340 C   0  0  0  0  0  0  0  0  0  0  0  0
   -4.5897    2.6841   22.0751 C   0  0  0  0  0  0  0  0  0  0  0  0
   -3.6933    1.5751   22.6944 C   0  0  0  0  0  0  0  0  0  0  0  0
   -2.7961    1.0577   21.5515 C   0  0  0  0  0  0  0  0  0  0  0  0
   -4.6723    0.4782   23.1649 C   0  0  0  0  0  0  0  0  0  0  0  0
   -3.0572    2.1294   23.9672 N   0  0  0  0  0  0  0  0  0  0  0  0
   -2.8963    1.1079   25.0096 C   0  0  0  0  0  0  0  0  0  0  0  0
   -4.0735    3.2467   20.7135 C   0  0  0  0  0  0  0  0  0  0  0  0
   -3.0595    4.2130   21.1051 N   0  0  0  0  0  0  0  0  0  0  0  0
   -3.2104    4.6510   22.3971 C   0  0  0  0  0  0  0  0  0  0  0  0
   -2.5043    5.5326   22.9586 O   0  0  0  0  0  0  0  0  0  0  0  0
   -2.6252    5.7426   27.5692 C   0  0  0  0  0  0  0  0  0  0  0  0
   -3.9988    5.6714   27.2489 C   0  0  0  0  0  0  0  0  0  0  0  0
   -4.4271    4.8265   26.2296 C   0  0  0  0  0  0  0  0  0  0  0  0
   -3.5062    4.0284   25.5119 C   0  0  0  0  0  0  0  0  0  0  0  0
   -2.1477    4.1086   25.8183 C   0  0  0  0  0  0  0  0  0  0  0  0
   -1.7060    4.9682   26.8548 C   0  0  0  0  0  0  0  0  0  0  0  0
   -3.0171    7.1957   29.4265 N   0  0  0  0  0  0  0  0  0  0  0  0
   -2.1592    6.6069   28.6093 C   0  0  0  0  0  0  0  0  0  0  0  0
   -0.8425    6.8915   28.8410 N   0  0  0  0  0  0  0  0  0  0  0  0
   -2.6891    7.7893   30.1401 H   0  0  0  0  0  0  0  0  0  0  0  0
   -3.9835    7.0402   29.3210 H   0  0  0  0  0  0  0  0  0  0  0  0
   -0.5916    7.4964   29.5761 H   0  0  0  0  0  0  0  0  0  0  0  0
   -5.1797    3.8345   19.8122 C   0  0  0  0  0  0  0  0  0  0  0  0
   -6.4884    3.0966   19.9997 C   0  0  0  0  0  0  0  0  0  0  0  0
   -1.9494    4.7424   20.2342 C   0  0  0  0  0  0  0  0  0  0  0  0
   -2.0762    6.2385   19.9460 C   0  0  0  0  0  0  0  0  0  0  0  0
   -3.3451    6.8226   19.6452 C   0  0  0  0  0  0  0  0  0  0  0  0
   -3.5273    8.2120   19.4989 C   0  0  0  0  0  0  0  0  0  0  0  0
   -2.3924    9.0221   19.6336 C   0  0  0  0  0  0  0  0  0  0  0  0
   -1.1260    8.4914   19.9311 C   0  0  0  0  0  0  0  0  0  0  0  0
   -0.9385    7.1077   20.0892 C   0  0  0  0  0  0  0  0  0  0  0  0
   -0.1519    9.4950   20.0339 O   0  0  0  0  0  0  0  0  0  0  0  0
   -0.9011   10.7101   19.7733 C   0  0  0  0  0  0  0  0  0  0  0  0
   -2.3053   10.3895   19.5360 O   0  0  0  0  0  0  0  0  0  0  0  0
 19 20  1  0  0  0
 20 21  2  0  0  0
 20 13  1  0  0  0
 13 14  1  0  0  0
 13 18  2  0  0  0
 14 15  2  0  0  0
 15 16  1  0  0  0
 16  1  1  0  0  0
 16 17  2  0  0  0
  1  2  1  0  0  0
  1  7  1  0  0  0
  2  3  1  0  0  0
  2 11  1  0  0  0
  3  4  1  0  0  0
  3  9  1  0  0  0
  4  5  1  0  0  0
  4  6  1  0  0  0
  4  7  1  0  0  0
  7  8  1  0  0  0
  9 10  1  0  0  0
  9 25  1  0  0  0
 10 27  1  0  0  0
 10 11  1  0  0  0
 27 28  1  0  0  0
 28 29  1  0  0  0
 28 33  2  0  0  0
 29 30  2  0  0  0
 30 31  1  0  0  0
 31 32  2  0  0  0
 31 36  1  0  0  0
 32 33  1  0  0  0
 32 34  1  0  0  0
 34 35  1  0  0  0
 35 36  1  0  0  0
 11 12  2  0  0  0
 25 26  1  0  0  0
 17 18  1  0  0  0
 19 22  1  0  0  0
 19 23  1  0  0  0
 21 24  1  0  0  0
M  END
> <minimizedAffinity>
-8.49736

$$$$
1Y3X_UIB_A_1994


 36 40  0  0  0  0  0  0  0  0999 V2000
   -3.2340    4.2355   20.8031 C   0  0  0  0  0  0  0  0  0  0  0  0
   -2.6398    3.6688   22.1081 C   0  0  0  0  0  0  0  0  0  0  0  0
   -3.3723    2.3010   22.2354 C   0  0  0  0  0  0  0  0  0  0  0  0
   -4.6978    2.5130   21.4514 C   0  0  0  0  0  0  0  0  0  0  0  0
   -5.8336    2.0733   22.3979 C   0  0  0  0  0  0  0  0  0  0  0  0
   -4.6026    1.5715   20.2318 C   0  0  0  0  0  0  0  0  0  0  0  0
   -4.6932    3.9282   20.8776 N   0  0  0  0  0  0  0  0  0  0  0  0
   -5.3575    4.0102   19.5707 C   0  0  0  0  0  0  0  0  0  0  0  0
   -3.5509    2.1554   23.7794 C   0  0  0  0  0  0  0  0  0  0  0  0
   -3.6646    3.5298   24.2416 N   0  0  0  0  0  0  0  0  0  0  0  0
   -3.1325    4.4355   23.3583 C   0  0  0  0  0  0  0  0  0  0  0  0
   -3.0476    5.6798   23.5476 O   0  0  0  0  0  0  0  0  0  0  0  0
   -2.3577    8.3648   19.8755 C   0  0  0  0  0  0  0  0  0  0  0  0
   -1.3327    7.3933   19.8805 C   0  0  0  0  0  0  0  0  0  0  0  0
   -1.6424    6.0645   20.1542 C   0  0  0  0  0  0  0  0  0  0  0  0
   -2.9737    5.6683   20.4202 C   0  0  0  0  0  0  0  0  0  0  0  0
   -3.9844    6.6296   20.4293 C   0  0  0  0  0  0  0  0  0  0  0  0
   -3.6744    7.9844   20.1522 C   0  0  0  0  0  0  0  0  0  0  0  0
   -2.9758   10.5205   19.0474 N   0  0  0  0  0  0  0  0  0  0  0  0
   -2.0645    9.7378   19.6019 C   0  0  0  0  0  0  0  0  0  0  0  0
   -0.8673   10.3381   19.8751 N   0  0  0  0  0  0  0  0  0  0  0  0
   -2.7669   11.4645   18.8620 H   0  0  0  0  0  0  0  0  0  0  0  0
   -3.8629   10.1588   18.8201 H   0  0  0  0  0  0  0  0  0  0  0  0
   -0.7333   11.2895   19.6602 H   0  0  0  0  0  0  0  0  0  0  0  0
   -2.4284    1.3553   24.4730 C   0  0  0  0  0  0  0  0  0  0  0  0
   -1.7864    0.3716   23.5177 C   0  0  0  0  0  0  0  0  0  0  0  0
   -4.2648    3.9842   25.5470 C   0  0  0  0  0  0  0  0  0  0  0  0
   -3.2131    4.3641   26.5895 C   0  0  0  0  0  0  0  0  0  0  0  0
   -2.9945    5.7303   26.9468 C   0  0  0  0  0  0  0  0  0  0  0  0
   -2.1286    6.1145   27.9896 C   0  0  0  0  0  0  0  0  0  0  0  0
   -1.4501    5.0919   28.6651 C   0  0  0  0  0  0  0  0  0  0  0  0
   -1.6359    3.7357   28.3491 C   0  0  0  0  0  0  0  0  0  0  0  0
   -2.5061    3.3441   27.3174 C   0  0  0  0  0  0  0  0  0  0  0  0
   -0.8652    2.8994   29.1698 O   0  0  0  0  0  0  0  0  0  0  0  0
   -0.1690    3.8350   30.0333 C   0  0  0  0  0  0  0  0  0  0  0  0
   -0.5600    5.2027   29.7055 O   0  0  0  0  0  0  0  0  0  0  0  0
 19 20  1  0  0  0
 20 21  2  0  0  0
 20 13  1  0  0  0
 13 14  1  0  0  0
 13 18  2  0  0  0
 14 15  2  0  0  0
 15 16  1  0  0  0
 16  1  1  0  0  0
 16 17  2  0  0  0
  1  2  1  0  0  0
  1  7  1  0  0  0
  2  3  1  0  0  0
  2 11  1  0  0  0
  3  4  1  0  0  0
  3  9  1  0  0  0
  4  5  1  0  0  0
  4  6  1  0  0  0
  4  7  1  0  0  0
  7  8  1  0  0  0
  9 10  1  0  0  0
  9 25  1  0  0  0
 10 27  1  0  0  0
 10 11  1  0  0  0
 27 28  1  0  0  0
 28 29  1  0  0  0
 28 33  2  0  0  0
 29 30  2  0  0  0
 30 31  1  0  0  0
 31 32  2  0  0  0
 31 36  1  0  0  0
 32 33  1  0  0  0
 32 34  1  0  0  0
 34 35  1  0  0  0
 35 36  1  0  0  0
 11 12  2  0  0  0
 25 26  1  0  0  0
 17 18  1  0  0  0
 19 22  1  0  0  0
 19 23  1  0  0  0
 21 24  1  0  0  0
M  END
> <minimizedAffinity>
-8.39306

$$$$
1Y3X_UIB_A_1994


 36 40  0  0  0  0  0  0  0  0999 V2000
   -2.7205    3.7614   20.5138 C   0  0  0  0  0  0  0  0  0  0  0  0
   -1.4009    2.9901   20.7157 C   0  0  0  0  0  0  0  0  0  0  0  0
   -1.9021    1.6164   21.2501 C   0  0  0  0  0  0  0  0  0  0  0  0
   -3.2717    1.9485   21.9065 C   0  0  0  0  0  0  0  0  0  0  0  0
   -3.2238    1.3530   23.3285 C   0  0  0  0  0  0  0  0  0  0  0  0
   -4.3230    1.2216   21.0408 C   0  0  0  0  0  0  0  0  0  0  0  0
   -3.5445    3.4389   21.7164 N   0  0  0  0  0  0  0  0  0  0  0  0
   -4.9700    3.7322   21.5226 C   0  0  0  0  0  0  0  0  0  0  0  0
   -0.7811    1.2172   22.2605 C   0  0  0  0  0  0  0  0  0  0  0  0
   -0.2933    2.4959   22.7530 N   0  0  0  0  0  0  0  0  0  0  0  0
   -0.5777    3.5376   21.9057 C   0  0  0  0  0  0  0  0  0  0  0  0
   -0.2121    4.7339   22.0678 O   0  0  0  0  0  0  0  0  0  0  0  0
   -2.4310    8.0081   19.7648 C   0  0  0  0  0  0  0  0  0  0  0  0
   -1.5678    7.1001   19.1131 C   0  0  0  0  0  0  0  0  0  0  0  0
   -1.6975    5.7346   19.3478 C   0  0  0  0  0  0  0  0  0  0  0  0
   -2.6895    5.2390   20.2256 C   0  0  0  0  0  0  0  0  0  0  0  0
   -3.5333    6.1362   20.8804 C   0  0  0  0  0  0  0  0  0  0  0  0
   -3.4047    7.5279   20.6458 C   0  0  0  0  0  0  0  0  0  0  0  0
   -1.1550   10.0291   19.7190 N   0  0  0  0  0  0  0  0  0  0  0  0
   -2.3146    9.4166   19.5442 C   0  0  0  0  0  0  0  0  0  0  0  0
   -3.3471   10.2218   19.1519 N   0  0  0  0  0  0  0  0  0  0  0  0
   -1.0824   10.9988   19.5652 H   0  0  0  0  0  0  0  0  0  0  0  0
   -0.3647    9.5152   20.0028 H   0  0  0  0  0  0  0  0  0  0  0  0
   -3.1965   11.1854   19.0182 H   0  0  0  0  0  0  0  0  0  0  0  0
    0.3208    0.3191   21.6600 C   0  0  0  0  0  0  0  0  0  0  0  0
   -0.2436   -0.6090   20.6053 C   0  0  0  0  0  0  0  0  0  0  0  0
    0.4710    2.7257   24.0312 C   0  0  0  0  0  0  0  0  0  0  0  0
   -0.4224    3.1610   25.1930 C   0  0  0  0  0  0  0  0  0  0  0  0
   -0.2718    2.5826   26.4909 C   0  0  0  0  0  0  0  0  0  0  0  0
   -0.9847    3.0423   27.6158 C   0  0  0  0  0  0  0  0  0  0  0  0
   -1.8890    4.0927   27.4127 C   0  0  0  0  0  0  0  0  0  0  0  0
   -2.0677    4.6927   26.1550 C   0  0  0  0  0  0  0  0  0  0  0  0
   -1.3524    4.2468   25.0306 C   0  0  0  0  0  0  0  0  0  0  0  0
   -3.0095    5.7309   26.2024 O   0  0  0  0  0  0  0  0  0  0  0  0
   -3.4199    5.7407   27.5943 C   0  0  0  0  0  0  0  0  0  0  0  0
   -2.6960    4.7125   28.3355 O   0  0  0  0  0  0  0  0  0  0  0  0
 19 20  1  0  0  0
 20 21  2  0  0  0
 20 13  1  0  0  0
 13 14  1  0  0  0
 13 18  2  0  0  0
 14 15  2  0  0  0
 15 16  1  0  0  0
 16  1  1  0  0  0
 16 17  2  0  0  0
  1  2  1  0  0  0
  1  7  1  0  0  0
  2  3  1  0  0  0
  2 11  1  0  0  0
  3  4  1  0  0  0
  3  9  1  0  0  0
  4  5  1  0  0  0
  4  6  1  0  0  0
  4  7  1  0  0  0
  7  8  1  0  0  0
  9 10  1  0  0  0
  9 25  1  0  0  0
 10 27  1  0  0  0
 10 11  1  0  0  0
 27 28  1  0  0  0
 28 29  1  0  0  0
 28 33  2  0  0  0
 29 30  2  0  0  0
 30 31  1  0  0  0
 31 32  2  0  0  0
 31 36  1  0  0  0
 32 33  1  0  0  0
 32 34  1  0  0  0
 34 35  1  0  0  0
 35 36  1  0  0  0
 11 12  2  0  0  0
 25 26  1  0  0  0
 17 18  1  0  0  0
 19 22  1  0  0  0
 19 23  1  0  0  0
 21 24  1  0  0  0
M  END
> <minimizedAffinity>
-8.32974

$$$$
1Y3X_UIB_A_1994


 36 40  0  0  0  0  0  0  0  0999 V2000
   -4.3491    3.8731   25.9289 C   0  0  0  0  0  0  0  0  0  0  0  0
   -4.7354    4.4720   24.5616 C   0  0  0  0  0  0  0  0  0  0  0  0
   -5.3795    3.2524   23.8393 C   0  0  0  0  0  0  0  0  0  0  0  0
   -4.7241    2.0222   24.5276 C   0  0  0  0  0  0  0  0  0  0  0  0
   -4.1786    1.1326   23.3918 C   0  0  0  0  0  0  0  0  0  0  0  0
   -5.8747    1.3154   25.2756 C   0  0  0  0  0  0  0  0  0  0  0  0
   -3.7794    2.5292   25.6150 N   0  0  0  0  0  0  0  0  0  0  0  0
   -3.7377    1.6434   26.7853 C   0  0  0  0  0  0  0  0  0  0  0  0
   -4.9455    3.4702   22.3557 C   0  0  0  0  0  0  0  0  0  0  0  0
   -3.6654    4.1513   22.4703 N   0  0  0  0  0  0  0  0  0  0  0  0
   -3.4983    4.7728   23.6826 C   0  0  0  0  0  0  0  0  0  0  0  0
   -2.5083    5.4819   24.0116 O   0  0  0  0  0  0  0  0  0  0  0  0
   -1.8108    5.9420   28.7494 C   0  0  0  0  0  0  0  0  0  0  0  0
   -1.3160    4.8546   27.9963 C   0  0  0  0  0  0  0  0  0  0  0  0
   -2.1426    4.2212   27.0733 C   0  0  0  0  0  0  0  0  0  0  0  0
   -3.4730    4.6561   26.8705 C   0  0  0  0  0  0  0  0  0  0  0  0
   -3.9667    5.7211   27.6240 C   0  0  0  0  0  0  0  0  0  0  0  0
   -3.1295    6.3690   28.5661 C   0  0  0  0  0  0  0  0  0  0  0  0
   -0.9352    6.1839   30.9607 N   0  0  0  0  0  0  0  0  0  0  0  0
   -0.9826    6.6066   29.7078 C   0  0  0  0  0  0  0  0  0  0  0  0
   -0.2012    7.6925   29.4279 N   0  0  0  0  0  0  0  0  0  0  0  0
   -0.3630    6.6462   31.6149 H   0  0  0  0  0  0  0  0  0  0  0  0
   -1.4722    5.4070   31.2388 H   0  0  0  0  0  0  0  0  0  0  0  0
    0.3455    8.1016   30.1372 H   0  0  0  0  0  0  0  0  0  0  0  0
   -5.9807    4.2288   21.4990 C   0  0  0  0  0  0  0  0  0  0  0  0
   -6.0068    3.7036   20.0791 C   0  0  0  0  0  0  0  0  0  0  0  0
   -2.6001    4.2310   21.4075 C   0  0  0  0  0  0  0  0  0  0  0  0
   -2.3346    5.6595   20.9319 C   0  0  0  0  0  0  0  0  0  0  0  0
   -1.0468    6.0435   20.4460 C   0  0  0  0  0  0  0  0  0  0  0  0
   -0.7933    7.3092   19.8815 C   0  0  0  0  0  0  0  0  0  0  0  0
   -1.8626    8.2128   19.8347 C   0  0  0  0  0  0  0  0  0  0  0  0
   -3.1457    7.8776   20.2986 C   0  0  0  0  0  0  0  0  0  0  0  0
   -3.4089    6.6134   20.8531 C   0  0  0  0  0  0  0  0  0  0  0  0
   -4.0522    8.9346   20.1323 O   0  0  0  0  0  0  0  0  0  0  0  0
   -3.2400    9.9738   19.5272 C   0  0  0  0  0  0  0  0  0  0  0  0
   -1.8740    9.4944   19.3403 O   0  0  0  0  0  0  0  0  0  0  0  0
 19 20  1  0  0  0
 20 21  2  0  0  0
 20 13  1  0  0  0
 13 14  1  0  0  0
 13 18  2  0  0  0
 14 15  2  0  0  0
 15 16  1  0  0  0
 16  1  1  0  0  0
 16 17  2  0  0  0
  1  2  1  0  0  0
  1  7  1  0  0  0
  2  3  1  0  0  0
  2 11  1  0  0  0
  3  4  1  0  0  0
  3  9  1  0  0  0
  4  5  1  0  0  0
  4  6  1  0  0  0
  4  7  1  0  0  0
  7  8  1  0  0  0
  9 10  1  0  0  0
  9 25  1  0  0  0
 10 27  1  0  0  0
 10 11  1  0  0  0
 27 28  1  0  0  0
 28 29  1  0  0  0
 28 33  2  0  0  0
 29 30  2  0  0  0
 30 31  1  0  0  0
 31 32  2  0  0  0
 31 36  1  0  0  0
 32 33  1  0  0  0
 32 34  1  0  0  0
 34 35  1  0  0  0
 35 36  1  0  0  0
 11 12  2  0  0  0
 25 26  1  0  0  0
 17 18  1  0  0  0
 19 22  1  0  0  0
 19 23  1  0  0  0
 21 24  1  0  0  0
M  END
> <minimizedAffinity>
-8.21751

$$$$
1Y3X_UIB_A_1994


 36 40  0  0  0  0  0  0  0  0999 V2000
   -3.3095    3.9717   20.3484 C   0  0  0  0  0  0  0  0  0  0  0  0
   -2.2502    3.1726   21.1335 C   0  0  0  0  0  0  0  0  0  0  0  0
   -2.9823    1.8233   21.3924 C   0  0  0  0  0  0  0  0  0  0  0  0
   -4.4894    2.2027   21.3526 C   0  0  0  0  0  0  0  0  0  0  0  0
   -5.1108    1.6364   22.6458 C   0  0  0  0  0  0  0  0  0  0  0  0
   -5.0558    1.4838   20.1095 C   0  0  0  0  0  0  0  0  0  0  0  0
   -4.5992    3.6950   21.0480 N   0  0  0  0  0  0  0  0  0  0  0  0
   -5.7715    4.0191   20.2256 C   0  0  0  0  0  0  0  0  0  0  0  0
   -2.4550    1.4180   22.8048 C   0  0  0  0  0  0  0  0  0  0  0  0
   -2.2038    2.6944   23.4552 N   0  0  0  0  0  0  0  0  0  0  0  0
   -2.0399    3.7247   22.5633 C   0  0  0  0  0  0  0  0  0  0  0  0
   -1.7501    4.9148   22.8647 O   0  0  0  0  0  0  0  0  0  0  0  0
   -2.5404    8.1803   19.7356 C   0  0  0  0  0  0  0  0  0  0  0  0
   -1.6412    7.2046   19.2518 C   0  0  0  0  0  0  0  0  0  0  0  0
   -1.9232    5.8544   19.4357 C   0  0  0  0  0  0  0  0  0  0  0  0
   -3.1046    5.4417   20.0945 C   0  0  0  0  0  0  0  0  0  0  0  0
   -3.9863    6.4050   20.5849 C   0  0  0  0  0  0  0  0  0  0  0  0
   -3.7034    7.7815   20.4013 C   0  0  0  0  0  0  0  0  0  0  0  0
   -3.2239   10.3962   19.1546 N   0  0  0  0  0  0  0  0  0  0  0  0
   -2.2709    9.5745   19.5636 C   0  0  0  0  0  0  0  0  0  0  0  0
   -1.0564   10.1576   19.7943 N   0  0  0  0  0  0  0  0  0  0  0  0
   -3.0311   11.3546   19.0385 H   0  0  0  0  0  0  0  0  0  0  0  0
   -4.1258   10.0491   18.9665 H   0  0  0  0  0  0  0  0  0  0  0  0
   -0.9406   11.1253   19.6553 H   0  0  0  0  0  0  0  0  0  0  0  0
   -1.2295    0.4806   22.7771 C   0  0  0  0  0  0  0  0  0  0  0  0
   -1.2655   -0.4322   21.5697 C   0  0  0  0  0  0  0  0  0  0  0  0
   -2.0960    2.9323   24.9394 C   0  0  0  0  0  0  0  0  0  0  0  0
   -0.8558    2.2890   25.5603 C   0  0  0  0  0  0  0  0  0  0  0  0
    0.4564    2.6940   25.1653 C   0  0  0  0  0  0  0  0  0  0  0  0
    1.6217    2.2203   25.7997 C   0  0  0  0  0  0  0  0  0  0  0  0
    1.4520    1.2956   26.8382 C   0  0  0  0  0  0  0  0  0  0  0  0
    0.1813    0.8710   27.2610 C   0  0  0  0  0  0  0  0  0  0  0  0
   -0.9861    1.3472   26.6403 C   0  0  0  0  0  0  0  0  0  0  0  0
    0.2637   -0.0405   28.3236 O   0  0  0  0  0  0  0  0  0  0  0  0
    1.6929   -0.1655   28.5411 C   0  0  0  0  0  0  0  0  0  0  0  0
    2.4169    0.6897   27.6055 O   0  0  0  0  0  0  0  0  0  0  0  0
 19 20  1  0  0  0
 20 21  2  0  0  0
 20 13  1  0  0  0
 13 14  1  0  0  0
 13 18  2  0  0  0
 14 15  2  0  0  0
 15 16  1  0  0  0
 16  1  1  0  0  0
 16 17  2  0  0  0
  1  2  1  0  0  0
  1  7  1  0  0  0
  2  3  1  0  0  0
  2 11  1  0  0  0
  3  4  1  0  0  0
  3  9  1  0  0  0
  4  5  1  0  0  0
  4  6  1  0  0  0
  4  7  1  0  0  0
  7  8  1  0  0  0
  9 10  1  0  0  0
  9 25  1  0  0  0
 10 27  1  0  0  0
 10 11  1  0  0  0
 27 28  1  0  0  0
 28 29  1  0  0  0
 28 33  2  0  0  0
 29 30  2  0  0  0
 30 31  1  0  0  0
 31 32  2  0  0  0
 31 36  1  0  0  0
 32 33  1  0  0  0
 32 34  1  0  0  0
 34 35  1  0  0  0
 35 36  1  0  0  0
 11 12  2  0  0  0
 25 26  1  0  0  0
 17 18  1  0  0  0
 19 22  1  0  0  0
 19 23  1  0  0  0
 21 24  1  0  0  0
M  END
> <minimizedAffinity>
-8.18307

$$$$
1Y3X_UIB_A_1994


 36 40  0  0  0  0  0  0  0  0999 V2000
   -3.1103    4.5143   24.3867 C   0  0  0  0  0  0  0  0  0  0  0  0
   -2.2031    4.7617   23.1648 C   0  0  0  0  0  0  0  0  0  0  0  0
   -3.1442    4.3995   21.9787 C   0  0  0  0  0  0  0  0  0  0  0  0
   -4.1628    3.4036   22.6010 C   0  0  0  0  0  0  0  0  0  0  0  0
   -4.1757    2.1675   21.6786 C   0  0  0  0  0  0  0  0  0  0  0  0
   -5.5217    4.1349   22.5599 C   0  0  0  0  0  0  0  0  0  0  0  0
   -3.8297    3.2418   24.0825 N   0  0  0  0  0  0  0  0  0  0  0  0
   -5.0256    3.0537   24.9133 C   0  0  0  0  0  0  0  0  0  0  0  0
   -2.1603    3.7590   20.9498 C   0  0  0  0  0  0  0  0  0  0  0  0
   -1.1360    3.1543   21.7868 N   0  0  0  0  0  0  0  0  0  0  0  0
   -1.0811    3.7034   23.0435 C   0  0  0  0  0  0  0  0  0  0  0  0
   -0.2438    3.4030   23.9379 O   0  0  0  0  0  0  0  0  0  0  0  0
   -1.2634    4.6536   28.2917 C   0  0  0  0  0  0  0  0  0  0  0  0
   -1.7904    5.8230   27.7007 C   0  0  0  0  0  0  0  0  0  0  0  0
   -2.4059    5.7496   26.4549 C   0  0  0  0  0  0  0  0  0  0  0  0
   -2.5202    4.5164   25.7721 C   0  0  0  0  0  0  0  0  0  0  0  0
   -1.9876    3.3634   26.3488 C   0  0  0  0  0  0  0  0  0  0  0  0
   -1.3587    3.4327   27.6170 C   0  0  0  0  0  0  0  0  0  0  0  0
   -0.5086    5.8508   30.2183 N   0  0  0  0  0  0  0  0  0  0  0  0
   -0.6217    4.7035   29.5691 C   0  0  0  0  0  0  0  0  0  0  0  0
   -0.0887    3.6175   30.2053 N   0  0  0  0  0  0  0  0  0  0  0  0
   -0.0657    5.8775   31.0971 H   0  0  0  0  0  0  0  0  0  0  0  0
   -0.8675    6.6777   29.8226 H   0  0  0  0  0  0  0  0  0  0  0  0
    0.3397    3.7237   31.0853 H   0  0  0  0  0  0  0  0  0  0  0  0
   -1.6062    4.7491   19.9039 C   0  0  0  0  0  0  0  0  0  0  0  0
   -2.5934    5.8634   19.6279 C   0  0  0  0  0  0  0  0  0  0  0  0
   -0.1847    2.0588   21.3797 C   0  0  0  0  0  0  0  0  0  0  0  0
   -0.8152    1.0407   20.4294 C   0  0  0  0  0  0  0  0  0  0  0  0
   -1.8127    0.1270   20.8900 C   0  0  0  0  0  0  0  0  0  0  0  0
   -2.5090   -0.7389   20.0238 C   0  0  0  0  0  0  0  0  0  0  0  0
   -2.1658   -0.6952   18.6663 C   0  0  0  0  0  0  0  0  0  0  0  0
   -1.1933    0.1884   18.1690 C   0  0  0  0  0  0  0  0  0  0  0  0
   -0.5022    1.0625   19.0252 C   0  0  0  0  0  0  0  0  0  0  0  0
   -1.0356    0.0617   16.7812 O   0  0  0  0  0  0  0  0  0  0  0  0
   -1.9855   -0.9791   16.4348 C   0  0  0  0  0  0  0  0  0  0  0  0
   -2.6900   -1.4304   17.6310 O   0  0  0  0  0  0  0  0  0  0  0  0
 19 20  1  0  0  0
 20 21  2  0  0  0
 20 13  1  0  0  0
 13 14  1  0  0  0
 13 18  2  0  0  0
 14 15  2  0  0  0
 15 16  1  0  0  0
 16  1  1  0  0  0
 16 17  2  0  0  0
  1  2  1  0  0  0
  1  7  1  0  0  0
  2  3  1  0  0  0
  2 11  1  0  0  0
  3  4  1  0  0  0
  3  9  1  0  0  0
  4  5  1  0  0  0
  4  6  1  0  0  0
  4  7  1  0  0  0
  7  8  1  0  0  0
  9 10  1  0  0  0
  9 25  1  0  0  0
 10 27  1  0  0  0
 10 11  1  0  0  0
 27 28  1  0  0  0
 28 29  1  0  0  0
 28 33  2  0  0  0
 29 30  2  0  0  0
 30 31  1  0  0  0
 31 32  2  0  0  0
 31 36  1  0  0  0
 32 33  1  0  0  0
 32 34  1  0  0  0
 34 35  1  0  0  0
 35 36  1  0  0  0
 11 12  2  0  0  0
 25 26  1  0  0  0
 17 18  1  0  0  0
 19 22  1  0  0  0
 19 23  1  0  0  0
 21 24  1  0  0  0
M  END
> <minimizedAffinity>
-7.59209

$$$$
1Y3X_UIB_A_1994


 36 40  0  0  0  0  0  0  0  0999 V2000
   -2.2751    2.5643   25.8292 C   0  0  0  0  0  0  0  0  0  0  0  0
   -2.7729    2.5521   24.3700 C   0  0  0  0  0  0  0  0  0  0  0  0
   -2.1032    1.2650   23.8055 C   0  0  0  0  0  0  0  0  0  0  0  0
   -0.8477    1.0736   24.7021 C   0  0  0  0  0  0  0  0  0  0  0  0
    0.3474    0.9097   23.7409 C   0  0  0  0  0  0  0  0  0  0  0  0
   -1.1051   -0.2304   25.4872 C   0  0  0  0  0  0  0  0  0  0  0  0
   -0.8331    2.1855   25.7487 N   0  0  0  0  0  0  0  0  0  0  0  0
   -0.2907    1.7404   27.0385 C   0  0  0  0  0  0  0  0  0  0  0  0
   -1.7886    1.6667   22.3302 C   0  0  0  0  0  0  0  0  0  0  0  0
   -1.5614    3.1012   22.4073 N   0  0  0  0  0  0  0  0  0  0  0  0
   -2.1264    3.6718   23.5204 C   0  0  0  0  0  0  0  0  0  0  0  0
   -2.1290    4.9041   23.7903 O   0  0  0  0  0  0  0  0  0  0  0  0
   -2.7523    5.9891   28.4220 C   0  0  0  0  0  0  0  0  0  0  0  0
   -1.5366    5.7651   27.7389 C   0  0  0  0  0  0  0  0  0  0  0  0
   -1.4148    4.6715   26.8872 C   0  0  0  0  0  0  0  0  0  0  0  0
   -2.4958    3.7819   26.6872 C   0  0  0  0  0  0  0  0  0  0  0  0
   -3.6922    3.9945   27.3722 C   0  0  0  0  0  0  0  0  0  0  0  0
   -3.8213    5.1062   28.2417 C   0  0  0  0  0  0  0  0  0  0  0  0
   -1.8384    7.6763   29.8478 N   0  0  0  0  0  0  0  0  0  0  0  0
   -2.9011    7.1031   29.3067 C   0  0  0  0  0  0  0  0  0  0  0  0
   -4.1029    7.6506   29.6591 N   0  0  0  0  0  0  0  0  0  0  0  0
   -1.9485    8.4427   30.4559 H   0  0  0  0  0  0  0  0  0  0  0  0
   -0.9376    7.3363   29.6424 H   0  0  0  0  0  0  0  0  0  0  0  0
   -4.1325    8.4186   30.2743 H   0  0  0  0  0  0  0  0  0  0  0  0
   -2.8810    1.2621   21.3181 C   0  0  0  0  0  0  0  0  0  0  0  0
   -2.2830    0.9491   19.9628 C   0  0  0  0  0  0  0  0  0  0  0  0
   -0.8189    3.9413   21.4004 C   0  0  0  0  0  0  0  0  0  0  0  0
   -1.7005    5.0001   20.7378 C   0  0  0  0  0  0  0  0  0  0  0  0
   -3.0255    4.6854   20.3051 C   0  0  0  0  0  0  0  0  0  0  0  0
   -3.9143    5.6586   19.8074 C   0  0  0  0  0  0  0  0  0  0  0  0
   -3.4383    6.9733   19.7217 C   0  0  0  0  0  0  0  0  0  0  0  0
   -2.1442    7.3285   20.1374 C   0  0  0  0  0  0  0  0  0  0  0  0
   -1.2556    6.3653   20.6450 C   0  0  0  0  0  0  0  0  0  0  0  0
   -1.9022    8.7000   19.9721 O   0  0  0  0  0  0  0  0  0  0  0  0
   -3.1482    9.1899   19.4126 C   0  0  0  0  0  0  0  0  0  0  0  0
   -4.0997    8.0914   19.2750 O   0  0  0  0  0  0  0  0  0  0  0  0
 19 20  1  0  0  0
 20 21  2  0  0  0
 20 13  1  0  0  0
 13 14  1  0  0  0
 13 18  2  0  0  0
 14 15  2  0  0  0
 15 16  1  0  0  0
 16  1  1  0  0  0
 16 17  2  0  0  0
  1  2  1  0  0  0
  1  7  1  0  0  0
  2  3  1  0  0  0
  2 11  1  0  0  0
  3  4  1  0  0  0
  3  9  1  0  0  0
  4  5  1  0  0  0
  4  6  1  0  0  0
  4  7  1  0  0  0
  7  8  1  0  0  0
  9 10  1  0  0  0
  9 25  1  0  0  0
 10 27  1  0  0  0
 10 11  1  0  0  0
 27 28  1  0  0  0
 28 29  1  0  0  0
 28 33  2  0  0  0
 29 30  2  0  0  0
 30 31  1  0  0  0
 31 32  2  0  0  0
 31 36  1  0  0  0
 32 33  1  0  0  0
 32 34  1  0  0  0
 34 35  1  0  0  0
 35 36  1  0  0  0
 11 12  2  0  0  0
 25 26  1  0  0  0
 17 18  1  0  0  0
 19 22  1  0  0  0
 19 23  1  0  0  0
 21 24  1  0  0  0
M  END
> <minimizedAffinity>
-7.52593

$$$$
