4DET_KMP_A_201


 25 27  0  0  0  0  0  0  0  0999 V2000
   22.1729    0.8056  -10.1232 C   0  0  0  0  0  0  0  0  0  0  0  0
   22.5723   -0.0276   -9.1192 C   0  0  0  0  0  0  0  0  0  0  0  0
   22.0897    0.1562   -7.8614 C   0  0  0  0  0  0  0  0  0  0  0  0
   21.2114    1.1519   -7.6151 C   0  0  0  0  0  0  0  0  0  0  0  0
   20.8081    2.0083   -8.5802 C   0  0  0  0  0  0  0  0  0  0  0  0
   21.2897    1.8356   -9.8327 C   0  0  0  0  0  0  0  0  0  0  0  0
   22.4816   -0.6808   -6.8793 C   0  0  0  0  0  0  0  0  0  0  0  0
   21.8978   -0.4764   -5.6799 C   0  0  0  0  0  0  0  0  0  0  0  0
   21.0140    0.5790   -5.4959 C   0  0  0  0  0  0  0  0  0  0  0  0
   20.7130    1.4061   -6.4491 O   0  0  0  0  0  0  0  0  0  0  0  0
   23.2488   -1.6248   -7.0689 O   0  0  0  0  0  0  0  0  0  0  0  0
   22.2818   -1.3173   -4.7392 O   0  0  0  0  0  0  0  0  0  0  0  0
   20.8631    2.6954  -10.7463 O   0  0  0  0  0  0  0  0  0  0  0  0
   23.4070   -1.0123   -9.2850 O   0  0  0  0  0  0  0  0  0  0  0  0
   22.8834   -2.0060   -4.9435 H   0  0  0  0  0  0  0  0  0  0  0  0
   21.1623    2.6254  -11.6315 H   0  0  0  0  0  0  0  0  0  0  0  0
   23.7689   -1.1820  -10.1325 H   0  0  0  0  0  0  0  0  0  0  0  0
   20.3602    0.9910   -4.3665 C   0  0  0  0  0  0  0  0  0  0  0  0
   20.8758    0.7244   -3.1205 C   0  0  0  0  0  0  0  0  0  0  0  0
   20.2415    1.1754   -2.0179 C   0  0  0  0  0  0  0  0  0  0  0  0
   19.1405    1.9467   -2.1551 C   0  0  0  0  0  0  0  0  0  0  0  0
   18.6515    2.2760   -3.3700 C   0  0  0  0  0  0  0  0  0  0  0  0
   19.2648    1.8060   -4.4787 C   0  0  0  0  0  0  0  0  0  0  0  0
   18.5357    2.3850   -1.0816 O   0  0  0  0  0  0  0  0  0  0  0  0
   18.8665    2.1625   -0.2336 H   0  0  0  0  0  0  0  0  0  0  0  0
  1  2  2  0  0  0
  1  6  1  0  0  0
  2  3  1  0  0  0
  2 14  1  0  0  0
  3  4  2  0  0  0
  3  7  1  0  0  0
  4  5  1  0  0  0
  4 10  1  0  0  0
  5  6  2  0  0  0
  6 13  1  0  0  0
  7  8  1  0  0  0
  7 11  2  0  0  0
  8  9  2  0  0  0
  8 12  1  0  0  0
  9 18  1  0  0  0
  9 10  1  0  0  0
 18 19  2  0  0  0
 18 23  1  0  0  0
 19 20  1  0  0  0
 20 21  2  0  0  0
 21 22  1  0  0  0
 21 24  1  0  0  0
 22 23  2  0  0  0
 24 25  1  0  0  0
 12 15  1  0  0  0
 13 16  1  0  0  0
 14 17  1  0  0  0
M  END
> <minimizedAffinity>
-8.09354

$$$$
4DET_KMP_A_201


 25 27  0  0  0  0  0  0  0  0999 V2000
   21.1379   -0.8115  -10.1152 C   0  0  0  0  0  0  0  0  0  0  0  0
   20.7448    0.0231   -9.1098 C   0  0  0  0  0  0  0  0  0  0  0  0
   21.2322   -0.1616   -7.8539 C   0  0  0  0  0  0  0  0  0  0  0  0
   22.1090   -1.1593   -7.6110 C   0  0  0  0  0  0  0  0  0  0  0  0
   22.5062   -2.0170   -8.5774 C   0  0  0  0  0  0  0  0  0  0  0  0
   22.0198   -1.8436   -9.8280 C   0  0  0  0  0  0  0  0  0  0  0  0
   20.8465    0.6768   -6.8706 C   0  0  0  0  0  0  0  0  0  0  0  0
   21.4348    0.4714   -5.6735 C   0  0  0  0  0  0  0  0  0  0  0  0
   22.3168   -0.5862   -5.4929 C   0  0  0  0  0  0  0  0  0  0  0  0
   22.6117   -1.4144   -6.4470 O   0  0  0  0  0  0  0  0  0  0  0  0
   20.0809    1.6226   -7.0572 O   0  0  0  0  0  0  0  0  0  0  0  0
   21.0568    1.3135   -4.7315 O   0  0  0  0  0  0  0  0  0  0  0  0
   22.4405   -2.7047  -10.7431 O   0  0  0  0  0  0  0  0  0  0  0  0
   19.9119    1.0097   -9.2725 O   0  0  0  0  0  0  0  0  0  0  0  0
   20.4561    2.0036   -4.9335 H   0  0  0  0  0  0  0  0  0  0  0  0
   22.1376   -2.6343  -11.6270 H   0  0  0  0  0  0  0  0  0  0  0  0
   19.5468    1.1800  -10.1184 H   0  0  0  0  0  0  0  0  0  0  0  0
   22.9743   -0.9994   -4.3660 C   0  0  0  0  0  0  0  0  0  0  0  0
   22.4594   -0.7400   -3.1182 C   0  0  0  0  0  0  0  0  0  0  0  0
   23.0976   -1.1922   -2.0184 C   0  0  0  0  0  0  0  0  0  0  0  0
   24.2019   -1.9578   -2.1602 C   0  0  0  0  0  0  0  0  0  0  0  0
   24.6905   -2.2802   -3.3771 C   0  0  0  0  0  0  0  0  0  0  0  0
   24.0733   -1.8089   -4.4830 C   0  0  0  0  0  0  0  0  0  0  0  0
   24.8105   -2.3974   -1.0893 O   0  0  0  0  0  0  0  0  0  0  0  0
   24.4799   -2.1797   -0.2400 H   0  0  0  0  0  0  0  0  0  0  0  0
  1  2  2  0  0  0
  1  6  1  0  0  0
  2  3  1  0  0  0
  2 14  1  0  0  0
  3  4  2  0  0  0
  3  7  1  0  0  0
  4  5  1  0  0  0
  4 10  1  0  0  0
  5  6  2  0  0  0
  6 13  1  0  0  0
  7  8  1  0  0  0
  7 11  2  0  0  0
  8  9  2  0  0  0
  8 12  1  0  0  0
  9 18  1  0  0  0
  9 10  1  0  0  0
 18 19  2  0  0  0
 18 23  1  0  0  0
 19 20  1  0  0  0
 20 21  2  0  0  0
 21 22  1  0  0  0
 21 24  1  0  0  0
 22 23  2  0  0  0
 24 25  1  0  0  0
 12 15  1  0  0  0
 13 16  1  0  0  0
 14 17  1  0  0  0
M  END
> <minimizedAffinity>
-8.09227

$$$$
4DET_KMP_A_201


 25 27  0  0  0  0  0  0  0  0999 V2000
   21.3422    1.8065  -11.1135 C   0  0  0  0  0  0  0  0  0  0  0  0
   21.6639    0.4847  -11.0077 C   0  0  0  0  0  0  0  0  0  0  0  0
   21.9947   -0.0314   -9.7940 C   0  0  0  0  0  0  0  0  0  0  0  0
   21.9918    0.7612   -8.7008 C   0  0  0  0  0  0  0  0  0  0  0  0
   21.6971    2.0788   -8.7703 C   0  0  0  0  0  0  0  0  0  0  0  0
   21.3739    2.6007   -9.9760 C   0  0  0  0  0  0  0  0  0  0  0  0
   22.2990   -1.3418   -9.6990 C   0  0  0  0  0  0  0  0  0  0  0  0
   22.5404   -1.7888   -8.4488 C   0  0  0  0  0  0  0  0  0  0  0  0
   22.5355   -0.9113   -7.3723 C   0  0  0  0  0  0  0  0  0  0  0  0
   22.3049    0.3577   -7.5127 O   0  0  0  0  0  0  0  0  0  0  0  0
   22.2750   -2.1076  -10.6626 O   0  0  0  0  0  0  0  0  0  0  0  0
   22.8179   -3.0762   -8.3770 O   0  0  0  0  0  0  0  0  0  0  0  0
   21.0882    3.8945   -9.9949 O   0  0  0  0  0  0  0  0  0  0  0  0
   21.6785   -0.3393  -12.0150 O   0  0  0  0  0  0  0  0  0  0  0  0
   22.7999   -3.6033   -9.1515 H   0  0  0  0  0  0  0  0  0  0  0  0
   20.8571    4.3115  -10.8016 H   0  0  0  0  0  0  0  0  0  0  0  0
   21.4584   -0.0341  -12.8731 H   0  0  0  0  0  0  0  0  0  0  0  0
   22.8015   -1.1414   -6.0498 C   0  0  0  0  0  0  0  0  0  0  0  0
   23.9380   -1.8146   -5.6694 C   0  0  0  0  0  0  0  0  0  0  0  0
   24.2078   -1.9953   -4.3594 C   0  0  0  0  0  0  0  0  0  0  0  0
   23.3903   -1.4488   -3.4325 C   0  0  0  0  0  0  0  0  0  0  0  0
   22.3029   -0.7284   -3.7816 C   0  0  0  0  0  0  0  0  0  0  0  0
   22.0104   -0.5658   -5.0909 C   0  0  0  0  0  0  0  0  0  0  0  0
   23.6627   -1.6231   -2.1653 O   0  0  0  0  0  0  0  0  0  0  0  0
   24.4148   -2.1213   -1.9120 H   0  0  0  0  0  0  0  0  0  0  0  0
  1  2  2  0  0  0
  1  6  1  0  0  0
  2  3  1  0  0  0
  2 14  1  0  0  0
  3  4  2  0  0  0
  3  7  1  0  0  0
  4  5  1  0  0  0
  4 10  1  0  0  0
  5  6  2  0  0  0
  6 13  1  0  0  0
  7  8  1  0  0  0
  7 11  2  0  0  0
  8  9  2  0  0  0
  8 12  1  0  0  0
  9 18  1  0  0  0
  9 10  1  0  0  0
 18 19  2  0  0  0
 18 23  1  0  0  0
 19 20  1  0  0  0
 20 21  2  0  0  0
 21 22  1  0  0  0
 21 24  1  0  0  0
 22 23  2  0  0  0
 24 25  1  0  0  0
 12 15  1  0  0  0
 13 16  1  0  0  0
 14 17  1  0  0  0
M  END
> <minimizedAffinity>
-7.90438

$$$$
4DET_KMP_A_201


 25 27  0  0  0  0  0  0  0  0999 V2000
   21.3065   -0.0456   -8.9243 C   0  0  0  0  0  0  0  0  0  0  0  0
   20.8311    0.4924   -7.7639 C   0  0  0  0  0  0  0  0  0  0  0  0
   21.3682    0.1079   -6.5754 C   0  0  0  0  0  0  0  0  0  0  0  0
   22.3740   -0.7926   -6.5499 C   0  0  0  0  0  0  0  0  0  0  0  0
   22.8574   -1.3609   -7.6772 C   0  0  0  0  0  0  0  0  0  0  0  0
   22.3229   -0.9883   -8.8631 C   0  0  0  0  0  0  0  0  0  0  0  0
   20.8992    0.6554   -5.4357 C   0  0  0  0  0  0  0  0  0  0  0  0
   21.5376    0.2770   -4.3085 C   0  0  0  0  0  0  0  0  0  0  0  0
   22.5549   -0.6673   -4.3568 C   0  0  0  0  0  0  0  0  0  0  0  0
   22.9334   -1.2233   -5.4663 O   0  0  0  0  0  0  0  0  0  0  0  0
   20.0117    1.5084   -5.4168 O   0  0  0  0  0  0  0  0  0  0  0  0
   21.0747    0.8380   -3.2083 O   0  0  0  0  0  0  0  0  0  0  0  0
   22.8312   -1.5679   -9.9408 O   0  0  0  0  0  0  0  0  0  0  0  0
   19.8722    1.3707   -7.7132 O   0  0  0  0  0  0  0  0  0  0  0  0
   20.3839    1.4690   -3.2591 H   0  0  0  0  0  0  0  0  0  0  0  0
   22.5009   -1.3495  -10.7900 H   0  0  0  0  0  0  0  0  0  0  0  0
   19.4679    1.6693   -8.5040 H   0  0  0  0  0  0  0  0  0  0  0  0
   23.2875   -1.2223   -3.3429 C   0  0  0  0  0  0  0  0  0  0  0  0
   24.5898   -1.6107   -3.5494 C   0  0  0  0  0  0  0  0  0  0  0  0
   25.3126   -2.1161   -2.5278 C   0  0  0  0  0  0  0  0  0  0  0  0
   24.7674   -2.1693   -1.2924 C   0  0  0  0  0  0  0  0  0  0  0  0
   23.5122   -1.7340   -1.0513 C   0  0  0  0  0  0  0  0  0  0  0  0
   22.7721   -1.2518   -2.0740 C   0  0  0  0  0  0  0  0  0  0  0  0
   25.4770   -2.6543   -0.3068 O   0  0  0  0  0  0  0  0  0  0  0  0
   26.3491   -2.9591   -0.4630 H   0  0  0  0  0  0  0  0  0  0  0  0
  1  2  2  0  0  0
  1  6  1  0  0  0
  2  3  1  0  0  0
  2 14  1  0  0  0
  3  4  2  0  0  0
  3  7  1  0  0  0
  4  5  1  0  0  0
  4 10  1  0  0  0
  5  6  2  0  0  0
  6 13  1  0  0  0
  7  8  1  0  0  0
  7 11  2  0  0  0
  8  9  2  0  0  0
  8 12  1  0  0  0
  9 18  1  0  0  0
  9 10  1  0  0  0
 18 19  2  0  0  0
 18 23  1  0  0  0
 19 20  1  0  0  0
 20 21  2  0  0  0
 21 22  1  0  0  0
 21 24  1  0  0  0
 22 23  2  0  0  0
 24 25  1  0  0  0
 12 15  1  0  0  0
 13 16  1  0  0  0
 14 17  1  0  0  0
M  END
> <minimizedAffinity>
-7.50422

$$$$
4DET_KMP_A_201


 25 27  0  0  0  0  0  0  0  0999 V2000
   21.9339   -0.0018   -8.5966 C   0  0  0  0  0  0  0  0  0  0  0  0
   22.4046   -0.4692   -7.4042 C   0  0  0  0  0  0  0  0  0  0  0  0
   21.8336   -0.0476   -6.2445 C   0  0  0  0  0  0  0  0  0  0  0  0
   20.7991    0.8196   -6.2787 C   0  0  0  0  0  0  0  0  0  0  0  0
   20.3188    1.3186   -7.4396 C   0  0  0  0  0  0  0  0  0  0  0  0
   20.8869    0.9088   -8.5973 C   0  0  0  0  0  0  0  0  0  0  0  0
   22.2986   -0.5256   -5.0724 C   0  0  0  0  0  0  0  0  0  0  0  0
   21.6277   -0.1163   -3.9754 C   0  0  0  0  0  0  0  0  0  0  0  0
   20.5817    0.7909   -4.0855 C   0  0  0  0  0  0  0  0  0  0  0  0
   20.2063    1.2818   -5.2262 O   0  0  0  0  0  0  0  0  0  0  0  0
   23.2124   -1.3473   -4.9982 O   0  0  0  0  0  0  0  0  0  0  0  0
   22.0877   -0.6099   -2.8422 O   0  0  0  0  0  0  0  0  0  0  0  0
   20.3804    1.4205   -9.7097 O   0  0  0  0  0  0  0  0  0  0  0  0
   23.3900   -1.3123   -7.2957 O   0  0  0  0  0  0  0  0  0  0  0  0
   22.7992   -1.2196   -2.8513 H   0  0  0  0  0  0  0  0  0  0  0  0
   20.7332    1.1737  -10.5419 H   0  0  0  0  0  0  0  0  0  0  0  0
   23.8182   -1.6340   -8.0646 H   0  0  0  0  0  0  0  0  0  0  0  0
   19.8130    1.3682   -3.1116 C   0  0  0  0  0  0  0  0  0  0  0  0
   18.4412    1.3468   -3.1956 C   0  0  0  0  0  0  0  0  0  0  0  0
   17.6968    1.8822   -2.2053 C   0  0  0  0  0  0  0  0  0  0  0  0
   18.3101    2.3721   -1.1054 C   0  0  0  0  0  0  0  0  0  0  0  0
   19.6534    2.3459   -0.9709 C   0  0  0  0  0  0  0  0  0  0  0  0
   20.4078    1.8365   -1.9698 C   0  0  0  0  0  0  0  0  0  0  0  0
   17.5809    2.8831   -0.1475 O   0  0  0  0  0  0  0  0  0  0  0  0
   16.6479    2.9062   -0.2305 H   0  0  0  0  0  0  0  0  0  0  0  0
  1  2  2  0  0  0
  1  6  1  0  0  0
  2  3  1  0  0  0
  2 14  1  0  0  0
  3  4  2  0  0  0
  3  7  1  0  0  0
  4  5  1  0  0  0
  4 10  1  0  0  0
  5  6  2  0  0  0
  6 13  1  0  0  0
  7  8  1  0  0  0
  7 11  2  0  0  0
  8  9  2  0  0  0
  8 12  1  0  0  0
  9 18  1  0  0  0
  9 10  1  0  0  0
 18 19  2  0  0  0
 18 23  1  0  0  0
 19 20  1  0  0  0
 20 21  2  0  0  0
 21 22  1  0  0  0
 21 24  1  0  0  0
 22 23  2  0  0  0
 24 25  1  0  0  0
 12 15  1  0  0  0
 13 16  1  0  0  0
 14 17  1  0  0  0
M  END
> <minimizedAffinity>
-7.43228

$$$$
4DET_KMP_A_201


 25 27  0  0  0  0  0  0  0  0999 V2000
   23.0992   -1.1969   -5.5732 C   0  0  0  0  0  0  0  0  0  0  0  0
   22.1047   -0.3783   -6.0234 C   0  0  0  0  0  0  0  0  0  0  0  0
   21.2949    0.2496   -5.1296 C   0  0  0  0  0  0  0  0  0  0  0  0
   21.4855    0.0698   -3.8049 C   0  0  0  0  0  0  0  0  0  0  0  0
   22.4477   -0.7482   -3.3227 C   0  0  0  0  0  0  0  0  0  0  0  0
   23.2528   -1.3818   -4.2065 C   0  0  0  0  0  0  0  0  0  0  0  0
   20.3232    1.0661   -5.5853 C   0  0  0  0  0  0  0  0  0  0  0  0
   19.6154    1.7084   -4.6326 C   0  0  0  0  0  0  0  0  0  0  0  0
   19.8568    1.4616   -3.2873 C   0  0  0  0  0  0  0  0  0  0  0  0
   20.7560    0.6163   -2.8874 O   0  0  0  0  0  0  0  0  0  0  0  0
   20.1409    1.2890   -6.7822 O   0  0  0  0  0  0  0  0  0  0  0  0
   18.6829    2.5152   -5.1006 O   0  0  0  0  0  0  0  0  0  0  0  0
   24.1840   -2.1692   -3.6882 O   0  0  0  0  0  0  0  0  0  0  0  0
   21.8692   -0.1511   -7.2829 O   0  0  0  0  0  0  0  0  0  0  0  0
   18.5827    2.6289   -6.0253 H   0  0  0  0  0  0  0  0  0  0  0  0
   24.7710   -2.6341   -4.2514 H   0  0  0  0  0  0  0  0  0  0  0  0
   22.3985   -0.5593   -7.9396 H   0  0  0  0  0  0  0  0  0  0  0  0
   19.2296    1.9574   -2.1766 C   0  0  0  0  0  0  0  0  0  0  0  0
   17.8670    1.8478   -2.0324 C   0  0  0  0  0  0  0  0  0  0  0  0
   17.2690    2.3029   -0.9114 C   0  0  0  0  0  0  0  0  0  0  0  0
   18.0281    2.7992    0.0903 C   0  0  0  0  0  0  0  0  0  0  0  0
   19.3740    2.8581   -0.0014 C   0  0  0  0  0  0  0  0  0  0  0  0
   19.9787    2.4297   -1.1314 C   0  0  0  0  0  0  0  0  0  0  0  0
   17.4410    3.2320    1.1759 O   0  0  0  0  0  0  0  0  0  0  0  0
   16.5077    3.1958    1.2500 H   0  0  0  0  0  0  0  0  0  0  0  0
  1  2  2  0  0  0
  1  6  1  0  0  0
  2  3  1  0  0  0
  2 14  1  0  0  0
  3  4  2  0  0  0
  3  7  1  0  0  0
  4  5  1  0  0  0
  4 10  1  0  0  0
  5  6  2  0  0  0
  6 13  1  0  0  0
  7  8  1  0  0  0
  7 11  2  0  0  0
  8  9  2  0  0  0
  8 12  1  0  0  0
  9 18  1  0  0  0
  9 10  1  0  0  0
 18 19  2  0  0  0
 18 23  1  0  0  0
 19 20  1  0  0  0
 20 21  2  0  0  0
 21 22  1  0  0  0
 21 24  1  0  0  0
 22 23  2  0  0  0
 24 25  1  0  0  0
 12 15  1  0  0  0
 13 16  1  0  0  0
 14 17  1  0  0  0
M  END
> <minimizedAffinity>
-6.35944

$$$$
4DET_KMP_A_201


 25 27  0  0  0  0  0  0  0  0999 V2000
   15.3850    1.1287    1.6951 C   0  0  0  0  0  0  0  0  0  0  0  0
   16.4741    1.9506    1.7004 C   0  0  0  0  0  0  0  0  0  0  0  0
   17.3453    1.9186    0.6569 C   0  0  0  0  0  0  0  0  0  0  0  0
   17.1229    1.0849   -0.3817 C   0  0  0  0  0  0  0  0  0  0  0  0
   16.0656    0.2430   -0.4127 C   0  0  0  0  0  0  0  0  0  0  0  0
   15.1984    0.2645    0.6256 C   0  0  0  0  0  0  0  0  0  0  0  0
   18.4117    2.7441    0.6668 C   0  0  0  0  0  0  0  0  0  0  0  0
   19.1828    2.7038   -0.4399 C   0  0  0  0  0  0  0  0  0  0  0  0
   18.9018    1.8081   -1.4635 C   0  0  0  0  0  0  0  0  0  0  0  0
   17.9045    0.9803   -1.4068 O   0  0  0  0  0  0  0  0  0  0  0  0
   18.6299    3.5473    1.5739 O   0  0  0  0  0  0  0  0  0  0  0  0
   20.2092    3.5317   -0.4167 O   0  0  0  0  0  0  0  0  0  0  0  0
   14.1752   -0.5740    0.5496 O   0  0  0  0  0  0  0  0  0  0  0  0
   16.7463    2.7851    2.6614 O   0  0  0  0  0  0  0  0  0  0  0  0
   20.3304    4.1073    0.3127 H   0  0  0  0  0  0  0  0  0  0  0  0
   13.5417   -0.6040    1.2393 H   0  0  0  0  0  0  0  0  0  0  0  0
   16.1778    2.8463    3.4037 H   0  0  0  0  0  0  0  0  0  0  0  0
   19.5740    1.5693   -2.6315 C   0  0  0  0  0  0  0  0  0  0  0  0
   20.6382    0.7000   -2.6635 C   0  0  0  0  0  0  0  0  0  0  0  0
   21.2629    0.4420   -3.8317 C   0  0  0  0  0  0  0  0  0  0  0  0
   20.7885    0.9895   -4.9724 C   0  0  0  0  0  0  0  0  0  0  0  0
   19.7053    1.7956   -4.9757 C   0  0  0  0  0  0  0  0  0  0  0  0
   19.0903    2.0808   -3.8066 C   0  0  0  0  0  0  0  0  0  0  0  0
   21.3958    0.7290   -6.1009 O   0  0  0  0  0  0  0  0  0  0  0  0
   22.1484    0.1709   -6.1101 H   0  0  0  0  0  0  0  0  0  0  0  0
  1  2  2  0  0  0
  1  6  1  0  0  0
  2  3  1  0  0  0
  2 14  1  0  0  0
  3  4  2  0  0  0
  3  7  1  0  0  0
  4  5  1  0  0  0
  4 10  1  0  0  0
  5  6  2  0  0  0
  6 13  1  0  0  0
  7  8  1  0  0  0
  7 11  2  0  0  0
  8  9  2  0  0  0
  8 12  1  0  0  0
  9 18  1  0  0  0
  9 10  1  0  0  0
 18 19  2  0  0  0
 18 23  1  0  0  0
 19 20  1  0  0  0
 20 21  2  0  0  0
 21 22  1  0  0  0
 21 24  1  0  0  0
 22 23  2  0  0  0
 24 25  1  0  0  0
 12 15  1  0  0  0
 13 16  1  0  0  0
 14 17  1  0  0  0
M  END
> <minimizedAffinity>
-6.26030

$$$$
4DET_KMP_A_201


 25 27  0  0  0  0  0  0  0  0999 V2000
   23.7394   -1.4692    1.4080 C   0  0  0  0  0  0  0  0  0  0  0  0
   24.4647   -1.8881    0.3308 C   0  0  0  0  0  0  0  0  0  0  0  0
   24.0105   -1.6333   -0.9253 C   0  0  0  0  0  0  0  0  0  0  0  0
   22.8537   -0.9590   -1.1001 C   0  0  0  0  0  0  0  0  0  0  0  0
   22.0992   -0.5456   -0.0574 C   0  0  0  0  0  0  0  0  0  0  0  0
   22.5415   -0.8019    1.1954 C   0  0  0  0  0  0  0  0  0  0  0  0
   24.7416   -2.0409   -1.9827 C   0  0  0  0  0  0  0  0  0  0  0  0
   24.2592   -1.6815   -3.1906 C   0  0  0  0  0  0  0  0  0  0  0  0
   23.0528   -1.0012   -3.2948 C   0  0  0  0  0  0  0  0  0  0  0  0
   22.3425   -0.6853   -2.2561 O   0  0  0  0  0  0  0  0  0  0  0  0
   25.8204   -2.6228   -1.8680 O   0  0  0  0  0  0  0  0  0  0  0  0
   24.9990   -2.0746   -4.2093 O   0  0  0  0  0  0  0  0  0  0  0  0
   21.7719   -0.3740    2.1856 O   0  0  0  0  0  0  0  0  0  0  0  0
   25.5910   -2.5335    0.4235 O   0  0  0  0  0  0  0  0  0  0  0  0
   25.8033   -2.5300   -4.0560 H   0  0  0  0  0  0  0  0  0  0  0  0
   22.0268   -0.5226    3.0749 H   0  0  0  0  0  0  0  0  0  0  0  0
   25.9479   -2.7343    1.2662 H   0  0  0  0  0  0  0  0  0  0  0  0
   22.3671   -0.5934   -4.4067 C   0  0  0  0  0  0  0  0  0  0  0  0
   22.4270    0.7136   -4.8280 C   0  0  0  0  0  0  0  0  0  0  0  0
   21.7802    1.0901   -5.9511 C   0  0  0  0  0  0  0  0  0  0  0  0
   21.1366    0.1592   -6.6894 C   0  0  0  0  0  0  0  0  0  0  0  0
   21.1177   -1.1424   -6.3306 C   0  0  0  0  0  0  0  0  0  0  0  0
   21.7397   -1.5234   -5.1930 C   0  0  0  0  0  0  0  0  0  0  0  0
   20.5180    0.5315   -7.7798 O   0  0  0  0  0  0  0  0  0  0  0  0
   20.5248    1.4322   -8.0381 H   0  0  0  0  0  0  0  0  0  0  0  0
  1  2  2  0  0  0
  1  6  1  0  0  0
  2  3  1  0  0  0
  2 14  1  0  0  0
  3  4  2  0  0  0
  3  7  1  0  0  0
  4  5  1  0  0  0
  4 10  1  0  0  0
  5  6  2  0  0  0
  6 13  1  0  0  0
  7  8  1  0  0  0
  7 11  2  0  0  0
  8  9  2  0  0  0
  8 12  1  0  0  0
  9 18  1  0  0  0
  9 10  1  0  0  0
 18 19  2  0  0  0
 18 23  1  0  0  0
 19 20  1  0  0  0
 20 21  2  0  0  0
 21 22  1  0  0  0
 21 24  1  0  0  0
 22 23  2  0  0  0
 24 25  1  0  0  0
 12 15  1  0  0  0
 13 16  1  0  0  0
 14 17  1  0  0  0
M  END
> <minimizedAffinity>
-6.11233

$$$$
4DET_KMP_A_201


 25 27  0  0  0  0  0  0  0  0999 V2000
   19.6443    1.4130    1.4010 C   0  0  0  0  0  0  0  0  0  0  0  0
   18.8944    1.8646    0.3543 C   0  0  0  0  0  0  0  0  0  0  0  0
   19.3079    1.6295   -0.9195 C   0  0  0  0  0  0  0  0  0  0  0  0
   20.4488    0.9424   -1.1420 C   0  0  0  0  0  0  0  0  0  0  0  0
   21.2271    0.4965   -0.1305 C   0  0  0  0  0  0  0  0  0  0  0  0
   20.8253    0.7329    1.1397 C   0  0  0  0  0  0  0  0  0  0  0  0
   18.5526    2.0696   -1.9464 C   0  0  0  0  0  0  0  0  0  0  0  0
   18.9941    1.7284   -3.1751 C   0  0  0  0  0  0  0  0  0  0  0  0
   20.1866    1.0331   -3.3285 C   0  0  0  0  0  0  0  0  0  0  0  0
   20.9220    0.6854   -2.3179 O   0  0  0  0  0  0  0  0  0  0  0  0
   17.4864    2.6644   -1.7882 O   0  0  0  0  0  0  0  0  0  0  0  0
   18.2310    2.1533   -4.1633 O   0  0  0  0  0  0  0  0  0  0  0  0
   21.6169    0.2735    2.0978 O   0  0  0  0  0  0  0  0  0  0  0  0
   17.7811    2.5241    0.4933 O   0  0  0  0  0  0  0  0  0  0  0  0
   17.4384    2.6170   -3.9772 H   0  0  0  0  0  0  0  0  0  0  0  0
   21.3903    0.4072    2.9971 H   0  0  0  0  0  0  0  0  0  0  0  0
   17.4520    2.7125    1.3501 H   0  0  0  0  0  0  0  0  0  0  0  0
   20.8335    0.6386   -4.4682 C   0  0  0  0  0  0  0  0  0  0  0  0
   21.5469    1.5426   -5.2188 C   0  0  0  0  0  0  0  0  0  0  0  0
   22.2151    1.1291   -6.3160 C   0  0  0  0  0  0  0  0  0  0  0  0
   22.2326   -0.1862   -6.6253 C   0  0  0  0  0  0  0  0  0  0  0  0
   21.5928   -1.1021   -5.8671 C   0  0  0  0  0  0  0  0  0  0  0  0
   20.8986   -0.6932   -4.7821 C   0  0  0  0  0  0  0  0  0  0  0  0
   22.8881   -0.5792   -7.6866 O   0  0  0  0  0  0  0  0  0  0  0  0
   23.3356    0.0481   -8.2198 H   0  0  0  0  0  0  0  0  0  0  0  0
  1  2  2  0  0  0
  1  6  1  0  0  0
  2  3  1  0  0  0
  2 14  1  0  0  0
  3  4  2  0  0  0
  3  7  1  0  0  0
  4  5  1  0  0  0
  4 10  1  0  0  0
  5  6  2  0  0  0
  6 13  1  0  0  0
  7  8  1  0  0  0
  7 11  2  0  0  0
  8  9  2  0  0  0
  8 12  1  0  0  0
  9 18  1  0  0  0
  9 10  1  0  0  0
 18 19  2  0  0  0
 18 23  1  0  0  0
 19 20  1  0  0  0
 20 21  2  0  0  0
 21 22  1  0  0  0
 21 24  1  0  0  0
 22 23  2  0  0  0
 24 25  1  0  0  0
 12 15  1  0  0  0
 13 16  1  0  0  0
 14 17  1  0  0  0
M  END
> <minimizedAffinity>
-6.03684

$$$$
4DET_KMP_A_201


 25 27  0  0  0  0  0  0  0  0999 V2000
   14.8836    1.6469    0.8440 C   0  0  0  0  0  0  0  0  0  0  0  0
   15.9306    2.5113    0.9792 C   0  0  0  0  0  0  0  0  0  0  0  0
   17.1979    2.0249    1.0577 C   0  0  0  0  0  0  0  0  0  0  0  0
   17.4145    0.6938    0.9898 C   0  0  0  0  0  0  0  0  0  0  0  0
   16.4010   -0.1935    0.8752 C   0  0  0  0  0  0  0  0  0  0  0  0
   15.1367    0.2832    0.8037 C   0  0  0  0  0  0  0  0  0  0  0  0
   18.2261    2.8890    1.1787 C   0  0  0  0  0  0  0  0  0  0  0  0
   19.4540    2.3291    1.1728 C   0  0  0  0  0  0  0  0  0  0  0  0
   19.6001    0.9491    1.1160 C   0  0  0  0  0  0  0  0  0  0  0  0
   18.5830    0.1451    1.0688 O   0  0  0  0  0  0  0  0  0  0  0  0
   18.0763    4.1106    1.2042 O   0  0  0  0  0  0  0  0  0  0  0  0
   20.4451    3.1935    1.2739 O   0  0  0  0  0  0  0  0  0  0  0  0
   14.1766   -0.6227    0.6873 O   0  0  0  0  0  0  0  0  0  0  0  0
   15.7978    3.8045    1.0417 O   0  0  0  0  0  0  0  0  0  0  0  0
   20.2639    4.1122    1.3066 H   0  0  0  0  0  0  0  0  0  0  0  0
   13.2812   -0.3520    0.6333 H   0  0  0  0  0  0  0  0  0  0  0  0
   14.9457    4.1909    0.9923 H   0  0  0  0  0  0  0  0  0  0  0  0
   20.7338    0.1833    1.1503 C   0  0  0  0  0  0  0  0  0  0  0  0
   21.0696   -0.5230    2.2807 C   0  0  0  0  0  0  0  0  0  0  0  0
   22.1675   -1.3079    2.2837 C   0  0  0  0  0  0  0  0  0  0  0  0
   22.8874   -1.4456    1.1485 C   0  0  0  0  0  0  0  0  0  0  0  0
   22.5408   -0.8126    0.0072 C   0  0  0  0  0  0  0  0  0  0  0  0
   21.4585   -0.0033    0.0029 C   0  0  0  0  0  0  0  0  0  0  0  0
   23.9460   -2.2133    1.1584 O   0  0  0  0  0  0  0  0  0  0  0  0
   24.1956   -2.6572    1.9449 H   0  0  0  0  0  0  0  0  0  0  0  0
  1  2  2  0  0  0
  1  6  1  0  0  0
  2  3  1  0  0  0
  2 14  1  0  0  0
  3  4  2  0  0  0
  3  7  1  0  0  0
  4  5  1  0  0  0
  4 10  1  0  0  0
  5  6  2  0  0  0
  6 13  1  0  0  0
  7  8  1  0  0  0
  7 11  2  0  0  0
  8  9  2  0  0  0
  8 12  1  0  0  0
  9 18  1  0  0  0
  9 10  1  0  0  0
 18 19  2  0  0  0
 18 23  1  0  0  0
 19 20  1  0  0  0
 20 21  2  0  0  0
 21 22  1  0  0  0
 21 24  1  0  0  0
 22 23  2  0  0  0
 24 25  1  0  0  0
 12 15  1  0  0  0
 13 16  1  0  0  0
 14 17  1  0  0  0
M  END
> <minimizedAffinity>
-5.97307

$$$$
