2BZ6_346_H_1258


 35 37  0  0  0  0  0  0  0  0999 V2000
   10.2866   40.2448   32.5156 C   0  0  0  0  0  0  0  0  0  0  0  0
    9.9838   42.0601   30.3381 F   0  0  0  0  0  0  0  0  0  0  0  0
   10.4965   42.5409   31.4900 C   0  0  0  0  0  0  0  0  0  0  0  0
   10.8376   43.8660   31.5200 C   0  0  0  0  0  0  0  0  0  0  0  0
   11.3765   44.4216   32.6808 C   0  0  0  0  0  0  0  0  0  0  0  0
   11.5468   43.6004   33.8039 C   0  0  0  0  0  0  0  0  0  0  0  0
   11.2071   42.2411   33.7509 C   0  0  0  0  0  0  0  0  0  0  0  0
   10.6714   41.6930   32.5891 C   0  0  0  0  0  0  0  0  0  0  0  0
   10.6096   44.5695   30.3506 O   0  0  0  0  0  0  0  0  0  0  0  0
   11.7166   45.2994   29.8340 C   0  0  0  0  0  0  0  0  0  0  0  0
   11.5052   46.7659   30.1853 C   0  0  0  0  0  0  0  0  0  0  0  0
   10.7314   47.2652   28.9788 C   0  0  0  0  0  0  0  0  0  0  0  0
   11.1516   46.4826   27.8531 O   0  0  0  0  0  0  0  0  0  0  0  0
   11.7325   45.2476   28.3028 C   0  0  0  0  0  0  0  0  0  0  0  0
   12.1114   44.2619   34.8922 O   0  0  0  0  0  0  0  0  0  0  0  0
   13.2656   45.0460   34.5674 C   0  0  0  0  0  0  0  0  0  0  0  0
   14.5217   44.1941   34.5654 C   0  0  0  0  0  0  0  0  0  0  0  0
    9.3238   39.8984   33.6108 C   0  0  0  0  0  0  0  0  0  0  0  0
    8.1730   40.4299   33.5238 O   0  0  0  0  0  0  0  0  0  0  0  0
    9.6493   39.0956   34.5553 O   0  0  0  0  0  0  0  0  0  0  0  0
   10.5101   38.7263   34.5805 H   0  0  0  0  0  0  0  0  0  0  0  0
   11.5037   39.4243   32.6367 N   0  0  0  0  0  0  0  0  0  0  0  0
   11.8623   39.2538   33.5375 H   0  0  0  0  0  0  0  0  0  0  0  0
   12.1726   38.8784   31.5503 C   0  0  0  0  0  0  0  0  0  0  0  0
   13.2971   38.0659   31.6811 C   0  0  0  0  0  0  0  0  0  0  0  0
   13.8887   37.5830   30.5483 C   0  0  0  0  0  0  0  0  0  0  0  0
   13.4155   37.8606   29.2622 C   0  0  0  0  0  0  0  0  0  0  0  0
   12.2888   38.6807   29.1310 C   0  0  0  0  0  0  0  0  0  0  0  0
   11.6894   39.1590   30.2629 C   0  0  0  0  0  0  0  0  0  0  0  0
   14.0723   37.3190   28.0997 C   0  0  0  0  0  0  0  0  0  0  0  0
   15.3763   36.9293   28.1172 N   0  0  0  0  0  0  0  0  0  0  0  0
   13.4573   37.2232   26.9165 N   0  0  0  0  0  0  0  0  0  0  0  0
   15.8919   36.9729   28.9547 H   0  0  0  0  0  0  0  0  0  0  0  0
   15.8038   36.6038   27.2923 H   0  0  0  0  0  0  0  0  0  0  0  0
   12.5130   37.4878   26.8297 H   0  0  0  0  0  0  0  0  0  0  0  0
  2  3  1  0  0  0
  3  4  2  0  0  0
  3  8  1  0  0  0
  4  9  1  0  0  0
  4  5  1  0  0  0
  9 10  1  0  0  0
 10 11  1  0  0  0
 10 14  1  0  0  0
 11 12  1  0  0  0
 12 13  1  0  0  0
 13 14  1  0  0  0
  5  6  2  0  0  0
  6 15  1  0  0  0
  6  7  1  0  0  0
 15 16  1  0  0  0
 16 17  1  0  0  0
  7  8  2  0  0  0
  8  1  1  0  0  0
  1 18  1  0  0  0
  1 22  1  0  0  0
 18 19  2  0  0  0
 18 20  1  0  0  0
 22 24  1  0  0  0
 24 25  2  0  0  0
 24 29  1  0  0  0
 25 26  1  0  0  0
 26 27  2  0  0  0
 27 30  1  0  0  0
 27 28  1  0  0  0
 30 31  1  0  0  0
 30 32  2  0  0  0
 28 29  2  0  0  0
 20 21  1  0  0  0
 22 23  1  0  0  0
 31 33  1  0  0  0
 31 34  1  0  0  0
 32 35  1  0  0  0
M  END
> <minimizedAffinity>
-9.27063

$$$$
2BZ6_346_H_1258


 35 37  0  0  0  0  0  0  0  0999 V2000
   10.0912   40.3039   32.7630 C   0  0  0  0  0  0  0  0  0  0  0  0
   11.1775   42.1213   30.8537 F   0  0  0  0  0  0  0  0  0  0  0  0
   10.8723   42.6032   32.0767 C   0  0  0  0  0  0  0  0  0  0  0  0
   11.1152   43.9303   32.3067 C   0  0  0  0  0  0  0  0  0  0  0  0
   10.8249   44.4871   33.5526 C   0  0  0  0  0  0  0  0  0  0  0  0
   10.2751   43.6648   34.5458 C   0  0  0  0  0  0  0  0  0  0  0  0
   10.0477   42.3035   34.2985 C   0  0  0  0  0  0  0  0  0  0  0  0
   10.3411   41.7543   33.0538 C   0  0  0  0  0  0  0  0  0  0  0  0
   11.6486   44.6346   31.2419 O   0  0  0  0  0  0  0  0  0  0  0  0
   10.7875   44.8270   30.1253 C   0  0  0  0  0  0  0  0  0  0  0  0
   11.5739   45.5823   29.0624 C   0  0  0  0  0  0  0  0  0  0  0  0
   11.2758   47.0260   29.4236 C   0  0  0  0  0  0  0  0  0  0  0  0
    9.9680   47.0538   30.0110 O   0  0  0  0  0  0  0  0  0  0  0  0
    9.6188   45.7465   30.4946 C   0  0  0  0  0  0  0  0  0  0  0  0
   10.0489   44.3277   35.7500 O   0  0  0  0  0  0  0  0  0  0  0  0
    9.0993   43.6813   36.6059 C   0  0  0  0  0  0  0  0  0  0  0  0
    7.7846   44.4391   36.6338 C   0  0  0  0  0  0  0  0  0  0  0  0
    9.1571   39.7157   33.7767 C   0  0  0  0  0  0  0  0  0  0  0  0
    7.9240   39.9702   33.6056 O   0  0  0  0  0  0  0  0  0  0  0  0
    9.5893   38.9842   34.7362 O   0  0  0  0  0  0  0  0  0  0  0  0
   10.5080   38.8224   34.8248 H   0  0  0  0  0  0  0  0  0  0  0  0
   11.3776   39.5871   32.7878 N   0  0  0  0  0  0  0  0  0  0  0  0
   11.8338   39.4795   33.6535 H   0  0  0  0  0  0  0  0  0  0  0  0
   11.9817   39.0551   31.6574 C   0  0  0  0  0  0  0  0  0  0  0  0
   11.4980   39.2660   30.3677 C   0  0  0  0  0  0  0  0  0  0  0  0
   12.1609   38.6920   29.3200 C   0  0  0  0  0  0  0  0  0  0  0  0
   13.3069   37.9068   29.4799 C   0  0  0  0  0  0  0  0  0  0  0  0
   13.7896   37.6912   30.7759 C   0  0  0  0  0  0  0  0  0  0  0  0
   13.1332   38.2710   31.8259 C   0  0  0  0  0  0  0  0  0  0  0  0
   13.9734   37.3307   28.3398 C   0  0  0  0  0  0  0  0  0  0  0  0
   13.3437   37.1433   27.1478 N   0  0  0  0  0  0  0  0  0  0  0  0
   15.2338   36.8891   28.4022 N   0  0  0  0  0  0  0  0  0  0  0  0
   12.4136   37.4438   27.0298 H   0  0  0  0  0  0  0  0  0  0  0  0
   13.8183   36.7072   26.4036 H   0  0  0  0  0  0  0  0  0  0  0  0
   15.7506   36.9914   29.2338 H   0  0  0  0  0  0  0  0  0  0  0  0
  2  3  1  0  0  0
  3  4  2  0  0  0
  3  8  1  0  0  0
  4  9  1  0  0  0
  4  5  1  0  0  0
  9 10  1  0  0  0
 10 11  1  0  0  0
 10 14  1  0  0  0
 11 12  1  0  0  0
 12 13  1  0  0  0
 13 14  1  0  0  0
  5  6  2  0  0  0
  6 15  1  0  0  0
  6  7  1  0  0  0
 15 16  1  0  0  0
 16 17  1  0  0  0
  7  8  2  0  0  0
  8  1  1  0  0  0
  1 18  1  0  0  0
  1 22  1  0  0  0
 18 19  2  0  0  0
 18 20  1  0  0  0
 22 24  1  0  0  0
 24 25  2  0  0  0
 24 29  1  0  0  0
 25 26  1  0  0  0
 26 27  2  0  0  0
 27 30  1  0  0  0
 27 28  1  0  0  0
 30 31  1  0  0  0
 30 32  2  0  0  0
 28 29  2  0  0  0
 20 21  1  0  0  0
 22 23  1  0  0  0
 31 33  1  0  0  0
 31 34  1  0  0  0
 32 35  1  0  0  0
M  END
> <minimizedAffinity>
-7.97587

$$$$
2BZ6_346_H_1258


 35 37  0  0  0  0  0  0  0  0999 V2000
   10.1469   40.0145   32.6286 C   0  0  0  0  0  0  0  0  0  0  0  0
    8.7625   41.4370   30.5821 F   0  0  0  0  0  0  0  0  0  0  0  0
    9.6347   42.1268   31.3466 C   0  0  0  0  0  0  0  0  0  0  0  0
    9.7910   43.4589   31.0738 C   0  0  0  0  0  0  0  0  0  0  0  0
   10.6813   44.2254   31.8264 C   0  0  0  0  0  0  0  0  0  0  0  0
   11.3938   43.6059   32.8624 C   0  0  0  0  0  0  0  0  0  0  0  0
   11.2337   42.2365   33.1178 C   0  0  0  0  0  0  0  0  0  0  0  0
   10.3451   41.4775   32.3622 C   0  0  0  0  0  0  0  0  0  0  0  0
    9.0220   43.9513   30.0343 O   0  0  0  0  0  0  0  0  0  0  0  0
    7.8762   44.7079   30.4081 C   0  0  0  0  0  0  0  0  0  0  0  0
    6.6704   44.0915   29.7117 C   0  0  0  0  0  0  0  0  0  0  0  0
    6.6392   44.8630   28.4050 C   0  0  0  0  0  0  0  0  0  0  0  0
    7.1722   46.1673   28.6710 O   0  0  0  0  0  0  0  0  0  0  0  0
    7.9705   46.1377   29.8654 C   0  0  0  0  0  0  0  0  0  0  0  0
   12.2648   44.4668   33.5264 O   0  0  0  0  0  0  0  0  0  0  0  0
   11.7206   45.7665   33.7855 C   0  0  0  0  0  0  0  0  0  0  0  0
   11.1302   45.8429   35.1816 C   0  0  0  0  0  0  0  0  0  0  0  0
    9.4542   39.8062   33.9413 C   0  0  0  0  0  0  0  0  0  0  0  0
    9.6216   38.6679   34.4803 O   0  0  0  0  0  0  0  0  0  0  0  0
    8.7599   40.7370   34.4837 O   0  0  0  0  0  0  0  0  0  0  0  0
    8.6626   41.5621   34.0504 H   0  0  0  0  0  0  0  0  0  0  0  0
   11.4627   39.3529   32.6429 N   0  0  0  0  0  0  0  0  0  0  0  0
   11.9174   39.2400   33.5088 H   0  0  0  0  0  0  0  0  0  0  0  0
   12.0965   38.8800   31.5026 C   0  0  0  0  0  0  0  0  0  0  0  0
   11.6522   39.1662   30.2132 C   0  0  0  0  0  0  0  0  0  0  0  0
   12.3421   38.6463   29.1547 C   0  0  0  0  0  0  0  0  0  0  0  0
   13.4780   37.8446   29.3036 C   0  0  0  0  0  0  0  0  0  0  0  0
   13.9211   37.5535   30.5990 C   0  0  0  0  0  0  0  0  0  0  0  0
   13.2378   38.0789   31.6603 C   0  0  0  0  0  0  0  0  0  0  0  0
   14.1742   37.3278   28.1529 C   0  0  0  0  0  0  0  0  0  0  0  0
   13.5973   37.2655   26.9217 N   0  0  0  0  0  0  0  0  0  0  0  0
   15.4087   36.8216   28.2378 N   0  0  0  0  0  0  0  0  0  0  0  0
   12.6888   37.6194   26.7854 H   0  0  0  0  0  0  0  0  0  0  0  0
   14.0885   36.8664   26.1676 H   0  0  0  0  0  0  0  0  0  0  0  0
   15.8873   36.8329   29.0981 H   0  0  0  0  0  0  0  0  0  0  0  0
  2  3  1  0  0  0
  3  4  2  0  0  0
  3  8  1  0  0  0
  4  9  1  0  0  0
  4  5  1  0  0  0
  9 10  1  0  0  0
 10 11  1  0  0  0
 10 14  1  0  0  0
 11 12  1  0  0  0
 12 13  1  0  0  0
 13 14  1  0  0  0
  5  6  2  0  0  0
  6 15  1  0  0  0
  6  7  1  0  0  0
 15 16  1  0  0  0
 16 17  1  0  0  0
  7  8  2  0  0  0
  8  1  1  0  0  0
  1 18  1  0  0  0
  1 22  1  0  0  0
 18 19  2  0  0  0
 18 20  1  0  0  0
 22 24  1  0  0  0
 24 25  2  0  0  0
 24 29  1  0  0  0
 25 26  1  0  0  0
 26 27  2  0  0  0
 27 30  1  0  0  0
 27 28  1  0  0  0
 30 31  1  0  0  0
 30 32  2  0  0  0
 28 29  2  0  0  0
 20 21  1  0  0  0
 22 23  1  0  0  0
 31 33  1  0  0  0
 31 34  1  0  0  0
 32 35  1  0  0  0
M  END
> <minimizedAffinity>
-7.68353

$$$$
2BZ6_346_H_1258


 35 37  0  0  0  0  0  0  0  0999 V2000
    9.9449   39.8747   32.6002 C   0  0  0  0  0  0  0  0  0  0  0  0
   11.4937   42.1044   33.4711 F   0  0  0  0  0  0  0  0  0  0  0  0
   10.6072   42.3065   32.4739 C   0  0  0  0  0  0  0  0  0  0  0  0
   10.5169   43.5725   31.9617 C   0  0  0  0  0  0  0  0  0  0  0  0
    9.6160   43.8459   30.9321 C   0  0  0  0  0  0  0  0  0  0  0  0
    8.8241   42.8014   30.4354 C   0  0  0  0  0  0  0  0  0  0  0  0
    8.9178   41.5139   30.9827 C   0  0  0  0  0  0  0  0  0  0  0  0
    9.8175   41.2484   32.0108 C   0  0  0  0  0  0  0  0  0  0  0  0
   11.3604   44.5100   32.5307 O   0  0  0  0  0  0  0  0  0  0  0  0
   10.7365   45.5111   33.3267 C   0  0  0  0  0  0  0  0  0  0  0  0
   11.8140   46.1463   34.1952 C   0  0  0  0  0  0  0  0  0  0  0  0
   11.7729   45.2679   35.4322 C   0  0  0  0  0  0  0  0  0  0  0  0
   10.4266   44.7941   35.5701 O   0  0  0  0  0  0  0  0  0  0  0  0
    9.7435   44.8811   34.3089 C   0  0  0  0  0  0  0  0  0  0  0  0
    7.9510   43.2011   29.4261 O   0  0  0  0  0  0  0  0  0  0  0  0
    8.1185   42.4937   28.1916 C   0  0  0  0  0  0  0  0  0  0  0  0
    6.8540   41.7427   27.8166 C   0  0  0  0  0  0  0  0  0  0  0  0
    9.3530   39.8341   33.9765 C   0  0  0  0  0  0  0  0  0  0  0  0
    9.5084   38.7455   34.6132 O   0  0  0  0  0  0  0  0  0  0  0  0
    8.7519   40.8508   34.4740 O   0  0  0  0  0  0  0  0  0  0  0  0
    8.6598   41.6343   33.9684 H   0  0  0  0  0  0  0  0  0  0  0  0
   11.3716   39.5128   32.6545 N   0  0  0  0  0  0  0  0  0  0  0  0
   11.8636   39.6840   33.4899 H   0  0  0  0  0  0  0  0  0  0  0  0
   12.0600   38.9437   31.5925 C   0  0  0  0  0  0  0  0  0  0  0  0
   13.1693   38.1175   31.7624 C   0  0  0  0  0  0  0  0  0  0  0  0
   13.7827   37.6118   30.6513 C   0  0  0  0  0  0  0  0  0  0  0  0
   13.3462   37.8792   29.3500 C   0  0  0  0  0  0  0  0  0  0  0  0
   12.2349   38.7130   29.1797 C   0  0  0  0  0  0  0  0  0  0  0  0
   11.6138   39.2141   30.2898 C   0  0  0  0  0  0  0  0  0  0  0  0
   14.0246   37.3136   28.2117 C   0  0  0  0  0  0  0  0  0  0  0  0
   15.3192   36.8974   28.2700 N   0  0  0  0  0  0  0  0  0  0  0  0
   13.4418   37.2194   27.0121 N   0  0  0  0  0  0  0  0  0  0  0  0
   15.8115   36.9382   29.1216 H   0  0  0  0  0  0  0  0  0  0  0  0
   15.7633   36.5557   27.4606 H   0  0  0  0  0  0  0  0  0  0  0  0
   12.5061   37.5024   26.8959 H   0  0  0  0  0  0  0  0  0  0  0  0
  2  3  1  0  0  0
  3  4  2  0  0  0
  3  8  1  0  0  0
  4  9  1  0  0  0
  4  5  1  0  0  0
  9 10  1  0  0  0
 10 11  1  0  0  0
 10 14  1  0  0  0
 11 12  1  0  0  0
 12 13  1  0  0  0
 13 14  1  0  0  0
  5  6  2  0  0  0
  6 15  1  0  0  0
  6  7  1  0  0  0
 15 16  1  0  0  0
 16 17  1  0  0  0
  7  8  2  0  0  0
  8  1  1  0  0  0
  1 18  1  0  0  0
  1 22  1  0  0  0
 18 19  2  0  0  0
 18 20  1  0  0  0
 22 24  1  0  0  0
 24 25  2  0  0  0
 24 29  1  0  0  0
 25 26  1  0  0  0
 26 27  2  0  0  0
 27 30  1  0  0  0
 27 28  1  0  0  0
 30 31  1  0  0  0
 30 32  2  0  0  0
 28 29  2  0  0  0
 20 21  1  0  0  0
 22 23  1  0  0  0
 31 33  1  0  0  0
 31 34  1  0  0  0
 32 35  1  0  0  0
M  END
> <minimizedAffinity>
-7.47437

$$$$
2BZ6_346_H_1258


 35 37  0  0  0  0  0  0  0  0999 V2000
    9.7888   39.8384   32.4989 C   0  0  0  0  0  0  0  0  0  0  0  0
    7.9965   40.2570   30.3215 F   0  0  0  0  0  0  0  0  0  0  0  0
    8.7213   41.3116   30.7501 C   0  0  0  0  0  0  0  0  0  0  0  0
    8.5424   42.5020   30.0990 C   0  0  0  0  0  0  0  0  0  0  0  0
    9.2658   43.6281   30.4926 C   0  0  0  0  0  0  0  0  0  0  0  0
   10.1607   43.5123   31.5653 C   0  0  0  0  0  0  0  0  0  0  0  0
   10.3437   42.2812   32.2109 C   0  0  0  0  0  0  0  0  0  0  0  0
    9.6199   41.1614   31.8120 C   0  0  0  0  0  0  0  0  0  0  0  0
    7.6227   42.4867   29.0654 O   0  0  0  0  0  0  0  0  0  0  0  0
    8.1166   42.0778   27.7949 C   0  0  0  0  0  0  0  0  0  0  0  0
    8.3079   43.3305   26.9506 C   0  0  0  0  0  0  0  0  0  0  0  0
    6.9533   43.4613   26.2786 C   0  0  0  0  0  0  0  0  0  0  0  0
    6.4269   42.1362   26.1262 O   0  0  0  0  0  0  0  0  0  0  0  0
    7.0699   41.2429   27.0500 C   0  0  0  0  0  0  0  0  0  0  0  0
   10.8382   44.6957   31.8506 O   0  0  0  0  0  0  0  0  0  0  0  0
   10.8189   45.6538   30.7856 C   0  0  0  0  0  0  0  0  0  0  0  0
   12.1454   45.6778   30.0486 C   0  0  0  0  0  0  0  0  0  0  0  0
    9.2683   39.9025   33.9029 C   0  0  0  0  0  0  0  0  0  0  0  0
    8.3782   40.7821   34.1229 O   0  0  0  0  0  0  0  0  0  0  0  0
    9.6883   39.0970   34.8070 O   0  0  0  0  0  0  0  0  0  0  0  0
   10.3468   38.4632   34.6006 H   0  0  0  0  0  0  0  0  0  0  0  0
   11.2193   39.4880   32.5074 N   0  0  0  0  0  0  0  0  0  0  0  0
   11.7254   39.6184   33.3418 H   0  0  0  0  0  0  0  0  0  0  0  0
   11.8927   38.9842   31.4037 C   0  0  0  0  0  0  0  0  0  0  0  0
   11.4825   39.2173   30.0925 C   0  0  0  0  0  0  0  0  0  0  0  0
   12.2103   38.6703   29.0739 C   0  0  0  0  0  0  0  0  0  0  0  0
   13.3524   37.8915   29.2843 C   0  0  0  0  0  0  0  0  0  0  0  0
   13.7614   37.6537   30.6016 C   0  0  0  0  0  0  0  0  0  0  0  0
   13.0400   38.2064   31.6231 C   0  0  0  0  0  0  0  0  0  0  0  0
   14.0892   37.3443   28.1736 C   0  0  0  0  0  0  0  0  0  0  0  0
   15.3780   36.9233   28.2931 N   0  0  0  0  0  0  0  0  0  0  0  0
   13.5708   37.2733   26.9433 N   0  0  0  0  0  0  0  0  0  0  0  0
   15.8244   36.9474   29.1703 H   0  0  0  0  0  0  0  0  0  0  0  0
   15.8639   36.5947   27.5024 H   0  0  0  0  0  0  0  0  0  0  0  0
   12.6431   37.5612   26.7826 H   0  0  0  0  0  0  0  0  0  0  0  0
  2  3  1  0  0  0
  3  4  2  0  0  0
  3  8  1  0  0  0
  4  9  1  0  0  0
  4  5  1  0  0  0
  9 10  1  0  0  0
 10 11  1  0  0  0
 10 14  1  0  0  0
 11 12  1  0  0  0
 12 13  1  0  0  0
 13 14  1  0  0  0
  5  6  2  0  0  0
  6 15  1  0  0  0
  6  7  1  0  0  0
 15 16  1  0  0  0
 16 17  1  0  0  0
  7  8  2  0  0  0
  8  1  1  0  0  0
  1 18  1  0  0  0
  1 22  1  0  0  0
 18 19  2  0  0  0
 18 20  1  0  0  0
 22 24  1  0  0  0
 24 25  2  0  0  0
 24 29  1  0  0  0
 25 26  1  0  0  0
 26 27  2  0  0  0
 27 30  1  0  0  0
 27 28  1  0  0  0
 30 31  1  0  0  0
 30 32  2  0  0  0
 28 29  2  0  0  0
 20 21  1  0  0  0
 22 23  1  0  0  0
 31 33  1  0  0  0
 31 34  1  0  0  0
 32 35  1  0  0  0
M  END
> <minimizedAffinity>
-7.45384

$$$$
2BZ6_346_H_1258


 35 37  0  0  0  0  0  0  0  0999 V2000
    9.1758   41.3906   30.2591 C   0  0  0  0  0  0  0  0  0  0  0  0
    9.0926   43.6620   28.5380 F   0  0  0  0  0  0  0  0  0  0  0  0
    9.5649   43.8392   29.7896 C   0  0  0  0  0  0  0  0  0  0  0  0
    9.9741   45.0993   30.1332 C   0  0  0  0  0  0  0  0  0  0  0  0
   10.4760   45.3456   31.4114 C   0  0  0  0  0  0  0  0  0  0  0  0
   10.5392   44.2850   32.3258 C   0  0  0  0  0  0  0  0  0  0  0  0
   10.1309   42.9968   31.9521 C   0  0  0  0  0  0  0  0  0  0  0  0
    9.6326   42.7577   30.6747 C   0  0  0  0  0  0  0  0  0  0  0  0
    9.8498   46.0594   29.1447 O   0  0  0  0  0  0  0  0  0  0  0  0
   11.0599   46.6679   28.7082 C   0  0  0  0  0  0  0  0  0  0  0  0
   10.7195   48.0682   28.2161 C   0  0  0  0  0  0  0  0  0  0  0  0
   10.4244   47.8178   26.7485 C   0  0  0  0  0  0  0  0  0  0  0  0
   11.2296   46.7042   26.3391 O   0  0  0  0  0  0  0  0  0  0  0  0
   11.6248   45.9352   27.4869 C   0  0  0  0  0  0  0  0  0  0  0  0
   11.0765   44.6489   33.5585 O   0  0  0  0  0  0  0  0  0  0  0  0
   11.8005   43.6012   34.2148 C   0  0  0  0  0  0  0  0  0  0  0  0
   13.2811   43.9257   34.2915 C   0  0  0  0  0  0  0  0  0  0  0  0
    7.6847   41.2789   30.3606 C   0  0  0  0  0  0  0  0  0  0  0  0
    7.2294   40.9817   31.5090 O   0  0  0  0  0  0  0  0  0  0  0  0
    6.9294   41.4965   29.3482 O   0  0  0  0  0  0  0  0  0  0  0  0
    7.3082   41.7130   28.5190 H   0  0  0  0  0  0  0  0  0  0  0  0
    9.8163   40.3914   31.1313 N   0  0  0  0  0  0  0  0  0  0  0  0
    9.4553   40.2660   32.0386 H   0  0  0  0  0  0  0  0  0  0  0  0
   10.9008   39.6171   30.7440 C   0  0  0  0  0  0  0  0  0  0  0  0
   11.8742   39.1733   31.6370 C   0  0  0  0  0  0  0  0  0  0  0  0
   12.9079   38.4213   31.1549 C   0  0  0  0  0  0  0  0  0  0  0  0
   13.0328   38.0702   29.8072 C   0  0  0  0  0  0  0  0  0  0  0  0
   12.0574   38.5202   28.9098 C   0  0  0  0  0  0  0  0  0  0  0  0
   11.0172   39.2661   29.3903 C   0  0  0  0  0  0  0  0  0  0  0  0
   14.1392   37.2676   29.3516 C   0  0  0  0  0  0  0  0  0  0  0  0
   14.7775   37.5109   28.1743 N   0  0  0  0  0  0  0  0  0  0  0  0
   14.5669   36.1974   30.0293 N   0  0  0  0  0  0  0  0  0  0  0  0
   14.5148   38.2825   27.6223 H   0  0  0  0  0  0  0  0  0  0  0  0
   15.5019   36.9152   27.8748 H   0  0  0  0  0  0  0  0  0  0  0  0
   14.1507   35.9608   30.8896 H   0  0  0  0  0  0  0  0  0  0  0  0
  2  3  1  0  0  0
  3  4  2  0  0  0
  3  8  1  0  0  0
  4  9  1  0  0  0
  4  5  1  0  0  0
  9 10  1  0  0  0
 10 11  1  0  0  0
 10 14  1  0  0  0
 11 12  1  0  0  0
 12 13  1  0  0  0
 13 14  1  0  0  0
  5  6  2  0  0  0
  6 15  1  0  0  0
  6  7  1  0  0  0
 15 16  1  0  0  0
 16 17  1  0  0  0
  7  8  2  0  0  0
  8  1  1  0  0  0
  1 18  1  0  0  0
  1 22  1  0  0  0
 18 19  2  0  0  0
 18 20  1  0  0  0
 22 24  1  0  0  0
 24 25  2  0  0  0
 24 29  1  0  0  0
 25 26  1  0  0  0
 26 27  2  0  0  0
 27 30  1  0  0  0
 27 28  1  0  0  0
 30 31  1  0  0  0
 30 32  2  0  0  0
 28 29  2  0  0  0
 20 21  1  0  0  0
 22 23  1  0  0  0
 31 33  1  0  0  0
 31 34  1  0  0  0
 32 35  1  0  0  0
M  END
> <minimizedAffinity>
-7.23894

$$$$
2BZ6_346_H_1258


 35 37  0  0  0  0  0  0  0  0999 V2000
    9.7970   41.2441   32.6534 C   0  0  0  0  0  0  0  0  0  0  0  0
    7.4834   40.7334   31.0675 F   0  0  0  0  0  0  0  0  0  0  0  0
    8.6801   40.3529   30.5734 C   0  0  0  0  0  0  0  0  0  0  0  0
    8.6878   39.7438   29.3478 C   0  0  0  0  0  0  0  0  0  0  0  0
    9.8933   39.3235   28.7852 C   0  0  0  0  0  0  0  0  0  0  0  0
   11.0816   39.5484   29.4939 C   0  0  0  0  0  0  0  0  0  0  0  0
   11.0540   40.1592   30.7557 C   0  0  0  0  0  0  0  0  0  0  0  0
    9.8477   40.5746   31.3118 C   0  0  0  0  0  0  0  0  0  0  0  0
    7.4507   39.5911   28.7474 O   0  0  0  0  0  0  0  0  0  0  0  0
    7.4071   38.7298   27.6154 C   0  0  0  0  0  0  0  0  0  0  0  0
    6.3527   39.2757   26.6620 C   0  0  0  0  0  0  0  0  0  0  0  0
    5.1025   38.5596   27.1393 C   0  0  0  0  0  0  0  0  0  0  0  0
    5.5165   37.2924   27.6675 O   0  0  0  0  0  0  0  0  0  0  0  0
    6.9104   37.3362   28.0140 C   0  0  0  0  0  0  0  0  0  0  0  0
   12.2144   39.0669   28.8413 O   0  0  0  0  0  0  0  0  0  0  0  0
   12.5808   37.7321   29.2105 C   0  0  0  0  0  0  0  0  0  0  0  0
   13.5810   37.7362   30.3521 C   0  0  0  0  0  0  0  0  0  0  0  0
   10.9292   42.2148   32.8018 C   0  0  0  0  0  0  0  0  0  0  0  0
   10.8517   43.2671   32.0938 O   0  0  0  0  0  0  0  0  0  0  0  0
   11.8952   41.9932   33.6144 O   0  0  0  0  0  0  0  0  0  0  0  0
   11.9124   41.2029   34.1174 H   0  0  0  0  0  0  0  0  0  0  0  0
    9.8775   40.2123   33.7013 N   0  0  0  0  0  0  0  0  0  0  0  0
   10.7690   39.9321   34.0110 H   0  0  0  0  0  0  0  0  0  0  0  0
    8.7653   39.6135   34.2759 C   0  0  0  0  0  0  0  0  0  0  0  0
    7.4697   40.0979   34.1062 C   0  0  0  0  0  0  0  0  0  0  0  0
    6.4416   39.4404   34.7204 C   0  0  0  0  0  0  0  0  0  0  0  0
    6.6268   38.2994   35.5072 C   0  0  0  0  0  0  0  0  0  0  0  0
    7.9288   37.8160   35.6812 C   0  0  0  0  0  0  0  0  0  0  0  0
    8.9591   38.4669   35.0613 C   0  0  0  0  0  0  0  0  0  0  0  0
    5.5064   37.6384   36.1266 C   0  0  0  0  0  0  0  0  0  0  0  0
    4.9990   38.0372   37.3250 N   0  0  0  0  0  0  0  0  0  0  0  0
    4.9356   36.5549   35.5902 N   0  0  0  0  0  0  0  0  0  0  0  0
    5.3710   38.8279   37.7785 H   0  0  0  0  0  0  0  0  0  0  0  0
    4.2600   37.5349   37.7383 H   0  0  0  0  0  0  0  0  0  0  0  0
    5.2519   36.2096   34.7242 H   0  0  0  0  0  0  0  0  0  0  0  0
  2  3  1  0  0  0
  3  4  2  0  0  0
  3  8  1  0  0  0
  4  9  1  0  0  0
  4  5  1  0  0  0
  9 10  1  0  0  0
 10 11  1  0  0  0
 10 14  1  0  0  0
 11 12  1  0  0  0
 12 13  1  0  0  0
 13 14  1  0  0  0
  5  6  2  0  0  0
  6 15  1  0  0  0
  6  7  1  0  0  0
 15 16  1  0  0  0
 16 17  1  0  0  0
  7  8  2  0  0  0
  8  1  1  0  0  0
  1 18  1  0  0  0
  1 22  1  0  0  0
 18 19  2  0  0  0
 18 20  1  0  0  0
 22 24  1  0  0  0
 24 25  2  0  0  0
 24 29  1  0  0  0
 25 26  1  0  0  0
 26 27  2  0  0  0
 27 30  1  0  0  0
 27 28  1  0  0  0
 30 31  1  0  0  0
 30 32  2  0  0  0
 28 29  2  0  0  0
 20 21  1  0  0  0
 22 23  1  0  0  0
 31 33  1  0  0  0
 31 34  1  0  0  0
 32 35  1  0  0  0
M  END
> <minimizedAffinity>
-7.20700

$$$$
2BZ6_346_H_1258


 35 37  0  0  0  0  0  0  0  0999 V2000
    9.6442   40.4785   29.9905 C   0  0  0  0  0  0  0  0  0  0  0  0
   11.5259   41.9666   31.5311 F   0  0  0  0  0  0  0  0  0  0  0  0
   10.3645   41.6182   32.1236 C   0  0  0  0  0  0  0  0  0  0  0  0
   10.1838   42.0030   33.4245 C   0  0  0  0  0  0  0  0  0  0  0  0
    9.0058   41.6695   34.0935 C   0  0  0  0  0  0  0  0  0  0  0  0
    8.0209   40.9489   33.4039 C   0  0  0  0  0  0  0  0  0  0  0  0
    8.2292   40.5485   32.0764 C   0  0  0  0  0  0  0  0  0  0  0  0
    9.4074   40.8833   31.4155 C   0  0  0  0  0  0  0  0  0  0  0  0
   11.2255   42.7188   33.9874 O   0  0  0  0  0  0  0  0  0  0  0  0
   11.1456   44.1349   33.8717 C   0  0  0  0  0  0  0  0  0  0  0  0
   12.5031   44.6351   33.3965 C   0  0  0  0  0  0  0  0  0  0  0  0
   13.2224   44.8757   34.7112 C   0  0  0  0  0  0  0  0  0  0  0  0
   12.2267   45.2344   35.6787 O   0  0  0  0  0  0  0  0  0  0  0  0
   10.9343   44.7796   35.2455 C   0  0  0  0  0  0  0  0  0  0  0  0
    6.9023   40.6577   34.1815 O   0  0  0  0  0  0  0  0  0  0  0  0
    5.9541   41.7281   34.2689 C   0  0  0  0  0  0  0  0  0  0  0  0
    4.7929   41.5082   33.3168 C   0  0  0  0  0  0  0  0  0  0  0  0
    8.3991   40.6603   29.1763 C   0  0  0  0  0  0  0  0  0  0  0  0
    7.8311   39.5919   28.7886 O   0  0  0  0  0  0  0  0  0  0  0  0
    7.9366   41.8271   28.9170 O   0  0  0  0  0  0  0  0  0  0  0  0
    8.3884   42.5888   29.2230 H   0  0  0  0  0  0  0  0  0  0  0  0
   10.0629   39.0667   29.9622 N   0  0  0  0  0  0  0  0  0  0  0  0
    9.3730   38.3742   30.0797 H   0  0  0  0  0  0  0  0  0  0  0  0
   11.3767   38.6593   29.7789 C   0  0  0  0  0  0  0  0  0  0  0  0
   11.9181   38.3838   28.5247 C   0  0  0  0  0  0  0  0  0  0  0  0
   13.2217   37.9816   28.4507 C   0  0  0  0  0  0  0  0  0  0  0  0
   14.0415   37.8388   29.5744 C   0  0  0  0  0  0  0  0  0  0  0  0
   13.4959   38.1110   30.8343 C   0  0  0  0  0  0  0  0  0  0  0  0
   12.1940   38.5216   30.9113 C   0  0  0  0  0  0  0  0  0  0  0  0
   15.4133   37.4190   29.4404 C   0  0  0  0  0  0  0  0  0  0  0  0
   15.8540   36.7074   28.3671 N   0  0  0  0  0  0  0  0  0  0  0  0
   16.3233   37.6508   30.3920 N   0  0  0  0  0  0  0  0  0  0  0  0
   15.2381   36.4993   27.6278 H   0  0  0  0  0  0  0  0  0  0  0  0
   16.7888   36.4007   28.3300 H   0  0  0  0  0  0  0  0  0  0  0  0
   16.0747   38.1596   31.1973 H   0  0  0  0  0  0  0  0  0  0  0  0
  2  3  1  0  0  0
  3  4  2  0  0  0
  3  8  1  0  0  0
  4  9  1  0  0  0
  4  5  1  0  0  0
  9 10  1  0  0  0
 10 11  1  0  0  0
 10 14  1  0  0  0
 11 12  1  0  0  0
 12 13  1  0  0  0
 13 14  1  0  0  0
  5  6  2  0  0  0
  6 15  1  0  0  0
  6  7  1  0  0  0
 15 16  1  0  0  0
 16 17  1  0  0  0
  7  8  2  0  0  0
  8  1  1  0  0  0
  1 18  1  0  0  0
  1 22  1  0  0  0
 18 19  2  0  0  0
 18 20  1  0  0  0
 22 24  1  0  0  0
 24 25  2  0  0  0
 24 29  1  0  0  0
 25 26  1  0  0  0
 26 27  2  0  0  0
 27 30  1  0  0  0
 27 28  1  0  0  0
 30 31  1  0  0  0
 30 32  2  0  0  0
 28 29  2  0  0  0
 20 21  1  0  0  0
 22 23  1  0  0  0
 31 33  1  0  0  0
 31 34  1  0  0  0
 32 35  1  0  0  0
M  END
> <minimizedAffinity>
-7.05812

$$$$
2BZ6_346_H_1258


 35 37  0  0  0  0  0  0  0  0999 V2000
   10.1827   40.3890   31.6796 C   0  0  0  0  0  0  0  0  0  0  0  0
    8.3224   40.9257   33.7723 F   0  0  0  0  0  0  0  0  0  0  0  0
    9.3363   41.7981   33.5942 C   0  0  0  0  0  0  0  0  0  0  0  0
    9.3881   42.8793   34.4318 C   0  0  0  0  0  0  0  0  0  0  0  0
   10.4100   43.8193   34.2953 C   0  0  0  0  0  0  0  0  0  0  0  0
   11.3756   43.6239   33.2981 C   0  0  0  0  0  0  0  0  0  0  0  0
   11.2983   42.5192   32.4381 C   0  0  0  0  0  0  0  0  0  0  0  0
   10.2753   41.5862   32.5788 C   0  0  0  0  0  0  0  0  0  0  0  0
    8.3832   42.9506   35.3802 O   0  0  0  0  0  0  0  0  0  0  0  0
    8.5782   43.8934   36.4282 C   0  0  0  0  0  0  0  0  0  0  0  0
    8.1462   43.2310   37.7294 C   0  0  0  0  0  0  0  0  0  0  0  0
    6.6760   43.6029   37.7934 C   0  0  0  0  0  0  0  0  0  0  0  0
    6.5309   44.8687   37.1355 O   0  0  0  0  0  0  0  0  0  0  0  0
    7.6442   45.0957   36.2559 C   0  0  0  0  0  0  0  0  0  0  0  0
   12.3300   44.6374   33.2463 O   0  0  0  0  0  0  0  0  0  0  0  0
   13.0120   44.8645   34.4856 C   0  0  0  0  0  0  0  0  0  0  0  0
   14.3662   44.1793   34.4972 C   0  0  0  0  0  0  0  0  0  0  0  0
   11.5073   39.6936   31.5885 C   0  0  0  0  0  0  0  0  0  0  0  0
   12.0574   39.6999   30.4432 O   0  0  0  0  0  0  0  0  0  0  0  0
   12.0483   39.1527   32.6167 O   0  0  0  0  0  0  0  0  0  0  0  0
   11.6067   39.1713   33.4429 H   0  0  0  0  0  0  0  0  0  0  0  0
    9.7537   40.8327   30.3423 N   0  0  0  0  0  0  0  0  0  0  0  0
   10.2091   41.6078   29.9409 H   0  0  0  0  0  0  0  0  0  0  0  0
    8.7428   40.2179   29.6173 C   0  0  0  0  0  0  0  0  0  0  0  0
    7.4012   40.5777   29.7299 C   0  0  0  0  0  0  0  0  0  0  0  0
    6.4800   39.9058   28.9772 C   0  0  0  0  0  0  0  0  0  0  0  0
    6.8202   38.8769   28.0935 C   0  0  0  0  0  0  0  0  0  0  0  0
    8.1673   38.5127   27.9843 C   0  0  0  0  0  0  0  0  0  0  0  0
    9.0927   39.1885   28.7301 C   0  0  0  0  0  0  0  0  0  0  0  0
    5.8098   38.2054   27.3163 C   0  0  0  0  0  0  0  0  0  0  0  0
    5.2464   38.7701   26.2135 N   0  0  0  0  0  0  0  0  0  0  0  0
    5.3207   37.0115   27.6668 N   0  0  0  0  0  0  0  0  0  0  0  0
    5.5572   39.6491   25.8973 H   0  0  0  0  0  0  0  0  0  0  0  0
    4.5281   38.2996   25.7320 H   0  0  0  0  0  0  0  0  0  0  0  0
    5.6811   36.5440   28.4548 H   0  0  0  0  0  0  0  0  0  0  0  0
  2  3  1  0  0  0
  3  4  2  0  0  0
  3  8  1  0  0  0
  4  9  1  0  0  0
  4  5  1  0  0  0
  9 10  1  0  0  0
 10 11  1  0  0  0
 10 14  1  0  0  0
 11 12  1  0  0  0
 12 13  1  0  0  0
 13 14  1  0  0  0
  5  6  2  0  0  0
  6 15  1  0  0  0
  6  7  1  0  0  0
 15 16  1  0  0  0
 16 17  1  0  0  0
  7  8  2  0  0  0
  8  1  1  0  0  0
  1 18  1  0  0  0
  1 22  1  0  0  0
 18 19  2  0  0  0
 18 20  1  0  0  0
 22 24  1  0  0  0
 24 25  2  0  0  0
 24 29  1  0  0  0
 25 26  1  0  0  0
 26 27  2  0  0  0
 27 30  1  0  0  0
 27 28  1  0  0  0
 30 31  1  0  0  0
 30 32  2  0  0  0
 28 29  2  0  0  0
 20 21  1  0  0  0
 22 23  1  0  0  0
 31 33  1  0  0  0
 31 34  1  0  0  0
 32 35  1  0  0  0
M  END
> <minimizedAffinity>
-7.00252

$$$$
2BZ6_346_H_1258


 35 37  0  0  0  0  0  0  0  0999 V2000
    9.6418   41.2288   32.7306 C   0  0  0  0  0  0  0  0  0  0  0  0
   12.0928   40.3146   31.5969 F   0  0  0  0  0  0  0  0  0  0  0  0
   10.9684   40.1658   30.8657 C   0  0  0  0  0  0  0  0  0  0  0  0
   11.0951   39.5911   29.6300 C   0  0  0  0  0  0  0  0  0  0  0  0
    9.9700   39.4137   28.8244 C   0  0  0  0  0  0  0  0  0  0  0  0
    8.7215   39.8242   29.3119 C   0  0  0  0  0  0  0  0  0  0  0  0
    8.6119   40.4261   30.5735 C   0  0  0  0  0  0  0  0  0  0  0  0
    9.7387   40.6015   31.3714 C   0  0  0  0  0  0  0  0  0  0  0  0
   12.3788   39.2199   29.2712 O   0  0  0  0  0  0  0  0  0  0  0  0
   12.6178   37.8213   29.1619 C   0  0  0  0  0  0  0  0  0  0  0  0
   13.3869   37.3875   30.4025 C   0  0  0  0  0  0  0  0  0  0  0  0
   14.8255   37.5745   29.9565 C   0  0  0  0  0  0  0  0  0  0  0  0
   14.8619   37.3514   28.5405 O   0  0  0  0  0  0  0  0  0  0  0  0
   13.5487   37.5214   27.9824 C   0  0  0  0  0  0  0  0  0  0  0  0
    7.6799   39.6151   28.4106 O   0  0  0  0  0  0  0  0  0  0  0  0
    6.7897   40.7293   28.2745 C   0  0  0  0  0  0  0  0  0  0  0  0
    7.3156   41.7279   27.2598 C   0  0  0  0  0  0  0  0  0  0  0  0
   10.6913   42.2853   32.9003 C   0  0  0  0  0  0  0  0  0  0  0  0
   10.5723   43.3075   32.1550 O   0  0  0  0  0  0  0  0  0  0  0  0
   11.6294   42.1603   33.7645 O   0  0  0  0  0  0  0  0  0  0  0  0
   11.6792   41.3886   34.2936 H   0  0  0  0  0  0  0  0  0  0  0  0
    9.8135   40.1799   33.7501 N   0  0  0  0  0  0  0  0  0  0  0  0
   10.7278   39.9572   34.0393 H   0  0  0  0  0  0  0  0  0  0  0  0
    8.7568   39.4882   34.3253 C   0  0  0  0  0  0  0  0  0  0  0  0
    8.9360   38.4045   35.1827 C   0  0  0  0  0  0  0  0  0  0  0  0
    7.8297   37.7853   35.6920 C   0  0  0  0  0  0  0  0  0  0  0  0
    6.5244   38.1917   35.3983 C   0  0  0  0  0  0  0  0  0  0  0  0
    6.3448   39.2773   34.5332 C   0  0  0  0  0  0  0  0  0  0  0  0
    7.4500   39.9043   34.0282 C   0  0  0  0  0  0  0  0  0  0  0  0
    5.3913   37.5087   35.9688 C   0  0  0  0  0  0  0  0  0  0  0  0
    4.2085   38.1380   36.2086 N   0  0  0  0  0  0  0  0  0  0  0  0
    5.4527   36.2299   36.3538 N   0  0  0  0  0  0  0  0  0  0  0  0
    4.0917   39.0811   35.9514 H   0  0  0  0  0  0  0  0  0  0  0  0
    3.4697   37.6501   36.6393 H   0  0  0  0  0  0  0  0  0  0  0  0
    6.2780   35.7121   36.2116 H   0  0  0  0  0  0  0  0  0  0  0  0
  2  3  1  0  0  0
  3  4  2  0  0  0
  3  8  1  0  0  0
  4  9  1  0  0  0
  4  5  1  0  0  0
  9 10  1  0  0  0
 10 11  1  0  0  0
 10 14  1  0  0  0
 11 12  1  0  0  0
 12 13  1  0  0  0
 13 14  1  0  0  0
  5  6  2  0  0  0
  6 15  1  0  0  0
  6  7  1  0  0  0
 15 16  1  0  0  0
 16 17  1  0  0  0
  7  8  2  0  0  0
  8  1  1  0  0  0
  1 18  1  0  0  0
  1 22  1  0  0  0
 18 19  2  0  0  0
 18 20  1  0  0  0
 22 24  1  0  0  0
 24 25  2  0  0  0
 24 29  1  0  0  0
 25 26  1  0  0  0
 26 27  2  0  0  0
 27 30  1  0  0  0
 27 28  1  0  0  0
 30 31  1  0  0  0
 30 32  2  0  0  0
 28 29  2  0  0  0
 20 21  1  0  0  0
 22 23  1  0  0  0
 31 33  1  0  0  0
 31 34  1  0  0  0
 32 35  1  0  0  0
M  END
> <minimizedAffinity>
-7.00198

$$$$
