3G0I_VPR_A_1


 12 11  0  0  0  0  0  0  0  0999 V2000
   23.4448   36.8061   60.1672 C   0  0  0  0  0  0  0  0  0  0  0  0
   24.3048   35.6139   60.4809 C   0  0  0  0  0  0  0  0  0  0  0  0
   24.2207   34.5612   59.7992 N   0  0  0  0  0  0  0  0  0  0  0  0
   25.1522   35.7031   61.4861 O   0  0  0  0  0  0  0  0  0  0  0  0
   23.5830   34.5089   59.0510 H   0  0  0  0  0  0  0  0  0  0  0  0
   24.7925   33.7890   60.0134 H   0  0  0  0  0  0  0  0  0  0  0  0
   22.4062   37.0514   61.2607 C   0  0  0  0  0  0  0  0  0  0  0  0
   20.7322   38.5084   60.3068 C   0  0  0  0  0  0  0  0  0  0  0  0
   21.8813   38.4772   61.2771 C   0  0  0  0  0  0  0  0  0  0  0  0
   24.3195   38.0337   59.9265 C   0  0  0  0  0  0  0  0  0  0  0  0
   25.0503   37.9628   58.5889 C   0  0  0  0  0  0  0  0  0  0  0  0
   26.5329   38.0471   58.8497 C   0  0  0  0  0  0  0  0  0  0  0  0
  8  9  1  0  0  0
  9  7  1  0  0  0
  7  1  1  0  0  0
  1 10  1  0  0  0
  1  2  1  0  0  0
 10 11  1  0  0  0
 11 12  1  0  0  0
  2  3  1  0  0  0
  2  4  2  0  0  0
  3  5  1  0  0  0
  3  6  1  0  0  0
M  END
> <minimizedAffinity>
-5.60921

$$$$
3G0I_VPR_A_1


 12 11  0  0  0  0  0  0  0  0999 V2000
   23.7891   36.9639   60.3706 C   0  0  0  0  0  0  0  0  0  0  0  0
   24.6323   35.7271   60.2335 C   0  0  0  0  0  0  0  0  0  0  0  0
   25.3475   35.5441   59.2162 N   0  0  0  0  0  0  0  0  0  0  0  0
   24.6054   34.8423   61.2097 O   0  0  0  0  0  0  0  0  0  0  0  0
   25.3576   36.2137   58.4946 H   0  0  0  0  0  0  0  0  0  0  0  0
   25.8976   34.7311   59.1410 H   0  0  0  0  0  0  0  0  0  0  0  0
   22.3853   36.6322   60.8745 C   0  0  0  0  0  0  0  0  0  0  0  0
   20.9111   38.3985   60.1381 C   0  0  0  0  0  0  0  0  0  0  0  0
   21.6170   37.8539   61.3498 C   0  0  0  0  0  0  0  0  0  0  0  0
   24.4914   37.9794   61.2680 C   0  0  0  0  0  0  0  0  0  0  0  0
   25.1751   39.0798   60.4618 C   0  0  0  0  0  0  0  0  0  0  0  0
   24.2706   40.2858   60.4370 C   0  0  0  0  0  0  0  0  0  0  0  0
  8  9  1  0  0  0
  9  7  1  0  0  0
  7  1  1  0  0  0
  1 10  1  0  0  0
  1  2  1  0  0  0
 10 11  1  0  0  0
 11 12  1  0  0  0
  2  3  1  0  0  0
  2  4  2  0  0  0
  3  5  1  0  0  0
  3  6  1  0  0  0
M  END
> <minimizedAffinity>
-5.41853

$$$$
3G0I_VPR_A_1


 12 11  0  0  0  0  0  0  0  0999 V2000
   24.2625   37.2413   60.0376 C   0  0  0  0  0  0  0  0  0  0  0  0
   24.6227   35.8352   60.4281 C   0  0  0  0  0  0  0  0  0  0  0  0
   24.3447   34.8663   59.6771 N   0  0  0  0  0  0  0  0  0  0  0  0
   25.2417   35.6456   61.5758 O   0  0  0  0  0  0  0  0  0  0  0  0
   23.8819   35.0230   58.8224 H   0  0  0  0  0  0  0  0  0  0  0  0
   24.5896   33.9508   59.9437 H   0  0  0  0  0  0  0  0  0  0  0  0
   24.9504   37.6557   58.7377 C   0  0  0  0  0  0  0  0  0  0  0  0
   26.4141   38.9101   60.1935 C   0  0  0  0  0  0  0  0  0  0  0  0
   26.3946   38.0843   58.9363 C   0  0  0  0  0  0  0  0  0  0  0  0
   22.7457   37.3884   59.9515 C   0  0  0  0  0  0  0  0  0  0  0  0
   22.1567   37.9997   61.2194 C   0  0  0  0  0  0  0  0  0  0  0  0
   22.9386   39.2436   61.5577 C   0  0  0  0  0  0  0  0  0  0  0  0
  8  9  1  0  0  0
  9  7  1  0  0  0
  7  1  1  0  0  0
  1 10  1  0  0  0
  1  2  1  0  0  0
 10 11  1  0  0  0
 11 12  1  0  0  0
  2  3  1  0  0  0
  2  4  2  0  0  0
  3  5  1  0  0  0
  3  6  1  0  0  0
M  END
> <minimizedAffinity>
-5.36613

$$$$
3G0I_VPR_A_1


 12 11  0  0  0  0  0  0  0  0999 V2000
   23.8642   36.6778   61.1495 C   0  0  0  0  0  0  0  0  0  0  0  0
   24.5652   35.7753   60.1732 C   0  0  0  0  0  0  0  0  0  0  0  0
   24.1937   34.5851   60.0143 N   0  0  0  0  0  0  0  0  0  0  0  0
   25.5762   36.2660   59.4850 O   0  0  0  0  0  0  0  0  0  0  0  0
   23.4367   34.2320   60.5354 H   0  0  0  0  0  0  0  0  0  0  0  0
   24.6596   34.0059   59.3687 H   0  0  0  0  0  0  0  0  0  0  0  0
   24.4909   38.0711   61.1746 C   0  0  0  0  0  0  0  0  0  0  0  0
   23.9016   40.0682   62.3991 C   0  0  0  0  0  0  0  0  0  0  0  0
   24.5002   38.6973   62.5589 C   0  0  0  0  0  0  0  0  0  0  0  0
   22.3714   36.7301   60.8354 C   0  0  0  0  0  0  0  0  0  0  0  0
   22.0267   37.8690   59.8803 C   0  0  0  0  0  0  0  0  0  0  0  0
   20.8237   38.5988   60.4217 C   0  0  0  0  0  0  0  0  0  0  0  0
  8  9  1  0  0  0
  9  7  1  0  0  0
  7  1  1  0  0  0
  1 10  1  0  0  0
  1  2  1  0  0  0
 10 11  1  0  0  0
 11 12  1  0  0  0
  2  3  1  0  0  0
  2  4  2  0  0  0
  3  5  1  0  0  0
  3  6  1  0  0  0
M  END
> <minimizedAffinity>
-5.13014

$$$$
3G0I_VPR_A_1


 12 11  0  0  0  0  0  0  0  0999 V2000
   24.3038   37.4739   60.9521 C   0  0  0  0  0  0  0  0  0  0  0  0
   23.3506   36.3153   60.8602 C   0  0  0  0  0  0  0  0  0  0  0  0
   22.2306   36.3552   61.4293 N   0  0  0  0  0  0  0  0  0  0  0  0
   23.7182   35.2589   60.1634 O   0  0  0  0  0  0  0  0  0  0  0  0
   21.9694   37.1511   61.9466 H   0  0  0  0  0  0  0  0  0  0  0  0
   21.6146   35.5906   61.3579 H   0  0  0  0  0  0  0  0  0  0  0  0
   24.1634   38.2109   62.2832 C   0  0  0  0  0  0  0  0  0  0  0  0
   23.3892   40.0108   60.8704 C   0  0  0  0  0  0  0  0  0  0  0  0
   24.1573   39.7227   62.1313 C   0  0  0  0  0  0  0  0  0  0  0  0
   25.7336   36.9958   60.7136 C   0  0  0  0  0  0  0  0  0  0  0  0
   26.4396   37.8156   59.6377 C   0  0  0  0  0  0  0  0  0  0  0  0
   25.5156   37.9461   58.4535 C   0  0  0  0  0  0  0  0  0  0  0  0
  8  9  1  0  0  0
  9  7  1  0  0  0
  7  1  1  0  0  0
  1 10  1  0  0  0
  1  2  1  0  0  0
 10 11  1  0  0  0
 11 12  1  0  0  0
  2  3  1  0  0  0
  2  4  2  0  0  0
  3  5  1  0  0  0
  3  6  1  0  0  0
M  END
> <minimizedAffinity>
-5.06018

$$$$
3G0I_VPR_A_1


 12 11  0  0  0  0  0  0  0  0999 V2000
   24.0923   37.6046   61.1232 C   0  0  0  0  0  0  0  0  0  0  0  0
   24.9713   37.9349   62.2969 C   0  0  0  0  0  0  0  0  0  0  0  0
   25.0193   39.1035   62.7575 N   0  0  0  0  0  0  0  0  0  0  0  0
   25.6862   36.9665   62.8330 O   0  0  0  0  0  0  0  0  0  0  0  0
   24.4795   39.8171   62.3468 H   0  0  0  0  0  0  0  0  0  0  0  0
   25.5967   39.3051   63.5290 H   0  0  0  0  0  0  0  0  0  0  0  0
   24.5168   36.2976   60.4553 C   0  0  0  0  0  0  0  0  0  0  0  0
   25.0299   37.7248   58.5751 C   0  0  0  0  0  0  0  0  0  0  0  0
   25.4991   36.5013   59.3141 C   0  0  0  0  0  0  0  0  0  0  0  0
   22.6292   37.5737   61.5571 C   0  0  0  0  0  0  0  0  0  0  0  0
   21.8748   38.8249   61.1172 C   0  0  0  0  0  0  0  0  0  0  0  0
   20.8029   38.4171   60.1386 C   0  0  0  0  0  0  0  0  0  0  0  0
  8  9  1  0  0  0
  9  7  1  0  0  0
  7  1  1  0  0  0
  1 10  1  0  0  0
  1  2  1  0  0  0
 10 11  1  0  0  0
 11 12  1  0  0  0
  2  3  1  0  0  0
  2  4  2  0  0  0
  3  5  1  0  0  0
  3  6  1  0  0  0
M  END
> <minimizedAffinity>
-4.98648

$$$$
3G0I_VPR_A_1


 12 11  0  0  0  0  0  0  0  0999 V2000
   23.8757   38.3041   61.0553 C   0  0  0  0  0  0  0  0  0  0  0  0
   24.6517   38.4509   62.3342 C   0  0  0  0  0  0  0  0  0  0  0  0
   24.7058   39.5551   62.9323 N   0  0  0  0  0  0  0  0  0  0  0  0
   25.2697   37.3906   62.8141 O   0  0  0  0  0  0  0  0  0  0  0  0
   24.2390   40.3388   62.5620 H   0  0  0  0  0  0  0  0  0  0  0  0
   25.2148   39.6362   63.7711 H   0  0  0  0  0  0  0  0  0  0  0  0
   22.4342   38.7844   61.2161 C   0  0  0  0  0  0  0  0  0  0  0  0
   21.9027   36.4617   60.8189 C   0  0  0  0  0  0  0  0  0  0  0  0
   21.4205   37.8627   60.5589 C   0  0  0  0  0  0  0  0  0  0  0  0
   24.5946   39.0291   59.9207 C   0  0  0  0  0  0  0  0  0  0  0  0
   24.7253   38.1567   58.6756 C   0  0  0  0  0  0  0  0  0  0  0  0
   25.3615   36.8490   59.0734 C   0  0  0  0  0  0  0  0  0  0  0  0
  8  9  1  0  0  0
  9  7  1  0  0  0
  7  1  1  0  0  0
  1 10  1  0  0  0
  1  2  1  0  0  0
 10 11  1  0  0  0
 11 12  1  0  0  0
  2  3  1  0  0  0
  2  4  2  0  0  0
  3  5  1  0  0  0
  3  6  1  0  0  0
M  END
> <minimizedAffinity>
-4.97884

$$$$
3G0I_VPR_A_1


 12 11  0  0  0  0  0  0  0  0999 V2000
   23.9849   38.2809   59.5442 C   0  0  0  0  0  0  0  0  0  0  0  0
   23.4759   37.1964   60.4520 C   0  0  0  0  0  0  0  0  0  0  0  0
   24.0832   36.9066   61.5137 N   0  0  0  0  0  0  0  0  0  0  0  0
   22.3740   36.5609   60.1079 O   0  0  0  0  0  0  0  0  0  0  0  0
   24.9054   37.3899   61.7581 H   0  0  0  0  0  0  0  0  0  0  0  0
   23.7366   36.1965   62.1009 H   0  0  0  0  0  0  0  0  0  0  0  0
   24.5401   39.4621   60.3385 C   0  0  0  0  0  0  0  0  0  0  0  0
   23.8052   40.4694   62.4074 C   0  0  0  0  0  0  0  0  0  0  0  0
   23.4559   40.3330   60.9506 C   0  0  0  0  0  0  0  0  0  0  0  0
   25.0170   37.7106   58.5749 C   0  0  0  0  0  0  0  0  0  0  0  0
   26.4415   38.0961   58.9630 C   0  0  0  0  0  0  0  0  0  0  0  0
   27.1015   36.9019   59.6044 C   0  0  0  0  0  0  0  0  0  0  0  0
  8  9  1  0  0  0
  9  7  1  0  0  0
  7  1  1  0  0  0
  1 10  1  0  0  0
  1  2  1  0  0  0
 10 11  1  0  0  0
 11 12  1  0  0  0
  2  3  1  0  0  0
  2  4  2  0  0  0
  3  5  1  0  0  0
  3  6  1  0  0  0
M  END
> <minimizedAffinity>
-4.93598

$$$$
3G0I_VPR_A_1


 12 11  0  0  0  0  0  0  0  0999 V2000
   24.3334   37.6498   61.1124 C   0  0  0  0  0  0  0  0  0  0  0  0
   22.9737   37.1189   60.7538 C   0  0  0  0  0  0  0  0  0  0  0  0
   22.2922   36.4740   61.5903 N   0  0  0  0  0  0  0  0  0  0  0  0
   22.5131   37.3515   59.5413 O   0  0  0  0  0  0  0  0  0  0  0  0
   22.6491   36.3078   62.4926 H   0  0  0  0  0  0  0  0  0  0  0  0
   21.4016   36.1351   61.3431 H   0  0  0  0  0  0  0  0  0  0  0  0
   24.8780   38.5759   60.0261 C   0  0  0  0  0  0  0  0  0  0  0  0
   26.7413   37.0692   59.7207 C   0  0  0  0  0  0  0  0  0  0  0  0
   26.3911   38.5214   59.8978 C   0  0  0  0  0  0  0  0  0  0  0  0
   24.2847   38.3365   62.4747 C   0  0  0  0  0  0  0  0  0  0  0  0
   23.9331   39.8167   62.3577 C   0  0  0  0  0  0  0  0  0  0  0  0
   24.5823   40.5537   63.5016 C   0  0  0  0  0  0  0  0  0  0  0  0
  8  9  1  0  0  0
  9  7  1  0  0  0
  7  1  1  0  0  0
  1 10  1  0  0  0
  1  2  1  0  0  0
 10 11  1  0  0  0
 11 12  1  0  0  0
  2  3  1  0  0  0
  2  4  2  0  0  0
  3  5  1  0  0  0
  3  6  1  0  0  0
M  END
> <minimizedAffinity>
-4.81977

$$$$
3G0I_VPR_A_1


 12 11  0  0  0  0  0  0  0  0999 V2000
   22.9766   38.5187   60.2454 C   0  0  0  0  0  0  0  0  0  0  0  0
   21.6977   37.7322   60.1731 C   0  0  0  0  0  0  0  0  0  0  0  0
   20.5996   38.3055   59.9599 N   0  0  0  0  0  0  0  0  0  0  0  0
   21.7588   36.4258   60.3343 O   0  0  0  0  0  0  0  0  0  0  0  0
   20.5691   39.2823   59.8414 H   0  0  0  0  0  0  0  0  0  0  0  0
   19.7700   37.7776   59.9115 H   0  0  0  0  0  0  0  0  0  0  0  0
   23.1166   39.2392   61.5855 C   0  0  0  0  0  0  0  0  0  0  0  0
   24.9577   39.9671   62.9696 C   0  0  0  0  0  0  0  0  0  0  0  0
   24.2891   38.7399   62.4128 C   0  0  0  0  0  0  0  0  0  0  0  0
   24.1681   37.6081   59.9610 C   0  0  0  0  0  0  0  0  0  0  0  0
   24.8602   37.9635   58.6484 C   0  0  0  0  0  0  0  0  0  0  0  0
   26.3394   38.0943   58.9086 C   0  0  0  0  0  0  0  0  0  0  0  0
  8  9  1  0  0  0
  9  7  1  0  0  0
  7  1  1  0  0  0
  1 10  1  0  0  0
  1  2  1  0  0  0
 10 11  1  0  0  0
 11 12  1  0  0  0
  2  3  1  0  0  0
  2  4  2  0  0  0
  3  5  1  0  0  0
  3  6  1  0  0  0
M  END
> <minimizedAffinity>
-4.74986

$$$$
