4EUO_ABU_A_404


 10  9  0  0  0  0  0  0  0  0999 V2000
    6.0503  -12.0133    8.3489 C   0  0  0  0  0  0  0  0  0  0  0  0
    3.7052  -12.3459    7.6698 N   0  0  0  0  0  0  0  0  0  0  0  0
    5.1090  -12.4447    7.2511 C   0  0  0  0  0  0  0  0  0  0  0  0
    3.1003  -12.6446    6.9048 H   0  0  0  0  0  0  0  0  0  0  0  0
    3.4908  -11.3793    7.9151 H   0  0  0  0  0  0  0  0  0  0  0  0
    6.7384  -13.2101    8.9105 C   0  0  0  0  0  0  0  0  0  0  0  0
    6.5176  -13.4610   10.3873 C   0  0  0  0  0  0  0  0  0  0  0  0
    7.4292  -14.1866   11.0303 O   0  0  0  0  0  0  0  0  0  0  0  0
    5.4239  -13.1061   11.0169 O   0  0  0  0  0  0  0  0  0  0  0  0
    4.7741  -12.5952   10.5756 H   0  0  0  0  0  0  0  0  0  0  0  0
  2  3  1  0  0  0
  3  1  1  0  0  0
  1  6  1  0  0  0
  6  7  1  0  0  0
  7  8  2  0  0  0
  7  9  1  0  0  0
  2  4  1  0  0  0
  2  5  1  0  0  0
  9 10  1  0  0  0
M  END
> <minimizedAffinity>
-5.45906

$$$$
4EUO_ABU_A_404


 10  9  0  0  0  0  0  0  0  0999 V2000
    6.3825  -13.1011    9.2948 C   0  0  0  0  0  0  0  0  0  0  0  0
    7.7097  -14.3938   10.9193 N   0  0  0  0  0  0  0  0  0  0  0  0
    6.5949  -13.4540   10.7466 C   0  0  0  0  0  0  0  0  0  0  0  0
    7.8229  -14.6085   11.9100 H   0  0  0  0  0  0  0  0  0  0  0  0
    8.5675  -13.9729   10.5624 H   0  0  0  0  0  0  0  0  0  0  0  0
    5.0455  -12.4635    9.1302 C   0  0  0  0  0  0  0  0  0  0  0  0
    4.5245  -12.3891    7.7104 C   0  0  0  0  0  0  0  0  0  0  0  0
    3.2054  -12.4191    7.5376 O   0  0  0  0  0  0  0  0  0  0  0  0
    5.3071  -12.4223    6.6592 O   0  0  0  0  0  0  0  0  0  0  0  0
    6.2376  -12.4017    6.7671 H   0  0  0  0  0  0  0  0  0  0  0  0
  2  3  1  0  0  0
  3  1  1  0  0  0
  1  6  1  0  0  0
  6  7  1  0  0  0
  7  8  2  0  0  0
  7  9  1  0  0  0
  2  4  1  0  0  0
  2  5  1  0  0  0
  9 10  1  0  0  0
M  END
> <minimizedAffinity>
-5.44703

$$$$
4EUO_ABU_A_404


 10  9  0  0  0  0  0  0  0  0999 V2000
    6.3796  -13.1042    9.2795 C   0  0  0  0  0  0  0  0  0  0  0  0
    7.7078  -14.3913   10.9076 N   0  0  0  0  0  0  0  0  0  0  0  0
    6.5872  -13.4591   10.7315 C   0  0  0  0  0  0  0  0  0  0  0  0
    7.8177  -14.6077   11.8983 H   0  0  0  0  0  0  0  0  0  0  0  0
    8.5644  -13.9635   10.5559 H   0  0  0  0  0  0  0  0  0  0  0  0
    5.0702  -12.4102    9.1214 C   0  0  0  0  0  0  0  0  0  0  0  0
    4.4670  -12.4558    7.7333 C   0  0  0  0  0  0  0  0  0  0  0  0
    5.3020  -12.4025    6.6985 O   0  0  0  0  0  0  0  0  0  0  0  0
    3.1750  -12.4195    7.5138 O   0  0  0  0  0  0  0  0  0  0  0  0
    2.5763  -12.4562    8.2337 H   0  0  0  0  0  0  0  0  0  0  0  0
  2  3  1  0  0  0
  3  1  1  0  0  0
  1  6  1  0  0  0
  6  7  1  0  0  0
  7  8  2  0  0  0
  7  9  1  0  0  0
  2  4  1  0  0  0
  2  5  1  0  0  0
  9 10  1  0  0  0
M  END
> <minimizedAffinity>
-5.38560

$$$$
4EUO_ABU_A_404


 10  9  0  0  0  0  0  0  0  0999 V2000
    6.2269  -12.9313    8.6229 C   0  0  0  0  0  0  0  0  0  0  0  0
    4.2953  -12.4380    7.1749 N   0  0  0  0  0  0  0  0  0  0  0  0
    4.8957  -12.2314    8.4987 C   0  0  0  0  0  0  0  0  0  0  0  0
    3.3997  -11.9520    7.1281 H   0  0  0  0  0  0  0  0  0  0  0  0
    4.1493  -13.4355    7.0196 H   0  0  0  0  0  0  0  0  0  0  0  0
    6.4606  -13.3024   10.0473 C   0  0  0  0  0  0  0  0  0  0  0  0
    7.6925  -14.1420   10.3128 C   0  0  0  0  0  0  0  0  0  0  0  0
    7.6932  -14.9040   11.4037 O   0  0  0  0  0  0  0  0  0  0  0  0
    8.7853  -14.0549    9.5940 O   0  0  0  0  0  0  0  0  0  0  0  0
    8.7981  -13.5217    8.8236 H   0  0  0  0  0  0  0  0  0  0  0  0
  2  3  1  0  0  0
  3  1  1  0  0  0
  1  6  1  0  0  0
  6  7  1  0  0  0
  7  8  2  0  0  0
  7  9  1  0  0  0
  2  4  1  0  0  0
  2  5  1  0  0  0
  9 10  1  0  0  0
M  END
> <minimizedAffinity>
-5.13886

$$$$
4EUO_ABU_A_404


 10  9  0  0  0  0  0  0  0  0999 V2000
    7.5534  -13.9198    9.1893 C   0  0  0  0  0  0  0  0  0  0  0  0
    8.2265  -15.0670   11.2636 N   0  0  0  0  0  0  0  0  0  0  0  0
    8.5694  -14.8125    9.8588 C   0  0  0  0  0  0  0  0  0  0  0  0
    8.9332  -15.6718   11.6820 H   0  0  0  0  0  0  0  0  0  0  0  0
    7.3156  -15.5231   11.3139 H   0  0  0  0  0  0  0  0  0  0  0  0
    6.6784  -13.3011   10.2251 C   0  0  0  0  0  0  0  0  0  0  0  0
    5.3011  -12.8827    9.7555 C   0  0  0  0  0  0  0  0  0  0  0  0
    5.1470  -12.6203    8.4601 O   0  0  0  0  0  0  0  0  0  0  0  0
    4.3055  -12.6516   10.5766 O   0  0  0  0  0  0  0  0  0  0  0  0
    4.4010  -12.8320   11.4911 H   0  0  0  0  0  0  0  0  0  0  0  0
  2  3  1  0  0  0
  3  1  1  0  0  0
  1  6  1  0  0  0
  6  7  1  0  0  0
  7  8  2  0  0  0
  7  9  1  0  0  0
  2  4  1  0  0  0
  2  5  1  0  0  0
  9 10  1  0  0  0
M  END
> <minimizedAffinity>
-4.11142

$$$$
4EUO_ABU_A_404


 10  9  0  0  0  0  0  0  0  0999 V2000
    7.2916  -14.0818    9.0760 C   0  0  0  0  0  0  0  0  0  0  0  0
    8.0909  -15.2300   11.1044 N   0  0  0  0  0  0  0  0  0  0  0  0
    8.1094  -13.9766   10.3400 C   0  0  0  0  0  0  0  0  0  0  0  0
    8.6523  -15.1214   11.9490 H   0  0  0  0  0  0  0  0  0  0  0  0
    8.4771  -15.9820   10.5337 H   0  0  0  0  0  0  0  0  0  0  0  0
    6.6690  -12.7610    8.7773 C   0  0  0  0  0  0  0  0  0  0  0  0
    5.2224  -12.6076    9.1974 C   0  0  0  0  0  0  0  0  0  0  0  0
    4.9046  -12.9513   10.4431 O   0  0  0  0  0  0  0  0  0  0  0  0
    4.2671  -12.2759    8.3632 O   0  0  0  0  0  0  0  0  0  0  0  0
    4.4774  -12.0318    7.4833 H   0  0  0  0  0  0  0  0  0  0  0  0
  2  3  1  0  0  0
  3  1  1  0  0  0
  1  6  1  0  0  0
  6  7  1  0  0  0
  7  8  2  0  0  0
  7  9  1  0  0  0
  2  4  1  0  0  0
  2  5  1  0  0  0
  9 10  1  0  0  0
M  END
> <minimizedAffinity>
-2.97741

$$$$
4EUO_ABU_A_404


 10  9  0  0  0  0  0  0  0  0999 V2000
    5.6701  -12.5606    7.8337 C   0  0  0  0  0  0  0  0  0  0  0  0
    6.6656  -10.4417    7.0652 N   0  0  0  0  0  0  0  0  0  0  0  0
    5.6936  -11.0585    7.9766 C   0  0  0  0  0  0  0  0  0  0  0  0
    6.6535   -9.4294    7.1896 H   0  0  0  0  0  0  0  0  0  0  0  0
    6.4197  -10.6688    6.1016 H   0  0  0  0  0  0  0  0  0  0  0  0
    6.6851  -13.1611    8.7450 C   0  0  0  0  0  0  0  0  0  0  0  0
    6.2969  -13.2267   10.2071 C   0  0  0  0  0  0  0  0  0  0  0  0
    7.2185  -13.6488   11.0691 O   0  0  0  0  0  0  0  0  0  0  0  0
    5.0763  -13.0090   10.6329 O   0  0  0  0  0  0  0  0  0  0  0  0
    4.4179  -12.7116   10.0362 H   0  0  0  0  0  0  0  0  0  0  0  0
  2  3  1  0  0  0
  3  1  1  0  0  0
  1  6  1  0  0  0
  6  7  1  0  0  0
  7  8  2  0  0  0
  7  9  1  0  0  0
  2  4  1  0  0  0
  2  5  1  0  0  0
  9 10  1  0  0  0
M  END
> <minimizedAffinity>
-2.59458

$$$$
