4UND_2YQ_A_2011


 30 34  0  0  0  0  0  0  0  0999 V2000
    0.7388   63.8164  190.1226 N   0  0  0  0  0  0  0  0  0  0  0  0
    0.9993   62.2155  186.2259 N   0  0  0  0  0  0  0  0  0  0  0  0
   -1.2225   62.3704  190.4411 C   0  0  0  0  0  0  0  0  0  0  0  0
    1.7837   63.8979  188.1436 C   0  0  0  0  0  0  0  0  0  0  0  0
    1.8595   63.3315  186.6602 C   0  0  0  0  0  0  0  0  0  0  0  0
   -0.0447   61.8457  187.0188 C   0  0  0  0  0  0  0  0  0  0  0  0
   -0.9965   60.9454  186.5242 C   0  0  0  0  0  0  0  0  0  0  0  0
   -2.0706   60.9970  188.6697 C   0  0  0  0  0  0  0  0  0  0  0  0
    0.8371   63.2879  188.8658 C   0  0  0  0  0  0  0  0  0  0  0  0
   -0.0961   62.3400  188.3095 C   0  0  0  0  0  0  0  0  0  0  0  0
   -2.0268   60.5143  187.3745 C   0  0  0  0  0  0  0  0  0  0  0  0
   -3.1002   59.5767  186.9782 F   0  0  0  0  0  0  0  0  0  0  0  0
   -1.1296   61.8995  189.1230 C   0  0  0  0  0  0  0  0  0  0  0  0
   -2.1035   61.9331  191.1817 O   0  0  0  0  0  0  0  0  0  0  0  0
   -0.3158   63.3374  190.9364 N   0  0  0  0  0  0  0  0  0  0  0  0
    1.1762   61.7463  185.3787 H   0  0  0  0  0  0  0  0  0  0  0  0
   -0.4192   63.6795  191.8537 H   0  0  0  0  0  0  0  0  0  0  0  0
    4.6399   64.4596  184.7618 C   0  0  0  0  0  0  0  0  0  0  0  0
    5.4541   63.6606  186.8776 C   0  0  0  0  0  0  0  0  0  0  0  0
    7.4217   64.7233  185.0367 F   0  0  0  0  0  0  0  0  0  0  0  0
    5.6894   64.2453  185.6260 C   0  0  0  0  0  0  0  0  0  0  0  0
    3.3739   64.0851  185.1210 C   0  0  0  0  0  0  0  0  0  0  0  0
    4.1868   63.2969  187.2544 C   0  0  0  0  0  0  0  0  0  0  0  0
    3.1582   63.4613  186.3402 C   0  0  0  0  0  0  0  0  0  0  0  0
    1.3534   65.4021  188.0459 C   0  0  0  0  0  0  0  0  0  0  0  0
    0.0569   65.8893  188.1862 N   0  0  0  0  0  0  0  0  0  0  0  0
   -0.0552   67.2412  188.0293 C   0  0  0  0  0  0  0  0  0  0  0  0
    1.1714   67.6761  187.7986 N   0  0  0  0  0  0  0  0  0  0  0  0
    2.0709   66.5561  187.7810 N   0  0  0  0  0  0  0  0  0  0  0  0
    3.4891   66.9317  187.5240 C   0  0  0  0  0  0  0  0  0  0  0  0
 14  3  2  0  0  0
  3 15  1  0  0  0
  3 13  1  0  0  0
 15  1  1  0  0  0
  8 13  2  0  0  0
  8 11  1  0  0  0
 13 10  1  0  0  0
 12 11  1  0  0  0
 11  7  2  0  0  0
  1  9  2  0  0  0
 10  9  1  0  0  0
 10  6  2  0  0  0
  9  4  1  0  0  0
  7  6  1  0  0  0
  6  2  1  0  0  0
 30 29  1  0  0  0
  4 25  1  0  0  0
  4  5  1  0  0  0
  2  5  1  0  0  0
 29 25  1  0  0  0
 29 28  1  0  0  0
 22 18  2  0  0  0
 22 24  1  0  0  0
 25 26  2  0  0  0
  5 24  1  0  0  0
 18 21  1  0  0  0
 28 27  2  0  0  0
 24 23  2  0  0  0
 26 27  1  0  0  0
 21 20  1  0  0  0
 21 19  2  0  0  0
 23 19  1  0  0  0
  2 16  1  0  0  0
 15 17  1  0  0  0
M  END
> <minimizedAffinity>
-11.90728

$$$$
4UND_2YQ_A_2011


 30 34  0  0  0  0  0  0  0  0999 V2000
    3.5447   65.9120  188.5162 N   0  0  0  0  0  0  0  0  0  0  0  0
    1.6849   63.9213  191.7400 N   0  0  0  0  0  0  0  0  0  0  0  0
    5.5499   66.0461  189.9304 C   0  0  0  0  0  0  0  0  0  0  0  0
    1.6458   65.0328  189.3138 C   0  0  0  0  0  0  0  0  0  0  0  0
    0.9266   64.3226  190.5408 C   0  0  0  0  0  0  0  0  0  0  0  0
    2.9506   64.3968  191.9048 C   0  0  0  0  0  0  0  0  0  0  0  0
    3.5995   64.2096  193.1315 C   0  0  0  0  0  0  0  0  0  0  0  0
    5.5521   65.2352  192.1856 C   0  0  0  0  0  0  0  0  0  0  0  0
    2.9440   65.2517  189.5515 C   0  0  0  0  0  0  0  0  0  0  0  0
    3.5680   65.0069  190.8279 C   0  0  0  0  0  0  0  0  0  0  0  0
    4.9294   64.6379  193.2663 C   0  0  0  0  0  0  0  0  0  0  0  0
    5.7266   64.5115  194.5060 F   0  0  0  0  0  0  0  0  0  0  0  0
    4.8802   65.4244  190.9947 C   0  0  0  0  0  0  0  0  0  0  0  0
    6.7332   66.3612  190.0584 O   0  0  0  0  0  0  0  0  0  0  0  0
    4.8887   66.3127  188.7080 N   0  0  0  0  0  0  0  0  0  0  0  0
    1.2838   63.3207  192.4091 H   0  0  0  0  0  0  0  0  0  0  0  0
    5.3670   66.7803  187.9857 H   0  0  0  0  0  0  0  0  0  0  0  0
   -0.4304   62.0782  188.1474 C   0  0  0  0  0  0  0  0  0  0  0  0
   -1.9558   62.2068  190.0007 C   0  0  0  0  0  0  0  0  0  0  0  0
   -2.6787   60.4257  187.8340 F   0  0  0  0  0  0  0  0  0  0  0  0
   -1.5958   61.6718  188.7565 C   0  0  0  0  0  0  0  0  0  0  0  0
    0.3629   63.0154  188.7507 C   0  0  0  0  0  0  0  0  0  0  0  0
   -1.1595   63.1343  190.6219 C   0  0  0  0  0  0  0  0  0  0  0  0
   -0.0267   63.5764  189.9573 C   0  0  0  0  0  0  0  0  0  0  0  0
    0.9907   66.4468  189.1454 C   0  0  0  0  0  0  0  0  0  0  0  0
    0.2338   66.8695  188.0562 N   0  0  0  0  0  0  0  0  0  0  0  0
   -0.2016   68.1610  188.1420 C   0  0  0  0  0  0  0  0  0  0  0  0
    0.2464   68.6119  189.3008 N   0  0  0  0  0  0  0  0  0  0  0  0
    1.0105   67.5785  189.9428 N   0  0  0  0  0  0  0  0  0  0  0  0
    1.5701   67.9807  191.2632 C   0  0  0  0  0  0  0  0  0  0  0  0
 14  3  2  0  0  0
  3 15  1  0  0  0
  3 13  1  0  0  0
 15  1  1  0  0  0
  8 13  2  0  0  0
  8 11  1  0  0  0
 13 10  1  0  0  0
 12 11  1  0  0  0
 11  7  2  0  0  0
  1  9  2  0  0  0
 10  9  1  0  0  0
 10  6  2  0  0  0
  9  4  1  0  0  0
  7  6  1  0  0  0
  6  2  1  0  0  0
 30 29  1  0  0  0
  4 25  1  0  0  0
  4  5  1  0  0  0
  2  5  1  0  0  0
 29 25  1  0  0  0
 29 28  1  0  0  0
 22 18  2  0  0  0
 22 24  1  0  0  0
 25 26  2  0  0  0
  5 24  1  0  0  0
 18 21  1  0  0  0
 28 27  2  0  0  0
 24 23  2  0  0  0
 26 27  1  0  0  0
 21 20  1  0  0  0
 21 19  2  0  0  0
 23 19  1  0  0  0
  2 16  1  0  0  0
 15 17  1  0  0  0
M  END
> <minimizedAffinity>
-11.28740

$$$$
4UND_2YQ_A_2011


 30 34  0  0  0  0  0  0  0  0999 V2000
    1.0266   64.2096  191.2979 N   0  0  0  0  0  0  0  0  0  0  0  0
    4.5144   64.6437  188.9610 N   0  0  0  0  0  0  0  0  0  0  0  0
    0.0347   63.0633  189.3637 C   0  0  0  0  0  0  0  0  0  0  0  0
    3.0837   65.0854  191.1704 C   0  0  0  0  0  0  0  0  0  0  0  0
    4.3840   65.2912  190.2793 C   0  0  0  0  0  0  0  0  0  0  0  0
    3.4101   64.0835  188.3937 C   0  0  0  0  0  0  0  0  0  0  0  0
    3.4623   63.6645  187.0585 C   0  0  0  0  0  0  0  0  0  0  0  0
    1.2254   62.8288  187.2971 C   0  0  0  0  0  0  0  0  0  0  0  0
    2.1640   64.3371  190.5505 C   0  0  0  0  0  0  0  0  0  0  0  0
    2.2872   63.9038  189.1810 C   0  0  0  0  0  0  0  0  0  0  0  0
    2.3434   63.0217  186.5063 C   0  0  0  0  0  0  0  0  0  0  0  0
    2.2609   62.5396  185.1102 F   0  0  0  0  0  0  0  0  0  0  0  0
    1.1959   63.2708  188.6045 C   0  0  0  0  0  0  0  0  0  0  0  0
   -0.9110   62.4475  188.8714 O   0  0  0  0  0  0  0  0  0  0  0  0
   -0.0661   63.5459  190.6901 N   0  0  0  0  0  0  0  0  0  0  0  0
    5.3836   64.6169  188.4994 H   0  0  0  0  0  0  0  0  0  0  0  0
   -0.9023   63.4191  191.1940 H   0  0  0  0  0  0  0  0  0  0  0  0
    7.2431   64.2117  192.0868 C   0  0  0  0  0  0  0  0  0  0  0  0
    6.9997   66.5800  192.4179 C   0  0  0  0  0  0  0  0  0  0  0  0
    9.2643   65.3072  193.6988 F   0  0  0  0  0  0  0  0  0  0  0  0
    7.7038   65.3878  192.6336 C   0  0  0  0  0  0  0  0  0  0  0  0
    6.0906   64.2083  191.3496 C   0  0  0  0  0  0  0  0  0  0  0  0
    5.8526   66.5908  191.6667 C   0  0  0  0  0  0  0  0  0  0  0  0
    5.3735   65.3833  191.1839 C   0  0  0  0  0  0  0  0  0  0  0  0
    2.4308   66.4959  191.3735 C   0  0  0  0  0  0  0  0  0  0  0  0
    2.1739   67.1059  192.5982 N   0  0  0  0  0  0  0  0  0  0  0  0
    1.5715   68.3277  192.5017 C   0  0  0  0  0  0  0  0  0  0  0  0
    1.4341   68.5561  191.2072 N   0  0  0  0  0  0  0  0  0  0  0  0
    1.9390   67.4277  190.4753 N   0  0  0  0  0  0  0  0  0  0  0  0
    1.8304   67.5760  188.9973 C   0  0  0  0  0  0  0  0  0  0  0  0
 14  3  2  0  0  0
  3 15  1  0  0  0
  3 13  1  0  0  0
 15  1  1  0  0  0
  8 13  2  0  0  0
  8 11  1  0  0  0
 13 10  1  0  0  0
 12 11  1  0  0  0
 11  7  2  0  0  0
  1  9  2  0  0  0
 10  9  1  0  0  0
 10  6  2  0  0  0
  9  4  1  0  0  0
  7  6  1  0  0  0
  6  2  1  0  0  0
 30 29  1  0  0  0
  4 25  1  0  0  0
  4  5  1  0  0  0
  2  5  1  0  0  0
 29 25  1  0  0  0
 29 28  1  0  0  0
 22 18  2  0  0  0
 22 24  1  0  0  0
 25 26  2  0  0  0
  5 24  1  0  0  0
 18 21  1  0  0  0
 28 27  2  0  0  0
 24 23  2  0  0  0
 26 27  1  0  0  0
 21 20  1  0  0  0
 21 19  2  0  0  0
 23 19  1  0  0  0
  2 16  1  0  0  0
 15 17  1  0  0  0
M  END
> <minimizedAffinity>
-10.77090

$$$$
4UND_2YQ_A_2011


 30 34  0  0  0  0  0  0  0  0999 V2000
    4.8503   64.2927  189.4156 N   0  0  0  0  0  0  0  0  0  0  0  0
    1.0653   65.5357  190.8094 N   0  0  0  0  0  0  0  0  0  0  0  0
    5.8119   65.9581  190.9456 C   0  0  0  0  0  0  0  0  0  0  0  0
    2.6304   64.0950  189.1975 C   0  0  0  0  0  0  0  0  0  0  0  0
    1.2010   64.5903  189.6860 C   0  0  0  0  0  0  0  0  0  0  0  0
    2.1751   66.1869  191.2558 C   0  0  0  0  0  0  0  0  0  0  0  0
    2.0321   67.2431  192.1642 C   0  0  0  0  0  0  0  0  0  0  0  0
    4.4246   67.4053  192.2586 C   0  0  0  0  0  0  0  0  0  0  0  0
    3.6233   64.6803  189.8768 C   0  0  0  0  0  0  0  0  0  0  0  0
    3.4134   65.7425  190.8288 C   0  0  0  0  0  0  0  0  0  0  0  0
    3.1859   67.8586  192.6742 C   0  0  0  0  0  0  0  0  0  0  0  0
    3.1779   68.9884  193.6290 F   0  0  0  0  0  0  0  0  0  0  0  0
    4.5340   66.3750  191.3464 C   0  0  0  0  0  0  0  0  0  0  0  0
    6.8069   66.4781  191.4510 O   0  0  0  0  0  0  0  0  0  0  0  0
    5.9771   64.9441  189.9724 N   0  0  0  0  0  0  0  0  0  0  0  0
    0.1887   65.6933  191.2290 H   0  0  0  0  0  0  0  0  0  0  0  0
    6.8822   64.6898  189.6805 H   0  0  0  0  0  0  0  0  0  0  0  0
   -1.5609   62.4397  190.2809 C   0  0  0  0  0  0  0  0  0  0  0  0
   -0.6237   61.8782  188.1397 C   0  0  0  0  0  0  0  0  0  0  0  0
   -2.9489   60.3717  188.9845 F   0  0  0  0  0  0  0  0  0  0  0  0
   -1.5941   61.6829  189.1317 C   0  0  0  0  0  0  0  0  0  0  0  0
   -0.5708   63.3672  190.4576 C   0  0  0  0  0  0  0  0  0  0  0  0
    0.3631   62.8167  188.2994 C   0  0  0  0  0  0  0  0  0  0  0  0
    0.4141   63.5181  189.4936 C   0  0  0  0  0  0  0  0  0  0  0  0
    2.7964   64.5507  187.7069 C   0  0  0  0  0  0  0  0  0  0  0  0
    3.1273   63.7263  186.6351 N   0  0  0  0  0  0  0  0  0  0  0  0
    3.2369   64.3766  185.4393 C   0  0  0  0  0  0  0  0  0  0  0  0
    2.9629   65.6438  185.6962 N   0  0  0  0  0  0  0  0  0  0  0  0
    2.7046   65.7925  187.1016 N   0  0  0  0  0  0  0  0  0  0  0  0
    2.3861   67.1899  187.5069 C   0  0  0  0  0  0  0  0  0  0  0  0
 14  3  2  0  0  0
  3 15  1  0  0  0
  3 13  1  0  0  0
 15  1  1  0  0  0
  8 13  2  0  0  0
  8 11  1  0  0  0
 13 10  1  0  0  0
 12 11  1  0  0  0
 11  7  2  0  0  0
  1  9  2  0  0  0
 10  9  1  0  0  0
 10  6  2  0  0  0
  9  4  1  0  0  0
  7  6  1  0  0  0
  6  2  1  0  0  0
 30 29  1  0  0  0
  4 25  1  0  0  0
  4  5  1  0  0  0
  2  5  1  0  0  0
 29 25  1  0  0  0
 29 28  1  0  0  0
 22 18  2  0  0  0
 22 24  1  0  0  0
 25 26  2  0  0  0
  5 24  1  0  0  0
 18 21  1  0  0  0
 28 27  2  0  0  0
 24 23  2  0  0  0
 26 27  1  0  0  0
 21 20  1  0  0  0
 21 19  2  0  0  0
 23 19  1  0  0  0
  2 16  1  0  0  0
 15 17  1  0  0  0
M  END
> <minimizedAffinity>
-10.57491

$$$$
4UND_2YQ_A_2011


 30 34  0  0  0  0  0  0  0  0999 V2000
    6.4718   66.9497  187.8104 N   0  0  0  0  0  0  0  0  0  0  0  0
    2.5382   65.4235  187.9161 N   0  0  0  0  0  0  0  0  0  0  0  0
    6.6764   65.9005  185.5977 C   0  0  0  0  0  0  0  0  0  0  0  0
    4.6090   66.6897  189.0258 C   0  0  0  0  0  0  0  0  0  0  0  0
    3.1425   66.0795  189.0902 C   0  0  0  0  0  0  0  0  0  0  0  0
    3.3363   65.1076  186.8585 C   0  0  0  0  0  0  0  0  0  0  0  0
    2.8317   64.2928  185.8374 C   0  0  0  0  0  0  0  0  0  0  0  0
    4.9031   64.5878  184.6620 C   0  0  0  0  0  0  0  0  0  0  0  0
    5.1915   66.4718  187.8413 C   0  0  0  0  0  0  0  0  0  0  0  0
    4.6078   65.6499  186.8106 C   0  0  0  0  0  0  0  0  0  0  0  0
    3.6370   64.0342  184.7172 C   0  0  0  0  0  0  0  0  0  0  0  0
    3.2330   63.1845  183.5757 F   0  0  0  0  0  0  0  0  0  0  0  0
    5.3810   65.3709  185.6934 C   0  0  0  0  0  0  0  0  0  0  0  0
    7.3395   65.7034  184.5792 O   0  0  0  0  0  0  0  0  0  0  0  0
    7.2329   66.6633  186.6517 N   0  0  0  0  0  0  0  0  0  0  0  0
    1.5756   65.2176  187.8969 H   0  0  0  0  0  0  0  0  0  0  0  0
    8.1561   66.9972  186.5786 H   0  0  0  0  0  0  0  0  0  0  0  0
    1.6782   67.1418  192.1453 C   0  0  0  0  0  0  0  0  0  0  0  0
    1.9252   69.0660  190.7259 C   0  0  0  0  0  0  0  0  0  0  0  0
    0.8014   69.5182  193.3570 F   0  0  0  0  0  0  0  0  0  0  0  0
    1.5453   68.4976  191.9492 C   0  0  0  0  0  0  0  0  0  0  0  0
    2.1643   66.3522  191.1394 C   0  0  0  0  0  0  0  0  0  0  0  0
    2.4293   68.2861  189.7170 C   0  0  0  0  0  0  0  0  0  0  0  0
    2.4901   66.9158  189.9153 C   0  0  0  0  0  0  0  0  0  0  0  0
    5.4776   65.9260  190.0838 C   0  0  0  0  0  0  0  0  0  0  0  0
    6.1151   66.4989  191.1808 N   0  0  0  0  0  0  0  0  0  0  0  0
    6.8342   65.6172  191.9361 C   0  0  0  0  0  0  0  0  0  0  0  0
    6.6710   64.4388  191.3604 N   0  0  0  0  0  0  0  0  0  0  0  0
    5.8494   64.5968  190.1925 N   0  0  0  0  0  0  0  0  0  0  0  0
    5.6015   63.3246  189.4587 C   0  0  0  0  0  0  0  0  0  0  0  0
 14  3  2  0  0  0
  3 15  1  0  0  0
  3 13  1  0  0  0
 15  1  1  0  0  0
  8 13  2  0  0  0
  8 11  1  0  0  0
 13 10  1  0  0  0
 12 11  1  0  0  0
 11  7  2  0  0  0
  1  9  2  0  0  0
 10  9  1  0  0  0
 10  6  2  0  0  0
  9  4  1  0  0  0
  7  6  1  0  0  0
  6  2  1  0  0  0
 30 29  1  0  0  0
  4 25  1  0  0  0
  4  5  1  0  0  0
  2  5  1  0  0  0
 29 25  1  0  0  0
 29 28  1  0  0  0
 22 18  2  0  0  0
 22 24  1  0  0  0
 25 26  2  0  0  0
  5 24  1  0  0  0
 18 21  1  0  0  0
 28 27  2  0  0  0
 24 23  2  0  0  0
 26 27  1  0  0  0
 21 20  1  0  0  0
 21 19  2  0  0  0
 23 19  1  0  0  0
  2 16  1  0  0  0
 15 17  1  0  0  0
M  END
> <minimizedAffinity>
-10.28435

$$$$
4UND_2YQ_A_2011


 30 34  0  0  0  0  0  0  0  0999 V2000
    0.3404   63.9831  190.7622 N   0  0  0  0  0  0  0  0  0  0  0  0
    3.7673   63.8683  188.3009 N   0  0  0  0  0  0  0  0  0  0  0  0
   -0.7773   62.6323  189.0403 C   0  0  0  0  0  0  0  0  0  0  0  0
    2.4375   64.7072  190.4576 C   0  0  0  0  0  0  0  0  0  0  0  0
    3.7169   64.7049  189.5140 C   0  0  0  0  0  0  0  0  0  0  0  0
    2.6153   63.2994  187.8487 C   0  0  0  0  0  0  0  0  0  0  0  0
    2.5998   62.6906  186.5876 C   0  0  0  0  0  0  0  0  0  0  0  0
    0.3290   62.0329  187.0007 C   0  0  0  0  0  0  0  0  0  0  0  0
    1.4577   63.9340  189.9761 C   0  0  0  0  0  0  0  0  0  0  0  0
    1.5109   63.3019  188.6814 C   0  0  0  0  0  0  0  0  0  0  0  0
    1.4291   62.0432  186.1626 C   0  0  0  0  0  0  0  0  0  0  0  0
    1.2736   61.3715  184.8539 F   0  0  0  0  0  0  0  0  0  0  0  0
    0.3676   62.6591  188.2303 C   0  0  0  0  0  0  0  0  0  0  0  0
   -1.7716   62.0099  188.6663 O   0  0  0  0  0  0  0  0  0  0  0  0
   -0.8070   63.3055  190.2846 N   0  0  0  0  0  0  0  0  0  0  0  0
    4.6178   63.7236  187.8266 H   0  0  0  0  0  0  0  0  0  0  0  0
   -1.6318   63.3025  190.8222 H   0  0  0  0  0  0  0  0  0  0  0  0
    6.3751   66.4363  191.1088 C   0  0  0  0  0  0  0  0  0  0  0  0
    5.8445   64.5001  192.4308 C   0  0  0  0  0  0  0  0  0  0  0  0
    7.9493   66.2244  193.4241 F   0  0  0  0  0  0  0  0  0  0  0  0
    6.5935   65.6672  192.2291 C   0  0  0  0  0  0  0  0  0  0  0  0
    5.4399   66.0492  190.1882 C   0  0  0  0  0  0  0  0  0  0  0  0
    4.8931   64.1119  191.5229 C   0  0  0  0  0  0  0  0  0  0  0  0
    4.7395   64.8667  190.3707 C   0  0  0  0  0  0  0  0  0  0  0  0
    1.8710   66.1687  190.4699 C   0  0  0  0  0  0  0  0  0  0  0  0
    1.8368   67.0199  191.5709 N   0  0  0  0  0  0  0  0  0  0  0  0
    1.2653   68.2353  191.3238 C   0  0  0  0  0  0  0  0  0  0  0  0
    0.9255   68.2162  190.0466 N   0  0  0  0  0  0  0  0  0  0  0  0
    1.2685   66.9376  189.4887 N   0  0  0  0  0  0  0  0  0  0  0  0
    0.9246   66.8026  188.0458 C   0  0  0  0  0  0  0  0  0  0  0  0
 14  3  2  0  0  0
  3 15  1  0  0  0
  3 13  1  0  0  0
 15  1  1  0  0  0
  8 13  2  0  0  0
  8 11  1  0  0  0
 13 10  1  0  0  0
 12 11  1  0  0  0
 11  7  2  0  0  0
  1  9  2  0  0  0
 10  9  1  0  0  0
 10  6  2  0  0  0
  9  4  1  0  0  0
  7  6  1  0  0  0
  6  2  1  0  0  0
 30 29  1  0  0  0
  4 25  1  0  0  0
  4  5  1  0  0  0
  2  5  1  0  0  0
 29 25  1  0  0  0
 29 28  1  0  0  0
 22 18  2  0  0  0
 22 24  1  0  0  0
 25 26  2  0  0  0
  5 24  1  0  0  0
 18 21  1  0  0  0
 28 27  2  0  0  0
 24 23  2  0  0  0
 26 27  1  0  0  0
 21 20  1  0  0  0
 21 19  2  0  0  0
 23 19  1  0  0  0
  2 16  1  0  0  0
 15 17  1  0  0  0
M  END
> <minimizedAffinity>
-10.11581

$$$$
4UND_2YQ_A_2011


 30 34  0  0  0  0  0  0  0  0999 V2000
    2.8569   67.2342  189.4648 N   0  0  0  0  0  0  0  0  0  0  0  0
    2.9515   63.5219  187.4587 N   0  0  0  0  0  0  0  0  0  0  0  0
    4.7237   67.9122  188.0177 C   0  0  0  0  0  0  0  0  0  0  0  0
    2.0283   65.1566  189.3558 C   0  0  0  0  0  0  0  0  0  0  0  0
    2.0890   63.7414  188.6344 C   0  0  0  0  0  0  0  0  0  0  0  0
    3.8935   64.4570  187.1532 C   0  0  0  0  0  0  0  0  0  0  0  0
    4.8607   64.1652  186.1834 C   0  0  0  0  0  0  0  0  0  0  0  0
    5.7054   66.3965  186.4422 C   0  0  0  0  0  0  0  0  0  0  0  0
    2.8728   66.0366  188.8060 C   0  0  0  0  0  0  0  0  0  0  0  0
    3.8263   65.6868  187.7828 C   0  0  0  0  0  0  0  0  0  0  0  0
    5.7810   65.1620  185.8234 C   0  0  0  0  0  0  0  0  0  0  0  0
    6.8574   64.9844  184.8245 F   0  0  0  0  0  0  0  0  0  0  0  0
    4.7533   66.6486  187.4094 C   0  0  0  0  0  0  0  0  0  0  0  0
    5.5069   68.7852  187.6431 O   0  0  0  0  0  0  0  0  0  0  0  0
    3.8036   68.2027  189.0528 N   0  0  0  0  0  0  0  0  0  0  0  0
    2.8483   62.7146  186.9049 H   0  0  0  0  0  0  0  0  0  0  0  0
    3.8219   69.0848  189.4896 H   0  0  0  0  0  0  0  0  0  0  0  0
   -0.7145   61.7159  187.8312 C   0  0  0  0  0  0  0  0  0  0  0  0
   -1.0716   62.6547  190.0150 C   0  0  0  0  0  0  0  0  0  0  0  0
   -3.1276   60.8842  189.0012 F   0  0  0  0  0  0  0  0  0  0  0  0
   -1.4908   61.8308  188.9619 C   0  0  0  0  0  0  0  0  0  0  0  0
    0.4545   62.4199  187.7328 C   0  0  0  0  0  0  0  0  0  0  0  0
    0.1065   63.3516  189.9338 C   0  0  0  0  0  0  0  0  0  0  0  0
    0.8361   63.2715  188.7582 C   0  0  0  0  0  0  0  0  0  0  0  0
    2.5174   64.9485  190.8305 C   0  0  0  0  0  0  0  0  0  0  0  0
    3.4138   63.9746  191.2616 N   0  0  0  0  0  0  0  0  0  0  0  0
    3.6549   63.9887  192.6057 C   0  0  0  0  0  0  0  0  0  0  0  0
    2.9331   64.9859  193.0869 N   0  0  0  0  0  0  0  0  0  0  0  0
    2.1960   65.5924  192.0132 N   0  0  0  0  0  0  0  0  0  0  0  0
    1.3401   66.7326  192.4443 C   0  0  0  0  0  0  0  0  0  0  0  0
 14  3  2  0  0  0
  3 15  1  0  0  0
  3 13  1  0  0  0
 15  1  1  0  0  0
  8 13  2  0  0  0
  8 11  1  0  0  0
 13 10  1  0  0  0
 12 11  1  0  0  0
 11  7  2  0  0  0
  1  9  2  0  0  0
 10  9  1  0  0  0
 10  6  2  0  0  0
  9  4  1  0  0  0
  7  6  1  0  0  0
  6  2  1  0  0  0
 30 29  1  0  0  0
  4 25  1  0  0  0
  4  5  1  0  0  0
  2  5  1  0  0  0
 29 25  1  0  0  0
 29 28  1  0  0  0
 22 18  2  0  0  0
 22 24  1  0  0  0
 25 26  2  0  0  0
  5 24  1  0  0  0
 18 21  1  0  0  0
 28 27  2  0  0  0
 24 23  2  0  0  0
 26 27  1  0  0  0
 21 20  1  0  0  0
 21 19  2  0  0  0
 23 19  1  0  0  0
  2 16  1  0  0  0
 15 17  1  0  0  0
M  END
> <minimizedAffinity>
-9.88318

$$$$
4UND_2YQ_A_2011


 30 34  0  0  0  0  0  0  0  0999 V2000
    2.7918   67.2121  191.4374 N   0  0  0  0  0  0  0  0  0  0  0  0
    1.5983   65.9886  187.5782 N   0  0  0  0  0  0  0  0  0  0  0  0
    3.1092   69.4541  190.4825 C   0  0  0  0  0  0  0  0  0  0  0  0
    2.1918   65.4936  190.1328 C   0  0  0  0  0  0  0  0  0  0  0  0
    1.7846   65.0173  188.6719 C   0  0  0  0  0  0  0  0  0  0  0  0
    2.0323   67.2673  187.7562 C   0  0  0  0  0  0  0  0  0  0  0  0
    2.0665   68.1389  186.6606 C   0  0  0  0  0  0  0  0  0  0  0  0
    2.7765   69.8831  188.1483 C   0  0  0  0  0  0  0  0  0  0  0  0
    2.3882   66.8156  190.1930 C   0  0  0  0  0  0  0  0  0  0  0  0
    2.3775   67.6717  189.0330 C   0  0  0  0  0  0  0  0  0  0  0  0
    2.4450   69.4744  186.8694 C   0  0  0  0  0  0  0  0  0  0  0  0
    2.5337   70.4946  185.8020 F   0  0  0  0  0  0  0  0  0  0  0  0
    2.7528   68.9958  189.2056 C   0  0  0  0  0  0  0  0  0  0  0  0
    3.3831   70.6431  190.6467 O   0  0  0  0  0  0  0  0  0  0  0  0
    3.1541   68.5721  191.5883 N   0  0  0  0  0  0  0  0  0  0  0  0
    1.1682   65.7178  186.7350 H   0  0  0  0  0  0  0  0  0  0  0  0
    3.4395   68.9069  192.4691 H   0  0  0  0  0  0  0  0  0  0  0  0
   -0.8446   63.2076  190.2274 C   0  0  0  0  0  0  0  0  0  0  0  0
   -0.2323   62.0515  188.2108 C   0  0  0  0  0  0  0  0  0  0  0  0
   -2.3966   60.9141  189.7638 F   0  0  0  0  0  0  0  0  0  0  0  0
   -1.0433   62.1679  189.3477 C   0  0  0  0  0  0  0  0  0  0  0  0
    0.1549   64.1132  189.9975 C   0  0  0  0  0  0  0  0  0  0  0  0
    0.7613   62.9631  187.9620 C   0  0  0  0  0  0  0  0  0  0  0  0
    0.9847   63.9612  188.8972 C   0  0  0  0  0  0  0  0  0  0  0  0
    3.5733   64.8337  190.4692 C   0  0  0  0  0  0  0  0  0  0  0  0
    4.6483   64.7032  189.5944 N   0  0  0  0  0  0  0  0  0  0  0  0
    5.7313   64.0640  190.1267 C   0  0  0  0  0  0  0  0  0  0  0  0
    5.3975   63.7744  191.3723 N   0  0  0  0  0  0  0  0  0  0  0  0
    4.0533   64.2201  191.6137 N   0  0  0  0  0  0  0  0  0  0  0  0
    3.5689   63.9401  192.9941 C   0  0  0  0  0  0  0  0  0  0  0  0
 14  3  2  0  0  0
  3 15  1  0  0  0
  3 13  1  0  0  0
 15  1  1  0  0  0
  8 13  2  0  0  0
  8 11  1  0  0  0
 13 10  1  0  0  0
 12 11  1  0  0  0
 11  7  2  0  0  0
  1  9  2  0  0  0
 10  9  1  0  0  0
 10  6  2  0  0  0
  9  4  1  0  0  0
  7  6  1  0  0  0
  6  2  1  0  0  0
 30 29  1  0  0  0
  4 25  1  0  0  0
  4  5  1  0  0  0
  2  5  1  0  0  0
 29 25  1  0  0  0
 29 28  1  0  0  0
 22 18  2  0  0  0
 22 24  1  0  0  0
 25 26  2  0  0  0
  5 24  1  0  0  0
 18 21  1  0  0  0
 28 27  2  0  0  0
 24 23  2  0  0  0
 26 27  1  0  0  0
 21 20  1  0  0  0
 21 19  2  0  0  0
 23 19  1  0  0  0
  2 16  1  0  0  0
 15 17  1  0  0  0
M  END
> <minimizedAffinity>
-9.77429

$$$$
4UND_2YQ_A_2011


 30 34  0  0  0  0  0  0  0  0999 V2000
    4.0911   67.1681  190.5836 N   0  0  0  0  0  0  0  0  0  0  0  0
    3.5805   64.9498  187.0293 N   0  0  0  0  0  0  0  0  0  0  0  0
    2.3938   65.7001  191.5853 C   0  0  0  0  0  0  0  0  0  0  0  0
    4.6362   66.9679  188.4208 C   0  0  0  0  0  0  0  0  0  0  0  0
    4.4154   66.1646  187.0669 C   0  0  0  0  0  0  0  0  0  0  0  0
    2.7863   64.6669  188.0991 C   0  0  0  0  0  0  0  0  0  0  0  0
    1.8296   63.6498  187.9934 C   0  0  0  0  0  0  0  0  0  0  0  0
    1.2830   64.0077  190.3026 C   0  0  0  0  0  0  0  0  0  0  0  0
    3.9413   66.4414  189.4356 C   0  0  0  0  0  0  0  0  0  0  0  0
    2.9925   65.3681  189.2734 C   0  0  0  0  0  0  0  0  0  0  0  0
    1.0675   63.3168  189.1242 C   0  0  0  0  0  0  0  0  0  0  0  0
    0.0191   62.2735  189.1479 F   0  0  0  0  0  0  0  0  0  0  0  0
    2.2196   65.0195  190.3711 C   0  0  0  0  0  0  0  0  0  0  0  0
    1.7515   65.3501  192.5755 O   0  0  0  0  0  0  0  0  0  0  0  0
    3.3012   66.7807  191.6926 N   0  0  0  0  0  0  0  0  0  0  0  0
    3.5968   64.3543  186.2455 H   0  0  0  0  0  0  0  0  0  0  0  0
    3.3837   67.2666  192.5448 H   0  0  0  0  0  0  0  0  0  0  0  0
    7.8158   67.1108  186.6814 C   0  0  0  0  0  0  0  0  0  0  0  0
    7.2534   65.6002  184.8981 C   0  0  0  0  0  0  0  0  0  0  0  0
    9.9794   66.5765  184.9733 F   0  0  0  0  0  0  0  0  0  0  0  0
    8.1928   66.3966  185.5668 C   0  0  0  0  0  0  0  0  0  0  0  0
    6.5218   67.0539  187.1217 C   0  0  0  0  0  0  0  0  0  0  0  0
    5.9579   65.5229  185.3408 C   0  0  0  0  0  0  0  0  0  0  0  0
    5.5875   66.3035  186.4244 C   0  0  0  0  0  0  0  0  0  0  0  0
    4.0631   68.4108  188.2045 C   0  0  0  0  0  0  0  0  0  0  0  0
    4.7647   69.6005  188.3784 N   0  0  0  0  0  0  0  0  0  0  0  0
    4.0262   70.7265  188.1514 C   0  0  0  0  0  0  0  0  0  0  0  0
    2.8238   70.3003  187.8056 N   0  0  0  0  0  0  0  0  0  0  0  0
    2.8045   68.8645  187.8483 N   0  0  0  0  0  0  0  0  0  0  0  0
    1.4889   68.2725  187.4779 C   0  0  0  0  0  0  0  0  0  0  0  0
 14  3  2  0  0  0
  3 15  1  0  0  0
  3 13  1  0  0  0
 15  1  1  0  0  0
  8 13  2  0  0  0
  8 11  1  0  0  0
 13 10  1  0  0  0
 12 11  1  0  0  0
 11  7  2  0  0  0
  1  9  2  0  0  0
 10  9  1  0  0  0
 10  6  2  0  0  0
  9  4  1  0  0  0
  7  6  1  0  0  0
  6  2  1  0  0  0
 30 29  1  0  0  0
  4 25  1  0  0  0
  4  5  1  0  0  0
  2  5  1  0  0  0
 29 25  1  0  0  0
 29 28  1  0  0  0
 22 18  2  0  0  0
 22 24  1  0  0  0
 25 26  2  0  0  0
  5 24  1  0  0  0
 18 21  1  0  0  0
 28 27  2  0  0  0
 24 23  2  0  0  0
 26 27  1  0  0  0
 21 20  1  0  0  0
 21 19  2  0  0  0
 23 19  1  0  0  0
  2 16  1  0  0  0
 15 17  1  0  0  0
M  END
> <minimizedAffinity>
-9.75454

$$$$
4UND_2YQ_A_2011


 30 34  0  0  0  0  0  0  0  0999 V2000
    4.2039   68.3396  189.9568 N   0  0  0  0  0  0  0  0  0  0  0  0
    3.7140   64.1475  189.9282 N   0  0  0  0  0  0  0  0  0  0  0  0
    4.7457   68.1257  192.3442 C   0  0  0  0  0  0  0  0  0  0  0  0
    3.5982   66.5452  188.7617 C   0  0  0  0  0  0  0  0  0  0  0  0
    3.3687   64.9722  188.7557 C   0  0  0  0  0  0  0  0  0  0  0  0
    3.9830   64.7686  191.1102 C   0  0  0  0  0  0  0  0  0  0  0  0
    4.0938   64.0033  192.2777 C   0  0  0  0  0  0  0  0  0  0  0  0
    4.6622   66.0094  193.4658 C   0  0  0  0  0  0  0  0  0  0  0  0
    4.0610   66.9802  189.9392 C   0  0  0  0  0  0  0  0  0  0  0  0
    4.1872   66.1366  191.1014 C   0  0  0  0  0  0  0  0  0  0  0  0
    4.4439   64.6439  193.4766 C   0  0  0  0  0  0  0  0  0  0  0  0
    4.5843   63.9589  194.7801 F   0  0  0  0  0  0  0  0  0  0  0  0
    4.5260   66.7409  192.3030 C   0  0  0  0  0  0  0  0  0  0  0  0
    5.1058   68.6526  193.3971 O   0  0  0  0  0  0  0  0  0  0  0  0
    4.5652   68.9280  191.1926 N   0  0  0  0  0  0  0  0  0  0  0  0
    3.7495   63.1661  189.8580 H   0  0  0  0  0  0  0  0  0  0  0  0
    4.6918   69.9025  191.2513 H   0  0  0  0  0  0  0  0  0  0  0  0
    2.6438   63.5643  185.5778 C   0  0  0  0  0  0  0  0  0  0  0  0
    4.5874   64.9604  185.3511 C   0  0  0  0  0  0  0  0  0  0  0  0
    3.6301   63.6528  182.9504 F   0  0  0  0  0  0  0  0  0  0  0  0
    3.6234   64.1161  184.7839 C   0  0  0  0  0  0  0  0  0  0  0  0
    2.6254   63.8283  186.9201 C   0  0  0  0  0  0  0  0  0  0  0  0
    4.5681   65.2451  186.6923 C   0  0  0  0  0  0  0  0  0  0  0  0
    3.6127   64.6239  187.4809 C   0  0  0  0  0  0  0  0  0  0  0  0
    2.1968   67.2207  188.5696 C   0  0  0  0  0  0  0  0  0  0  0  0
    0.9877   66.7446  189.0691 N   0  0  0  0  0  0  0  0  0  0  0  0
   -0.0961   67.5062  188.7370 C   0  0  0  0  0  0  0  0  0  0  0  0
    0.3802   68.5122  188.0242 N   0  0  0  0  0  0  0  0  0  0  0  0
    1.8011   68.3554  187.8822 N   0  0  0  0  0  0  0  0  0  0  0  0
    2.4461   69.4381  187.0883 C   0  0  0  0  0  0  0  0  0  0  0  0
 14  3  2  0  0  0
  3 15  1  0  0  0
  3 13  1  0  0  0
 15  1  1  0  0  0
  8 13  2  0  0  0
  8 11  1  0  0  0
 13 10  1  0  0  0
 12 11  1  0  0  0
 11  7  2  0  0  0
  1  9  2  0  0  0
 10  9  1  0  0  0
 10  6  2  0  0  0
  9  4  1  0  0  0
  7  6  1  0  0  0
  6  2  1  0  0  0
 30 29  1  0  0  0
  4 25  1  0  0  0
  4  5  1  0  0  0
  2  5  1  0  0  0
 29 25  1  0  0  0
 29 28  1  0  0  0
 22 18  2  0  0  0
 22 24  1  0  0  0
 25 26  2  0  0  0
  5 24  1  0  0  0
 18 21  1  0  0  0
 28 27  2  0  0  0
 24 23  2  0  0  0
 26 27  1  0  0  0
 21 20  1  0  0  0
 21 19  2  0  0  0
 23 19  1  0  0  0
  2 16  1  0  0  0
 15 17  1  0  0  0
M  END
> <minimizedAffinity>
-9.74994

$$$$
