1AFK_PAP_A_125


 39 41  0  0  0  0  0  0  0  0999 V2000
   37.6302   -7.3799   19.2181 C   0  0  0  0  0  0  0  0  0  0  0  0
   37.0020   -6.5153   18.2656 O   0  0  0  0  0  0  0  0  0  0  0  0
   38.5086   -8.3725   18.4086 C   0  0  0  0  0  0  0  0  0  0  0  0
   38.6832   -7.6073   17.1024 C   0  0  0  0  0  0  0  0  0  0  0  0
   39.0457   -8.5000   16.0256 O   0  0  0  0  0  0  0  0  0  0  0  0
   37.2268   -7.1134   16.9982 C   0  0  0  0  0  0  0  0  0  0  0  0
   38.4062   -9.2279   15.9799 H   0  0  0  0  0  0  0  0  0  0  0  0
   36.9586   -6.0271   16.0289 N   0  0  0  0  0  0  0  0  0  0  0  0
   36.1201   -6.1843   14.9538 C   0  0  0  0  0  0  0  0  0  0  0  0
   36.0130   -5.1273   14.2044 N   0  0  0  0  0  0  0  0  0  0  0  0
   36.8580   -4.1516   14.8237 C   0  0  0  0  0  0  0  0  0  0  0  0
   37.1628   -2.7639   14.4873 C   0  0  0  0  0  0  0  0  0  0  0  0
   36.7071   -2.1745   13.3649 N   0  0  0  0  0  0  0  0  0  0  0  0
   37.9981   -2.0904   15.3214 N   0  0  0  0  0  0  0  0  0  0  0  0
   38.4984   -2.7504   16.3763 C   0  0  0  0  0  0  0  0  0  0  0  0
   38.3137   -4.0246   16.7987 N   0  0  0  0  0  0  0  0  0  0  0  0
   37.4506   -4.6969   15.9575 C   0  0  0  0  0  0  0  0  0  0  0  0
   36.1021   -2.6645   12.7623 H   0  0  0  0  0  0  0  0  0  0  0  0
   36.9792   -1.2537   13.1472 H   0  0  0  0  0  0  0  0  0  0  0  0
   38.4286   -6.4829   20.1179 C   0  0  0  0  0  0  0  0  0  0  0  0
   37.4828   -5.6585   20.7700 O   0  0  0  0  0  0  0  0  0  0  0  0
   37.6311   -5.3068   22.3526 P   0  0  0  0  0  0  0  0  0  0  0  0
   36.6800   -6.1971   23.0819 O   0  0  0  0  0  0  0  0  0  0  0  0
   39.0720   -5.3547   22.7212 O   0  0  0  0  0  0  0  0  0  0  0  0
   39.1718   -5.1464   23.6633 H   0  0  0  0  0  0  0  0  0  0  0  0
   36.9322   -3.7441   22.5139 O   0  0  0  0  0  0  0  0  0  0  0  0
   37.3350   -2.2908   23.1738 P   0  0  0  0  0  0  0  0  0  0  0  0
   38.7416   -2.0647   22.7848 O   0  0  0  0  0  0  0  0  0  0  0  0
   36.3517   -1.3409   22.5512 O   0  0  0  0  0  0  0  0  0  0  0  0
   37.1393   -2.4659   24.6319 O   0  0  0  0  0  0  0  0  0  0  0  0
   36.5129   -0.4443   22.8844 H   0  0  0  0  0  0  0  0  0  0  0  0
   37.3605   -1.6396   25.0893 H   0  0  0  0  0  0  0  0  0  0  0  0
   37.7722   -9.6123   18.2025 O   0  0  0  0  0  0  0  0  0  0  0  0
   38.5022  -11.1247   18.5132 P   0  0  0  0  0  0  0  0  0  0  0  0
   39.7957  -10.9556   17.8057 O   0  0  0  0  0  0  0  0  0  0  0  0
   38.5907  -11.1422   19.9955 O   0  0  0  0  0  0  0  0  0  0  0  0
   37.5669  -12.1588   17.9748 O   0  0  0  0  0  0  0  0  0  0  0  0
   39.2080  -10.4547   20.2907 H   0  0  0  0  0  0  0  0  0  0  0  0
   37.5469  -12.1039   17.0065 H   0  0  0  0  0  0  0  0  0  0  0  0
 27 28  2  0  0  0
 27 29  1  0  0  0
 27 30  1  0  0  0
 27 26  1  0  0  0
 22 23  2  0  0  0
 22 24  1  0  0  0
 22 26  1  0  0  0
 22 21  1  0  0  0
 21 20  1  0  0  0
 20  1  1  0  0  0
  1  2  1  0  0  0
  1  3  1  0  0  0
  2  6  1  0  0  0
  3 33  1  0  0  0
  3  4  1  0  0  0
 33 34  1  0  0  0
 34 35  2  0  0  0
 34 36  1  0  0  0
 34 37  1  0  0  0
  4  5  1  0  0  0
  4  6  1  0  0  0
  6  8  1  0  0  0
  8  9  1  0  0  0
  8 17  1  0  0  0
  9 10  2  0  0  0
 10 11  1  0  0  0
 11 12  1  0  0  0
 11 17  2  0  0  0
 12 13  1  0  0  0
 12 14  2  0  0  0
 14 15  1  0  0  0
 15 16  2  0  0  0
 16 17  1  0  0  0
 29 31  1  0  0  0
 30 32  1  0  0  0
 24 25  1  0  0  0
 36 38  1  0  0  0
 37 39  1  0  0  0
  5  7  1  0  0  0
 13 18  1  0  0  0
 13 19  1  0  0  0
M  END
> <minimizedAffinity>
-7.62436

$$$$
1AFK_PAP_A_125


 39 41  0  0  0  0  0  0  0  0999 V2000
   38.6889   -4.8759   20.1948 C   0  0  0  0  0  0  0  0  0  0  0  0
   38.4460   -5.1200   18.8053 O   0  0  0  0  0  0  0  0  0  0  0  0
   38.6665   -6.2588   20.9015 C   0  0  0  0  0  0  0  0  0  0  0  0
   38.9346   -7.1903   19.7257 C   0  0  0  0  0  0  0  0  0  0  0  0
   38.4922   -8.5340   20.0204 O   0  0  0  0  0  0  0  0  0  0  0  0
   38.0124   -6.4691   18.7231 C   0  0  0  0  0  0  0  0  0  0  0  0
   37.5670   -8.5133   20.3111 H   0  0  0  0  0  0  0  0  0  0  0  0
   38.1771   -6.8194   17.2942 N   0  0  0  0  0  0  0  0  0  0  0  0
   39.1084   -7.7280   16.8571 C   0  0  0  0  0  0  0  0  0  0  0  0
   39.1169   -7.9019   15.5687 N   0  0  0  0  0  0  0  0  0  0  0  0
   38.0946   -7.0303   15.0742 C   0  0  0  0  0  0  0  0  0  0  0  0
   37.5961   -6.7696   13.7268 C   0  0  0  0  0  0  0  0  0  0  0  0
   38.1601   -7.3103   12.6293 N   0  0  0  0  0  0  0  0  0  0  0  0
   36.5689   -5.8884   13.6029 N   0  0  0  0  0  0  0  0  0  0  0  0
   36.1027   -5.3068   14.7178 C   0  0  0  0  0  0  0  0  0  0  0  0
   36.4718   -5.4434   16.0146 N   0  0  0  0  0  0  0  0  0  0  0  0
   37.5029   -6.3528   16.1348 C   0  0  0  0  0  0  0  0  0  0  0  0
   38.9040   -7.9485   12.7217 H   0  0  0  0  0  0  0  0  0  0  0  0
   37.8282   -7.0673   11.7348 H   0  0  0  0  0  0  0  0  0  0  0  0
   40.0271   -4.2001   20.2617 C   0  0  0  0  0  0  0  0  0  0  0  0
   40.3956   -4.2197   21.6267 O   0  0  0  0  0  0  0  0  0  0  0  0
   40.3007   -2.8736   22.5373 P   0  0  0  0  0  0  0  0  0  0  0  0
   40.5666   -3.2882   23.9467 O   0  0  0  0  0  0  0  0  0  0  0  0
   41.1641   -1.8237   21.9319 O   0  0  0  0  0  0  0  0  0  0  0  0
   41.1149   -1.0163   22.4672 H   0  0  0  0  0  0  0  0  0  0  0  0
   38.6289   -2.4717   22.5389 O   0  0  0  0  0  0  0  0  0  0  0  0
   37.5804   -1.6219   23.4815 P   0  0  0  0  0  0  0  0  0  0  0  0
   38.3529   -0.4636   23.9740 O   0  0  0  0  0  0  0  0  0  0  0  0
   36.4648   -1.2757   22.5368 O   0  0  0  0  0  0  0  0  0  0  0  0
   37.1742   -2.5662   24.5484 O   0  0  0  0  0  0  0  0  0  0  0  0
   35.7878   -0.7661   23.0089 H   0  0  0  0  0  0  0  0  0  0  0  0
   36.5496   -2.1281   25.1474 H   0  0  0  0  0  0  0  0  0  0  0  0
   37.3454   -6.4894   21.4703 O   0  0  0  0  0  0  0  0  0  0  0  0
   36.8283   -5.6339   22.8550 P   0  0  0  0  0  0  0  0  0  0  0  0
   35.9814   -6.6607   23.5114 O   0  0  0  0  0  0  0  0  0  0  0  0
   38.1080   -5.3346   23.5464 O   0  0  0  0  0  0  0  0  0  0  0  0
   36.1375   -4.4066   22.3544 O   0  0  0  0  0  0  0  0  0  0  0  0
   38.5130   -6.1622   23.8497 H   0  0  0  0  0  0  0  0  0  0  0  0
   35.3110   -4.6580   21.9132 H   0  0  0  0  0  0  0  0  0  0  0  0
 27 28  2  0  0  0
 27 29  1  0  0  0
 27 30  1  0  0  0
 27 26  1  0  0  0
 22 23  2  0  0  0
 22 24  1  0  0  0
 22 26  1  0  0  0
 22 21  1  0  0  0
 21 20  1  0  0  0
 20  1  1  0  0  0
  1  2  1  0  0  0
  1  3  1  0  0  0
  2  6  1  0  0  0
  3 33  1  0  0  0
  3  4  1  0  0  0
 33 34  1  0  0  0
 34 35  2  0  0  0
 34 36  1  0  0  0
 34 37  1  0  0  0
  4  5  1  0  0  0
  4  6  1  0  0  0
  6  8  1  0  0  0
  8  9  1  0  0  0
  8 17  1  0  0  0
  9 10  2  0  0  0
 10 11  1  0  0  0
 11 12  1  0  0  0
 11 17  2  0  0  0
 12 13  1  0  0  0
 12 14  2  0  0  0
 14 15  1  0  0  0
 15 16  2  0  0  0
 16 17  1  0  0  0
 29 31  1  0  0  0
 30 32  1  0  0  0
 24 25  1  0  0  0
 36 38  1  0  0  0
 37 39  1  0  0  0
  5  7  1  0  0  0
 13 18  1  0  0  0
 13 19  1  0  0  0
M  END
> <minimizedAffinity>
-7.49303

$$$$
1AFK_PAP_A_125


 39 41  0  0  0  0  0  0  0  0999 V2000
   38.0190   -5.9147   21.1394 C   0  0  0  0  0  0  0  0  0  0  0  0
   37.3567   -5.7758   19.8779 O   0  0  0  0  0  0  0  0  0  0  0  0
   39.5184   -6.1762   20.8299 C   0  0  0  0  0  0  0  0  0  0  0  0
   39.6223   -5.6277   19.4120 C   0  0  0  0  0  0  0  0  0  0  0  0
   40.7698   -6.1787   18.7282 O   0  0  0  0  0  0  0  0  0  0  0  0
   38.2909   -6.2153   18.9039 C   0  0  0  0  0  0  0  0  0  0  0  0
   40.7437   -7.1469   18.7813 H   0  0  0  0  0  0  0  0  0  0  0  0
   37.7684   -5.6774   17.6276 N   0  0  0  0  0  0  0  0  0  0  0  0
   36.8789   -6.3671   16.8422 C   0  0  0  0  0  0  0  0  0  0  0  0
   36.5381   -5.7445   15.7529 N   0  0  0  0  0  0  0  0  0  0  0  0
   37.2621   -4.5102   15.7942 C   0  0  0  0  0  0  0  0  0  0  0  0
   37.3071   -3.3694   14.8841 C   0  0  0  0  0  0  0  0  0  0  0  0
   36.6684   -3.3642   13.6979 N   0  0  0  0  0  0  0  0  0  0  0  0
   38.0890   -2.3174   15.2431 N   0  0  0  0  0  0  0  0  0  0  0  0
   38.7775   -2.4094   16.3903 C   0  0  0  0  0  0  0  0  0  0  0  0
   38.8392   -3.3983   17.3148 N   0  0  0  0  0  0  0  0  0  0  0  0
   38.0293   -4.4555   16.9528 C   0  0  0  0  0  0  0  0  0  0  0  0
   36.1025   -4.1275   13.4402 H   0  0  0  0  0  0  0  0  0  0  0  0
   36.7674   -2.5971   13.0889 H   0  0  0  0  0  0  0  0  0  0  0  0
   37.7827   -4.6241   21.8677 C   0  0  0  0  0  0  0  0  0  0  0  0
   38.3686   -4.7941   23.1433 O   0  0  0  0  0  0  0  0  0  0  0  0
   39.1645   -3.5721   23.8670 P   0  0  0  0  0  0  0  0  0  0  0  0
   39.4948   -4.0324   25.2483 O   0  0  0  0  0  0  0  0  0  0  0  0
   40.2762   -3.1330   22.9808 O   0  0  0  0  0  0  0  0  0  0  0  0
   40.7576   -2.4043   23.4029 H   0  0  0  0  0  0  0  0  0  0  0  0
   37.9657   -2.3647   24.1152 O   0  0  0  0  0  0  0  0  0  0  0  0
   37.4008   -1.0294   23.3356 P   0  0  0  0  0  0  0  0  0  0  0  0
   37.2666    0.0034   24.3827 O   0  0  0  0  0  0  0  0  0  0  0  0
   38.4628   -0.7490   22.3107 O   0  0  0  0  0  0  0  0  0  0  0  0
   36.1098   -1.4505   22.7430 O   0  0  0  0  0  0  0  0  0  0  0  0
   38.2146    0.0332   21.7936 H   0  0  0  0  0  0  0  0  0  0  0  0
   35.7160   -0.7052   22.2631 H   0  0  0  0  0  0  0  0  0  0  0  0
   39.7760   -7.6095   20.8643 O   0  0  0  0  0  0  0  0  0  0  0  0
   41.1462   -8.2323   21.6714 P   0  0  0  0  0  0  0  0  0  0  0  0
   42.1892   -8.0342   20.6344 O   0  0  0  0  0  0  0  0  0  0  0  0
   41.2557   -7.3426   22.8555 O   0  0  0  0  0  0  0  0  0  0  0  0
   40.8124   -9.6434   22.0339 O   0  0  0  0  0  0  0  0  0  0  0  0
   41.4728   -6.4430   22.5649 H   0  0  0  0  0  0  0  0  0  0  0  0
   40.7531  -10.1790   21.2274 H   0  0  0  0  0  0  0  0  0  0  0  0
 27 28  2  0  0  0
 27 29  1  0  0  0
 27 30  1  0  0  0
 27 26  1  0  0  0
 22 23  2  0  0  0
 22 24  1  0  0  0
 22 26  1  0  0  0
 22 21  1  0  0  0
 21 20  1  0  0  0
 20  1  1  0  0  0
  1  2  1  0  0  0
  1  3  1  0  0  0
  2  6  1  0  0  0
  3 33  1  0  0  0
  3  4  1  0  0  0
 33 34  1  0  0  0
 34 35  2  0  0  0
 34 36  1  0  0  0
 34 37  1  0  0  0
  4  5  1  0  0  0
  4  6  1  0  0  0
  6  8  1  0  0  0
  8  9  1  0  0  0
  8 17  1  0  0  0
  9 10  2  0  0  0
 10 11  1  0  0  0
 11 12  1  0  0  0
 11 17  2  0  0  0
 12 13  1  0  0  0
 12 14  2  0  0  0
 14 15  1  0  0  0
 15 16  2  0  0  0
 16 17  1  0  0  0
 29 31  1  0  0  0
 30 32  1  0  0  0
 24 25  1  0  0  0
 36 38  1  0  0  0
 37 39  1  0  0  0
  5  7  1  0  0  0
 13 18  1  0  0  0
 13 19  1  0  0  0
M  END
> <minimizedAffinity>
-7.19557

$$$$
1AFK_PAP_A_125


 39 41  0  0  0  0  0  0  0  0999 V2000
   39.5305   -4.5556   20.5704 C   0  0  0  0  0  0  0  0  0  0  0  0
   38.7418   -4.2748   19.4092 O   0  0  0  0  0  0  0  0  0  0  0  0
   40.9549   -4.9150   20.0663 C   0  0  0  0  0  0  0  0  0  0  0  0
   40.9426   -4.2777   18.6821 C   0  0  0  0  0  0  0  0  0  0  0  0
   41.9500   -4.8698   17.8322 O   0  0  0  0  0  0  0  0  0  0  0  0
   39.5146   -4.7183   18.3044 C   0  0  0  0  0  0  0  0  0  0  0  0
   41.8445   -5.8340   17.8292 H   0  0  0  0  0  0  0  0  0  0  0  0
   38.8979   -4.0509   17.1357 N   0  0  0  0  0  0  0  0  0  0  0  0
   39.1913   -2.7578   16.7813 C   0  0  0  0  0  0  0  0  0  0  0  0
   38.5472   -2.3348   15.7342 N   0  0  0  0  0  0  0  0  0  0  0  0
   37.7346   -3.4423   15.3312 C   0  0  0  0  0  0  0  0  0  0  0  0
   36.7983   -3.6197   14.2251 C   0  0  0  0  0  0  0  0  0  0  0  0
   36.4654   -2.6158   13.3905 N   0  0  0  0  0  0  0  0  0  0  0  0
   36.2029   -4.8352   14.1026 N   0  0  0  0  0  0  0  0  0  0  0  0
   36.4984   -5.7738   15.0138 C   0  0  0  0  0  0  0  0  0  0  0  0
   37.3285   -5.7452   16.0846 N   0  0  0  0  0  0  0  0  0  0  0  0
   37.9430   -4.5142   16.1923 C   0  0  0  0  0  0  0  0  0  0  0  0
   36.8981   -1.7362   13.4813 H   0  0  0  0  0  0  0  0  0  0  0  0
   35.7893   -2.7619   12.6899 H   0  0  0  0  0  0  0  0  0  0  0  0
   39.4952   -3.3050   21.3990 C   0  0  0  0  0  0  0  0  0  0  0  0
   39.7690   -3.7180   22.7234 O   0  0  0  0  0  0  0  0  0  0  0  0
   38.7338   -3.3825   23.9342 P   0  0  0  0  0  0  0  0  0  0  0  0
   37.3866   -3.8478   23.4897 O   0  0  0  0  0  0  0  0  0  0  0  0
   39.2888   -3.9258   25.2035 O   0  0  0  0  0  0  0  0  0  0  0  0
   38.6792   -3.7311   25.9324 H   0  0  0  0  0  0  0  0  0  0  0  0
   38.5978   -1.6684   23.9219 O   0  0  0  0  0  0  0  0  0  0  0  0
   37.5174   -0.5350   23.4138 P   0  0  0  0  0  0  0  0  0  0  0  0
   38.2471    0.2786   22.4205 O   0  0  0  0  0  0  0  0  0  0  0  0
   36.3926   -1.3547   22.8484 O   0  0  0  0  0  0  0  0  0  0  0  0
   37.1425    0.2112   24.6376 O   0  0  0  0  0  0  0  0  0  0  0  0
   35.6967   -0.7648   22.5186 H   0  0  0  0  0  0  0  0  0  0  0  0
   36.5012    0.9028   24.4108 H   0  0  0  0  0  0  0  0  0  0  0  0
   41.0868   -6.3632   19.9822 O   0  0  0  0  0  0  0  0  0  0  0  0
   40.8746   -7.3422   21.3653 P   0  0  0  0  0  0  0  0  0  0  0  0
   39.5131   -7.8776   21.1164 O   0  0  0  0  0  0  0  0  0  0  0  0
   41.9757   -8.3301   21.2338 O   0  0  0  0  0  0  0  0  0  0  0  0
   41.0414   -6.4403   22.5455 O   0  0  0  0  0  0  0  0  0  0  0  0
   41.8186   -8.8875   20.4556 H   0  0  0  0  0  0  0  0  0  0  0  0
   40.2985   -5.8177   22.5841 H   0  0  0  0  0  0  0  0  0  0  0  0
 27 28  2  0  0  0
 27 29  1  0  0  0
 27 30  1  0  0  0
 27 26  1  0  0  0
 22 23  2  0  0  0
 22 24  1  0  0  0
 22 26  1  0  0  0
 22 21  1  0  0  0
 21 20  1  0  0  0
 20  1  1  0  0  0
  1  2  1  0  0  0
  1  3  1  0  0  0
  2  6  1  0  0  0
  3 33  1  0  0  0
  3  4  1  0  0  0
 33 34  1  0  0  0
 34 35  2  0  0  0
 34 36  1  0  0  0
 34 37  1  0  0  0
  4  5  1  0  0  0
  4  6  1  0  0  0
  6  8  1  0  0  0
  8  9  1  0  0  0
  8 17  1  0  0  0
  9 10  2  0  0  0
 10 11  1  0  0  0
 11 12  1  0  0  0
 11 17  2  0  0  0
 12 13  1  0  0  0
 12 14  2  0  0  0
 14 15  1  0  0  0
 15 16  2  0  0  0
 16 17  1  0  0  0
 29 31  1  0  0  0
 30 32  1  0  0  0
 24 25  1  0  0  0
 36 38  1  0  0  0
 37 39  1  0  0  0
  5  7  1  0  0  0
 13 18  1  0  0  0
 13 19  1  0  0  0
M  END
> <minimizedAffinity>
-7.10362

$$$$
1AFK_PAP_A_125


 39 41  0  0  0  0  0  0  0  0999 V2000
   38.4588   -5.4522   20.4965 C   0  0  0  0  0  0  0  0  0  0  0  0
   37.9807   -5.1516   19.1810 O   0  0  0  0  0  0  0  0  0  0  0  0
   39.9629   -5.0659   20.5239 C   0  0  0  0  0  0  0  0  0  0  0  0
   40.0333   -4.0895   19.3561 C   0  0  0  0  0  0  0  0  0  0  0  0
   41.3890   -3.9589   18.8734 O   0  0  0  0  0  0  0  0  0  0  0  0
   39.1392   -4.9028   18.3996 C   0  0  0  0  0  0  0  0  0  0  0  0
   41.7499   -4.8386   18.6812 H   0  0  0  0  0  0  0  0  0  0  0  0
   38.6281   -4.1974   17.2027 N   0  0  0  0  0  0  0  0  0  0  0  0
   39.0032   -2.9168   16.8814 C   0  0  0  0  0  0  0  0  0  0  0  0
   38.4457   -2.4551   15.8014 N   0  0  0  0  0  0  0  0  0  0  0  0
   37.6087   -3.5196   15.3369 C   0  0  0  0  0  0  0  0  0  0  0  0
   36.7354   -3.6433   14.1733 C   0  0  0  0  0  0  0  0  0  0  0  0
   36.5023   -2.6179   13.3311 N   0  0  0  0  0  0  0  0  0  0  0  0
   36.0925   -4.8281   14.0009 N   0  0  0  0  0  0  0  0  0  0  0  0
   36.2867   -5.7871   14.9181 C   0  0  0  0  0  0  0  0  0  0  0  0
   37.0492   -5.8067   16.0382 N   0  0  0  0  0  0  0  0  0  0  0  0
   37.7128   -4.6071   16.1973 C   0  0  0  0  0  0  0  0  0  0  0  0
   36.9693   -1.7606   13.4581 H   0  0  0  0  0  0  0  0  0  0  0  0
   35.8649   -2.7260   12.5886 H   0  0  0  0  0  0  0  0  0  0  0  0
   37.6208   -4.6309   21.4319 C   0  0  0  0  0  0  0  0  0  0  0  0
   38.4671   -4.3091   22.5181 O   0  0  0  0  0  0  0  0  0  0  0  0
   38.0825   -3.1108   23.5507 P   0  0  0  0  0  0  0  0  0  0  0  0
   38.5918   -1.8435   22.9477 O   0  0  0  0  0  0  0  0  0  0  0  0
   36.6346   -3.2081   23.8797 O   0  0  0  0  0  0  0  0  0  0  0  0
   36.3944   -2.4979   24.4952 H   0  0  0  0  0  0  0  0  0  0  0  0
   39.1130   -3.3614   24.9042 O   0  0  0  0  0  0  0  0  0  0  0  0
   40.4341   -4.2693   25.2789 P   0  0  0  0  0  0  0  0  0  0  0  0
   41.0127   -3.6349   26.4804 O   0  0  0  0  0  0  0  0  0  0  0  0
   39.8618   -5.6395   25.5071 O   0  0  0  0  0  0  0  0  0  0  0  0
   41.3048   -4.1887   24.0829 O   0  0  0  0  0  0  0  0  0  0  0  0
   40.5762   -6.2540   25.7370 H   0  0  0  0  0  0  0  0  0  0  0  0
   42.1110   -4.7064   24.2344 H   0  0  0  0  0  0  0  0  0  0  0  0
   40.7710   -6.2516   20.2732 O   0  0  0  0  0  0  0  0  0  0  0  0
   40.9640   -7.4484   21.4762 P   0  0  0  0  0  0  0  0  0  0  0  0
   42.4122   -7.7428   21.3404 O   0  0  0  0  0  0  0  0  0  0  0  0
   40.5799   -6.7257   22.7154 O   0  0  0  0  0  0  0  0  0  0  0  0
   40.0146   -8.5487   21.1274 O   0  0  0  0  0  0  0  0  0  0  0  0
   41.2266   -6.0253   22.8949 H   0  0  0  0  0  0  0  0  0  0  0  0
   40.3110   -8.9858   20.3137 H   0  0  0  0  0  0  0  0  0  0  0  0
 27 28  2  0  0  0
 27 29  1  0  0  0
 27 30  1  0  0  0
 27 26  1  0  0  0
 22 23  2  0  0  0
 22 24  1  0  0  0
 22 26  1  0  0  0
 22 21  1  0  0  0
 21 20  1  0  0  0
 20  1  1  0  0  0
  1  2  1  0  0  0
  1  3  1  0  0  0
  2  6  1  0  0  0
  3 33  1  0  0  0
  3  4  1  0  0  0
 33 34  1  0  0  0
 34 35  2  0  0  0
 34 36  1  0  0  0
 34 37  1  0  0  0
  4  5  1  0  0  0
  4  6  1  0  0  0
  6  8  1  0  0  0
  8  9  1  0  0  0
  8 17  1  0  0  0
  9 10  2  0  0  0
 10 11  1  0  0  0
 11 12  1  0  0  0
 11 17  2  0  0  0
 12 13  1  0  0  0
 12 14  2  0  0  0
 14 15  1  0  0  0
 15 16  2  0  0  0
 16 17  1  0  0  0
 29 31  1  0  0  0
 30 32  1  0  0  0
 24 25  1  0  0  0
 36 38  1  0  0  0
 37 39  1  0  0  0
  5  7  1  0  0  0
 13 18  1  0  0  0
 13 19  1  0  0  0
M  END
> <minimizedAffinity>
-7.03438

$$$$
1AFK_PAP_A_125


 39 41  0  0  0  0  0  0  0  0999 V2000
   38.5086   -4.3149   17.5894 C   0  0  0  0  0  0  0  0  0  0  0  0
   39.2091   -3.0679   17.6487 O   0  0  0  0  0  0  0  0  0  0  0  0
   38.8404   -4.9481   16.2105 C   0  0  0  0  0  0  0  0  0  0  0  0
   40.1281   -4.2144   15.8562 C   0  0  0  0  0  0  0  0  0  0  0  0
   40.3767   -4.2655   14.4338 O   0  0  0  0  0  0  0  0  0  0  0  0
   39.6660   -2.8215   16.3277 C   0  0  0  0  0  0  0  0  0  0  0  0
   39.5930   -3.9502   13.9570 H   0  0  0  0  0  0  0  0  0  0  0  0
   40.7154   -1.7902   16.4903 N   0  0  0  0  0  0  0  0  0  0  0  0
   42.0460   -2.1016   16.6190 C   0  0  0  0  0  0  0  0  0  0  0  0
   42.8218   -1.0684   16.7631 N   0  0  0  0  0  0  0  0  0  0  0  0
   41.9407    0.0594   16.7300 C   0  0  0  0  0  0  0  0  0  0  0  0
   42.1837    1.4962   16.8222 C   0  0  0  0  0  0  0  0  0  0  0  0
   43.4041    2.0092   17.0721 N   0  0  0  0  0  0  0  0  0  0  0  0
   41.1060    2.3175   16.7185 N   0  0  0  0  0  0  0  0  0  0  0  0
   39.8994    1.7534   16.5620 C   0  0  0  0  0  0  0  0  0  0  0  0
   39.5293    0.4528   16.4726 N   0  0  0  0  0  0  0  0  0  0  0  0
   40.6304   -0.3745   16.5606 C   0  0  0  0  0  0  0  0  0  0  0  0
   44.1833    1.4120   17.1467 H   0  0  0  0  0  0  0  0  0  0  0  0
   43.5168    2.9812   17.1801 H   0  0  0  0  0  0  0  0  0  0  0  0
   39.0162   -5.1227   18.7478 C   0  0  0  0  0  0  0  0  0  0  0  0
   38.2205   -4.7439   19.8536 O   0  0  0  0  0  0  0  0  0  0  0  0
   38.6427   -5.1622   21.3692 P   0  0  0  0  0  0  0  0  0  0  0  0
   38.2293   -6.5850   21.5535 O   0  0  0  0  0  0  0  0  0  0  0  0
   40.0710   -4.8049   21.5847 O   0  0  0  0  0  0  0  0  0  0  0  0
   40.3332   -5.0502   22.4858 H   0  0  0  0  0  0  0  0  0  0  0  0
   37.5563   -4.2883   22.3756 O   0  0  0  0  0  0  0  0  0  0  0  0
   37.4161   -2.7653   22.9843 P   0  0  0  0  0  0  0  0  0  0  0  0
   37.6331   -2.9072   24.4382 O   0  0  0  0  0  0  0  0  0  0  0  0
   38.4889   -2.0012   22.2618 O   0  0  0  0  0  0  0  0  0  0  0  0
   36.0450   -2.3346   22.6243 O   0  0  0  0  0  0  0  0  0  0  0  0
   38.4840   -1.0778   22.5588 H   0  0  0  0  0  0  0  0  0  0  0  0
   35.8911   -1.4359   22.9551 H   0  0  0  0  0  0  0  0  0  0  0  0
   37.7755   -4.6363   15.2668 O   0  0  0  0  0  0  0  0  0  0  0  0
   37.1142   -5.8492   14.2628 P   0  0  0  0  0  0  0  0  0  0  0  0
   36.3416   -6.6363   15.2558 O   0  0  0  0  0  0  0  0  0  0  0  0
   36.2954   -5.0642   13.3042 O   0  0  0  0  0  0  0  0  0  0  0  0
   38.2739   -6.5323   13.6129 O   0  0  0  0  0  0  0  0  0  0  0  0
   35.5597   -4.6436   13.7762 H   0  0  0  0  0  0  0  0  0  0  0  0
   38.7726   -7.0284   14.2807 H   0  0  0  0  0  0  0  0  0  0  0  0
 27 28  2  0  0  0
 27 29  1  0  0  0
 27 30  1  0  0  0
 27 26  1  0  0  0
 22 23  2  0  0  0
 22 24  1  0  0  0
 22 26  1  0  0  0
 22 21  1  0  0  0
 21 20  1  0  0  0
 20  1  1  0  0  0
  1  2  1  0  0  0
  1  3  1  0  0  0
  2  6  1  0  0  0
  3 33  1  0  0  0
  3  4  1  0  0  0
 33 34  1  0  0  0
 34 35  2  0  0  0
 34 36  1  0  0  0
 34 37  1  0  0  0
  4  5  1  0  0  0
  4  6  1  0  0  0
  6  8  1  0  0  0
  8  9  1  0  0  0
  8 17  1  0  0  0
  9 10  2  0  0  0
 10 11  1  0  0  0
 11 12  1  0  0  0
 11 17  2  0  0  0
 12 13  1  0  0  0
 12 14  2  0  0  0
 14 15  1  0  0  0
 15 16  2  0  0  0
 16 17  1  0  0  0
 29 31  1  0  0  0
 30 32  1  0  0  0
 24 25  1  0  0  0
 36 38  1  0  0  0
 37 39  1  0  0  0
  5  7  1  0  0  0
 13 18  1  0  0  0
 13 19  1  0  0  0
M  END
> <minimizedAffinity>
-6.91163

$$$$
1AFK_PAP_A_125


 39 41  0  0  0  0  0  0  0  0999 V2000
   38.5490   -5.9037   20.7571 C   0  0  0  0  0  0  0  0  0  0  0  0
   37.7468   -5.5564   19.6234 O   0  0  0  0  0  0  0  0  0  0  0  0
   39.7347   -6.7521   20.2219 C   0  0  0  0  0  0  0  0  0  0  0  0
   39.7475   -6.3405   18.7547 C   0  0  0  0  0  0  0  0  0  0  0  0
   40.4284   -7.3269   17.9478 O   0  0  0  0  0  0  0  0  0  0  0  0
   38.2190   -6.3658   18.5573 C   0  0  0  0  0  0  0  0  0  0  0  0
   40.0441   -8.2019   18.1141 H   0  0  0  0  0  0  0  0  0  0  0  0
   37.6928   -5.7091   17.3393 N   0  0  0  0  0  0  0  0  0  0  0  0
   36.7756   -6.3082   16.5125 C   0  0  0  0  0  0  0  0  0  0  0  0
   36.4359   -5.5874   15.4852 N   0  0  0  0  0  0  0  0  0  0  0  0
   37.1911   -4.3787   15.6194 C   0  0  0  0  0  0  0  0  0  0  0  0
   37.2524   -3.1661   14.8084 C   0  0  0  0  0  0  0  0  0  0  0  0
   36.5979   -3.0450   13.6371 N   0  0  0  0  0  0  0  0  0  0  0  0
   38.0653   -2.1673   15.2427 N   0  0  0  0  0  0  0  0  0  0  0  0
   38.7668   -2.3729   16.3671 C   0  0  0  0  0  0  0  0  0  0  0  0
   38.8162   -3.4379   17.2037 N   0  0  0  0  0  0  0  0  0  0  0  0
   37.9751   -4.4409   16.7663 C   0  0  0  0  0  0  0  0  0  0  0  0
   36.0096   -3.7699   13.3247 H   0  0  0  0  0  0  0  0  0  0  0  0
   36.7079   -2.2315   13.0936 H   0  0  0  0  0  0  0  0  0  0  0  0
   38.9813   -4.6013   21.3644 C   0  0  0  0  0  0  0  0  0  0  0  0
   38.3177   -4.5235   22.6106 O   0  0  0  0  0  0  0  0  0  0  0  0
   38.1838   -3.1056   23.3991 P   0  0  0  0  0  0  0  0  0  0  0  0
   38.6487   -2.0443   22.4573 O   0  0  0  0  0  0  0  0  0  0  0  0
   36.8119   -2.9999   23.9655 O   0  0  0  0  0  0  0  0  0  0  0  0
   36.7212   -2.1576   24.4380 H   0  0  0  0  0  0  0  0  0  0  0  0
   39.4186   -3.1593   24.5945 O   0  0  0  0  0  0  0  0  0  0  0  0
   40.3677   -4.2942   25.3165 P   0  0  0  0  0  0  0  0  0  0  0  0
   41.6777   -4.1899   24.6427 O   0  0  0  0  0  0  0  0  0  0  0  0
   40.3702   -3.8789   26.7602 O   0  0  0  0  0  0  0  0  0  0  0  0
   39.6737   -5.5811   25.0771 O   0  0  0  0  0  0  0  0  0  0  0  0
   40.9124   -4.4980   27.2738 H   0  0  0  0  0  0  0  0  0  0  0  0
   40.1823   -6.3024   25.4795 H   0  0  0  0  0  0  0  0  0  0  0  0
   39.4234   -8.1670   20.3730 O   0  0  0  0  0  0  0  0  0  0  0  0
   40.6135   -9.2725   20.9006 P   0  0  0  0  0  0  0  0  0  0  0  0
   39.7684  -10.4443   21.2399 O   0  0  0  0  0  0  0  0  0  0  0  0
   41.4621   -9.4344   19.6927 O   0  0  0  0  0  0  0  0  0  0  0  0
   41.3314   -8.6067   22.0299 O   0  0  0  0  0  0  0  0  0  0  0  0
   40.9497   -9.8698   18.9935 H   0  0  0  0  0  0  0  0  0  0  0  0
   40.7342   -8.5263   22.7900 H   0  0  0  0  0  0  0  0  0  0  0  0
 27 28  2  0  0  0
 27 29  1  0  0  0
 27 30  1  0  0  0
 27 26  1  0  0  0
 22 23  2  0  0  0
 22 24  1  0  0  0
 22 26  1  0  0  0
 22 21  1  0  0  0
 21 20  1  0  0  0
 20  1  1  0  0  0
  1  2  1  0  0  0
  1  3  1  0  0  0
  2  6  1  0  0  0
  3 33  1  0  0  0
  3  4  1  0  0  0
 33 34  1  0  0  0
 34 35  2  0  0  0
 34 36  1  0  0  0
 34 37  1  0  0  0
  4  5  1  0  0  0
  4  6  1  0  0  0
  6  8  1  0  0  0
  8  9  1  0  0  0
  8 17  1  0  0  0
  9 10  2  0  0  0
 10 11  1  0  0  0
 11 12  1  0  0  0
 11 17  2  0  0  0
 12 13  1  0  0  0
 12 14  2  0  0  0
 14 15  1  0  0  0
 15 16  2  0  0  0
 16 17  1  0  0  0
 29 31  1  0  0  0
 30 32  1  0  0  0
 24 25  1  0  0  0
 36 38  1  0  0  0
 37 39  1  0  0  0
  5  7  1  0  0  0
 13 18  1  0  0  0
 13 19  1  0  0  0
M  END
> <minimizedAffinity>
-6.79817

$$$$
1AFK_PAP_A_125


 39 41  0  0  0  0  0  0  0  0999 V2000
   40.2711   -4.5307   20.3479 C   0  0  0  0  0  0  0  0  0  0  0  0
   39.4410   -3.9005   19.3664 O   0  0  0  0  0  0  0  0  0  0  0  0
   40.7388   -5.8799   19.7371 C   0  0  0  0  0  0  0  0  0  0  0  0
   40.5362   -5.6117   18.2508 C   0  0  0  0  0  0  0  0  0  0  0  0
   40.4394   -6.8494   17.5114 O   0  0  0  0  0  0  0  0  0  0  0  0
   39.1778   -4.8967   18.3902 C   0  0  0  0  0  0  0  0  0  0  0  0
   39.7594   -7.4131   17.9122 H   0  0  0  0  0  0  0  0  0  0  0  0
   38.6998   -4.1372   17.2129 N   0  0  0  0  0  0  0  0  0  0  0  0
   39.1179   -2.8596   16.9362 C   0  0  0  0  0  0  0  0  0  0  0  0
   38.5850   -2.3459   15.8674 N   0  0  0  0  0  0  0  0  0  0  0  0
   37.7189   -3.3676   15.3621 C   0  0  0  0  0  0  0  0  0  0  0  0
   36.8526   -3.4260   14.1882 C   0  0  0  0  0  0  0  0  0  0  0  0
   36.6594   -2.3672   13.3779 N   0  0  0  0  0  0  0  0  0  0  0  0
   36.1742   -4.5837   13.9725 N   0  0  0  0  0  0  0  0  0  0  0  0
   36.3299   -5.5774   14.8595 C   0  0  0  0  0  0  0  0  0  0  0  0
   37.0813   -5.6572   15.9844 N   0  0  0  0  0  0  0  0  0  0  0  0
   37.7811   -4.4851   16.1875 C   0  0  0  0  0  0  0  0  0  0  0  0
   37.1521   -1.5297   13.5364 H   0  0  0  0  0  0  0  0  0  0  0  0
   36.0256   -2.4310   12.6273 H   0  0  0  0  0  0  0  0  0  0  0  0
   41.3994   -3.5745   20.6017 C   0  0  0  0  0  0  0  0  0  0  0  0
   41.1030   -2.9556   21.8381 O   0  0  0  0  0  0  0  0  0  0  0  0
   40.2051   -1.5990   21.8995 P   0  0  0  0  0  0  0  0  0  0  0  0
   40.6803   -0.8221   23.0826 O   0  0  0  0  0  0  0  0  0  0  0  0
   40.2333   -0.9448   20.5634 O   0  0  0  0  0  0  0  0  0  0  0  0
   39.7007   -0.1344   20.5889 H   0  0  0  0  0  0  0  0  0  0  0  0
   38.6410   -2.1387   22.3675 O   0  0  0  0  0  0  0  0  0  0  0  0
   37.4883   -1.7271   23.4683 P   0  0  0  0  0  0  0  0  0  0  0  0
   37.3897   -2.8860   24.3784 O   0  0  0  0  0  0  0  0  0  0  0  0
   38.0385   -0.4796   24.0990 O   0  0  0  0  0  0  0  0  0  0  0  0
   36.2639   -1.4897   22.6688 O   0  0  0  0  0  0  0  0  0  0  0  0
   37.4188   -0.1571   24.7719 H   0  0  0  0  0  0  0  0  0  0  0  0
   35.5356   -1.2403   23.2590 H   0  0  0  0  0  0  0  0  0  0  0  0
   39.8692   -6.9501   20.2062 O   0  0  0  0  0  0  0  0  0  0  0  0
   40.5042   -8.4889   20.5876 P   0  0  0  0  0  0  0  0  0  0  0  0
   41.0194   -8.2415   21.9571 O   0  0  0  0  0  0  0  0  0  0  0  0
   39.3046   -9.3612   20.5121 O   0  0  0  0  0  0  0  0  0  0  0  0
   41.5146   -8.7980   19.5304 O   0  0  0  0  0  0  0  0  0  0  0  0
   38.6841   -9.1193   21.2173 H   0  0  0  0  0  0  0  0  0  0  0  0
   42.2741   -8.2021   19.6251 H   0  0  0  0  0  0  0  0  0  0  0  0
 27 28  2  0  0  0
 27 29  1  0  0  0
 27 30  1  0  0  0
 27 26  1  0  0  0
 22 23  2  0  0  0
 22 24  1  0  0  0
 22 26  1  0  0  0
 22 21  1  0  0  0
 21 20  1  0  0  0
 20  1  1  0  0  0
  1  2  1  0  0  0
  1  3  1  0  0  0
  2  6  1  0  0  0
  3 33  1  0  0  0
  3  4  1  0  0  0
 33 34  1  0  0  0
 34 35  2  0  0  0
 34 36  1  0  0  0
 34 37  1  0  0  0
  4  5  1  0  0  0
  4  6  1  0  0  0
  6  8  1  0  0  0
  8  9  1  0  0  0
  8 17  1  0  0  0
  9 10  2  0  0  0
 10 11  1  0  0  0
 11 12  1  0  0  0
 11 17  2  0  0  0
 12 13  1  0  0  0
 12 14  2  0  0  0
 14 15  1  0  0  0
 15 16  2  0  0  0
 16 17  1  0  0  0
 29 31  1  0  0  0
 30 32  1  0  0  0
 24 25  1  0  0  0
 36 38  1  0  0  0
 37 39  1  0  0  0
  5  7  1  0  0  0
 13 18  1  0  0  0
 13 19  1  0  0  0
M  END
> <minimizedAffinity>
-6.77992

$$$$
1AFK_PAP_A_125


 39 41  0  0  0  0  0  0  0  0999 V2000
   38.0327   -5.2459   18.5296 C   0  0  0  0  0  0  0  0  0  0  0  0
   37.7331   -6.5374   17.9896 O   0  0  0  0  0  0  0  0  0  0  0  0
   38.5818   -5.4782   19.9637 C   0  0  0  0  0  0  0  0  0  0  0  0
   39.0242   -6.9336   19.8733 C   0  0  0  0  0  0  0  0  0  0  0  0
   39.1222   -7.5260   21.1875 O   0  0  0  0  0  0  0  0  0  0  0  0
   37.7977   -7.4360   19.0864 C   0  0  0  0  0  0  0  0  0  0  0  0
   38.2894   -7.3904   21.6662 H   0  0  0  0  0  0  0  0  0  0  0  0
   37.9096   -8.7718   18.4583 N   0  0  0  0  0  0  0  0  0  0  0  0
   37.7941   -8.9655   17.1044 C   0  0  0  0  0  0  0  0  0  0  0  0
   37.9093  -10.2063   16.7335 N   0  0  0  0  0  0  0  0  0  0  0  0
   38.1245  -10.9335   17.9477 C   0  0  0  0  0  0  0  0  0  0  0  0
   38.3438  -12.3521   18.2147 C   0  0  0  0  0  0  0  0  0  0  0  0
   38.2733  -13.2896   17.2497 N   0  0  0  0  0  0  0  0  0  0  0  0
   38.5539  -12.7169   19.5069 N   0  0  0  0  0  0  0  0  0  0  0  0
   38.5233  -11.7572   20.4432 C   0  0  0  0  0  0  0  0  0  0  0  0
   38.3223  -10.4208   20.3422 N   0  0  0  0  0  0  0  0  0  0  0  0
   38.1275  -10.0551   19.0258 C   0  0  0  0  0  0  0  0  0  0  0  0
   38.1210  -13.0227   16.3144 H   0  0  0  0  0  0  0  0  0  0  0  0
   38.3742  -14.2415   17.4799 H   0  0  0  0  0  0  0  0  0  0  0  0
   39.0440   -4.6407   17.6007 C   0  0  0  0  0  0  0  0  0  0  0  0
   38.4054   -3.5204   17.0205 O   0  0  0  0  0  0  0  0  0  0  0  0
   38.4146   -3.2955   15.4082 P   0  0  0  0  0  0  0  0  0  0  0  0
   37.8798   -1.9233   15.1624 O   0  0  0  0  0  0  0  0  0  0  0  0
   39.7656   -3.6346   14.8847 O   0  0  0  0  0  0  0  0  0  0  0  0
   39.7821   -3.5039   13.9237 H   0  0  0  0  0  0  0  0  0  0  0  0
   37.1713   -4.3287   14.8221 O   0  0  0  0  0  0  0  0  0  0  0  0
   37.0046   -5.9053   14.3788 P   0  0  0  0  0  0  0  0  0  0  0  0
   38.3742   -6.4578   14.3886 O   0  0  0  0  0  0  0  0  0  0  0  0
   36.0935   -6.4688   15.4320 O   0  0  0  0  0  0  0  0  0  0  0  0
   36.3882   -5.8605   13.0324 O   0  0  0  0  0  0  0  0  0  0  0  0
   35.9345   -7.4087   15.2527 H   0  0  0  0  0  0  0  0  0  0  0  0
   36.2594   -6.7646   12.7055 H   0  0  0  0  0  0  0  0  0  0  0  0
   37.5024   -5.3110   20.9274 O   0  0  0  0  0  0  0  0  0  0  0  0
   37.7580   -4.4640   22.3883 P   0  0  0  0  0  0  0  0  0  0  0  0
   38.7709   -3.4696   21.9553 O   0  0  0  0  0  0  0  0  0  0  0  0
   36.4118   -3.9086   22.6794 O   0  0  0  0  0  0  0  0  0  0  0  0
   38.1955   -5.4824   23.3910 O   0  0  0  0  0  0  0  0  0  0  0  0
   36.1779   -3.2556   22.0012 H   0  0  0  0  0  0  0  0  0  0  0  0
   39.0770   -5.8111   23.1545 H   0  0  0  0  0  0  0  0  0  0  0  0
 27 28  2  0  0  0
 27 29  1  0  0  0
 27 30  1  0  0  0
 27 26  1  0  0  0
 22 23  2  0  0  0
 22 24  1  0  0  0
 22 26  1  0  0  0
 22 21  1  0  0  0
 21 20  1  0  0  0
 20  1  1  0  0  0
  1  2  1  0  0  0
  1  3  1  0  0  0
  2  6  1  0  0  0
  3 33  1  0  0  0
  3  4  1  0  0  0
 33 34  1  0  0  0
 34 35  2  0  0  0
 34 36  1  0  0  0
 34 37  1  0  0  0
  4  5  1  0  0  0
  4  6  1  0  0  0
  6  8  1  0  0  0
  8  9  1  0  0  0
  8 17  1  0  0  0
  9 10  2  0  0  0
 10 11  1  0  0  0
 11 12  1  0  0  0
 11 17  2  0  0  0
 12 13  1  0  0  0
 12 14  2  0  0  0
 14 15  1  0  0  0
 15 16  2  0  0  0
 16 17  1  0  0  0
 29 31  1  0  0  0
 30 32  1  0  0  0
 24 25  1  0  0  0
 36 38  1  0  0  0
 37 39  1  0  0  0
  5  7  1  0  0  0
 13 18  1  0  0  0
 13 19  1  0  0  0
M  END
> <minimizedAffinity>
-6.66475

$$$$
1AFK_PAP_A_125


 39 41  0  0  0  0  0  0  0  0999 V2000
   39.2082   -3.9364   20.4489 C   0  0  0  0  0  0  0  0  0  0  0  0
   38.7965   -4.7604   19.3531 O   0  0  0  0  0  0  0  0  0  0  0  0
   38.4991   -4.4902   21.7149 C   0  0  0  0  0  0  0  0  0  0  0  0
   38.1701   -5.9089   21.2664 C   0  0  0  0  0  0  0  0  0  0  0  0
   37.1029   -6.4680   22.0641 O   0  0  0  0  0  0  0  0  0  0  0  0
   37.7130   -5.5358   19.8424 C   0  0  0  0  0  0  0  0  0  0  0  0
   36.3454   -5.8621   22.0610 H   0  0  0  0  0  0  0  0  0  0  0  0
   37.5888   -6.6449   18.8698 N   0  0  0  0  0  0  0  0  0  0  0  0
   37.1378   -6.4578   17.5870 C   0  0  0  0  0  0  0  0  0  0  0  0
   37.0847   -7.5466   16.8785 N   0  0  0  0  0  0  0  0  0  0  0  0
   37.5429   -8.5792   17.7579 C   0  0  0  0  0  0  0  0  0  0  0  0
   37.7342  -10.0143   17.5687 C   0  0  0  0  0  0  0  0  0  0  0  0
   37.3760  -10.6490   16.4357 N   0  0  0  0  0  0  0  0  0  0  0  0
   38.2282  -10.7201   18.6198 N   0  0  0  0  0  0  0  0  0  0  0  0
   38.4830  -10.0568   19.7573 C   0  0  0  0  0  0  0  0  0  0  0  0
   38.3446   -8.7465   20.0741 N   0  0  0  0  0  0  0  0  0  0  0  0
   37.8596   -8.0330   18.9969 C   0  0  0  0  0  0  0  0  0  0  0  0
   37.0184  -10.1354   15.6757 H   0  0  0  0  0  0  0  0  0  0  0  0
   37.4718  -11.6265   16.3678 H   0  0  0  0  0  0  0  0  0  0  0  0
   40.7029   -4.0557   20.5092 C   0  0  0  0  0  0  0  0  0  0  0  0
   41.2005   -2.7717   20.1879 O   0  0  0  0  0  0  0  0  0  0  0  0
   41.6566   -2.4085   18.6680 P   0  0  0  0  0  0  0  0  0  0  0  0
   42.4429   -1.1417   18.7461 O   0  0  0  0  0  0  0  0  0  0  0  0
   42.2989   -3.6058   18.0613 O   0  0  0  0  0  0  0  0  0  0  0  0
   42.5748   -3.4001   17.1544 H   0  0  0  0  0  0  0  0  0  0  0  0
   40.2013   -1.9373   17.8827 O   0  0  0  0  0  0  0  0  0  0  0  0
   39.3887   -2.3048   16.4990 P   0  0  0  0  0  0  0  0  0  0  0  0
   40.3921   -2.9309   15.6146 O   0  0  0  0  0  0  0  0  0  0  0  0
   38.3022   -3.2300   16.9683 O   0  0  0  0  0  0  0  0  0  0  0  0
   38.8789   -1.0067   15.9990 O   0  0  0  0  0  0  0  0  0  0  0  0
   37.7620   -3.5048   16.2110 H   0  0  0  0  0  0  0  0  0  0  0  0
   38.3844   -1.1486   15.1767 H   0  0  0  0  0  0  0  0  0  0  0  0
   37.2890   -3.7196   21.9670 O   0  0  0  0  0  0  0  0  0  0  0  0
   37.2981   -2.4120   23.0655 P   0  0  0  0  0  0  0  0  0  0  0  0
   38.5927   -1.7735   22.7213 O   0  0  0  0  0  0  0  0  0  0  0  0
   36.0901   -1.6460   22.6658 O   0  0  0  0  0  0  0  0  0  0  0  0
   37.1810   -3.0112   24.4297 O   0  0  0  0  0  0  0  0  0  0  0  0
   36.2187   -1.2803   21.7767 H   0  0  0  0  0  0  0  0  0  0  0  0
   37.9932   -3.4981   24.6398 H   0  0  0  0  0  0  0  0  0  0  0  0
 27 28  2  0  0  0
 27 29  1  0  0  0
 27 30  1  0  0  0
 27 26  1  0  0  0
 22 23  2  0  0  0
 22 24  1  0  0  0
 22 26  1  0  0  0
 22 21  1  0  0  0
 21 20  1  0  0  0
 20  1  1  0  0  0
  1  2  1  0  0  0
  1  3  1  0  0  0
  2  6  1  0  0  0
  3 33  1  0  0  0
  3  4  1  0  0  0
 33 34  1  0  0  0
 34 35  2  0  0  0
 34 36  1  0  0  0
 34 37  1  0  0  0
  4  5  1  0  0  0
  4  6  1  0  0  0
  6  8  1  0  0  0
  8  9  1  0  0  0
  8 17  1  0  0  0
  9 10  2  0  0  0
 10 11  1  0  0  0
 11 12  1  0  0  0
 11 17  2  0  0  0
 12 13  1  0  0  0
 12 14  2  0  0  0
 14 15  1  0  0  0
 15 16  2  0  0  0
 16 17  1  0  0  0
 29 31  1  0  0  0
 30 32  1  0  0  0
 24 25  1  0  0  0
 36 38  1  0  0  0
 37 39  1  0  0  0
  5  7  1  0  0  0
 13 18  1  0  0  0
 13 19  1  0  0  0
M  END
> <minimizedAffinity>
-6.66249

$$$$
