4YMG_SAM_A_1001


 33 35  0  0  0  0  0  0  0  0999 V2000
   -4.9145    2.9484  -21.2796 C   0  0  0  0  0  0  0  0  0  0  0  0
   -3.6908    2.2525  -21.4004 O   0  0  0  0  0  0  0  0  0  0  0  0
   -5.6802    2.7078  -22.5774 C   0  0  0  0  0  0  0  0  0  0  0  0
   -5.7224    3.9011  -23.3250 O   0  0  0  0  0  0  0  0  0  0  0  0
   -4.8565    1.6785  -23.3457 C   0  0  0  0  0  0  0  0  0  0  0  0
   -4.8441    1.8760  -24.7455 O   0  0  0  0  0  0  0  0  0  0  0  0
   -3.4804    1.8988  -22.7570 C   0  0  0  0  0  0  0  0  0  0  0  0
   -4.8182    4.2075  -23.4963 H   0  0  0  0  0  0  0  0  0  0  0  0
   -4.5002    2.7610  -24.9441 H   0  0  0  0  0  0  0  0  0  0  0  0
   -2.6523    0.6953  -22.7847 N   0  0  0  0  0  0  0  0  0  0  0  0
   -2.9923   -0.5788  -22.4008 C   0  0  0  0  0  0  0  0  0  0  0  0
   -1.9038   -1.3658  -22.5652 N   0  0  0  0  0  0  0  0  0  0  0  0
   -0.8874   -0.6054  -23.0379 C   0  0  0  0  0  0  0  0  0  0  0  0
    0.4248   -0.8866  -23.3758 C   0  0  0  0  0  0  0  0  0  0  0  0
    0.9133   -2.1238  -23.2671 N   0  0  0  0  0  0  0  0  0  0  0  0
    1.2245    0.1389  -23.8335 N   0  0  0  0  0  0  0  0  0  0  0  0
    0.7460    1.4291  -23.9561 C   0  0  0  0  0  0  0  0  0  0  0  0
   -0.5595    1.7039  -23.6201 N   0  0  0  0  0  0  0  0  0  0  0  0
   -1.3504    0.6984  -23.1672 C   0  0  0  0  0  0  0  0  0  0  0  0
    0.3385   -2.8530  -22.9397 H   0  0  0  0  0  0  0  0  0  0  0  0
    1.8485   -2.3073  -23.5142 H   0  0  0  0  0  0  0  0  0  0  0  0
   -5.6640    2.4458  -20.0458 C   0  0  0  0  0  0  0  0  0  0  0  0
   -6.7198    3.6963  -19.2555 S   0  0  0  0  0  0  0  0  0  0  0  0
   -6.6707    3.0674  -17.5435 C   0  0  0  0  0  0  0  0  0  0  0  0
   -5.5945    5.1183  -19.0657 C   0  0  0  0  0  0  0  0  0  0  0  0
   -6.3385    6.3157  -18.4790 C   0  0  0  0  0  0  0  0  0  0  0  0
   -4.4339    7.6955  -17.6207 N   0  0  0  0  0  0  0  0  0  0  0  0
   -5.6061    7.6630  -18.4928 C   0  0  0  0  0  0  0  0  0  0  0  0
   -3.9945    8.6144  -17.6757 H   0  0  0  0  0  0  0  0  0  0  0  0
   -3.7685    6.9821  -17.9187 H   0  0  0  0  0  0  0  0  0  0  0  0
   -6.5973    8.7626  -18.1549 C   0  0  0  0  0  0  0  0  0  0  0  0
   -7.2615    9.3059  -19.0397 O   0  0  0  0  0  0  0  0  0  0  0  0
   -6.7627    9.1261  -16.9938 O   0  0  0  0  0  0  0  0  0  0  0  0
 27 28  1  0  0  0
 28 31  1  0  0  0
 28 26  1  0  0  0
 31 32  2  0  0  0
 31 33  1  0  0  0
 26 25  1  0  0  0
 25 23  1  0  0  0
 23 24  1  0  0  0
 23 22  1  0  0  0
 22  1  1  0  0  0
  1  2  1  0  0  0
  1  3  1  0  0  0
  2  7  1  0  0  0
  3  4  1  0  0  0
  3  5  1  0  0  0
  5  6  1  0  0  0
  5  7  1  0  0  0
  7 10  1  0  0  0
 10 11  1  0  0  0
 10 19  1  0  0  0
 11 12  2  0  0  0
 12 13  1  0  0  0
 13 14  1  0  0  0
 13 19  2  0  0  0
 14 15  1  0  0  0
 14 16  2  0  0  0
 16 17  1  0  0  0
 17 18  2  0  0  0
 18 19  1  0  0  0
 27 29  1  0  0  0
 27 30  1  0  0  0
  4  8  1  0  0  0
  6  9  1  0  0  0
 15 20  1  0  0  0
 15 21  1  0  0  0
M  CHG 1  23   1
M  CHG 1  33  -1
M  END
> <minimizedAffinity>
-10.48564

$$$$
4YMG_SAM_A_1001


 33 35  0  0  0  0  0  0  0  0999 V2000
   -4.7804    2.9288  -21.1411 C   0  0  0  0  0  0  0  0  0  0  0  0
   -3.5688    2.2267  -21.3293 O   0  0  0  0  0  0  0  0  0  0  0  0
   -5.6063    2.7151  -22.4063 C   0  0  0  0  0  0  0  0  0  0  0  0
   -5.6736    3.9209  -23.1316 O   0  0  0  0  0  0  0  0  0  0  0  0
   -4.8265    1.6931  -23.2282 C   0  0  0  0  0  0  0  0  0  0  0  0
   -4.8765    1.9139  -24.6237 O   0  0  0  0  0  0  0  0  0  0  0  0
   -3.4233    1.8942  -22.6996 C   0  0  0  0  0  0  0  0  0  0  0  0
   -4.7758    4.2240  -23.3391 H   0  0  0  0  0  0  0  0  0  0  0  0
   -4.5354    2.7997  -24.8233 H   0  0  0  0  0  0  0  0  0  0  0  0
   -2.6064    0.6857  -22.7848 N   0  0  0  0  0  0  0  0  0  0  0  0
   -2.9584   -0.6020  -22.4618 C   0  0  0  0  0  0  0  0  0  0  0  0
   -1.8772   -1.3904  -22.6640 N   0  0  0  0  0  0  0  0  0  0  0  0
   -0.8538   -0.6179  -23.1004 C   0  0  0  0  0  0  0  0  0  0  0  0
    0.4558   -0.8949  -23.4519 C   0  0  0  0  0  0  0  0  0  0  0  0
    0.9327   -2.1404  -23.4023 N   0  0  0  0  0  0  0  0  0  0  0  0
    1.2650    0.1437  -23.8607 N   0  0  0  0  0  0  0  0  0  0  0  0
    0.7986    1.4427  -23.9216 C   0  0  0  0  0  0  0  0  0  0  0  0
   -0.5043    1.7134  -23.5723 N   0  0  0  0  0  0  0  0  0  0  0  0
   -1.3046    0.6949  -23.1673 C   0  0  0  0  0  0  0  0  0  0  0  0
    0.3512   -2.8789  -23.1097 H   0  0  0  0  0  0  0  0  0  0  0  0
    1.8661   -2.3206  -23.6583 H   0  0  0  0  0  0  0  0  0  0  0  0
   -5.4766    2.4108  -19.8827 C   0  0  0  0  0  0  0  0  0  0  0  0
   -6.7450    1.1484  -20.1998 S   0  0  0  0  0  0  0  0  0  0  0  0
   -5.6740   -0.3285  -20.2269 C   0  0  0  0  0  0  0  0  0  0  0  0
   -7.5058    0.9146  -18.5593 C   0  0  0  0  0  0  0  0  0  0  0  0
   -7.7274    2.2613  -17.8747 C   0  0  0  0  0  0  0  0  0  0  0  0
   -6.4810    1.4820  -15.8480 N   0  0  0  0  0  0  0  0  0  0  0  0
   -7.5875    2.2952  -16.3479 C   0  0  0  0  0  0  0  0  0  0  0  0
   -6.4432    1.5476  -14.8308 H   0  0  0  0  0  0  0  0  0  0  0  0
   -5.6041    1.8211  -16.2434 H   0  0  0  0  0  0  0  0  0  0  0  0
   -8.9139    1.8954  -15.7259 C   0  0  0  0  0  0  0  0  0  0  0  0
   -8.9940    0.9071  -14.9938 O   0  0  0  0  0  0  0  0  0  0  0  0
   -9.9301    2.5529  -15.9330 O   0  0  0  0  0  0  0  0  0  0  0  0
 27 28  1  0  0  0
 28 31  1  0  0  0
 28 26  1  0  0  0
 31 32  2  0  0  0
 31 33  1  0  0  0
 26 25  1  0  0  0
 25 23  1  0  0  0
 23 24  1  0  0  0
 23 22  1  0  0  0
 22  1  1  0  0  0
  1  2  1  0  0  0
  1  3  1  0  0  0
  2  7  1  0  0  0
  3  4  1  0  0  0
  3  5  1  0  0  0
  5  6  1  0  0  0
  5  7  1  0  0  0
  7 10  1  0  0  0
 10 11  1  0  0  0
 10 19  1  0  0  0
 11 12  2  0  0  0
 12 13  1  0  0  0
 13 14  1  0  0  0
 13 19  2  0  0  0
 14 15  1  0  0  0
 14 16  2  0  0  0
 16 17  1  0  0  0
 17 18  2  0  0  0
 18 19  1  0  0  0
 27 29  1  0  0  0
 27 30  1  0  0  0
  4  8  1  0  0  0
  6  9  1  0  0  0
 15 20  1  0  0  0
 15 21  1  0  0  0
M  CHG 1  23   1
M  CHG 1  33  -1
M  END
> <minimizedAffinity>
-9.86620

$$$$
4YMG_SAM_A_1001


 33 35  0  0  0  0  0  0  0  0999 V2000
   -5.2148    3.2053  -21.6352 C   0  0  0  0  0  0  0  0  0  0  0  0
   -3.9911    2.4991  -21.6411 O   0  0  0  0  0  0  0  0  0  0  0  0
   -5.9083    2.8820  -22.9555 C   0  0  0  0  0  0  0  0  0  0  0  0
   -5.9005    4.0235  -23.7811 O   0  0  0  0  0  0  0  0  0  0  0  0
   -5.0501    1.8016  -23.6069 C   0  0  0  0  0  0  0  0  0  0  0  0
   -4.9581    1.9063  -25.0137 O   0  0  0  0  0  0  0  0  0  0  0  0
   -3.7076    2.0559  -22.9574 C   0  0  0  0  0  0  0  0  0  0  0  0
   -4.9860    4.3151  -23.9209 H   0  0  0  0  0  0  0  0  0  0  0  0
   -4.5975    2.7752  -25.2503 H   0  0  0  0  0  0  0  0  0  0  0  0
   -2.8875    0.8506  -22.8593 N   0  0  0  0  0  0  0  0  0  0  0  0
   -3.2489   -0.3863  -22.3842 C   0  0  0  0  0  0  0  0  0  0  0  0
   -2.1612   -1.1888  -22.4477 N   0  0  0  0  0  0  0  0  0  0  0  0
   -1.1245   -0.4741  -22.9470 C   0  0  0  0  0  0  0  0  0  0  0  0
    0.1960   -0.7877  -23.2172 C   0  0  0  0  0  0  0  0  0  0  0  0
    0.6720   -2.0140  -22.9918 N   0  0  0  0  0  0  0  0  0  0  0  0
    1.0174    0.1933  -23.7305 N   0  0  0  0  0  0  0  0  0  0  0  0
    0.5523    1.4713  -23.9738 C   0  0  0  0  0  0  0  0  0  0  0  0
   -0.7615    1.7784  -23.7047 N   0  0  0  0  0  0  0  0  0  0  0  0
   -1.5739    0.8168  -23.1976 C   0  0  0  0  0  0  0  0  0  0  0  0
    0.0817   -2.7114  -22.6252 H   0  0  0  0  0  0  0  0  0  0  0  0
    1.6133   -2.2212  -23.1921 H   0  0  0  0  0  0  0  0  0  0  0  0
   -6.0356    2.7876  -20.4152 C   0  0  0  0  0  0  0  0  0  0  0  0
   -5.4555    1.2627  -19.6144 S   0  0  0  0  0  0  0  0  0  0  0  0
   -6.4315    1.3619  -18.0760 C   0  0  0  0  0  0  0  0  0  0  0  0
   -6.4092   -0.0347  -20.4698 C   0  0  0  0  0  0  0  0  0  0  0  0
   -5.9968   -1.4184  -19.9728 C   0  0  0  0  0  0  0  0  0  0  0  0
   -7.8610   -2.5093  -21.2389 N   0  0  0  0  0  0  0  0  0  0  0  0
   -6.4731   -2.6219  -20.7953 C   0  0  0  0  0  0  0  0  0  0  0  0
   -8.1140   -3.3375  -21.7778 H   0  0  0  0  0  0  0  0  0  0  0  0
   -7.9651   -1.6791  -21.8224 H   0  0  0  0  0  0  0  0  0  0  0  0
   -6.2331   -3.8888  -19.9932 C   0  0  0  0  0  0  0  0  0  0  0  0
   -5.9615   -3.8322  -18.7923 O   0  0  0  0  0  0  0  0  0  0  0  0
   -6.3130   -4.9938  -20.5226 O   0  0  0  0  0  0  0  0  0  0  0  0
 27 28  1  0  0  0
 28 31  1  0  0  0
 28 26  1  0  0  0
 31 32  2  0  0  0
 31 33  1  0  0  0
 26 25  1  0  0  0
 25 23  1  0  0  0
 23 24  1  0  0  0
 23 22  1  0  0  0
 22  1  1  0  0  0
  1  2  1  0  0  0
  1  3  1  0  0  0
  2  7  1  0  0  0
  3  4  1  0  0  0
  3  5  1  0  0  0
  5  6  1  0  0  0
  5  7  1  0  0  0
  7 10  1  0  0  0
 10 11  1  0  0  0
 10 19  1  0  0  0
 11 12  2  0  0  0
 12 13  1  0  0  0
 13 14  1  0  0  0
 13 19  2  0  0  0
 14 15  1  0  0  0
 14 16  2  0  0  0
 16 17  1  0  0  0
 17 18  2  0  0  0
 18 19  1  0  0  0
 27 29  1  0  0  0
 27 30  1  0  0  0
  4  8  1  0  0  0
  6  9  1  0  0  0
 15 20  1  0  0  0
 15 21  1  0  0  0
M  CHG 1  23   1
M  CHG 1  33  -1
M  END
> <minimizedAffinity>
-9.10884

$$$$
4YMG_SAM_A_1001


 33 35  0  0  0  0  0  0  0  0999 V2000
   -7.2663    1.7952  -18.2708 C   0  0  0  0  0  0  0  0  0  0  0  0
   -7.6388    2.2538  -16.9874 O   0  0  0  0  0  0  0  0  0  0  0  0
   -8.3532    0.8209  -18.7156 C   0  0  0  0  0  0  0  0  0  0  0  0
   -7.8370   -0.4899  -18.7142 O   0  0  0  0  0  0  0  0  0  0  0  0
   -9.4417    0.9188  -17.6508 C   0  0  0  0  0  0  0  0  0  0  0  0
  -10.0785   -0.3094  -17.3602 O   0  0  0  0  0  0  0  0  0  0  0  0
   -8.6496    1.4116  -16.4597 C   0  0  0  0  0  0  0  0  0  0  0  0
   -7.5055   -0.7059  -17.8286 H   0  0  0  0  0  0  0  0  0  0  0  0
   -9.4164   -0.9562  -17.0701 H   0  0  0  0  0  0  0  0  0  0  0  0
   -9.4543    2.2021  -15.5311 N   0  0  0  0  0  0  0  0  0  0  0  0
  -10.7126    1.9294  -15.0528 C   0  0  0  0  0  0  0  0  0  0  0  0
  -11.0812    2.9531  -14.2482 N   0  0  0  0  0  0  0  0  0  0  0  0
  -10.0793    3.8643  -14.2206 C   0  0  0  0  0  0  0  0  0  0  0  0
   -9.9244    5.0790  -13.5759 C   0  0  0  0  0  0  0  0  0  0  0  0
  -10.8817    5.5637  -12.7822 N   0  0  0  0  0  0  0  0  0  0  0  0
   -8.7550    5.7842  -13.7650 N   0  0  0  0  0  0  0  0  0  0  0  0
   -7.7472    5.3073  -14.5808 C   0  0  0  0  0  0  0  0  0  0  0  0
   -7.9049    4.0987  -15.2190 N   0  0  0  0  0  0  0  0  0  0  0  0
   -9.0550    3.4014  -15.0377 C   0  0  0  0  0  0  0  0  0  0  0  0
  -11.7152    5.0566  -12.6501 H   0  0  0  0  0  0  0  0  0  0  0  0
  -10.7544    6.4282  -12.3289 H   0  0  0  0  0  0  0  0  0  0  0  0
   -7.1176    2.9898  -19.2129 C   0  0  0  0  0  0  0  0  0  0  0  0
   -5.7427    4.1019  -18.7935 S   0  0  0  0  0  0  0  0  0  0  0  0
   -4.9535    4.2081  -20.4351 C   0  0  0  0  0  0  0  0  0  0  0  0
   -6.5408    5.7409  -18.7581 C   0  0  0  0  0  0  0  0  0  0  0  0
   -5.4897    6.8484  -18.7428 C   0  0  0  0  0  0  0  0  0  0  0  0
   -6.7634    7.7921  -16.8049 N   0  0  0  0  0  0  0  0  0  0  0  0
   -5.7686    8.0578  -17.8420 C   0  0  0  0  0  0  0  0  0  0  0  0
   -6.9021    8.6324  -16.2435 H   0  0  0  0  0  0  0  0  0  0  0  0
   -6.4366    7.0335  -16.2065 H   0  0  0  0  0  0  0  0  0  0  0  0
   -6.1573    9.2385  -18.7142 C   0  0  0  0  0  0  0  0  0  0  0  0
   -7.3044    9.3484  -19.1511 O   0  0  0  0  0  0  0  0  0  0  0  0
   -5.3394   10.1106  -18.9942 O   0  0  0  0  0  0  0  0  0  0  0  0
 27 28  1  0  0  0
 28 31  1  0  0  0
 28 26  1  0  0  0
 31 32  2  0  0  0
 31 33  1  0  0  0
 26 25  1  0  0  0
 25 23  1  0  0  0
 23 24  1  0  0  0
 23 22  1  0  0  0
 22  1  1  0  0  0
  1  2  1  0  0  0
  1  3  1  0  0  0
  2  7  1  0  0  0
  3  4  1  0  0  0
  3  5  1  0  0  0
  5  6  1  0  0  0
  5  7  1  0  0  0
  7 10  1  0  0  0
 10 11  1  0  0  0
 10 19  1  0  0  0
 11 12  2  0  0  0
 12 13  1  0  0  0
 13 14  1  0  0  0
 13 19  2  0  0  0
 14 15  1  0  0  0
 14 16  2  0  0  0
 16 17  1  0  0  0
 17 18  2  0  0  0
 18 19  1  0  0  0
 27 29  1  0  0  0
 27 30  1  0  0  0
  4  8  1  0  0  0
  6  9  1  0  0  0
 15 20  1  0  0  0
 15 21  1  0  0  0
M  CHG 1  23   1
M  CHG 1  33  -1
M  END
> <minimizedAffinity>
-8.62116

$$$$
4YMG_SAM_A_1001


 33 35  0  0  0  0  0  0  0  0999 V2000
   -7.1861    1.9481  -18.2525 C   0  0  0  0  0  0  0  0  0  0  0  0
   -7.5739    2.3875  -16.9669 O   0  0  0  0  0  0  0  0  0  0  0  0
   -8.2436    0.9456  -18.7054 C   0  0  0  0  0  0  0  0  0  0  0  0
   -7.6896   -0.3497  -18.7115 O   0  0  0  0  0  0  0  0  0  0  0  0
   -9.3362    1.0050  -17.6421 C   0  0  0  0  0  0  0  0  0  0  0  0
   -9.9376   -0.2430  -17.3605 O   0  0  0  0  0  0  0  0  0  0  0  0
   -8.5607    1.5129  -16.4464 C   0  0  0  0  0  0  0  0  0  0  0  0
   -7.3534   -0.5617  -17.8267 H   0  0  0  0  0  0  0  0  0  0  0  0
   -9.2575   -0.8722  -17.0733 H   0  0  0  0  0  0  0  0  0  0  0  0
   -9.3896    2.2738  -15.5143 N   0  0  0  0  0  0  0  0  0  0  0  0
  -10.6441    1.9663  -15.0473 C   0  0  0  0  0  0  0  0  0  0  0  0
  -11.0416    2.9719  -14.2336 N   0  0  0  0  0  0  0  0  0  0  0  0
  -10.0615    3.9058  -14.1892 C   0  0  0  0  0  0  0  0  0  0  0  0
   -9.9392    5.1163  -13.5297 C   0  0  0  0  0  0  0  0  0  0  0  0
  -10.9125    5.5694  -12.7370 N   0  0  0  0  0  0  0  0  0  0  0  0
   -8.7854    5.8507  -13.7032 N   0  0  0  0  0  0  0  0  0  0  0  0
   -7.7615    5.4068  -14.5176 C   0  0  0  0  0  0  0  0  0  0  0  0
   -7.8869    4.2022  -15.1705 N   0  0  0  0  0  0  0  0  0  0  0  0
   -9.0215    3.4763  -15.0047 C   0  0  0  0  0  0  0  0  0  0  0  0
  -11.7347    5.0415  -12.6161 H   0  0  0  0  0  0  0  0  0  0  0  0
  -10.8083    6.4314  -12.2730 H   0  0  0  0  0  0  0  0  0  0  0  0
   -7.0706    3.1526  -19.1866 C   0  0  0  0  0  0  0  0  0  0  0  0
   -6.1788    2.8123  -20.7333 S   0  0  0  0  0  0  0  0  0  0  0  0
   -4.9510    4.1596  -20.6544 C   0  0  0  0  0  0  0  0  0  0  0  0
   -5.0957    1.4172  -20.2803 C   0  0  0  0  0  0  0  0  0  0  0  0
   -4.6053    0.6917  -21.5312 C   0  0  0  0  0  0  0  0  0  0  0  0
   -3.4902    2.0369  -23.3242 N   0  0  0  0  0  0  0  0  0  0  0  0
   -3.2933    1.1871  -22.1517 C   0  0  0  0  0  0  0  0  0  0  0  0
   -2.5834    2.3311  -23.6870 H   0  0  0  0  0  0  0  0  0  0  0  0
   -4.0340    2.8587  -23.0611 H   0  0  0  0  0  0  0  0  0  0  0  0
   -2.4138   -0.0119  -22.4591 C   0  0  0  0  0  0  0  0  0  0  0  0
   -2.7600   -1.1482  -22.1303 O   0  0  0  0  0  0  0  0  0  0  0  0
   -1.3452    0.1257  -23.0482 O   0  0  0  0  0  0  0  0  0  0  0  0
 27 28  1  0  0  0
 28 31  1  0  0  0
 28 26  1  0  0  0
 31 32  2  0  0  0
 31 33  1  0  0  0
 26 25  1  0  0  0
 25 23  1  0  0  0
 23 24  1  0  0  0
 23 22  1  0  0  0
 22  1  1  0  0  0
  1  2  1  0  0  0
  1  3  1  0  0  0
  2  7  1  0  0  0
  3  4  1  0  0  0
  3  5  1  0  0  0
  5  6  1  0  0  0
  5  7  1  0  0  0
  7 10  1  0  0  0
 10 11  1  0  0  0
 10 19  1  0  0  0
 11 12  2  0  0  0
 12 13  1  0  0  0
 13 14  1  0  0  0
 13 19  2  0  0  0
 14 15  1  0  0  0
 14 16  2  0  0  0
 16 17  1  0  0  0
 17 18  2  0  0  0
 18 19  1  0  0  0
 27 29  1  0  0  0
 27 30  1  0  0  0
  4  8  1  0  0  0
  6  9  1  0  0  0
 15 20  1  0  0  0
 15 21  1  0  0  0
M  CHG 1  23   1
M  CHG 1  33  -1
M  END
> <minimizedAffinity>
-8.16844

$$$$
4YMG_SAM_A_1001


 33 35  0  0  0  0  0  0  0  0999 V2000
   -5.3338   -0.3987  -22.9989 C   0  0  0  0  0  0  0  0  0  0  0  0
   -6.2432   -0.0816  -21.9652 O   0  0  0  0  0  0  0  0  0  0  0  0
   -4.1030    0.4756  -22.7769 C   0  0  0  0  0  0  0  0  0  0  0  0
   -4.0368    1.4569  -23.7856 O   0  0  0  0  0  0  0  0  0  0  0  0
   -4.3367    1.1669  -21.4369 C   0  0  0  0  0  0  0  0  0  0  0  0
   -3.8620    2.4973  -21.3821 O   0  0  0  0  0  0  0  0  0  0  0  0
   -5.8460    1.1275  -21.3409 C   0  0  0  0  0  0  0  0  0  0  0  0
   -4.8525    1.9818  -23.7801 H   0  0  0  0  0  0  0  0  0  0  0  0
   -4.2854    3.0207  -22.0805 H   0  0  0  0  0  0  0  0  0  0  0  0
   -6.3260    1.1001  -19.9611 N   0  0  0  0  0  0  0  0  0  0  0  0
   -6.8196    0.0307  -19.2545 C   0  0  0  0  0  0  0  0  0  0  0  0
   -7.1765    0.4741  -18.0269 N   0  0  0  0  0  0  0  0  0  0  0  0
   -6.9220    1.8026  -17.9556 C   0  0  0  0  0  0  0  0  0  0  0  0
   -7.0925    2.7449  -16.9565 C   0  0  0  0  0  0  0  0  0  0  0  0
   -7.5945    2.4043  -15.7678 N   0  0  0  0  0  0  0  0  0  0  0  0
   -6.7292    4.0506  -17.2094 N   0  0  0  0  0  0  0  0  0  0  0  0
   -6.2072    4.4321  -18.4304 C   0  0  0  0  0  0  0  0  0  0  0  0
   -6.0384    3.4917  -19.4204 N   0  0  0  0  0  0  0  0  0  0  0  0
   -6.3962    2.2054  -19.1772 C   0  0  0  0  0  0  0  0  0  0  0  0
   -7.8525    1.4706  -15.5917 H   0  0  0  0  0  0  0  0  0  0  0  0
   -7.7068    3.0866  -15.0670 H   0  0  0  0  0  0  0  0  0  0  0  0
   -5.0166   -1.8934  -22.9545 C   0  0  0  0  0  0  0  0  0  0  0  0
   -6.4696   -2.9686  -23.1440 S   0  0  0  0  0  0  0  0  0  0  0  0
   -5.6139   -4.5420  -23.4924 C   0  0  0  0  0  0  0  0  0  0  0  0
   -6.9639   -3.2928  -21.4191 C   0  0  0  0  0  0  0  0  0  0  0  0
   -5.7714   -3.7882  -20.6042 C   0  0  0  0  0  0  0  0  0  0  0  0
   -6.0539   -3.8634  -18.1177 N   0  0  0  0  0  0  0  0  0  0  0  0
   -6.0820   -4.6308  -19.3611 C   0  0  0  0  0  0  0  0  0  0  0  0
   -6.2676   -4.4792  -17.3331 H   0  0  0  0  0  0  0  0  0  0  0  0
   -6.7477   -3.1171  -18.1629 H   0  0  0  0  0  0  0  0  0  0  0  0
   -5.1306   -5.8137  -19.3213 C   0  0  0  0  0  0  0  0  0  0  0  0
   -4.6522   -6.2018  -18.2538 O   0  0  0  0  0  0  0  0  0  0  0  0
   -4.8260   -6.4115  -20.3497 O   0  0  0  0  0  0  0  0  0  0  0  0
 27 28  1  0  0  0
 28 31  1  0  0  0
 28 26  1  0  0  0
 31 32  2  0  0  0
 31 33  1  0  0  0
 26 25  1  0  0  0
 25 23  1  0  0  0
 23 24  1  0  0  0
 23 22  1  0  0  0
 22  1  1  0  0  0
  1  2  1  0  0  0
  1  3  1  0  0  0
  2  7  1  0  0  0
  3  4  1  0  0  0
  3  5  1  0  0  0
  5  6  1  0  0  0
  5  7  1  0  0  0
  7 10  1  0  0  0
 10 11  1  0  0  0
 10 19  1  0  0  0
 11 12  2  0  0  0
 12 13  1  0  0  0
 13 14  1  0  0  0
 13 19  2  0  0  0
 14 15  1  0  0  0
 14 16  2  0  0  0
 16 17  1  0  0  0
 17 18  2  0  0  0
 18 19  1  0  0  0
 27 29  1  0  0  0
 27 30  1  0  0  0
  4  8  1  0  0  0
  6  9  1  0  0  0
 15 20  1  0  0  0
 15 21  1  0  0  0
M  CHG 1  23   1
M  CHG 1  33  -1
M  END
> <minimizedAffinity>
-8.13173

$$$$
4YMG_SAM_A_1001


 33 35  0  0  0  0  0  0  0  0999 V2000
   -5.2470    1.0759  -22.9277 C   0  0  0  0  0  0  0  0  0  0  0  0
   -6.3407    1.0608  -22.0334 O   0  0  0  0  0  0  0  0  0  0  0  0
   -4.0857    1.7263  -22.1814 C   0  0  0  0  0  0  0  0  0  0  0  0
   -3.8286    2.9978  -22.7309 O   0  0  0  0  0  0  0  0  0  0  0  0
   -4.5772    1.9035  -20.7479 C   0  0  0  0  0  0  0  0  0  0  0  0
   -4.1269    3.0897  -20.1246 O   0  0  0  0  0  0  0  0  0  0  0  0
   -6.0764    1.9346  -20.9488 C   0  0  0  0  0  0  0  0  0  0  0  0
   -4.6317    3.5396  -22.6819 H   0  0  0  0  0  0  0  0  0  0  0  0
   -4.4086    3.8567  -20.6474 H   0  0  0  0  0  0  0  0  0  0  0  0
   -6.8147    1.4453  -19.7868 N   0  0  0  0  0  0  0  0  0  0  0  0
   -7.4751    0.2498  -19.6417 C   0  0  0  0  0  0  0  0  0  0  0  0
   -8.0458    0.2376  -18.4148 N   0  0  0  0  0  0  0  0  0  0  0  0
   -7.7604    1.4067  -17.7931 C   0  0  0  0  0  0  0  0  0  0  0  0
   -8.0855    1.9193  -16.5494 C   0  0  0  0  0  0  0  0  0  0  0  0
   -8.8202    1.2154  -15.6857 N   0  0  0  0  0  0  0  0  0  0  0  0
   -7.6317    3.1768  -16.2128 N   0  0  0  0  0  0  0  0  0  0  0  0
   -6.8697    3.9282  -17.0865 C   0  0  0  0  0  0  0  0  0  0  0  0
   -6.5480    3.4142  -18.3215 N   0  0  0  0  0  0  0  0  0  0  0  0
   -6.9938    2.1776  -18.6586 C   0  0  0  0  0  0  0  0  0  0  0  0
   -9.1421    0.3178  -15.9305 H   0  0  0  0  0  0  0  0  0  0  0  0
   -9.0403    1.5938  -14.8039 H   0  0  0  0  0  0  0  0  0  0  0  0
   -4.9391   -0.3525  -23.3766 C   0  0  0  0  0  0  0  0  0  0  0  0
   -4.0982   -1.3624  -22.1211 S   0  0  0  0  0  0  0  0  0  0  0  0
   -4.8422   -2.9812  -22.5152 C   0  0  0  0  0  0  0  0  0  0  0  0
   -2.4476   -1.6262  -22.8494 C   0  0  0  0  0  0  0  0  0  0  0  0
   -1.4954   -0.5056  -22.4382 C   0  0  0  0  0  0  0  0  0  0  0  0
    0.8940   -0.9447  -23.0435 N   0  0  0  0  0  0  0  0  0  0  0  0
   -0.3231   -0.2097  -23.3815 C   0  0  0  0  0  0  0  0  0  0  0  0
    1.6315   -0.7041  -23.7057 H   0  0  0  0  0  0  0  0  0  0  0  0
    0.7097   -1.9469  -23.0891 H   0  0  0  0  0  0  0  0  0  0  0  0
   -0.0903    1.2905  -23.4175 C   0  0  0  0  0  0  0  0  0  0  0  0
   -0.9721    2.0556  -23.8124 O   0  0  0  0  0  0  0  0  0  0  0  0
    0.9769    1.7711  -23.0463 O   0  0  0  0  0  0  0  0  0  0  0  0
 27 28  1  0  0  0
 28 31  1  0  0  0
 28 26  1  0  0  0
 31 32  2  0  0  0
 31 33  1  0  0  0
 26 25  1  0  0  0
 25 23  1  0  0  0
 23 24  1  0  0  0
 23 22  1  0  0  0
 22  1  1  0  0  0
  1  2  1  0  0  0
  1  3  1  0  0  0
  2  7  1  0  0  0
  3  4  1  0  0  0
  3  5  1  0  0  0
  5  6  1  0  0  0
  5  7  1  0  0  0
  7 10  1  0  0  0
 10 11  1  0  0  0
 10 19  1  0  0  0
 11 12  2  0  0  0
 12 13  1  0  0  0
 13 14  1  0  0  0
 13 19  2  0  0  0
 14 15  1  0  0  0
 14 16  2  0  0  0
 16 17  1  0  0  0
 17 18  2  0  0  0
 18 19  1  0  0  0
 27 29  1  0  0  0
 27 30  1  0  0  0
  4  8  1  0  0  0
  6  9  1  0  0  0
 15 20  1  0  0  0
 15 21  1  0  0  0
M  CHG 1  23   1
M  CHG 1  33  -1
M  END
> <minimizedAffinity>
-8.01861

$$$$
4YMG_SAM_A_1001


 33 35  0  0  0  0  0  0  0  0999 V2000
   -5.1552    2.2050  -20.7723 C   0  0  0  0  0  0  0  0  0  0  0  0
   -3.7654    2.1965  -21.0266 O   0  0  0  0  0  0  0  0  0  0  0  0
   -5.8438    2.0118  -22.1203 C   0  0  0  0  0  0  0  0  0  0  0  0
   -6.4756    3.2123  -22.5004 O   0  0  0  0  0  0  0  0  0  0  0  0
   -4.7191    1.7172  -23.1083 C   0  0  0  0  0  0  0  0  0  0  0  0
   -4.9168    2.2742  -24.3925 O   0  0  0  0  0  0  0  0  0  0  0  0
   -3.5382    2.3617  -22.4161 C   0  0  0  0  0  0  0  0  0  0  0  0
   -5.8197    3.9261  -22.5344 H   0  0  0  0  0  0  0  0  0  0  0  0
   -5.0199    3.2356  -24.3156 H   0  0  0  0  0  0  0  0  0  0  0  0
   -2.2681    1.7182  -22.7439 N   0  0  0  0  0  0  0  0  0  0  0  0
   -1.0695    2.3130  -23.0536 C   0  0  0  0  0  0  0  0  0  0  0  0
   -0.1768    1.3319  -23.3216 N   0  0  0  0  0  0  0  0  0  0  0  0
   -0.7974    0.1349  -23.1922 C   0  0  0  0  0  0  0  0  0  0  0  0
   -0.3707   -1.1723  -23.3485 C   0  0  0  0  0  0  0  0  0  0  0  0
    0.8902   -1.4486  -23.6874 N   0  0  0  0  0  0  0  0  0  0  0  0
   -1.2749   -2.1925  -23.1433 N   0  0  0  0  0  0  0  0  0  0  0  0
   -2.5863   -1.9364  -22.7920 C   0  0  0  0  0  0  0  0  0  0  0  0
   -3.0059   -0.6354  -22.6367 N   0  0  0  0  0  0  0  0  0  0  0  0
   -2.1203    0.3728  -22.8394 C   0  0  0  0  0  0  0  0  0  0  0  0
    1.5325   -0.7167  -23.8330 H   0  0  0  0  0  0  0  0  0  0  0  0
    1.1781   -2.3842  -23.7919 H   0  0  0  0  0  0  0  0  0  0  0  0
   -5.4940    1.1029  -19.7687 C   0  0  0  0  0  0  0  0  0  0  0  0
   -6.7097   -0.1056  -20.3725 S   0  0  0  0  0  0  0  0  0  0  0  0
   -5.9273   -1.6307  -19.7473 C   0  0  0  0  0  0  0  0  0  0  0  0
   -8.0621    0.0356  -19.1578 C   0  0  0  0  0  0  0  0  0  0  0  0
   -8.0670    1.4231  -18.5205 C   0  0  0  0  0  0  0  0  0  0  0  0
   -9.5509    2.1639  -16.6449 N   0  0  0  0  0  0  0  0  0  0  0  0
   -8.3051    1.4911  -17.0070 C   0  0  0  0  0  0  0  0  0  0  0  0
   -9.6486    2.1752  -15.6297 H   0  0  0  0  0  0  0  0  0  0  0  0
  -10.3392    1.6644  -17.0568 H   0  0  0  0  0  0  0  0  0  0  0  0
   -7.0979    2.1371  -16.3502 C   0  0  0  0  0  0  0  0  0  0  0  0
   -6.0960    1.4718  -16.0808 O   0  0  0  0  0  0  0  0  0  0  0  0
   -7.0930    3.3354  -16.0822 O   0  0  0  0  0  0  0  0  0  0  0  0
 27 28  1  0  0  0
 28 31  1  0  0  0
 28 26  1  0  0  0
 31 32  2  0  0  0
 31 33  1  0  0  0
 26 25  1  0  0  0
 25 23  1  0  0  0
 23 24  1  0  0  0
 23 22  1  0  0  0
 22  1  1  0  0  0
  1  2  1  0  0  0
  1  3  1  0  0  0
  2  7  1  0  0  0
  3  4  1  0  0  0
  3  5  1  0  0  0
  5  6  1  0  0  0
  5  7  1  0  0  0
  7 10  1  0  0  0
 10 11  1  0  0  0
 10 19  1  0  0  0
 11 12  2  0  0  0
 12 13  1  0  0  0
 13 14  1  0  0  0
 13 19  2  0  0  0
 14 15  1  0  0  0
 14 16  2  0  0  0
 16 17  1  0  0  0
 17 18  2  0  0  0
 18 19  1  0  0  0
 27 29  1  0  0  0
 27 30  1  0  0  0
  4  8  1  0  0  0
  6  9  1  0  0  0
 15 20  1  0  0  0
 15 21  1  0  0  0
M  CHG 1  23   1
M  CHG 1  33  -1
M  END
> <minimizedAffinity>
-7.93647

$$$$
4YMG_SAM_A_1001


 33 35  0  0  0  0  0  0  0  0999 V2000
   -4.8951   -1.1874  -21.8551 C   0  0  0  0  0  0  0  0  0  0  0  0
   -3.5863   -0.6566  -21.8150 O   0  0  0  0  0  0  0  0  0  0  0  0
   -5.8217   -0.0296  -22.2147 C   0  0  0  0  0  0  0  0  0  0  0  0
   -6.6004    0.3139  -21.0920 O   0  0  0  0  0  0  0  0  0  0  0  0
   -4.8971    1.1385  -22.5443 C   0  0  0  0  0  0  0  0  0  0  0  0
   -5.3848    2.3978  -22.1262 O   0  0  0  0  0  0  0  0  0  0  0  0
   -3.6516    0.7589  -21.7740 C   0  0  0  0  0  0  0  0  0  0  0  0
   -6.0169    0.5413  -20.3512 H   0  0  0  0  0  0  0  0  0  0  0  0
   -5.5389    2.3832  -21.1687 H   0  0  0  0  0  0  0  0  0  0  0  0
   -2.4290    1.2831  -22.3783 N   0  0  0  0  0  0  0  0  0  0  0  0
   -2.0899    2.5939  -22.6090 C   0  0  0  0  0  0  0  0  0  0  0  0
   -0.8822    2.6086  -23.2193 N   0  0  0  0  0  0  0  0  0  0  0  0
   -0.4635    1.3306  -23.3811 C   0  0  0  0  0  0  0  0  0  0  0  0
    0.6744    0.7724  -23.9368 C   0  0  0  0  0  0  0  0  0  0  0  0
    1.6388    1.5408  -24.4472 N   0  0  0  0  0  0  0  0  0  0  0  0
    0.7984   -0.6005  -23.9517 N   0  0  0  0  0  0  0  0  0  0  0  0
   -0.1838   -1.4207  -23.4309 C   0  0  0  0  0  0  0  0  0  0  0  0
   -1.3129   -0.8615  -22.8783 N   0  0  0  0  0  0  0  0  0  0  0  0
   -1.4408    0.4895  -22.8629 C   0  0  0  0  0  0  0  0  0  0  0  0
    1.5460    2.5208  -24.4344 H   0  0  0  0  0  0  0  0  0  0  0  0
    2.4432    1.1276  -24.8365 H   0  0  0  0  0  0  0  0  0  0  0  0
   -4.9486   -2.3287  -22.8706 C   0  0  0  0  0  0  0  0  0  0  0  0
   -6.5906   -3.0861  -23.0533 S   0  0  0  0  0  0  0  0  0  0  0  0
   -6.0786   -4.7292  -23.6592 C   0  0  0  0  0  0  0  0  0  0  0  0
   -7.0227   -3.5395  -21.3409 C   0  0  0  0  0  0  0  0  0  0  0  0
   -5.8302   -4.1875  -20.6411 C   0  0  0  0  0  0  0  0  0  0  0  0
   -6.0398   -3.9108  -18.1617 N   0  0  0  0  0  0  0  0  0  0  0  0
   -6.0968   -4.8469  -19.2825 C   0  0  0  0  0  0  0  0  0  0  0  0
   -6.2250   -4.4102  -17.2918 H   0  0  0  0  0  0  0  0  0  0  0  0
   -6.7416   -3.1820  -18.2913 H   0  0  0  0  0  0  0  0  0  0  0  0
   -5.1337   -6.0073  -19.1042 C   0  0  0  0  0  0  0  0  0  0  0  0
   -4.6473   -6.5784  -20.0821 O   0  0  0  0  0  0  0  0  0  0  0  0
   -4.8143   -6.3939  -17.9833 O   0  0  0  0  0  0  0  0  0  0  0  0
 27 28  1  0  0  0
 28 31  1  0  0  0
 28 26  1  0  0  0
 31 32  2  0  0  0
 31 33  1  0  0  0
 26 25  1  0  0  0
 25 23  1  0  0  0
 23 24  1  0  0  0
 23 22  1  0  0  0
 22  1  1  0  0  0
  1  2  1  0  0  0
  1  3  1  0  0  0
  2  7  1  0  0  0
  3  4  1  0  0  0
  3  5  1  0  0  0
  5  6  1  0  0  0
  5  7  1  0  0  0
  7 10  1  0  0  0
 10 11  1  0  0  0
 10 19  1  0  0  0
 11 12  2  0  0  0
 12 13  1  0  0  0
 13 14  1  0  0  0
 13 19  2  0  0  0
 14 15  1  0  0  0
 14 16  2  0  0  0
 16 17  1  0  0  0
 17 18  2  0  0  0
 18 19  1  0  0  0
 27 29  1  0  0  0
 27 30  1  0  0  0
  4  8  1  0  0  0
  6  9  1  0  0  0
 15 20  1  0  0  0
 15 21  1  0  0  0
M  CHG 1  23   1
M  CHG 1  33  -1
M  END
> <minimizedAffinity>
-7.79201

$$$$
4YMG_SAM_A_1001


 33 35  0  0  0  0  0  0  0  0999 V2000
   -5.3749    0.5344  -20.0688 C   0  0  0  0  0  0  0  0  0  0  0  0
   -5.6084    1.0573  -18.7772 O   0  0  0  0  0  0  0  0  0  0  0  0
   -6.7216    0.0361  -20.5850 C   0  0  0  0  0  0  0  0  0  0  0  0
   -6.7159   -1.3720  -20.6268 O   0  0  0  0  0  0  0  0  0  0  0  0
   -7.7435    0.4903  -19.5469 C   0  0  0  0  0  0  0  0  0  0  0  0
   -8.7934   -0.4307  -19.3276 O   0  0  0  0  0  0  0  0  0  0  0  0
   -6.8765    0.6244  -18.3144 C   0  0  0  0  0  0  0  0  0  0  0  0
   -6.5219   -1.7210  -19.7427 H   0  0  0  0  0  0  0  0  0  0  0  0
   -8.4231   -1.2826  -19.0481 H   0  0  0  0  0  0  0  0  0  0  0  0
   -7.3776    1.6244  -17.3744 N   0  0  0  0  0  0  0  0  0  0  0  0
   -6.7141    2.7083  -16.8534 C   0  0  0  0  0  0  0  0  0  0  0  0
   -7.5539    3.3367  -15.9984 N   0  0  0  0  0  0  0  0  0  0  0  0
   -8.7277    2.6613  -15.9697 C   0  0  0  0  0  0  0  0  0  0  0  0
   -9.9122    2.8543  -15.2806 C   0  0  0  0  0  0  0  0  0  0  0  0
  -10.0625    3.8848  -14.4460 N   0  0  0  0  0  0  0  0  0  0  0  0
  -10.9436    1.9603  -15.4742 N   0  0  0  0  0  0  0  0  0  0  0  0
  -10.8163    0.8845  -16.3317 C   0  0  0  0  0  0  0  0  0  0  0  0
   -9.6373    0.6970  -17.0155 N   0  0  0  0  0  0  0  0  0  0  0  0
   -8.6182    1.5731  -16.8270 C   0  0  0  0  0  0  0  0  0  0  0  0
   -9.3232    4.5207  -14.3108 H   0  0  0  0  0  0  0  0  0  0  0  0
  -10.9128    4.0091  -13.9655 H   0  0  0  0  0  0  0  0  0  0  0  0
   -4.7649    1.6216  -20.9535 C   0  0  0  0  0  0  0  0  0  0  0  0
   -3.7790    0.9856  -22.3415 S   0  0  0  0  0  0  0  0  0  0  0  0
   -4.8077    1.5922  -23.7208 C   0  0  0  0  0  0  0  0  0  0  0  0
   -2.4145    2.1894  -22.4571 C   0  0  0  0  0  0  0  0  0  0  0  0
   -1.4349    1.7849  -23.5564 C   0  0  0  0  0  0  0  0  0  0  0  0
    1.0411    2.1508  -23.6153 N   0  0  0  0  0  0  0  0  0  0  0  0
   -0.0454    1.3145  -23.1095 C   0  0  0  0  0  0  0  0  0  0  0  0
    1.9339    1.7857  -23.2835 H   0  0  0  0  0  0  0  0  0  0  0  0
    0.9189    3.1064  -23.2802 H   0  0  0  0  0  0  0  0  0  0  0  0
    0.1278   -0.1422  -23.5018 C   0  0  0  0  0  0  0  0  0  0  0  0
   -0.7090   -0.9863  -23.1759 O   0  0  0  0  0  0  0  0  0  0  0  0
    1.0998   -0.5062  -24.1580 O   0  0  0  0  0  0  0  0  0  0  0  0
 27 28  1  0  0  0
 28 31  1  0  0  0
 28 26  1  0  0  0
 31 32  2  0  0  0
 31 33  1  0  0  0
 26 25  1  0  0  0
 25 23  1  0  0  0
 23 24  1  0  0  0
 23 22  1  0  0  0
 22  1  1  0  0  0
  1  2  1  0  0  0
  1  3  1  0  0  0
  2  7  1  0  0  0
  3  4  1  0  0  0
  3  5  1  0  0  0
  5  6  1  0  0  0
  5  7  1  0  0  0
  7 10  1  0  0  0
 10 11  1  0  0  0
 10 19  1  0  0  0
 11 12  2  0  0  0
 12 13  1  0  0  0
 13 14  1  0  0  0
 13 19  2  0  0  0
 14 15  1  0  0  0
 14 16  2  0  0  0
 16 17  1  0  0  0
 17 18  2  0  0  0
 18 19  1  0  0  0
 27 29  1  0  0  0
 27 30  1  0  0  0
  4  8  1  0  0  0
  6  9  1  0  0  0
 15 20  1  0  0  0
 15 21  1  0  0  0
M  CHG 1  23   1
M  CHG 1  33  -1
M  END
> <minimizedAffinity>
-7.69180

$$$$
