1KSN_FXV_A_401


 38 40  0  0  0  0  0  0  0  0999 V2000
    4.4071    6.6374   23.3277 C   0  0  0  0  0  0  0  0  0  0  0  0
    3.6181    7.5429   22.3572 C   0  0  0  0  0  0  0  0  0  0  0  0
    4.6849    4.3267   22.5515 C   0  0  0  0  0  0  0  0  0  0  0  0
    5.0592    5.6209   22.5415 N   0  0  0  0  0  0  0  0  0  0  0  0
    3.7512    3.9039   23.2592 O   0  0  0  0  0  0  0  0  0  0  0  0
    5.8153    5.8851   21.9690 H   0  0  0  0  0  0  0  0  0  0  0  0
    6.6983    3.8635   21.0131 C   0  0  0  0  0  0  0  0  0  0  0  0
    5.4437    3.4677   21.6491 C   0  0  0  0  0  0  0  0  0  0  0  0
    4.9174    2.1587   21.3536 C   0  0  0  0  0  0  0  0  0  0  0  0
    5.5924    1.2678   20.4664 C   0  0  0  0  0  0  0  0  0  0  0  0
    6.8225    1.6443   19.8315 C   0  0  0  0  0  0  0  0  0  0  0  0
    7.3543    2.9478   20.1238 C   0  0  0  0  0  0  0  0  0  0  0  0
    6.7891    0.0153   17.8714 C   0  0  0  0  0  0  0  0  0  0  0  0
    7.5229    0.7180   18.8838 C   0  0  0  0  0  0  0  0  0  0  0  0
    8.9488    0.5121   18.9493 C   0  0  0  0  0  0  0  0  0  0  0  0
    9.5933   -0.3733   18.0240 C   0  0  0  0  0  0  0  0  0  0  0  0
    8.8795   -1.0416   17.0599 N   0  0  0  0  0  0  0  0  0  0  0  0
    7.5022   -0.8485   16.9876 C   0  0  0  0  0  0  0  0  0  0  0  0
    9.4901   -1.8840   16.1800 O   0  0  0  0  0  0  0  0  0  0  0  0
    5.5025    7.3878   24.1737 C   0  0  0  0  0  0  0  0  0  0  0  0
    4.8305    8.4533   25.0596 C   0  0  0  0  0  0  0  0  0  0  0  0
    5.1850    9.5794   25.1170 O   0  0  0  0  0  0  0  0  0  0  0  0
    3.7768    7.9378   25.7489 O   0  0  0  0  0  0  0  0  0  0  0  0
    2.5335    8.6322   25.8766 C   0  0  0  0  0  0  0  0  0  0  0  0
    6.6676    8.0289   23.2921 C   0  0  0  0  0  0  0  0  0  0  0  0
    8.3693    7.5936   25.2576 C   0  0  0  0  0  0  0  0  0  0  0  0
    9.6546    7.8463   25.9066 C   0  0  0  0  0  0  0  0  0  0  0  0
   10.5747    8.7821   25.2823 C   0  0  0  0  0  0  0  0  0  0  0  0
   10.2294    9.4384   24.0579 C   0  0  0  0  0  0  0  0  0  0  0  0
    8.9599    9.1824   23.4276 C   0  0  0  0  0  0  0  0  0  0  0  0
    8.0092    8.2611   24.0053 C   0  0  0  0  0  0  0  0  0  0  0  0
   10.0199    7.1806   27.1593 C   0  0  0  0  0  0  0  0  0  0  0  0
   11.2913    7.0869   27.5596 N   0  0  0  0  0  0  0  0  0  0  0  0
    9.0502    6.6551   27.9291 N   0  0  0  0  0  0  0  0  0  0  0  0
   12.0110    7.4672   27.0058 H   0  0  0  0  0  0  0  0  0  0  0  0
   11.5083    6.6376   28.4082 H   0  0  0  0  0  0  0  0  0  0  0  0
    8.1092    6.7171   27.6462 H   0  0  0  0  0  0  0  0  0  0  0  0
    9.2813    6.2085   28.7755 H   0  0  0  0  0  0  0  0  0  0  0  0
 13 14  2  0  0  0
 13 18  1  0  0  0
 14 15  1  0  0  0
 14 11  1  0  0  0
 15 16  2  0  0  0
 16 17  1  0  0  0
 17 18  2  0  0  0
 17 19  1  0  0  0
  7  8  2  0  0  0
  7 12  1  0  0  0
  8  9  1  0  0  0
  8  3  1  0  0  0
  9 10  2  0  0  0
 10 11  1  0  0  0
 11 12  2  0  0  0
  3  4  1  0  0  0
  3  5  2  0  0  0
  4  1  1  0  0  0
  1  2  1  0  0  0
  1 20  1  0  0  0
 20 21  1  0  0  0
 20 25  1  0  0  0
 21 23  1  0  0  0
 21 22  2  0  0  0
 23 24  1  0  0  0
 25 31  1  0  0  0
 26 27  2  0  0  0
 26 31  1  0  0  0
 27 28  1  0  0  0
 27 32  1  0  0  0
 28 29  2  0  0  0
 29 30  1  0  0  0
 30 31  2  0  0  0
 32 33  1  0  0  0
 32 34  2  0  0  0
  4  6  1  0  0  0
 33 35  1  0  0  0
 33 36  1  0  0  0
 34 37  1  0  0  0
 34 38  1  0  0  0
M  CHG 1  17   1
M  CHG 1  19  -1
M  CHG 1  34   1
M  END
> <minimizedAffinity>
-10.94371

$$$$
1KSN_FXV_A_401


 38 40  0  0  0  0  0  0  0  0999 V2000
    4.7231    6.7761   21.8568 C   0  0  0  0  0  0  0  0  0  0  0  0
    3.5768    7.3930   21.0262 C   0  0  0  0  0  0  0  0  0  0  0  0
    5.0268    4.3608   21.5513 C   0  0  0  0  0  0  0  0  0  0  0  0
    5.2140    5.6288   21.1361 N   0  0  0  0  0  0  0  0  0  0  0  0
    4.4261    4.0823   22.6063 O   0  0  0  0  0  0  0  0  0  0  0  0
    5.7104    5.7789   20.2993 H   0  0  0  0  0  0  0  0  0  0  0  0
    4.7301    2.4492   19.8506 C   0  0  0  0  0  0  0  0  0  0  0  0
    5.5616    3.3424   20.6542 C   0  0  0  0  0  0  0  0  0  0  0  0
    6.9930    3.1967   20.5676 C   0  0  0  0  0  0  0  0  0  0  0  0
    7.5915    2.2114   19.7264 C   0  0  0  0  0  0  0  0  0  0  0  0
    6.7878    1.3247   18.9353 C   0  0  0  0  0  0  0  0  0  0  0  0
    5.3592    1.4663   19.0151 C   0  0  0  0  0  0  0  0  0  0  0  0
    8.8214    0.0109   18.1383 C   0  0  0  0  0  0  0  0  0  0  0  0
    7.4136    0.2759   18.0664 C   0  0  0  0  0  0  0  0  0  0  0  0
    6.6263   -0.5045   17.1439 C   0  0  0  0  0  0  0  0  0  0  0  0
    7.2505   -1.5074   16.3314 C   0  0  0  0  0  0  0  0  0  0  0  0
    8.5996   -1.7508   16.4084 N   0  0  0  0  0  0  0  0  0  0  0  0
    9.3685   -1.0033   17.2970 C   0  0  0  0  0  0  0  0  0  0  0  0
    9.1949   -2.7030   15.6365 O   0  0  0  0  0  0  0  0  0  0  0  0
    5.9323    7.7491   22.1216 C   0  0  0  0  0  0  0  0  0  0  0  0
    7.2322    7.1118   21.5968 C   0  0  0  0  0  0  0  0  0  0  0  0
    7.8912    6.3540   22.2202 O   0  0  0  0  0  0  0  0  0  0  0  0
    7.5122    7.5192   20.3292 O   0  0  0  0  0  0  0  0  0  0  0  0
    7.8542    8.8724   20.0190 C   0  0  0  0  0  0  0  0  0  0  0  0
    6.0844    8.1839   23.6491 C   0  0  0  0  0  0  0  0  0  0  0  0
    8.1288    7.7473   25.2547 C   0  0  0  0  0  0  0  0  0  0  0  0
    9.4916    8.0487   25.6895 C   0  0  0  0  0  0  0  0  0  0  0  0
   10.2309    9.0840   24.9870 C   0  0  0  0  0  0  0  0  0  0  0  0
    9.6371    9.7897   23.8922 C   0  0  0  0  0  0  0  0  0  0  0  0
    8.2933    9.4850   23.4727 C   0  0  0  0  0  0  0  0  0  0  0  0
    7.5149    8.4648   24.1358 C   0  0  0  0  0  0  0  0  0  0  0  0
   10.1105    7.3333   26.8081 C   0  0  0  0  0  0  0  0  0  0  0  0
   11.4307    7.1371   26.8713 N   0  0  0  0  0  0  0  0  0  0  0  0
    9.3305    6.8669   27.7996 N   0  0  0  0  0  0  0  0  0  0  0  0
   12.0133    7.4732   26.1524 H   0  0  0  0  0  0  0  0  0  0  0  0
   11.8208    6.6564   27.6367 H   0  0  0  0  0  0  0  0  0  0  0  0
    8.3563    7.0045   27.7656 H   0  0  0  0  0  0  0  0  0  0  0  0
    9.7338    6.3878   28.5592 H   0  0  0  0  0  0  0  0  0  0  0  0
 13 14  2  0  0  0
 13 18  1  0  0  0
 14 15  1  0  0  0
 14 11  1  0  0  0
 15 16  2  0  0  0
 16 17  1  0  0  0
 17 18  2  0  0  0
 17 19  1  0  0  0
  7  8  2  0  0  0
  7 12  1  0  0  0
  8  9  1  0  0  0
  8  3  1  0  0  0
  9 10  2  0  0  0
 10 11  1  0  0  0
 11 12  2  0  0  0
  3  4  1  0  0  0
  3  5  2  0  0  0
  4  1  1  0  0  0
  1  2  1  0  0  0
  1 20  1  0  0  0
 20 21  1  0  0  0
 20 25  1  0  0  0
 21 23  1  0  0  0
 21 22  2  0  0  0
 23 24  1  0  0  0
 25 31  1  0  0  0
 26 27  2  0  0  0
 26 31  1  0  0  0
 27 28  1  0  0  0
 27 32  1  0  0  0
 28 29  2  0  0  0
 29 30  1  0  0  0
 30 31  2  0  0  0
 32 33  1  0  0  0
 32 34  2  0  0  0
  4  6  1  0  0  0
 33 35  1  0  0  0
 33 36  1  0  0  0
 34 37  1  0  0  0
 34 38  1  0  0  0
M  CHG 1  17   1
M  CHG 1  19  -1
M  CHG 1  34   1
M  END
> <minimizedAffinity>
-9.83814

$$$$
1KSN_FXV_A_401


 38 40  0  0  0  0  0  0  0  0999 V2000
    4.6887    6.0804   21.0336 C   0  0  0  0  0  0  0  0  0  0  0  0
    5.0054    7.2652   20.0952 C   0  0  0  0  0  0  0  0  0  0  0  0
    4.8163    3.8930   19.9299 C   0  0  0  0  0  0  0  0  0  0  0  0
    5.4114    4.9333   20.5452 N   0  0  0  0  0  0  0  0  0  0  0  0
    3.5851    3.8349   19.7504 O   0  0  0  0  0  0  0  0  0  0  0  0
    6.3880    4.9086   20.6673 H   0  0  0  0  0  0  0  0  0  0  0  0
    6.8925    2.3984   20.2308 C   0  0  0  0  0  0  0  0  0  0  0  0
    5.7317    2.8546   19.4696 C   0  0  0  0  0  0  0  0  0  0  0  0
    5.4874    2.2553   18.1817 C   0  0  0  0  0  0  0  0  0  0  0  0
    6.3483    1.2463   17.6547 C   0  0  0  0  0  0  0  0  0  0  0  0
    7.4939    0.7917   18.3888 C   0  0  0  0  0  0  0  0  0  0  0  0
    7.7420    1.3837   19.6754 C   0  0  0  0  0  0  0  0  0  0  0  0
    7.9545   -1.1593   16.8146 C   0  0  0  0  0  0  0  0  0  0  0  0
    8.4107   -0.2535   17.8287 C   0  0  0  0  0  0  0  0  0  0  0  0
    9.7756   -0.3758   18.2784 C   0  0  0  0  0  0  0  0  0  0  0  0
   10.6326   -1.3795   17.7184 C   0  0  0  0  0  0  0  0  0  0  0  0
   10.1836   -2.2419   16.7488 N   0  0  0  0  0  0  0  0  0  0  0  0
    8.8676   -2.1311   16.3070 C   0  0  0  0  0  0  0  0  0  0  0  0
   10.9964   -3.1970   16.2159 O   0  0  0  0  0  0  0  0  0  0  0  0
    5.0903    6.3153   22.5377 C   0  0  0  0  0  0  0  0  0  0  0  0
    4.0303    5.6846   23.4597 C   0  0  0  0  0  0  0  0  0  0  0  0
    3.3373    6.3074   24.1870 O   0  0  0  0  0  0  0  0  0  0  0  0
    3.9858    4.3322   23.3179 O   0  0  0  0  0  0  0  0  0  0  0  0
    2.7550    3.6184   23.1769 C   0  0  0  0  0  0  0  0  0  0  0  0
    5.3299    7.8489   22.9067 C   0  0  0  0  0  0  0  0  0  0  0  0
    7.4523    7.8616   24.4698 C   0  0  0  0  0  0  0  0  0  0  0  0
    8.8296    8.2697   24.7413 C   0  0  0  0  0  0  0  0  0  0  0  0
    9.5214    9.0782   23.7515 C   0  0  0  0  0  0  0  0  0  0  0  0
    8.8680    9.4630   22.5373 C   0  0  0  0  0  0  0  0  0  0  0  0
    7.5104    9.0558   22.2806 C   0  0  0  0  0  0  0  0  0  0  0  0
    6.7775    8.2513   23.2303 C   0  0  0  0  0  0  0  0  0  0  0  0
    9.5094    7.8820   25.9797 C   0  0  0  0  0  0  0  0  0  0  0  0
   10.7132    8.3650   26.3003 N   0  0  0  0  0  0  0  0  0  0  0  0
    8.9038    7.0221   26.8180 N   0  0  0  0  0  0  0  0  0  0  0  0
   11.1677    8.9952   25.6957 H   0  0  0  0  0  0  0  0  0  0  0  0
   11.1457    8.0908   27.1411 H   0  0  0  0  0  0  0  0  0  0  0  0
    8.0168    6.6585   26.5941 H   0  0  0  0  0  0  0  0  0  0  0  0
    9.3477    6.7562   27.6556 H   0  0  0  0  0  0  0  0  0  0  0  0
 13 14  2  0  0  0
 13 18  1  0  0  0
 14 15  1  0  0  0
 14 11  1  0  0  0
 15 16  2  0  0  0
 16 17  1  0  0  0
 17 18  2  0  0  0
 17 19  1  0  0  0
  7  8  2  0  0  0
  7 12  1  0  0  0
  8  9  1  0  0  0
  8  3  1  0  0  0
  9 10  2  0  0  0
 10 11  1  0  0  0
 11 12  2  0  0  0
  3  4  1  0  0  0
  3  5  2  0  0  0
  4  1  1  0  0  0
  1  2  1  0  0  0
  1 20  1  0  0  0
 20 21  1  0  0  0
 20 25  1  0  0  0
 21 23  1  0  0  0
 21 22  2  0  0  0
 23 24  1  0  0  0
 25 31  1  0  0  0
 26 27  2  0  0  0
 26 31  1  0  0  0
 27 28  1  0  0  0
 27 32  1  0  0  0
 28 29  2  0  0  0
 29 30  1  0  0  0
 30 31  2  0  0  0
 32 33  1  0  0  0
 32 34  2  0  0  0
  4  6  1  0  0  0
 33 35  1  0  0  0
 33 36  1  0  0  0
 34 37  1  0  0  0
 34 38  1  0  0  0
M  CHG 1  17   1
M  CHG 1  19  -1
M  CHG 1  34   1
M  END
> <minimizedAffinity>
-9.57036

$$$$
1KSN_FXV_A_401


 38 40  0  0  0  0  0  0  0  0999 V2000
    5.1475    3.5736   21.5460 C   0  0  0  0  0  0  0  0  0  0  0  0
    4.2128    2.8188   22.5161 C   0  0  0  0  0  0  0  0  0  0  0  0
    6.9189    2.6043   20.1526 C   0  0  0  0  0  0  0  0  0  0  0  0
    5.6442    2.6180   20.5885 N   0  0  0  0  0  0  0  0  0  0  0  0
    7.7670    3.4332   20.5335 O   0  0  0  0  0  0  0  0  0  0  0  0
    5.0215    1.9421   20.2356 H   0  0  0  0  0  0  0  0  0  0  0  0
    6.2421    0.8930   18.3503 C   0  0  0  0  0  0  0  0  0  0  0  0
    7.2306    1.5268   19.2199 C   0  0  0  0  0  0  0  0  0  0  0  0
    8.5888    1.0474   19.1644 C   0  0  0  0  0  0  0  0  0  0  0  0
    8.9680   -0.0156   18.2910 C   0  0  0  0  0  0  0  0  0  0  0  0
    8.0076   -0.6502   17.4349 C   0  0  0  0  0  0  0  0  0  0  0  0
    6.6514   -0.1751   17.4834 C   0  0  0  0  0  0  0  0  0  0  0  0
    9.7154   -2.3466   16.5967 C   0  0  0  0  0  0  0  0  0  0  0  0
    8.3993   -1.7801   16.5313 C   0  0  0  0  0  0  0  0  0  0  0  0
    7.4702   -2.3397   15.5806 C   0  0  0  0  0  0  0  0  0  0  0  0
    7.8698   -3.4262   14.7349 C   0  0  0  0  0  0  0  0  0  0  0  0
    9.1333   -3.9591   14.8061 N   0  0  0  0  0  0  0  0  0  0  0  0
   10.0375   -3.4266   15.7217 C   0  0  0  0  0  0  0  0  0  0  0  0
    9.5152   -4.9914   14.0027 O   0  0  0  0  0  0  0  0  0  0  0  0
    4.4573    4.7499   20.7594 C   0  0  0  0  0  0  0  0  0  0  0  0
    3.9425    4.2321   19.4036 C   0  0  0  0  0  0  0  0  0  0  0  0
    2.9773    3.5612   19.2796 O   0  0  0  0  0  0  0  0  0  0  0  0
    4.7272    4.6560   18.3761 O   0  0  0  0  0  0  0  0  0  0  0  0
    4.7412    4.0022   17.1047 C   0  0  0  0  0  0  0  0  0  0  0  0
    5.3915    6.0288   20.5662 C   0  0  0  0  0  0  0  0  0  0  0  0
    7.1778    7.3513   21.9832 C   0  0  0  0  0  0  0  0  0  0  0  0
    7.5859    8.0029   23.2267 C   0  0  0  0  0  0  0  0  0  0  0  0
    6.6524    8.0185   24.3404 C   0  0  0  0  0  0  0  0  0  0  0  0
    5.3617    7.4114   24.2195 C   0  0  0  0  0  0  0  0  0  0  0  0
    4.9704    6.7716   22.9898 C   0  0  0  0  0  0  0  0  0  0  0  0
    5.8593    6.7284   21.8522 C   0  0  0  0  0  0  0  0  0  0  0  0
    8.9037    8.6280   23.3627 C   0  0  0  0  0  0  0  0  0  0  0  0
    9.4899    9.2593   22.3413 N   0  0  0  0  0  0  0  0  0  0  0  0
    9.5375    8.5698   24.5476 N   0  0  0  0  0  0  0  0  0  0  0  0
    9.0371    9.3094   21.4685 H   0  0  0  0  0  0  0  0  0  0  0  0
   10.3745    9.6744   22.4615 H   0  0  0  0  0  0  0  0  0  0  0  0
    9.1170    8.1079   25.3085 H   0  0  0  0  0  0  0  0  0  0  0  0
   10.4218    8.9892   24.6540 H   0  0  0  0  0  0  0  0  0  0  0  0
 13 14  2  0  0  0
 13 18  1  0  0  0
 14 15  1  0  0  0
 14 11  1  0  0  0
 15 16  2  0  0  0
 16 17  1  0  0  0
 17 18  2  0  0  0
 17 19  1  0  0  0
  7  8  2  0  0  0
  7 12  1  0  0  0
  8  9  1  0  0  0
  8  3  1  0  0  0
  9 10  2  0  0  0
 10 11  1  0  0  0
 11 12  2  0  0  0
  3  4  1  0  0  0
  3  5  2  0  0  0
  4  1  1  0  0  0
  1  2  1  0  0  0
  1 20  1  0  0  0
 20 21  1  0  0  0
 20 25  1  0  0  0
 21 23  1  0  0  0
 21 22  2  0  0  0
 23 24  1  0  0  0
 25 31  1  0  0  0
 26 27  2  0  0  0
 26 31  1  0  0  0
 27 28  1  0  0  0
 27 32  1  0  0  0
 28 29  2  0  0  0
 29 30  1  0  0  0
 30 31  2  0  0  0
 32 33  1  0  0  0
 32 34  2  0  0  0
  4  6  1  0  0  0
 33 35  1  0  0  0
 33 36  1  0  0  0
 34 37  1  0  0  0
 34 38  1  0  0  0
M  CHG 1  17   1
M  CHG 1  19  -1
M  CHG 1  34   1
M  END
> <minimizedAffinity>
-9.15979

$$$$
1KSN_FXV_A_401


 38 40  0  0  0  0  0  0  0  0999 V2000
    4.0365    6.1812   20.0763 C   0  0  0  0  0  0  0  0  0  0  0  0
    2.9969    6.4472   18.9659 C   0  0  0  0  0  0  0  0  0  0  0  0
    4.6569    3.8079   20.0353 C   0  0  0  0  0  0  0  0  0  0  0  0
    4.8616    5.0812   19.6454 N   0  0  0  0  0  0  0  0  0  0  0  0
    3.7430    3.4847   20.8175 O   0  0  0  0  0  0  0  0  0  0  0  0
    5.6117    5.2693   19.0361 H   0  0  0  0  0  0  0  0  0  0  0  0
    5.3960    2.2472   18.1241 C   0  0  0  0  0  0  0  0  0  0  0  0
    5.5747    2.8377   19.4486 C   0  0  0  0  0  0  0  0  0  0  0  0
    6.7152    2.4240   20.2269 C   0  0  0  0  0  0  0  0  0  0  0  0
    7.6480    1.4654   19.7292 C   0  0  0  0  0  0  0  0  0  0  0  0
    7.4830    0.8742   18.4326 C   0  0  0  0  0  0  0  0  0  0  0  0
    6.3487    1.2842   17.6500 C   0  0  0  0  0  0  0  0  0  0  0  0
    8.0553   -1.0822   16.9022 C   0  0  0  0  0  0  0  0  0  0  0  0
    8.4503   -0.1476   17.9160 C   0  0  0  0  0  0  0  0  0  0  0  0
    9.8041   -0.2181   18.4082 C   0  0  0  0  0  0  0  0  0  0  0  0
   10.7104   -1.2004   17.8893 C   0  0  0  0  0  0  0  0  0  0  0  0
   10.3197   -2.0907   16.9196 N   0  0  0  0  0  0  0  0  0  0  0  0
    9.0149   -2.0300   16.4368 C   0  0  0  0  0  0  0  0  0  0  0  0
   11.1794   -3.0255   16.4257 O   0  0  0  0  0  0  0  0  0  0  0  0
    4.9724    7.4055   20.3992 C   0  0  0  0  0  0  0  0  0  0  0  0
    5.0951    8.3038   19.1545 C   0  0  0  0  0  0  0  0  0  0  0  0
    5.6865    7.9971   18.1781 O   0  0  0  0  0  0  0  0  0  0  0  0
    4.4281    9.4783   19.3180 O   0  0  0  0  0  0  0  0  0  0  0  0
    4.9721   10.7316   18.8968 C   0  0  0  0  0  0  0  0  0  0  0  0
    6.4113    6.9873   20.9471 C   0  0  0  0  0  0  0  0  0  0  0  0
    8.1695    7.8850   22.6938 C   0  0  0  0  0  0  0  0  0  0  0  0
    8.4933    8.3963   24.0245 C   0  0  0  0  0  0  0  0  0  0  0  0
    7.4179    8.5470   24.9903 C   0  0  0  0  0  0  0  0  0  0  0  0
    6.0720    8.2046   24.6434 C   0  0  0  0  0  0  0  0  0  0  0  0
    5.7645    7.7009   23.3295 C   0  0  0  0  0  0  0  0  0  0  0  0
    6.7953    7.5327   22.3318 C   0  0  0  0  0  0  0  0  0  0  0  0
    9.8665    8.7507   24.3915 C   0  0  0  0  0  0  0  0  0  0  0  0
   10.4114    8.3479   25.5431 N   0  0  0  0  0  0  0  0  0  0  0  0
   10.5995    9.4959   23.5451 N   0  0  0  0  0  0  0  0  0  0  0  0
    9.8862    7.8020   26.1719 H   0  0  0  0  0  0  0  0  0  0  0  0
   11.3381    8.5971   25.7630 H   0  0  0  0  0  0  0  0  0  0  0  0
   10.2104    9.7994   22.6932 H   0  0  0  0  0  0  0  0  0  0  0  0
   11.5250    9.7380   23.7774 H   0  0  0  0  0  0  0  0  0  0  0  0
 13 14  2  0  0  0
 13 18  1  0  0  0
 14 15  1  0  0  0
 14 11  1  0  0  0
 15 16  2  0  0  0
 16 17  1  0  0  0
 17 18  2  0  0  0
 17 19  1  0  0  0
  7  8  2  0  0  0
  7 12  1  0  0  0
  8  9  1  0  0  0
  8  3  1  0  0  0
  9 10  2  0  0  0
 10 11  1  0  0  0
 11 12  2  0  0  0
  3  4  1  0  0  0
  3  5  2  0  0  0
  4  1  1  0  0  0
  1  2  1  0  0  0
  1 20  1  0  0  0
 20 21  1  0  0  0
 20 25  1  0  0  0
 21 23  1  0  0  0
 21 22  2  0  0  0
 23 24  1  0  0  0
 25 31  1  0  0  0
 26 27  2  0  0  0
 26 31  1  0  0  0
 27 28  1  0  0  0
 27 32  1  0  0  0
 28 29  2  0  0  0
 29 30  1  0  0  0
 30 31  2  0  0  0
 32 33  1  0  0  0
 32 34  2  0  0  0
  4  6  1  0  0  0
 33 35  1  0  0  0
 33 36  1  0  0  0
 34 37  1  0  0  0
 34 38  1  0  0  0
M  CHG 1  17   1
M  CHG 1  19  -1
M  CHG 1  34   1
M  END
> <minimizedAffinity>
-8.87256

$$$$
1KSN_FXV_A_401


 38 40  0  0  0  0  0  0  0  0999 V2000
    4.1025    1.8205   17.8401 C   0  0  0  0  0  0  0  0  0  0  0  0
    3.6933    0.7225   18.8457 C   0  0  0  0  0  0  0  0  0  0  0  0
    4.0662    3.9052   19.1331 C   0  0  0  0  0  0  0  0  0  0  0  0
    4.7411    2.8763   18.5845 N   0  0  0  0  0  0  0  0  0  0  0  0
    2.8321    4.0326   19.0230 O   0  0  0  0  0  0  0  0  0  0  0  0
    5.7185    2.8441   18.6978 H   0  0  0  0  0  0  0  0  0  0  0  0
    4.5219    6.2322   20.1391 C   0  0  0  0  0  0  0  0  0  0  0  0
    4.8931    4.8419   19.8859 C   0  0  0  0  0  0  0  0  0  0  0  0
    6.1579    4.3745   20.3953 C   0  0  0  0  0  0  0  0  0  0  0  0
    7.0306    5.2359   21.1255 C   0  0  0  0  0  0  0  0  0  0  0  0
    6.6814    6.6042   21.3779 C   0  0  0  0  0  0  0  0  0  0  0  0
    5.4199    7.0762   20.8746 C   0  0  0  0  0  0  0  0  0  0  0  0
    7.7017    7.4464   23.5565 C   0  0  0  0  0  0  0  0  0  0  0  0
    7.6052    7.5162   22.1272 C   0  0  0  0  0  0  0  0  0  0  0  0
    8.4307    8.4796   21.4412 C   0  0  0  0  0  0  0  0  0  0  0  0
    9.3118    9.3332   22.1832 C   0  0  0  0  0  0  0  0  0  0  0  0
    9.3942    9.2577   23.5518 N   0  0  0  0  0  0  0  0  0  0  0  0
    8.6021    8.3299   24.2234 C   0  0  0  0  0  0  0  0  0  0  0  0
   10.2304   10.0686   24.2588 O   0  0  0  0  0  0  0  0  0  0  0  0
    5.0936    1.3377   16.7159 C   0  0  0  0  0  0  0  0  0  0  0  0
    4.4027    1.4328   15.3429 C   0  0  0  0  0  0  0  0  0  0  0  0
    3.2319    1.5111   15.2001 O   0  0  0  0  0  0  0  0  0  0  0  0
    5.3075    1.4303   14.3269 O   0  0  0  0  0  0  0  0  0  0  0  0
    5.3499    2.4625   13.3384 C   0  0  0  0  0  0  0  0  0  0  0  0
    5.6796   -0.1258   16.9613 C   0  0  0  0  0  0  0  0  0  0  0  0
    8.1011   -1.1650   16.8947 C   0  0  0  0  0  0  0  0  0  0  0  0
    9.4807   -1.2076   17.3765 C   0  0  0  0  0  0  0  0  0  0  0  0
    9.8829   -0.2706   18.4119 C   0  0  0  0  0  0  0  0  0  0  0  0
    8.9485    0.6739   18.9448 C   0  0  0  0  0  0  0  0  0  0  0  0
    7.5915    0.7064   18.4631 C   0  0  0  0  0  0  0  0  0  0  0  0
    7.1398   -0.2019   17.4348 C   0  0  0  0  0  0  0  0  0  0  0  0
   10.4464   -2.1690   16.8389 C   0  0  0  0  0  0  0  0  0  0  0  0
   10.0930   -3.0890   15.9367 N   0  0  0  0  0  0  0  0  0  0  0  0
   11.7229   -2.1208   17.2602 N   0  0  0  0  0  0  0  0  0  0  0  0
    9.1621   -3.1354   15.6197 H   0  0  0  0  0  0  0  0  0  0  0  0
   10.7635   -3.7205   15.5890 H   0  0  0  0  0  0  0  0  0  0  0  0
   11.9969   -1.4479   17.9246 H   0  0  0  0  0  0  0  0  0  0  0  0
   12.3831   -2.7583   16.9041 H   0  0  0  0  0  0  0  0  0  0  0  0
 13 14  2  0  0  0
 13 18  1  0  0  0
 14 15  1  0  0  0
 14 11  1  0  0  0
 15 16  2  0  0  0
 16 17  1  0  0  0
 17 18  2  0  0  0
 17 19  1  0  0  0
  7  8  2  0  0  0
  7 12  1  0  0  0
  8  9  1  0  0  0
  8  3  1  0  0  0
  9 10  2  0  0  0
 10 11  1  0  0  0
 11 12  2  0  0  0
  3  4  1  0  0  0
  3  5  2  0  0  0
  4  1  1  0  0  0
  1  2  1  0  0  0
  1 20  1  0  0  0
 20 21  1  0  0  0
 20 25  1  0  0  0
 21 23  1  0  0  0
 21 22  2  0  0  0
 23 24  1  0  0  0
 25 31  1  0  0  0
 26 27  2  0  0  0
 26 31  1  0  0  0
 27 28  1  0  0  0
 27 32  1  0  0  0
 28 29  2  0  0  0
 29 30  1  0  0  0
 30 31  2  0  0  0
 32 33  1  0  0  0
 32 34  2  0  0  0
  4  6  1  0  0  0
 33 35  1  0  0  0
 33 36  1  0  0  0
 34 37  1  0  0  0
 34 38  1  0  0  0
M  CHG 1  17   1
M  CHG 1  19  -1
M  CHG 1  34   1
M  END
> <minimizedAffinity>
-8.86373

$$$$
1KSN_FXV_A_401


 38 40  0  0  0  0  0  0  0  0999 V2000
    3.6095    3.2388   18.7651 C   0  0  0  0  0  0  0  0  0  0  0  0
    2.7144    2.3730   19.6781 C   0  0  0  0  0  0  0  0  0  0  0  0
    4.2120    5.3726   19.8154 C   0  0  0  0  0  0  0  0  0  0  0  0
    4.4344    4.0589   19.6157 N   0  0  0  0  0  0  0  0  0  0  0  0
    3.2800    5.9867   19.2624 O   0  0  0  0  0  0  0  0  0  0  0  0
    5.1981    3.6386   20.0733 H   0  0  0  0  0  0  0  0  0  0  0  0
    4.7743    7.1404   21.6025 C   0  0  0  0  0  0  0  0  0  0  0  0
    5.1338    6.0100   20.7492 C   0  0  0  0  0  0  0  0  0  0  0  0
    6.4826    5.5071   20.8228 C   0  0  0  0  0  0  0  0  0  0  0  0
    7.4475    6.0894   21.6984 C   0  0  0  0  0  0  0  0  0  0  0  0
    7.1102    7.2021   22.5386 C   0  0  0  0  0  0  0  0  0  0  0  0
    5.7656    7.7072   22.4719 C   0  0  0  0  0  0  0  0  0  0  0  0
    9.0890    8.7601   22.9309 C   0  0  0  0  0  0  0  0  0  0  0  0
    8.1273    7.8280   23.4443 C   0  0  0  0  0  0  0  0  0  0  0  0
    8.1664    7.5258   24.8540 C   0  0  0  0  0  0  0  0  0  0  0  0
    9.1450    8.1463   25.6982 C   0  0  0  0  0  0  0  0  0  0  0  0
   10.0614    9.0361   25.1944 N   0  0  0  0  0  0  0  0  0  0  0  0
   10.0313    9.3355   23.8347 C   0  0  0  0  0  0  0  0  0  0  0  0
   10.9929    9.6264   25.9949 O   0  0  0  0  0  0  0  0  0  0  0  0
    4.5499    2.4172   17.8062 C   0  0  0  0  0  0  0  0  0  0  0  0
    3.9152    2.3364   16.4054 C   0  0  0  0  0  0  0  0  0  0  0  0
    2.7685    2.1227   16.2146 O   0  0  0  0  0  0  0  0  0  0  0  0
    4.8346    2.5560   15.4269 O   0  0  0  0  0  0  0  0  0  0  0  0
    5.5620    3.7825   15.3226 C   0  0  0  0  0  0  0  0  0  0  0  0
    4.9140    0.9636   18.3540 C   0  0  0  0  0  0  0  0  0  0  0  0
    6.8545   -0.4387   17.2514 C   0  0  0  0  0  0  0  0  0  0  0  0
    8.2647   -0.8162   17.1724 C   0  0  0  0  0  0  0  0  0  0  0  0
    9.2010   -0.1974   18.0956 C   0  0  0  0  0  0  0  0  0  0  0  0
    8.7511    0.7620   19.0581 C   0  0  0  0  0  0  0  0  0  0  0  0
    7.3592    1.1259   19.1274 C   0  0  0  0  0  0  0  0  0  0  0  0
    6.3870    0.5418   18.2330 C   0  0  0  0  0  0  0  0  0  0  0  0
    8.7376   -1.7963   16.1917 C   0  0  0  0  0  0  0  0  0  0  0  0
    8.0637   -2.0427   15.0646 N   0  0  0  0  0  0  0  0  0  0  0  0
    9.8824   -2.4611   16.4295 N   0  0  0  0  0  0  0  0  0  0  0  0
    7.2244   -1.5631   14.8780 H   0  0  0  0  0  0  0  0  0  0  0  0
    8.4065   -2.7038   14.4206 H   0  0  0  0  0  0  0  0  0  0  0  0
   10.3889   -2.2893   17.2560 H   0  0  0  0  0  0  0  0  0  0  0  0
   10.2138   -3.1196   15.7770 H   0  0  0  0  0  0  0  0  0  0  0  0
 13 14  2  0  0  0
 13 18  1  0  0  0
 14 15  1  0  0  0
 14 11  1  0  0  0
 15 16  2  0  0  0
 16 17  1  0  0  0
 17 18  2  0  0  0
 17 19  1  0  0  0
  7  8  2  0  0  0
  7 12  1  0  0  0
  8  9  1  0  0  0
  8  3  1  0  0  0
  9 10  2  0  0  0
 10 11  1  0  0  0
 11 12  2  0  0  0
  3  4  1  0  0  0
  3  5  2  0  0  0
  4  1  1  0  0  0
  1  2  1  0  0  0
  1 20  1  0  0  0
 20 21  1  0  0  0
 20 25  1  0  0  0
 21 23  1  0  0  0
 21 22  2  0  0  0
 23 24  1  0  0  0
 25 31  1  0  0  0
 26 27  2  0  0  0
 26 31  1  0  0  0
 27 28  1  0  0  0
 27 32  1  0  0  0
 28 29  2  0  0  0
 29 30  1  0  0  0
 30 31  2  0  0  0
 32 33  1  0  0  0
 32 34  2  0  0  0
  4  6  1  0  0  0
 33 35  1  0  0  0
 33 36  1  0  0  0
 34 37  1  0  0  0
 34 38  1  0  0  0
M  CHG 1  17   1
M  CHG 1  19  -1
M  CHG 1  34   1
M  END
> <minimizedAffinity>
-8.68246

$$$$
1KSN_FXV_A_401


 38 40  0  0  0  0  0  0  0  0999 V2000
    3.1241    3.4774   18.7450 C   0  0  0  0  0  0  0  0  0  0  0  0
    1.8540    3.1590   19.5635 C   0  0  0  0  0  0  0  0  0  0  0  0
    4.1242    5.5844   19.5062 C   0  0  0  0  0  0  0  0  0  0  0  0
    4.0045    4.2450   19.5889 N   0  0  0  0  0  0  0  0  0  0  0  0
    3.4914    6.2643   18.6763 O   0  0  0  0  0  0  0  0  0  0  0  0
    4.5451    3.7672   20.2588 H   0  0  0  0  0  0  0  0  0  0  0  0
    4.7444    7.3976   21.2274 C   0  0  0  0  0  0  0  0  0  0  0  0
    5.0338    6.1746   20.4820 C   0  0  0  0  0  0  0  0  0  0  0  0
    6.2991    5.5237   20.7125 C   0  0  0  0  0  0  0  0  0  0  0  0
    7.2495    6.0501   21.6379 C   0  0  0  0  0  0  0  0  0  0  0  0
    6.9809    7.2521   22.3734 C   0  0  0  0  0  0  0  0  0  0  0  0
    5.7195    7.9052   22.1500 C   0  0  0  0  0  0  0  0  0  0  0  0
    7.9279    7.4954   24.7273 C   0  0  0  0  0  0  0  0  0  0  0  0
    7.9858    7.8178   23.3309 C   0  0  0  0  0  0  0  0  0  0  0  0
    9.0438    8.6896   22.8829 C   0  0  0  0  0  0  0  0  0  0  0  0
    9.9963    9.2090   23.8201 C   0  0  0  0  0  0  0  0  0  0  0  0
    9.9295    8.8939   25.1549 N   0  0  0  0  0  0  0  0  0  0  0  0
    8.9123    8.0519   25.5973 C   0  0  0  0  0  0  0  0  0  0  0  0
   10.8335    9.3871   26.0473 O   0  0  0  0  0  0  0  0  0  0  0  0
    3.9064    2.2091   18.2367 C   0  0  0  0  0  0  0  0  0  0  0  0
    2.9147    1.2008   17.6274 C   0  0  0  0  0  0  0  0  0  0  0  0
    2.6602    0.1536   18.1131 O   0  0  0  0  0  0  0  0  0  0  0  0
    2.3641    1.6742   16.4769 O   0  0  0  0  0  0  0  0  0  0  0  0
    2.9517    1.4389   15.1948 C   0  0  0  0  0  0  0  0  0  0  0  0
    4.8083    1.5188   19.3572 C   0  0  0  0  0  0  0  0  0  0  0  0
    6.3295    0.0366   17.7962 C   0  0  0  0  0  0  0  0  0  0  0  0
    7.6491   -0.4463   17.3927 C   0  0  0  0  0  0  0  0  0  0  0  0
    8.8149    0.0387   18.1123 C   0  0  0  0  0  0  0  0  0  0  0  0
    8.6723    0.9704   19.1897 C   0  0  0  0  0  0  0  0  0  0  0  0
    7.3671    1.4388   19.5792 C   0  0  0  0  0  0  0  0  0  0  0  0
    6.1758    0.9894   18.8971 C   0  0  0  0  0  0  0  0  0  0  0  0
    7.8082   -1.3992   16.2916 C   0  0  0  0  0  0  0  0  0  0  0  0
    6.7987   -1.6944   15.4675 N   0  0  0  0  0  0  0  0  0  0  0  0
    9.0025   -1.9879   16.1019 N   0  0  0  0  0  0  0  0  0  0  0  0
    5.9192   -1.2708   15.5950 H   0  0  0  0  0  0  0  0  0  0  0  0
    6.9344   -2.3356   14.7329 H   0  0  0  0  0  0  0  0  0  0  0  0
    9.7549   -1.7795   16.7017 H   0  0  0  0  0  0  0  0  0  0  0  0
    9.1244   -2.6273   15.3633 H   0  0  0  0  0  0  0  0  0  0  0  0
 13 14  2  0  0  0
 13 18  1  0  0  0
 14 15  1  0  0  0
 14 11  1  0  0  0
 15 16  2  0  0  0
 16 17  1  0  0  0
 17 18  2  0  0  0
 17 19  1  0  0  0
  7  8  2  0  0  0
  7 12  1  0  0  0
  8  9  1  0  0  0
  8  3  1  0  0  0
  9 10  2  0  0  0
 10 11  1  0  0  0
 11 12  2  0  0  0
  3  4  1  0  0  0
  3  5  2  0  0  0
  4  1  1  0  0  0
  1  2  1  0  0  0
  1 20  1  0  0  0
 20 21  1  0  0  0
 20 25  1  0  0  0
 21 23  1  0  0  0
 21 22  2  0  0  0
 23 24  1  0  0  0
 25 31  1  0  0  0
 26 27  2  0  0  0
 26 31  1  0  0  0
 27 28  1  0  0  0
 27 32  1  0  0  0
 28 29  2  0  0  0
 29 30  1  0  0  0
 30 31  2  0  0  0
 32 33  1  0  0  0
 32 34  2  0  0  0
  4  6  1  0  0  0
 33 35  1  0  0  0
 33 36  1  0  0  0
 34 37  1  0  0  0
 34 38  1  0  0  0
M  CHG 1  17   1
M  CHG 1  19  -1
M  CHG 1  34   1
M  END
> <minimizedAffinity>
-8.24166

$$$$
