1N3I_DIH_A_401


 24 26  0  0  0  0  0  0  0  0999 V2000
   57.1209   16.5331   42.3947 C   0  0  0  0  0  0  0  0  0  0  0  0
   56.2612   16.2625   41.2155 C   0  0  0  0  0  0  0  0  0  0  0  0
   56.1330   15.1086   40.4527 C   0  0  0  0  0  0  0  0  0  0  0  0
   55.2766   15.1835   39.4617 N   0  0  0  0  0  0  0  0  0  0  0  0
   54.7745   16.4752   39.5358 C   0  0  0  0  0  0  0  0  0  0  0  0
   53.7813   17.1649   38.7047 C   0  0  0  0  0  0  0  0  0  0  0  0
   53.1821   16.6996   37.7381 O   0  0  0  0  0  0  0  0  0  0  0  0
   53.5151   18.5227   39.0968 N   0  0  0  0  0  0  0  0  0  0  0  0
   54.1415   19.1865   40.2005 C   0  0  0  0  0  0  0  0  0  0  0  0
   55.0832   18.5338   40.9906 N   0  0  0  0  0  0  0  0  0  0  0  0
   55.3662   17.1723   40.6182 C   0  0  0  0  0  0  0  0  0  0  0  0
   55.0429   14.4817   38.8120 H   0  0  0  0  0  0  0  0  0  0  0  0
   52.8567   19.0311   38.5701 H   0  0  0  0  0  0  0  0  0  0  0  0
   59.8646   18.1717   44.0244 C   0  0  0  0  0  0  0  0  0  0  0  0
   59.2928   17.0885   43.2148 C   0  0  0  0  0  0  0  0  0  0  0  0
   58.9525   19.3451   43.9096 C   0  0  0  0  0  0  0  0  0  0  0  0
   59.3611   20.3689   43.0242 O   0  0  0  0  0  0  0  0  0  0  0  0
   57.7287   18.5655   43.6207 C   0  0  0  0  0  0  0  0  0  0  0  0
   58.0728   17.5967   42.6184 N   0  0  0  0  0  0  0  0  0  0  0  0
   59.5087   19.9936   42.1420 H   0  0  0  0  0  0  0  0  0  0  0  0
   58.1287   18.0002   41.6832 H   0  0  0  0  0  0  0  0  0  0  0  0
   61.2602   17.3474   46.0657 O   0  0  0  0  0  0  0  0  0  0  0  0
   60.0441   17.6926   45.4205 C   0  0  0  0  0  0  0  0  0  0  0  0
   61.0752   17.0680   46.9760 H   0  0  0  0  0  0  0  0  0  0  0  0
 22 23  1  0  0  0
 23 14  1  0  0  0
 14 15  1  0  0  0
 14 16  1  0  0  0
 15 19  1  0  0  0
 16 17  1  0  0  0
 16 18  1  0  0  0
 18 19  1  0  0  0
 19  1  1  0  0  0
  1  2  1  0  0  0
  2  3  2  0  0  0
  2 11  1  0  0  0
  3  4  1  0  0  0
  4  5  1  0  0  0
  5  6  1  0  0  0
  5 11  1  0  0  0
  6  7  2  0  0  0
  6  8  1  0  0  0
  8  9  1  0  0  0
  9 10  2  0  0  0
 10 11  1  0  0  0
 22 24  1  0  0  0
 17 20  1  0  0  0
 19 21  1  0  0  0
  4 12  1  0  0  0
  8 13  1  0  0  0
M  CHG 1  19   1
M  END
> <minimizedAffinity>
-9.77281

$$$$
1N3I_DIH_A_401


 24 26  0  0  0  0  0  0  0  0999 V2000
   57.7037   17.1966   42.0289 C   0  0  0  0  0  0  0  0  0  0  0  0
   56.8310   16.7731   40.9055 C   0  0  0  0  0  0  0  0  0  0  0  0
   56.9115   15.6523   40.0888 C   0  0  0  0  0  0  0  0  0  0  0  0
   55.9773   15.5576   39.1725 N   0  0  0  0  0  0  0  0  0  0  0  0
   55.1935   16.6874   39.3602 C   0  0  0  0  0  0  0  0  0  0  0  0
   53.9961   17.1502   38.6496 C   0  0  0  0  0  0  0  0  0  0  0  0
   53.4403   16.5922   37.7064 O   0  0  0  0  0  0  0  0  0  0  0  0
   53.4531   18.3885   39.1394 N   0  0  0  0  0  0  0  0  0  0  0  0
   54.0006   19.1403   40.2285 C   0  0  0  0  0  0  0  0  0  0  0  0
   55.1358   18.7026   40.9045 N   0  0  0  0  0  0  0  0  0  0  0  0
   55.6976   17.4640   40.4328 C   0  0  0  0  0  0  0  0  0  0  0  0
   55.8590   14.8457   38.5029 H   0  0  0  0  0  0  0  0  0  0  0  0
   52.6496   18.7440   38.6954 H   0  0  0  0  0  0  0  0  0  0  0  0
   56.4473   15.4687   44.9106 C   0  0  0  0  0  0  0  0  0  0  0  0
   57.0469   15.4968   43.5707 C   0  0  0  0  0  0  0  0  0  0  0  0
   56.7345   16.7810   45.5566 C   0  0  0  0  0  0  0  0  0  0  0  0
   57.7906   16.7961   46.4966 O   0  0  0  0  0  0  0  0  0  0  0  0
   56.8551   17.5521   44.2997 C   0  0  0  0  0  0  0  0  0  0  0  0
   57.6881   16.7878   43.4145 N   0  0  0  0  0  0  0  0  0  0  0  0
   58.6003   16.4637   46.0785 H   0  0  0  0  0  0  0  0  0  0  0  0
   58.6791   16.8614   43.6445 H   0  0  0  0  0  0  0  0  0  0  0  0
   54.3881   13.9084   44.5655 O   0  0  0  0  0  0  0  0  0  0  0  0
   54.9956   15.1717   44.7876 C   0  0  0  0  0  0  0  0  0  0  0  0
   53.4246   14.0148   44.5294 H   0  0  0  0  0  0  0  0  0  0  0  0
 22 23  1  0  0  0
 23 14  1  0  0  0
 14 15  1  0  0  0
 14 16  1  0  0  0
 15 19  1  0  0  0
 16 17  1  0  0  0
 16 18  1  0  0  0
 18 19  1  0  0  0
 19  1  1  0  0  0
  1  2  1  0  0  0
  2  3  2  0  0  0
  2 11  1  0  0  0
  3  4  1  0  0  0
  4  5  1  0  0  0
  5  6  1  0  0  0
  5 11  1  0  0  0
  6  7  2  0  0  0
  6  8  1  0  0  0
  8  9  1  0  0  0
  9 10  2  0  0  0
 10 11  1  0  0  0
 22 24  1  0  0  0
 17 20  1  0  0  0
 19 21  1  0  0  0
  4 12  1  0  0  0
  8 13  1  0  0  0
M  CHG 1  19   1
M  END
> <minimizedAffinity>
-9.76577

$$$$
1N3I_DIH_A_401


 24 26  0  0  0  0  0  0  0  0999 V2000
   57.4229   16.3014   42.0890 C   0  0  0  0  0  0  0  0  0  0  0  0
   56.5681   16.2688   40.8761 C   0  0  0  0  0  0  0  0  0  0  0  0
   56.5019   15.3258   39.8582 C   0  0  0  0  0  0  0  0  0  0  0  0
   55.6316   15.5830   38.9109 N   0  0  0  0  0  0  0  0  0  0  0  0
   55.0526   16.7857   39.2908 C   0  0  0  0  0  0  0  0  0  0  0  0
   54.0101   17.5918   38.6458 C   0  0  0  0  0  0  0  0  0  0  0  0
   53.4295   17.3357   37.5935 O   0  0  0  0  0  0  0  0  0  0  0  0
   53.6661   18.7970   39.3511 N   0  0  0  0  0  0  0  0  0  0  0  0
   54.2633   19.2143   40.5842 C   0  0  0  0  0  0  0  0  0  0  0  0
   55.2517   18.4506   41.1982 N   0  0  0  0  0  0  0  0  0  0  0  0
   55.6129   17.2382   40.5111 C   0  0  0  0  0  0  0  0  0  0  0  0
   55.4337   15.0443   38.1109 H   0  0  0  0  0  0  0  0  0  0  0  0
   52.9722   19.3751   38.9593 H   0  0  0  0  0  0  0  0  0  0  0  0
   58.9285   18.4574   44.5289 C   0  0  0  0  0  0  0  0  0  0  0  0
   58.6166   18.0784   43.1452 C   0  0  0  0  0  0  0  0  0  0  0  0
   57.9081   17.8193   45.4083 C   0  0  0  0  0  0  0  0  0  0  0  0
   56.8660   18.6582   45.8657 O   0  0  0  0  0  0  0  0  0  0  0  0
   57.6020   16.6912   44.5013 C   0  0  0  0  0  0  0  0  0  0  0  0
   57.4332   17.2416   43.1859 N   0  0  0  0  0  0  0  0  0  0  0  0
   56.4210   19.0647   45.1057 H   0  0  0  0  0  0  0  0  0  0  0  0
   56.5254   17.6892   43.0598 H   0  0  0  0  0  0  0  0  0  0  0  0
   60.7699   17.2799   45.9491 O   0  0  0  0  0  0  0  0  0  0  0  0
   60.3232   18.0481   44.8425 C   0  0  0  0  0  0  0  0  0  0  0  0
   61.7319   17.1674   45.8973 H   0  0  0  0  0  0  0  0  0  0  0  0
 22 23  1  0  0  0
 23 14  1  0  0  0
 14 15  1  0  0  0
 14 16  1  0  0  0
 15 19  1  0  0  0
 16 17  1  0  0  0
 16 18  1  0  0  0
 18 19  1  0  0  0
 19  1  1  0  0  0
  1  2  1  0  0  0
  2  3  2  0  0  0
  2 11  1  0  0  0
  3  4  1  0  0  0
  4  5  1  0  0  0
  5  6  1  0  0  0
  5 11  1  0  0  0
  6  7  2  0  0  0
  6  8  1  0  0  0
  8  9  1  0  0  0
  9 10  2  0  0  0
 10 11  1  0  0  0
 22 24  1  0  0  0
 17 20  1  0  0  0
 19 21  1  0  0  0
  4 12  1  0  0  0
  8 13  1  0  0  0
M  CHG 1  19   1
M  END
> <minimizedAffinity>
-8.94927

$$$$
1N3I_DIH_A_401


 24 26  0  0  0  0  0  0  0  0999 V2000
   56.7163   15.2912   40.5833 C   0  0  0  0  0  0  0  0  0  0  0  0
   56.5200   15.2675   42.0543 C   0  0  0  0  0  0  0  0  0  0  0  0
   55.6023   14.5585   42.8191 C   0  0  0  0  0  0  0  0  0  0  0  0
   55.6826   14.7522   44.1141 N   0  0  0  0  0  0  0  0  0  0  0  0
   56.7239   15.6573   44.2641 C   0  0  0  0  0  0  0  0  0  0  0  0
   57.2985   16.2637   45.4704 C   0  0  0  0  0  0  0  0  0  0  0  0
   56.9415   16.0714   46.6304 O   0  0  0  0  0  0  0  0  0  0  0  0
   58.3864   17.1708   45.2217 N   0  0  0  0  0  0  0  0  0  0  0  0
   58.9010   17.4843   43.9225 C   0  0  0  0  0  0  0  0  0  0  0  0
   58.3580   16.9095   42.7771 N   0  0  0  0  0  0  0  0  0  0  0  0
   57.2675   15.9967   43.0003 C   0  0  0  0  0  0  0  0  0  0  0  0
   55.1291   14.3470   44.8202 H   0  0  0  0  0  0  0  0  0  0  0  0
   58.8066   17.6063   45.9983 H   0  0  0  0  0  0  0  0  0  0  0  0
   54.7018   17.9287   39.2217 C   0  0  0  0  0  0  0  0  0  0  0  0
   55.9573   17.4046   39.7737 C   0  0  0  0  0  0  0  0  0  0  0  0
   53.9345   16.7717   38.6790 C   0  0  0  0  0  0  0  0  0  0  0  0
   53.9791   16.5959   37.2768 O   0  0  0  0  0  0  0  0  0  0  0  0
   54.5344   15.7535   39.5691 C   0  0  0  0  0  0  0  0  0  0  0  0
   55.9538   15.9703   39.5613 N   0  0  0  0  0  0  0  0  0  0  0  0
   54.9028   16.5279   36.9886 H   0  0  0  0  0  0  0  0  0  0  0  0
   56.4027   15.6096   38.7194 H   0  0  0  0  0  0  0  0  0  0  0  0
   53.8357   20.0829   40.4063 O   0  0  0  0  0  0  0  0  0  0  0  0
   53.9782   18.6761   40.2841 C   0  0  0  0  0  0  0  0  0  0  0  0
   53.3127   20.2874   41.1973 H   0  0  0  0  0  0  0  0  0  0  0  0
 22 23  1  0  0  0
 23 14  1  0  0  0
 14 15  1  0  0  0
 14 16  1  0  0  0
 15 19  1  0  0  0
 16 17  1  0  0  0
 16 18  1  0  0  0
 18 19  1  0  0  0
 19  1  1  0  0  0
  1  2  1  0  0  0
  2  3  2  0  0  0
  2 11  1  0  0  0
  3  4  1  0  0  0
  4  5  1  0  0  0
  5  6  1  0  0  0
  5 11  1  0  0  0
  6  7  2  0  0  0
  6  8  1  0  0  0
  8  9  1  0  0  0
  9 10  2  0  0  0
 10 11  1  0  0  0
 22 24  1  0  0  0
 17 20  1  0  0  0
 19 21  1  0  0  0
  4 12  1  0  0  0
  8 13  1  0  0  0
M  CHG 1  19   1
M  END
> <minimizedAffinity>
-8.71166

$$$$
1N3I_DIH_A_401


 24 26  0  0  0  0  0  0  0  0999 V2000
   56.3016   16.1853   43.1341 C   0  0  0  0  0  0  0  0  0  0  0  0
   55.8280   16.0403   41.7350 C   0  0  0  0  0  0  0  0  0  0  0  0
   55.8711   14.9387   40.8898 C   0  0  0  0  0  0  0  0  0  0  0  0
   55.3637   15.1283   39.6949 N   0  0  0  0  0  0  0  0  0  0  0  0
   54.9397   16.4497   39.7052 C   0  0  0  0  0  0  0  0  0  0  0  0
   54.2896   17.2543   38.6645 C   0  0  0  0  0  0  0  0  0  0  0  0
   53.9875   16.8848   37.5322 O   0  0  0  0  0  0  0  0  0  0  0  0
   53.9968   18.6077   39.0528 N   0  0  0  0  0  0  0  0  0  0  0  0
   54.2947   19.1659   40.3376 C   0  0  0  0  0  0  0  0  0  0  0  0
   54.9105   18.4042   41.3264 N   0  0  0  0  0  0  0  0  0  0  0  0
   55.2130   17.0449   40.9617 C   0  0  0  0  0  0  0  0  0  0  0  0
   55.2984   14.4795   38.9573 H   0  0  0  0  0  0  0  0  0  0  0  0
   53.5616   19.1907   38.3896 H   0  0  0  0  0  0  0  0  0  0  0  0
   58.9502   18.0633   44.6594 C   0  0  0  0  0  0  0  0  0  0  0  0
   57.6411   17.3993   44.6929 C   0  0  0  0  0  0  0  0  0  0  0  0
   59.7344   17.4500   43.5500 C   0  0  0  0  0  0  0  0  0  0  0  0
   60.7066   16.4949   43.9267 O   0  0  0  0  0  0  0  0  0  0  0  0
   58.5664   17.0341   42.7428 C   0  0  0  0  0  0  0  0  0  0  0  0
   57.6376   16.4041   43.6384 N   0  0  0  0  0  0  0  0  0  0  0  0
   60.2850   15.7914   44.4446 H   0  0  0  0  0  0  0  0  0  0  0  0
   57.9075   15.4504   43.8790 H   0  0  0  0  0  0  0  0  0  0  0  0
   59.2310   20.3622   43.4633 O   0  0  0  0  0  0  0  0  0  0  0  0
   58.7485   19.5284   44.5055 C   0  0  0  0  0  0  0  0  0  0  0  0
   58.9461   21.2757   43.6218 H   0  0  0  0  0  0  0  0  0  0  0  0
 22 23  1  0  0  0
 23 14  1  0  0  0
 14 15  1  0  0  0
 14 16  1  0  0  0
 15 19  1  0  0  0
 16 17  1  0  0  0
 16 18  1  0  0  0
 18 19  1  0  0  0
 19  1  1  0  0  0
  1  2  1  0  0  0
  2  3  2  0  0  0
  2 11  1  0  0  0
  3  4  1  0  0  0
  4  5  1  0  0  0
  5  6  1  0  0  0
  5 11  1  0  0  0
  6  7  2  0  0  0
  6  8  1  0  0  0
  8  9  1  0  0  0
  9 10  2  0  0  0
 10 11  1  0  0  0
 22 24  1  0  0  0
 17 20  1  0  0  0
 19 21  1  0  0  0
  4 12  1  0  0  0
  8 13  1  0  0  0
M  CHG 1  19   1
M  END
> <minimizedAffinity>
-8.49334

$$$$
1N3I_DIH_A_401


 24 26  0  0  0  0  0  0  0  0999 V2000
   56.9747   15.3869   40.5061 C   0  0  0  0  0  0  0  0  0  0  0  0
   57.2719   15.7634   41.9106 C   0  0  0  0  0  0  0  0  0  0  0  0
   58.3232   16.5085   42.4296 C   0  0  0  0  0  0  0  0  0  0  0  0
   58.3067   16.6710   43.7313 N   0  0  0  0  0  0  0  0  0  0  0  0
   57.1700   15.9937   44.1497 C   0  0  0  0  0  0  0  0  0  0  0  0
   56.6053   15.8093   45.4914 C   0  0  0  0  0  0  0  0  0  0  0  0
   57.0621   16.2433   46.5463 O   0  0  0  0  0  0  0  0  0  0  0  0
   55.3951   15.0332   45.5277 N   0  0  0  0  0  0  0  0  0  0  0  0
   54.7574   14.4698   44.3758 C   0  0  0  0  0  0  0  0  0  0  0  0
   55.2908   14.6442   43.1021 N   0  0  0  0  0  0  0  0  0  0  0  0
   56.5026   15.4188   43.0397 C   0  0  0  0  0  0  0  0  0  0  0  0
   58.9545   17.1627   44.2861 H   0  0  0  0  0  0  0  0  0  0  0  0
   54.9761   14.8786   46.4050 H   0  0  0  0  0  0  0  0  0  0  0  0
   54.7344   17.9075   39.2831 C   0  0  0  0  0  0  0  0  0  0  0  0
   56.0654   17.4352   39.6842 C   0  0  0  0  0  0  0  0  0  0  0  0
   53.9238   16.7091   38.9246 C   0  0  0  0  0  0  0  0  0  0  0  0
   53.7765   16.4458   37.5432 O   0  0  0  0  0  0  0  0  0  0  0  0
   54.6635   15.7567   39.7818 C   0  0  0  0  0  0  0  0  0  0  0  0
   56.0630   15.9905   39.5618 N   0  0  0  0  0  0  0  0  0  0  0  0
   54.6523   16.3714   37.1330 H   0  0  0  0  0  0  0  0  0  0  0  0
   56.3979   15.5831   38.6887 H   0  0  0  0  0  0  0  0  0  0  0  0
   53.8164   20.0907   40.3719 O   0  0  0  0  0  0  0  0  0  0  0  0
   54.1499   18.7113   40.3892 C   0  0  0  0  0  0  0  0  0  0  0  0
   53.4523   20.3461   41.2340 H   0  0  0  0  0  0  0  0  0  0  0  0
 22 23  1  0  0  0
 23 14  1  0  0  0
 14 15  1  0  0  0
 14 16  1  0  0  0
 15 19  1  0  0  0
 16 17  1  0  0  0
 16 18  1  0  0  0
 18 19  1  0  0  0
 19  1  1  0  0  0
  1  2  1  0  0  0
  2  3  2  0  0  0
  2 11  1  0  0  0
  3  4  1  0  0  0
  4  5  1  0  0  0
  5  6  1  0  0  0
  5 11  1  0  0  0
  6  7  2  0  0  0
  6  8  1  0  0  0
  8  9  1  0  0  0
  9 10  2  0  0  0
 10 11  1  0  0  0
 22 24  1  0  0  0
 17 20  1  0  0  0
 19 21  1  0  0  0
  4 12  1  0  0  0
  8 13  1  0  0  0
M  CHG 1  19   1
M  END
> <minimizedAffinity>
-8.18152

$$$$
1N3I_DIH_A_401


 24 26  0  0  0  0  0  0  0  0999 V2000
   55.7903   17.2263   42.8241 C   0  0  0  0  0  0  0  0  0  0  0  0
   56.8849   17.2354   43.8263 C   0  0  0  0  0  0  0  0  0  0  0  0
   56.9774   16.5847   45.0502 C   0  0  0  0  0  0  0  0  0  0  0  0
   58.0890   16.7945   45.7146 N   0  0  0  0  0  0  0  0  0  0  0  0
   58.8207   17.6495   44.9024 C   0  0  0  0  0  0  0  0  0  0  0  0
   60.1481   18.2458   45.0908 C   0  0  0  0  0  0  0  0  0  0  0  0
   60.8931   18.0895   46.0554 O   0  0  0  0  0  0  0  0  0  0  0  0
   60.5794   19.0940   44.0126 N   0  0  0  0  0  0  0  0  0  0  0  0
   59.8119   19.3613   42.8333 C   0  0  0  0  0  0  0  0  0  0  0  0
   58.5531   18.7960   42.6522 N   0  0  0  0  0  0  0  0  0  0  0  0
   58.0993   17.9417   43.7183 C   0  0  0  0  0  0  0  0  0  0  0  0
   58.3461   16.4282   46.5915 H   0  0  0  0  0  0  0  0  0  0  0  0
   61.4633   19.5205   44.0905 H   0  0  0  0  0  0  0  0  0  0  0  0
   54.6591   17.5219   39.4327 C   0  0  0  0  0  0  0  0  0  0  0  0
   55.1720   18.0891   40.6860 C   0  0  0  0  0  0  0  0  0  0  0  0
   55.0352   16.0797   39.4076 C   0  0  0  0  0  0  0  0  0  0  0  0
   56.1494   15.7392   38.6065 O   0  0  0  0  0  0  0  0  0  0  0  0
   55.1031   15.9092   40.8756 C   0  0  0  0  0  0  0  0  0  0  0  0
   55.8488   17.0208   41.3952 N   0  0  0  0  0  0  0  0  0  0  0  0
   56.9178   16.2632   38.8818 H   0  0  0  0  0  0  0  0  0  0  0  0
   56.8546   16.9181   41.2600 H   0  0  0  0  0  0  0  0  0  0  0  0
   52.2984   17.3147   38.3473 O   0  0  0  0  0  0  0  0  0  0  0  0
   53.1926   17.7552   39.3575 C   0  0  0  0  0  0  0  0  0  0  0  0
   51.3998   17.6130   38.5583 H   0  0  0  0  0  0  0  0  0  0  0  0
 22 23  1  0  0  0
 23 14  1  0  0  0
 14 15  1  0  0  0
 14 16  1  0  0  0
 15 19  1  0  0  0
 16 17  1  0  0  0
 16 18  1  0  0  0
 18 19  1  0  0  0
 19  1  1  0  0  0
  1  2  1  0  0  0
  2  3  2  0  0  0
  2 11  1  0  0  0
  3  4  1  0  0  0
  4  5  1  0  0  0
  5  6  1  0  0  0
  5 11  1  0  0  0
  6  7  2  0  0  0
  6  8  1  0  0  0
  8  9  1  0  0  0
  9 10  2  0  0  0
 10 11  1  0  0  0
 22 24  1  0  0  0
 17 20  1  0  0  0
 19 21  1  0  0  0
  4 12  1  0  0  0
  8 13  1  0  0  0
M  CHG 1  19   1
M  END
> <minimizedAffinity>
-7.79047

$$$$
1N3I_DIH_A_401


 24 26  0  0  0  0  0  0  0  0999 V2000
   55.3985   17.7959   43.5145 C   0  0  0  0  0  0  0  0  0  0  0  0
   56.6364   17.5354   44.2908 C   0  0  0  0  0  0  0  0  0  0  0  0
   56.8401   16.7156   45.3937 C   0  0  0  0  0  0  0  0  0  0  0  0
   58.0662   16.6971   45.8600 N   0  0  0  0  0  0  0  0  0  0  0  0
   58.7648   17.5620   45.0295 C   0  0  0  0  0  0  0  0  0  0  0  0
   60.1762   17.9632   45.0355 C   0  0  0  0  0  0  0  0  0  0  0  0
   61.0432   17.5872   45.8209 O   0  0  0  0  0  0  0  0  0  0  0  0
   60.5360   18.8943   44.0002 N   0  0  0  0  0  0  0  0  0  0  0  0
   59.6268   19.4118   43.0221 C   0  0  0  0  0  0  0  0  0  0  0  0
   58.2878   19.0318   43.0141 N   0  0  0  0  0  0  0  0  0  0  0  0
   57.9033   18.0992   44.0410 C   0  0  0  0  0  0  0  0  0  0  0  0
   58.4125   16.1851   46.6263 H   0  0  0  0  0  0  0  0  0  0  0  0
   61.4720   19.1969   43.9611 H   0  0  0  0  0  0  0  0  0  0  0  0
   55.6525   15.7169   40.6022 C   0  0  0  0  0  0  0  0  0  0  0  0
   55.4993   15.9144   42.0489 C   0  0  0  0  0  0  0  0  0  0  0  0
   55.2136   16.9730   39.9304 C   0  0  0  0  0  0  0  0  0  0  0  0
   53.9187   16.9577   39.3629 O   0  0  0  0  0  0  0  0  0  0  0  0
   55.5093   17.8715   41.0680 C   0  0  0  0  0  0  0  0  0  0  0  0
   54.9724   17.2507   42.2462 N   0  0  0  0  0  0  0  0  0  0  0  0
   53.2703   16.7179   40.0433 H   0  0  0  0  0  0  0  0  0  0  0  0
   53.9613   17.3604   42.3233 H   0  0  0  0  0  0  0  0  0  0  0  0
   57.6214   15.0048   39.0496 O   0  0  0  0  0  0  0  0  0  0  0  0
   57.0623   15.3470   40.3084 C   0  0  0  0  0  0  0  0  0  0  0  0
   58.5653   14.8092   39.1574 H   0  0  0  0  0  0  0  0  0  0  0  0
 22 23  1  0  0  0
 23 14  1  0  0  0
 14 15  1  0  0  0
 14 16  1  0  0  0
 15 19  1  0  0  0
 16 17  1  0  0  0
 16 18  1  0  0  0
 18 19  1  0  0  0
 19  1  1  0  0  0
  1  2  1  0  0  0
  2  3  2  0  0  0
  2 11  1  0  0  0
  3  4  1  0  0  0
  4  5  1  0  0  0
  5  6  1  0  0  0
  5 11  1  0  0  0
  6  7  2  0  0  0
  6  8  1  0  0  0
  8  9  1  0  0  0
  9 10  2  0  0  0
 10 11  1  0  0  0
 22 24  1  0  0  0
 17 20  1  0  0  0
 19 21  1  0  0  0
  4 12  1  0  0  0
  8 13  1  0  0  0
M  CHG 1  19   1
M  END
> <minimizedAffinity>
-7.63451

$$$$
1N3I_DIH_A_401


 24 26  0  0  0  0  0  0  0  0999 V2000
   56.6603   17.2587   44.9481 C   0  0  0  0  0  0  0  0  0  0  0  0
   56.1192   16.3720   43.8879 C   0  0  0  0  0  0  0  0  0  0  0  0
   55.5064   15.1297   43.9928 C   0  0  0  0  0  0  0  0  0  0  0  0
   55.1315   14.5914   42.8567 N   0  0  0  0  0  0  0  0  0  0  0  0
   55.5086   15.5176   41.8944 C   0  0  0  0  0  0  0  0  0  0  0  0
   55.3618   15.4947   40.4347 C   0  0  0  0  0  0  0  0  0  0  0  0
   54.8522   14.6017   39.7618 O   0  0  0  0  0  0  0  0  0  0  0  0
   55.8838   16.6551   39.7645 N   0  0  0  0  0  0  0  0  0  0  0  0
   56.5014   17.7652   40.4258 C   0  0  0  0  0  0  0  0  0  0  0  0
   56.6408   17.7893   41.8105 N   0  0  0  0  0  0  0  0  0  0  0  0
   56.1248   16.6384   42.5043 C   0  0  0  0  0  0  0  0  0  0  0  0
   54.6837   13.7257   42.7180 H   0  0  0  0  0  0  0  0  0  0  0  0
   55.8116   16.6887   38.7832 H   0  0  0  0  0  0  0  0  0  0  0  0
   59.7009   19.1198   44.5491 C   0  0  0  0  0  0  0  0  0  0  0  0
   58.2814   19.0104   44.9076 C   0  0  0  0  0  0  0  0  0  0  0  0
   60.2970   17.7583   44.6623 C   0  0  0  0  0  0  0  0  0  0  0  0
   61.0525   17.5029   45.8298 O   0  0  0  0  0  0  0  0  0  0  0  0
   59.0405   17.0157   44.4201 C   0  0  0  0  0  0  0  0  0  0  0  0
   58.0282   17.6216   45.2385 N   0  0  0  0  0  0  0  0  0  0  0  0
   60.5067   17.6770   46.6126 H   0  0  0  0  0  0  0  0  0  0  0  0
   58.0940   17.3427   46.2174 H   0  0  0  0  0  0  0  0  0  0  0  0
   58.9411   19.5116   42.0867 O   0  0  0  0  0  0  0  0  0  0  0  0
   59.8148   19.7073   43.1879 C   0  0  0  0  0  0  0  0  0  0  0  0
   59.2622   20.0192   41.3250 H   0  0  0  0  0  0  0  0  0  0  0  0
 22 23  1  0  0  0
 23 14  1  0  0  0
 14 15  1  0  0  0
 14 16  1  0  0  0
 15 19  1  0  0  0
 16 17  1  0  0  0
 16 18  1  0  0  0
 18 19  1  0  0  0
 19  1  1  0  0  0
  1  2  1  0  0  0
  2  3  2  0  0  0
  2 11  1  0  0  0
  3  4  1  0  0  0
  4  5  1  0  0  0
  5  6  1  0  0  0
  5 11  1  0  0  0
  6  7  2  0  0  0
  6  8  1  0  0  0
  8  9  1  0  0  0
  9 10  2  0  0  0
 10 11  1  0  0  0
 22 24  1  0  0  0
 17 20  1  0  0  0
 19 21  1  0  0  0
  4 12  1  0  0  0
  8 13  1  0  0  0
M  CHG 1  19   1
M  END
> <minimizedAffinity>
-7.57818

$$$$
1N3I_DIH_A_401


 24 26  0  0  0  0  0  0  0  0999 V2000
   55.8740   18.6085   42.3252 C   0  0  0  0  0  0  0  0  0  0  0  0
   55.0720   18.4669   41.0844 C   0  0  0  0  0  0  0  0  0  0  0  0
   54.4100   19.4327   40.3368 C   0  0  0  0  0  0  0  0  0  0  0  0
   53.7807   18.9867   39.2755 N   0  0  0  0  0  0  0  0  0  0  0  0
   54.0171   17.6192   39.2828 C   0  0  0  0  0  0  0  0  0  0  0  0
   53.5815   16.5678   38.3568 C   0  0  0  0  0  0  0  0  0  0  0  0
   52.8888   16.7145   37.3525 O   0  0  0  0  0  0  0  0  0  0  0  0
   54.0328   15.2461   38.7000 N   0  0  0  0  0  0  0  0  0  0  0  0
   54.8431   14.9355   39.8394 C   0  0  0  0  0  0  0  0  0  0  0  0
   55.2582   15.9315   40.7185 N   0  0  0  0  0  0  0  0  0  0  0  0
   54.8195   17.2640   40.3955 C   0  0  0  0  0  0  0  0  0  0  0  0
   53.2586   19.5052   38.6215 H   0  0  0  0  0  0  0  0  0  0  0  0
   53.7663   14.5036   38.1111 H   0  0  0  0  0  0  0  0  0  0  0  0
   58.0786   16.8464   44.5396 C   0  0  0  0  0  0  0  0  0  0  0  0
   56.8578   16.9484   43.7304 C   0  0  0  0  0  0  0  0  0  0  0  0
   59.0629   17.8209   43.9888 C   0  0  0  0  0  0  0  0  0  0  0  0
   60.0777   17.2840   43.1636 O   0  0  0  0  0  0  0  0  0  0  0  0
   58.0625   18.7493   43.4177 C   0  0  0  0  0  0  0  0  0  0  0  0
   57.1010   17.9506   42.7112 N   0  0  0  0  0  0  0  0  0  0  0  0
   59.6730   16.7929   42.4315 H   0  0  0  0  0  0  0  0  0  0  0  0
   57.4413   17.6368   41.8023 H   0  0  0  0  0  0  0  0  0  0  0  0
   57.8606   16.1794   47.0499 O   0  0  0  0  0  0  0  0  0  0  0  0
   57.7376   17.0880   45.9666 C   0  0  0  0  0  0  0  0  0  0  0  0
   57.5635   16.6089   47.8674 H   0  0  0  0  0  0  0  0  0  0  0  0
 22 23  1  0  0  0
 23 14  1  0  0  0
 14 15  1  0  0  0
 14 16  1  0  0  0
 15 19  1  0  0  0
 16 17  1  0  0  0
 16 18  1  0  0  0
 18 19  1  0  0  0
 19  1  1  0  0  0
  1  2  1  0  0  0
  2  3  2  0  0  0
  2 11  1  0  0  0
  3  4  1  0  0  0
  4  5  1  0  0  0
  5  6  1  0  0  0
  5 11  1  0  0  0
  6  7  2  0  0  0
  6  8  1  0  0  0
  8  9  1  0  0  0
  9 10  2  0  0  0
 10 11  1  0  0  0
 22 24  1  0  0  0
 17 20  1  0  0  0
 19 21  1  0  0  0
  4 12  1  0  0  0
  8 13  1  0  0  0
M  CHG 1  19   1
M  END
> <minimizedAffinity>
-7.54645

$$$$
