4BAN_M6S_B_1287


 38 40  0  0  0  0  0  0  0  0999 V2000
   17.9691  -13.1549   22.2841 C   0  0  0  0  0  0  0  0  0  0  0  0
   16.9127  -12.5756   22.5459 O   0  0  0  0  0  0  0  0  0  0  0  0
   18.7665  -12.6530   21.3064 N   0  0  0  0  0  0  0  0  0  0  0  0
   18.5483  -11.5372   20.3800 C   0  0  0  0  0  0  0  0  0  0  0  0
   19.7176  -11.9876   19.4889 C   0  0  0  0  0  0  0  0  0  0  0  0
   20.0087  -13.0163   20.5917 C   0  0  0  0  0  0  0  0  0  0  0  0
   17.1654  -11.7447   19.8090 C   0  0  0  0  0  0  0  0  0  0  0  0
   16.8798  -12.8255   19.3273 O   0  0  0  0  0  0  0  0  0  0  0  0
   16.2202  -10.8020   19.9566 N   0  0  0  0  0  0  0  0  0  0  0  0
   16.4244   -9.9444   20.3948 H   0  0  0  0  0  0  0  0  0  0  0  0
   14.8797  -11.0860   19.4481 C   0  0  0  0  0  0  0  0  0  0  0  0
   13.9309  -10.9320   20.5987 C   0  0  0  0  0  0  0  0  0  0  0  0
   13.1248  -12.0039   20.9410 C   0  0  0  0  0  0  0  0  0  0  0  0
   12.2484  -11.8968   22.0061 C   0  0  0  0  0  0  0  0  0  0  0  0
   12.1334  -10.6835   22.6955 C   0  0  0  0  0  0  0  0  0  0  0  0
   12.9505   -9.5958   22.3333 C   0  0  0  0  0  0  0  0  0  0  0  0
   13.8445   -9.7270   21.2779 C   0  0  0  0  0  0  0  0  0  0  0  0
   11.2225  -10.5812   23.8698 C   0  0  0  0  0  0  0  0  0  0  0  0
   10.6692  -11.6643   24.3770 N   0  0  0  0  0  0  0  0  0  0  0  0
   10.8744   -9.3526   24.3841 N   0  0  0  0  0  0  0  0  0  0  0  0
   10.9065  -12.5510   24.0213 H   0  0  0  0  0  0  0  0  0  0  0  0
   11.2781   -8.5331   24.0171 H   0  0  0  0  0  0  0  0  0  0  0  0
   10.2219   -9.2935   25.1189 H   0  0  0  0  0  0  0  0  0  0  0  0
   18.3102  -14.4233   23.0198 C   0  0  0  0  0  0  0  0  0  0  0  0
   18.7853  -14.0974   24.4561 C   0  0  0  0  0  0  0  0  0  0  0  0
   18.9484  -15.3898   25.2859 C   0  0  0  0  0  0  0  0  0  0  0  0
   19.4120  -15.0483   26.7157 C   0  0  0  0  0  0  0  0  0  0  0  0
   20.7312  -14.2523   26.7036 C   0  0  0  0  0  0  0  0  0  0  0  0
   20.5823  -12.9556   25.8875 C   0  0  0  0  0  0  0  0  0  0  0  0
   20.1166  -13.3000   24.4588 C   0  0  0  0  0  0  0  0  0  0  0  0
   17.0854  -15.2674   23.0411 N   0  0  0  0  0  0  0  0  0  0  0  0
   16.2810  -14.6443   23.1127 H   0  0  0  0  0  0  0  0  0  0  0  0
   16.8677  -16.1531   21.8646 C   0  0  0  0  0  0  0  0  0  0  0  0
   15.5251  -15.8686   21.2121 C   0  0  0  0  0  0  0  0  0  0  0  0
   15.4452  -15.7522   19.9968 O   0  0  0  0  0  0  0  0  0  0  0  0
   13.0676  -15.5068   21.4604 C   0  0  0  0  0  0  0  0  0  0  0  0
   14.4190  -15.7584   21.9953 N   0  0  0  0  0  0  0  0  0  0  0  0
   14.5256  -15.8513   22.9696 H   0  0  0  0  0  0  0  0  0  0  0  0
 25 26  1  0  0  0
 25 30  1  0  0  0
 25 24  1  0  0  0
 26 27  1  0  0  0
 27 28  1  0  0  0
 28 29  1  0  0  0
 29 30  1  0  0  0
 31 24  1  0  0  0
 31 33  1  0  0  0
 24  1  1  0  0  0
  1  2  2  0  0  0
  1  3  1  0  0  0
  3  4  1  0  0  0
  3  6  1  0  0  0
  4  7  1  0  0  0
  4  5  1  0  0  0
  7  8  2  0  0  0
  7  9  1  0  0  0
  9 11  1  0  0  0
 11 12  1  0  0  0
 12 13  1  0  0  0
 12 17  2  0  0  0
 13 14  2  0  0  0
 14 15  1  0  0  0
 15 16  2  0  0  0
 15 18  1  0  0  0
 16 17  1  0  0  0
 18 19  2  0  0  0
 18 20  1  0  0  0
  5  6  1  0  0  0
 33 34  1  0  0  0
 34 35  2  0  0  0
 34 37  1  0  0  0
 36 37  1  0  0  0
 31 32  1  0  0  0
  9 10  1  0  0  0
 19 21  1  0  0  0
 20 22  1  0  0  0
 20 23  1  0  0  0
 37 38  1  0  0  0
M  END
> <minimizedAffinity>
-10.55061

$$$$
4BAN_M6S_B_1287


 38 40  0  0  0  0  0  0  0  0999 V2000
   17.9096  -13.1389   22.3055 C   0  0  0  0  0  0  0  0  0  0  0  0
   16.8635  -12.5277   22.5344 O   0  0  0  0  0  0  0  0  0  0  0  0
   18.7423  -12.6733   21.3395 N   0  0  0  0  0  0  0  0  0  0  0  0
   18.5754  -11.5662   20.3921 C   0  0  0  0  0  0  0  0  0  0  0  0
   19.7521  -12.0609   19.5351 C   0  0  0  0  0  0  0  0  0  0  0  0
   19.9902  -13.0802   20.6591 C   0  0  0  0  0  0  0  0  0  0  0  0
   17.2008  -11.7454   19.7923 C   0  0  0  0  0  0  0  0  0  0  0  0
   16.8995  -12.8235   19.3141 O   0  0  0  0  0  0  0  0  0  0  0  0
   16.2760  -10.7786   19.9103 N   0  0  0  0  0  0  0  0  0  0  0  0
   16.4915   -9.9221   20.3451 H   0  0  0  0  0  0  0  0  0  0  0  0
   14.9405  -11.0347   19.3745 C   0  0  0  0  0  0  0  0  0  0  0  0
   13.9836  -10.9655   20.5266 C   0  0  0  0  0  0  0  0  0  0  0  0
   13.6489  -12.1381   21.1815 C   0  0  0  0  0  0  0  0  0  0  0  0
   12.7785  -12.1049   22.2564 C   0  0  0  0  0  0  0  0  0  0  0  0
   12.1890  -10.8939   22.6394 C   0  0  0  0  0  0  0  0  0  0  0  0
   12.5281   -9.7081   21.9604 C   0  0  0  0  0  0  0  0  0  0  0  0
   13.4238   -9.7537   20.8994 C   0  0  0  0  0  0  0  0  0  0  0  0
   11.2865  -10.8502   23.8237 C   0  0  0  0  0  0  0  0  0  0  0  0
   11.3848   -9.8685   24.6972 N   0  0  0  0  0  0  0  0  0  0  0  0
   10.4025  -11.8759   24.0718 N   0  0  0  0  0  0  0  0  0  0  0  0
   12.0118   -9.1269   24.5358 H   0  0  0  0  0  0  0  0  0  0  0  0
   10.3162  -12.6174   23.4299 H   0  0  0  0  0  0  0  0  0  0  0  0
    9.8566  -11.8680   24.8910 H   0  0  0  0  0  0  0  0  0  0  0  0
   18.1995  -14.4046   23.0674 C   0  0  0  0  0  0  0  0  0  0  0  0
   18.7447  -14.0682   24.4761 C   0  0  0  0  0  0  0  0  0  0  0  0
   18.9377  -15.3536   25.3103 C   0  0  0  0  0  0  0  0  0  0  0  0
   19.4712  -15.0016   26.7130 C   0  0  0  0  0  0  0  0  0  0  0  0
   20.7940  -14.2158   26.6302 C   0  0  0  0  0  0  0  0  0  0  0  0
   20.6158  -12.9262   25.8088 C   0  0  0  0  0  0  0  0  0  0  0  0
   20.0802  -13.2811   24.4074 C   0  0  0  0  0  0  0  0  0  0  0  0
   16.9274  -15.1708   23.1560 N   0  0  0  0  0  0  0  0  0  0  0  0
   16.1759  -14.5041   23.3326 H   0  0  0  0  0  0  0  0  0  0  0  0
   16.5491  -15.9720   21.9598 C   0  0  0  0  0  0  0  0  0  0  0  0
   15.5206  -17.0313   22.3192 C   0  0  0  0  0  0  0  0  0  0  0  0
   14.3361  -16.7354   22.3986 O   0  0  0  0  0  0  0  0  0  0  0  0
   15.0157  -19.4135   22.8690 C   0  0  0  0  0  0  0  0  0  0  0  0
   15.9343  -18.3081   22.5377 N   0  0  0  0  0  0  0  0  0  0  0  0
   16.8967  -18.5048   22.4713 H   0  0  0  0  0  0  0  0  0  0  0  0
 25 26  1  0  0  0
 25 30  1  0  0  0
 25 24  1  0  0  0
 26 27  1  0  0  0
 27 28  1  0  0  0
 28 29  1  0  0  0
 29 30  1  0  0  0
 31 24  1  0  0  0
 31 33  1  0  0  0
 24  1  1  0  0  0
  1  2  2  0  0  0
  1  3  1  0  0  0
  3  4  1  0  0  0
  3  6  1  0  0  0
  4  7  1  0  0  0
  4  5  1  0  0  0
  7  8  2  0  0  0
  7  9  1  0  0  0
  9 11  1  0  0  0
 11 12  1  0  0  0
 12 13  1  0  0  0
 12 17  2  0  0  0
 13 14  2  0  0  0
 14 15  1  0  0  0
 15 16  2  0  0  0
 15 18  1  0  0  0
 16 17  1  0  0  0
 18 19  2  0  0  0
 18 20  1  0  0  0
  5  6  1  0  0  0
 33 34  1  0  0  0
 34 35  2  0  0  0
 34 37  1  0  0  0
 36 37  1  0  0  0
 31 32  1  0  0  0
  9 10  1  0  0  0
 19 21  1  0  0  0
 20 22  1  0  0  0
 20 23  1  0  0  0
 37 38  1  0  0  0
M  END
> <minimizedAffinity>
-9.86886

$$$$
4BAN_M6S_B_1287


 38 40  0  0  0  0  0  0  0  0999 V2000
   17.7949  -13.3463   22.2383 C   0  0  0  0  0  0  0  0  0  0  0  0
   16.7741  -12.7026   22.4907 O   0  0  0  0  0  0  0  0  0  0  0  0
   18.6722  -12.8524   21.3273 N   0  0  0  0  0  0  0  0  0  0  0  0
   18.5817  -11.6713   20.4625 C   0  0  0  0  0  0  0  0  0  0  0  0
   19.7538  -12.1591   19.5952 C   0  0  0  0  0  0  0  0  0  0  0  0
   19.9154  -13.2693   20.6442 C   0  0  0  0  0  0  0  0  0  0  0  0
   17.2150  -11.7373   19.8226 C   0  0  0  0  0  0  0  0  0  0  0  0
   16.8868  -12.7488   19.2303 O   0  0  0  0  0  0  0  0  0  0  0  0
   16.3221  -10.7542   20.0230 N   0  0  0  0  0  0  0  0  0  0  0  0
   16.5578   -9.9552   20.5478 H   0  0  0  0  0  0  0  0  0  0  0  0
   14.9905  -10.9045   19.4396 C   0  0  0  0  0  0  0  0  0  0  0  0
   14.0060  -10.8413   20.5685 C   0  0  0  0  0  0  0  0  0  0  0  0
   13.4695  -12.0241   21.0471 C   0  0  0  0  0  0  0  0  0  0  0  0
   12.5683  -11.9993   22.0965 C   0  0  0  0  0  0  0  0  0  0  0  0
   12.1528  -10.7732   22.6302 C   0  0  0  0  0  0  0  0  0  0  0  0
   12.6966   -9.5749   22.1297 C   0  0  0  0  0  0  0  0  0  0  0  0
   13.6204   -9.6177   21.0929 C   0  0  0  0  0  0  0  0  0  0  0  0
   11.2167  -10.7477   23.7887 C   0  0  0  0  0  0  0  0  0  0  0  0
   10.6268  -11.8557   24.1899 N   0  0  0  0  0  0  0  0  0  0  0  0
   10.8846   -9.5587   24.3978 N   0  0  0  0  0  0  0  0  0  0  0  0
   10.8522  -12.7149   23.7654 H   0  0  0  0  0  0  0  0  0  0  0  0
   11.3155   -8.7214   24.1106 H   0  0  0  0  0  0  0  0  0  0  0  0
   10.2162   -9.5457   25.1205 H   0  0  0  0  0  0  0  0  0  0  0  0
   18.0052  -14.6778   22.9087 C   0  0  0  0  0  0  0  0  0  0  0  0
   17.9060  -15.8211   21.8705 C   0  0  0  0  0  0  0  0  0  0  0  0
   18.0579  -17.1974   22.5549 C   0  0  0  0  0  0  0  0  0  0  0  0
   17.9669  -18.3246   21.5074 C   0  0  0  0  0  0  0  0  0  0  0  0
   16.6400  -18.2606   20.7269 C   0  0  0  0  0  0  0  0  0  0  0  0
   16.4777  -16.8972   20.0310 C   0  0  0  0  0  0  0  0  0  0  0  0
   16.5712  -15.7718   21.0806 C   0  0  0  0  0  0  0  0  0  0  0  0
   19.3504  -14.6478   23.5432 N   0  0  0  0  0  0  0  0  0  0  0  0
   19.9792  -14.1502   22.9128 H   0  0  0  0  0  0  0  0  0  0  0  0
   19.4412  -13.9969   24.8789 C   0  0  0  0  0  0  0  0  0  0  0  0
   20.4991  -14.6681   25.7389 C   0  0  0  0  0  0  0  0  0  0  0  0
   20.7947  -14.1968   26.8285 O   0  0  0  0  0  0  0  0  0  0  0  0
   22.1197  -16.5411   26.0514 C   0  0  0  0  0  0  0  0  0  0  0  0
   21.0992  -15.8011   25.2856 N   0  0  0  0  0  0  0  0  0  0  0  0
   20.8391  -16.1451   24.4006 H   0  0  0  0  0  0  0  0  0  0  0  0
 25 26  1  0  0  0
 25 30  1  0  0  0
 25 24  1  0  0  0
 26 27  1  0  0  0
 27 28  1  0  0  0
 28 29  1  0  0  0
 29 30  1  0  0  0
 31 24  1  0  0  0
 31 33  1  0  0  0
 24  1  1  0  0  0
  1  2  2  0  0  0
  1  3  1  0  0  0
  3  4  1  0  0  0
  3  6  1  0  0  0
  4  7  1  0  0  0
  4  5  1  0  0  0
  7  8  2  0  0  0
  7  9  1  0  0  0
  9 11  1  0  0  0
 11 12  1  0  0  0
 12 13  1  0  0  0
 12 17  2  0  0  0
 13 14  2  0  0  0
 14 15  1  0  0  0
 15 16  2  0  0  0
 15 18  1  0  0  0
 16 17  1  0  0  0
 18 19  2  0  0  0
 18 20  1  0  0  0
  5  6  1  0  0  0
 33 34  1  0  0  0
 34 35  2  0  0  0
 34 37  1  0  0  0
 36 37  1  0  0  0
 31 32  1  0  0  0
  9 10  1  0  0  0
 19 21  1  0  0  0
 20 22  1  0  0  0
 20 23  1  0  0  0
 37 38  1  0  0  0
M  END
> <minimizedAffinity>
-8.79440

$$$$
4BAN_M6S_B_1287


 38 40  0  0  0  0  0  0  0  0999 V2000
   13.8523  -13.4432   21.5771 C   0  0  0  0  0  0  0  0  0  0  0  0
   14.8779  -13.3271   22.2515 O   0  0  0  0  0  0  0  0  0  0  0  0
   13.4151  -14.6887   21.2591 N   0  0  0  0  0  0  0  0  0  0  0  0
   14.0237  -16.0011   21.5002 C   0  0  0  0  0  0  0  0  0  0  0  0
   13.0711  -16.6781   20.5012 C   0  0  0  0  0  0  0  0  0  0  0  0
   12.3599  -15.3183   20.4368 C   0  0  0  0  0  0  0  0  0  0  0  0
   15.4620  -15.8720   21.0570 C   0  0  0  0  0  0  0  0  0  0  0  0
   15.7107  -15.7999   19.8676 O   0  0  0  0  0  0  0  0  0  0  0  0
   16.4392  -15.6968   21.9615 N   0  0  0  0  0  0  0  0  0  0  0  0
   16.2424  -15.6974   22.9262 H   0  0  0  0  0  0  0  0  0  0  0  0
   17.8031  -15.5050   21.4726 C   0  0  0  0  0  0  0  0  0  0  0  0
   18.5899  -14.8931   22.5926 C   0  0  0  0  0  0  0  0  0  0  0  0
   19.8262  -14.3391   22.3086 C   0  0  0  0  0  0  0  0  0  0  0  0
   20.5703  -13.7555   23.3185 C   0  0  0  0  0  0  0  0  0  0  0  0
   20.0992  -13.7829   24.6369 C   0  0  0  0  0  0  0  0  0  0  0  0
   18.8449  -14.3577   24.9172 C   0  0  0  0  0  0  0  0  0  0  0  0
   18.0977  -14.9167   23.8879 C   0  0  0  0  0  0  0  0  0  0  0  0
   20.8788  -13.1161   25.7170 C   0  0  0  0  0  0  0  0  0  0  0  0
   21.0402  -11.8082   25.7085 N   0  0  0  0  0  0  0  0  0  0  0  0
   21.5157  -13.8591   26.6851 N   0  0  0  0  0  0  0  0  0  0  0  0
   20.5922  -11.2614   25.0234 H   0  0  0  0  0  0  0  0  0  0  0  0
   21.4063  -14.8373   26.7063 H   0  0  0  0  0  0  0  0  0  0  0  0
   22.0807  -13.4124   27.3563 H   0  0  0  0  0  0  0  0  0  0  0  0
   13.1533  -12.2027   21.0882 C   0  0  0  0  0  0  0  0  0  0  0  0
   12.9273  -11.2185   22.2609 C   0  0  0  0  0  0  0  0  0  0  0  0
   12.7695   -9.7730   21.7405 C   0  0  0  0  0  0  0  0  0  0  0  0
   12.5553   -8.8040   22.9201 C   0  0  0  0  0  0  0  0  0  0  0  0
   11.3282   -9.2051   23.7611 C   0  0  0  0  0  0  0  0  0  0  0  0
   11.4745  -10.6414   24.2951 C   0  0  0  0  0  0  0  0  0  0  0  0
   11.6906  -11.6079   23.1136 C   0  0  0  0  0  0  0  0  0  0  0  0
   14.0127  -11.5935   20.0378 N   0  0  0  0  0  0  0  0  0  0  0  0
   13.4361  -10.9424   19.5050 H   0  0  0  0  0  0  0  0  0  0  0  0
   15.2142  -10.8518   20.5094 C   0  0  0  0  0  0  0  0  0  0  0  0
   16.4900  -11.5663   20.0957 C   0  0  0  0  0  0  0  0  0  0  0  0
   16.4341  -12.5625   19.3877 O   0  0  0  0  0  0  0  0  0  0  0  0
   18.9832  -11.6801   20.1485 C   0  0  0  0  0  0  0  0  0  0  0  0
   17.6879  -11.0759   20.5125 N   0  0  0  0  0  0  0  0  0  0  0  0
   17.6907  -10.2764   21.0870 H   0  0  0  0  0  0  0  0  0  0  0  0
 25 26  1  0  0  0
 25 30  1  0  0  0
 25 24  1  0  0  0
 26 27  1  0  0  0
 27 28  1  0  0  0
 28 29  1  0  0  0
 29 30  1  0  0  0
 31 24  1  0  0  0
 31 33  1  0  0  0
 24  1  1  0  0  0
  1  2  2  0  0  0
  1  3  1  0  0  0
  3  4  1  0  0  0
  3  6  1  0  0  0
  4  7  1  0  0  0
  4  5  1  0  0  0
  7  8  2  0  0  0
  7  9  1  0  0  0
  9 11  1  0  0  0
 11 12  1  0  0  0
 12 13  1  0  0  0
 12 17  2  0  0  0
 13 14  2  0  0  0
 14 15  1  0  0  0
 15 16  2  0  0  0
 15 18  1  0  0  0
 16 17  1  0  0  0
 18 19  2  0  0  0
 18 20  1  0  0  0
  5  6  1  0  0  0
 33 34  1  0  0  0
 34 35  2  0  0  0
 34 37  1  0  0  0
 36 37  1  0  0  0
 31 32  1  0  0  0
  9 10  1  0  0  0
 19 21  1  0  0  0
 20 22  1  0  0  0
 20 23  1  0  0  0
 37 38  1  0  0  0
M  END
> <minimizedAffinity>
-8.41992

$$$$
4BAN_M6S_B_1287


 38 40  0  0  0  0  0  0  0  0999 V2000
   12.7136  -13.7890   20.7857 C   0  0  0  0  0  0  0  0  0  0  0  0
   12.8601  -13.7454   19.5623 O   0  0  0  0  0  0  0  0  0  0  0  0
   12.5437  -12.6269   21.4669 N   0  0  0  0  0  0  0  0  0  0  0  0
   12.6015  -11.2361   21.0049 C   0  0  0  0  0  0  0  0  0  0  0  0
   12.6885  -10.7117   22.4475 C   0  0  0  0  0  0  0  0  0  0  0  0
   12.4356  -12.1671   22.8679 C   0  0  0  0  0  0  0  0  0  0  0  0
   13.8667  -11.1297   20.1865 C   0  0  0  0  0  0  0  0  0  0  0  0
   13.8102  -10.6511   19.0687 O   0  0  0  0  0  0  0  0  0  0  0  0
   15.0571  -11.4259   20.7333 N   0  0  0  0  0  0  0  0  0  0  0  0
   15.1209  -11.7616   21.6566 H   0  0  0  0  0  0  0  0  0  0  0  0
   16.2552  -11.2356   19.9181 C   0  0  0  0  0  0  0  0  0  0  0  0
   17.3651  -11.9923   20.5840 C   0  0  0  0  0  0  0  0  0  0  0  0
   17.1230  -12.5773   21.8149 C   0  0  0  0  0  0  0  0  0  0  0  0
   18.1233  -13.2930   22.4484 C   0  0  0  0  0  0  0  0  0  0  0  0
   19.3973  -13.3705   21.8726 C   0  0  0  0  0  0  0  0  0  0  0  0
   19.6365  -12.7634   20.6250 C   0  0  0  0  0  0  0  0  0  0  0  0
   18.6143  -12.0702   19.9888 C   0  0  0  0  0  0  0  0  0  0  0  0
   20.4615  -14.1774   22.5323 C   0  0  0  0  0  0  0  0  0  0  0  0
   20.4299  -15.4935   22.4722 N   0  0  0  0  0  0  0  0  0  0  0  0
   21.4386  -13.5688   23.2873 N   0  0  0  0  0  0  0  0  0  0  0  0
   19.7381  -15.9453   21.9371 H   0  0  0  0  0  0  0  0  0  0  0  0
   21.4771  -12.5867   23.3433 H   0  0  0  0  0  0  0  0  0  0  0  0
   22.0989  -14.1157   23.7711 H   0  0  0  0  0  0  0  0  0  0  0  0
   12.7804  -15.1212   21.4839 C   0  0  0  0  0  0  0  0  0  0  0  0
   12.6817  -16.2711   20.4530 C   0  0  0  0  0  0  0  0  0  0  0  0
   12.8460  -17.6424   21.1443 C   0  0  0  0  0  0  0  0  0  0  0  0
   12.7555  -18.7762   20.1039 C   0  0  0  0  0  0  0  0  0  0  0  0
   11.4235  -18.7247   19.3311 C   0  0  0  0  0  0  0  0  0  0  0  0
   11.2489  -17.3663   18.6284 C   0  0  0  0  0  0  0  0  0  0  0  0
   11.3420  -16.2343   19.6708 C   0  0  0  0  0  0  0  0  0  0  0  0
   14.0725  -15.1727   22.2194 N   0  0  0  0  0  0  0  0  0  0  0  0
   13.9710  -15.8482   22.9768 H   0  0  0  0  0  0  0  0  0  0  0  0
   15.2731  -15.5577   21.4280 C   0  0  0  0  0  0  0  0  0  0  0  0
   16.2311  -16.3889   22.2650 C   0  0  0  0  0  0  0  0  0  0  0  0
   17.3834  -16.5602   21.8912 O   0  0  0  0  0  0  0  0  0  0  0  0
   16.6475  -17.7270   24.3309 C   0  0  0  0  0  0  0  0  0  0  0  0
   15.7928  -16.9254   23.4351 N   0  0  0  0  0  0  0  0  0  0  0  0
   14.8567  -16.7708   23.6979 H   0  0  0  0  0  0  0  0  0  0  0  0
 25 26  1  0  0  0
 25 30  1  0  0  0
 25 24  1  0  0  0
 26 27  1  0  0  0
 27 28  1  0  0  0
 28 29  1  0  0  0
 29 30  1  0  0  0
 31 24  1  0  0  0
 31 33  1  0  0  0
 24  1  1  0  0  0
  1  2  2  0  0  0
  1  3  1  0  0  0
  3  4  1  0  0  0
  3  6  1  0  0  0
  4  7  1  0  0  0
  4  5  1  0  0  0
  7  8  2  0  0  0
  7  9  1  0  0  0
  9 11  1  0  0  0
 11 12  1  0  0  0
 12 13  1  0  0  0
 12 17  2  0  0  0
 13 14  2  0  0  0
 14 15  1  0  0  0
 15 16  2  0  0  0
 15 18  1  0  0  0
 16 17  1  0  0  0
 18 19  2  0  0  0
 18 20  1  0  0  0
  5  6  1  0  0  0
 33 34  1  0  0  0
 34 35  2  0  0  0
 34 37  1  0  0  0
 36 37  1  0  0  0
 31 32  1  0  0  0
  9 10  1  0  0  0
 19 21  1  0  0  0
 20 22  1  0  0  0
 20 23  1  0  0  0
 37 38  1  0  0  0
M  END
> <minimizedAffinity>
-7.72733

$$$$
4BAN_M6S_B_1287


 38 40  0  0  0  0  0  0  0  0999 V2000
   14.7310  -15.4996   21.6780 C   0  0  0  0  0  0  0  0  0  0  0  0
   14.2451  -15.8787   22.7458 O   0  0  0  0  0  0  0  0  0  0  0  0
   15.2098  -16.4275   20.8102 N   0  0  0  0  0  0  0  0  0  0  0  0
   15.3546  -17.8798   20.9544 C   0  0  0  0  0  0  0  0  0  0  0  0
   16.2798  -17.9561   19.7288 C   0  0  0  0  0  0  0  0  0  0  0  0
   15.9367  -16.4731   19.5235 C   0  0  0  0  0  0  0  0  0  0  0  0
   16.0165  -18.0932   22.2953 C   0  0  0  0  0  0  0  0  0  0  0  0
   15.6407  -19.0105   23.0017 O   0  0  0  0  0  0  0  0  0  0  0  0
   17.0959  -17.3735   22.6430 N   0  0  0  0  0  0  0  0  0  0  0  0
   17.4436  -16.6653   22.0541 H   0  0  0  0  0  0  0  0  0  0  0  0
   17.7394  -17.6720   23.9209 C   0  0  0  0  0  0  0  0  0  0  0  0
   18.6789  -16.5412   24.2150 C   0  0  0  0  0  0  0  0  0  0  0  0
   19.8375  -16.4302   23.4657 C   0  0  0  0  0  0  0  0  0  0  0  0
   20.7179  -15.3901   23.7048 C   0  0  0  0  0  0  0  0  0  0  0  0
   20.4662  -14.4887   24.7463 C   0  0  0  0  0  0  0  0  0  0  0  0
   19.2899  -14.6160   25.5094 C   0  0  0  0  0  0  0  0  0  0  0  0
   18.4026  -15.6506   25.2402 C   0  0  0  0  0  0  0  0  0  0  0  0
   21.3907  -13.3433   24.9755 C   0  0  0  0  0  0  0  0  0  0  0  0
   20.9163  -12.1717   25.3480 N   0  0  0  0  0  0  0  0  0  0  0  0
   22.7371  -13.4642   24.7157 N   0  0  0  0  0  0  0  0  0  0  0  0
   19.9559  -12.0672   25.5378 H   0  0  0  0  0  0  0  0  0  0  0  0
   23.1086  -14.3321   24.4364 H   0  0  0  0  0  0  0  0  0  0  0  0
   23.3286  -12.6828   24.8093 H   0  0  0  0  0  0  0  0  0  0  0  0
   14.8228  -14.0230   21.3989 C   0  0  0  0  0  0  0  0  0  0  0  0
   16.2248  -13.6690   20.8474 C   0  0  0  0  0  0  0  0  0  0  0  0
   16.2136  -12.2794   20.1733 C   0  0  0  0  0  0  0  0  0  0  0  0
   17.6133  -11.9456   19.6207 C   0  0  0  0  0  0  0  0  0  0  0  0
   18.6812  -11.9915   20.7305 C   0  0  0  0  0  0  0  0  0  0  0  0
   18.7111  -13.3741   21.4065 C   0  0  0  0  0  0  0  0  0  0  0  0
   17.3096  -13.7061   21.9563 C   0  0  0  0  0  0  0  0  0  0  0  0
   13.7610  -13.6910   20.4113 N   0  0  0  0  0  0  0  0  0  0  0  0
   13.5370  -14.5439   19.8987 H   0  0  0  0  0  0  0  0  0  0  0  0
   12.4890  -13.1464   20.9604 C   0  0  0  0  0  0  0  0  0  0  0  0
   12.7324  -11.8429   21.7026 C   0  0  0  0  0  0  0  0  0  0  0  0
   12.5514  -11.7810   22.9110 O   0  0  0  0  0  0  0  0  0  0  0  0
   13.4514   -9.4532   21.6357 C   0  0  0  0  0  0  0  0  0  0  0  0
   13.1639  -10.7565   21.0078 N   0  0  0  0  0  0  0  0  0  0  0  0
   13.2909  -10.8444   20.0355 H   0  0  0  0  0  0  0  0  0  0  0  0
 25 26  1  0  0  0
 25 30  1  0  0  0
 25 24  1  0  0  0
 26 27  1  0  0  0
 27 28  1  0  0  0
 28 29  1  0  0  0
 29 30  1  0  0  0
 31 24  1  0  0  0
 31 33  1  0  0  0
 24  1  1  0  0  0
  1  2  2  0  0  0
  1  3  1  0  0  0
  3  4  1  0  0  0
  3  6  1  0  0  0
  4  7  1  0  0  0
  4  5  1  0  0  0
  7  8  2  0  0  0
  7  9  1  0  0  0
  9 11  1  0  0  0
 11 12  1  0  0  0
 12 13  1  0  0  0
 12 17  2  0  0  0
 13 14  2  0  0  0
 14 15  1  0  0  0
 15 16  2  0  0  0
 15 18  1  0  0  0
 16 17  1  0  0  0
 18 19  2  0  0  0
 18 20  1  0  0  0
  5  6  1  0  0  0
 33 34  1  0  0  0
 34 35  2  0  0  0
 34 37  1  0  0  0
 36 37  1  0  0  0
 31 32  1  0  0  0
  9 10  1  0  0  0
 19 21  1  0  0  0
 20 22  1  0  0  0
 20 23  1  0  0  0
 37 38  1  0  0  0
M  END
> <minimizedAffinity>
-7.70074

$$$$
4BAN_M6S_B_1287


 38 40  0  0  0  0  0  0  0  0999 V2000
   19.6618  -16.6816   22.6081 C   0  0  0  0  0  0  0  0  0  0  0  0
   19.8395  -16.7035   21.3882 O   0  0  0  0  0  0  0  0  0  0  0  0
   18.4388  -17.0104   23.0978 N   0  0  0  0  0  0  0  0  0  0  0  0
   17.1844  -17.3122   22.4004 C   0  0  0  0  0  0  0  0  0  0  0  0
   16.3726  -17.1589   23.6971 C   0  0  0  0  0  0  0  0  0  0  0  0
   17.7342  -17.0374   24.3973 C   0  0  0  0  0  0  0  0  0  0  0  0
   17.0103  -16.2131   21.3789 C   0  0  0  0  0  0  0  0  0  0  0  0
   16.7195  -16.5091   20.2346 O   0  0  0  0  0  0  0  0  0  0  0  0
   17.0356  -14.9242   21.7558 N   0  0  0  0  0  0  0  0  0  0  0  0
   17.2149  -14.6734   22.6907 H   0  0  0  0  0  0  0  0  0  0  0  0
   16.7894  -13.9047   20.7378 C   0  0  0  0  0  0  0  0  0  0  0  0
   15.5546  -13.1609   21.1500 C   0  0  0  0  0  0  0  0  0  0  0  0
   15.5646  -11.7778   21.0945 C   0  0  0  0  0  0  0  0  0  0  0  0
   14.4361  -11.0637   21.4561 C   0  0  0  0  0  0  0  0  0  0  0  0
   13.3079  -11.7390   21.9375 C   0  0  0  0  0  0  0  0  0  0  0  0
   13.3112  -13.1456   21.9997 C   0  0  0  0  0  0  0  0  0  0  0  0
   14.4430  -13.8499   21.6084 C   0  0  0  0  0  0  0  0  0  0  0  0
   12.0778  -10.9741   22.2849 C   0  0  0  0  0  0  0  0  0  0  0  0
   11.9214   -9.7381   21.8556 N   0  0  0  0  0  0  0  0  0  0  0  0
   11.1323  -11.5099   23.1299 N   0  0  0  0  0  0  0  0  0  0  0  0
   12.5879   -9.3390   21.2508 H   0  0  0  0  0  0  0  0  0  0  0  0
   11.2333  -12.4318   23.4603 H   0  0  0  0  0  0  0  0  0  0  0  0
   10.3551  -10.9712   23.4037 H   0  0  0  0  0  0  0  0  0  0  0  0
   20.7888  -16.2421   23.5043 C   0  0  0  0  0  0  0  0  0  0  0  0
   20.3389  -15.0517   24.3849 C   0  0  0  0  0  0  0  0  0  0  0  0
   20.6570  -15.3194   25.8723 C   0  0  0  0  0  0  0  0  0  0  0  0
   20.1943  -14.1302   26.7370 C   0  0  0  0  0  0  0  0  0  0  0  0
   20.8515  -12.8137   26.2797 C   0  0  0  0  0  0  0  0  0  0  0  0
   20.5360  -12.5278   24.8004 C   0  0  0  0  0  0  0  0  0  0  0  0
   20.9978  -13.7195   23.9384 C   0  0  0  0  0  0  0  0  0  0  0  0
   21.1720  -17.4107   24.3413 N   0  0  0  0  0  0  0  0  0  0  0  0
   20.4917  -18.1510   24.1697 H   0  0  0  0  0  0  0  0  0  0  0  0
   22.5277  -17.9796   24.1081 C   0  0  0  0  0  0  0  0  0  0  0  0
   23.4554  -16.9401   23.5014 C   0  0  0  0  0  0  0  0  0  0  0  0
   23.7776  -17.0170   22.3236 O   0  0  0  0  0  0  0  0  0  0  0  0
   24.7932  -14.8515   23.7847 C   0  0  0  0  0  0  0  0  0  0  0  0
   23.9090  -15.9225   24.2812 N   0  0  0  0  0  0  0  0  0  0  0  0
   23.6328  -15.8995   25.2259 H   0  0  0  0  0  0  0  0  0  0  0  0
 25 26  1  0  0  0
 25 30  1  0  0  0
 25 24  1  0  0  0
 26 27  1  0  0  0
 27 28  1  0  0  0
 28 29  1  0  0  0
 29 30  1  0  0  0
 31 24  1  0  0  0
 31 33  1  0  0  0
 24  1  1  0  0  0
  1  2  2  0  0  0
  1  3  1  0  0  0
  3  4  1  0  0  0
  3  6  1  0  0  0
  4  7  1  0  0  0
  4  5  1  0  0  0
  7  8  2  0  0  0
  7  9  1  0  0  0
  9 11  1  0  0  0
 11 12  1  0  0  0
 12 13  1  0  0  0
 12 17  2  0  0  0
 13 14  2  0  0  0
 14 15  1  0  0  0
 15 16  2  0  0  0
 15 18  1  0  0  0
 16 17  1  0  0  0
 18 19  2  0  0  0
 18 20  1  0  0  0
  5  6  1  0  0  0
 33 34  1  0  0  0
 34 35  2  0  0  0
 34 37  1  0  0  0
 36 37  1  0  0  0
 31 32  1  0  0  0
  9 10  1  0  0  0
 19 21  1  0  0  0
 20 22  1  0  0  0
 20 23  1  0  0  0
 37 38  1  0  0  0
M  END
> <minimizedAffinity>
-7.62130

$$$$
