3CYZ_9OD_A_124


 14 13  0  0  0  0  0  0  0  0999 V2000
   19.7494   -2.8709   -4.4979 C   0  0  0  0  0  0  0  0  0  0  0  0
   19.7047   -3.3588   -3.0502 C   0  0  0  0  0  0  0  0  0  0  0  0
   18.2987   -3.5723   -2.4698 C   0  0  0  0  0  0  0  0  0  0  0  0
   17.5334   -2.2414   -2.4158 C   0  0  0  0  0  0  0  0  0  0  0  0
   15.3689   -1.3840   -2.8204 O   0  0  0  0  0  0  0  0  0  0  0  0
   16.0195   -2.3265   -2.3776 C   0  0  0  0  0  0  0  0  0  0  0  0
   15.3384   -3.5346   -1.8190 C   0  0  0  0  0  0  0  0  0  0  0  0
   20.7316   -1.7113   -4.5335 C   0  0  0  0  0  0  0  0  0  0  0  0
   22.0409   -1.9092   -3.8114 C   0  0  0  0  0  0  0  0  0  0  0  0
   23.0102   -2.3785   -4.6067 C   0  0  0  0  0  0  0  0  0  0  0  0
   24.3517   -2.6959   -4.1127 C   0  0  0  0  0  0  0  0  0  0  0  0
   24.5443   -2.6140   -2.8740 O   0  0  0  0  0  0  0  0  0  0  0  0
   25.2640   -2.9857   -4.9162 O   0  0  0  0  0  0  0  0  0  0  0  0
   23.8347   -2.3941   -2.3030 H   0  0  0  0  0  0  0  0  0  0  0  0
  5  6  2  0  0  0
  6  7  1  0  0  0
  6  4  1  0  0  0
  4  3  1  0  0  0
  3  2  1  0  0  0
  2  1  1  0  0  0
  1  8  1  0  0  0
  8  9  1  0  0  0
  9 10  2  0  0  0
 10 11  1  0  0  0
 11 12  1  0  0  0
 11 13  2  0  0  0
 12 14  1  0  0  0
M  END
> <minimizedAffinity>
-6.21118

$$$$
3CYZ_9OD_A_124


 14 13  0  0  0  0  0  0  0  0999 V2000
   19.8637   -2.8752   -4.4540 C   0  0  0  0  0  0  0  0  0  0  0  0
   18.8413   -2.4595   -3.3968 C   0  0  0  0  0  0  0  0  0  0  0  0
   17.9485   -1.2685   -3.7758 C   0  0  0  0  0  0  0  0  0  0  0  0
   16.6077   -1.3451   -3.0300 C   0  0  0  0  0  0  0  0  0  0  0  0
   15.5629   -3.1498   -4.1416 O   0  0  0  0  0  0  0  0  0  0  0  0
   15.8891   -2.6806   -3.0547 C   0  0  0  0  0  0  0  0  0  0  0  0
   15.5920   -3.4093   -1.7834 C   0  0  0  0  0  0  0  0  0  0  0  0
   20.5478   -1.6000   -4.9193 C   0  0  0  0  0  0  0  0  0  0  0  0
   22.0560   -1.6042   -4.9291 C   0  0  0  0  0  0  0  0  0  0  0  0
   22.5807   -2.5527   -4.1434 C   0  0  0  0  0  0  0  0  0  0  0  0
   24.0242   -2.7124   -3.9559 C   0  0  0  0  0  0  0  0  0  0  0  0
   24.4727   -2.5784   -2.7901 O   0  0  0  0  0  0  0  0  0  0  0  0
   24.7652   -2.9239   -4.9399 O   0  0  0  0  0  0  0  0  0  0  0  0
   23.8852   -2.4208   -2.0774 H   0  0  0  0  0  0  0  0  0  0  0  0
  5  6  2  0  0  0
  6  7  1  0  0  0
  6  4  1  0  0  0
  4  3  1  0  0  0
  3  2  1  0  0  0
  2  1  1  0  0  0
  1  8  1  0  0  0
  8  9  1  0  0  0
  9 10  2  0  0  0
 10 11  1  0  0  0
 11 12  1  0  0  0
 11 13  2  0  0  0
 12 14  1  0  0  0
M  END
> <minimizedAffinity>
-6.14736

$$$$
3CYZ_9OD_A_124


 14 13  0  0  0  0  0  0  0  0999 V2000
   18.5274   -2.4965   -4.1519 C   0  0  0  0  0  0  0  0  0  0  0  0
   17.8512   -1.2578   -3.5652 C   0  0  0  0  0  0  0  0  0  0  0  0
   16.3716   -1.4300   -3.1903 C   0  0  0  0  0  0  0  0  0  0  0  0
   15.8123   -2.7258   -3.7969 C   0  0  0  0  0  0  0  0  0  0  0  0
   14.8142   -4.7972   -3.2520 O   0  0  0  0  0  0  0  0  0  0  0  0
   15.4272   -3.8234   -2.8235 C   0  0  0  0  0  0  0  0  0  0  0  0
   15.7927   -3.7216   -1.3773 C   0  0  0  0  0  0  0  0  0  0  0  0
   19.1264   -3.2580   -2.9806 C   0  0  0  0  0  0  0  0  0  0  0  0
   20.6255   -3.4239   -2.9749 C   0  0  0  0  0  0  0  0  0  0  0  0
   21.2782   -2.2835   -3.2315 C   0  0  0  0  0  0  0  0  0  0  0  0
   22.7377   -2.2143   -3.3281 C   0  0  0  0  0  0  0  0  0  0  0  0
   23.3983   -2.5141   -2.3025 O   0  0  0  0  0  0  0  0  0  0  0  0
   23.2788   -1.8220   -4.3841 O   0  0  0  0  0  0  0  0  0  0  0  0
   22.9565   -2.8046   -1.5289 H   0  0  0  0  0  0  0  0  0  0  0  0
  5  6  2  0  0  0
  6  7  1  0  0  0
  6  4  1  0  0  0
  4  3  1  0  0  0
  3  2  1  0  0  0
  2  1  1  0  0  0
  1  8  1  0  0  0
  8  9  1  0  0  0
  9 10  2  0  0  0
 10 11  1  0  0  0
 11 12  1  0  0  0
 11 13  2  0  0  0
 12 14  1  0  0  0
M  END
> <minimizedAffinity>
-5.85338

$$$$
3CYZ_9OD_A_124


 14 13  0  0  0  0  0  0  0  0999 V2000
   17.0973   -3.1882   -1.8645 C   0  0  0  0  0  0  0  0  0  0  0  0
   16.2217   -4.4353   -1.7463 C   0  0  0  0  0  0  0  0  0  0  0  0
   14.9457   -4.4281   -2.6012 C   0  0  0  0  0  0  0  0  0  0  0  0
   14.9719   -5.5837   -3.6130 C   0  0  0  0  0  0  0  0  0  0  0  0
   13.0162   -6.1176   -4.8271 O   0  0  0  0  0  0  0  0  0  0  0  0
   14.0529   -5.4598   -4.8133 C   0  0  0  0  0  0  0  0  0  0  0  0
   14.4015   -4.5519   -5.9490 C   0  0  0  0  0  0  0  0  0  0  0  0
   18.3785   -3.6233   -2.5572 C   0  0  0  0  0  0  0  0  0  0  0  0
   18.8207   -2.8027   -3.7429 C   0  0  0  0  0  0  0  0  0  0  0  0
   20.1290   -2.5193   -3.7233 C   0  0  0  0  0  0  0  0  0  0  0  0
   20.7724   -1.6912   -4.7454 C   0  0  0  0  0  0  0  0  0  0  0  0
   20.1042   -1.4228   -5.7747 O   0  0  0  0  0  0  0  0  0  0  0  0
   21.9568   -1.3205   -4.5984 O   0  0  0  0  0  0  0  0  0  0  0  0
   19.2181   -1.7185   -5.8484 H   0  0  0  0  0  0  0  0  0  0  0  0
  5  6  2  0  0  0
  6  7  1  0  0  0
  6  4  1  0  0  0
  4  3  1  0  0  0
  3  2  1  0  0  0
  2  1  1  0  0  0
  1  8  1  0  0  0
  8  9  1  0  0  0
  9 10  2  0  0  0
 10 11  1  0  0  0
 11 12  1  0  0  0
 11 13  2  0  0  0
 12 14  1  0  0  0
M  END
> <minimizedAffinity>
-5.66883

$$$$
3CYZ_9OD_A_124


 14 13  0  0  0  0  0  0  0  0999 V2000
   17.3065   -4.0171   -1.8146 C   0  0  0  0  0  0  0  0  0  0  0  0
   16.8516   -2.6047   -2.1808 C   0  0  0  0  0  0  0  0  0  0  0  0
   17.8249   -1.8062   -3.0607 C   0  0  0  0  0  0  0  0  0  0  0  0
   18.4690   -2.7207   -4.1137 C   0  0  0  0  0  0  0  0  0  0  0  0
   20.1603   -1.5962   -5.3216 O   0  0  0  0  0  0  0  0  0  0  0  0
   19.9180   -2.4414   -4.4644 C   0  0  0  0  0  0  0  0  0  0  0  0
   21.0235   -3.1755   -3.7758 C   0  0  0  0  0  0  0  0  0  0  0  0
   16.0454   -4.8526   -1.6648 C   0  0  0  0  0  0  0  0  0  0  0  0
   15.0167   -4.7303   -2.7610 C   0  0  0  0  0  0  0  0  0  0  0  0
   14.1764   -5.7715   -2.8072 C   0  0  0  0  0  0  0  0  0  0  0  0
   13.1278   -5.8947   -3.8219 C   0  0  0  0  0  0  0  0  0  0  0  0
   13.4842   -5.8637   -5.0261 O   0  0  0  0  0  0  0  0  0  0  0  0
   11.9289   -5.9763   -3.4786 O   0  0  0  0  0  0  0  0  0  0  0  0
   14.3933   -5.8021   -5.2443 H   0  0  0  0  0  0  0  0  0  0  0  0
  5  6  2  0  0  0
  6  7  1  0  0  0
  6  4  1  0  0  0
  4  3  1  0  0  0
  3  2  1  0  0  0
  2  1  1  0  0  0
  1  8  1  0  0  0
  8  9  1  0  0  0
  9 10  2  0  0  0
 10 11  1  0  0  0
 11 12  1  0  0  0
 11 13  2  0  0  0
 12 14  1  0  0  0
M  END
> <minimizedAffinity>
-5.56909

$$$$
3CYZ_9OD_A_124


 14 13  0  0  0  0  0  0  0  0999 V2000
   16.8474   -2.9526   -1.8721 C   0  0  0  0  0  0  0  0  0  0  0  0
   15.4842   -3.6422   -1.9164 C   0  0  0  0  0  0  0  0  0  0  0  0
   15.3638   -4.8004   -2.9181 C   0  0  0  0  0  0  0  0  0  0  0  0
   14.9135   -6.0831   -2.2028 C   0  0  0  0  0  0  0  0  0  0  0  0
   13.7917   -8.0388   -2.9103 O   0  0  0  0  0  0  0  0  0  0  0  0
   13.7289   -6.8174   -2.8013 C   0  0  0  0  0  0  0  0  0  0  0  0
   12.5119   -6.0687   -3.2414 C   0  0  0  0  0  0  0  0  0  0  0  0
   17.5619   -3.3235   -3.1616 C   0  0  0  0  0  0  0  0  0  0  0  0
   18.4752   -2.2802   -3.7551 C   0  0  0  0  0  0  0  0  0  0  0  0
   19.7220   -2.7273   -3.9498 C   0  0  0  0  0  0  0  0  0  0  0  0
   20.7939   -1.8748   -4.4680 C   0  0  0  0  0  0  0  0  0  0  0  0
   21.7597   -1.6329   -3.7018 O   0  0  0  0  0  0  0  0  0  0  0  0
   20.7043   -1.3795   -5.6119 O   0  0  0  0  0  0  0  0  0  0  0  0
   21.7916   -2.0234   -2.8507 H   0  0  0  0  0  0  0  0  0  0  0  0
  5  6  2  0  0  0
  6  7  1  0  0  0
  6  4  1  0  0  0
  4  3  1  0  0  0
  3  2  1  0  0  0
  2  1  1  0  0  0
  1  8  1  0  0  0
  8  9  1  0  0  0
  9 10  2  0  0  0
 10 11  1  0  0  0
 11 12  1  0  0  0
 11 13  2  0  0  0
 12 14  1  0  0  0
M  END
> <minimizedAffinity>
-5.46887

$$$$
3CYZ_9OD_A_124


 14 13  0  0  0  0  0  0  0  0999 V2000
   20.3394   -3.1710   -3.0619 C   0  0  0  0  0  0  0  0  0  0  0  0
   21.1358   -2.5536   -4.2110 C   0  0  0  0  0  0  0  0  0  0  0  0
   22.0504   -1.3818   -3.8240 C   0  0  0  0  0  0  0  0  0  0  0  0
   23.3249   -1.3908   -4.6815 C   0  0  0  0  0  0  0  0  0  0  0  0
   24.4980   -2.6199   -3.0392 O   0  0  0  0  0  0  0  0  0  0  0  0
   24.4479   -2.3021   -4.2242 C   0  0  0  0  0  0  0  0  0  0  0  0
   25.4649   -2.8051   -5.1978 C   0  0  0  0  0  0  0  0  0  0  0  0
   18.9904   -3.5715   -3.6368 C   0  0  0  0  0  0  0  0  0  0  0  0
   17.7788   -3.2872   -2.7847 C   0  0  0  0  0  0  0  0  0  0  0  0
   16.9117   -2.4528   -3.3714 C   0  0  0  0  0  0  0  0  0  0  0  0
   15.6880   -1.9940   -2.7108 C   0  0  0  0  0  0  0  0  0  0  0  0
   15.3164   -0.8159   -2.9391 O   0  0  0  0  0  0  0  0  0  0  0  0
   15.0831   -2.7469   -1.9176 O   0  0  0  0  0  0  0  0  0  0  0  0
   15.7962   -0.2816   -3.5409 H   0  0  0  0  0  0  0  0  0  0  0  0
  5  6  2  0  0  0
  6  7  1  0  0  0
  6  4  1  0  0  0
  4  3  1  0  0  0
  3  2  1  0  0  0
  2  1  1  0  0  0
  1  8  1  0  0  0
  8  9  1  0  0  0
  9 10  2  0  0  0
 10 11  1  0  0  0
 11 12  1  0  0  0
 11 13  2  0  0  0
 12 14  1  0  0  0
M  END
> <minimizedAffinity>
-5.32975

$$$$
3CYZ_9OD_A_124


 14 13  0  0  0  0  0  0  0  0999 V2000
   15.9465   -2.7467   -3.3999 C   0  0  0  0  0  0  0  0  0  0  0  0
   15.5730   -3.3625   -2.0519 C   0  0  0  0  0  0  0  0  0  0  0  0
   15.6183   -4.8967   -1.9931 C   0  0  0  0  0  0  0  0  0  0  0  0
   15.0135   -5.5002   -3.2698 C   0  0  0  0  0  0  0  0  0  0  0  0
   12.7062   -5.9982   -3.3807 O   0  0  0  0  0  0  0  0  0  0  0  0
   13.8217   -6.4211   -3.0903 C   0  0  0  0  0  0  0  0  0  0  0  0
   14.0056   -7.8134   -2.5772 C   0  0  0  0  0  0  0  0  0  0  0  0
   16.7879   -1.5177   -3.0957 C   0  0  0  0  0  0  0  0  0  0  0  0
   18.2432   -1.7539   -2.7779 C   0  0  0  0  0  0  0  0  0  0  0  0
   18.7125   -2.8955   -3.2963 C   0  0  0  0  0  0  0  0  0  0  0  0
   20.0842   -3.3576   -3.0745 C   0  0  0  0  0  0  0  0  0  0  0  0
   20.2696   -4.1934   -2.1551 O   0  0  0  0  0  0  0  0  0  0  0  0
   21.0224   -2.8870   -3.7530 O   0  0  0  0  0  0  0  0  0  0  0  0
   19.5404   -4.5236   -1.6681 H   0  0  0  0  0  0  0  0  0  0  0  0
  5  6  2  0  0  0
  6  7  1  0  0  0
  6  4  1  0  0  0
  4  3  1  0  0  0
  3  2  1  0  0  0
  2  1  1  0  0  0
  1  8  1  0  0  0
  8  9  1  0  0  0
  9 10  2  0  0  0
 10 11  1  0  0  0
 11 12  1  0  0  0
 11 13  2  0  0  0
 12 14  1  0  0  0
M  END
> <minimizedAffinity>
-5.31507

$$$$
3CYZ_9OD_A_124


 14 13  0  0  0  0  0  0  0  0999 V2000
   19.9635   -2.1035   -5.3886 C   0  0  0  0  0  0  0  0  0  0  0  0
   19.8622   -3.2204   -4.3503 C   0  0  0  0  0  0  0  0  0  0  0  0
   19.2515   -2.8126   -3.0012 C   0  0  0  0  0  0  0  0  0  0  0  0
   17.8685   -3.4568   -2.8222 C   0  0  0  0  0  0  0  0  0  0  0  0
   15.9548   -3.4819   -4.2082 O   0  0  0  0  0  0  0  0  0  0  0  0
   16.7073   -2.7866   -3.5316 C   0  0  0  0  0  0  0  0  0  0  0  0
   16.4835   -1.3139   -3.4025 C   0  0  0  0  0  0  0  0  0  0  0  0
   21.1517   -1.2452   -4.9860 C   0  0  0  0  0  0  0  0  0  0  0  0
   22.4705   -1.9544   -4.8054 C   0  0  0  0  0  0  0  0  0  0  0  0
   22.9409   -1.8719   -3.5547 C   0  0  0  0  0  0  0  0  0  0  0  0
   24.2301   -2.4416   -3.1575 C   0  0  0  0  0  0  0  0  0  0  0  0
   25.0289   -2.7558   -4.0747 O   0  0  0  0  0  0  0  0  0  0  0  0
   24.4817   -2.6432   -1.9500 O   0  0  0  0  0  0  0  0  0  0  0  0
   24.8047   -2.5885   -4.9690 H   0  0  0  0  0  0  0  0  0  0  0  0
  5  6  2  0  0  0
  6  7  1  0  0  0
  6  4  1  0  0  0
  4  3  1  0  0  0
  3  2  1  0  0  0
  2  1  1  0  0  0
  1  8  1  0  0  0
  8  9  1  0  0  0
  9 10  2  0  0  0
 10 11  1  0  0  0
 11 12  1  0  0  0
 11 13  2  0  0  0
 12 14  1  0  0  0
M  END
> <minimizedAffinity>
-5.29541

$$$$
3CYZ_9OD_A_124


 14 13  0  0  0  0  0  0  0  0999 V2000
   17.3759   -1.7053   -3.3628 C   0  0  0  0  0  0  0  0  0  0  0  0
   16.0195   -2.3892   -3.5300 C   0  0  0  0  0  0  0  0  0  0  0  0
   16.0716   -3.8501   -4.0016 C   0  0  0  0  0  0  0  0  0  0  0  0
   14.9656   -4.6723   -3.3229 C   0  0  0  0  0  0  0  0  0  0  0  0
   16.2079   -5.1050   -1.3600 O   0  0  0  0  0  0  0  0  0  0  0  0
   15.3845   -5.5467   -2.1566 C   0  0  0  0  0  0  0  0  0  0  0  0
   14.8014   -6.9122   -1.9804 C   0  0  0  0  0  0  0  0  0  0  0  0
   18.4216   -2.6918   -3.8570 C   0  0  0  0  0  0  0  0  0  0  0  0
   19.7433   -2.1147   -4.2984 C   0  0  0  0  0  0  0  0  0  0  0  0
   20.7461   -2.4053   -3.4604 C   0  0  0  0  0  0  0  0  0  0  0  0
   22.1091   -1.9081   -3.6584 C   0  0  0  0  0  0  0  0  0  0  0  0
   22.3351   -1.2446   -4.7010 O   0  0  0  0  0  0  0  0  0  0  0  0
   23.0053   -2.1882   -2.8336 O   0  0  0  0  0  0  0  0  0  0  0  0
   21.6367   -1.0544   -5.2959 H   0  0  0  0  0  0  0  0  0  0  0  0
  5  6  2  0  0  0
  6  7  1  0  0  0
  6  4  1  0  0  0
  4  3  1  0  0  0
  3  2  1  0  0  0
  2  1  1  0  0  0
  1  8  1  0  0  0
  8  9  1  0  0  0
  9 10  2  0  0  0
 10 11  1  0  0  0
 11 12  1  0  0  0
 11 13  2  0  0  0
 12 14  1  0  0  0
M  END
> <minimizedAffinity>
-5.27003

$$$$
