1CEB_AMH_A_90


 14 14  0  0  0  0  0  0  0  0999 V2000
   21.5996   -3.8672   41.0756 C   0  0  0  0  0  0  0  0  0  0  0  0
   20.3462   -3.8719   41.8464 C   0  0  0  0  0  0  0  0  0  0  0  0
   19.6721   -2.5368   41.8448 C   0  0  0  0  0  0  0  0  0  0  0  0
   19.7150   -1.8272   40.5575 C   0  0  0  0  0  0  0  0  0  0  0  0
   21.0341   -1.8546   39.7943 C   0  0  0  0  0  0  0  0  0  0  0  0
   21.7031   -3.1983   39.7538 C   0  0  0  0  0  0  0  0  0  0  0  0
   19.1006   -0.3321   40.5426 C   0  0  0  0  0  0  0  0  0  0  0  0
   17.7102   -0.6224   40.4491 N   0  0  0  0  0  0  0  0  0  0  0  0
   17.5376   -1.1973   39.6244 H   0  0  0  0  0  0  0  0  0  0  0  0
   17.1854    0.2489   40.3721 H   0  0  0  0  0  0  0  0  0  0  0  0
   22.6330   -4.9529   41.2987 C   0  0  0  0  0  0  0  0  0  0  0  0
   23.5749   -5.2514   40.5718 O   0  0  0  0  0  0  0  0  0  0  0  0
   22.4244   -5.6431   42.3580 O   0  0  0  0  0  0  0  0  0  0  0  0
   21.7092   -5.4282   42.9239 H   0  0  0  0  0  0  0  0  0  0  0  0
  1  2  1  0  0  0
  1  6  1  0  0  0
  1 11  1  0  0  0
  2  3  1  0  0  0
  3  4  1  0  0  0
  4  5  1  0  0  0
  4  7  1  0  0  0
  5  6  1  0  0  0
  7  8  1  0  0  0
 11 12  2  0  0  0
 11 13  1  0  0  0
  8  9  1  0  0  0
  8 10  1  0  0  0
 13 14  1  0  0  0
M  END
> <minimizedAffinity>
-6.58263

$$$$
1CEB_AMH_A_90


 14 14  0  0  0  0  0  0  0  0999 V2000
   19.8753   -1.5282   41.2222 C   0  0  0  0  0  0  0  0  0  0  0  0
   20.1767   -2.1035   42.5426 C   0  0  0  0  0  0  0  0  0  0  0  0
   20.6878   -3.5059   42.4492 C   0  0  0  0  0  0  0  0  0  0  0  0
   21.6176   -3.7493   41.3362 C   0  0  0  0  0  0  0  0  0  0  0  0
   21.2645   -3.1290   39.9895 C   0  0  0  0  0  0  0  0  0  0  0  0
   20.7871   -1.7073   40.0639 C   0  0  0  0  0  0  0  0  0  0  0  0
   22.1030   -5.2772   41.1289 C   0  0  0  0  0  0  0  0  0  0  0  0
   23.4550   -5.0702   40.7347 N   0  0  0  0  0  0  0  0  0  0  0  0
   23.4811   -4.4655   39.9137 H   0  0  0  0  0  0  0  0  0  0  0  0
   23.8848   -5.9675   40.5098 H   0  0  0  0  0  0  0  0  0  0  0  0
   18.9654   -0.3217   41.1088 C   0  0  0  0  0  0  0  0  0  0  0  0
   19.1211    0.7843   41.6157 O   0  0  0  0  0  0  0  0  0  0  0  0
   17.8987   -0.5511   40.4367 O   0  0  0  0  0  0  0  0  0  0  0  0
   17.7644   -1.3907   40.0431 H   0  0  0  0  0  0  0  0  0  0  0  0
  1  2  1  0  0  0
  1  6  1  0  0  0
  1 11  1  0  0  0
  2  3  1  0  0  0
  3  4  1  0  0  0
  4  5  1  0  0  0
  4  7  1  0  0  0
  5  6  1  0  0  0
  7  8  1  0  0  0
 11 12  2  0  0  0
 11 13  1  0  0  0
  8  9  1  0  0  0
  8 10  1  0  0  0
 13 14  1  0  0  0
M  END
> <minimizedAffinity>
-6.19573

$$$$
1CEB_AMH_A_90


 14 14  0  0  0  0  0  0  0  0999 V2000
   21.7630   -3.7186   41.0270 C   0  0  0  0  0  0  0  0  0  0  0  0
   22.0936   -2.7752   39.9473 C   0  0  0  0  0  0  0  0  0  0  0  0
   20.9600   -1.8523   39.6311 C   0  0  0  0  0  0  0  0  0  0  0  0
   20.2192   -1.3631   40.8034 C   0  0  0  0  0  0  0  0  0  0  0  0
   19.9043   -2.3770   41.8971 C   0  0  0  0  0  0  0  0  0  0  0  0
   21.0460   -3.2850   42.2530 C   0  0  0  0  0  0  0  0  0  0  0  0
   18.9156   -0.4565   40.5004 C   0  0  0  0  0  0  0  0  0  0  0  0
   18.3282   -0.4029   41.7959 N   0  0  0  0  0  0  0  0  0  0  0  0
   18.1592   -1.3509   42.1321 H   0  0  0  0  0  0  0  0  0  0  0  0
   17.4440    0.1034   41.7476 H   0  0  0  0  0  0  0  0  0  0  0  0
   22.5757   -4.9854   41.2047 C   0  0  0  0  0  0  0  0  0  0  0  0
   23.5975   -5.3095   40.6086 O   0  0  0  0  0  0  0  0  0  0  0  0
   22.0660   -5.8017   42.0508 O   0  0  0  0  0  0  0  0  0  0  0  0
   21.2857   -5.5693   42.5145 H   0  0  0  0  0  0  0  0  0  0  0  0
  1  2  1  0  0  0
  1  6  1  0  0  0
  1 11  1  0  0  0
  2  3  1  0  0  0
  3  4  1  0  0  0
  4  5  1  0  0  0
  4  7  1  0  0  0
  5  6  1  0  0  0
  7  8  1  0  0  0
 11 12  2  0  0  0
 11 13  1  0  0  0
  8  9  1  0  0  0
  8 10  1  0  0  0
 13 14  1  0  0  0
M  END
> <minimizedAffinity>
-6.16916

$$$$
1CEB_AMH_A_90


 14 14  0  0  0  0  0  0  0  0999 V2000
   19.9846   -0.7602   41.7380 C   0  0  0  0  0  0  0  0  0  0  0  0
   19.7188   -1.3068   40.3980 C   0  0  0  0  0  0  0  0  0  0  0  0
   20.9518   -1.8526   39.7511 C   0  0  0  0  0  0  0  0  0  0  0  0
   21.8479   -2.5876   40.6563 C   0  0  0  0  0  0  0  0  0  0  0  0
   22.0886   -1.9837   42.0348 C   0  0  0  0  0  0  0  0  0  0  0  0
   20.8528   -1.4670   42.7136 C   0  0  0  0  0  0  0  0  0  0  0  0
   23.2470   -3.0939   40.0244 C   0  0  0  0  0  0  0  0  0  0  0  0
   23.3439   -4.3883   40.6088 N   0  0  0  0  0  0  0  0  0  0  0  0
   23.3025   -4.3067   41.6246 H   0  0  0  0  0  0  0  0  0  0  0  0
   24.2284   -4.8182   40.3380 H   0  0  0  0  0  0  0  0  0  0  0  0
   19.0043    0.2055   42.3730 C   0  0  0  0  0  0  0  0  0  0  0  0
   19.2115    1.3639   42.7189 O   0  0  0  0  0  0  0  0  0  0  0  0
   17.8547   -0.3132   42.5998 O   0  0  0  0  0  0  0  0  0  0  0  0
   17.6803   -1.1969   42.3418 H   0  0  0  0  0  0  0  0  0  0  0  0
  1  2  1  0  0  0
  1  6  1  0  0  0
  1 11  1  0  0  0
  2  3  1  0  0  0
  3  4  1  0  0  0
  4  5  1  0  0  0
  4  7  1  0  0  0
  5  6  1  0  0  0
  7  8  1  0  0  0
 11 12  2  0  0  0
 11 13  1  0  0  0
  8  9  1  0  0  0
  8 10  1  0  0  0
 13 14  1  0  0  0
M  END
> <minimizedAffinity>
-6.01201

$$$$
1CEB_AMH_A_90


 14 14  0  0  0  0  0  0  0  0999 V2000
   21.3123   -2.3964   40.8153 C   0  0  0  0  0  0  0  0  0  0  0  0
   20.4066   -1.5828   39.9889 C   0  0  0  0  0  0  0  0  0  0  0  0
   19.3512   -0.9028   40.8016 C   0  0  0  0  0  0  0  0  0  0  0  0
   19.8163   -0.3666   42.0895 C   0  0  0  0  0  0  0  0  0  0  0  0
   20.7564   -1.2445   42.9072 C   0  0  0  0  0  0  0  0  0  0  0  0
   21.8456   -1.9028   42.1104 C   0  0  0  0  0  0  0  0  0  0  0  0
   18.6845    0.2732   43.0501 C   0  0  0  0  0  0  0  0  0  0  0  0
   19.0244    1.6532   42.9706 N   0  0  0  0  0  0  0  0  0  0  0  0
   19.9949    1.7814   43.2571 H   0  0  0  0  0  0  0  0  0  0  0  0
   18.4141    2.1897   43.5871 H   0  0  0  0  0  0  0  0  0  0  0  0
   22.1545   -3.4823   40.1764 C   0  0  0  0  0  0  0  0  0  0  0  0
   23.3270   -3.4106   39.8236 O   0  0  0  0  0  0  0  0  0  0  0  0
   21.5052   -4.5645   39.9544 O   0  0  0  0  0  0  0  0  0  0  0  0
   20.6087   -4.6354   40.2177 H   0  0  0  0  0  0  0  0  0  0  0  0
  1  2  1  0  0  0
  1  6  1  0  0  0
  1 11  1  0  0  0
  2  3  1  0  0  0
  3  4  1  0  0  0
  4  5  1  0  0  0
  4  7  1  0  0  0
  5  6  1  0  0  0
  7  8  1  0  0  0
 11 12  2  0  0  0
 11 13  1  0  0  0
  8  9  1  0  0  0
  8 10  1  0  0  0
 13 14  1  0  0  0
M  END
> <minimizedAffinity>
-5.41656

$$$$
1CEB_AMH_A_90


 14 14  0  0  0  0  0  0  0  0999 V2000
   19.5242   -0.7574   42.3737 C   0  0  0  0  0  0  0  0  0  0  0  0
   20.8937   -0.9716   42.8672 C   0  0  0  0  0  0  0  0  0  0  0  0
   21.6554   -1.9468   42.0272 C   0  0  0  0  0  0  0  0  0  0  0  0
   21.4309   -1.8190   40.5796 C   0  0  0  0  0  0  0  0  0  0  0  0
   19.9960   -1.5937   40.1176 C   0  0  0  0  0  0  0  0  0  0  0  0
   19.2309   -0.5874   40.9279 C   0  0  0  0  0  0  0  0  0  0  0  0
   22.1439   -2.9272   39.6432 C   0  0  0  0  0  0  0  0  0  0  0  0
   21.3887   -4.0839   39.9868 N   0  0  0  0  0  0  0  0  0  0  0  0
   21.4376   -4.2350   40.9944 H   0  0  0  0  0  0  0  0  0  0  0  0
   21.7711   -4.8959   39.5023 H   0  0  0  0  0  0  0  0  0  0  0  0
   18.4699   -0.1683   43.2891 C   0  0  0  0  0  0  0  0  0  0  0  0
   17.3429   -0.5997   43.5088 O   0  0  0  0  0  0  0  0  0  0  0  0
   18.8286    0.9349   43.8336 O   0  0  0  0  0  0  0  0  0  0  0  0
   19.6861    1.2781   43.6760 H   0  0  0  0  0  0  0  0  0  0  0  0
  1  2  1  0  0  0
  1  6  1  0  0  0
  1 11  1  0  0  0
  2  3  1  0  0  0
  3  4  1  0  0  0
  4  5  1  0  0  0
  4  7  1  0  0  0
  5  6  1  0  0  0
  7  8  1  0  0  0
 11 12  2  0  0  0
 11 13  1  0  0  0
  8  9  1  0  0  0
  8 10  1  0  0  0
 13 14  1  0  0  0
M  END
> <minimizedAffinity>
-5.03544

$$$$
1CEB_AMH_A_90


 14 14  0  0  0  0  0  0  0  0999 V2000
   20.0409   -1.0133   41.2656 C   0  0  0  0  0  0  0  0  0  0  0  0
   20.6252   -2.0328   40.3800 C   0  0  0  0  0  0  0  0  0  0  0  0
   22.0838   -2.2411   40.6365 C   0  0  0  0  0  0  0  0  0  0  0  0
   22.4676   -2.2251   42.0560 C   0  0  0  0  0  0  0  0  0  0  0  0
   21.8323   -1.1533   42.9339 C   0  0  0  0  0  0  0  0  0  0  0  0
   20.3594   -0.9604   42.7151 C   0  0  0  0  0  0  0  0  0  0  0  0
   24.0493   -2.3303   42.3720 C   0  0  0  0  0  0  0  0  0  0  0  0
   24.0170   -2.6878   43.7495 N   0  0  0  0  0  0  0  0  0  0  0  0
   23.4910   -1.9862   44.2706 H   0  0  0  0  0  0  0  0  0  0  0  0
   24.9697   -2.7362   44.1107 H   0  0  0  0  0  0  0  0  0  0  0  0
   18.7285   -0.3502   40.8990 C   0  0  0  0  0  0  0  0  0  0  0  0
   18.4451    0.2216   39.8515 O   0  0  0  0  0  0  0  0  0  0  0  0
   17.8656   -0.3729   41.8461 O   0  0  0  0  0  0  0  0  0  0  0  0
   18.0665   -0.8055   42.6526 H   0  0  0  0  0  0  0  0  0  0  0  0
  1  2  1  0  0  0
  1  6  1  0  0  0
  1 11  1  0  0  0
  2  3  1  0  0  0
  3  4  1  0  0  0
  4  5  1  0  0  0
  4  7  1  0  0  0
  5  6  1  0  0  0
  7  8  1  0  0  0
 11 12  2  0  0  0
 11 13  1  0  0  0
  8  9  1  0  0  0
  8 10  1  0  0  0
 13 14  1  0  0  0
M  END
> <minimizedAffinity>
-4.85410

$$$$
1CEB_AMH_A_90


 14 14  0  0  0  0  0  0  0  0999 V2000
   20.2561   -2.9526   41.2192 C   0  0  0  0  0  0  0  0  0  0  0  0
   19.9045   -3.0812   42.6422 C   0  0  0  0  0  0  0  0  0  0  0  0
   20.1534   -4.4591   43.1677 C   0  0  0  0  0  0  0  0  0  0  0  0
   21.3878   -5.0908   42.6783 C   0  0  0  0  0  0  0  0  0  0  0  0
   21.7112   -4.9259   41.1980 C   0  0  0  0  0  0  0  0  0  0  0  0
   21.5036   -3.5374   40.6653 C   0  0  0  0  0  0  0  0  0  0  0  0
   21.6363   -6.6230   43.1294 C   0  0  0  0  0  0  0  0  0  0  0  0
   21.9980   -6.4379   44.4937 N   0  0  0  0  0  0  0  0  0  0  0  0
   22.7979   -5.8077   44.5509 H   0  0  0  0  0  0  0  0  0  0  0  0
   22.2443   -7.3381   44.9053 H   0  0  0  0  0  0  0  0  0  0  0  0
   19.6945   -1.8095   40.3979 C   0  0  0  0  0  0  0  0  0  0  0  0
   18.5737   -1.3162   40.4687 O   0  0  0  0  0  0  0  0  0  0  0  0
   20.5070   -1.3772   39.5063 O   0  0  0  0  0  0  0  0  0  0  0  0
   21.3668   -1.7434   39.4390 H   0  0  0  0  0  0  0  0  0  0  0  0
  1  2  1  0  0  0
  1  6  1  0  0  0
  1 11  1  0  0  0
  2  3  1  0  0  0
  3  4  1  0  0  0
  4  5  1  0  0  0
  4  7  1  0  0  0
  5  6  1  0  0  0
  7  8  1  0  0  0
 11 12  2  0  0  0
 11 13  1  0  0  0
  8  9  1  0  0  0
  8 10  1  0  0  0
 13 14  1  0  0  0
M  END
> <minimizedAffinity>
-4.73955

$$$$
1CEB_AMH_A_90


 14 14  0  0  0  0  0  0  0  0999 V2000
   21.6325   -4.4496   42.4717 C   0  0  0  0  0  0  0  0  0  0  0  0
   21.6349   -4.7732   41.0363 C   0  0  0  0  0  0  0  0  0  0  0  0
   20.8706   -3.7748   40.2265 C   0  0  0  0  0  0  0  0  0  0  0  0
   21.0525   -2.3761   40.6425 C   0  0  0  0  0  0  0  0  0  0  0  0
   21.0472   -2.0919   42.1399 C   0  0  0  0  0  0  0  0  0  0  0  0
   21.8435   -3.0638   42.9619 C   0  0  0  0  0  0  0  0  0  0  0  0
   20.1553   -1.2760   39.8694 C   0  0  0  0  0  0  0  0  0  0  0  0
   18.8840   -1.5106   40.4653 N   0  0  0  0  0  0  0  0  0  0  0  0
   18.6230   -2.4881   40.3359 H   0  0  0  0  0  0  0  0  0  0  0  0
   18.1862   -0.9111   40.0248 H   0  0  0  0  0  0  0  0  0  0  0  0
   21.9604   -5.5205   43.4927 C   0  0  0  0  0  0  0  0  0  0  0  0
   22.2486   -5.3652   44.6748 O   0  0  0  0  0  0  0  0  0  0  0  0
   21.9741   -6.7039   43.0014 O   0  0  0  0  0  0  0  0  0  0  0  0
   21.7564   -6.8395   42.1002 H   0  0  0  0  0  0  0  0  0  0  0  0
  1  2  1  0  0  0
  1  6  1  0  0  0
  1 11  1  0  0  0
  2  3  1  0  0  0
  3  4  1  0  0  0
  4  5  1  0  0  0
  4  7  1  0  0  0
  5  6  1  0  0  0
  7  8  1  0  0  0
 11 12  2  0  0  0
 11 13  1  0  0  0
  8  9  1  0  0  0
  8 10  1  0  0  0
 13 14  1  0  0  0
M  END
> <minimizedAffinity>
-4.55858

$$$$
1CEB_AMH_A_90


 14 14  0  0  0  0  0  0  0  0999 V2000
   22.3539   -1.9719   42.1257 C   0  0  0  0  0  0  0  0  0  0  0  0
   21.7387   -1.5080   43.3793 C   0  0  0  0  0  0  0  0  0  0  0  0
   20.5896   -0.5810   43.1404 C   0  0  0  0  0  0  0  0  0  0  0  0
   19.7200   -0.9559   42.0153 C   0  0  0  0  0  0  0  0  0  0  0  0
   20.4038   -1.4344   40.7400 C   0  0  0  0  0  0  0  0  0  0  0  0
   21.5347   -2.3969   40.9623 C   0  0  0  0  0  0  0  0  0  0  0  0
   18.5344    0.0803   41.6496 C   0  0  0  0  0  0  0  0  0  0  0  0
   18.3204   -0.2411   40.2795 N   0  0  0  0  0  0  0  0  0  0  0  0
   19.1951   -0.1371   39.7652 H   0  0  0  0  0  0  0  0  0  0  0  0
   17.6191    0.3878   39.8882 H   0  0  0  0  0  0  0  0  0  0  0  0
   23.7558   -2.5474   42.1347 C   0  0  0  0  0  0  0  0  0  0  0  0
   24.6901   -2.2324   42.8644 O   0  0  0  0  0  0  0  0  0  0  0  0
   23.9506   -3.4253   41.2218 O   0  0  0  0  0  0  0  0  0  0  0  0
   23.2473   -3.6769   40.6561 H   0  0  0  0  0  0  0  0  0  0  0  0
  1  2  1  0  0  0
  1  6  1  0  0  0
  1 11  1  0  0  0
  2  3  1  0  0  0
  3  4  1  0  0  0
  4  5  1  0  0  0
  4  7  1  0  0  0
  5  6  1  0  0  0
  7  8  1  0  0  0
 11 12  2  0  0  0
 11 13  1  0  0  0
  8  9  1  0  0  0
  8 10  1  0  0  0
 13 14  1  0  0  0
M  END
> <minimizedAffinity>
-4.22857

$$$$
