2ON6_IMH_A_300


 25 27  0  0  0  0  0  0  0  0999 V2000
   12.7275   14.4765   60.6672 C   0  0  0  0  0  0  0  0  0  0  0  0
   12.6921   13.9577   59.2895 N   0  0  0  0  0  0  0  0  0  0  0  0
   14.1349   14.1657   61.1909 C   0  0  0  0  0  0  0  0  0  0  0  0
   14.1671   13.7676   62.5797 O   0  0  0  0  0  0  0  0  0  0  0  0
   14.7367   13.1558   60.1760 C   0  0  0  0  0  0  0  0  0  0  0  0
   15.4338   12.0219   60.7650 O   0  0  0  0  0  0  0  0  0  0  0  0
   13.6097   12.8193   59.1475 C   0  0  0  0  0  0  0  0  0  0  0  0
   12.9714   14.6970   58.6446 H   0  0  0  0  0  0  0  0  0  0  0  0
   13.6370   12.9639   62.6980 H   0  0  0  0  0  0  0  0  0  0  0  0
   14.8097   11.4948   61.2880 H   0  0  0  0  0  0  0  0  0  0  0  0
   14.1720   12.3164   57.8282 C   0  0  0  0  0  0  0  0  0  0  0  0
   15.2070   12.8648   57.0565 C   0  0  0  0  0  0  0  0  0  0  0  0
   15.4504   12.0223   55.9778 N   0  0  0  0  0  0  0  0  0  0  0  0
   14.6518   10.9207   56.0143 C   0  0  0  0  0  0  0  0  0  0  0  0
   14.4117    9.6937   55.2202 C   0  0  0  0  0  0  0  0  0  0  0  0
   15.1117    9.4226   54.0930 O   0  0  0  0  0  0  0  0  0  0  0  0
   13.4532    8.8187   55.6393 N   0  0  0  0  0  0  0  0  0  0  0  0
   12.7054    9.0043   56.7512 C   0  0  0  0  0  0  0  0  0  0  0  0
   12.8534   10.0887   57.5249 N   0  0  0  0  0  0  0  0  0  0  0  0
   13.7898   11.0230   57.2093 C   0  0  0  0  0  0  0  0  0  0  0  0
   16.1170   12.2002   55.2755 H   0  0  0  0  0  0  0  0  0  0  0  0
   15.7722   10.0177   53.7972 H   0  0  0  0  0  0  0  0  0  0  0  0
   11.5103   16.2660   61.7367 O   0  0  0  0  0  0  0  0  0  0  0  0
   12.4813   15.9659   60.7322 C   0  0  0  0  0  0  0  0  0  0  0  0
   11.3623   17.2242   61.7673 H   0  0  0  0  0  0  0  0  0  0  0  0
 23 24  1  0  0  0
 24  1  1  0  0  0
  1  2  1  0  0  0
  1  3  1  0  0  0
  2  7  1  0  0  0
  3  4  1  0  0  0
  3  5  1  0  0  0
  5  6  1  0  0  0
  5  7  1  0  0  0
  7 11  1  0  0  0
 11 12  2  0  0  0
 11 20  1  0  0  0
 12 13  1  0  0  0
 13 14  1  0  0  0
 14 15  1  0  0  0
 14 20  2  0  0  0
 15 16  1  0  0  0
 15 17  2  0  0  0
 17 18  1  0  0  0
 18 19  2  0  0  0
 19 20  1  0  0  0
 23 25  1  0  0  0
  2  8  1  0  0  0
  4  9  1  0  0  0
  6 10  1  0  0  0
 13 21  1  0  0  0
 16 22  1  0  0  0
M  END
> <minimizedAffinity>
-8.90082

$$$$
2ON6_IMH_A_300


 25 27  0  0  0  0  0  0  0  0999 V2000
   14.3434   13.7397   61.0118 C   0  0  0  0  0  0  0  0  0  0  0  0
   15.0992   13.3134   59.8221 N   0  0  0  0  0  0  0  0  0  0  0  0
   12.9135   13.2277   60.7996 C   0  0  0  0  0  0  0  0  0  0  0  0
   11.8917   14.1404   61.2590 O   0  0  0  0  0  0  0  0  0  0  0  0
   12.8420   12.8182   59.3032 C   0  0  0  0  0  0  0  0  0  0  0  0
   11.6444   13.2485   58.5966 O   0  0  0  0  0  0  0  0  0  0  0  0
   14.2085   13.2150   58.6580 C   0  0  0  0  0  0  0  0  0  0  0  0
   15.5211   12.4020   60.0006 H   0  0  0  0  0  0  0  0  0  0  0  0
   11.9667   14.9789   60.7770 H   0  0  0  0  0  0  0  0  0  0  0  0
   11.6076   14.2177   58.5832 H   0  0  0  0  0  0  0  0  0  0  0  0
   14.5038   12.4082   57.4043 C   0  0  0  0  0  0  0  0  0  0  0  0
   15.4898   12.6365   56.4332 C   0  0  0  0  0  0  0  0  0  0  0  0
   15.4571   11.5942   55.5140 N   0  0  0  0  0  0  0  0  0  0  0  0
   14.5207   10.6640   55.8468 C   0  0  0  0  0  0  0  0  0  0  0  0
   13.9982    9.3775   55.3315 C   0  0  0  0  0  0  0  0  0  0  0  0
   14.4884    8.8054   54.2061 O   0  0  0  0  0  0  0  0  0  0  0  0
   12.9910    8.7592   56.0121 N   0  0  0  0  0  0  0  0  0  0  0  0
   12.4395    9.2535   57.1441 C   0  0  0  0  0  0  0  0  0  0  0  0
   12.8483   10.4135   57.6768 N   0  0  0  0  0  0  0  0  0  0  0  0
   13.8568   11.1107   57.0882 C   0  0  0  0  0  0  0  0  0  0  0  0
   16.0383   11.5361   54.7215 H   0  0  0  0  0  0  0  0  0  0  0  0
   15.1804    9.2227   53.7316 H   0  0  0  0  0  0  0  0  0  0  0  0
   13.9328   13.2413   63.3379 O   0  0  0  0  0  0  0  0  0  0  0  0
   14.9026   13.1623   62.2913 C   0  0  0  0  0  0  0  0  0  0  0  0
   14.3047   12.8677   64.1522 H   0  0  0  0  0  0  0  0  0  0  0  0
 23 24  1  0  0  0
 24  1  1  0  0  0
  1  2  1  0  0  0
  1  3  1  0  0  0
  2  7  1  0  0  0
  3  4  1  0  0  0
  3  5  1  0  0  0
  5  6  1  0  0  0
  5  7  1  0  0  0
  7 11  1  0  0  0
 11 12  2  0  0  0
 11 20  1  0  0  0
 12 13  1  0  0  0
 13 14  1  0  0  0
 14 15  1  0  0  0
 14 20  2  0  0  0
 15 16  1  0  0  0
 15 17  2  0  0  0
 17 18  1  0  0  0
 18 19  2  0  0  0
 19 20  1  0  0  0
 23 25  1  0  0  0
  2  8  1  0  0  0
  4  9  1  0  0  0
  6 10  1  0  0  0
 13 21  1  0  0  0
 16 22  1  0  0  0
M  END
> <minimizedAffinity>
-8.65558

$$$$
2ON6_IMH_A_300


 25 27  0  0  0  0  0  0  0  0999 V2000
   13.3047   10.6660   57.0349 C   0  0  0  0  0  0  0  0  0  0  0  0
   13.2134   11.4247   58.2936 N   0  0  0  0  0  0  0  0  0  0  0  0
   14.7051   10.9522   56.4792 C   0  0  0  0  0  0  0  0  0  0  0  0
   14.7462   11.0913   55.0415 O   0  0  0  0  0  0  0  0  0  0  0  0
   15.2324   12.1616   57.2986 C   0  0  0  0  0  0  0  0  0  0  0  0
   15.8826   13.2052   56.5197 O   0  0  0  0  0  0  0  0  0  0  0  0
   14.0680   12.6182   58.2349 C   0  0  0  0  0  0  0  0  0  0  0  0
   13.5166   10.8319   59.0662 H   0  0  0  0  0  0  0  0  0  0  0  0
   14.1782   11.8298   54.7717 H   0  0  0  0  0  0  0  0  0  0  0  0
   15.2435   13.5931   55.9017 H   0  0  0  0  0  0  0  0  0  0  0  0
   14.5756   13.3832   59.4460 C   0  0  0  0  0  0  0  0  0  0  0  0
   15.8410   13.3217   60.0481 C   0  0  0  0  0  0  0  0  0  0  0  0
   15.8925   14.2629   61.0698 N   0  0  0  0  0  0  0  0  0  0  0  0
   14.7345   14.9735   61.1531 C   0  0  0  0  0  0  0  0  0  0  0  0
   14.1563   16.0670   61.9678 C   0  0  0  0  0  0  0  0  0  0  0  0
   14.8512   16.6578   62.9688 O   0  0  0  0  0  0  0  0  0  0  0  0
   12.8852   16.4824   61.6999 N   0  0  0  0  0  0  0  0  0  0  0  0
   12.1159   15.9534   60.7209 C   0  0  0  0  0  0  0  0  0  0  0  0
   12.5581   14.9577   59.9401 N   0  0  0  0  0  0  0  0  0  0  0  0
   13.8171   14.4724   60.1097 C   0  0  0  0  0  0  0  0  0  0  0  0
   16.6693   14.3986   61.6593 H   0  0  0  0  0  0  0  0  0  0  0  0
   15.7251   16.3793   63.1604 H   0  0  0  0  0  0  0  0  0  0  0  0
   13.0272    8.5111   55.9825 O   0  0  0  0  0  0  0  0  0  0  0  0
   13.1369    9.1785   57.2413 C   0  0  0  0  0  0  0  0  0  0  0  0
   12.9201    7.5584   56.1299 H   0  0  0  0  0  0  0  0  0  0  0  0
 23 24  1  0  0  0
 24  1  1  0  0  0
  1  2  1  0  0  0
  1  3  1  0  0  0
  2  7  1  0  0  0
  3  4  1  0  0  0
  3  5  1  0  0  0
  5  6  1  0  0  0
  5  7  1  0  0  0
  7 11  1  0  0  0
 11 12  2  0  0  0
 11 20  1  0  0  0
 12 13  1  0  0  0
 13 14  1  0  0  0
 14 15  1  0  0  0
 14 20  2  0  0  0
 15 16  1  0  0  0
 15 17  2  0  0  0
 17 18  1  0  0  0
 18 19  2  0  0  0
 19 20  1  0  0  0
 23 25  1  0  0  0
  2  8  1  0  0  0
  4  9  1  0  0  0
  6 10  1  0  0  0
 13 21  1  0  0  0
 16 22  1  0  0  0
M  END
> <minimizedAffinity>
-8.28089

$$$$
2ON6_IMH_A_300


 25 27  0  0  0  0  0  0  0  0999 V2000
   15.0703   12.4699   58.0140 C   0  0  0  0  0  0  0  0  0  0  0  0
   15.3753   13.4297   59.0883 N   0  0  0  0  0  0  0  0  0  0  0  0
   13.5403   12.3802   57.9606 C   0  0  0  0  0  0  0  0  0  0  0  0
   13.0415   11.0488   57.7020 O   0  0  0  0  0  0  0  0  0  0  0  0
   13.0438   13.0542   59.2688 C   0  0  0  0  0  0  0  0  0  0  0  0
   11.9877   12.3426   59.9736 O   0  0  0  0  0  0  0  0  0  0  0  0
   14.3139   13.4155   60.1038 C   0  0  0  0  0  0  0  0  0  0  0  0
   15.4482   14.3665   58.6913 H   0  0  0  0  0  0  0  0  0  0  0  0
   13.3358   10.4507   58.4066 H   0  0  0  0  0  0  0  0  0  0  0  0
   12.3165   11.4759   60.2590 H   0  0  0  0  0  0  0  0  0  0  0  0
   14.0458   14.5356   61.0955 C   0  0  0  0  0  0  0  0  0  0  0  0
   12.9553   14.6877   61.9644 C   0  0  0  0  0  0  0  0  0  0  0  0
   13.1719   15.8095   62.7563 N   0  0  0  0  0  0  0  0  0  0  0  0
   14.3716   16.3909   62.4812 C   0  0  0  0  0  0  0  0  0  0  0  0
   15.1777   17.5475   62.9354 C   0  0  0  0  0  0  0  0  0  0  0  0
   14.7477   18.3790   63.9140 O   0  0  0  0  0  0  0  0  0  0  0  0
   16.3842   17.7786   62.3431 N   0  0  0  0  0  0  0  0  0  0  0  0
   16.8957   17.0032   61.3598 C   0  0  0  0  0  0  0  0  0  0  0  0
   16.2313   15.9401   60.8855 N   0  0  0  0  0  0  0  0  0  0  0  0
   15.0223   15.6074   61.4115 C   0  0  0  0  0  0  0  0  0  0  0  0
   12.5372   16.1419   63.4315 H   0  0  0  0  0  0  0  0  0  0  0  0
   13.9202   18.2283   64.3269 H   0  0  0  0  0  0  0  0  0  0  0  0
   15.2249   11.9836   55.6545 O   0  0  0  0  0  0  0  0  0  0  0  0
   15.5977   12.9168   56.6704 C   0  0  0  0  0  0  0  0  0  0  0  0
   15.5696   12.2826   54.7985 H   0  0  0  0  0  0  0  0  0  0  0  0
 23 24  1  0  0  0
 24  1  1  0  0  0
  1  2  1  0  0  0
  1  3  1  0  0  0
  2  7  1  0  0  0
  3  4  1  0  0  0
  3  5  1  0  0  0
  5  6  1  0  0  0
  5  7  1  0  0  0
  7 11  1  0  0  0
 11 12  2  0  0  0
 11 20  1  0  0  0
 12 13  1  0  0  0
 13 14  1  0  0  0
 14 15  1  0  0  0
 14 20  2  0  0  0
 15 16  1  0  0  0
 15 17  2  0  0  0
 17 18  1  0  0  0
 18 19  2  0  0  0
 19 20  1  0  0  0
 23 25  1  0  0  0
  2  8  1  0  0  0
  4  9  1  0  0  0
  6 10  1  0  0  0
 13 21  1  0  0  0
 16 22  1  0  0  0
M  END
> <minimizedAffinity>
-7.90324

$$$$
2ON6_IMH_A_300


 25 27  0  0  0  0  0  0  0  0999 V2000
   12.9714   12.6839   60.0060 C   0  0  0  0  0  0  0  0  0  0  0  0
   14.1984   13.2540   60.5871 N   0  0  0  0  0  0  0  0  0  0  0  0
   12.0612   13.8806   59.7040 C   0  0  0  0  0  0  0  0  0  0  0  0
   10.6619   13.6311   59.9645 O   0  0  0  0  0  0  0  0  0  0  0  0
   12.6946   15.0794   60.4614 C   0  0  0  0  0  0  0  0  0  0  0  0
   11.7567   15.9218   61.1889 O   0  0  0  0  0  0  0  0  0  0  0  0
   13.8989   14.5139   61.2806 C   0  0  0  0  0  0  0  0  0  0  0  0
   14.8718   13.4324   59.8420 H   0  0  0  0  0  0  0  0  0  0  0  0
   10.5414   13.4132   60.9020 H   0  0  0  0  0  0  0  0  0  0  0  0
   11.3243   15.3998   61.8828 H   0  0  0  0  0  0  0  0  0  0  0  0
   14.9216   15.5892   61.6086 C   0  0  0  0  0  0  0  0  0  0  0  0
   16.1290   15.8723   60.9533 C   0  0  0  0  0  0  0  0  0  0  0  0
   16.6965   16.9995   61.5362 N   0  0  0  0  0  0  0  0  0  0  0  0
   15.9068   17.5021   62.5243 C   0  0  0  0  0  0  0  0  0  0  0  0
   15.9123   18.6247   63.4904 C   0  0  0  0  0  0  0  0  0  0  0  0
   16.9266   19.5208   63.5402 O   0  0  0  0  0  0  0  0  0  0  0  0
   14.8653   18.7507   64.3551 N   0  0  0  0  0  0  0  0  0  0  0  0
   13.8089   17.9060   64.3790 C   0  0  0  0  0  0  0  0  0  0  0  0
   13.7253   16.8612   63.5436 N   0  0  0  0  0  0  0  0  0  0  0  0
   14.7082   16.6454   62.6289 C   0  0  0  0  0  0  0  0  0  0  0  0
   17.5614   17.3860   61.2678 H   0  0  0  0  0  0  0  0  0  0  0  0
   17.6503   19.4425   62.9502 H   0  0  0  0  0  0  0  0  0  0  0  0
   13.7706   12.7833   57.7302 O   0  0  0  0  0  0  0  0  0  0  0  0
   13.2360   11.9157   58.7320 C   0  0  0  0  0  0  0  0  0  0  0  0
   13.9354   12.2776   56.9190 H   0  0  0  0  0  0  0  0  0  0  0  0
 23 24  1  0  0  0
 24  1  1  0  0  0
  1  2  1  0  0  0
  1  3  1  0  0  0
  2  7  1  0  0  0
  3  4  1  0  0  0
  3  5  1  0  0  0
  5  6  1  0  0  0
  5  7  1  0  0  0
  7 11  1  0  0  0
 11 12  2  0  0  0
 11 20  1  0  0  0
 12 13  1  0  0  0
 13 14  1  0  0  0
 14 15  1  0  0  0
 14 20  2  0  0  0
 15 16  1  0  0  0
 15 17  2  0  0  0
 17 18  1  0  0  0
 18 19  2  0  0  0
 19 20  1  0  0  0
 23 25  1  0  0  0
  2  8  1  0  0  0
  4  9  1  0  0  0
  6 10  1  0  0  0
 13 21  1  0  0  0
 16 22  1  0  0  0
M  END
> <minimizedAffinity>
-7.64965

$$$$
2ON6_IMH_A_300


 25 27  0  0  0  0  0  0  0  0999 V2000
   15.1087   17.2751   62.4727 C   0  0  0  0  0  0  0  0  0  0  0  0
   15.1167   16.3023   61.3673 N   0  0  0  0  0  0  0  0  0  0  0  0
   13.8835   16.9233   63.3253 C   0  0  0  0  0  0  0  0  0  0  0  0
   13.1874   18.0751   63.8517 O   0  0  0  0  0  0  0  0  0  0  0  0
   13.0401   15.9549   62.4519 C   0  0  0  0  0  0  0  0  0  0  0  0
   11.6093   16.2211   62.4316 O   0  0  0  0  0  0  0  0  0  0  0  0
   13.7485   15.8628   61.0624 C   0  0  0  0  0  0  0  0  0  0  0  0
   15.6777   15.4937   61.6352 H   0  0  0  0  0  0  0  0  0  0  0  0
   12.8730   18.6261   63.1179 H   0  0  0  0  0  0  0  0  0  0  0  0
   11.4486   17.0960   62.0450 H   0  0  0  0  0  0  0  0  0  0  0  0
   13.3917   14.5837   60.3232 C   0  0  0  0  0  0  0  0  0  0  0  0
   12.2644   14.3205   59.5312 C   0  0  0  0  0  0  0  0  0  0  0  0
   12.3986   13.0534   58.9753 N   0  0  0  0  0  0  0  0  0  0  0  0
   13.5785   12.4749   59.3301 C   0  0  0  0  0  0  0  0  0  0  0  0
   14.3117   11.2093   59.0965 C   0  0  0  0  0  0  0  0  0  0  0  0
   13.8076   10.2239   58.3163 O   0  0  0  0  0  0  0  0  0  0  0  0
   15.5266   11.0362   59.6915 N   0  0  0  0  0  0  0  0  0  0  0  0
   16.1097   11.9633   60.4855 C   0  0  0  0  0  0  0  0  0  0  0  0
   15.5143   13.1337   60.7538 N   0  0  0  0  0  0  0  0  0  0  0  0
   14.3040   13.4195   60.2034 C   0  0  0  0  0  0  0  0  0  0  0  0
   11.7247   12.6279   58.3974 H   0  0  0  0  0  0  0  0  0  0  0  0
   12.9737   10.3336   57.9033 H   0  0  0  0  0  0  0  0  0  0  0  0
   16.1830   17.9443   64.5284 O   0  0  0  0  0  0  0  0  0  0  0  0
   16.3555   17.1969   63.3227 C   0  0  0  0  0  0  0  0  0  0  0  0
   16.9899   17.8854   65.0635 H   0  0  0  0  0  0  0  0  0  0  0  0
 23 24  1  0  0  0
 24  1  1  0  0  0
  1  2  1  0  0  0
  1  3  1  0  0  0
  2  7  1  0  0  0
  3  4  1  0  0  0
  3  5  1  0  0  0
  5  6  1  0  0  0
  5  7  1  0  0  0
  7 11  1  0  0  0
 11 12  2  0  0  0
 11 20  1  0  0  0
 12 13  1  0  0  0
 13 14  1  0  0  0
 14 15  1  0  0  0
 14 20  2  0  0  0
 15 16  1  0  0  0
 15 17  2  0  0  0
 17 18  1  0  0  0
 18 19  2  0  0  0
 19 20  1  0  0  0
 23 25  1  0  0  0
  2  8  1  0  0  0
  4  9  1  0  0  0
  6 10  1  0  0  0
 13 21  1  0  0  0
 16 22  1  0  0  0
M  END
> <minimizedAffinity>
-7.57298

$$$$
2ON6_IMH_A_300


 25 27  0  0  0  0  0  0  0  0999 V2000
   14.6330   16.8596   64.0344 C   0  0  0  0  0  0  0  0  0  0  0  0
   13.9835   15.6694   63.4602 N   0  0  0  0  0  0  0  0  0  0  0  0
   15.0535   17.7204   62.8368 C   0  0  0  0  0  0  0  0  0  0  0  0
   16.3297   18.3764   63.0079 O   0  0  0  0  0  0  0  0  0  0  0  0
   14.9222   16.7926   61.5983 C   0  0  0  0  0  0  0  0  0  0  0  0
   16.0313   16.8496   60.6574 O   0  0  0  0  0  0  0  0  0  0  0  0
   14.5365   15.3755   62.1313 C   0  0  0  0  0  0  0  0  0  0  0  0
   12.9814   15.8405   63.3769 H   0  0  0  0  0  0  0  0  0  0  0  0
   17.0221   17.7088   63.1338 H   0  0  0  0  0  0  0  0  0  0  0  0
   16.8433   16.5517   61.0965 H   0  0  0  0  0  0  0  0  0  0  0  0
   13.8463   14.5346   61.0700 C   0  0  0  0  0  0  0  0  0  0  0  0
   12.7320   14.8651   60.2848 C   0  0  0  0  0  0  0  0  0  0  0  0
   12.5040   13.8335   59.3813 N   0  0  0  0  0  0  0  0  0  0  0  0
   13.4353   12.8483   59.5029 C   0  0  0  0  0  0  0  0  0  0  0  0
   13.7624   11.5437   58.8825 C   0  0  0  0  0  0  0  0  0  0  0  0
   13.0226   11.0260   57.8731 O   0  0  0  0  0  0  0  0  0  0  0  0
   14.8378   10.8470   59.3493 N   0  0  0  0  0  0  0  0  0  0  0  0
   15.6345   11.2839   60.3515 C   0  0  0  0  0  0  0  0  0  0  0  0
   15.4081   12.4503   60.9719 N   0  0  0  0  0  0  0  0  0  0  0  0
   14.3690   13.2351   60.5800 C   0  0  0  0  0  0  0  0  0  0  0  0
   11.7619   13.8175   58.7346 H   0  0  0  0  0  0  0  0  0  0  0  0
   12.2819   11.4972   57.5457 H   0  0  0  0  0  0  0  0  0  0  0  0
   13.6191   19.0056   64.4753 O   0  0  0  0  0  0  0  0  0  0  0  0
   13.7060   17.6524   64.9261 C   0  0  0  0  0  0  0  0  0  0  0  0
   13.0216   19.5022   65.0560 H   0  0  0  0  0  0  0  0  0  0  0  0
 23 24  1  0  0  0
 24  1  1  0  0  0
  1  2  1  0  0  0
  1  3  1  0  0  0
  2  7  1  0  0  0
  3  4  1  0  0  0
  3  5  1  0  0  0
  5  6  1  0  0  0
  5  7  1  0  0  0
  7 11  1  0  0  0
 11 12  2  0  0  0
 11 20  1  0  0  0
 12 13  1  0  0  0
 13 14  1  0  0  0
 14 15  1  0  0  0
 14 20  2  0  0  0
 15 16  1  0  0  0
 15 17  2  0  0  0
 17 18  1  0  0  0
 18 19  2  0  0  0
 19 20  1  0  0  0
 23 25  1  0  0  0
  2  8  1  0  0  0
  4  9  1  0  0  0
  6 10  1  0  0  0
 13 21  1  0  0  0
 16 22  1  0  0  0
M  END
> <minimizedAffinity>
-7.50620

$$$$
2ON6_IMH_A_300


 25 27  0  0  0  0  0  0  0  0999 V2000
   13.7164   11.8135   57.5854 C   0  0  0  0  0  0  0  0  0  0  0  0
   12.8882   12.7045   58.4151 N   0  0  0  0  0  0  0  0  0  0  0  0
   15.0065   11.5856   58.3827 C   0  0  0  0  0  0  0  0  0  0  0  0
   16.1975   11.5365   57.5659 O   0  0  0  0  0  0  0  0  0  0  0  0
   14.9905   12.6593   59.5047 C   0  0  0  0  0  0  0  0  0  0  0  0
   16.2521   13.3522   59.7212 O   0  0  0  0  0  0  0  0  0  0  0  0
   13.7385   13.5596   59.2540 C   0  0  0  0  0  0  0  0  0  0  0  0
   12.2837   12.1412   59.0132 H   0  0  0  0  0  0  0  0  0  0  0  0
   16.3010   12.3779   57.0943 H   0  0  0  0  0  0  0  0  0  0  0  0
   16.4923   13.8441   58.9204 H   0  0  0  0  0  0  0  0  0  0  0  0
   13.2802   14.2657   60.5194 C   0  0  0  0  0  0  0  0  0  0  0  0
   12.1757   13.9692   61.3315 C   0  0  0  0  0  0  0  0  0  0  0  0
   12.1959   14.8154   62.4343 N   0  0  0  0  0  0  0  0  0  0  0  0
   13.2811   15.6366   62.4139 C   0  0  0  0  0  0  0  0  0  0  0  0
   13.8779   16.7126   63.2384 C   0  0  0  0  0  0  0  0  0  0  0  0
   13.3091   17.1261   64.3958 O   0  0  0  0  0  0  0  0  0  0  0  0
   15.0307   17.3030   62.8113 N   0  0  0  0  0  0  0  0  0  0  0  0
   15.6705   16.9568   61.6708 C   0  0  0  0  0  0  0  0  0  0  0  0
   15.1977   15.9974   60.8630 N   0  0  0  0  0  0  0  0  0  0  0  0
   14.0599   15.3314   61.1965 C   0  0  0  0  0  0  0  0  0  0  0  0
   11.5109   14.8200   63.1415 H   0  0  0  0  0  0  0  0  0  0  0  0
   12.5170   16.7265   64.6975 H   0  0  0  0  0  0  0  0  0  0  0  0
   13.1906   10.1280   55.9390 O   0  0  0  0  0  0  0  0  0  0  0  0
   13.0478   10.4856   57.3151 C   0  0  0  0  0  0  0  0  0  0  0  0
   12.7574    9.2748   55.7800 H   0  0  0  0  0  0  0  0  0  0  0  0
 23 24  1  0  0  0
 24  1  1  0  0  0
  1  2  1  0  0  0
  1  3  1  0  0  0
  2  7  1  0  0  0
  3  4  1  0  0  0
  3  5  1  0  0  0
  5  6  1  0  0  0
  5  7  1  0  0  0
  7 11  1  0  0  0
 11 12  2  0  0  0
 11 20  1  0  0  0
 12 13  1  0  0  0
 13 14  1  0  0  0
 14 15  1  0  0  0
 14 20  2  0  0  0
 15 16  1  0  0  0
 15 17  2  0  0  0
 17 18  1  0  0  0
 18 19  2  0  0  0
 19 20  1  0  0  0
 23 25  1  0  0  0
  2  8  1  0  0  0
  4  9  1  0  0  0
  6 10  1  0  0  0
 13 21  1  0  0  0
 16 22  1  0  0  0
M  END
> <minimizedAffinity>
-7.44137

$$$$
2ON6_IMH_A_300


 25 27  0  0  0  0  0  0  0  0999 V2000
   15.2283   12.1429   57.9488 C   0  0  0  0  0  0  0  0  0  0  0  0
   15.7495   12.7981   59.1602 N   0  0  0  0  0  0  0  0  0  0  0  0
   13.7119   12.3705   57.9745 C   0  0  0  0  0  0  0  0  0  0  0  0
   12.9431   11.2397   57.5071 O   0  0  0  0  0  0  0  0  0  0  0  0
   13.3955   12.8650   59.4124 C   0  0  0  0  0  0  0  0  0  0  0  0
   12.2316   12.2551   60.0384 O   0  0  0  0  0  0  0  0  0  0  0  0
   14.7317   12.7997   60.2195 C   0  0  0  0  0  0  0  0  0  0  0  0
   16.0052   13.7603   58.9383 H   0  0  0  0  0  0  0  0  0  0  0  0
   13.1236   10.4709   58.0703 H   0  0  0  0  0  0  0  0  0  0  0  0
   12.3809   11.3019   60.1389 H   0  0  0  0  0  0  0  0  0  0  0  0
   14.7235   13.7385   61.4146 C   0  0  0  0  0  0  0  0  0  0  0  0
   15.5953   13.7583   62.5132 C   0  0  0  0  0  0  0  0  0  0  0  0
   15.2728   14.8464   63.3160 N   0  0  0  0  0  0  0  0  0  0  0  0
   14.2515   15.5732   62.7856 C   0  0  0  0  0  0  0  0  0  0  0  0
   13.4644   16.7859   63.1075 C   0  0  0  0  0  0  0  0  0  0  0  0
   13.7018   17.5180   64.2218 O   0  0  0  0  0  0  0  0  0  0  0  0
   12.4704   17.1676   62.2554 N   0  0  0  0  0  0  0  0  0  0  0  0
   12.1614   16.5008   61.1197 C   0  0  0  0  0  0  0  0  0  0  0  0
   12.8192   15.3914   60.7549 N   0  0  0  0  0  0  0  0  0  0  0  0
   13.8394   14.9254   61.5238 C   0  0  0  0  0  0  0  0  0  0  0  0
   15.7264   15.0641   64.1623 H   0  0  0  0  0  0  0  0  0  0  0  0
   14.3826   17.2637   64.8133 H   0  0  0  0  0  0  0  0  0  0  0  0
   15.3298   12.0071   55.5407 O   0  0  0  0  0  0  0  0  0  0  0  0
   15.8057   12.7263   56.6802 C   0  0  0  0  0  0  0  0  0  0  0  0
   15.7079   12.3919   54.7345 H   0  0  0  0  0  0  0  0  0  0  0  0
 23 24  1  0  0  0
 24  1  1  0  0  0
  1  2  1  0  0  0
  1  3  1  0  0  0
  2  7  1  0  0  0
  3  4  1  0  0  0
  3  5  1  0  0  0
  5  6  1  0  0  0
  5  7  1  0  0  0
  7 11  1  0  0  0
 11 12  2  0  0  0
 11 20  1  0  0  0
 12 13  1  0  0  0
 13 14  1  0  0  0
 14 15  1  0  0  0
 14 20  2  0  0  0
 15 16  1  0  0  0
 15 17  2  0  0  0
 17 18  1  0  0  0
 18 19  2  0  0  0
 19 20  1  0  0  0
 23 25  1  0  0  0
  2  8  1  0  0  0
  4  9  1  0  0  0
  6 10  1  0  0  0
 13 21  1  0  0  0
 16 22  1  0  0  0
M  END
> <minimizedAffinity>
-7.39022

$$$$
2ON6_IMH_A_300


 25 27  0  0  0  0  0  0  0  0999 V2000
   13.0838   13.0956   60.8981 C   0  0  0  0  0  0  0  0  0  0  0  0
   13.9527   13.8124   61.8465 N   0  0  0  0  0  0  0  0  0  0  0  0
   12.3066   14.1825   60.1455 C   0  0  0  0  0  0  0  0  0  0  0  0
   10.9322   13.8327   59.8684 O   0  0  0  0  0  0  0  0  0  0  0  0
   12.5295   15.4855   60.9607 C   0  0  0  0  0  0  0  0  0  0  0  0
   11.3397   16.2955   61.1772 O   0  0  0  0  0  0  0  0  0  0  0  0
   13.3412   15.0902   62.2358 C   0  0  0  0  0  0  0  0  0  0  0  0
   14.8550   13.9920   61.4060 H   0  0  0  0  0  0  0  0  0  0  0  0
   10.4637   13.6763   60.7032 H   0  0  0  0  0  0  0  0  0  0  0  0
   10.6961   15.7916   61.6995 H   0  0  0  0  0  0  0  0  0  0  0  0
   14.0966   16.2719   62.8211 C   0  0  0  0  0  0  0  0  0  0  0  0
   13.7305   17.0938   63.8971 C   0  0  0  0  0  0  0  0  0  0  0  0
   14.7658   17.9878   64.1450 N   0  0  0  0  0  0  0  0  0  0  0  0
   15.8189   17.7767   63.3089 C   0  0  0  0  0  0  0  0  0  0  0  0
   17.1655   18.3375   63.0519 C   0  0  0  0  0  0  0  0  0  0  0  0
   17.6613   19.3686   63.7766 O   0  0  0  0  0  0  0  0  0  0  0  0
   17.9203   17.7986   62.0520 N   0  0  0  0  0  0  0  0  0  0  0  0
   17.5100   16.7684   61.2772 C   0  0  0  0  0  0  0  0  0  0  0  0
   16.3047   16.2044   61.4379 N   0  0  0  0  0  0  0  0  0  0  0  0
   15.4718   16.6536   62.4145 C   0  0  0  0  0  0  0  0  0  0  0  0
   14.7405   18.6862   64.8384 H   0  0  0  0  0  0  0  0  0  0  0  0
   17.1502   19.7454   64.4656 H   0  0  0  0  0  0  0  0  0  0  0  0
   13.0073   11.7742   58.8793 O   0  0  0  0  0  0  0  0  0  0  0  0
   13.8667   12.2596   59.9126 C   0  0  0  0  0  0  0  0  0  0  0  0
   13.5225   11.2400   58.2547 H   0  0  0  0  0  0  0  0  0  0  0  0
 23 24  1  0  0  0
 24  1  1  0  0  0
  1  2  1  0  0  0
  1  3  1  0  0  0
  2  7  1  0  0  0
  3  4  1  0  0  0
  3  5  1  0  0  0
  5  6  1  0  0  0
  5  7  1  0  0  0
  7 11  1  0  0  0
 11 12  2  0  0  0
 11 20  1  0  0  0
 12 13  1  0  0  0
 13 14  1  0  0  0
 14 15  1  0  0  0
 14 20  2  0  0  0
 15 16  1  0  0  0
 15 17  2  0  0  0
 17 18  1  0  0  0
 18 19  2  0  0  0
 19 20  1  0  0  0
 23 25  1  0  0  0
  2  8  1  0  0  0
  4  9  1  0  0  0
  6 10  1  0  0  0
 13 21  1  0  0  0
 16 22  1  0  0  0
M  END
> <minimizedAffinity>
-7.36997

$$$$
