2BVR_4CP_H_1246


 34 35  0  0  0  0  0  0  0  0999 V2000
   11.8572  -12.0306   17.5365 C   0  0  0  0  0  0  0  0  0  0  0  0
   11.5306  -11.5387   18.9532 C   0  0  0  0  0  0  0  0  0  0  0  0
   10.5990  -12.0415   19.5660 O   0  0  0  0  0  0  0  0  0  0  0  0
   12.2699  -10.5376   19.5752 N   0  0  0  0  0  0  0  0  0  0  0  0
   13.0246  -10.1173   19.1028 H   0  0  0  0  0  0  0  0  0  0  0  0
   12.0385  -10.2495   20.4877 H   0  0  0  0  0  0  0  0  0  0  0  0
   14.0328  -12.4796   16.2055 C   0  0  0  0  0  0  0  0  0  0  0  0
   13.4076  -12.5909   15.1623 O   0  0  0  0  0  0  0  0  0  0  0  0
   13.3378  -12.2089   17.3936 N   0  0  0  0  0  0  0  0  0  0  0  0
   13.8758  -12.1281   18.2140 H   0  0  0  0  0  0  0  0  0  0  0  0
   15.5455  -12.6458   16.1473 C   0  0  0  0  0  0  0  0  0  0  0  0
   16.1159  -13.0159   14.4594 S   0  0  0  0  0  0  0  0  0  0  0  0
   16.6852   -9.2403   11.8610 C   0  0  0  0  0  0  0  0  0  0  0  0
   15.7228   -9.2529   12.9227 C   0  0  0  0  0  0  0  0  0  0  0  0
   15.5540  -10.4312   13.7233 C   0  0  0  0  0  0  0  0  0  0  0  0
   16.3510  -11.5991   13.4598 C   0  0  0  0  0  0  0  0  0  0  0  0
   17.3145  -11.5771   12.3895 C   0  0  0  0  0  0  0  0  0  0  0  0
   17.4809  -10.4021   11.5925 C   0  0  0  0  0  0  0  0  0  0  0  0
   16.8893   -7.8360   10.9071 Cl  0  0  0  0  0  0  0  0  0  0  0  0
   11.1617  -13.3925   17.2770 C   0  0  0  0  0  0  0  0  0  0  0  0
   10.0787  -13.4436   16.1885 C   0  0  0  0  0  0  0  0  0  0  0  0
   10.3026  -14.2665   15.0270 C   0  0  0  0  0  0  0  0  0  0  0  0
    9.3111  -14.3439   13.9878 C   0  0  0  0  0  0  0  0  0  0  0  0
    8.0665  -13.5978   14.0906 C   0  0  0  0  0  0  0  0  0  0  0  0
    7.8571  -12.7742   15.2602 C   0  0  0  0  0  0  0  0  0  0  0  0
    8.8512  -12.6983   16.3025 C   0  0  0  0  0  0  0  0  0  0  0  0
    7.0057  -13.6150   13.0898 N   0  0  0  0  0  0  0  0  0  0  0  0
    6.1122  -13.4045   13.4455 H   0  0  0  0  0  0  0  0  0  0  0  0
    7.0287  -13.8812   11.6910 C   0  0  0  0  0  0  0  0  0  0  0  0
    6.8049  -15.0649   11.1842 N   0  0  0  0  0  0  0  0  0  0  0  0
    7.3016  -12.8339   10.8306 N   0  0  0  0  0  0  0  0  0  0  0  0
    6.6086  -15.8254   11.7778 H   0  0  0  0  0  0  0  0  0  0  0  0
    7.4733  -11.9335   11.1900 H   0  0  0  0  0  0  0  0  0  0  0  0
    7.3241  -12.9884    9.8586 H   0  0  0  0  0  0  0  0  0  0  0  0
 13 14  2  0  0  0
 13 18  1  0  0  0
 13 19  1  0  0  0
 14 15  1  0  0  0
 15 16  2  0  0  0
 16 17  1  0  0  0
 16 12  1  0  0  0
 17 18  2  0  0  0
 12 11  1  0  0  0
 11  7  1  0  0  0
  7  8  2  0  0  0
  7  9  1  0  0  0
  9  1  1  0  0  0
  1 20  1  0  0  0
  1  2  1  0  0  0
 20 21  1  0  0  0
 21 22  2  0  0  0
 21 26  1  0  0  0
 22 23  1  0  0  0
 23 24  2  0  0  0
 24 25  1  0  0  0
 24 27  1  0  0  0
 25 26  2  0  0  0
 27 29  1  0  0  0
 29 30  2  0  0  0
 29 31  1  0  0  0
  2  3  2  0  0  0
  2  4  1  0  0  0
  9 10  1  0  0  0
 27 28  1  0  0  0
 30 32  1  0  0  0
 31 33  1  0  0  0
 31 34  1  0  0  0
  4  5  1  0  0  0
  4  6  1  0  0  0
M  END
> <minimizedAffinity>
-8.47336

$$$$
2BVR_4CP_H_1246


 34 35  0  0  0  0  0  0  0  0999 V2000
   13.1571  -13.7681   15.3354 C   0  0  0  0  0  0  0  0  0  0  0  0
   13.1470  -15.2397   14.8995 C   0  0  0  0  0  0  0  0  0  0  0  0
   12.1720  -15.9353   15.1479 O   0  0  0  0  0  0  0  0  0  0  0  0
   14.2145  -15.8141   14.2167 N   0  0  0  0  0  0  0  0  0  0  0  0
   15.0107  -15.2750   14.0050 H   0  0  0  0  0  0  0  0  0  0  0  0
   14.1737  -16.7595   13.9452 H   0  0  0  0  0  0  0  0  0  0  0  0
   11.5242  -12.4819   16.8799 C   0  0  0  0  0  0  0  0  0  0  0  0
   11.5018  -11.5304   16.1145 O   0  0  0  0  0  0  0  0  0  0  0  0
   12.3098  -13.5989   16.5592 N   0  0  0  0  0  0  0  0  0  0  0  0
   12.3037  -14.3450   17.2015 H   0  0  0  0  0  0  0  0  0  0  0  0
   10.6880  -12.3910   18.1495 C   0  0  0  0  0  0  0  0  0  0  0  0
    8.9280  -12.7146   17.8190 S   0  0  0  0  0  0  0  0  0  0  0  0
    8.1253  -14.6438   13.7002 C   0  0  0  0  0  0  0  0  0  0  0  0
    8.6381  -15.4301   14.7829 C   0  0  0  0  0  0  0  0  0  0  0  0
    8.8842  -14.8206   16.0579 C   0  0  0  0  0  0  0  0  0  0  0  0
    8.6158  -13.4204   16.2487 C   0  0  0  0  0  0  0  0  0  0  0  0
    8.1019  -12.6382   15.1539 C   0  0  0  0  0  0  0  0  0  0  0  0
    7.8578  -13.2474   13.8839 C   0  0  0  0  0  0  0  0  0  0  0  0
    7.8293  -15.3692   12.1804 Cl  0  0  0  0  0  0  0  0  0  0  0  0
   14.6066  -13.3251   15.6650 C   0  0  0  0  0  0  0  0  0  0  0  0
   15.3418  -12.4634   14.6270 C   0  0  0  0  0  0  0  0  0  0  0  0
   14.9411  -11.0896   14.4586 C   0  0  0  0  0  0  0  0  0  0  0  0
   15.6074  -10.2494   13.5000 C   0  0  0  0  0  0  0  0  0  0  0  0
   16.6966  -10.7680   12.6869 C   0  0  0  0  0  0  0  0  0  0  0  0
   17.0856  -12.1490   12.8647 C   0  0  0  0  0  0  0  0  0  0  0  0
   16.4180  -12.9905   13.8273 C   0  0  0  0  0  0  0  0  0  0  0  0
   17.4295   -9.9925   11.6926 N   0  0  0  0  0  0  0  0  0  0  0  0
   18.2300  -10.4437   11.3392 H   0  0  0  0  0  0  0  0  0  0  0  0
   17.1965   -8.7007   11.1404 C   0  0  0  0  0  0  0  0  0  0  0  0
   16.0021   -8.2391   10.8790 N   0  0  0  0  0  0  0  0  0  0  0  0
   18.2897   -7.8988   10.8692 N   0  0  0  0  0  0  0  0  0  0  0  0
   15.2091   -8.7925   11.0640 H   0  0  0  0  0  0  0  0  0  0  0  0
   19.1990   -8.2258   11.0580 H   0  0  0  0  0  0  0  0  0  0  0  0
   18.1589   -7.0009   10.4872 H   0  0  0  0  0  0  0  0  0  0  0  0
 13 14  2  0  0  0
 13 18  1  0  0  0
 13 19  1  0  0  0
 14 15  1  0  0  0
 15 16  2  0  0  0
 16 17  1  0  0  0
 16 12  1  0  0  0
 17 18  2  0  0  0
 12 11  1  0  0  0
 11  7  1  0  0  0
  7  8  2  0  0  0
  7  9  1  0  0  0
  9  1  1  0  0  0
  1 20  1  0  0  0
  1  2  1  0  0  0
 20 21  1  0  0  0
 21 22  2  0  0  0
 21 26  1  0  0  0
 22 23  1  0  0  0
 23 24  2  0  0  0
 24 25  1  0  0  0
 24 27  1  0  0  0
 25 26  2  0  0  0
 27 29  1  0  0  0
 29 30  2  0  0  0
 29 31  1  0  0  0
  2  3  2  0  0  0
  2  4  1  0  0  0
  9 10  1  0  0  0
 27 28  1  0  0  0
 30 32  1  0  0  0
 31 33  1  0  0  0
 31 34  1  0  0  0
  4  5  1  0  0  0
  4  6  1  0  0  0
M  END
> <minimizedAffinity>
-8.19754

$$$$
2BVR_4CP_H_1246


 34 35  0  0  0  0  0  0  0  0999 V2000
   13.1086  -13.3946   16.2263 C   0  0  0  0  0  0  0  0  0  0  0  0
   12.4099  -12.0481   15.9933 C   0  0  0  0  0  0  0  0  0  0  0  0
   12.2405  -11.2859   16.9348 O   0  0  0  0  0  0  0  0  0  0  0  0
   11.9662  -11.6554   14.7344 N   0  0  0  0  0  0  0  0  0  0  0  0
   12.0909  -12.2512   13.9606 H   0  0  0  0  0  0  0  0  0  0  0  0
   11.5276  -10.7818   14.6174 H   0  0  0  0  0  0  0  0  0  0  0  0
   12.8278  -15.6847   15.0504 C   0  0  0  0  0  0  0  0  0  0  0  0
   12.9465  -16.2781   16.1112 O   0  0  0  0  0  0  0  0  0  0  0  0
   12.8985  -14.2837   15.0391 N   0  0  0  0  0  0  0  0  0  0  0  0
   12.8004  -13.8414   14.1651 H   0  0  0  0  0  0  0  0  0  0  0  0
   12.6098  -16.5158   13.7930 C   0  0  0  0  0  0  0  0  0  0  0  0
   10.8471  -16.8812   13.5268 S   0  0  0  0  0  0  0  0  0  0  0  0
    8.5810  -13.6093   11.1836 C   0  0  0  0  0  0  0  0  0  0  0  0
    9.2471  -14.6708   10.4887 C   0  0  0  0  0  0  0  0  0  0  0  0
    9.9483  -15.6817   11.2264 C   0  0  0  0  0  0  0  0  0  0  0  0
    9.9822  -15.6290   12.6634 C   0  0  0  0  0  0  0  0  0  0  0  0
    9.3109  -14.5572   13.3527 C   0  0  0  0  0  0  0  0  0  0  0  0
    8.6130  -13.5505   12.6156 C   0  0  0  0  0  0  0  0  0  0  0  0
    7.7428  -12.4049   10.3059 Cl  0  0  0  0  0  0  0  0  0  0  0  0
   14.6312  -13.1724   16.4221 C   0  0  0  0  0  0  0  0  0  0  0  0
   15.3733  -12.3478   15.3592 C   0  0  0  0  0  0  0  0  0  0  0  0
   15.8110  -13.0050   14.1539 C   0  0  0  0  0  0  0  0  0  0  0  0
   16.5054  -12.2666   13.1334 C   0  0  0  0  0  0  0  0  0  0  0  0
   16.7758  -10.8466   13.2969 C   0  0  0  0  0  0  0  0  0  0  0  0
   16.3334  -10.2014   14.5126 C   0  0  0  0  0  0  0  0  0  0  0  0
   15.6357  -10.9421   15.5348 C   0  0  0  0  0  0  0  0  0  0  0  0
   17.4709  -10.0180   12.3183 N   0  0  0  0  0  0  0  0  0  0  0  0
   18.4222  -10.2434   12.2021 H   0  0  0  0  0  0  0  0  0  0  0  0
   17.0224   -8.9419   11.5005 C   0  0  0  0  0  0  0  0  0  0  0  0
   15.7630   -8.6163   11.3738 N   0  0  0  0  0  0  0  0  0  0  0  0
   17.9683   -8.2083   10.8086 N   0  0  0  0  0  0  0  0  0  0  0  0
   15.0721   -9.1247   11.8570 H   0  0  0  0  0  0  0  0  0  0  0  0
   18.9229   -8.4355   10.8890 H   0  0  0  0  0  0  0  0  0  0  0  0
   17.6874   -7.4586   10.2356 H   0  0  0  0  0  0  0  0  0  0  0  0
 13 14  2  0  0  0
 13 18  1  0  0  0
 13 19  1  0  0  0
 14 15  1  0  0  0
 15 16  2  0  0  0
 16 17  1  0  0  0
 16 12  1  0  0  0
 17 18  2  0  0  0
 12 11  1  0  0  0
 11  7  1  0  0  0
  7  8  2  0  0  0
  7  9  1  0  0  0
  9  1  1  0  0  0
  1 20  1  0  0  0
  1  2  1  0  0  0
 20 21  1  0  0  0
 21 22  2  0  0  0
 21 26  1  0  0  0
 22 23  1  0  0  0
 23 24  2  0  0  0
 24 25  1  0  0  0
 24 27  1  0  0  0
 25 26  2  0  0  0
 27 29  1  0  0  0
 29 30  2  0  0  0
 29 31  1  0  0  0
  2  3  2  0  0  0
  2  4  1  0  0  0
  9 10  1  0  0  0
 27 28  1  0  0  0
 30 32  1  0  0  0
 31 33  1  0  0  0
 31 34  1  0  0  0
  4  5  1  0  0  0
  4  6  1  0  0  0
M  END
> <minimizedAffinity>
-7.92277

$$$$
2BVR_4CP_H_1246


 34 35  0  0  0  0  0  0  0  0999 V2000
   13.5317  -14.7893   14.8606 C   0  0  0  0  0  0  0  0  0  0  0  0
   14.8663  -15.4554   14.4989 C   0  0  0  0  0  0  0  0  0  0  0  0
   15.1192  -16.5716   14.9302 O   0  0  0  0  0  0  0  0  0  0  0  0
   15.8041  -14.8321   13.6817 N   0  0  0  0  0  0  0  0  0  0  0  0
   15.6239  -13.9336   13.3221 H   0  0  0  0  0  0  0  0  0  0  0  0
   16.6480  -15.2896   13.4632 H   0  0  0  0  0  0  0  0  0  0  0  0
   11.6023  -14.2241   13.2284 C   0  0  0  0  0  0  0  0  0  0  0  0
   11.6192  -13.0508   13.5666 O   0  0  0  0  0  0  0  0  0  0  0  0
   12.5052  -15.1195   13.8207 N   0  0  0  0  0  0  0  0  0  0  0  0
   12.4598  -16.0571   13.5238 H   0  0  0  0  0  0  0  0  0  0  0  0
   10.5874  -14.6438   12.1732 C   0  0  0  0  0  0  0  0  0  0  0  0
    8.9492  -14.9530   12.9025 S   0  0  0  0  0  0  0  0  0  0  0  0
    8.2286  -12.7721   16.9094 C   0  0  0  0  0  0  0  0  0  0  0  0
    7.8687  -12.1506   15.6693 C   0  0  0  0  0  0  0  0  0  0  0  0
    8.0973  -12.8370   14.4306 C   0  0  0  0  0  0  0  0  0  0  0  0
    8.6876  -14.1485   14.4342 C   0  0  0  0  0  0  0  0  0  0  0  0
    9.0474  -14.7641   15.6856 C   0  0  0  0  0  0  0  0  0  0  0  0
    8.8191  -14.0783   16.9190 C   0  0  0  0  0  0  0  0  0  0  0  0
    7.9548  -11.9564   18.3870 Cl  0  0  0  0  0  0  0  0  0  0  0  0
   13.0371  -15.3104   16.2353 C   0  0  0  0  0  0  0  0  0  0  0  0
   12.8420  -14.2812   17.3592 C   0  0  0  0  0  0  0  0  0  0  0  0
   12.0631  -13.0996   17.0886 C   0  0  0  0  0  0  0  0  0  0  0  0
   11.8543  -12.1145   18.1157 C   0  0  0  0  0  0  0  0  0  0  0  0
   12.4212  -12.2932   19.4436 C   0  0  0  0  0  0  0  0  0  0  0  0
   13.2028  -13.4821   19.6995 C   0  0  0  0  0  0  0  0  0  0  0  0
   13.4105  -14.4702   18.6694 C   0  0  0  0  0  0  0  0  0  0  0  0
   12.2623  -11.3508   20.5454 N   0  0  0  0  0  0  0  0  0  0  0  0
   11.3325  -11.0690   20.7041 H   0  0  0  0  0  0  0  0  0  0  0  0
   13.2091  -10.7646   21.4331 C   0  0  0  0  0  0  0  0  0  0  0  0
   14.0397   -9.8222   21.0726 N   0  0  0  0  0  0  0  0  0  0  0  0
   13.2482  -11.2173   22.7389 N   0  0  0  0  0  0  0  0  0  0  0  0
   14.0297   -9.4844   20.1479 H   0  0  0  0  0  0  0  0  0  0  0  0
   12.6319  -11.9265   23.0328 H   0  0  0  0  0  0  0  0  0  0  0  0
   13.8925  -10.8304   23.3749 H   0  0  0  0  0  0  0  0  0  0  0  0
 13 14  2  0  0  0
 13 18  1  0  0  0
 13 19  1  0  0  0
 14 15  1  0  0  0
 15 16  2  0  0  0
 16 17  1  0  0  0
 16 12  1  0  0  0
 17 18  2  0  0  0
 12 11  1  0  0  0
 11  7  1  0  0  0
  7  8  2  0  0  0
  7  9  1  0  0  0
  9  1  1  0  0  0
  1 20  1  0  0  0
  1  2  1  0  0  0
 20 21  1  0  0  0
 21 22  2  0  0  0
 21 26  1  0  0  0
 22 23  1  0  0  0
 23 24  2  0  0  0
 24 25  1  0  0  0
 24 27  1  0  0  0
 25 26  2  0  0  0
 27 29  1  0  0  0
 29 30  2  0  0  0
 29 31  1  0  0  0
  2  3  2  0  0  0
  2  4  1  0  0  0
  9 10  1  0  0  0
 27 28  1  0  0  0
 30 32  1  0  0  0
 31 33  1  0  0  0
 31 34  1  0  0  0
  4  5  1  0  0  0
  4  6  1  0  0  0
M  END
> <minimizedAffinity>
-7.88598

$$$$
2BVR_4CP_H_1246


 34 35  0  0  0  0  0  0  0  0999 V2000
   11.9772  -13.1668   16.4942 C   0  0  0  0  0  0  0  0  0  0  0  0
   11.2583  -12.7117   17.7716 C   0  0  0  0  0  0  0  0  0  0  0  0
   10.0388  -12.6175   17.7760 O   0  0  0  0  0  0  0  0  0  0  0  0
   11.9509  -12.4086   18.9396 N   0  0  0  0  0  0  0  0  0  0  0  0
   12.9328  -12.4767   18.9614 H   0  0  0  0  0  0  0  0  0  0  0  0
   11.4590  -12.1259   19.7442 H   0  0  0  0  0  0  0  0  0  0  0  0
   11.6187  -15.4792   15.3849 C   0  0  0  0  0  0  0  0  0  0  0  0
   12.7855  -15.7854   15.5756 O   0  0  0  0  0  0  0  0  0  0  0  0
   11.1645  -14.2207   15.8065 N   0  0  0  0  0  0  0  0  0  0  0  0
   10.2186  -14.0094   15.6335 H   0  0  0  0  0  0  0  0  0  0  0  0
   10.7225  -16.4965   14.6912 C   0  0  0  0  0  0  0  0  0  0  0  0
    9.0009  -15.9158   14.5897 S   0  0  0  0  0  0  0  0  0  0  0  0
    8.0769  -13.6366   10.6805 C   0  0  0  0  0  0  0  0  0  0  0  0
    9.1625  -14.5702   10.7375 C   0  0  0  0  0  0  0  0  0  0  0  0
    9.4408  -15.2724   11.9570 C   0  0  0  0  0  0  0  0  0  0  0  0
    8.6299  -15.0388   13.1217 C   0  0  0  0  0  0  0  0  0  0  0  0
    7.5420  -14.0973   13.0549 C   0  0  0  0  0  0  0  0  0  0  0  0
    7.2664  -13.3982   11.8387 C   0  0  0  0  0  0  0  0  0  0  0  0
    7.7422  -12.8004    9.2270 Cl  0  0  0  0  0  0  0  0  0  0  0  0
   12.1546  -11.9638   15.5312 C   0  0  0  0  0  0  0  0  0  0  0  0
   13.5242  -11.7859   14.8580 C   0  0  0  0  0  0  0  0  0  0  0  0
   13.9868  -10.4518   14.5712 C   0  0  0  0  0  0  0  0  0  0  0  0
   15.2650  -10.2435   13.9453 C   0  0  0  0  0  0  0  0  0  0  0  0
   16.1133  -11.3718   13.5938 C   0  0  0  0  0  0  0  0  0  0  0  0
   15.6347  -12.7045   13.8849 C   0  0  0  0  0  0  0  0  0  0  0  0
   14.3535  -12.9125   14.5139 C   0  0  0  0  0  0  0  0  0  0  0  0
   17.4215  -11.2580   12.9589 N   0  0  0  0  0  0  0  0  0  0  0  0
   18.1790  -11.4423   13.5602 H   0  0  0  0  0  0  0  0  0  0  0  0
   17.8012  -10.9285   11.6266 C   0  0  0  0  0  0  0  0  0  0  0  0
   17.9364   -9.6990   11.2044 N   0  0  0  0  0  0  0  0  0  0  0  0
   18.0375  -11.9624   10.7395 N   0  0  0  0  0  0  0  0  0  0  0  0
   17.7733   -8.9470   11.8185 H   0  0  0  0  0  0  0  0  0  0  0  0
   17.9418  -12.8965   11.0354 H   0  0  0  0  0  0  0  0  0  0  0  0
   18.3015  -11.7645    9.8119 H   0  0  0  0  0  0  0  0  0  0  0  0
 13 14  2  0  0  0
 13 18  1  0  0  0
 13 19  1  0  0  0
 14 15  1  0  0  0
 15 16  2  0  0  0
 16 17  1  0  0  0
 16 12  1  0  0  0
 17 18  2  0  0  0
 12 11  1  0  0  0
 11  7  1  0  0  0
  7  8  2  0  0  0
  7  9  1  0  0  0
  9  1  1  0  0  0
  1 20  1  0  0  0
  1  2  1  0  0  0
 20 21  1  0  0  0
 21 22  2  0  0  0
 21 26  1  0  0  0
 22 23  1  0  0  0
 23 24  2  0  0  0
 24 25  1  0  0  0
 24 27  1  0  0  0
 25 26  2  0  0  0
 27 29  1  0  0  0
 29 30  2  0  0  0
 29 31  1  0  0  0
  2  3  2  0  0  0
  2  4  1  0  0  0
  9 10  1  0  0  0
 27 28  1  0  0  0
 30 32  1  0  0  0
 31 33  1  0  0  0
 31 34  1  0  0  0
  4  5  1  0  0  0
  4  6  1  0  0  0
M  END
> <minimizedAffinity>
-7.85515

$$$$
2BVR_4CP_H_1246


 34 35  0  0  0  0  0  0  0  0999 V2000
   11.9612  -14.6252   14.9673 C   0  0  0  0  0  0  0  0  0  0  0  0
   11.0982  -15.0217   13.7616 C   0  0  0  0  0  0  0  0  0  0  0  0
   10.0614  -15.6452   13.9415 O   0  0  0  0  0  0  0  0  0  0  0  0
   11.4521  -14.6855   12.4587 N   0  0  0  0  0  0  0  0  0  0  0  0
   12.2818  -14.1838   12.2879 H   0  0  0  0  0  0  0  0  0  0  0  0
   10.8728  -14.9492   11.7076 H   0  0  0  0  0  0  0  0  0  0  0  0
   14.4918  -15.0903   14.6738 C   0  0  0  0  0  0  0  0  0  0  0  0
   14.3917  -16.1645   15.2462 O   0  0  0  0  0  0  0  0  0  0  0  0
   13.3483  -14.2950   14.5076 N   0  0  0  0  0  0  0  0  0  0  0  0
   13.4691  -13.4353   14.0432 H   0  0  0  0  0  0  0  0  0  0  0  0
   15.8700  -14.6789   14.1731 C   0  0  0  0  0  0  0  0  0  0  0  0
   16.4426  -13.1450   14.9671 S   0  0  0  0  0  0  0  0  0  0  0  0
   16.5269   -9.5074   12.1226 C   0  0  0  0  0  0  0  0  0  0  0  0
   17.3973  -10.6238   11.8998 C   0  0  0  0  0  0  0  0  0  0  0  0
   17.3630  -11.7483   12.7898 C   0  0  0  0  0  0  0  0  0  0  0  0
   16.4549  -11.7544   13.9052 C   0  0  0  0  0  0  0  0  0  0  0  0
   15.5852  -10.6269   14.1216 C   0  0  0  0  0  0  0  0  0  0  0  0
   15.6212   -9.5070   13.2337 C   0  0  0  0  0  0  0  0  0  0  0  0
   16.5648   -8.1672   11.0614 Cl  0  0  0  0  0  0  0  0  0  0  0  0
   11.3546  -13.3789   15.6636 C   0  0  0  0  0  0  0  0  0  0  0  0
   11.7019  -13.1493   17.1425 C   0  0  0  0  0  0  0  0  0  0  0  0
   10.8016  -12.3680   17.9520 C   0  0  0  0  0  0  0  0  0  0  0  0
   11.0895  -12.1340   19.3417 C   0  0  0  0  0  0  0  0  0  0  0  0
   12.2894  -12.6820   19.9550 C   0  0  0  0  0  0  0  0  0  0  0  0
   13.1848  -13.4613   19.1297 C   0  0  0  0  0  0  0  0  0  0  0  0
   12.8947  -13.6968   17.7366 C   0  0  0  0  0  0  0  0  0  0  0  0
   12.6628  -12.4982   21.3529 N   0  0  0  0  0  0  0  0  0  0  0  0
   12.5893  -13.3131   21.9004 H   0  0  0  0  0  0  0  0  0  0  0  0
   13.1145  -11.3531   22.0689 C   0  0  0  0  0  0  0  0  0  0  0  0
   13.0067  -11.2318   23.3657 N   0  0  0  0  0  0  0  0  0  0  0  0
   13.6946  -10.3218   21.3538 N   0  0  0  0  0  0  0  0  0  0  0  0
   12.5970  -11.9535   23.8953 H   0  0  0  0  0  0  0  0  0  0  0  0
   13.7862  -10.3914   20.3760 H   0  0  0  0  0  0  0  0  0  0  0  0
   14.0161   -9.5178   21.8223 H   0  0  0  0  0  0  0  0  0  0  0  0
 13 14  2  0  0  0
 13 18  1  0  0  0
 13 19  1  0  0  0
 14 15  1  0  0  0
 15 16  2  0  0  0
 16 17  1  0  0  0
 16 12  1  0  0  0
 17 18  2  0  0  0
 12 11  1  0  0  0
 11  7  1  0  0  0
  7  8  2  0  0  0
  7  9  1  0  0  0
  9  1  1  0  0  0
  1 20  1  0  0  0
  1  2  1  0  0  0
 20 21  1  0  0  0
 21 22  2  0  0  0
 21 26  1  0  0  0
 22 23  1  0  0  0
 23 24  2  0  0  0
 24 25  1  0  0  0
 24 27  1  0  0  0
 25 26  2  0  0  0
 27 29  1  0  0  0
 29 30  2  0  0  0
 29 31  1  0  0  0
  2  3  2  0  0  0
  2  4  1  0  0  0
  9 10  1  0  0  0
 27 28  1  0  0  0
 30 32  1  0  0  0
 31 33  1  0  0  0
 31 34  1  0  0  0
  4  5  1  0  0  0
  4  6  1  0  0  0
M  END
> <minimizedAffinity>
-7.53634

$$$$
2BVR_4CP_H_1246


 34 35  0  0  0  0  0  0  0  0999 V2000
   14.5926  -16.1091   14.6762 C   0  0  0  0  0  0  0  0  0  0  0  0
   15.5707  -17.1756   15.1877 C   0  0  0  0  0  0  0  0  0  0  0  0
   16.2096  -17.8420   14.3853 O   0  0  0  0  0  0  0  0  0  0  0  0
   15.7654  -17.4072   16.5458 N   0  0  0  0  0  0  0  0  0  0  0  0
   15.2631  -16.8839   17.2113 H   0  0  0  0  0  0  0  0  0  0  0  0
   16.4055  -18.0944   16.8411 H   0  0  0  0  0  0  0  0  0  0  0  0
   12.6098  -17.4041   13.6287 C   0  0  0  0  0  0  0  0  0  0  0  0
   13.2562  -17.6378   12.6192 O   0  0  0  0  0  0  0  0  0  0  0  0
   13.2017  -16.6652   14.6638 N   0  0  0  0  0  0  0  0  0  0  0  0
   12.6486  -16.4954   15.4604 H   0  0  0  0  0  0  0  0  0  0  0  0
   11.1843  -17.9358   13.6973 C   0  0  0  0  0  0  0  0  0  0  0  0
   10.0359  -16.9049   12.7330 S   0  0  0  0  0  0  0  0  0  0  0  0
    8.2761  -13.3929   15.1620 C   0  0  0  0  0  0  0  0  0  0  0  0
    9.1886  -14.3133   15.7731 C   0  0  0  0  0  0  0  0  0  0  0  0
    9.7290  -15.4009   15.0095 C   0  0  0  0  0  0  0  0  0  0  0  0
    9.3543  -15.5665   13.6307 C   0  0  0  0  0  0  0  0  0  0  0  0
    8.4352  -14.6371   13.0259 C   0  0  0  0  0  0  0  0  0  0  0  0
    7.8975  -13.5542   13.7888 C   0  0  0  0  0  0  0  0  0  0  0  0
    7.6328  -12.0948   16.0701 Cl  0  0  0  0  0  0  0  0  0  0  0  0
   14.6280  -14.8699   15.6085 C   0  0  0  0  0  0  0  0  0  0  0  0
   15.0440  -13.5257   14.9916 C   0  0  0  0  0  0  0  0  0  0  0  0
   16.4022  -13.3623   14.5390 C   0  0  0  0  0  0  0  0  0  0  0  0
   16.8294  -12.1205   13.9523 C   0  0  0  0  0  0  0  0  0  0  0  0
   15.9009  -11.0106   13.8026 C   0  0  0  0  0  0  0  0  0  0  0  0
   14.5423  -11.1882   14.2639 C   0  0  0  0  0  0  0  0  0  0  0  0
   14.1143  -12.4343   14.8507 C   0  0  0  0  0  0  0  0  0  0  0  0
   16.2428   -9.7178   13.2205 N   0  0  0  0  0  0  0  0  0  0  0  0
   16.1639   -8.9608   13.8450 H   0  0  0  0  0  0  0  0  0  0  0  0
   16.6700   -9.3524   11.9121 C   0  0  0  0  0  0  0  0  0  0  0  0
   17.6857   -9.9115   11.3089 N   0  0  0  0  0  0  0  0  0  0  0  0
   15.9738   -8.3574   11.2510 N   0  0  0  0  0  0  0  0  0  0  0  0
   18.1961  -10.6221   11.7604 H   0  0  0  0  0  0  0  0  0  0  0  0
   15.2053   -7.9221   11.6860 H   0  0  0  0  0  0  0  0  0  0  0  0
   16.2466   -8.0841   10.3454 H   0  0  0  0  0  0  0  0  0  0  0  0
 13 14  2  0  0  0
 13 18  1  0  0  0
 13 19  1  0  0  0
 14 15  1  0  0  0
 15 16  2  0  0  0
 16 17  1  0  0  0
 16 12  1  0  0  0
 17 18  2  0  0  0
 12 11  1  0  0  0
 11  7  1  0  0  0
  7  8  2  0  0  0
  7  9  1  0  0  0
  9  1  1  0  0  0
  1 20  1  0  0  0
  1  2  1  0  0  0
 20 21  1  0  0  0
 21 22  2  0  0  0
 21 26  1  0  0  0
 22 23  1  0  0  0
 23 24  2  0  0  0
 24 25  1  0  0  0
 24 27  1  0  0  0
 25 26  2  0  0  0
 27 29  1  0  0  0
 29 30  2  0  0  0
 29 31  1  0  0  0
  2  3  2  0  0  0
  2  4  1  0  0  0
  9 10  1  0  0  0
 27 28  1  0  0  0
 30 32  1  0  0  0
 31 33  1  0  0  0
 31 34  1  0  0  0
  4  5  1  0  0  0
  4  6  1  0  0  0
M  END
> <minimizedAffinity>
-7.51292

$$$$
2BVR_4CP_H_1246


 34 35  0  0  0  0  0  0  0  0999 V2000
   14.1223  -16.1547   15.1464 C   0  0  0  0  0  0  0  0  0  0  0  0
   14.9475  -17.3526   15.6360 C   0  0  0  0  0  0  0  0  0  0  0  0
   14.6778  -18.4755   15.2329 O   0  0  0  0  0  0  0  0  0  0  0  0
   16.0085  -17.2039   16.5237 N   0  0  0  0  0  0  0  0  0  0  0  0
   16.2454  -16.3104   16.8624 H   0  0  0  0  0  0  0  0  0  0  0  0
   16.5224  -17.9922   16.8131 H   0  0  0  0  0  0  0  0  0  0  0  0
   11.8327  -16.9039   14.1963 C   0  0  0  0  0  0  0  0  0  0  0  0
   12.3067  -17.0404   13.0791 O   0  0  0  0  0  0  0  0  0  0  0  0
   12.6621  -16.4751   15.2433 N   0  0  0  0  0  0  0  0  0  0  0  0
   12.2434  -16.3750   16.1287 H   0  0  0  0  0  0  0  0  0  0  0  0
   10.3525  -17.2107   14.3813 C   0  0  0  0  0  0  0  0  0  0  0  0
    9.3758  -15.6927   14.6122 S   0  0  0  0  0  0  0  0  0  0  0  0
    8.1591  -13.5540   10.7037 C   0  0  0  0  0  0  0  0  0  0  0  0
    7.3391  -13.4497   11.8741 C   0  0  0  0  0  0  0  0  0  0  0  0
    7.7263  -14.1184   13.0828 C   0  0  0  0  0  0  0  0  0  0  0  0
    8.9376  -14.8931   13.1188 C   0  0  0  0  0  0  0  0  0  0  0  0
    9.7544  -14.9932   11.9367 C   0  0  0  0  0  0  0  0  0  0  0  0
    9.3665  -14.3264   10.7331 C   0  0  0  0  0  0  0  0  0  0  0  0
    7.7003  -12.7558    9.2629 Cl  0  0  0  0  0  0  0  0  0  0  0  0
   14.4216  -14.9126   16.0261 C   0  0  0  0  0  0  0  0  0  0  0  0
   14.9986  -13.6698   15.3313 C   0  0  0  0  0  0  0  0  0  0  0  0
   16.3980  -13.6552   14.9882 C   0  0  0  0  0  0  0  0  0  0  0  0
   16.9750  -12.5118   14.3335 C   0  0  0  0  0  0  0  0  0  0  0  0
   16.1590  -11.3535   14.0038 C   0  0  0  0  0  0  0  0  0  0  0  0
   14.7573  -11.3812   14.3567 C   0  0  0  0  0  0  0  0  0  0  0  0
   14.1791  -12.5287   15.0119 C   0  0  0  0  0  0  0  0  0  0  0  0
   16.6552  -10.1525   13.3415 N   0  0  0  0  0  0  0  0  0  0  0  0
   16.7098   -9.3627   13.9267 H   0  0  0  0  0  0  0  0  0  0  0  0
   17.0750   -9.9158   12.0015 C   0  0  0  0  0  0  0  0  0  0  0  0
   18.0362  -10.5869   11.4238 N   0  0  0  0  0  0  0  0  0  0  0  0
   16.4319   -8.9271   11.2799 N   0  0  0  0  0  0  0  0  0  0  0  0
   18.5081  -11.2953   11.9183 H   0  0  0  0  0  0  0  0  0  0  0  0
   15.7050   -8.4088   11.6948 H   0  0  0  0  0  0  0  0  0  0  0  0
   16.7010   -8.7414   10.3513 H   0  0  0  0  0  0  0  0  0  0  0  0
 13 14  2  0  0  0
 13 18  1  0  0  0
 13 19  1  0  0  0
 14 15  1  0  0  0
 15 16  2  0  0  0
 16 17  1  0  0  0
 16 12  1  0  0  0
 17 18  2  0  0  0
 12 11  1  0  0  0
 11  7  1  0  0  0
  7  8  2  0  0  0
  7  9  1  0  0  0
  9  1  1  0  0  0
  1 20  1  0  0  0
  1  2  1  0  0  0
 20 21  1  0  0  0
 21 22  2  0  0  0
 21 26  1  0  0  0
 22 23  1  0  0  0
 23 24  2  0  0  0
 24 25  1  0  0  0
 24 27  1  0  0  0
 25 26  2  0  0  0
 27 29  1  0  0  0
 29 30  2  0  0  0
 29 31  1  0  0  0
  2  3  2  0  0  0
  2  4  1  0  0  0
  9 10  1  0  0  0
 27 28  1  0  0  0
 30 32  1  0  0  0
 31 33  1  0  0  0
 31 34  1  0  0  0
  4  5  1  0  0  0
  4  6  1  0  0  0
M  END
> <minimizedAffinity>
-7.45034

$$$$
2BVR_4CP_H_1246


 34 35  0  0  0  0  0  0  0  0999 V2000
   12.2428  -16.9322   14.3996 C   0  0  0  0  0  0  0  0  0  0  0  0
   12.2265  -18.4666   14.4337 C   0  0  0  0  0  0  0  0  0  0  0  0
   12.3450  -19.0470   15.5038 O   0  0  0  0  0  0  0  0  0  0  0  0
   12.0706  -19.2284   13.2799 N   0  0  0  0  0  0  0  0  0  0  0  0
   11.9732  -18.7846   12.4065 H   0  0  0  0  0  0  0  0  0  0  0  0
   12.0576  -20.2111   13.3370 H   0  0  0  0  0  0  0  0  0  0  0  0
   10.3957  -16.2075   12.7356 C   0  0  0  0  0  0  0  0  0  0  0  0
   11.1195  -16.4459   11.7812 O   0  0  0  0  0  0  0  0  0  0  0  0
   10.8829  -16.4216   14.0335 N   0  0  0  0  0  0  0  0  0  0  0  0
   10.2710  -16.2161   14.7768 H   0  0  0  0  0  0  0  0  0  0  0  0
    8.9940  -15.6849   12.4499 C   0  0  0  0  0  0  0  0  0  0  0  0
    8.8564  -13.9048   12.8014 S   0  0  0  0  0  0  0  0  0  0  0  0
   10.1716  -12.6928   17.0595 C   0  0  0  0  0  0  0  0  0  0  0  0
   10.9328  -12.2777   15.9186 C   0  0  0  0  0  0  0  0  0  0  0  0
   10.5154  -12.6601   14.6005 C   0  0  0  0  0  0  0  0  0  0  0  0
    9.3329  -13.4601   14.4252 C   0  0  0  0  0  0  0  0  0  0  0  0
    8.5755  -13.8737   15.5783 C   0  0  0  0  0  0  0  0  0  0  0  0
    8.9934  -13.4918   16.8910 C   0  0  0  0  0  0  0  0  0  0  0  0
   10.6664  -12.2360   18.6312 Cl  0  0  0  0  0  0  0  0  0  0  0  0
   12.6266  -16.3772   15.7963 C   0  0  0  0  0  0  0  0  0  0  0  0
   13.3807  -15.0397   15.8490 C   0  0  0  0  0  0  0  0  0  0  0  0
   13.7934  -14.4282   14.6112 C   0  0  0  0  0  0  0  0  0  0  0  0
   14.4980  -13.1743   14.6184 C   0  0  0  0  0  0  0  0  0  0  0  0
   14.8040  -12.5005   15.8709 C   0  0  0  0  0  0  0  0  0  0  0  0
   14.3864  -13.1275   17.1048 C   0  0  0  0  0  0  0  0  0  0  0  0
   13.6785  -14.3841   17.0968 C   0  0  0  0  0  0  0  0  0  0  0  0
   15.5118  -11.2296   15.9761 N   0  0  0  0  0  0  0  0  0  0  0  0
   15.8141  -11.0106   16.8871 H   0  0  0  0  0  0  0  0  0  0  0  0
   15.8447  -10.2483   14.9993 C   0  0  0  0  0  0  0  0  0  0  0  0
   17.0473  -10.1076   14.5074 N   0  0  0  0  0  0  0  0  0  0  0  0
   14.8441   -9.4053   14.5521 N   0  0  0  0  0  0  0  0  0  0  0  0
   17.7754  -10.6967   14.8110 H   0  0  0  0  0  0  0  0  0  0  0  0
   13.9307   -9.4930   14.9087 H   0  0  0  0  0  0  0  0  0  0  0  0
   15.0451   -8.7174   13.8772 H   0  0  0  0  0  0  0  0  0  0  0  0
 13 14  2  0  0  0
 13 18  1  0  0  0
 13 19  1  0  0  0
 14 15  1  0  0  0
 15 16  2  0  0  0
 16 17  1  0  0  0
 16 12  1  0  0  0
 17 18  2  0  0  0
 12 11  1  0  0  0
 11  7  1  0  0  0
  7  8  2  0  0  0
  7  9  1  0  0  0
  9  1  1  0  0  0
  1 20  1  0  0  0
  1  2  1  0  0  0
 20 21  1  0  0  0
 21 22  2  0  0  0
 21 26  1  0  0  0
 22 23  1  0  0  0
 23 24  2  0  0  0
 24 25  1  0  0  0
 24 27  1  0  0  0
 25 26  2  0  0  0
 27 29  1  0  0  0
 29 30  2  0  0  0
 29 31  1  0  0  0
  2  3  2  0  0  0
  2  4  1  0  0  0
  9 10  1  0  0  0
 27 28  1  0  0  0
 30 32  1  0  0  0
 31 33  1  0  0  0
 31 34  1  0  0  0
  4  5  1  0  0  0
  4  6  1  0  0  0
M  END
> <minimizedAffinity>
-7.25468

$$$$
2BVR_4CP_H_1246


 34 35  0  0  0  0  0  0  0  0999 V2000
   12.4598  -13.8444   17.1727 C   0  0  0  0  0  0  0  0  0  0  0  0
   12.4958  -12.9053   18.3862 C   0  0  0  0  0  0  0  0  0  0  0  0
   12.8645  -13.3352   19.4703 O   0  0  0  0  0  0  0  0  0  0  0  0
   12.1292  -11.5664   18.2938 N   0  0  0  0  0  0  0  0  0  0  0  0
   11.8289  -11.1965   17.4322 H   0  0  0  0  0  0  0  0  0  0  0  0
   12.1701  -10.9888   19.0900 H   0  0  0  0  0  0  0  0  0  0  0  0
   10.7168  -13.5435   15.2812 C   0  0  0  0  0  0  0  0  0  0  0  0
   10.1464  -14.5748   15.6013 O   0  0  0  0  0  0  0  0  0  0  0  0
   11.8474  -13.1348   16.0041 N   0  0  0  0  0  0  0  0  0  0  0  0
   12.2811  -12.2995   15.7150 H   0  0  0  0  0  0  0  0  0  0  0  0
   10.1567  -12.7596   14.1017 C   0  0  0  0  0  0  0  0  0  0  0  0
    8.7269  -13.6012   13.3543 S   0  0  0  0  0  0  0  0  0  0  0  0
    9.9196  -16.8473   10.2930 C   0  0  0  0  0  0  0  0  0  0  0  0
   10.7491  -15.6958   10.4907 C   0  0  0  0  0  0  0  0  0  0  0  0
   10.3689  -14.6934   11.4439 C   0  0  0  0  0  0  0  0  0  0  0  0
    9.1552  -14.8452   12.2006 C   0  0  0  0  0  0  0  0  0  0  0  0
    8.3273  -16.0054   11.9936 C   0  0  0  0  0  0  0  0  0  0  0  0
    8.7077  -17.0030   11.0429 C   0  0  0  0  0  0  0  0  0  0  0  0
   10.3724  -18.0442    9.1589 Cl  0  0  0  0  0  0  0  0  0  0  0  0
   13.9012  -14.2766   16.7966 C   0  0  0  0  0  0  0  0  0  0  0  0
   14.7273  -13.3192   15.9241 C   0  0  0  0  0  0  0  0  0  0  0  0
   15.0998  -13.7388   14.5969 C   0  0  0  0  0  0  0  0  0  0  0  0
   15.8695  -12.8696   13.7479 C   0  0  0  0  0  0  0  0  0  0  0  0
   16.2829  -11.5536   14.2103 C   0  0  0  0  0  0  0  0  0  0  0  0
   15.9044  -11.1474   15.5451 C   0  0  0  0  0  0  0  0  0  0  0  0
   15.1312  -12.0191   16.3953 C   0  0  0  0  0  0  0  0  0  0  0  0
   17.0623  -10.6060   13.4218 N   0  0  0  0  0  0  0  0  0  0  0  0
   17.4947   -9.8989   13.9531 H   0  0  0  0  0  0  0  0  0  0  0  0
   17.3109  -10.5186   12.0223 C   0  0  0  0  0  0  0  0  0  0  0  0
   18.1022  -11.3395   11.3836 N   0  0  0  0  0  0  0  0  0  0  0  0
   16.6827   -9.5151   11.3081 N   0  0  0  0  0  0  0  0  0  0  0  0
   18.5601  -12.0616   11.8717 H   0  0  0  0  0  0  0  0  0  0  0  0
   16.0822   -8.8852   11.7685 H   0  0  0  0  0  0  0  0  0  0  0  0
   16.8358   -9.4305   10.3393 H   0  0  0  0  0  0  0  0  0  0  0  0
 13 14  2  0  0  0
 13 18  1  0  0  0
 13 19  1  0  0  0
 14 15  1  0  0  0
 15 16  2  0  0  0
 16 17  1  0  0  0
 16 12  1  0  0  0
 17 18  2  0  0  0
 12 11  1  0  0  0
 11  7  1  0  0  0
  7  8  2  0  0  0
  7  9  1  0  0  0
  9  1  1  0  0  0
  1 20  1  0  0  0
  1  2  1  0  0  0
 20 21  1  0  0  0
 21 22  2  0  0  0
 21 26  1  0  0  0
 22 23  1  0  0  0
 23 24  2  0  0  0
 24 25  1  0  0  0
 24 27  1  0  0  0
 25 26  2  0  0  0
 27 29  1  0  0  0
 29 30  2  0  0  0
 29 31  1  0  0  0
  2  3  2  0  0  0
  2  4  1  0  0  0
  9 10  1  0  0  0
 27 28  1  0  0  0
 30 32  1  0  0  0
 31 33  1  0  0  0
 31 34  1  0  0  0
  4  5  1  0  0  0
  4  6  1  0  0  0
M  END
> <minimizedAffinity>
-7.20059

$$$$
