4NBK_2J5_A_401


 18 19  0  0  0  0  0  0  0  0999 V2000
   24.3573   29.5430    8.4147 C   0  0  0  0  0  0  0  0  0  0  0  0
   25.6183   29.1755    7.6756 C   0  0  0  0  0  0  0  0  0  0  0  0
   25.6298   28.9841    6.2928 C   0  0  0  0  0  0  0  0  0  0  0  0
   26.8124   28.7743    5.6097 C   0  0  0  0  0  0  0  0  0  0  0  0
   28.0039   28.7219    6.2919 C   0  0  0  0  0  0  0  0  0  0  0  0
   28.0231   28.8624    7.6638 C   0  0  0  0  0  0  0  0  0  0  0  0
   26.8344   29.0873    8.3609 C   0  0  0  0  0  0  0  0  0  0  0  0
   26.8603   29.2195    9.7008 O   0  0  0  0  0  0  0  0  0  0  0  0
   26.0647   29.3705   10.1721 H   0  0  0  0  0  0  0  0  0  0  0  0
   23.1185   29.4385    7.6537 N   0  0  0  0  0  0  0  0  0  0  0  0
   22.7772   28.5349    7.4633 H   0  0  0  0  0  0  0  0  0  0  0  0
   21.5807   32.6271    7.4077 C   0  0  0  0  0  0  0  0  0  0  0  0
   22.4018   30.4869    7.1890 C   0  0  0  0  0  0  0  0  0  0  0  0
   21.9849   30.4476    5.8071 C   0  0  0  0  0  0  0  0  0  0  0  0
   22.1888   29.2478    4.9260 C   0  0  0  0  0  0  0  0  0  0  0  0
   22.1703   31.5582    7.9545 N   0  0  0  0  0  0  0  0  0  0  0  0
   21.1776   32.6930    6.1178 C   0  0  0  0  0  0  0  0  0  0  0  0
   21.3747   31.5873    5.3150 C   0  0  0  0  0  0  0  0  0  0  0  0
  4  3  2  0  0  0
  4  5  1  0  0  0
  3  2  1  0  0  0
 15 14  1  0  0  0
  5  6  2  0  0  0
 10  1  1  0  0  0
 10 13  1  0  0  0
  2  1  1  0  0  0
  2  7  2  0  0  0
 14 13  2  0  0  0
 14 18  1  0  0  0
 13 16  1  0  0  0
  6  7  1  0  0  0
  7  8  1  0  0  0
 18 17  2  0  0  0
 16 12  2  0  0  0
 17 12  1  0  0  0
 10 11  1  0  0  0
  8  9  1  0  0  0
M  END
> <minimizedAffinity>
-8.85064

$$$$
4NBK_2J5_A_401


 18 19  0  0  0  0  0  0  0  0999 V2000
   22.3116   30.3029    6.9482 C   0  0  0  0  0  0  0  0  0  0  0  0
   21.6996   31.2807    5.9782 C   0  0  0  0  0  0  0  0  0  0  0  0
   21.3688   30.9112    4.6732 C   0  0  0  0  0  0  0  0  0  0  0  0
   20.6922   31.7763    3.8347 C   0  0  0  0  0  0  0  0  0  0  0  0
   20.3566   33.0364    4.2676 C   0  0  0  0  0  0  0  0  0  0  0  0
   20.7080   33.4493    5.5358 C   0  0  0  0  0  0  0  0  0  0  0  0
   21.3807   32.5775    6.3943 C   0  0  0  0  0  0  0  0  0  0  0  0
   21.7240   32.9889    7.6297 O   0  0  0  0  0  0  0  0  0  0  0  0
   22.1755   32.4068    8.2088 H   0  0  0  0  0  0  0  0  0  0  0  0
   23.4662   29.5589    6.4606 N   0  0  0  0  0  0  0  0  0  0  0  0
   23.3620   29.0587    5.6191 H   0  0  0  0  0  0  0  0  0  0  0  0
   25.9878   29.6830    8.9544 C   0  0  0  0  0  0  0  0  0  0  0  0
   24.6697   29.5028    7.0748 C   0  0  0  0  0  0  0  0  0  0  0  0
   25.7656   28.9177    6.3389 C   0  0  0  0  0  0  0  0  0  0  0  0
   25.6561   28.5098    4.8971 C   0  0  0  0  0  0  0  0  0  0  0  0
   24.8142   29.8888    8.3466 N   0  0  0  0  0  0  0  0  0  0  0  0
   27.0627   29.1204    8.3555 C   0  0  0  0  0  0  0  0  0  0  0  0
   26.9500   28.7439    7.0321 C   0  0  0  0  0  0  0  0  0  0  0  0
  4  3  2  0  0  0
  4  5  1  0  0  0
  3  2  1  0  0  0
 15 14  1  0  0  0
  5  6  2  0  0  0
 10  1  1  0  0  0
 10 13  1  0  0  0
  2  1  1  0  0  0
  2  7  2  0  0  0
 14 13  2  0  0  0
 14 18  1  0  0  0
 13 16  1  0  0  0
  6  7  1  0  0  0
  7  8  1  0  0  0
 18 17  2  0  0  0
 16 12  2  0  0  0
 17 12  1  0  0  0
 10 11  1  0  0  0
  8  9  1  0  0  0
M  END
> <minimizedAffinity>
-8.74693

$$$$
4NBK_2J5_A_401


 18 19  0  0  0  0  0  0  0  0999 V2000
   23.1636   29.8053    7.3997 C   0  0  0  0  0  0  0  0  0  0  0  0
   24.5992   29.4006    7.1833 C   0  0  0  0  0  0  0  0  0  0  0  0
   25.0637   28.9802    5.9357 C   0  0  0  0  0  0  0  0  0  0  0  0
   26.4059   28.7350    5.7179 C   0  0  0  0  0  0  0  0  0  0  0  0
   27.3089   28.8752    6.7440 C   0  0  0  0  0  0  0  0  0  0  0  0
   26.8772   29.2456    8.0005 C   0  0  0  0  0  0  0  0  0  0  0  0
   25.5246   29.5076    8.2267 C   0  0  0  0  0  0  0  0  0  0  0  0
   25.1098   29.8649    9.4570 O   0  0  0  0  0  0  0  0  0  0  0  0
   24.2029   30.0415    9.6128 H   0  0  0  0  0  0  0  0  0  0  0  0
   22.3741   30.0244    6.1942 N   0  0  0  0  0  0  0  0  0  0  0  0
   22.3376   29.2932    5.5360 H   0  0  0  0  0  0  0  0  0  0  0  0
   21.0004   33.2870    6.4415 C   0  0  0  0  0  0  0  0  0  0  0  0
   21.6881   31.1545    5.9099 C   0  0  0  0  0  0  0  0  0  0  0  0
   21.1837   31.3064    4.5655 C   0  0  0  0  0  0  0  0  0  0  0  0
   21.2661   30.2171    3.5341 C   0  0  0  0  0  0  0  0  0  0  0  0
   21.5638   32.1322    6.8133 N   0  0  0  0  0  0  0  0  0  0  0  0
   20.5214   33.5310    5.1999 C   0  0  0  0  0  0  0  0  0  0  0  0
   20.6070   32.5256    4.2578 C   0  0  0  0  0  0  0  0  0  0  0  0
  4  3  2  0  0  0
  4  5  1  0  0  0
  3  2  1  0  0  0
 15 14  1  0  0  0
  5  6  2  0  0  0
 10  1  1  0  0  0
 10 13  1  0  0  0
  2  1  1  0  0  0
  2  7  2  0  0  0
 14 13  2  0  0  0
 14 18  1  0  0  0
 13 16  1  0  0  0
  6  7  1  0  0  0
  7  8  1  0  0  0
 18 17  2  0  0  0
 16 12  2  0  0  0
 17 12  1  0  0  0
 10 11  1  0  0  0
  8  9  1  0  0  0
M  END
> <minimizedAffinity>
-8.50052

$$$$
4NBK_2J5_A_401


 18 19  0  0  0  0  0  0  0  0999 V2000
   22.4028   29.3845    6.2232 C   0  0  0  0  0  0  0  0  0  0  0  0
   21.7748   30.7257    5.9431 C   0  0  0  0  0  0  0  0  0  0  0  0
   21.6922   31.7169    6.9227 C   0  0  0  0  0  0  0  0  0  0  0  0
   21.2324   32.9844    6.6205 C   0  0  0  0  0  0  0  0  0  0  0  0
   20.8184   33.2828    5.3448 C   0  0  0  0  0  0  0  0  0  0  0  0
   20.8448   32.3137    4.3637 C   0  0  0  0  0  0  0  0  0  0  0  0
   21.3197   31.0339    4.6569 C   0  0  0  0  0  0  0  0  0  0  0  0
   21.3388   30.0917    3.6950 O   0  0  0  0  0  0  0  0  0  0  0  0
   21.6567   29.2317    3.8879 H   0  0  0  0  0  0  0  0  0  0  0  0
   23.7986   29.2391    5.8296 N   0  0  0  0  0  0  0  0  0  0  0  0
   23.9875   29.0785    4.8768 H   0  0  0  0  0  0  0  0  0  0  0  0
   25.7417   29.5825    8.7790 C   0  0  0  0  0  0  0  0  0  0  0  0
   24.8542   29.3079    6.6720 C   0  0  0  0  0  0  0  0  0  0  0  0
   26.1384   28.8844    6.1654 C   0  0  0  0  0  0  0  0  0  0  0  0
   26.3680   28.5150    4.7273 C   0  0  0  0  0  0  0  0  0  0  0  0
   24.6950   29.6655    7.9502 N   0  0  0  0  0  0  0  0  0  0  0  0
   26.9755   29.1741    8.4027 C   0  0  0  0  0  0  0  0  0  0  0  0
   27.1746   28.8315    7.0803 C   0  0  0  0  0  0  0  0  0  0  0  0
  4  3  2  0  0  0
  4  5  1  0  0  0
  3  2  1  0  0  0
 15 14  1  0  0  0
  5  6  2  0  0  0
 10  1  1  0  0  0
 10 13  1  0  0  0
  2  1  1  0  0  0
  2  7  2  0  0  0
 14 13  2  0  0  0
 14 18  1  0  0  0
 13 16  1  0  0  0
  6  7  1  0  0  0
  7  8  1  0  0  0
 18 17  2  0  0  0
 16 12  2  0  0  0
 17 12  1  0  0  0
 10 11  1  0  0  0
  8  9  1  0  0  0
M  END
> <minimizedAffinity>
-7.98646

$$$$
4NBK_2J5_A_401


 18 19  0  0  0  0  0  0  0  0999 V2000
   26.5010   29.0456    7.4879 C   0  0  0  0  0  0  0  0  0  0  0  0
   27.9264   28.7840    7.0739 C   0  0  0  0  0  0  0  0  0  0  0  0
   28.3686   29.0229    5.7714 C   0  0  0  0  0  0  0  0  0  0  0  0
   29.7035   28.9022    5.4359 C   0  0  0  0  0  0  0  0  0  0  0  0
   30.6209   28.5135    6.3821 C   0  0  0  0  0  0  0  0  0  0  0  0
   30.2108   28.2264    7.6673 C   0  0  0  0  0  0  0  0  0  0  0  0
   28.8658   28.3578    8.0185 C   0  0  0  0  0  0  0  0  0  0  0  0
   28.4721   28.0718    9.2741 O   0  0  0  0  0  0  0  0  0  0  0  0
   27.5705   28.1588    9.5136 H   0  0  0  0  0  0  0  0  0  0  0  0
   25.4856   28.7923    6.4734 N   0  0  0  0  0  0  0  0  0  0  0  0
   25.7327   28.2105    5.7186 H   0  0  0  0  0  0  0  0  0  0  0  0
   22.6311   30.7074    7.3548 C   0  0  0  0  0  0  0  0  0  0  0  0
   24.2302   29.2948    6.4888 C   0  0  0  0  0  0  0  0  0  0  0  0
   23.3741   28.9809    5.3691 C   0  0  0  0  0  0  0  0  0  0  0  0
   23.7687   28.0209    4.2829 C   0  0  0  0  0  0  0  0  0  0  0  0
   23.8311   30.1253    7.4573 N   0  0  0  0  0  0  0  0  0  0  0  0
   21.7709   30.4948    6.3323 C   0  0  0  0  0  0  0  0  0  0  0  0
   22.1453   29.6153    5.3363 C   0  0  0  0  0  0  0  0  0  0  0  0
  4  3  2  0  0  0
  4  5  1  0  0  0
  3  2  1  0  0  0
 15 14  1  0  0  0
  5  6  2  0  0  0
 10  1  1  0  0  0
 10 13  1  0  0  0
  2  1  1  0  0  0
  2  7  2  0  0  0
 14 13  2  0  0  0
 14 18  1  0  0  0
 13 16  1  0  0  0
  6  7  1  0  0  0
  7  8  1  0  0  0
 18 17  2  0  0  0
 16 12  2  0  0  0
 17 12  1  0  0  0
 10 11  1  0  0  0
  8  9  1  0  0  0
M  END
> <minimizedAffinity>
-7.93700

$$$$
4NBK_2J5_A_401


 18 19  0  0  0  0  0  0  0  0999 V2000
   23.0973   29.0052    5.4717 C   0  0  0  0  0  0  0  0  0  0  0  0
   24.3530   29.1810    6.2865 C   0  0  0  0  0  0  0  0  0  0  0  0
   24.3146   29.6347    7.6062 C   0  0  0  0  0  0  0  0  0  0  0  0
   25.4563   29.6699    8.3838 C   0  0  0  0  0  0  0  0  0  0  0  0
   26.6638   29.2818    7.8554 C   0  0  0  0  0  0  0  0  0  0  0  0
   26.7446   28.8707    6.5414 C   0  0  0  0  0  0  0  0  0  0  0  0
   25.5941   28.8200    5.7519 C   0  0  0  0  0  0  0  0  0  0  0  0
   25.6813   28.4215    4.4686 O   0  0  0  0  0  0  0  0  0  0  0  0
   24.9115   28.3862    3.9357 H   0  0  0  0  0  0  0  0  0  0  0  0
   21.9524   29.8079    5.8833 N   0  0  0  0  0  0  0  0  0  0  0  0
   21.4685   29.5272    6.6934 H   0  0  0  0  0  0  0  0  0  0  0  0
   20.5799   31.9318    3.3937 C   0  0  0  0  0  0  0  0  0  0  0  0
   21.5034   30.9084    5.2383 C   0  0  0  0  0  0  0  0  0  0  0  0
   21.3254   32.1104    6.0182 C   0  0  0  0  0  0  0  0  0  0  0  0
   21.7474   32.2216    7.4559 C   0  0  0  0  0  0  0  0  0  0  0  0
   21.1503   30.8573    3.9499 N   0  0  0  0  0  0  0  0  0  0  0  0
   20.3501   33.0925    4.0499 C   0  0  0  0  0  0  0  0  0  0  0  0
   20.7364   33.1825    5.3722 C   0  0  0  0  0  0  0  0  0  0  0  0
  4  3  2  0  0  0
  4  5  1  0  0  0
  3  2  1  0  0  0
 15 14  1  0  0  0
  5  6  2  0  0  0
 10  1  1  0  0  0
 10 13  1  0  0  0
  2  1  1  0  0  0
  2  7  2  0  0  0
 14 13  2  0  0  0
 14 18  1  0  0  0
 13 16  1  0  0  0
  6  7  1  0  0  0
  7  8  1  0  0  0
 18 17  2  0  0  0
 16 12  2  0  0  0
 17 12  1  0  0  0
 10 11  1  0  0  0
  8  9  1  0  0  0
M  END
> <minimizedAffinity>
-7.86595

$$$$
4NBK_2J5_A_401


 18 19  0  0  0  0  0  0  0  0999 V2000
   22.3099   29.5178    5.7614 C   0  0  0  0  0  0  0  0  0  0  0  0
   21.7844   30.9278    5.6755 C   0  0  0  0  0  0  0  0  0  0  0  0
   21.1749   31.4152    4.5180 C   0  0  0  0  0  0  0  0  0  0  0  0
   20.5832   32.6635    4.4927 C   0  0  0  0  0  0  0  0  0  0  0  0
   20.6110   33.4636    5.6094 C   0  0  0  0  0  0  0  0  0  0  0  0
   21.2441   33.0307    6.7558 C   0  0  0  0  0  0  0  0  0  0  0  0
   21.8337   31.7657    6.7944 C   0  0  0  0  0  0  0  0  0  0  0  0
   22.4535   31.3514    7.9158 O   0  0  0  0  0  0  0  0  0  0  0  0
   22.8504   30.5031    7.9456 H   0  0  0  0  0  0  0  0  0  0  0  0
   23.4919   29.3273    6.5927 N   0  0  0  0  0  0  0  0  0  0  0  0
   23.3846   29.4319    7.5658 H   0  0  0  0  0  0  0  0  0  0  0  0
   26.1558   28.4526    4.4177 C   0  0  0  0  0  0  0  0  0  0  0  0
   24.7246   29.0180    6.1307 C   0  0  0  0  0  0  0  0  0  0  0  0
   25.8426   29.2410    7.0169 C   0  0  0  0  0  0  0  0  0  0  0  0
   25.6781   29.6584    8.4508 C   0  0  0  0  0  0  0  0  0  0  0  0
   24.9072   28.6103    4.8707 N   0  0  0  0  0  0  0  0  0  0  0  0
   27.2647   28.6609    5.1645 C   0  0  0  0  0  0  0  0  0  0  0  0
   27.1028   29.0498    6.4792 C   0  0  0  0  0  0  0  0  0  0  0  0
  4  3  2  0  0  0
  4  5  1  0  0  0
  3  2  1  0  0  0
 15 14  1  0  0  0
  5  6  2  0  0  0
 10  1  1  0  0  0
 10 13  1  0  0  0
  2  1  1  0  0  0
  2  7  2  0  0  0
 14 13  2  0  0  0
 14 18  1  0  0  0
 13 16  1  0  0  0
  6  7  1  0  0  0
  7  8  1  0  0  0
 18 17  2  0  0  0
 16 12  2  0  0  0
 17 12  1  0  0  0
 10 11  1  0  0  0
  8  9  1  0  0  0
M  END
> <minimizedAffinity>
-7.85107

$$$$
4NBK_2J5_A_401


 18 19  0  0  0  0  0  0  0  0999 V2000
   23.0587   30.0061    7.3771 C   0  0  0  0  0  0  0  0  0  0  0  0
   24.4569   29.5027    7.1257 C   0  0  0  0  0  0  0  0  0  0  0  0
   24.8543   29.0336    5.8723 C   0  0  0  0  0  0  0  0  0  0  0  0
   26.1700   28.6957    5.6195 C   0  0  0  0  0  0  0  0  0  0  0  0
   27.1110   28.7901    6.6162 C   0  0  0  0  0  0  0  0  0  0  0  0
   26.7433   29.2073    7.8784 C   0  0  0  0  0  0  0  0  0  0  0  0
   25.4185   29.5629    8.1396 C   0  0  0  0  0  0  0  0  0  0  0  0
   25.0660   29.9654    9.3753 O   0  0  0  0  0  0  0  0  0  0  0  0
   24.1781   30.2049    9.5545 H   0  0  0  0  0  0  0  0  0  0  0  0
   22.0496   29.5966    6.4082 N   0  0  0  0  0  0  0  0  0  0  0  0
   21.5852   28.7436    6.5691 H   0  0  0  0  0  0  0  0  0  0  0  0
   21.1166   30.4033    3.0809 C   0  0  0  0  0  0  0  0  0  0  0  0
   21.7022   30.2979    5.3054 C   0  0  0  0  0  0  0  0  0  0  0  0
   21.3501   31.6869    5.4837 C   0  0  0  0  0  0  0  0  0  0  0  0
   21.4911   32.4034    6.7967 C   0  0  0  0  0  0  0  0  0  0  0  0
   21.5993   29.7025    4.1129 N   0  0  0  0  0  0  0  0  0  0  0  0
   20.7379   31.7001    3.1566 C   0  0  0  0  0  0  0  0  0  0  0  0
   20.8661   32.3478    4.3690 C   0  0  0  0  0  0  0  0  0  0  0  0
  4  3  2  0  0  0
  4  5  1  0  0  0
  3  2  1  0  0  0
 15 14  1  0  0  0
  5  6  2  0  0  0
 10  1  1  0  0  0
 10 13  1  0  0  0
  2  1  1  0  0  0
  2  7  2  0  0  0
 14 13  2  0  0  0
 14 18  1  0  0  0
 13 16  1  0  0  0
  6  7  1  0  0  0
  7  8  1  0  0  0
 18 17  2  0  0  0
 16 12  2  0  0  0
 17 12  1  0  0  0
 10 11  1  0  0  0
  8  9  1  0  0  0
M  END
> <minimizedAffinity>
-7.79358

$$$$
4NBK_2J5_A_401


 18 19  0  0  0  0  0  0  0  0999 V2000
   26.0927   29.0160    7.8628 C   0  0  0  0  0  0  0  0  0  0  0  0
   24.9740   29.0982    6.8563 C   0  0  0  0  0  0  0  0  0  0  0  0
   25.0379   28.4320    5.6311 C   0  0  0  0  0  0  0  0  0  0  0  0
   23.9558   28.4091    4.7722 C   0  0  0  0  0  0  0  0  0  0  0  0
   22.7985   29.0724    5.1017 C   0  0  0  0  0  0  0  0  0  0  0  0
   22.7174   29.7777    6.2842 C   0  0  0  0  0  0  0  0  0  0  0  0
   23.8014   29.7960    7.1639 C   0  0  0  0  0  0  0  0  0  0  0  0
   23.7164   30.4900    8.3147 O   0  0  0  0  0  0  0  0  0  0  0  0
   24.4417   30.5047    8.9077 H   0  0  0  0  0  0  0  0  0  0  0  0
   27.4306   29.2891    7.3529 N   0  0  0  0  0  0  0  0  0  0  0  0
   27.5193   29.9801    6.6573 H   0  0  0  0  0  0  0  0  0  0  0  0
   29.7474   27.4575    9.3202 C   0  0  0  0  0  0  0  0  0  0  0  0
   28.5595   28.6668    7.7616 C   0  0  0  0  0  0  0  0  0  0  0  0
   29.5938   28.4510    6.7775 C   0  0  0  0  0  0  0  0  0  0  0  0
   29.5243   29.0073    5.3836 C   0  0  0  0  0  0  0  0  0  0  0  0
   28.6723   28.1882    9.0048 N   0  0  0  0  0  0  0  0  0  0  0  0
   30.7548   27.1817    8.4601 C   0  0  0  0  0  0  0  0  0  0  0  0
   30.6786   27.6928    7.1800 C   0  0  0  0  0  0  0  0  0  0  0  0
  4  3  2  0  0  0
  4  5  1  0  0  0
  3  2  1  0  0  0
 15 14  1  0  0  0
  5  6  2  0  0  0
 10  1  1  0  0  0
 10 13  1  0  0  0
  2  1  1  0  0  0
  2  7  2  0  0  0
 14 13  2  0  0  0
 14 18  1  0  0  0
 13 16  1  0  0  0
  6  7  1  0  0  0
  7  8  1  0  0  0
 18 17  2  0  0  0
 16 12  2  0  0  0
 17 12  1  0  0  0
 10 11  1  0  0  0
  8  9  1  0  0  0
M  END
> <minimizedAffinity>
-7.75178

$$$$
4NBK_2J5_A_401


 18 19  0  0  0  0  0  0  0  0999 V2000
   22.6488   28.8332    5.7402 C   0  0  0  0  0  0  0  0  0  0  0  0
   24.1513   28.9211    5.8194 C   0  0  0  0  0  0  0  0  0  0  0  0
   24.8018   29.3516    6.9772 C   0  0  0  0  0  0  0  0  0  0  0  0
   26.1787   29.3064    7.0827 C   0  0  0  0  0  0  0  0  0  0  0  0
   26.9377   28.8593    6.0282 C   0  0  0  0  0  0  0  0  0  0  0  0
   26.3293   28.4688    4.8536 C   0  0  0  0  0  0  0  0  0  0  0  0
   24.9378   28.4993    4.7425 C   0  0  0  0  0  0  0  0  0  0  0  0
   24.3511   28.1204    3.5912 O   0  0  0  0  0  0  0  0  0  0  0  0
   23.4175   28.1394    3.5128 H   0  0  0  0  0  0  0  0  0  0  0  0
   22.0090   29.7108    4.7681 N   0  0  0  0  0  0  0  0  0  0  0  0
   21.9442   29.3897    3.8397 H   0  0  0  0  0  0  0  0  0  0  0  0
   21.3139   32.7867    6.3955 C   0  0  0  0  0  0  0  0  0  0  0  0
   21.4974   30.9321    5.0430 C   0  0  0  0  0  0  0  0  0  0  0  0
   20.7915   31.6118    3.9825 C   0  0  0  0  0  0  0  0  0  0  0  0
   20.4864   30.9674    2.6600 C   0  0  0  0  0  0  0  0  0  0  0  0
   21.7185   31.5237    6.2212 N   0  0  0  0  0  0  0  0  0  0  0  0
   20.6679   33.5121    5.4535 C   0  0  0  0  0  0  0  0  0  0  0  0
   20.3974   32.9126    4.2397 C   0  0  0  0  0  0  0  0  0  0  0  0
  4  3  2  0  0  0
  4  5  1  0  0  0
  3  2  1  0  0  0
 15 14  1  0  0  0
  5  6  2  0  0  0
 10  1  1  0  0  0
 10 13  1  0  0  0
  2  1  1  0  0  0
  2  7  2  0  0  0
 14 13  2  0  0  0
 14 18  1  0  0  0
 13 16  1  0  0  0
  6  7  1  0  0  0
  7  8  1  0  0  0
 18 17  2  0  0  0
 16 12  2  0  0  0
 17 12  1  0  0  0
 10 11  1  0  0  0
  8  9  1  0  0  0
M  END
> <minimizedAffinity>
-7.28772

$$$$
