1BN4_AL9_A_555


 25 26  0  0  0  0  0  0  0  0999 V2000
   -4.6920    4.9969   13.6878 S   0  0  0  0  0  0  0  0  0  0  0  0
   -5.9597    5.2544   13.0795 O   0  0  0  0  0  0  0  0  0  0  0  0
   -4.3593    6.1514   14.4548 O   0  0  0  0  0  0  0  0  0  0  0  0
   -5.7725    2.1206   16.3710 C   0  0  0  0  0  0  0  0  0  0  0  0
   -4.4835    1.7921   16.0111 C   0  0  0  0  0  0  0  0  0  0  0  0
   -3.9696    2.6804   15.0885 C   0  0  0  0  0  0  0  0  0  0  0  0
   -4.8829    3.6625   14.7635 C   0  0  0  0  0  0  0  0  0  0  0  0
   -6.3888    3.5301   15.5675 S   0  0  0  0  0  0  0  0  0  0  0  0
   -7.9821    1.2141   17.0720 O   0  0  0  0  0  0  0  0  0  0  0  0
   -6.5848    1.9673   18.7903 O   0  0  0  0  0  0  0  0  0  0  0  0
   -5.9638   -0.1864   17.6819 N   0  0  0  0  0  0  0  0  0  0  0  0
   -6.6540    1.2321   17.5799 S   0  0  0  0  0  0  0  0  0  0  0  0
   -6.0435   -0.6684   16.7865 H   0  0  0  0  0  0  0  0  0  0  0  0
   -6.4241   -0.7370   18.4067 H   0  0  0  0  0  0  0  0  0  0  0  0
   -3.6952    4.7722   12.6007 N   0  0  0  0  0  0  0  0  0  0  0  0
   -3.3680    5.6790   12.2673 H   0  0  0  0  0  0  0  0  0  0  0  0
   -4.2433    4.0300   11.4685 C   0  0  0  0  0  0  0  0  0  0  0  0
   -3.8062    2.5822   11.4401 C   0  0  0  0  0  0  0  0  0  0  0  0
   -4.7339    1.5427   11.5478 C   0  0  0  0  0  0  0  0  0  0  0  0
   -4.2821    0.2273   11.5343 C   0  0  0  0  0  0  0  0  0  0  0  0
   -2.9129   -0.0621   11.4120 C   0  0  0  0  0  0  0  0  0  0  0  0
   -2.0081    0.9884   11.3025 C   0  0  0  0  0  0  0  0  0  0  0  0
   -2.4485    2.3032   11.3162 C   0  0  0  0  0  0  0  0  0  0  0  0
   -2.4528   -1.2890   11.4095 O   0  0  0  0  0  0  0  0  0  0  0  0
   -3.4688   -2.3106   11.5464 C   0  0  0  0  0  0  0  0  0  0  0  0
  4 12  1  0  0  0
  4  5  2  0  0  0
  4  8  1  0  0  0
 17 18  1  0  0  0
 17 15  1  0  0  0
 18 19  2  0  0  0
 18 23  1  0  0  0
 19 20  1  0  0  0
 20 21  2  0  0  0
 21 22  1  0  0  0
 21 24  1  0  0  0
 22 23  2  0  0  0
  9 12  2  0  0  0
 10 12  2  0  0  0
 11 12  1  0  0  0
  5  6  1  0  0  0
  6  7  2  0  0  0
  7  8  1  0  0  0
  7  1  1  0  0  0
  1  2  2  0  0  0
  1  3  2  0  0  0
  1 15  1  0  0  0
 24 25  1  0  0  0
 11 13  1  0  0  0
 11 14  1  0  0  0
 15 16  1  0  0  0
M  END
> <minimizedAffinity>
-7.35751

$$$$
1BN4_AL9_A_555


 25 26  0  0  0  0  0  0  0  0999 V2000
   -4.5217    5.7799   12.9602 S   0  0  0  0  0  0  0  0  0  0  0  0
   -5.6911    6.2390   12.2783 O   0  0  0  0  0  0  0  0  0  0  0  0
   -4.0578    6.8641   13.7611 O   0  0  0  0  0  0  0  0  0  0  0  0
   -4.9519    2.5500   15.4143 C   0  0  0  0  0  0  0  0  0  0  0  0
   -6.2324    3.0311   15.2470 C   0  0  0  0  0  0  0  0  0  0  0  0
   -6.2561    4.1458   14.4336 C   0  0  0  0  0  0  0  0  0  0  0  0
   -4.9906    4.4904   14.0049 C   0  0  0  0  0  0  0  0  0  0  0  0
   -3.7405    3.4719   14.5808 S   0  0  0  0  0  0  0  0  0  0  0  0
   -3.2322    1.2250   16.6318 O   0  0  0  0  0  0  0  0  0  0  0  0
   -4.8464   -0.0038   15.4672 O   0  0  0  0  0  0  0  0  0  0  0  0
   -5.5798    1.1277   17.5730 N   0  0  0  0  0  0  0  0  0  0  0  0
   -4.6146    1.1040   16.3214 S   0  0  0  0  0  0  0  0  0  0  0  0
   -5.3688    1.9423   18.1496 H   0  0  0  0  0  0  0  0  0  0  0  0
   -5.4456    0.2786   18.1220 H   0  0  0  0  0  0  0  0  0  0  0  0
   -3.5071    5.4015   11.9339 N   0  0  0  0  0  0  0  0  0  0  0  0
   -3.1335    6.2539   11.5164 H   0  0  0  0  0  0  0  0  0  0  0  0
   -4.0561    4.5642   10.8705 C   0  0  0  0  0  0  0  0  0  0  0  0
   -3.6661    3.1086   10.9998 C   0  0  0  0  0  0  0  0  0  0  0  0
   -4.6323    2.1090   11.1411 C   0  0  0  0  0  0  0  0  0  0  0  0
   -4.2241    0.7860   11.2743 C   0  0  0  0  0  0  0  0  0  0  0  0
   -2.8603    0.4494   11.2656 C   0  0  0  0  0  0  0  0  0  0  0  0
   -1.9164    1.4603   11.1200 C   0  0  0  0  0  0  0  0  0  0  0  0
   -2.3133    2.7824   10.9879 C   0  0  0  0  0  0  0  0  0  0  0  0
   -2.4416   -0.7848   11.4022 O   0  0  0  0  0  0  0  0  0  0  0  0
   -3.4944   -1.7551   11.6138 C   0  0  0  0  0  0  0  0  0  0  0  0
  4 12  1  0  0  0
  4  5  2  0  0  0
  4  8  1  0  0  0
 17 18  1  0  0  0
 17 15  1  0  0  0
 18 19  2  0  0  0
 18 23  1  0  0  0
 19 20  1  0  0  0
 20 21  2  0  0  0
 21 22  1  0  0  0
 21 24  1  0  0  0
 22 23  2  0  0  0
  9 12  2  0  0  0
 10 12  2  0  0  0
 11 12  1  0  0  0
  5  6  1  0  0  0
  6  7  2  0  0  0
  7  8  1  0  0  0
  7  1  1  0  0  0
  1  2  2  0  0  0
  1  3  2  0  0  0
  1 15  1  0  0  0
 24 25  1  0  0  0
 11 13  1  0  0  0
 11 14  1  0  0  0
 15 16  1  0  0  0
M  END
> <minimizedAffinity>
-7.15265

$$$$
1BN4_AL9_A_555


 25 26  0  0  0  0  0  0  0  0999 V2000
   -2.0988    5.3543   11.5642 S   0  0  0  0  0  0  0  0  0  0  0  0
   -0.8897    5.6632   12.2614 O   0  0  0  0  0  0  0  0  0  0  0  0
   -1.9586    5.8726   10.2437 O   0  0  0  0  0  0  0  0  0  0  0  0
   -3.0996    1.4080   11.3088 C   0  0  0  0  0  0  0  0  0  0  0  0
   -1.7282    1.4096   11.4447 C   0  0  0  0  0  0  0  0  0  0  0  0
   -1.2266    2.6918   11.5385 C   0  0  0  0  0  0  0  0  0  0  0  0
   -2.2291    3.6374   11.4664 C   0  0  0  0  0  0  0  0  0  0  0  0
   -3.8046    2.9936   11.2799 S   0  0  0  0  0  0  0  0  0  0  0  0
   -4.5264   -0.1911   12.5747 O   0  0  0  0  0  0  0  0  0  0  0  0
   -3.1319   -1.1222   10.9437 O   0  0  0  0  0  0  0  0  0  0  0  0
   -5.1303    0.1479   10.1402 N   0  0  0  0  0  0  0  0  0  0  0  0
   -4.0249   -0.0644   11.2501 S   0  0  0  0  0  0  0  0  0  0  0  0
   -5.7416    0.9178   10.4121 H   0  0  0  0  0  0  0  0  0  0  0  0
   -5.6810   -0.7049   10.0412 H   0  0  0  0  0  0  0  0  0  0  0  0
   -3.2274    6.0164   12.2809 N   0  0  0  0  0  0  0  0  0  0  0  0
   -3.2757    6.9904   11.9817 H   0  0  0  0  0  0  0  0  0  0  0  0
   -3.0789    5.9825   13.7336 C   0  0  0  0  0  0  0  0  0  0  0  0
   -3.9421    4.9308   14.3943 C   0  0  0  0  0  0  0  0  0  0  0  0
   -3.3849    3.7644   14.9250 C   0  0  0  0  0  0  0  0  0  0  0  0
   -4.2215    2.8179   15.5072 C   0  0  0  0  0  0  0  0  0  0  0  0
   -5.6096    3.0245   15.5676 C   0  0  0  0  0  0  0  0  0  0  0  0
   -6.1417    4.1944   15.0363 C   0  0  0  0  0  0  0  0  0  0  0  0
   -5.3162    5.1434   14.4525 C   0  0  0  0  0  0  0  0  0  0  0  0
   -6.4269    2.1475   16.0967 O   0  0  0  0  0  0  0  0  0  0  0  0
   -5.8204    1.2841   17.0874 C   0  0  0  0  0  0  0  0  0  0  0  0
  4 12  1  0  0  0
  4  5  2  0  0  0
  4  8  1  0  0  0
 17 18  1  0  0  0
 17 15  1  0  0  0
 18 19  2  0  0  0
 18 23  1  0  0  0
 19 20  1  0  0  0
 20 21  2  0  0  0
 21 22  1  0  0  0
 21 24  1  0  0  0
 22 23  2  0  0  0
  9 12  2  0  0  0
 10 12  2  0  0  0
 11 12  1  0  0  0
  5  6  1  0  0  0
  6  7  2  0  0  0
  7  8  1  0  0  0
  7  1  1  0  0  0
  1  2  2  0  0  0
  1  3  2  0  0  0
  1 15  1  0  0  0
 24 25  1  0  0  0
 11 13  1  0  0  0
 11 14  1  0  0  0
 15 16  1  0  0  0
M  END
> <minimizedAffinity>
-6.63495

$$$$
1BN4_AL9_A_555


 25 26  0  0  0  0  0  0  0  0999 V2000
   -5.0963    5.6771   12.7766 S   0  0  0  0  0  0  0  0  0  0  0  0
   -5.0614    5.0826   11.4771 O   0  0  0  0  0  0  0  0  0  0  0  0
   -6.2572    6.5031   12.8223 O   0  0  0  0  0  0  0  0  0  0  0  0
   -4.9713    2.3976   15.1992 C   0  0  0  0  0  0  0  0  0  0  0  0
   -6.0919    3.0878   15.6078 C   0  0  0  0  0  0  0  0  0  0  0  0
   -6.2726    4.2448   14.8777 C   0  0  0  0  0  0  0  0  0  0  0  0
   -5.2807    4.4109   13.9328 C   0  0  0  0  0  0  0  0  0  0  0  0
   -4.1029    3.1684   13.9093 S   0  0  0  0  0  0  0  0  0  0  0  0
   -3.3225    1.1383   16.5743 O   0  0  0  0  0  0  0  0  0  0  0  0
   -4.2990   -0.0370   14.8031 O   0  0  0  0  0  0  0  0  0  0  0  0
   -5.7375    0.4141   16.7979 N   0  0  0  0  0  0  0  0  0  0  0  0
   -4.5305    0.8575   15.8785 S   0  0  0  0  0  0  0  0  0  0  0  0
   -5.8576    1.0911   17.5514 H   0  0  0  0  0  0  0  0  0  0  0  0
   -5.5429   -0.5052   17.1947 H   0  0  0  0  0  0  0  0  0  0  0  0
   -3.8561    6.4889   12.9467 N   0  0  0  0  0  0  0  0  0  0  0  0
   -3.0691    5.9638   12.5656 H   0  0  0  0  0  0  0  0  0  0  0  0
   -3.5703    6.8081   14.3430 C   0  0  0  0  0  0  0  0  0  0  0  0
   -2.6732    8.0151   14.5045 C   0  0  0  0  0  0  0  0  0  0  0  0
   -2.2225    8.4199   15.7637 C   0  0  0  0  0  0  0  0  0  0  0  0
   -1.4134    9.5470   15.8637 C   0  0  0  0  0  0  0  0  0  0  0  0
   -1.0472   10.2737   14.7187 C   0  0  0  0  0  0  0  0  0  0  0  0
   -1.5045    9.8502   13.4755 C   0  0  0  0  0  0  0  0  0  0  0  0
   -2.3126    8.7287   13.3655 C   0  0  0  0  0  0  0  0  0  0  0  0
   -0.2979   11.3470   14.7791 O   0  0  0  0  0  0  0  0  0  0  0  0
    0.5921   11.5212   13.6512 C   0  0  0  0  0  0  0  0  0  0  0  0
  4 12  1  0  0  0
  4  5  2  0  0  0
  4  8  1  0  0  0
 17 18  1  0  0  0
 17 15  1  0  0  0
 18 19  2  0  0  0
 18 23  1  0  0  0
 19 20  1  0  0  0
 20 21  2  0  0  0
 21 22  1  0  0  0
 21 24  1  0  0  0
 22 23  2  0  0  0
  9 12  2  0  0  0
 10 12  2  0  0  0
 11 12  1  0  0  0
  5  6  1  0  0  0
  6  7  2  0  0  0
  7  8  1  0  0  0
  7  1  1  0  0  0
  1  2  2  0  0  0
  1  3  2  0  0  0
  1 15  1  0  0  0
 24 25  1  0  0  0
 11 13  1  0  0  0
 11 14  1  0  0  0
 15 16  1  0  0  0
M  END
> <minimizedAffinity>
-6.56273

$$$$
1BN4_AL9_A_555


 25 26  0  0  0  0  0  0  0  0999 V2000
   -4.0771    4.2825   11.2023 S   0  0  0  0  0  0  0  0  0  0  0  0
   -2.7219    4.7339   11.2569 O   0  0  0  0  0  0  0  0  0  0  0  0
   -4.3016    3.8076    9.8771 O   0  0  0  0  0  0  0  0  0  0  0  0
   -4.4688    1.6367   14.2823 C   0  0  0  0  0  0  0  0  0  0  0  0
   -4.3455    0.8464   13.1601 C   0  0  0  0  0  0  0  0  0  0  0  0
   -4.2090    1.6045   12.0150 C   0  0  0  0  0  0  0  0  0  0  0  0
   -4.2371    2.9559   12.2926 C   0  0  0  0  0  0  0  0  0  0  0  0
   -4.4328    3.3397   13.9497 S   0  0  0  0  0  0  0  0  0  0  0  0
   -3.3559    1.3756   16.4933 O   0  0  0  0  0  0  0  0  0  0  0  0
   -4.6246   -0.4463   15.7564 O   0  0  0  0  0  0  0  0  0  0  0  0
   -5.8791    1.5709   16.5370 N   0  0  0  0  0  0  0  0  0  0  0  0
   -4.5733    0.9649   15.8840 S   0  0  0  0  0  0  0  0  0  0  0  0
   -5.7869    2.5846   16.6037 H   0  0  0  0  0  0  0  0  0  0  0  0
   -6.0060    1.1789   17.4701 H   0  0  0  0  0  0  0  0  0  0  0  0
   -4.9632    5.4423   11.5114 N   0  0  0  0  0  0  0  0  0  0  0  0
   -5.4497    5.7163   10.6578 H   0  0  0  0  0  0  0  0  0  0  0  0
   -4.2317    6.5989   12.0220 C   0  0  0  0  0  0  0  0  0  0  0  0
   -4.8535    7.9185   11.6221 C   0  0  0  0  0  0  0  0  0  0  0  0
   -4.0628    9.0116   11.2580 C   0  0  0  0  0  0  0  0  0  0  0  0
   -4.6799   10.2100   10.9150 C   0  0  0  0  0  0  0  0  0  0  0  0
   -6.0796   10.3284   10.9292 C   0  0  0  0  0  0  0  0  0  0  0  0
   -6.8467    9.2263   11.2913 C   0  0  0  0  0  0  0  0  0  0  0  0
   -6.2408    8.0276   11.6362 C   0  0  0  0  0  0  0  0  0  0  0  0
   -6.6921   11.4461   10.6248 O   0  0  0  0  0  0  0  0  0  0  0  0
   -5.8647   12.6294   10.7239 C   0  0  0  0  0  0  0  0  0  0  0  0
  4 12  1  0  0  0
  4  5  2  0  0  0
  4  8  1  0  0  0
 17 18  1  0  0  0
 17 15  1  0  0  0
 18 19  2  0  0  0
 18 23  1  0  0  0
 19 20  1  0  0  0
 20 21  2  0  0  0
 21 22  1  0  0  0
 21 24  1  0  0  0
 22 23  2  0  0  0
  9 12  2  0  0  0
 10 12  2  0  0  0
 11 12  1  0  0  0
  5  6  1  0  0  0
  6  7  2  0  0  0
  7  8  1  0  0  0
  7  1  1  0  0  0
  1  2  2  0  0  0
  1  3  2  0  0  0
  1 15  1  0  0  0
 24 25  1  0  0  0
 11 13  1  0  0  0
 11 14  1  0  0  0
 15 16  1  0  0  0
M  END
> <minimizedAffinity>
-6.37417

$$$$
1BN4_AL9_A_555


 25 26  0  0  0  0  0  0  0  0999 V2000
   -3.5598    3.8150   10.9559 S   0  0  0  0  0  0  0  0  0  0  0  0
   -2.8094    3.1950    9.9091 O   0  0  0  0  0  0  0  0  0  0  0  0
   -4.7915    4.2462   10.3822 O   0  0  0  0  0  0  0  0  0  0  0  0
   -4.3587    1.5074   14.2234 C   0  0  0  0  0  0  0  0  0  0  0  0
   -4.2580    0.6105   13.1820 C   0  0  0  0  0  0  0  0  0  0  0  0
   -3.9920    1.2456   11.9860 C   0  0  0  0  0  0  0  0  0  0  0  0
   -3.9018    2.6134   12.1447 C   0  0  0  0  0  0  0  0  0  0  0  0
   -4.1405    3.1624   13.7488 S   0  0  0  0  0  0  0  0  0  0  0  0
   -3.3912    1.3562   16.5117 O   0  0  0  0  0  0  0  0  0  0  0  0
   -4.7783   -0.4112   15.8603 O   0  0  0  0  0  0  0  0  0  0  0  0
   -5.8854    1.7683   16.3864 N   0  0  0  0  0  0  0  0  0  0  0  0
   -4.6070    0.9963   15.8680 S   0  0  0  0  0  0  0  0  0  0  0  0
   -5.7060    2.7722   16.3705 H   0  0  0  0  0  0  0  0  0  0  0  0
   -6.0957    1.4755   17.3405 H   0  0  0  0  0  0  0  0  0  0  0  0
   -2.7720    4.9756   11.4641 N   0  0  0  0  0  0  0  0  0  0  0  0
   -3.4208    5.7107   11.7454 H   0  0  0  0  0  0  0  0  0  0  0  0
   -1.8535    5.5215   10.4683 C   0  0  0  0  0  0  0  0  0  0  0  0
   -0.3992    5.3697   10.8556 C   0  0  0  0  0  0  0  0  0  0  0  0
    0.1937    6.2196   11.7931 C   0  0  0  0  0  0  0  0  0  0  0  0
    1.5391    6.0522   12.1039 C   0  0  0  0  0  0  0  0  0  0  0  0
    2.2992    5.0430   11.4900 C   0  0  0  0  0  0  0  0  0  0  0  0
    1.6873    4.2065   10.5627 C   0  0  0  0  0  0  0  0  0  0  0  0
    0.3470    4.3662   10.2451 C   0  0  0  0  0  0  0  0  0  0  0  0
    3.5715    4.8668   11.7499 O   0  0  0  0  0  0  0  0  0  0  0  0
    4.0040    5.4066   13.0213 C   0  0  0  0  0  0  0  0  0  0  0  0
  4 12  1  0  0  0
  4  5  2  0  0  0
  4  8  1  0  0  0
 17 18  1  0  0  0
 17 15  1  0  0  0
 18 19  2  0  0  0
 18 23  1  0  0  0
 19 20  1  0  0  0
 20 21  2  0  0  0
 21 22  1  0  0  0
 21 24  1  0  0  0
 22 23  2  0  0  0
  9 12  2  0  0  0
 10 12  2  0  0  0
 11 12  1  0  0  0
  5  6  1  0  0  0
  6  7  2  0  0  0
  7  8  1  0  0  0
  7  1  1  0  0  0
  1  2  2  0  0  0
  1  3  2  0  0  0
  1 15  1  0  0  0
 24 25  1  0  0  0
 11 13  1  0  0  0
 11 14  1  0  0  0
 15 16  1  0  0  0
M  END
> <minimizedAffinity>
-6.17914

$$$$
1BN4_AL9_A_555


 25 26  0  0  0  0  0  0  0  0999 V2000
   -3.8990    4.4292   11.1248 S   0  0  0  0  0  0  0  0  0  0  0  0
   -3.4111    3.8953    9.8918 O   0  0  0  0  0  0  0  0  0  0  0  0
   -5.1768    4.9990   10.8518 O   0  0  0  0  0  0  0  0  0  0  0  0
   -4.4034    1.8202   14.2198 C   0  0  0  0  0  0  0  0  0  0  0  0
   -4.2875    1.0177   13.1055 C   0  0  0  0  0  0  0  0  0  0  0  0
   -4.1154    1.7625   11.9565 C   0  0  0  0  0  0  0  0  0  0  0  0
   -4.1096    3.1163   12.2232 C   0  0  0  0  0  0  0  0  0  0  0  0
   -4.3161    3.5188   13.8745 S   0  0  0  0  0  0  0  0  0  0  0  0
   -5.7161    1.7940   16.3344 O   0  0  0  0  0  0  0  0  0  0  0  0
   -3.3991    1.5614   16.5566 O   0  0  0  0  0  0  0  0  0  0  0  0
   -4.6578   -0.4035   15.6578 N   0  0  0  0  0  0  0  0  0  0  0  0
   -4.5471    1.1645   15.8252 S   0  0  0  0  0  0  0  0  0  0  0  0
   -5.4983   -0.6302   15.1264 H   0  0  0  0  0  0  0  0  0  0  0  0
   -4.7090   -0.8408   16.5779 H   0  0  0  0  0  0  0  0  0  0  0  0
   -2.9378    5.4712   11.5897 N   0  0  0  0  0  0  0  0  0  0  0  0
   -2.5478    5.1774   12.4852 H   0  0  0  0  0  0  0  0  0  0  0  0
   -3.5567    6.7832   11.7594 C   0  0  0  0  0  0  0  0  0  0  0  0
   -2.9838    7.5641   12.9212 C   0  0  0  0  0  0  0  0  0  0  0  0
   -3.0817    7.0898   14.2320 C   0  0  0  0  0  0  0  0  0  0  0  0
   -2.5551    7.8520   15.2695 C   0  0  0  0  0  0  0  0  0  0  0  0
   -1.9290    9.0829   15.0121 C   0  0  0  0  0  0  0  0  0  0  0  0
   -1.8399    9.5334   13.6994 C   0  0  0  0  0  0  0  0  0  0  0  0
   -2.3630    8.7815   12.6584 C   0  0  0  0  0  0  0  0  0  0  0  0
   -1.4347    9.8316   15.9672 O   0  0  0  0  0  0  0  0  0  0  0  0
   -0.2211   10.5349   15.6103 C   0  0  0  0  0  0  0  0  0  0  0  0
  4 12  1  0  0  0
  4  5  2  0  0  0
  4  8  1  0  0  0
 17 18  1  0  0  0
 17 15  1  0  0  0
 18 19  2  0  0  0
 18 23  1  0  0  0
 19 20  1  0  0  0
 20 21  2  0  0  0
 21 22  1  0  0  0
 21 24  1  0  0  0
 22 23  2  0  0  0
  9 12  2  0  0  0
 10 12  2  0  0  0
 11 12  1  0  0  0
  5  6  1  0  0  0
  6  7  2  0  0  0
  7  8  1  0  0  0
  7  1  1  0  0  0
  1  2  2  0  0  0
  1  3  2  0  0  0
  1 15  1  0  0  0
 24 25  1  0  0  0
 11 13  1  0  0  0
 11 14  1  0  0  0
 15 16  1  0  0  0
M  END
> <minimizedAffinity>
-6.14986

$$$$
1BN4_AL9_A_555


 25 26  0  0  0  0  0  0  0  0999 V2000
   -5.4173    4.7766   14.3622 S   0  0  0  0  0  0  0  0  0  0  0  0
   -6.0271    5.3848   13.2214 O   0  0  0  0  0  0  0  0  0  0  0  0
   -6.4263    4.6719   15.3637 O   0  0  0  0  0  0  0  0  0  0  0  0
   -4.2953    1.2520   12.6423 C   0  0  0  0  0  0  0  0  0  0  0  0
   -4.3525    0.9765   13.9913 C   0  0  0  0  0  0  0  0  0  0  0  0
   -4.7180    2.0877   14.7236 C   0  0  0  0  0  0  0  0  0  0  0  0
   -4.9253    3.1856   13.9138 C   0  0  0  0  0  0  0  0  0  0  0  0
   -4.6789    2.8971   12.2442 S   0  0  0  0  0  0  0  0  0  0  0  0
   -4.3358   -1.1779   12.1043 O   0  0  0  0  0  0  0  0  0  0  0  0
   -2.5437    0.0425   11.2262 O   0  0  0  0  0  0  0  0  0  0  0  0
   -4.7835    0.3943   10.1718 N   0  0  0  0  0  0  0  0  0  0  0  0
   -3.9423    0.0264   11.4586 S   0  0  0  0  0  0  0  0  0  0  0  0
   -5.7781    0.3671   10.3966 H   0  0  0  0  0  0  0  0  0  0  0  0
   -4.5838   -0.2782    9.4313 H   0  0  0  0  0  0  0  0  0  0  0  0
   -4.3035    5.6592   14.8163 N   0  0  0  0  0  0  0  0  0  0  0  0
   -4.6070    6.1629   15.6497 H   0  0  0  0  0  0  0  0  0  0  0  0
   -3.8988    6.6329   13.8056 C   0  0  0  0  0  0  0  0  0  0  0  0
   -2.8218    7.5782   14.2894 C   0  0  0  0  0  0  0  0  0  0  0  0
   -2.7605    7.9846   15.6250 C   0  0  0  0  0  0  0  0  0  0  0  0
   -1.7620    8.8693   16.0189 C   0  0  0  0  0  0  0  0  0  0  0  0
   -0.8215    9.3513   15.0934 C   0  0  0  0  0  0  0  0  0  0  0  0
   -0.8996    8.9303   13.7702 C   0  0  0  0  0  0  0  0  0  0  0  0
   -1.8921    8.0497   13.3674 C   0  0  0  0  0  0  0  0  0  0  0  0
    0.1230   10.1955   15.4283 O   0  0  0  0  0  0  0  0  0  0  0  0
   -0.0120   11.5108   14.8395 C   0  0  0  0  0  0  0  0  0  0  0  0
  4 12  1  0  0  0
  4  5  2  0  0  0
  4  8  1  0  0  0
 17 18  1  0  0  0
 17 15  1  0  0  0
 18 19  2  0  0  0
 18 23  1  0  0  0
 19 20  1  0  0  0
 20 21  2  0  0  0
 21 22  1  0  0  0
 21 24  1  0  0  0
 22 23  2  0  0  0
  9 12  2  0  0  0
 10 12  2  0  0  0
 11 12  1  0  0  0
  5  6  1  0  0  0
  6  7  2  0  0  0
  7  8  1  0  0  0
  7  1  1  0  0  0
  1  2  2  0  0  0
  1  3  2  0  0  0
  1 15  1  0  0  0
 24 25  1  0  0  0
 11 13  1  0  0  0
 11 14  1  0  0  0
 15 16  1  0  0  0
M  END
> <minimizedAffinity>
-6.14815

$$$$
1BN4_AL9_A_555


 25 26  0  0  0  0  0  0  0  0999 V2000
   -1.7919    4.7696   13.1587 S   0  0  0  0  0  0  0  0  0  0  0  0
   -1.6689    4.4831   14.5537 O   0  0  0  0  0  0  0  0  0  0  0  0
   -0.5324    5.2806   12.7290 O   0  0  0  0  0  0  0  0  0  0  0  0
   -3.0934    1.2428   11.5751 C   0  0  0  0  0  0  0  0  0  0  0  0
   -1.8373    1.4215   11.0372 C   0  0  0  0  0  0  0  0  0  0  0  0
   -1.2561    2.5932   11.4775 C   0  0  0  0  0  0  0  0  0  0  0  0
   -2.0871    3.2822   12.3372 C   0  0  0  0  0  0  0  0  0  0  0  0
   -3.5953    2.5264   12.6298 S   0  0  0  0  0  0  0  0  0  0  0  0
   -4.5785   -0.5026   12.5464 O   0  0  0  0  0  0  0  0  0  0  0  0
   -3.1553   -1.2009   10.8263 O   0  0  0  0  0  0  0  0  0  0  0  0
   -5.1113    0.2157   10.1786 N   0  0  0  0  0  0  0  0  0  0  0  0
   -4.0397   -0.1851   11.2693 S   0  0  0  0  0  0  0  0  0  0  0  0
   -5.7178    0.9468   10.5503 H   0  0  0  0  0  0  0  0  0  0  0  0
   -5.6724   -0.6012    9.9369 H   0  0  0  0  0  0  0  0  0  0  0  0
   -2.8679    5.7891   12.9895 N   0  0  0  0  0  0  0  0  0  0  0  0
   -2.5460    6.4946   12.3269 H   0  0  0  0  0  0  0  0  0  0  0  0
   -3.2257    6.4538   14.2399 C   0  0  0  0  0  0  0  0  0  0  0  0
   -2.6144    7.8306   14.3765 C   0  0  0  0  0  0  0  0  0  0  0  0
   -2.4661    8.6709   13.2699 C   0  0  0  0  0  0  0  0  0  0  0  0
   -1.8820    9.9215   13.4422 C   0  0  0  0  0  0  0  0  0  0  0  0
   -1.4462   10.3436   14.7091 C   0  0  0  0  0  0  0  0  0  0  0  0
   -1.6073    9.4922   15.7968 C   0  0  0  0  0  0  0  0  0  0  0  0
   -2.1872    8.2430   15.6351 C   0  0  0  0  0  0  0  0  0  0  0  0
   -0.8800   11.5093   14.9036 O   0  0  0  0  0  0  0  0  0  0  0  0
    0.3759   11.4537   15.6207 C   0  0  0  0  0  0  0  0  0  0  0  0
  4 12  1  0  0  0
  4  5  2  0  0  0
  4  8  1  0  0  0
 17 18  1  0  0  0
 17 15  1  0  0  0
 18 19  2  0  0  0
 18 23  1  0  0  0
 19 20  1  0  0  0
 20 21  2  0  0  0
 21 22  1  0  0  0
 21 24  1  0  0  0
 22 23  2  0  0  0
  9 12  2  0  0  0
 10 12  2  0  0  0
 11 12  1  0  0  0
  5  6  1  0  0  0
  6  7  2  0  0  0
  7  8  1  0  0  0
  7  1  1  0  0  0
  1  2  2  0  0  0
  1  3  2  0  0  0
  1 15  1  0  0  0
 24 25  1  0  0  0
 11 13  1  0  0  0
 11 14  1  0  0  0
 15 16  1  0  0  0
M  END
> <minimizedAffinity>
-6.13548

$$$$
1BN4_AL9_A_555


 25 26  0  0  0  0  0  0  0  0999 V2000
   -4.4636    4.7146   13.6575 S   0  0  0  0  0  0  0  0  0  0  0  0
   -3.3098    4.4083   12.8713 O   0  0  0  0  0  0  0  0  0  0  0  0
   -5.5777    4.7294   12.7683 O   0  0  0  0  0  0  0  0  0  0  0  0
   -5.6305    1.9605   16.4313 C   0  0  0  0  0  0  0  0  0  0  0  0
   -4.3196    1.6387   16.1536 C   0  0  0  0  0  0  0  0  0  0  0  0
   -3.7745    2.4880   15.2122 C   0  0  0  0  0  0  0  0  0  0  0  0
   -4.6864    3.4342   14.7911 C   0  0  0  0  0  0  0  0  0  0  0  0
   -6.2286    3.3145   15.5251 S   0  0  0  0  0  0  0  0  0  0  0  0
   -5.9106   -0.1446   17.7295 O   0  0  0  0  0  0  0  0  0  0  0  0
   -7.8791    0.9772   17.1474 O   0  0  0  0  0  0  0  0  0  0  0  0
   -6.4806    1.9974   18.9518 N   0  0  0  0  0  0  0  0  0  0  0  0
   -6.5570    1.1188   17.6399 S   0  0  0  0  0  0  0  0  0  0  0  0
   -5.5105    2.0650   19.2597 H   0  0  0  0  0  0  0  0  0  0  0  0
   -7.0405    1.5626   19.6852 H   0  0  0  0  0  0  0  0  0  0  0  0
   -4.2573    6.0556   14.2778 N   0  0  0  0  0  0  0  0  0  0  0  0
   -4.5358    6.7709   13.6060 H   0  0  0  0  0  0  0  0  0  0  0  0
   -2.8703    6.2971   14.6666 C   0  0  0  0  0  0  0  0  0  0  0  0
   -2.4541    7.7433   14.5145 C   0  0  0  0  0  0  0  0  0  0  0  0
   -2.4741    8.3761   13.2687 C   0  0  0  0  0  0  0  0  0  0  0  0
   -2.0654    9.7024   13.1759 C   0  0  0  0  0  0  0  0  0  0  0  0
   -1.6388   10.4053   14.3149 C   0  0  0  0  0  0  0  0  0  0  0  0
   -1.6307    9.7564   15.5449 C   0  0  0  0  0  0  0  0  0  0  0  0
   -2.0350    8.4340   15.6475 C   0  0  0  0  0  0  0  0  0  0  0  0
   -1.2349   11.6507   14.2601 O   0  0  0  0  0  0  0  0  0  0  0  0
   -0.6831   12.0464   12.9819 C   0  0  0  0  0  0  0  0  0  0  0  0
  4 12  1  0  0  0
  4  5  2  0  0  0
  4  8  1  0  0  0
 17 18  1  0  0  0
 17 15  1  0  0  0
 18 19  2  0  0  0
 18 23  1  0  0  0
 19 20  1  0  0  0
 20 21  2  0  0  0
 21 22  1  0  0  0
 21 24  1  0  0  0
 22 23  2  0  0  0
  9 12  2  0  0  0
 10 12  2  0  0  0
 11 12  1  0  0  0
  5  6  1  0  0  0
  6  7  2  0  0  0
  7  8  1  0  0  0
  7  1  1  0  0  0
  1  2  2  0  0  0
  1  3  2  0  0  0
  1 15  1  0  0  0
 24 25  1  0  0  0
 11 13  1  0  0  0
 11 14  1  0  0  0
 15 16  1  0  0  0
M  END
> <minimizedAffinity>
-5.81800

$$$$
