5L7H_6QG_A_1101


 29 32  0  0  0  0  0  0  0  0999 V2000
   11.2767   13.6191   16.6514 C   0  0  0  0  0  0  0  0  0  0  0  0
    6.1486   17.4227   16.4114 C   0  0  0  0  0  0  0  0  0  0  0  0
    7.9477   18.9774   16.1461 C   0  0  0  0  0  0  0  0  0  0  0  0
    9.9986   13.4506   16.1357 C   0  0  0  0  0  0  0  0  0  0  0  0
    9.4283   15.6172   16.9582 C   0  0  0  0  0  0  0  0  0  0  0  0
    7.2141   17.9050   15.6665 C   0  0  0  0  0  0  0  0  0  0  0  0
    7.5547   17.3552   14.3673 C   0  0  0  0  0  0  0  0  0  0  0  0
    6.5877   19.0622   18.1218 C   0  0  0  0  0  0  0  0  0  0  0  0
   10.6794   15.7911   17.4720 C   0  0  0  0  0  0  0  0  0  0  0  0
    9.0816   14.4818   16.2885 C   0  0  0  0  0  0  0  0  0  0  0  0
    7.7376   16.0412   13.9786 C   0  0  0  0  0  0  0  0  0  0  0  0
    7.7139   18.0522   13.1375 C   0  0  0  0  0  0  0  0  0  0  0  0
   10.8688   17.0886   18.1716 C   0  0  0  0  0  0  0  0  0  0  0  0
    9.8555   17.1930   19.3075 C   0  0  0  0  0  0  0  0  0  0  0  0
    9.7412   18.6104   19.8032 C   0  0  0  0  0  0  0  0  0  0  0  0
    7.6591   19.4929   12.8689 C   0  0  0  0  0  0  0  0  0  0  0  0
    7.4047   20.0318   20.2974 N   0  0  0  0  0  0  0  0  0  0  0  0
   11.6216   14.7865   17.3233 C   0  0  0  0  0  0  0  0  0  0  0  0
    5.8412   18.0055   17.6298 C   0  0  0  0  0  0  0  0  0  0  0  0
    7.6366   19.5471   17.3643 C   0  0  0  0  0  0  0  0  0  0  0  0
    6.2397   19.6628   19.4519 C   0  0  0  0  0  0  0  0  0  0  0  0
    7.7600   14.6742   14.4804 C   0  0  0  0  0  0  0  0  0  0  0  0
    7.9551   17.2503   12.0961 N   0  0  0  0  0  0  0  0  0  0  0  0
    7.7167   17.6148   21.1947 O   0  0  0  0  0  0  0  0  0  0  0  0
    9.1262   19.4642   22.1269 O   0  0  0  0  0  0  0  0  0  0  0  0
    7.9970   15.9847   12.6520 O   0  0  0  0  0  0  0  0  0  0  0  0
    7.7539   14.5048   15.8766 O   0  0  0  0  0  0  0  0  0  0  0  0
    8.4519   18.8498   21.0035 S   0  0  0  0  0  0  0  0  0  0  0  0
    7.0300   20.5779   21.0731 H   0  0  0  0  0  0  0  0  0  0  0  0
 23 26  1  0  0  0
 23 12  2  0  0  0
 26 11  1  0  0  0
 16 12  1  0  0  0
 12  7  1  0  0  0
 11  7  2  0  0  0
 11 22  1  0  0  0
  7  6  1  0  0  0
 22 27  1  0  0  0
  6  3  2  0  0  0
  6  2  1  0  0  0
 27 10  1  0  0  0
  4 10  2  0  0  0
  4  1  1  0  0  0
  3 20  1  0  0  0
 10  5  1  0  0  0
  2 19  2  0  0  0
  1 18  2  0  0  0
  5  9  2  0  0  0
 18  9  1  0  0  0
 20  8  2  0  0  0
  9 13  1  0  0  0
 19  8  1  0  0  0
 13 14  1  0  0  0
  8 21  1  0  0  0
 14 15  1  0  0  0
 21 17  1  0  0  0
 15 28  1  0  0  0
 17 28  1  0  0  0
 28 24  2  0  0  0
 28 25  2  0  0  0
 17 29  1  0  0  0
M  END
> <minimizedAffinity>
-14.00951

$$$$
