3T08_IPT_A_2001


 19 19  0  0  0  0  0  0  0  0999 V2000
  -14.9684  -27.6676  -26.6431 C   0  0  0  0  0  0  0  0  0  0  0  0
  -13.8579  -27.3140  -25.6534 C   0  0  0  0  0  0  0  0  0  0  0  0
  -14.2922  -26.2570  -24.7971 O   0  0  0  0  0  0  0  0  0  0  0  0
  -12.5914  -26.8719  -26.3846 C   0  0  0  0  0  0  0  0  0  0  0  0
  -11.5284  -26.7762  -25.4398 O   0  0  0  0  0  0  0  0  0  0  0  0
  -12.2078  -27.8335  -27.5124 C   0  0  0  0  0  0  0  0  0  0  0  0
  -11.6971  -29.0560  -26.9494 O   0  0  0  0  0  0  0  0  0  0  0  0
  -13.4422  -28.0911  -28.3918 C   0  0  0  0  0  0  0  0  0  0  0  0
  -14.4841  -28.6306  -27.5785 O   0  0  0  0  0  0  0  0  0  0  0  0
  -14.4893  -25.4702  -25.3291 H   0  0  0  0  0  0  0  0  0  0  0  0
  -11.3723  -27.6458  -25.0395 H   0  0  0  0  0  0  0  0  0  0  0  0
  -12.3770  -29.4632  -26.3901 H   0  0  0  0  0  0  0  0  0  0  0  0
  -13.2227  -29.0303  -29.5728 C   0  0  0  0  0  0  0  0  0  0  0  0
  -11.8412  -29.0182  -29.9608 O   0  0  0  0  0  0  0  0  0  0  0  0
  -11.5864  -28.1192  -30.2213 H   0  0  0  0  0  0  0  0  0  0  0  0
  -16.3272  -28.3905  -25.8017 S   0  0  0  0  0  0  0  0  0  0  0  0
  -17.7243  -27.8646  -26.7611 C   0  0  0  0  0  0  0  0  0  0  0  0
  -17.8989  -28.7170  -28.0196 C   0  0  0  0  0  0  0  0  0  0  0  0
  -18.9750  -27.9458  -25.8907 C   0  0  0  0  0  0  0  0  0  0  0  0
  1  2  1  0  0  0
  1  9  1  0  0  0
  1 16  1  0  0  0
  2  3  1  0  0  0
  2  4  1  0  0  0
  4  5  1  0  0  0
  4  6  1  0  0  0
  6  7  1  0  0  0
  6  8  1  0  0  0
  8  9  1  0  0  0
  8 13  1  0  0  0
 13 14  1  0  0  0
 16 17  1  0  0  0
 17 18  1  0  0  0
 17 19  1  0  0  0
  3 10  1  0  0  0
  5 11  1  0  0  0
  7 12  1  0  0  0
 14 15  1  0  0  0
M  END
> <minimizedAffinity>
-7.49258

$$$$
3T08_IPT_A_2001


 19 19  0  0  0  0  0  0  0  0999 V2000
  -13.5319  -27.5748  -25.9461 C   0  0  0  0  0  0  0  0  0  0  0  0
  -13.8676  -27.7604  -27.4262 C   0  0  0  0  0  0  0  0  0  0  0  0
  -15.2375  -28.1383  -27.5673 O   0  0  0  0  0  0  0  0  0  0  0  0
  -12.9879  -28.8381  -28.0576 C   0  0  0  0  0  0  0  0  0  0  0  0
  -13.1769  -28.8123  -29.4702 O   0  0  0  0  0  0  0  0  0  0  0  0
  -11.5065  -28.6472  -27.7215 C   0  0  0  0  0  0  0  0  0  0  0  0
  -10.9902  -27.5167  -28.4480 O   0  0  0  0  0  0  0  0  0  0  0  0
  -11.3585  -28.4562  -26.2033 C   0  0  0  0  0  0  0  0  0  0  0  0
  -12.1338  -27.3266  -25.8023 O   0  0  0  0  0  0  0  0  0  0  0  0
  -15.3890  -28.9810  -27.1116 H   0  0  0  0  0  0  0  0  0  0  0  0
  -12.9097  -27.9465  -29.8164 H   0  0  0  0  0  0  0  0  0  0  0  0
  -11.4862  -26.7203  -28.2019 H   0  0  0  0  0  0  0  0  0  0  0  0
   -9.9319  -28.2591  -25.7022 C   0  0  0  0  0  0  0  0  0  0  0  0
   -9.9382  -27.4938  -24.4883 O   0  0  0  0  0  0  0  0  0  0  0  0
  -10.3363  -26.6253  -24.6558 H   0  0  0  0  0  0  0  0  0  0  0  0
  -14.3813  -26.1835  -25.2983 S   0  0  0  0  0  0  0  0  0  0  0  0
  -15.7161  -26.9131  -24.3844 C   0  0  0  0  0  0  0  0  0  0  0  0
  -15.8635  -26.2820  -22.9984 C   0  0  0  0  0  0  0  0  0  0  0  0
  -17.0061  -26.7435  -25.1816 C   0  0  0  0  0  0  0  0  0  0  0  0
  1  2  1  0  0  0
  1  9  1  0  0  0
  1 16  1  0  0  0
  2  3  1  0  0  0
  2  4  1  0  0  0
  4  5  1  0  0  0
  4  6  1  0  0  0
  6  7  1  0  0  0
  6  8  1  0  0  0
  8  9  1  0  0  0
  8 13  1  0  0  0
 13 14  1  0  0  0
 16 17  1  0  0  0
 17 18  1  0  0  0
 17 19  1  0  0  0
  3 10  1  0  0  0
  5 11  1  0  0  0
  7 12  1  0  0  0
 14 15  1  0  0  0
M  END
> <minimizedAffinity>
-6.38174

$$$$
3T08_IPT_A_2001


 19 19  0  0  0  0  0  0  0  0999 V2000
  -14.9586  -28.0987  -26.3660 C   0  0  0  0  0  0  0  0  0  0  0  0
  -15.1034  -28.0973  -27.8881 C   0  0  0  0  0  0  0  0  0  0  0  0
  -16.3198  -28.7472  -28.2585 O   0  0  0  0  0  0  0  0  0  0  0  0
  -13.9324  -28.8203  -28.5515 C   0  0  0  0  0  0  0  0  0  0  0  0
  -13.9937  -28.5946  -29.9576 O   0  0  0  0  0  0  0  0  0  0  0  0
  -12.5800  -28.3578  -28.0029 C   0  0  0  0  0  0  0  0  0  0  0  0
  -12.2941  -27.0313  -28.4836 O   0  0  0  0  0  0  0  0  0  0  0  0
  -12.6212  -28.4034  -26.4668 C   0  0  0  0  0  0  0  0  0  0  0  0
  -13.6834  -27.5670  -26.0083 O   0  0  0  0  0  0  0  0  0  0  0  0
  -16.3000  -29.6681  -27.9543 H   0  0  0  0  0  0  0  0  0  0  0  0
  -13.9174  -27.6442  -30.1361 H   0  0  0  0  0  0  0  0  0  0  0  0
  -12.9908  -26.4238  -28.1898 H   0  0  0  0  0  0  0  0  0  0  0  0
  -11.3381  -27.9760  -25.7625 C   0  0  0  0  0  0  0  0  0  0  0  0
  -11.4213  -26.5942  -25.3844 O   0  0  0  0  0  0  0  0  0  0  0  0
  -11.5424  -26.0488  -26.1774 H   0  0  0  0  0  0  0  0  0  0  0  0
  -16.1789  -27.0711  -25.6368 S   0  0  0  0  0  0  0  0  0  0  0  0
  -15.3581  -26.4216  -24.2038 C   0  0  0  0  0  0  0  0  0  0  0  0
  -14.8729  -24.9885  -24.4314 C   0  0  0  0  0  0  0  0  0  0  0  0
  -16.3224  -26.4710  -23.0223 C   0  0  0  0  0  0  0  0  0  0  0  0
  1  2  1  0  0  0
  1  9  1  0  0  0
  1 16  1  0  0  0
  2  3  1  0  0  0
  2  4  1  0  0  0
  4  5  1  0  0  0
  4  6  1  0  0  0
  6  7  1  0  0  0
  6  8  1  0  0  0
  8  9  1  0  0  0
  8 13  1  0  0  0
 13 14  1  0  0  0
 16 17  1  0  0  0
 17 18  1  0  0  0
 17 19  1  0  0  0
  3 10  1  0  0  0
  5 11  1  0  0  0
  7 12  1  0  0  0
 14 15  1  0  0  0
M  END
> <minimizedAffinity>
-6.32168

$$$$
3T08_IPT_A_2001


 19 19  0  0  0  0  0  0  0  0999 V2000
  -16.7644  -27.7417  -26.1278 C   0  0  0  0  0  0  0  0  0  0  0  0
  -16.2918  -26.9966  -24.8791 C   0  0  0  0  0  0  0  0  0  0  0  0
  -17.3331  -26.1437  -24.4021 O   0  0  0  0  0  0  0  0  0  0  0  0
  -15.0557  -26.1505  -25.1798 C   0  0  0  0  0  0  0  0  0  0  0  0
  -14.5248  -25.6643  -23.9495 O   0  0  0  0  0  0  0  0  0  0  0  0
  -13.9854  -26.9379  -25.9401 C   0  0  0  0  0  0  0  0  0  0  0  0
  -13.3663  -27.8881  -25.0533 O   0  0  0  0  0  0  0  0  0  0  0  0
  -14.6382  -27.6347  -27.1449 C   0  0  0  0  0  0  0  0  0  0  0  0
  -15.6797  -28.4906  -26.6748 O   0  0  0  0  0  0  0  0  0  0  0  0
  -17.5526  -25.4893  -25.0836 H   0  0  0  0  0  0  0  0  0  0  0  0
  -14.2640  -26.4136  -23.3914 H   0  0  0  0  0  0  0  0  0  0  0  0
  -14.0392  -28.4975  -24.7116 H   0  0  0  0  0  0  0  0  0  0  0  0
  -13.6971  -28.4605  -28.0153 C   0  0  0  0  0  0  0  0  0  0  0  0
  -13.2288  -29.6040  -27.2857 O   0  0  0  0  0  0  0  0  0  0  0  0
  -12.7501  -29.3094  -26.4952 H   0  0  0  0  0  0  0  0  0  0  0  0
  -18.0328  -28.8806  -25.7144 S   0  0  0  0  0  0  0  0  0  0  0  0
  -19.1162  -28.8076  -27.1179 C   0  0  0  0  0  0  0  0  0  0  0  0
  -18.3655  -29.0673  -28.4256 C   0  0  0  0  0  0  0  0  0  0  0  0
  -20.2270  -29.8374  -26.9335 C   0  0  0  0  0  0  0  0  0  0  0  0
  1  2  1  0  0  0
  1  9  1  0  0  0
  1 16  1  0  0  0
  2  3  1  0  0  0
  2  4  1  0  0  0
  4  5  1  0  0  0
  4  6  1  0  0  0
  6  7  1  0  0  0
  6  8  1  0  0  0
  8  9  1  0  0  0
  8 13  1  0  0  0
 13 14  1  0  0  0
 16 17  1  0  0  0
 17 18  1  0  0  0
 17 19  1  0  0  0
  3 10  1  0  0  0
  5 11  1  0  0  0
  7 12  1  0  0  0
 14 15  1  0  0  0
M  END
> <minimizedAffinity>
-5.96153

$$$$
3T08_IPT_A_2001


 19 19  0  0  0  0  0  0  0  0999 V2000
  -14.4071  -27.5042  -26.0625 C   0  0  0  0  0  0  0  0  0  0  0  0
  -15.7094  -28.1735  -26.5027 C   0  0  0  0  0  0  0  0  0  0  0  0
  -15.6230  -28.5396  -27.8802 O   0  0  0  0  0  0  0  0  0  0  0  0
  -16.9002  -27.2356  -26.3121 C   0  0  0  0  0  0  0  0  0  0  0  0
  -18.1014  -27.9752  -26.5165 O   0  0  0  0  0  0  0  0  0  0  0  0
  -16.9112  -26.5873  -24.9252 C   0  0  0  0  0  0  0  0  0  0  0  0
  -17.2711  -27.5707  -23.9374 O   0  0  0  0  0  0  0  0  0  0  0  0
  -15.5244  -25.9868  -24.6427 C   0  0  0  0  0  0  0  0  0  0  0  0
  -14.5466  -27.0236  -24.7259 O   0  0  0  0  0  0  0  0  0  0  0  0
  -15.4913  -27.7436  -28.4187 H   0  0  0  0  0  0  0  0  0  0  0  0
  -18.1567  -28.6894  -25.8625 H   0  0  0  0  0  0  0  0  0  0  0  0
  -16.6275  -28.2961  -23.9538 H   0  0  0  0  0  0  0  0  0  0  0  0
  -15.3718  -25.2928  -23.2935 C   0  0  0  0  0  0  0  0  0  0  0  0
  -15.2760  -26.2691  -22.2462 O   0  0  0  0  0  0  0  0  0  0  0  0
  -16.0813  -26.8096  -22.2334 H   0  0  0  0  0  0  0  0  0  0  0  0
  -13.0927  -28.6658  -26.0680 S   0  0  0  0  0  0  0  0  0  0  0  0
  -11.7538  -27.7592  -26.7990 C   0  0  0  0  0  0  0  0  0  0  0  0
  -10.4009  -28.4059  -26.4951 C   0  0  0  0  0  0  0  0  0  0  0  0
  -11.9771  -27.6859  -28.3067 C   0  0  0  0  0  0  0  0  0  0  0  0
  1  2  1  0  0  0
  1  9  1  0  0  0
  1 16  1  0  0  0
  2  3  1  0  0  0
  2  4  1  0  0  0
  4  5  1  0  0  0
  4  6  1  0  0  0
  6  7  1  0  0  0
  6  8  1  0  0  0
  8  9  1  0  0  0
  8 13  1  0  0  0
 13 14  1  0  0  0
 16 17  1  0  0  0
 17 18  1  0  0  0
 17 19  1  0  0  0
  3 10  1  0  0  0
  5 11  1  0  0  0
  7 12  1  0  0  0
 14 15  1  0  0  0
M  END
> <minimizedAffinity>
-5.80229

$$$$
3T08_IPT_A_2001


 19 19  0  0  0  0  0  0  0  0999 V2000
  -17.3296  -26.2748  -23.4070 C   0  0  0  0  0  0  0  0  0  0  0  0
  -16.0095  -25.5383  -23.1774 C   0  0  0  0  0  0  0  0  0  0  0  0
  -15.1966  -26.2764  -22.2644 O   0  0  0  0  0  0  0  0  0  0  0  0
  -16.2522  -24.1413  -22.6083 C   0  0  0  0  0  0  0  0  0  0  0  0
  -15.0228  -23.4201  -22.6283 O   0  0  0  0  0  0  0  0  0  0  0  0
  -17.3240  -23.3758  -23.3887 C   0  0  0  0  0  0  0  0  0  0  0  0
  -16.7972  -22.9813  -24.6690 O   0  0  0  0  0  0  0  0  0  0  0  0
  -18.5654  -24.2695  -23.5418 C   0  0  0  0  0  0  0  0  0  0  0  0
  -18.1892  -25.4712  -24.2145 O   0  0  0  0  0  0  0  0  0  0  0  0
  -15.6552  -26.3541  -21.4132 H   0  0  0  0  0  0  0  0  0  0  0  0
  -14.7119  -23.3365  -23.5433 H   0  0  0  0  0  0  0  0  0  0  0  0
  -16.5319  -23.7706  -25.1666 H   0  0  0  0  0  0  0  0  0  0  0  0
  -19.7348  -23.6456  -24.2957 C   0  0  0  0  0  0  0  0  0  0  0  0
  -19.4072  -22.3050  -24.6892 O   0  0  0  0  0  0  0  0  0  0  0  0
  -19.2210  -21.7728  -23.9000 H   0  0  0  0  0  0  0  0  0  0  0  0
  -17.0481  -27.7747  -24.2717 S   0  0  0  0  0  0  0  0  0  0  0  0
  -16.9315  -27.2514  -25.9634 C   0  0  0  0  0  0  0  0  0  0  0  0
  -15.5177  -27.4402  -26.5172 C   0  0  0  0  0  0  0  0  0  0  0  0
  -17.9342  -28.0481  -26.7930 C   0  0  0  0  0  0  0  0  0  0  0  0
  1  2  1  0  0  0
  1  9  1  0  0  0
  1 16  1  0  0  0
  2  3  1  0  0  0
  2  4  1  0  0  0
  4  5  1  0  0  0
  4  6  1  0  0  0
  6  7  1  0  0  0
  6  8  1  0  0  0
  8  9  1  0  0  0
  8 13  1  0  0  0
 13 14  1  0  0  0
 16 17  1  0  0  0
 17 18  1  0  0  0
 17 19  1  0  0  0
  3 10  1  0  0  0
  5 11  1  0  0  0
  7 12  1  0  0  0
 14 15  1  0  0  0
M  END
> <minimizedAffinity>
-5.53252

$$$$
3T08_IPT_A_2001


 19 19  0  0  0  0  0  0  0  0999 V2000
  -13.2034  -27.4383  -27.5308 C   0  0  0  0  0  0  0  0  0  0  0  0
  -14.0886  -28.4321  -28.2835 C   0  0  0  0  0  0  0  0  0  0  0  0
  -13.7932  -28.3812  -29.6797 O   0  0  0  0  0  0  0  0  0  0  0  0
  -15.5687  -28.1143  -28.0774 C   0  0  0  0  0  0  0  0  0  0  0  0
  -16.3440  -29.1893  -28.6019 O   0  0  0  0  0  0  0  0  0  0  0  0
  -15.9130  -27.8879  -26.6029 C   0  0  0  0  0  0  0  0  0  0  0  0
  -15.8790  -29.1451  -25.9024 O   0  0  0  0  0  0  0  0  0  0  0  0
  -14.9150  -26.8830  -26.0048 C   0  0  0  0  0  0  0  0  0  0  0  0
  -13.5926  -27.3984  -26.1582 O   0  0  0  0  0  0  0  0  0  0  0  0
  -13.9782  -27.4908  -30.0171 H   0  0  0  0  0  0  0  0  0  0  0  0
  -16.1290  -30.0059  -28.1247 H   0  0  0  0  0  0  0  0  0  0  0  0
  -14.9925  -29.5320  -25.9753 H   0  0  0  0  0  0  0  0  0  0  0  0
  -15.1279  -26.5426  -24.5337 C   0  0  0  0  0  0  0  0  0  0  0  0
  -16.4009  -27.0375  -24.0935 O   0  0  0  0  0  0  0  0  0  0  0  0
  -17.1062  -26.6266  -24.6174 H   0  0  0  0  0  0  0  0  0  0  0  0
  -11.5271  -27.9519  -27.5862 S   0  0  0  0  0  0  0  0  0  0  0  0
  -11.1798  -28.3842  -25.9005 C   0  0  0  0  0  0  0  0  0  0  0  0
  -11.8734  -29.6868  -25.4966 C   0  0  0  0  0  0  0  0  0  0  0  0
   -9.6692  -28.5154  -25.7295 C   0  0  0  0  0  0  0  0  0  0  0  0
  1  2  1  0  0  0
  1  9  1  0  0  0
  1 16  1  0  0  0
  2  3  1  0  0  0
  2  4  1  0  0  0
  4  5  1  0  0  0
  4  6  1  0  0  0
  6  7  1  0  0  0
  6  8  1  0  0  0
  8  9  1  0  0  0
  8 13  1  0  0  0
 13 14  1  0  0  0
 16 17  1  0  0  0
 17 18  1  0  0  0
 17 19  1  0  0  0
  3 10  1  0  0  0
  5 11  1  0  0  0
  7 12  1  0  0  0
 14 15  1  0  0  0
M  END
> <minimizedAffinity>
-5.44515

$$$$
3T08_IPT_A_2001


 19 19  0  0  0  0  0  0  0  0999 V2000
  -15.9882  -26.2503  -24.6602 C   0  0  0  0  0  0  0  0  0  0  0  0
  -14.9142  -27.1658  -25.2486 C   0  0  0  0  0  0  0  0  0  0  0  0
  -13.6786  -26.4575  -25.3513 O   0  0  0  0  0  0  0  0  0  0  0  0
  -15.3175  -27.6642  -26.6353 C   0  0  0  0  0  0  0  0  0  0  0  0
  -14.4045  -28.6819  -27.0382 O   0  0  0  0  0  0  0  0  0  0  0  0
  -16.7507  -28.2017  -26.6639 C   0  0  0  0  0  0  0  0  0  0  0  0
  -16.8047  -29.4642  -25.9742 O   0  0  0  0  0  0  0  0  0  0  0  0
  -17.6862  -27.1668  -26.0179 C   0  0  0  0  0  0  0  0  0  0  0  0
  -17.2486  -26.9194  -24.6817 O   0  0  0  0  0  0  0  0  0  0  0  0
  -13.7899  -25.6973  -25.9434 H   0  0  0  0  0  0  0  0  0  0  0  0
  -14.4495  -29.4225  -26.4134 H   0  0  0  0  0  0  0  0  0  0  0  0
  -16.5195  -29.3431  -25.0551 H   0  0  0  0  0  0  0  0  0  0  0  0
  -19.1610  -27.5515  -25.9745 C   0  0  0  0  0  0  0  0  0  0  0  0
  -19.4786  -28.4085  -27.0809 O   0  0  0  0  0  0  0  0  0  0  0  0
  -19.2985  -27.9429  -27.9126 H   0  0  0  0  0  0  0  0  0  0  0  0
  -15.6206  -25.8773  -22.9861 S   0  0  0  0  0  0  0  0  0  0  0  0
  -15.6484  -24.1033  -22.9506 C   0  0  0  0  0  0  0  0  0  0  0  0
  -15.0193  -23.5029  -24.2095 C   0  0  0  0  0  0  0  0  0  0  0  0
  -17.0951  -23.6386  -22.8104 C   0  0  0  0  0  0  0  0  0  0  0  0
  1  2  1  0  0  0
  1  9  1  0  0  0
  1 16  1  0  0  0
  2  3  1  0  0  0
  2  4  1  0  0  0
  4  5  1  0  0  0
  4  6  1  0  0  0
  6  7  1  0  0  0
  6  8  1  0  0  0
  8  9  1  0  0  0
  8 13  1  0  0  0
 13 14  1  0  0  0
 16 17  1  0  0  0
 17 18  1  0  0  0
 17 19  1  0  0  0
  3 10  1  0  0  0
  5 11  1  0  0  0
  7 12  1  0  0  0
 14 15  1  0  0  0
M  END
> <minimizedAffinity>
-5.43576

$$$$
3T08_IPT_A_2001


 19 19  0  0  0  0  0  0  0  0999 V2000
  -16.6919  -26.6581  -24.6695 C   0  0  0  0  0  0  0  0  0  0  0  0
  -15.1904  -26.7448  -24.3943 C   0  0  0  0  0  0  0  0  0  0  0  0
  -14.7711  -25.6079  -23.6388 O   0  0  0  0  0  0  0  0  0  0  0  0
  -14.3955  -26.7952  -25.6980 C   0  0  0  0  0  0  0  0  0  0  0  0
  -13.0377  -27.1038  -25.3934 O   0  0  0  0  0  0  0  0  0  0  0  0
  -14.9606  -27.8229  -26.6820 C   0  0  0  0  0  0  0  0  0  0  0  0
  -14.6621  -29.1513  -26.2145 O   0  0  0  0  0  0  0  0  0  0  0  0
  -16.4757  -27.6021  -26.8209 C   0  0  0  0  0  0  0  0  0  0  0  0
  -17.0803  -27.7255  -25.5336 O   0  0  0  0  0  0  0  0  0  0  0  0
  -14.9422  -24.8003  -24.1480 H   0  0  0  0  0  0  0  0  0  0  0  0
  -12.9920  -27.9726  -24.9643 H   0  0  0  0  0  0  0  0  0  0  0  0
  -15.0601  -29.2833  -25.3398 H   0  0  0  0  0  0  0  0  0  0  0  0
  -17.1921  -28.5482  -27.7784 C   0  0  0  0  0  0  0  0  0  0  0  0
  -16.2771  -29.0242  -28.7761 O   0  0  0  0  0  0  0  0  0  0  0  0
  -15.9271  -28.2722  -29.2790 H   0  0  0  0  0  0  0  0  0  0  0  0
  -17.5963  -26.8357  -23.1770 S   0  0  0  0  0  0  0  0  0  0  0  0
  -18.8179  -25.5533  -23.2884 C   0  0  0  0  0  0  0  0  0  0  0  0
  -19.6597  -25.4623  -22.0140 C   0  0  0  0  0  0  0  0  0  0  0  0
  -18.1124  -24.2260  -23.5509 C   0  0  0  0  0  0  0  0  0  0  0  0
  1  2  1  0  0  0
  1  9  1  0  0  0
  1 16  1  0  0  0
  2  3  1  0  0  0
  2  4  1  0  0  0
  4  5  1  0  0  0
  4  6  1  0  0  0
  6  7  1  0  0  0
  6  8  1  0  0  0
  8  9  1  0  0  0
  8 13  1  0  0  0
 13 14  1  0  0  0
 16 17  1  0  0  0
 17 18  1  0  0  0
 17 19  1  0  0  0
  3 10  1  0  0  0
  5 11  1  0  0  0
  7 12  1  0  0  0
 14 15  1  0  0  0
M  END
> <minimizedAffinity>
-5.30484

$$$$
3T08_IPT_A_2001


 19 19  0  0  0  0  0  0  0  0999 V2000
  -14.6367  -27.9695  -26.0488 C   0  0  0  0  0  0  0  0  0  0  0  0
  -14.6906  -26.5486  -25.4866 C   0  0  0  0  0  0  0  0  0  0  0  0
  -13.3810  -26.1325  -25.0983 O   0  0  0  0  0  0  0  0  0  0  0  0
  -15.6156  -26.4733  -24.2731 C   0  0  0  0  0  0  0  0  0  0  0  0
  -15.8098  -25.1032  -23.9311 O   0  0  0  0  0  0  0  0  0  0  0  0
  -16.9657  -27.1476  -24.5307 C   0  0  0  0  0  0  0  0  0  0  0  0
  -17.7458  -26.3354  -25.4274 O   0  0  0  0  0  0  0  0  0  0  0  0
  -16.7217  -28.5506  -25.1100 C   0  0  0  0  0  0  0  0  0  0  0  0
  -15.9622  -28.4280  -26.3125 O   0  0  0  0  0  0  0  0  0  0  0  0
  -13.0464  -26.7229  -24.4051 H   0  0  0  0  0  0  0  0  0  0  0  0
  -16.2285  -24.6408  -24.6740 H   0  0  0  0  0  0  0  0  0  0  0  0
  -17.2686  -26.2289  -26.2652 H   0  0  0  0  0  0  0  0  0  0  0  0
  -17.9760  -29.3615  -25.4172 C   0  0  0  0  0  0  0  0  0  0  0  0
  -17.8574  -29.9818  -26.7058 O   0  0  0  0  0  0  0  0  0  0  0  0
  -17.7498  -29.2979  -27.3852 H   0  0  0  0  0  0  0  0  0  0  0  0
  -13.7619  -27.9905  -27.5691 S   0  0  0  0  0  0  0  0  0  0  0  0
  -12.2467  -28.8154  -27.1533 C   0  0  0  0  0  0  0  0  0  0  0  0
  -11.0396  -27.8863  -27.2969 C   0  0  0  0  0  0  0  0  0  0  0  0
  -12.3474  -29.3326  -25.7213 C   0  0  0  0  0  0  0  0  0  0  0  0
  1  2  1  0  0  0
  1  9  1  0  0  0
  1 16  1  0  0  0
  2  3  1  0  0  0
  2  4  1  0  0  0
  4  5  1  0  0  0
  4  6  1  0  0  0
  6  7  1  0  0  0
  6  8  1  0  0  0
  8  9  1  0  0  0
  8 13  1  0  0  0
 13 14  1  0  0  0
 16 17  1  0  0  0
 17 18  1  0  0  0
 17 19  1  0  0  0
  3 10  1  0  0  0
  5 11  1  0  0  0
  7 12  1  0  0  0
 14 15  1  0  0  0
M  END
> <minimizedAffinity>
-5.28980

$$$$
