5J86_6GW_A_301


 34 37  0  0  0  0  0  0  0  0999 V2000
  -33.1547  -12.4231   22.8574 C   0  0  0  0  0  0  0  0  0  0  0  0
  -31.8536  -12.0768   23.2583 C   0  0  0  0  0  0  0  0  0  0  0  0
  -34.2645  -12.0134   23.6228 C   0  0  0  0  0  0  0  0  0  0  0  0
  -31.6731  -11.3440   24.4345 C   0  0  0  0  0  0  0  0  0  0  0  0
  -32.7765  -10.9602   25.2225 C   0  0  0  0  0  0  0  0  0  0  0  0
  -34.0592  -11.3101   24.8121 C   0  0  0  0  0  0  0  0  0  0  0  0
  -30.4273  -11.0258   24.8521 O   0  0  0  0  0  0  0  0  0  0  0  0
  -33.3523  -13.0981   21.7065 O   0  0  0  0  0  0  0  0  0  0  0  0
  -29.6835  -11.2741   24.3392 H   0  0  0  0  0  0  0  0  0  0  0  0
  -32.6185  -13.3734   21.1929 H   0  0  0  0  0  0  0  0  0  0  0  0
  -32.6246  -10.0969   26.4229 C   0  0  0  0  0  0  0  0  0  0  0  0
  -32.8386   -8.3555   27.7644 C   0  0  0  0  0  0  0  0  0  0  0  0
  -31.9615  -10.3793   27.5162 N   0  0  0  0  0  0  0  0  0  0  0  0
  -33.1760   -8.8227   26.5476 N   0  0  0  0  0  0  0  0  0  0  0  0
  -32.0974   -9.2960   28.3814 N   0  0  0  0  0  0  0  0  0  0  0  0
  -33.1578   -7.2731   28.2180 O   0  0  0  0  0  0  0  0  0  0  0  0
  -31.7175   -9.2294   29.2872 H   0  0  0  0  0  0  0  0  0  0  0  0
  -33.1909   -7.3694   24.6099 C   0  0  0  0  0  0  0  0  0  0  0  0
  -33.9112   -8.1032   25.5632 C   0  0  0  0  0  0  0  0  0  0  0  0
  -35.2471   -6.6898   23.5400 C   0  0  0  0  0  0  0  0  0  0  0  0
  -36.1543   -8.8716   26.4891 C   0  0  0  0  0  0  0  0  0  0  0  0
  -35.3178   -8.1142   25.4936 C   0  0  0  0  0  0  0  0  0  0  0  0
  -35.9813   -7.4156   24.4768 C   0  0  0  0  0  0  0  0  0  0  0  0
  -33.8520   -6.6723   23.6012 C   0  0  0  0  0  0  0  0  0  0  0  0
  -35.6679  -12.4216   23.3761 C   0  0  0  0  0  0  0  0  0  0  0  0
  -35.1825  -14.5574   24.5258 C   0  0  0  0  0  0  0  0  0  0  0  0
  -36.1095  -13.6146   23.8757 N   0  0  0  0  0  0  0  0  0  0  0  0
  -36.4353  -11.6363   22.8568 O   0  0  0  0  0  0  0  0  0  0  0  0
  -37.5326  -13.9997   23.8143 C   0  0  0  0  0  0  0  0  0  0  0  0
  -39.1982  -14.7887   27.0719 C   0  0  0  0  0  0  0  0  0  0  0  0
  -38.6577  -15.0645   25.8246 C   0  0  0  0  0  0  0  0  0  0  0  0
  -38.1868  -13.9935   25.1743 C   0  0  0  0  0  0  0  0  0  0  0  0
  -38.4238  -12.5515   26.1487 S   0  0  0  0  0  0  0  0  0  0  0  0
  -39.1810  -13.4949   27.4295 C   0  0  0  0  0  0  0  0  0  0  0  0
  8  1  1  0  0  0
 28 25  2  0  0  0
  1  2  2  0  0  0
  1  3  1  0  0  0
 25  3  1  0  0  0
 25 27  1  0  0  0
  2  4  1  0  0  0
 29 27  1  0  0  0
 29 32  1  0  0  0
  3  6  2  0  0  0
 27 26  1  0  0  0
 24 20  2  0  0  0
 24 18  1  0  0  0
 20 23  1  0  0  0
  4  7  1  0  0  0
  4  5  2  0  0  0
 18 19  2  0  0  0
 23 22  2  0  0  0
 32 31  2  0  0  0
 32 33  1  0  0  0
  6  5  1  0  0  0
 31 30  1  0  0  0
  5 11  1  0  0  0
 19 22  1  0  0  0
 19 14  1  0  0  0
 22 21  1  0  0  0
 33 34  1  0  0  0
 30 34  2  0  0  0
 11 14  1  0  0  0
 11 13  2  0  0  0
 14 12  1  0  0  0
 13 15  1  0  0  0
 12 16  2  0  0  0
 12 15  1  0  0  0
  7  9  1  0  0  0
  8 10  1  0  0  0
 15 17  1  0  0  0
M  END
> <minimizedAffinity>
-10.98195

$$$$
5J86_6GW_A_301


 34 37  0  0  0  0  0  0  0  0999 V2000
  -33.2274   -9.3551   27.1354 C   0  0  0  0  0  0  0  0  0  0  0  0
  -32.0418  -10.1062   27.0761 C   0  0  0  0  0  0  0  0  0  0  0  0
  -34.1006   -9.3213   26.0301 C   0  0  0  0  0  0  0  0  0  0  0  0
  -31.7285  -10.7974   25.9025 C   0  0  0  0  0  0  0  0  0  0  0  0
  -32.5807  -10.7404   24.7817 C   0  0  0  0  0  0  0  0  0  0  0  0
  -33.7519   -9.9927   24.8559 C   0  0  0  0  0  0  0  0  0  0  0  0
  -30.5782  -11.5023   25.8159 O   0  0  0  0  0  0  0  0  0  0  0  0
  -33.5657   -8.7109   28.2711 O   0  0  0  0  0  0  0  0  0  0  0  0
  -30.0012  -11.5497   26.5527 H   0  0  0  0  0  0  0  0  0  0  0  0
  -32.9894   -8.7295   29.0097 H   0  0  0  0  0  0  0  0  0  0  0  0
  -32.3258  -11.5430   23.5570 C   0  0  0  0  0  0  0  0  0  0  0  0
  -32.6990  -12.8851   21.8432 C   0  0  0  0  0  0  0  0  0  0  0  0
  -31.1903  -11.6599   22.9152 N   0  0  0  0  0  0  0  0  0  0  0  0
  -33.2896  -12.3151   22.9104 N   0  0  0  0  0  0  0  0  0  0  0  0
  -31.4104  -12.4931   21.8207 N   0  0  0  0  0  0  0  0  0  0  0  0
  -33.2457  -13.6203   21.0432 O   0  0  0  0  0  0  0  0  0  0  0  0
  -30.7401  -12.7508   21.1473 H   0  0  0  0  0  0  0  0  0  0  0  0
  -35.5993  -11.5858   22.9208 C   0  0  0  0  0  0  0  0  0  0  0  0
  -34.6377  -12.5262   23.3170 C   0  0  0  0  0  0  0  0  0  0  0  0
  -37.3361  -12.8630   24.0101 C   0  0  0  0  0  0  0  0  0  0  0  0
  -34.0674  -14.6829   24.5428 C   0  0  0  0  0  0  0  0  0  0  0  0
  -35.0466  -13.6404   24.0753 C   0  0  0  0  0  0  0  0  0  0  0  0
  -36.3958  -13.8107   24.4113 C   0  0  0  0  0  0  0  0  0  0  0  0
  -36.9402  -11.7545   23.2584 C   0  0  0  0  0  0  0  0  0  0  0  0
  -35.3090   -8.4694   25.9238 C   0  0  0  0  0  0  0  0  0  0  0  0
  -33.9227   -6.7512   24.8080 C   0  0  0  0  0  0  0  0  0  0  0  0
  -35.2204   -7.2702   25.2742 N   0  0  0  0  0  0  0  0  0  0  0  0
  -36.3811   -8.9059   26.2916 O   0  0  0  0  0  0  0  0  0  0  0  0
  -36.4172   -6.4571   24.9846 C   0  0  0  0  0  0  0  0  0  0  0  0
  -37.5727   -7.2441   21.5126 C   0  0  0  0  0  0  0  0  0  0  0  0
  -37.3221   -7.4963   22.8534 C   0  0  0  0  0  0  0  0  0  0  0  0
  -36.7778   -6.4705   23.5191 C   0  0  0  0  0  0  0  0  0  0  0  0
  -36.5518   -5.1076   22.4347 S   0  0  0  0  0  0  0  0  0  0  0  0
  -37.2193   -6.0218   21.0846 C   0  0  0  0  0  0  0  0  0  0  0  0
  8  1  1  0  0  0
 28 25  2  0  0  0
  1  2  2  0  0  0
  1  3  1  0  0  0
 25  3  1  0  0  0
 25 27  1  0  0  0
  2  4  1  0  0  0
 29 27  1  0  0  0
 29 32  1  0  0  0
  3  6  2  0  0  0
 27 26  1  0  0  0
 24 20  2  0  0  0
 24 18  1  0  0  0
 20 23  1  0  0  0
  4  7  1  0  0  0
  4  5  2  0  0  0
 18 19  2  0  0  0
 23 22  2  0  0  0
 32 31  2  0  0  0
 32 33  1  0  0  0
  6  5  1  0  0  0
 31 30  1  0  0  0
  5 11  1  0  0  0
 19 22  1  0  0  0
 19 14  1  0  0  0
 22 21  1  0  0  0
 33 34  1  0  0  0
 30 34  2  0  0  0
 11 14  1  0  0  0
 11 13  2  0  0  0
 14 12  1  0  0  0
 13 15  1  0  0  0
 12 16  2  0  0  0
 12 15  1  0  0  0
  7  9  1  0  0  0
  8 10  1  0  0  0
 15 17  1  0  0  0
M  END
> <minimizedAffinity>
-8.76757

$$$$
5J86_6GW_A_301


 34 37  0  0  0  0  0  0  0  0999 V2000
  -33.9313   -8.2968   26.7559 C   0  0  0  0  0  0  0  0  0  0  0  0
  -33.2657   -9.4524   27.1972 C   0  0  0  0  0  0  0  0  0  0  0  0
  -34.1135   -8.0668   25.3778 C   0  0  0  0  0  0  0  0  0  0  0  0
  -32.7670  -10.3559   26.2547 C   0  0  0  0  0  0  0  0  0  0  0  0
  -32.9161  -10.1150   24.8744 C   0  0  0  0  0  0  0  0  0  0  0  0
  -33.5782   -8.9661   24.4527 C   0  0  0  0  0  0  0  0  0  0  0  0
  -32.0985  -11.4592   26.6589 O   0  0  0  0  0  0  0  0  0  0  0  0
  -34.4518   -7.4312   27.6499 O   0  0  0  0  0  0  0  0  0  0  0  0
  -31.9911  -11.6332   27.5734 H   0  0  0  0  0  0  0  0  0  0  0  0
  -34.3343   -7.5785   28.5678 H   0  0  0  0  0  0  0  0  0  0  0  0
  -32.4858  -11.1038   23.8514 C   0  0  0  0  0  0  0  0  0  0  0  0
  -32.5993  -12.7466   22.3797 C   0  0  0  0  0  0  0  0  0  0  0  0
  -31.2784  -11.2631   23.3702 N   0  0  0  0  0  0  0  0  0  0  0  0
  -33.3346  -12.0343   23.2541 N   0  0  0  0  0  0  0  0  0  0  0  0
  -31.3337  -12.2876   22.4280 N   0  0  0  0  0  0  0  0  0  0  0  0
  -33.0175  -13.6427   21.6716 O   0  0  0  0  0  0  0  0  0  0  0  0
  -30.5785  -12.6190   21.8903 H   0  0  0  0  0  0  0  0  0  0  0  0
  -35.6310  -11.2731   23.1364 C   0  0  0  0  0  0  0  0  0  0  0  0
  -34.7120  -12.2515   23.5418 C   0  0  0  0  0  0  0  0  0  0  0  0
  -37.4591  -12.5928   24.0031 C   0  0  0  0  0  0  0  0  0  0  0  0
  -34.2591  -14.4917   24.6622 C   0  0  0  0  0  0  0  0  0  0  0  0
  -35.1891  -13.4065   24.1913 C   0  0  0  0  0  0  0  0  0  0  0  0
  -36.5618  -13.5784   24.4114 C   0  0  0  0  0  0  0  0  0  0  0  0
  -36.9955  -11.4436   23.3589 C   0  0  0  0  0  0  0  0  0  0  0  0
  -34.6817   -6.8317   24.7872 C   0  0  0  0  0  0  0  0  0  0  0  0
  -36.8432   -8.0122   24.5556 C   0  0  0  0  0  0  0  0  0  0  0  0
  -36.0089   -6.8013   24.4624 N   0  0  0  0  0  0  0  0  0  0  0  0
  -33.9983   -5.8293   24.7281 O   0  0  0  0  0  0  0  0  0  0  0  0
  -36.6721   -5.5549   24.0335 C   0  0  0  0  0  0  0  0  0  0  0  0
  -38.5100   -4.5608   27.1388 C   0  0  0  0  0  0  0  0  0  0  0  0
  -37.4946   -5.1502   26.4001 C   0  0  0  0  0  0  0  0  0  0  0  0
  -37.6304   -5.0288   25.0739 C   0  0  0  0  0  0  0  0  0  0  0  0
  -39.0988   -4.1394   24.7031 S   0  0  0  0  0  0  0  0  0  0  0  0
  -39.4772   -3.9744   26.4158 C   0  0  0  0  0  0  0  0  0  0  0  0
  8  1  1  0  0  0
 28 25  2  0  0  0
  1  2  2  0  0  0
  1  3  1  0  0  0
 25  3  1  0  0  0
 25 27  1  0  0  0
  2  4  1  0  0  0
 29 27  1  0  0  0
 29 32  1  0  0  0
  3  6  2  0  0  0
 27 26  1  0  0  0
 24 20  2  0  0  0
 24 18  1  0  0  0
 20 23  1  0  0  0
  4  7  1  0  0  0
  4  5  2  0  0  0
 18 19  2  0  0  0
 23 22  2  0  0  0
 32 31  2  0  0  0
 32 33  1  0  0  0
  6  5  1  0  0  0
 31 30  1  0  0  0
  5 11  1  0  0  0
 19 22  1  0  0  0
 19 14  1  0  0  0
 22 21  1  0  0  0
 33 34  1  0  0  0
 30 34  2  0  0  0
 11 14  1  0  0  0
 11 13  2  0  0  0
 14 12  1  0  0  0
 13 15  1  0  0  0
 12 16  2  0  0  0
 12 15  1  0  0  0
  7  9  1  0  0  0
  8 10  1  0  0  0
 15 17  1  0  0  0
M  END
> <minimizedAffinity>
-8.71243

$$$$
5J86_6GW_A_301


 34 37  0  0  0  0  0  0  0  0999 V2000
  -33.2629  -11.9017   23.6664 C   0  0  0  0  0  0  0  0  0  0  0  0
  -32.5390  -10.7031   23.7791 C   0  0  0  0  0  0  0  0  0  0  0  0
  -34.4107  -12.1130   24.4558 C   0  0  0  0  0  0  0  0  0  0  0  0
  -32.9563   -9.7364   24.6982 C   0  0  0  0  0  0  0  0  0  0  0  0
  -34.0836   -9.9557   25.5148 C   0  0  0  0  0  0  0  0  0  0  0  0
  -34.7907  -11.1477   25.3912 C   0  0  0  0  0  0  0  0  0  0  0  0
  -32.2563   -8.5888   24.8418 O   0  0  0  0  0  0  0  0  0  0  0  0
  -32.8980  -12.8313   22.7597 O   0  0  0  0  0  0  0  0  0  0  0  0
  -31.5044   -8.4285   24.3062 H   0  0  0  0  0  0  0  0  0  0  0  0
  -32.1357  -12.6968   22.2316 H   0  0  0  0  0  0  0  0  0  0  0  0
  -34.6097   -8.9081   26.4286 C   0  0  0  0  0  0  0  0  0  0  0  0
  -35.7686   -7.1664   27.1363 C   0  0  0  0  0  0  0  0  0  0  0  0
  -34.3062   -8.7410   27.6913 N   0  0  0  0  0  0  0  0  0  0  0  0
  -35.5190   -7.9217   26.0500 N   0  0  0  0  0  0  0  0  0  0  0  0
  -35.0401   -7.6534   28.1593 N   0  0  0  0  0  0  0  0  0  0  0  0
  -36.5260   -6.2154   27.1755 O   0  0  0  0  0  0  0  0  0  0  0  0
  -35.0283   -7.3015   29.0787 H   0  0  0  0  0  0  0  0  0  0  0  0
  -37.1955   -8.4164   24.3733 C   0  0  0  0  0  0  0  0  0  0  0  0
  -36.0524   -7.6966   24.7492 C   0  0  0  0  0  0  0  0  0  0  0  0
  -37.2280   -7.2985   22.2323 C   0  0  0  0  0  0  0  0  0  0  0  0
  -34.2675   -5.9757   24.1730 C   0  0  0  0  0  0  0  0  0  0  0  0
  -35.4985   -6.7745   23.8401 C   0  0  0  0  0  0  0  0  0  0  0  0
  -36.0933   -6.5710   22.5883 C   0  0  0  0  0  0  0  0  0  0  0  0
  -37.7841   -8.2155   23.1268 C   0  0  0  0  0  0  0  0  0  0  0  0
  -35.1798  -13.3785   24.5207 C   0  0  0  0  0  0  0  0  0  0  0  0
  -37.2190  -12.0943   23.9624 C   0  0  0  0  0  0  0  0  0  0  0  0
  -36.5116  -13.3620   24.2142 N   0  0  0  0  0  0  0  0  0  0  0  0
  -34.5926  -14.4247   24.7100 O   0  0  0  0  0  0  0  0  0  0  0  0
  -37.2930  -14.6078   24.0927 C   0  0  0  0  0  0  0  0  0  0  0  0
  -40.7834  -14.7261   25.4388 C   0  0  0  0  0  0  0  0  0  0  0  0
  -39.7956  -14.8003   24.4678 C   0  0  0  0  0  0  0  0  0  0  0  0
  -38.5556  -14.5747   24.9187 C   0  0  0  0  0  0  0  0  0  0  0  0
  -38.5983  -14.2449   26.6433 S   0  0  0  0  0  0  0  0  0  0  0  0
  -40.3505  -14.4261   26.6735 C   0  0  0  0  0  0  0  0  0  0  0  0
  8  1  1  0  0  0
 28 25  2  0  0  0
  1  2  2  0  0  0
  1  3  1  0  0  0
 25  3  1  0  0  0
 25 27  1  0  0  0
  2  4  1  0  0  0
 29 27  1  0  0  0
 29 32  1  0  0  0
  3  6  2  0  0  0
 27 26  1  0  0  0
 24 20  2  0  0  0
 24 18  1  0  0  0
 20 23  1  0  0  0
  4  7  1  0  0  0
  4  5  2  0  0  0
 18 19  2  0  0  0
 23 22  2  0  0  0
 32 31  2  0  0  0
 32 33  1  0  0  0
  6  5  1  0  0  0
 31 30  1  0  0  0
  5 11  1  0  0  0
 19 22  1  0  0  0
 19 14  1  0  0  0
 22 21  1  0  0  0
 33 34  1  0  0  0
 30 34  2  0  0  0
 11 14  1  0  0  0
 11 13  2  0  0  0
 14 12  1  0  0  0
 13 15  1  0  0  0
 12 16  2  0  0  0
 12 15  1  0  0  0
  7  9  1  0  0  0
  8 10  1  0  0  0
 15 17  1  0  0  0
M  END
> <minimizedAffinity>
-8.57301

$$$$
5J86_6GW_A_301


 34 37  0  0  0  0  0  0  0  0999 V2000
  -34.6686   -8.9780   25.0682 C   0  0  0  0  0  0  0  0  0  0  0  0
  -33.9582   -8.0449   24.2949 C   0  0  0  0  0  0  0  0  0  0  0  0
  -36.0771   -8.9975   25.0376 C   0  0  0  0  0  0  0  0  0  0  0  0
  -34.6641   -7.1236   23.5163 C   0  0  0  0  0  0  0  0  0  0  0  0
  -36.0732   -7.1157   23.5075 C   0  0  0  0  0  0  0  0  0  0  0  0
  -36.7629   -8.0466   24.2782 C   0  0  0  0  0  0  0  0  0  0  0  0
  -33.9990   -6.1993   22.7877 O   0  0  0  0  0  0  0  0  0  0  0  0
  -34.0056   -9.8988   25.7975 O   0  0  0  0  0  0  0  0  0  0  0  0
  -33.0620   -6.1917   22.7834 H   0  0  0  0  0  0  0  0  0  0  0  0
  -33.0689   -9.8913   25.8220 H   0  0  0  0  0  0  0  0  0  0  0  0
  -36.8500   -6.2160   22.6152 C   0  0  0  0  0  0  0  0  0  0  0  0
  -38.1301   -4.5353   21.9713 C   0  0  0  0  0  0  0  0  0  0  0  0
  -36.9891   -6.3234   21.3175 N   0  0  0  0  0  0  0  0  0  0  0  0
  -37.5694   -5.1057   23.0544 N   0  0  0  0  0  0  0  0  0  0  0  0
  -37.7833   -5.2614   20.8910 N   0  0  0  0  0  0  0  0  0  0  0  0
  -38.8230   -3.5358   21.9794 O   0  0  0  0  0  0  0  0  0  0  0  0
  -38.0458   -5.0740   19.9608 H   0  0  0  0  0  0  0  0  0  0  0  0
  -38.8037   -5.2182   25.1354 C   0  0  0  0  0  0  0  0  0  0  0  0
  -37.7439   -4.6703   24.3987 C   0  0  0  0  0  0  0  0  0  0  0  0
  -38.1559   -3.9321   27.0747 C   0  0  0  0  0  0  0  0  0  0  0  0
  -35.7421   -3.1018   24.2882 C   0  0  0  0  0  0  0  0  0  0  0  0
  -36.8924   -3.7371   25.0213 C   0  0  0  0  0  0  0  0  0  0  0  0
  -37.0948   -3.3780   26.3601 C   0  0  0  0  0  0  0  0  0  0  0  0
  -39.0060   -4.8577   26.4657 C   0  0  0  0  0  0  0  0  0  0  0  0
  -36.9371   -9.8424   25.9000 C   0  0  0  0  0  0  0  0  0  0  0  0
  -37.2885  -11.3466   23.9678 C   0  0  0  0  0  0  0  0  0  0  0  0
  -37.4536  -11.0007   25.3904 N   0  0  0  0  0  0  0  0  0  0  0  0
  -37.0571   -9.5663   27.0767 O   0  0  0  0  0  0  0  0  0  0  0  0
  -38.1716  -11.9681   26.2424 C   0  0  0  0  0  0  0  0  0  0  0  0
  -39.0075  -15.2482   24.6452 C   0  0  0  0  0  0  0  0  0  0  0  0
  -39.2642  -13.9833   25.1534 C   0  0  0  0  0  0  0  0  0  0  0  0
  -38.1900  -13.3540   25.6451 C   0  0  0  0  0  0  0  0  0  0  0  0
  -36.7716  -14.3767   25.4808 S   0  0  0  0  0  0  0  0  0  0  0  0
  -37.7310  -15.6534   24.7368 C   0  0  0  0  0  0  0  0  0  0  0  0
  8  1  1  0  0  0
 28 25  2  0  0  0
  1  2  2  0  0  0
  1  3  1  0  0  0
 25  3  1  0  0  0
 25 27  1  0  0  0
  2  4  1  0  0  0
 29 27  1  0  0  0
 29 32  1  0  0  0
  3  6  2  0  0  0
 27 26  1  0  0  0
 24 20  2  0  0  0
 24 18  1  0  0  0
 20 23  1  0  0  0
  4  7  1  0  0  0
  4  5  2  0  0  0
 18 19  2  0  0  0
 23 22  2  0  0  0
 32 31  2  0  0  0
 32 33  1  0  0  0
  6  5  1  0  0  0
 31 30  1  0  0  0
  5 11  1  0  0  0
 19 22  1  0  0  0
 19 14  1  0  0  0
 22 21  1  0  0  0
 33 34  1  0  0  0
 30 34  2  0  0  0
 11 14  1  0  0  0
 11 13  2  0  0  0
 14 12  1  0  0  0
 13 15  1  0  0  0
 12 16  2  0  0  0
 12 15  1  0  0  0
  7  9  1  0  0  0
  8 10  1  0  0  0
 15 17  1  0  0  0
M  END
> <minimizedAffinity>
-8.13060

$$$$
