1UOU_CMU_A_1481


 19 20  0  0  0  0  0  0  0  0999 V2000
   -4.0301    0.9025   22.3393 Cl  0  0  0  0  0  0  0  0  0  0  0  0
   -2.5291    0.4439   23.0714 C   0  0  0  0  0  0  0  0  0  0  0  0
   -2.4965   -0.1662   24.2821 C   0  0  0  0  0  0  0  0  0  0  0  0
   -1.2625   -0.4972   24.7819 N   0  0  0  0  0  0  0  0  0  0  0  0
   -0.1054   -0.2395   24.1336 C   0  0  0  0  0  0  0  0  0  0  0  0
    0.9541   -0.5595   24.6583 O   0  0  0  0  0  0  0  0  0  0  0  0
   -0.1271    0.3718   22.9332 N   0  0  0  0  0  0  0  0  0  0  0  0
   -1.3065    0.7002   22.3875 C   0  0  0  0  0  0  0  0  0  0  0  0
   -1.3268    1.2211   21.2969 O   0  0  0  0  0  0  0  0  0  0  0  0
   -1.2179   -0.9452   25.6574 H   0  0  0  0  0  0  0  0  0  0  0  0
    0.7133    0.5748   22.4624 H   0  0  0  0  0  0  0  0  0  0  0  0
   -3.7511   -0.4497   25.1128 C   0  0  0  0  0  0  0  0  0  0  0  0
   -3.6708    0.4390   26.3119 N   0  0  0  0  0  0  0  0  0  0  0  0
   -4.2535    1.7965   26.3879 C   0  0  0  0  0  0  0  0  0  0  0  0
   -4.1422    2.2196   27.8725 C   0  0  0  0  0  0  0  0  0  0  0  0
   -3.1241    1.2468   28.5424 C   0  0  0  0  0  0  0  0  0  0  0  0
   -3.0353    0.1373   27.4953 C   0  0  0  0  0  0  0  0  0  0  0  0
   -2.4530   -1.0058   27.7033 N   0  0  0  0  0  0  0  0  0  0  0  0
   -2.4277   -1.6826   26.9888 H   0  0  0  0  0  0  0  0  0  0  0  0
  1  2  1  0  0  0
  2  3  2  0  0  0
  2  8  1  0  0  0
  3 12  1  0  0  0
  3  4  1  0  0  0
 12 13  1  0  0  0
 13 14  1  0  0  0
 13 17  1  0  0  0
 14 15  1  0  0  0
 15 16  1  0  0  0
 16 17  1  0  0  0
 17 18  2  0  0  0
  4  5  1  0  0  0
  5  6  2  0  0  0
  5  7  1  0  0  0
  7  8  1  0  0  0
  8  9  2  0  0  0
 18 19  1  0  0  0
  4 10  1  0  0  0
  7 11  1  0  0  0
M  END
> <minimizedAffinity>
-8.02061

$$$$
1UOU_CMU_A_1481


 19 20  0  0  0  0  0  0  0  0999 V2000
   -5.0909    4.5260   30.5202 Cl  0  0  0  0  0  0  0  0  0  0  0  0
   -3.7915    3.3811   30.5398 C   0  0  0  0  0  0  0  0  0  0  0  0
   -3.3653    2.7840   29.3993 C   0  0  0  0  0  0  0  0  0  0  0  0
   -2.3272    1.8940   29.5104 N   0  0  0  0  0  0  0  0  0  0  0  0
   -1.7311    1.5914   30.6846 C   0  0  0  0  0  0  0  0  0  0  0  0
   -0.8170    0.7762   30.6947 O   0  0  0  0  0  0  0  0  0  0  0  0
   -2.1515    2.1748   31.8239 N   0  0  0  0  0  0  0  0  0  0  0  0
   -3.1497    3.0678   31.7719 C   0  0  0  0  0  0  0  0  0  0  0  0
   -3.5062    3.6135   32.7899 O   0  0  0  0  0  0  0  0  0  0  0  0
   -1.9999    1.4534   28.6931 H   0  0  0  0  0  0  0  0  0  0  0  0
   -1.7305    1.9480   32.6844 H   0  0  0  0  0  0  0  0  0  0  0  0
   -4.0142    3.0240   28.0334 C   0  0  0  0  0  0  0  0  0  0  0  0
   -4.3885    1.6775   27.5035 N   0  0  0  0  0  0  0  0  0  0  0  0
   -5.6719    0.9964   27.7805 C   0  0  0  0  0  0  0  0  0  0  0  0
   -5.7102   -0.2292   26.8361 C   0  0  0  0  0  0  0  0  0  0  0  0
   -4.2540   -0.4470   26.3225 C   0  0  0  0  0  0  0  0  0  0  0  0
   -3.5979    0.8777   26.7094 C   0  0  0  0  0  0  0  0  0  0  0  0
   -2.4207    1.2461   26.3001 N   0  0  0  0  0  0  0  0  0  0  0  0
   -2.0499    2.1129   26.5836 H   0  0  0  0  0  0  0  0  0  0  0  0
  1  2  1  0  0  0
  2  3  2  0  0  0
  2  8  1  0  0  0
  3 12  1  0  0  0
  3  4  1  0  0  0
 12 13  1  0  0  0
 13 14  1  0  0  0
 13 17  1  0  0  0
 14 15  1  0  0  0
 15 16  1  0  0  0
 16 17  1  0  0  0
 17 18  2  0  0  0
  4  5  1  0  0  0
  5  6  2  0  0  0
  5  7  1  0  0  0
  7  8  1  0  0  0
  8  9  2  0  0  0
 18 19  1  0  0  0
  4 10  1  0  0  0
  7 11  1  0  0  0
M  END
> <minimizedAffinity>
-7.88044

$$$$
1UOU_CMU_A_1481


 19 20  0  0  0  0  0  0  0  0999 V2000
   -6.1211    2.6120   28.0376 Cl  0  0  0  0  0  0  0  0  0  0  0  0
   -5.0230    1.3398   27.6194 C   0  0  0  0  0  0  0  0  0  0  0  0
   -3.6811    1.5113   27.7156 C   0  0  0  0  0  0  0  0  0  0  0  0
   -2.8888    0.4469   27.3673 N   0  0  0  0  0  0  0  0  0  0  0  0
   -3.3809   -0.7353   26.9362 C   0  0  0  0  0  0  0  0  0  0  0  0
   -2.6004   -1.6300   26.6352 O   0  0  0  0  0  0  0  0  0  0  0  0
   -4.7122   -0.9133   26.8315 N   0  0  0  0  0  0  0  0  0  0  0  0
   -5.5351    0.0866   27.1774 C   0  0  0  0  0  0  0  0  0  0  0  0
   -6.7300   -0.0839   27.1121 O   0  0  0  0  0  0  0  0  0  0  0  0
   -1.9120    0.5497   27.4348 H   0  0  0  0  0  0  0  0  0  0  0  0
   -5.0764   -1.7676   26.5047 H   0  0  0  0  0  0  0  0  0  0  0  0
   -3.0323    2.8308   28.1425 C   0  0  0  0  0  0  0  0  0  0  0  0
   -3.2263    2.9356   29.6208 N   0  0  0  0  0  0  0  0  0  0  0  0
   -2.8510    1.8837   30.5907 C   0  0  0  0  0  0  0  0  0  0  0  0
   -3.0022    2.5282   31.9897 C   0  0  0  0  0  0  0  0  0  0  0  0
   -3.8542    3.8203   31.8001 C   0  0  0  0  0  0  0  0  0  0  0  0
   -3.7924    4.0010   30.2840 C   0  0  0  0  0  0  0  0  0  0  0  0
   -4.1950    5.0724   29.6683 N   0  0  0  0  0  0  0  0  0  0  0  0
   -4.1299    5.1305   28.6877 H   0  0  0  0  0  0  0  0  0  0  0  0
  1  2  1  0  0  0
  2  3  2  0  0  0
  2  8  1  0  0  0
  3 12  1  0  0  0
  3  4  1  0  0  0
 12 13  1  0  0  0
 13 14  1  0  0  0
 13 17  1  0  0  0
 14 15  1  0  0  0
 15 16  1  0  0  0
 16 17  1  0  0  0
 17 18  2  0  0  0
  4  5  1  0  0  0
  5  6  2  0  0  0
  5  7  1  0  0  0
  7  8  1  0  0  0
  8  9  2  0  0  0
 18 19  1  0  0  0
  4 10  1  0  0  0
  7 11  1  0  0  0
M  END
> <minimizedAffinity>
-7.82806

$$$$
1UOU_CMU_A_1481


 19 20  0  0  0  0  0  0  0  0999 V2000
   -0.4234    0.0650   24.6873 Cl  0  0  0  0  0  0  0  0  0  0  0  0
   -1.9065    0.1049   23.7940 C   0  0  0  0  0  0  0  0  0  0  0  0
   -3.0691   -0.3244   24.3447 C   0  0  0  0  0  0  0  0  0  0  0  0
   -4.1947   -0.2512   23.5638 N   0  0  0  0  0  0  0  0  0  0  0  0
   -4.1896    0.2148   22.2956 C   0  0  0  0  0  0  0  0  0  0  0  0
   -5.2396    0.2349   21.6653 O   0  0  0  0  0  0  0  0  0  0  0  0
   -3.0385    0.6378   21.7377 N   0  0  0  0  0  0  0  0  0  0  0  0
   -1.9108    0.6075   22.4615 C   0  0  0  0  0  0  0  0  0  0  0  0
   -0.8842    1.0155   21.9708 O   0  0  0  0  0  0  0  0  0  0  0  0
   -5.0497   -0.5535   23.9471 H   0  0  0  0  0  0  0  0  0  0  0  0
   -3.0259    0.9653   20.8093 H   0  0  0  0  0  0  0  0  0  0  0  0
   -3.1617   -0.9171   25.7534 C   0  0  0  0  0  0  0  0  0  0  0  0
   -3.7774    0.1387   26.6139 N   0  0  0  0  0  0  0  0  0  0  0  0
   -3.0258    1.2407   27.2531 C   0  0  0  0  0  0  0  0  0  0  0  0
   -4.0949    2.2048   27.8214 C   0  0  0  0  0  0  0  0  0  0  0  0
   -5.4419    1.4196   27.8447 C   0  0  0  0  0  0  0  0  0  0  0  0
   -5.1097    0.2269   26.9490 C   0  0  0  0  0  0  0  0  0  0  0  0
   -5.9985   -0.6102   26.5037 N   0  0  0  0  0  0  0  0  0  0  0  0
   -5.7234   -1.3609   25.9291 H   0  0  0  0  0  0  0  0  0  0  0  0
  1  2  1  0  0  0
  2  3  2  0  0  0
  2  8  1  0  0  0
  3 12  1  0  0  0
  3  4  1  0  0  0
 12 13  1  0  0  0
 13 14  1  0  0  0
 13 17  1  0  0  0
 14 15  1  0  0  0
 15 16  1  0  0  0
 16 17  1  0  0  0
 17 18  2  0  0  0
  4  5  1  0  0  0
  5  6  2  0  0  0
  5  7  1  0  0  0
  7  8  1  0  0  0
  8  9  2  0  0  0
 18 19  1  0  0  0
  4 10  1  0  0  0
  7 11  1  0  0  0
M  END
> <minimizedAffinity>
-7.69389

$$$$
1UOU_CMU_A_1481


 19 20  0  0  0  0  0  0  0  0999 V2000
   -6.2958    3.4191   28.3950 Cl  0  0  0  0  0  0  0  0  0  0  0  0
   -4.8306    2.6395   28.8896 C   0  0  0  0  0  0  0  0  0  0  0  0
   -4.5504    1.3676   28.5115 C   0  0  0  0  0  0  0  0  0  0  0  0
   -3.3641    0.8334   28.9469 N   0  0  0  0  0  0  0  0  0  0  0  0
   -2.4878    1.5064   29.7245 C   0  0  0  0  0  0  0  0  0  0  0  0
   -1.4559    0.9488   30.0774 O   0  0  0  0  0  0  0  0  0  0  0  0
   -2.7601    2.7682   30.1104 N   0  0  0  0  0  0  0  0  0  0  0  0
   -3.8961    3.3477   29.6979 C   0  0  0  0  0  0  0  0  0  0  0  0
   -4.1256    4.4902   30.0193 O   0  0  0  0  0  0  0  0  0  0  0  0
   -3.1401   -0.0871   28.6792 H   0  0  0  0  0  0  0  0  0  0  0  0
   -2.1321    3.2588   30.6884 H   0  0  0  0  0  0  0  0  0  0  0  0
   -5.5061    0.5105   27.6771 C   0  0  0  0  0  0  0  0  0  0  0  0
   -4.8342    0.2930   26.3598 N   0  0  0  0  0  0  0  0  0  0  0  0
   -4.9247    1.2203   25.2110 C   0  0  0  0  0  0  0  0  0  0  0  0
   -3.8855    0.7165   24.1807 C   0  0  0  0  0  0  0  0  0  0  0  0
   -3.5052   -0.7367   24.5991 C   0  0  0  0  0  0  0  0  0  0  0  0
   -4.0617   -0.7951   26.0211 C   0  0  0  0  0  0  0  0  0  0  0  0
   -3.8041   -1.7559   26.8575 N   0  0  0  0  0  0  0  0  0  0  0  0
   -4.1926   -1.7385   27.7620 H   0  0  0  0  0  0  0  0  0  0  0  0
  1  2  1  0  0  0
  2  3  2  0  0  0
  2  8  1  0  0  0
  3 12  1  0  0  0
  3  4  1  0  0  0
 12 13  1  0  0  0
 13 14  1  0  0  0
 13 17  1  0  0  0
 14 15  1  0  0  0
 15 16  1  0  0  0
 16 17  1  0  0  0
 17 18  2  0  0  0
  4  5  1  0  0  0
  5  6  2  0  0  0
  5  7  1  0  0  0
  7  8  1  0  0  0
  8  9  2  0  0  0
 18 19  1  0  0  0
  4 10  1  0  0  0
  7 11  1  0  0  0
M  END
> <minimizedAffinity>
-7.68610

$$$$
1UOU_CMU_A_1481


 19 20  0  0  0  0  0  0  0  0999 V2000
   -2.2322   -0.6626   27.9720 Cl  0  0  0  0  0  0  0  0  0  0  0  0
   -2.7689    0.1954   26.5667 C   0  0  0  0  0  0  0  0  0  0  0  0
   -3.9633    0.8376   26.5502 C   0  0  0  0  0  0  0  0  0  0  0  0
   -4.3034    1.4947   25.3950 N   0  0  0  0  0  0  0  0  0  0  0  0
   -3.5168    1.5213   24.2968 C   0  0  0  0  0  0  0  0  0  0  0  0
   -3.9034    2.1237   23.3028 O   0  0  0  0  0  0  0  0  0  0  0  0
   -2.3313    0.8812   24.3013 N   0  0  0  0  0  0  0  0  0  0  0  0
   -1.9388    0.2390   25.4103 C   0  0  0  0  0  0  0  0  0  0  0  0
   -0.8616   -0.3094   25.4240 O   0  0  0  0  0  0  0  0  0  0  0  0
   -5.1645    1.9711   25.3646 H   0  0  0  0  0  0  0  0  0  0  0  0
   -1.7600    0.8852   23.4995 H   0  0  0  0  0  0  0  0  0  0  0  0
   -4.9430    0.8175   27.7267 C   0  0  0  0  0  0  0  0  0  0  0  0
   -4.7382    2.1002   28.4661 N   0  0  0  0  0  0  0  0  0  0  0  0
   -3.4428    2.5477   29.0227 C   0  0  0  0  0  0  0  0  0  0  0  0
   -3.6596    4.0146   29.4661 C   0  0  0  0  0  0  0  0  0  0  0  0
   -5.2009    4.2447   29.5212 C   0  0  0  0  0  0  0  0  0  0  0  0
   -5.7139    3.0288   28.7508 C   0  0  0  0  0  0  0  0  0  0  0  0
   -6.9451    2.8904   28.3584 N   0  0  0  0  0  0  0  0  0  0  0  0
   -7.2167    2.0830   27.8648 H   0  0  0  0  0  0  0  0  0  0  0  0
  1  2  1  0  0  0
  2  3  2  0  0  0
  2  8  1  0  0  0
  3 12  1  0  0  0
  3  4  1  0  0  0
 12 13  1  0  0  0
 13 14  1  0  0  0
 13 17  1  0  0  0
 14 15  1  0  0  0
 15 16  1  0  0  0
 16 17  1  0  0  0
 17 18  2  0  0  0
  4  5  1  0  0  0
  5  6  2  0  0  0
  5  7  1  0  0  0
  7  8  1  0  0  0
  8  9  2  0  0  0
 18 19  1  0  0  0
  4 10  1  0  0  0
  7 11  1  0  0  0
M  END
> <minimizedAffinity>
-7.36183

$$$$
1UOU_CMU_A_1481


 19 20  0  0  0  0  0  0  0  0999 V2000
   -5.3985    1.3702   24.3677 Cl  0  0  0  0  0  0  0  0  0  0  0  0
   -3.7559    0.8603   24.5706 C   0  0  0  0  0  0  0  0  0  0  0  0
   -3.3181    0.3578   25.7517 C   0  0  0  0  0  0  0  0  0  0  0  0
   -2.0022   -0.0246   25.8186 N   0  0  0  0  0  0  0  0  0  0  0  0
   -1.1441    0.0831   24.7805 C   0  0  0  0  0  0  0  0  0  0  0  0
    0.0183   -0.2726   24.9306 O   0  0  0  0  0  0  0  0  0  0  0  0
   -1.5681    0.5866   23.6050 N   0  0  0  0  0  0  0  0  0  0  0  0
   -2.8495    0.9582   23.4766 C   0  0  0  0  0  0  0  0  0  0  0  0
   -3.2367    1.3816   22.4126 O   0  0  0  0  0  0  0  0  0  0  0  0
   -1.6662   -0.3964   26.6660 H   0  0  0  0  0  0  0  0  0  0  0  0
   -0.9441    0.6806   22.8493 H   0  0  0  0  0  0  0  0  0  0  0  0
   -4.2029    0.2482   26.9965 C   0  0  0  0  0  0  0  0  0  0  0  0
   -3.7787    1.3508   27.9121 N   0  0  0  0  0  0  0  0  0  0  0  0
   -4.3362    2.7206   27.8868 C   0  0  0  0  0  0  0  0  0  0  0  0
   -3.7868    3.4219   29.1524 C   0  0  0  0  0  0  0  0  0  0  0  0
   -2.5949    2.5566   29.6646 C   0  0  0  0  0  0  0  0  0  0  0  0
   -2.8077    1.2603   28.8839 C   0  0  0  0  0  0  0  0  0  0  0  0
   -2.1682    0.1562   29.1310 N   0  0  0  0  0  0  0  0  0  0  0  0
   -2.3485   -0.6482   28.5928 H   0  0  0  0  0  0  0  0  0  0  0  0
  1  2  1  0  0  0
  2  3  2  0  0  0
  2  8  1  0  0  0
  3 12  1  0  0  0
  3  4  1  0  0  0
 12 13  1  0  0  0
 13 14  1  0  0  0
 13 17  1  0  0  0
 14 15  1  0  0  0
 15 16  1  0  0  0
 16 17  1  0  0  0
 17 18  2  0  0  0
  4  5  1  0  0  0
  5  6  2  0  0  0
  5  7  1  0  0  0
  7  8  1  0  0  0
  8  9  2  0  0  0
 18 19  1  0  0  0
  4 10  1  0  0  0
  7 11  1  0  0  0
M  END
> <minimizedAffinity>
-7.31426

$$$$
1UOU_CMU_A_1481


 19 20  0  0  0  0  0  0  0  0999 V2000
   -2.3805    0.0499   28.1777 Cl  0  0  0  0  0  0  0  0  0  0  0  0
   -3.7813    1.0672   28.2251 C   0  0  0  0  0  0  0  0  0  0  0  0
   -4.8820    0.7805   27.4866 C   0  0  0  0  0  0  0  0  0  0  0  0
   -5.9458    1.6403   27.5912 N   0  0  0  0  0  0  0  0  0  0  0  0
   -5.9379    2.7391   28.3775 C   0  0  0  0  0  0  0  0  0  0  0  0
   -6.9283    3.4593   28.4028 O   0  0  0  0  0  0  0  0  0  0  0  0
   -4.8469    3.0357   29.1101 N   0  0  0  0  0  0  0  0  0  0  0  0
   -3.7849    2.2194   29.0621 C   0  0  0  0  0  0  0  0  0  0  0  0
   -2.8178    2.4695   29.7429 O   0  0  0  0  0  0  0  0  0  0  0  0
   -6.7562    1.4470   27.0666 H   0  0  0  0  0  0  0  0  0  0  0  0
   -4.8299    3.8424   29.6742 H   0  0  0  0  0  0  0  0  0  0  0  0
   -4.9625   -0.4110   26.5283 C   0  0  0  0  0  0  0  0  0  0  0  0
   -4.3020    0.0244   25.2601 N   0  0  0  0  0  0  0  0  0  0  0  0
   -4.6798    1.2299   24.4909 C   0  0  0  0  0  0  0  0  0  0  0  0
   -3.5785    1.4067   23.4179 C   0  0  0  0  0  0  0  0  0  0  0  0
   -2.8040    0.0555   23.3414 C   0  0  0  0  0  0  0  0  0  0  0  0
   -3.2751   -0.6336   24.6214 C   0  0  0  0  0  0  0  0  0  0  0  0
   -2.7381   -1.7175   25.0966 N   0  0  0  0  0  0  0  0  0  0  0  0
   -3.0857   -2.1159   25.9271 H   0  0  0  0  0  0  0  0  0  0  0  0
  1  2  1  0  0  0
  2  3  2  0  0  0
  2  8  1  0  0  0
  3 12  1  0  0  0
  3  4  1  0  0  0
 12 13  1  0  0  0
 13 14  1  0  0  0
 13 17  1  0  0  0
 14 15  1  0  0  0
 15 16  1  0  0  0
 16 17  1  0  0  0
 17 18  2  0  0  0
  4  5  1  0  0  0
  5  6  2  0  0  0
  5  7  1  0  0  0
  7  8  1  0  0  0
  8  9  2  0  0  0
 18 19  1  0  0  0
  4 10  1  0  0  0
  7 11  1  0  0  0
M  END
> <minimizedAffinity>
-7.19109

$$$$
1UOU_CMU_A_1481


 19 20  0  0  0  0  0  0  0  0999 V2000
   -5.3346    2.5651   27.6460 Cl  0  0  0  0  0  0  0  0  0  0  0  0
   -4.0820    1.4535   28.0874 C   0  0  0  0  0  0  0  0  0  0  0  0
   -3.9487    0.2602   27.4570 C   0  0  0  0  0  0  0  0  0  0  0  0
   -2.9247   -0.5538   27.8705 N   0  0  0  0  0  0  0  0  0  0  0  0
   -2.0681   -0.2240   28.8619 C   0  0  0  0  0  0  0  0  0  0  0  0
   -1.1879   -1.0160   29.1752 O   0  0  0  0  0  0  0  0  0  0  0  0
   -2.1961    0.9566   29.4983 N   0  0  0  0  0  0  0  0  0  0  0  0
   -3.1672    1.8005   29.1222 C   0  0  0  0  0  0  0  0  0  0  0  0
   -3.2627    2.8723   29.6729 O   0  0  0  0  0  0  0  0  0  0  0  0
   -2.8082   -1.4225   27.4220 H   0  0  0  0  0  0  0  0  0  0  0  0
   -1.5838    1.1966   30.2308 H   0  0  0  0  0  0  0  0  0  0  0  0
   -4.9033   -0.2209   26.3608 C   0  0  0  0  0  0  0  0  0  0  0  0
   -4.2947    0.1960   25.0609 N   0  0  0  0  0  0  0  0  0  0  0  0
   -4.6962    1.3964   24.2956 C   0  0  0  0  0  0  0  0  0  0  0  0
   -3.6408    1.5533   23.1746 C   0  0  0  0  0  0  0  0  0  0  0  0
   -2.8804    0.1952   23.0794 C   0  0  0  0  0  0  0  0  0  0  0  0
   -3.3012   -0.4768   24.3857 C   0  0  0  0  0  0  0  0  0  0  0  0
   -2.7525   -1.5599   24.8491 N   0  0  0  0  0  0  0  0  0  0  0  0
   -3.0670   -1.9468   25.6980 H   0  0  0  0  0  0  0  0  0  0  0  0
  1  2  1  0  0  0
  2  3  2  0  0  0
  2  8  1  0  0  0
  3 12  1  0  0  0
  3  4  1  0  0  0
 12 13  1  0  0  0
 13 14  1  0  0  0
 13 17  1  0  0  0
 14 15  1  0  0  0
 15 16  1  0  0  0
 16 17  1  0  0  0
 17 18  2  0  0  0
  4  5  1  0  0  0
  5  6  2  0  0  0
  5  7  1  0  0  0
  7  8  1  0  0  0
  8  9  2  0  0  0
 18 19  1  0  0  0
  4 10  1  0  0  0
  7 11  1  0  0  0
M  END
> <minimizedAffinity>
-7.14084

$$$$
1UOU_CMU_A_1481


 19 20  0  0  0  0  0  0  0  0999 V2000
   -3.0861   -1.3743   26.8450 Cl  0  0  0  0  0  0  0  0  0  0  0  0
   -3.9713   -0.3661   25.7499 C   0  0  0  0  0  0  0  0  0  0  0  0
   -5.0419    0.3536   26.1683 C   0  0  0  0  0  0  0  0  0  0  0  0
   -5.6788    1.1278   25.2317 N   0  0  0  0  0  0  0  0  0  0  0  0
   -5.2945    1.1948   23.9382 C   0  0  0  0  0  0  0  0  0  0  0  0
   -5.9275    1.9039   23.1657 O   0  0  0  0  0  0  0  0  0  0  0  0
   -4.2359    0.4788   23.5116 N   0  0  0  0  0  0  0  0  0  0  0  0
   -3.5635   -0.2802   24.3881 C   0  0  0  0  0  0  0  0  0  0  0  0
   -2.5955   -0.8986   24.0115 O   0  0  0  0  0  0  0  0  0  0  0  0
   -6.4554    1.6616   25.5167 H   0  0  0  0  0  0  0  0  0  0  0  0
   -3.9597    0.5126   22.5673 H   0  0  0  0  0  0  0  0  0  0  0  0
   -5.5817    0.2993   27.6000 C   0  0  0  0  0  0  0  0  0  0  0  0
   -5.1466    1.5670   28.2616 N   0  0  0  0  0  0  0  0  0  0  0  0
   -5.9175    2.8292   28.2408 C   0  0  0  0  0  0  0  0  0  0  0  0
   -5.2124    3.7696   29.2477 C   0  0  0  0  0  0  0  0  0  0  0  0
   -3.8051    3.1579   29.5249 C   0  0  0  0  0  0  0  0  0  0  0  0
   -3.9734    1.7485   28.9588 C   0  0  0  0  0  0  0  0  0  0  0  0
   -3.1168    0.7892   29.1455 N   0  0  0  0  0  0  0  0  0  0  0  0
   -3.2801   -0.0996   28.7549 H   0  0  0  0  0  0  0  0  0  0  0  0
  1  2  1  0  0  0
  2  3  2  0  0  0
  2  8  1  0  0  0
  3 12  1  0  0  0
  3  4  1  0  0  0
 12 13  1  0  0  0
 13 14  1  0  0  0
 13 17  1  0  0  0
 14 15  1  0  0  0
 15 16  1  0  0  0
 16 17  1  0  0  0
 17 18  2  0  0  0
  4  5  1  0  0  0
  5  6  2  0  0  0
  5  7  1  0  0  0
  7  8  1  0  0  0
  8  9  2  0  0  0
 18 19  1  0  0  0
  4 10  1  0  0  0
  7 11  1  0  0  0
M  END
> <minimizedAffinity>
-7.13905

$$$$
