4P5D_N6P_C_201


 36 40  0  0  0  0  0  0  0  0999 V2000
   11.3950   75.8211   -5.7327 C   0  0  0  0  0  0  0  0  0  0  0  0
   11.6368   75.0188   -4.6686 N   0  0  0  0  0  0  0  0  0  0  0  0
   10.7844   74.0752   -4.2863 C   0  0  0  0  0  0  0  0  0  0  0  0
    9.6242   73.8420   -4.9354 N   0  0  0  0  0  0  0  0  0  0  0  0
    9.2839   74.6114   -6.0110 C   0  0  0  0  0  0  0  0  0  0  0  0
   10.1619   75.6367   -6.4434 C   0  0  0  0  0  0  0  0  0  0  0  0
    9.5778   76.2275   -7.5222 N   0  0  0  0  0  0  0  0  0  0  0  0
    8.3912   75.6125   -7.7508 C   0  0  0  0  0  0  0  0  0  0  0  0
    8.2017   74.6423   -6.8609 N   0  0  0  0  0  0  0  0  0  0  0  0
   12.7696   77.7951   -5.0568 C   0  0  0  0  0  0  0  0  0  0  0  0
   13.6311   78.8555   -5.3429 C   0  0  0  0  0  0  0  0  0  0  0  0
   14.0611   79.7096   -4.3157 C   0  0  0  0  0  0  0  0  0  0  0  0
   14.9157   80.7707   -4.5965 C   0  0  0  0  0  0  0  0  0  0  0  0
   15.3394   80.9834   -5.9085 C   0  0  0  0  0  0  0  0  0  0  0  0
   14.9057   80.1397   -6.9335 C   0  0  0  0  0  0  0  0  0  0  0  0
   14.0542   79.0775   -6.6469 C   0  0  0  0  0  0  0  0  0  0  0  0
   13.6260   78.2342   -7.6733 C   0  0  0  0  0  0  0  0  0  0  0  0
   12.7769   77.1771   -7.3878 C   0  0  0  0  0  0  0  0  0  0  0  0
   12.3759   76.9296   -6.0646 C   0  0  0  0  0  0  0  0  0  0  0  0
    7.0987   73.8170   -6.7431 C   0  0  0  0  0  0  0  0  0  0  0  0
    6.1118   74.2256   -7.9452 O   0  0  0  0  0  0  0  0  0  0  0  0
    6.4535   74.1699   -5.6096 C   0  0  0  0  0  0  0  0  0  0  0  0
    6.0635   73.0194   -4.7529 O   0  0  0  0  0  0  0  0  0  0  0  0
    5.1782   74.9810   -5.9708 C   0  0  0  0  0  0  0  0  0  0  0  0
    4.0382   74.4126   -5.5422 O   0  0  0  0  0  0  0  0  0  0  0  0
    5.1480   75.0303   -7.5233 C   0  0  0  0  0  0  0  0  0  0  0  0
    5.4327   72.4591   -5.2316 H   0  0  0  0  0  0  0  0  0  0  0  0
    3.9446   73.5339   -5.9424 H   0  0  0  0  0  0  0  0  0  0  0  0
    5.3462   76.4539   -8.0140 C   0  0  0  0  0  0  0  0  0  0  0  0
    5.4405   76.3731   -9.4525 O   0  0  0  0  0  0  0  0  0  0  0  0
    5.7354   77.6881  -10.3050 P   0  0  0  0  0  0  0  0  0  0  0  0
    5.0755   78.8474   -9.6686 O   0  0  0  0  0  0  0  0  0  0  0  0
    7.2553   77.8612  -10.3436 O   0  0  0  0  0  0  0  0  0  0  0  0
    5.2049   77.5090  -11.7029 O   0  0  0  0  0  0  0  0  0  0  0  0
    5.2554   79.6468  -10.1877 H   0  0  0  0  0  0  0  0  0  0  0  0
    5.3842   78.3088  -12.2216 H   0  0  0  0  0  0  0  0  0  0  0  0
 33 31  2  0  0  0
 31 34  1  0  0  0
 31 32  1  0  0  0
 31 30  1  0  0  0
 30 29  1  0  0  0
 21 26  1  0  0  0
 21 20  1  0  0  0
 29 26  1  0  0  0
  8  7  2  0  0  0
  8  9  1  0  0  0
  7  6  1  0  0  0
 17 18  2  0  0  0
 17 16  1  0  0  0
 26 24  1  0  0  0
 18 19  1  0  0  0
  9 20  1  0  0  0
  9  5  1  0  0  0
 15 16  2  0  0  0
 15 14  1  0  0  0
 20 22  1  0  0  0
 16 11  1  0  0  0
  6  5  2  0  0  0
  6  1  1  0  0  0
 19  1  1  0  0  0
 19 10  2  0  0  0
  5  4  1  0  0  0
 14 13  2  0  0  0
 24 22  1  0  0  0
 24 25  1  0  0  0
  1  2  2  0  0  0
 22 23  1  0  0  0
 11 10  1  0  0  0
 11 12  2  0  0  0
  4  3  2  0  0  0
 13 12  1  0  0  0
  2  3  1  0  0  0
 23 27  1  0  0  0
 25 28  1  0  0  0
 32 35  1  0  0  0
 34 36  1  0  0  0
M  END
> <minimizedAffinity>
-12.66137

$$$$
4P5D_N6P_C_201


 36 40  0  0  0  0  0  0  0  0999 V2000
   10.8557   76.9093   -7.6580 C   0  0  0  0  0  0  0  0  0  0  0  0
   10.3311   77.0882   -8.8939 N   0  0  0  0  0  0  0  0  0  0  0  0
    9.2576   76.4262   -9.3091 C   0  0  0  0  0  0  0  0  0  0  0  0
    8.6081   75.5379   -8.5275 N   0  0  0  0  0  0  0  0  0  0  0  0
    9.0720   75.2767   -7.2700 C   0  0  0  0  0  0  0  0  0  0  0  0
   10.2222   75.9544   -6.7939 C   0  0  0  0  0  0  0  0  0  0  0  0
   10.4478   75.5076   -5.5276 N   0  0  0  0  0  0  0  0  0  0  0  0
    9.4954   74.5908   -5.2264 C   0  0  0  0  0  0  0  0  0  0  0  0
    8.6631   74.4437   -6.2535 N   0  0  0  0  0  0  0  0  0  0  0  0
   12.0633   78.6447   -6.3266 C   0  0  0  0  0  0  0  0  0  0  0  0
   13.2089   79.3699   -5.9946 C   0  0  0  0  0  0  0  0  0  0  0  0
   13.1515   80.3608   -5.0023 C   0  0  0  0  0  0  0  0  0  0  0  0
   14.2892   81.0897   -4.6713 C   0  0  0  0  0  0  0  0  0  0  0  0
   15.4881   80.8322   -5.3364 C   0  0  0  0  0  0  0  0  0  0  0  0
   15.5451   79.8526   -6.3303 C   0  0  0  0  0  0  0  0  0  0  0  0
   14.4055   79.1236   -6.6549 C   0  0  0  0  0  0  0  0  0  0  0  0
   14.4674   78.1428   -7.6459 C   0  0  0  0  0  0  0  0  0  0  0  0
   13.3319   77.4178   -7.9699 C   0  0  0  0  0  0  0  0  0  0  0  0
   12.1294   77.6408   -7.2792 C   0  0  0  0  0  0  0  0  0  0  0  0
    7.5894   73.5774   -6.3446 C   0  0  0  0  0  0  0  0  0  0  0  0
    6.6397   74.1718   -7.4981 O   0  0  0  0  0  0  0  0  0  0  0  0
    6.8828   73.6931   -5.1988 C   0  0  0  0  0  0  0  0  0  0  0  0
    6.5020   72.3919   -4.5893 O   0  0  0  0  0  0  0  0  0  0  0  0
    5.5931   74.5176   -5.4669 C   0  0  0  0  0  0  0  0  0  0  0  0
    4.4591   73.8445   -5.2074 O   0  0  0  0  0  0  0  0  0  0  0  0
    5.6277   74.8538   -6.9834 C   0  0  0  0  0  0  0  0  0  0  0  0
    5.9150   71.9113   -5.1937 H   0  0  0  0  0  0  0  0  0  0  0  0
    4.4175   73.0532   -5.7669 H   0  0  0  0  0  0  0  0  0  0  0  0
    5.7904   76.3493   -7.1927 C   0  0  0  0  0  0  0  0  0  0  0  0
    5.0218   76.6756   -8.3707 O   0  0  0  0  0  0  0  0  0  0  0  0
    5.6692   77.5726   -9.5191 P   0  0  0  0  0  0  0  0  0  0  0  0
    5.6680   76.8215  -10.7920 O   0  0  0  0  0  0  0  0  0  0  0  0
    4.8244   78.8445   -9.6192 O   0  0  0  0  0  0  0  0  0  0  0  0
    7.0837   77.9259   -9.1421 O   0  0  0  0  0  0  0  0  0  0  0  0
    6.0620   77.3677  -11.4901 H   0  0  0  0  0  0  0  0  0  0  0  0
    7.4778   78.4716   -9.8406 H   0  0  0  0  0  0  0  0  0  0  0  0
 33 31  2  0  0  0
 31 34  1  0  0  0
 31 32  1  0  0  0
 31 30  1  0  0  0
 30 29  1  0  0  0
 21 26  1  0  0  0
 21 20  1  0  0  0
 29 26  1  0  0  0
  8  7  2  0  0  0
  8  9  1  0  0  0
  7  6  1  0  0  0
 17 18  2  0  0  0
 17 16  1  0  0  0
 26 24  1  0  0  0
 18 19  1  0  0  0
  9 20  1  0  0  0
  9  5  1  0  0  0
 15 16  2  0  0  0
 15 14  1  0  0  0
 20 22  1  0  0  0
 16 11  1  0  0  0
  6  5  2  0  0  0
  6  1  1  0  0  0
 19  1  1  0  0  0
 19 10  2  0  0  0
  5  4  1  0  0  0
 14 13  2  0  0  0
 24 22  1  0  0  0
 24 25  1  0  0  0
  1  2  2  0  0  0
 22 23  1  0  0  0
 11 10  1  0  0  0
 11 12  2  0  0  0
  4  3  2  0  0  0
 13 12  1  0  0  0
  2  3  1  0  0  0
 23 27  1  0  0  0
 25 28  1  0  0  0
 32 35  1  0  0  0
 34 36  1  0  0  0
M  END
> <minimizedAffinity>
-10.21341

$$$$
4P5D_N6P_C_201


 36 40  0  0  0  0  0  0  0  0999 V2000
   11.6956   75.3173   -4.9540 C   0  0  0  0  0  0  0  0  0  0  0  0
   12.1499   74.1314   -4.4831 N   0  0  0  0  0  0  0  0  0  0  0  0
   13.1727   74.0502   -3.6403 C   0  0  0  0  0  0  0  0  0  0  0  0
   13.8242   75.1414   -3.1858 N   0  0  0  0  0  0  0  0  0  0  0  0
   13.4500   76.3818   -3.6174 C   0  0  0  0  0  0  0  0  0  0  0  0
   12.3699   76.5098   -4.5263 C   0  0  0  0  0  0  0  0  0  0  0  0
   12.2179   77.8401   -4.7738 N   0  0  0  0  0  0  0  0  0  0  0  0
   13.1583   78.5126   -4.0653 C   0  0  0  0  0  0  0  0  0  0  0  0
   13.8997   77.6581   -3.3658 N   0  0  0  0  0  0  0  0  0  0  0  0
   10.5464   76.3403   -6.9226 C   0  0  0  0  0  0  0  0  0  0  0  0
    9.4989   76.4075   -7.8428 C   0  0  0  0  0  0  0  0  0  0  0  0
    9.4902   77.4075   -8.8274 C   0  0  0  0  0  0  0  0  0  0  0  0
    8.4461   77.4817   -9.7436 C   0  0  0  0  0  0  0  0  0  0  0  0
    7.4037   76.5572   -9.6743 C   0  0  0  0  0  0  0  0  0  0  0  0
    7.4062   75.5666   -8.6897 C   0  0  0  0  0  0  0  0  0  0  0  0
    8.4548   75.4942   -7.7782 C   0  0  0  0  0  0  0  0  0  0  0  0
    8.4556   74.5004   -6.7981 C   0  0  0  0  0  0  0  0  0  0  0  0
    9.4994   74.4293   -5.8896 C   0  0  0  0  0  0  0  0  0  0  0  0
   10.5737   75.3300   -5.9749 C   0  0  0  0  0  0  0  0  0  0  0  0
   14.9782   77.9547   -2.5532 C   0  0  0  0  0  0  0  0  0  0  0  0
   15.0082   79.5577   -2.4278 O   0  0  0  0  0  0  0  0  0  0  0  0
   16.0967   77.6243   -3.2353 C   0  0  0  0  0  0  0  0  0  0  0  0
   17.0831   76.8480   -2.4391 O   0  0  0  0  0  0  0  0  0  0  0  0
   16.7825   78.9154   -3.7621 C   0  0  0  0  0  0  0  0  0  0  0  0
   18.0311   79.0912   -3.2965 O   0  0  0  0  0  0  0  0  0  0  0  0
   15.8994   80.0875   -3.2520 C   0  0  0  0  0  0  0  0  0  0  0  0
   17.3972   77.3886   -1.6975 H   0  0  0  0  0  0  0  0  0  0  0  0
   18.0100   79.1497   -2.3285 H   0  0  0  0  0  0  0  0  0  0  0  0
   15.2364   80.8000   -4.4180 C   0  0  0  0  0  0  0  0  0  0  0  0
   15.7869   80.2090   -5.6149 O   0  0  0  0  0  0  0  0  0  0  0  0
   15.0059   80.3417   -6.9988 P   0  0  0  0  0  0  0  0  0  0  0  0
   13.5524   80.2230   -6.7587 O   0  0  0  0  0  0  0  0  0  0  0  0
   15.3666   81.7090   -7.5835 O   0  0  0  0  0  0  0  0  0  0  0  0
   15.4544   79.2504   -7.9345 O   0  0  0  0  0  0  0  0  0  0  0  0
   13.0779   80.3039   -7.6009 H   0  0  0  0  0  0  0  0  0  0  0  0
   14.9794   79.3309   -8.7764 H   0  0  0  0  0  0  0  0  0  0  0  0
 33 31  2  0  0  0
 31 34  1  0  0  0
 31 32  1  0  0  0
 31 30  1  0  0  0
 30 29  1  0  0  0
 21 26  1  0  0  0
 21 20  1  0  0  0
 29 26  1  0  0  0
  8  7  2  0  0  0
  8  9  1  0  0  0
  7  6  1  0  0  0
 17 18  2  0  0  0
 17 16  1  0  0  0
 26 24  1  0  0  0
 18 19  1  0  0  0
  9 20  1  0  0  0
  9  5  1  0  0  0
 15 16  2  0  0  0
 15 14  1  0  0  0
 20 22  1  0  0  0
 16 11  1  0  0  0
  6  5  2  0  0  0
  6  1  1  0  0  0
 19  1  1  0  0  0
 19 10  2  0  0  0
  5  4  1  0  0  0
 14 13  2  0  0  0
 24 22  1  0  0  0
 24 25  1  0  0  0
  1  2  2  0  0  0
 22 23  1  0  0  0
 11 10  1  0  0  0
 11 12  2  0  0  0
  4  3  2  0  0  0
 13 12  1  0  0  0
  2  3  1  0  0  0
 23 27  1  0  0  0
 25 28  1  0  0  0
 32 35  1  0  0  0
 34 36  1  0  0  0
M  END
> <minimizedAffinity>
-10.12791

$$$$
4P5D_N6P_C_201


 36 40  0  0  0  0  0  0  0  0999 V2000
   11.8806   77.2029   -7.0657 C   0  0  0  0  0  0  0  0  0  0  0  0
   12.8364   77.5919   -7.9430 N   0  0  0  0  0  0  0  0  0  0  0  0
   14.0661   77.9085   -7.5547 C   0  0  0  0  0  0  0  0  0  0  0  0
   14.4533   77.8551   -6.2628 N   0  0  0  0  0  0  0  0  0  0  0  0
   13.5546   77.4902   -5.3014 C   0  0  0  0  0  0  0  0  0  0  0  0
   12.2287   77.1559   -5.6742 C   0  0  0  0  0  0  0  0  0  0  0  0
   11.5670   76.8307   -4.5294 N   0  0  0  0  0  0  0  0  0  0  0  0
   12.4284   76.9624   -3.4907 C   0  0  0  0  0  0  0  0  0  0  0  0
   13.6208   77.3511   -3.9337 N   0  0  0  0  0  0  0  0  0  0  0  0
    9.7651   75.8742   -7.0272 C   0  0  0  0  0  0  0  0  0  0  0  0
    8.4901   75.5691   -7.5068 C   0  0  0  0  0  0  0  0  0  0  0  0
    7.7537   74.5220   -6.9315 C   0  0  0  0  0  0  0  0  0  0  0  0
    6.4848   74.2109   -7.4092 C   0  0  0  0  0  0  0  0  0  0  0  0
    5.9502   74.9445   -8.4685 C   0  0  0  0  0  0  0  0  0  0  0  0
    6.6850   75.9812   -9.0481 C   0  0  0  0  0  0  0  0  0  0  0  0
    7.9520   76.2910   -8.5641 C   0  0  0  0  0  0  0  0  0  0  0  0
    8.6817   77.3303   -9.1434 C   0  0  0  0  0  0  0  0  0  0  0  0
    9.9441   77.6378   -8.6620 C   0  0  0  0  0  0  0  0  0  0  0  0
   10.4759   76.9322   -7.5702 C   0  0  0  0  0  0  0  0  0  0  0  0
   14.7457   77.6278   -3.1791 C   0  0  0  0  0  0  0  0  0  0  0  0
   15.7995   76.4601   -3.5135 O   0  0  0  0  0  0  0  0  0  0  0  0
   14.4111   77.4524   -1.8818 C   0  0  0  0  0  0  0  0  0  0  0  0
   14.8569   78.5536   -0.9883 O   0  0  0  0  0  0  0  0  0  0  0  0
   15.0130   76.1151   -1.3680 C   0  0  0  0  0  0  0  0  0  0  0  0
   15.8659   76.2672   -0.3405 O   0  0  0  0  0  0  0  0  0  0  0  0
   15.7972   75.5270   -2.5734 C   0  0  0  0  0  0  0  0  0  0  0  0
   15.8258   78.5985   -0.9892 H   0  0  0  0  0  0  0  0  0  0  0  0
   16.6063   76.8304   -0.6155 H   0  0  0  0  0  0  0  0  0  0  0  0
   15.1465   74.2420   -3.0551 C   0  0  0  0  0  0  0  0  0  0  0  0
   13.8792   74.1523   -2.3689 O   0  0  0  0  0  0  0  0  0  0  0  0
   12.8047   73.0651   -2.8228 P   0  0  0  0  0  0  0  0  0  0  0  0
   11.6179   73.7467   -3.3808 O   0  0  0  0  0  0  0  0  0  0  0  0
   13.4839   72.1784   -3.8687 O   0  0  0  0  0  0  0  0  0  0  0  0
   12.3983   72.2349   -1.6340 O   0  0  0  0  0  0  0  0  0  0  0  0
   10.9647   73.0847   -3.6567 H   0  0  0  0  0  0  0  0  0  0  0  0
   11.7447   71.5734   -1.9098 H   0  0  0  0  0  0  0  0  0  0  0  0
 33 31  2  0  0  0
 31 34  1  0  0  0
 31 32  1  0  0  0
 31 30  1  0  0  0
 30 29  1  0  0  0
 21 26  1  0  0  0
 21 20  1  0  0  0
 29 26  1  0  0  0
  8  7  2  0  0  0
  8  9  1  0  0  0
  7  6  1  0  0  0
 17 18  2  0  0  0
 17 16  1  0  0  0
 26 24  1  0  0  0
 18 19  1  0  0  0
  9 20  1  0  0  0
  9  5  1  0  0  0
 15 16  2  0  0  0
 15 14  1  0  0  0
 20 22  1  0  0  0
 16 11  1  0  0  0
  6  5  2  0  0  0
  6  1  1  0  0  0
 19  1  1  0  0  0
 19 10  2  0  0  0
  5  4  1  0  0  0
 14 13  2  0  0  0
 24 22  1  0  0  0
 24 25  1  0  0  0
  1  2  2  0  0  0
 22 23  1  0  0  0
 11 10  1  0  0  0
 11 12  2  0  0  0
  4  3  2  0  0  0
 13 12  1  0  0  0
  2  3  1  0  0  0
 23 27  1  0  0  0
 25 28  1  0  0  0
 32 35  1  0  0  0
 34 36  1  0  0  0
M  END
> <minimizedAffinity>
-10.09397

$$$$
4P5D_N6P_C_201


 36 40  0  0  0  0  0  0  0  0999 V2000
   13.3040   76.2431   -4.3303 C   0  0  0  0  0  0  0  0  0  0  0  0
   13.7196   75.3989   -3.3560 N   0  0  0  0  0  0  0  0  0  0  0  0
   13.0657   74.2813   -3.0623 C   0  0  0  0  0  0  0  0  0  0  0  0
   11.9490   73.9024   -3.7189 N   0  0  0  0  0  0  0  0  0  0  0  0
   11.4422   74.6974   -4.7069 C   0  0  0  0  0  0  0  0  0  0  0  0
   12.1049   75.9045   -5.0424 C   0  0  0  0  0  0  0  0  0  0  0  0
   11.3912   76.4799   -6.0491 N   0  0  0  0  0  0  0  0  0  0  0  0
   10.3307   75.6817   -6.3260 C   0  0  0  0  0  0  0  0  0  0  0  0
   10.3480   74.6108   -5.5373 N   0  0  0  0  0  0  0  0  0  0  0  0
   14.1333   78.4571   -3.5222 C   0  0  0  0  0  0  0  0  0  0  0  0
   14.7742   79.6816   -3.7183 C   0  0  0  0  0  0  0  0  0  0  0  0
   14.8872   80.5945   -2.6583 C   0  0  0  0  0  0  0  0  0  0  0  0
   15.5206   81.8181   -2.8500 C   0  0  0  0  0  0  0  0  0  0  0  0
   16.0393   82.1343   -4.1058 C   0  0  0  0  0  0  0  0  0  0  0  0
   15.9201   81.2309   -5.1641 C   0  0  0  0  0  0  0  0  0  0  0  0
   15.2893   80.0067   -4.9663 C   0  0  0  0  0  0  0  0  0  0  0  0
   15.1756   79.1048   -6.0255 C   0  0  0  0  0  0  0  0  0  0  0  0
   14.5461   77.8863   -5.8285 C   0  0  0  0  0  0  0  0  0  0  0  0
   14.0556   77.5408   -4.5585 C   0  0  0  0  0  0  0  0  0  0  0  0
    9.4183   73.5885   -5.4919 C   0  0  0  0  0  0  0  0  0  0  0  0
    8.8256   73.4649   -6.9817 O   0  0  0  0  0  0  0  0  0  0  0  0
    8.3894   74.0161   -4.7276 C   0  0  0  0  0  0  0  0  0  0  0  0
    7.9352   73.0258   -3.7164 O   0  0  0  0  0  0  0  0  0  0  0  0
    7.1874   74.3892   -5.6391 C   0  0  0  0  0  0  0  0  0  0  0  0
    6.0796   73.6694   -5.3921 O   0  0  0  0  0  0  0  0  0  0  0  0
    7.6587   74.0825   -7.0874 C   0  0  0  0  0  0  0  0  0  0  0  0
    7.5965   72.2361   -4.1666 H   0  0  0  0  0  0  0  0  0  0  0  0
    6.2674   72.7282   -5.5327 H   0  0  0  0  0  0  0  0  0  0  0  0
    7.7699   75.3651   -7.8931 C   0  0  0  0  0  0  0  0  0  0  0  0
    6.5725   75.4394   -8.6966 O   0  0  0  0  0  0  0  0  0  0  0  0
    5.9554   76.8604   -9.0743 P   0  0  0  0  0  0  0  0  0  0  0  0
    6.9772   77.9102   -8.8787 O   0  0  0  0  0  0  0  0  0  0  0  0
    5.5110   76.7777  -10.5362 O   0  0  0  0  0  0  0  0  0  0  0  0
    4.7670   77.1413   -8.1931 O   0  0  0  0  0  0  0  0  0  0  0  0
    6.6011   78.7743   -9.1086 H   0  0  0  0  0  0  0  0  0  0  0  0
    4.3914   78.0057   -8.4226 H   0  0  0  0  0  0  0  0  0  0  0  0
 33 31  2  0  0  0
 31 34  1  0  0  0
 31 32  1  0  0  0
 31 30  1  0  0  0
 30 29  1  0  0  0
 21 26  1  0  0  0
 21 20  1  0  0  0
 29 26  1  0  0  0
  8  7  2  0  0  0
  8  9  1  0  0  0
  7  6  1  0  0  0
 17 18  2  0  0  0
 17 16  1  0  0  0
 26 24  1  0  0  0
 18 19  1  0  0  0
  9 20  1  0  0  0
  9  5  1  0  0  0
 15 16  2  0  0  0
 15 14  1  0  0  0
 20 22  1  0  0  0
 16 11  1  0  0  0
  6  5  2  0  0  0
  6  1  1  0  0  0
 19  1  1  0  0  0
 19 10  2  0  0  0
  5  4  1  0  0  0
 14 13  2  0  0  0
 24 22  1  0  0  0
 24 25  1  0  0  0
  1  2  2  0  0  0
 22 23  1  0  0  0
 11 10  1  0  0  0
 11 12  2  0  0  0
  4  3  2  0  0  0
 13 12  1  0  0  0
  2  3  1  0  0  0
 23 27  1  0  0  0
 25 28  1  0  0  0
 32 35  1  0  0  0
 34 36  1  0  0  0
M  END
> <minimizedAffinity>
-9.88374

$$$$
4P5D_N6P_C_201


 36 40  0  0  0  0  0  0  0  0999 V2000
   13.3299   76.6510   -4.0917 C   0  0  0  0  0  0  0  0  0  0  0  0
   13.8897   75.6996   -3.3070 N   0  0  0  0  0  0  0  0  0  0  0  0
   13.3678   74.4846   -3.1871 C   0  0  0  0  0  0  0  0  0  0  0  0
   12.2508   74.1087   -3.8451 N   0  0  0  0  0  0  0  0  0  0  0  0
   11.6043   75.0047   -4.6478 C   0  0  0  0  0  0  0  0  0  0  0  0
   12.1236   76.3155   -4.7930 C   0  0  0  0  0  0  0  0  0  0  0  0
   11.2914   76.9777   -5.6432 N   0  0  0  0  0  0  0  0  0  0  0  0
   10.2963   76.1313   -6.0064 C   0  0  0  0  0  0  0  0  0  0  0  0
   10.4699   74.9476   -5.4250 N   0  0  0  0  0  0  0  0  0  0  0  0
   14.2784   78.5947   -5.3429 C   0  0  0  0  0  0  0  0  0  0  0  0
   14.8847   79.8509   -5.3967 C   0  0  0  0  0  0  0  0  0  0  0  0
   15.1968   80.4290   -6.6369 C   0  0  0  0  0  0  0  0  0  0  0  0
   15.8055   81.6785   -6.6958 C   0  0  0  0  0  0  0  0  0  0  0  0
   16.1085   82.3519   -5.5122 C   0  0  0  0  0  0  0  0  0  0  0  0
   15.8067   81.7744   -4.2770 C   0  0  0  0  0  0  0  0  0  0  0  0
   15.1942   80.5263   -4.2235 C   0  0  0  0  0  0  0  0  0  0  0  0
   14.8906   79.9541   -2.9872 C   0  0  0  0  0  0  0  0  0  0  0  0
   14.2818   78.7105   -2.9342 C   0  0  0  0  0  0  0  0  0  0  0  0
   13.9360   78.0413   -4.1197 C   0  0  0  0  0  0  0  0  0  0  0  0
    9.6481   73.8396   -5.5183 C   0  0  0  0  0  0  0  0  0  0  0  0
    9.1975   73.7533   -7.0596 O   0  0  0  0  0  0  0  0  0  0  0  0
    8.5209   74.1174   -4.8270 C   0  0  0  0  0  0  0  0  0  0  0  0
    8.0865   73.0265   -3.9155 O   0  0  0  0  0  0  0  0  0  0  0  0
    7.3676   74.4296   -5.8206 C   0  0  0  0  0  0  0  0  0  0  0  0
    6.3217   73.5924   -5.7129 O   0  0  0  0  0  0  0  0  0  0  0  0
    7.9869   74.2612   -7.2355 C   0  0  0  0  0  0  0  0  0  0  0  0
    7.8684   72.2377   -4.4363 H   0  0  0  0  0  0  0  0  0  0  0  0
    6.6151   72.6843   -5.8870 H   0  0  0  0  0  0  0  0  0  0  0  0
    8.0344   75.5966   -7.9573 C   0  0  0  0  0  0  0  0  0  0  0  0
    6.7800   76.2522   -7.6715 O   0  0  0  0  0  0  0  0  0  0  0  0
    5.7385   76.5235   -8.8481 P   0  0  0  0  0  0  0  0  0  0  0  0
    6.2011   75.8529  -10.0813 O   0  0  0  0  0  0  0  0  0  0  0  0
    4.3891   75.9714   -8.3835 O   0  0  0  0  0  0  0  0  0  0  0  0
    5.6295   78.0059   -9.0894 O   0  0  0  0  0  0  0  0  0  0  0  0
    5.5671   76.0183  -10.7966 H   0  0  0  0  0  0  0  0  0  0  0  0
    4.9960   78.1712   -9.8052 H   0  0  0  0  0  0  0  0  0  0  0  0
 33 31  2  0  0  0
 31 34  1  0  0  0
 31 32  1  0  0  0
 31 30  1  0  0  0
 30 29  1  0  0  0
 21 26  1  0  0  0
 21 20  1  0  0  0
 29 26  1  0  0  0
  8  7  2  0  0  0
  8  9  1  0  0  0
  7  6  1  0  0  0
 17 18  2  0  0  0
 17 16  1  0  0  0
 26 24  1  0  0  0
 18 19  1  0  0  0
  9 20  1  0  0  0
  9  5  1  0  0  0
 15 16  2  0  0  0
 15 14  1  0  0  0
 20 22  1  0  0  0
 16 11  1  0  0  0
  6  5  2  0  0  0
  6  1  1  0  0  0
 19  1  1  0  0  0
 19 10  2  0  0  0
  5  4  1  0  0  0
 14 13  2  0  0  0
 24 22  1  0  0  0
 24 25  1  0  0  0
  1  2  2  0  0  0
 22 23  1  0  0  0
 11 10  1  0  0  0
 11 12  2  0  0  0
  4  3  2  0  0  0
 13 12  1  0  0  0
  2  3  1  0  0  0
 23 27  1  0  0  0
 25 28  1  0  0  0
 32 35  1  0  0  0
 34 36  1  0  0  0
M  END
> <minimizedAffinity>
-9.70677

$$$$
