2UWL_895_A_1245


 29 31  0  0  0  0  0  0  0  0999 V2000
    6.2060    8.0989   21.0480 C   0  0  0  0  0  0  0  0  0  0  0  0
    4.9421    8.1345   20.1676 C   0  0  0  0  0  0  0  0  0  0  0  0
    4.5620    6.6496   20.0952 C   0  0  0  0  0  0  0  0  0  0  0  0
    6.8221    6.7956   20.5975 C   0  0  0  0  0  0  0  0  0  0  0  0
    8.0056    6.5120   20.6790 O   0  0  0  0  0  0  0  0  0  0  0  0
    5.8676    5.9984   20.0813 N   0  0  0  0  0  0  0  0  0  0  0  0
    7.0811    9.2671   20.9495 N   0  0  0  0  0  0  0  0  0  0  0  0
    7.9763    8.9260   20.5993 H   0  0  0  0  0  0  0  0  0  0  0  0
    7.4171   10.1889   22.2361 S   0  0  0  0  0  0  0  0  0  0  0  0
    7.7566   11.4865   21.7645 O   0  0  0  0  0  0  0  0  0  0  0  0
    6.3802   10.0571   23.2116 O   0  0  0  0  0  0  0  0  0  0  0  0
    8.8057    9.3574   24.2994 C   0  0  0  0  0  0  0  0  0  0  0  0
    8.8334    9.4742   22.9623 C   0  0  0  0  0  0  0  0  0  0  0  0
   13.6017    7.5486   26.4660 Cl  0  0  0  0  0  0  0  0  0  0  0  0
   11.9749    7.9689   26.1202 C   0  0  0  0  0  0  0  0  0  0  0  0
   10.8732    7.5800   26.9082 C   0  0  0  0  0  0  0  0  0  0  0  0
    9.6724    8.0216   26.3168 C   0  0  0  0  0  0  0  0  0  0  0  0
    9.8862    8.7454   25.1434 C   0  0  0  0  0  0  0  0  0  0  0  0
   11.5405    8.8717   24.7400 S   0  0  0  0  0  0  0  0  0  0  0  0
    6.1973    4.6469   19.5980 C   0  0  0  0  0  0  0  0  0  0  0  0
    5.0151    3.6739   19.7048 C   0  0  0  0  0  0  0  0  0  0  0  0
    6.7241    4.6315   18.1750 C   0  0  0  0  0  0  0  0  0  0  0  0
    6.1498    5.3245   17.3389 O   0  0  0  0  0  0  0  0  0  0  0  0
    7.8025    3.8516   17.8963 N   0  0  0  0  0  0  0  0  0  0  0  0
    8.5165    3.0253   18.8929 C   0  0  0  0  0  0  0  0  0  0  0  0
    9.4649    1.9565   18.3331 C   0  0  0  0  0  0  0  0  0  0  0  0
   10.1721    2.5297   17.2459 O   0  0  0  0  0  0  0  0  0  0  0  0
    9.2770    2.7678   16.1601 C   0  0  0  0  0  0  0  0  0  0  0  0
    8.2802    3.8771   16.5106 C   0  0  0  0  0  0  0  0  0  0  0  0
 14 15  1  0  0  0
 15 16  2  0  0  0
 16 17  1  0  0  0
 17 18  2  0  0  0
 18 12  1  0  0  0
  9 10  2  0  0  0
  9 11  2  0  0  0
  9  7  1  0  0  0
  7  1  1  0  0  0
  1  2  1  0  0  0
  2  3  1  0  0  0
  1  4  1  0  0  0
  4  5  2  0  0  0
  3  6  1  0  0  0
  4  6  1  0  0  0
  6 20  1  0  0  0
 20 21  1  0  0  0
 20 22  1  0  0  0
 22 23  2  0  0  0
 22 24  1  0  0  0
 24 25  1  0  0  0
 25 26  1  0  0  0
 26 27  1  0  0  0
 27 28  1  0  0  0
 24 29  1  0  0  0
 28 29  1  0  0  0
 15 19  1  0  0  0
 18 19  1  0  0  0
 12 13  2  0  0  0
  9 13  1  0  0  0
  7  8  1  0  0  0
M  END
> <minimizedAffinity>
-7.77896

$$$$
2UWL_895_A_1245


 29 31  0  0  0  0  0  0  0  0999 V2000
    6.2054    8.4400   18.5975 C   0  0  0  0  0  0  0  0  0  0  0  0
    4.9782    9.1617   19.1864 C   0  0  0  0  0  0  0  0  0  0  0  0
    5.6231   10.3579   19.8990 C   0  0  0  0  0  0  0  0  0  0  0  0
    7.2243    8.6931   19.6834 C   0  0  0  0  0  0  0  0  0  0  0  0
    8.2085    8.0054   19.8983 O   0  0  0  0  0  0  0  0  0  0  0  0
    6.8747    9.7874   20.3858 N   0  0  0  0  0  0  0  0  0  0  0  0
    6.0069    7.0336   18.2470 N   0  0  0  0  0  0  0  0  0  0  0  0
    6.8526    6.5433   18.5383 H   0  0  0  0  0  0  0  0  0  0  0  0
    5.7134    6.5698   16.7249 S   0  0  0  0  0  0  0  0  0  0  0  0
    4.4089    6.0057   16.6862 O   0  0  0  0  0  0  0  0  0  0  0  0
    6.0345    7.6320   15.8235 O   0  0  0  0  0  0  0  0  0  0  0  0
    7.3847    4.6904   17.4675 C   0  0  0  0  0  0  0  0  0  0  0  0
    6.8731    5.3095   16.3917 C   0  0  0  0  0  0  0  0  0  0  0  0
   10.0123   -0.1699   16.8035 Cl  0  0  0  0  0  0  0  0  0  0  0  0
    9.5426    1.4475   17.1291 C   0  0  0  0  0  0  0  0  0  0  0  0
   10.3677    2.3982   17.7626 C   0  0  0  0  0  0  0  0  0  0  0  0
    9.6645    3.6055   17.9482 C   0  0  0  0  0  0  0  0  0  0  0  0
    8.3683    3.5564   17.4347 C   0  0  0  0  0  0  0  0  0  0  0  0
    7.9893    2.0398   16.7479 S   0  0  0  0  0  0  0  0  0  0  0  0
    7.7224   10.2771   21.4860 C   0  0  0  0  0  0  0  0  0  0  0  0
    7.7623   11.8093   21.5673 C   0  0  0  0  0  0  0  0  0  0  0  0
    7.3270    9.7195   22.8407 C   0  0  0  0  0  0  0  0  0  0  0  0
    6.1372    9.7332   23.1461 O   0  0  0  0  0  0  0  0  0  0  0  0
    8.3077    9.2350   23.6486 N   0  0  0  0  0  0  0  0  0  0  0  0
    9.7416    9.1945   23.2906 C   0  0  0  0  0  0  0  0  0  0  0  0
   10.7221    8.9521   24.4459 C   0  0  0  0  0  0  0  0  0  0  0  0
   10.1688    7.9496   25.2822 O   0  0  0  0  0  0  0  0  0  0  0  0
    9.0105    8.4580   25.9432 C   0  0  0  0  0  0  0  0  0  0  0  0
    7.8756    8.6988   24.9427 C   0  0  0  0  0  0  0  0  0  0  0  0
 14 15  1  0  0  0
 15 16  2  0  0  0
 16 17  1  0  0  0
 17 18  2  0  0  0
 18 12  1  0  0  0
  9 10  2  0  0  0
  9 11  2  0  0  0
  9  7  1  0  0  0
  7  1  1  0  0  0
  1  2  1  0  0  0
  2  3  1  0  0  0
  1  4  1  0  0  0
  4  5  2  0  0  0
  3  6  1  0  0  0
  4  6  1  0  0  0
  6 20  1  0  0  0
 20 21  1  0  0  0
 20 22  1  0  0  0
 22 23  2  0  0  0
 22 24  1  0  0  0
 24 25  1  0  0  0
 25 26  1  0  0  0
 26 27  1  0  0  0
 27 28  1  0  0  0
 24 29  1  0  0  0
 28 29  1  0  0  0
 15 19  1  0  0  0
 18 19  1  0  0  0
 12 13  2  0  0  0
  9 13  1  0  0  0
  7  8  1  0  0  0
M  END
> <minimizedAffinity>
-7.71395

$$$$
2UWL_895_A_1245


 29 31  0  0  0  0  0  0  0  0999 V2000
    6.6785    7.8876   19.5808 C   0  0  0  0  0  0  0  0  0  0  0  0
    6.0137    7.4647   18.2568 C   0  0  0  0  0  0  0  0  0  0  0  0
    5.3183    6.1555   18.6530 C   0  0  0  0  0  0  0  0  0  0  0  0
    7.0495    6.5383   20.1491 C   0  0  0  0  0  0  0  0  0  0  0  0
    7.9399    6.3366   20.9579 O   0  0  0  0  0  0  0  0  0  0  0  0
    6.2550    5.5896   19.6180 N   0  0  0  0  0  0  0  0  0  0  0  0
    7.7850    8.8370   19.4605 N   0  0  0  0  0  0  0  0  0  0  0  0
    8.6399    8.2808   19.4472 H   0  0  0  0  0  0  0  0  0  0  0  0
    8.0217   10.0095   20.5500 S   0  0  0  0  0  0  0  0  0  0  0  0
    8.7612   11.0468   19.9185 O   0  0  0  0  0  0  0  0  0  0  0  0
    6.7855   10.3332   21.1909 O   0  0  0  0  0  0  0  0  0  0  0  0
    8.6189    9.5147   23.0551 C   0  0  0  0  0  0  0  0  0  0  0  0
    9.0174    9.2952   21.7920 C   0  0  0  0  0  0  0  0  0  0  0  0
   12.2106    7.7825   26.9366 Cl  0  0  0  0  0  0  0  0  0  0  0  0
   10.8435    8.2385   26.0063 C   0  0  0  0  0  0  0  0  0  0  0  0
    9.5087    8.0382   26.4117 C   0  0  0  0  0  0  0  0  0  0  0  0
    8.6245    8.4533   25.3957 C   0  0  0  0  0  0  0  0  0  0  0  0
    9.2889    8.9767   24.2863 C   0  0  0  0  0  0  0  0  0  0  0  0
   10.9872    8.9446   24.4605 S   0  0  0  0  0  0  0  0  0  0  0  0
    6.3846    4.1823   20.0321 C   0  0  0  0  0  0  0  0  0  0  0  0
    5.3271    3.7680   21.0645 C   0  0  0  0  0  0  0  0  0  0  0  0
    6.3478    3.2095   18.8681 C   0  0  0  0  0  0  0  0  0  0  0  0
    5.2812    2.6571   18.6104 O   0  0  0  0  0  0  0  0  0  0  0  0
    7.4955    2.9967   18.1706 N   0  0  0  0  0  0  0  0  0  0  0  0
    8.7830    3.6654   18.4554 C   0  0  0  0  0  0  0  0  0  0  0  0
   10.0277    3.0434   17.8082 C   0  0  0  0  0  0  0  0  0  0  0  0
    9.6918    2.6829   16.4786 O   0  0  0  0  0  0  0  0  0  0  0  0
    8.7607    1.6013   16.4926 C   0  0  0  0  0  0  0  0  0  0  0  0
    7.4079    2.0560   17.0496 C   0  0  0  0  0  0  0  0  0  0  0  0
 14 15  1  0  0  0
 15 16  2  0  0  0
 16 17  1  0  0  0
 17 18  2  0  0  0
 18 12  1  0  0  0
  9 10  2  0  0  0
  9 11  2  0  0  0
  9  7  1  0  0  0
  7  1  1  0  0  0
  1  2  1  0  0  0
  2  3  1  0  0  0
  1  4  1  0  0  0
  4  5  2  0  0  0
  3  6  1  0  0  0
  4  6  1  0  0  0
  6 20  1  0  0  0
 20 21  1  0  0  0
 20 22  1  0  0  0
 22 23  2  0  0  0
 22 24  1  0  0  0
 24 25  1  0  0  0
 25 26  1  0  0  0
 26 27  1  0  0  0
 27 28  1  0  0  0
 24 29  1  0  0  0
 28 29  1  0  0  0
 15 19  1  0  0  0
 18 19  1  0  0  0
 12 13  2  0  0  0
  9 13  1  0  0  0
  7  8  1  0  0  0
M  END
> <minimizedAffinity>
-7.53438

$$$$
2UWL_895_A_1245


 29 31  0  0  0  0  0  0  0  0999 V2000
    3.2320    5.0740   22.6480 C   0  0  0  0  0  0  0  0  0  0  0  0
    2.3662    5.6357   23.7920 C   0  0  0  0  0  0  0  0  0  0  0  0
    2.2941    7.1264   23.4350 C   0  0  0  0  0  0  0  0  0  0  0  0
    4.1789    6.2290   22.4231 C   0  0  0  0  0  0  0  0  0  0  0  0
    5.2904    6.1409   21.9284 O   0  0  0  0  0  0  0  0  0  0  0  0
    3.6139    7.3695   22.8624 N   0  0  0  0  0  0  0  0  0  0  0  0
    3.8739    3.7861   22.9116 N   0  0  0  0  0  0  0  0  0  0  0  0
    4.8771    3.9674   22.9459 H   0  0  0  0  0  0  0  0  0  0  0  0
    3.6740    2.5187   21.9258 S   0  0  0  0  0  0  0  0  0  0  0  0
    4.0986    1.3546   22.6229 O   0  0  0  0  0  0  0  0  0  0  0  0
    2.3610    2.5459   21.3607 O   0  0  0  0  0  0  0  0  0  0  0  0
    6.0232    3.1110   20.9224 C   0  0  0  0  0  0  0  0  0  0  0  0
    4.7620    2.7934   20.5898 C   0  0  0  0  0  0  0  0  0  0  0  0
   10.3965    2.7267   17.5027 Cl  0  0  0  0  0  0  0  0  0  0  0  0
    9.0384    3.2052   18.4350 C   0  0  0  0  0  0  0  0  0  0  0  0
    8.5733    4.5320   18.5313 C   0  0  0  0  0  0  0  0  0  0  0  0
    7.4896    4.6033   19.4296 C   0  0  0  0  0  0  0  0  0  0  0  0
    7.1441    3.3576   19.9543 C   0  0  0  0  0  0  0  0  0  0  0  0
    8.1467    2.1005   19.3801 S   0  0  0  0  0  0  0  0  0  0  0  0
    4.3164    8.6569   22.7276 C   0  0  0  0  0  0  0  0  0  0  0  0
    3.3702    9.8617   22.8227 C   0  0  0  0  0  0  0  0  0  0  0  0
    5.4433    8.8321   23.7286 C   0  0  0  0  0  0  0  0  0  0  0  0
    5.1763    8.7276   24.9231 O   0  0  0  0  0  0  0  0  0  0  0  0
    6.6898    9.0975   23.2545 N   0  0  0  0  0  0  0  0  0  0  0  0
    7.0326    9.2093   21.8207 C   0  0  0  0  0  0  0  0  0  0  0  0
    8.3855    9.8566   21.4956 C   0  0  0  0  0  0  0  0  0  0  0  0
    9.3391    9.3568   22.4184 O   0  0  0  0  0  0  0  0  0  0  0  0
    9.0505    9.8514   23.7257 C   0  0  0  0  0  0  0  0  0  0  0  0
    7.7467    9.2492   24.2591 C   0  0  0  0  0  0  0  0  0  0  0  0
 14 15  1  0  0  0
 15 16  2  0  0  0
 16 17  1  0  0  0
 17 18  2  0  0  0
 18 12  1  0  0  0
  9 10  2  0  0  0
  9 11  2  0  0  0
  9  7  1  0  0  0
  7  1  1  0  0  0
  1  2  1  0  0  0
  2  3  1  0  0  0
  1  4  1  0  0  0
  4  5  2  0  0  0
  3  6  1  0  0  0
  4  6  1  0  0  0
  6 20  1  0  0  0
 20 21  1  0  0  0
 20 22  1  0  0  0
 22 23  2  0  0  0
 22 24  1  0  0  0
 24 25  1  0  0  0
 25 26  1  0  0  0
 26 27  1  0  0  0
 27 28  1  0  0  0
 24 29  1  0  0  0
 28 29  1  0  0  0
 15 19  1  0  0  0
 18 19  1  0  0  0
 12 13  2  0  0  0
  9 13  1  0  0  0
  7  8  1  0  0  0
M  END
> <minimizedAffinity>
-7.15369

$$$$
2UWL_895_A_1245


 29 31  0  0  0  0  0  0  0  0999 V2000
    5.9923    5.7323   20.7614 C   0  0  0  0  0  0  0  0  0  0  0  0
    4.7658    5.8833   21.6816 C   0  0  0  0  0  0  0  0  0  0  0  0
    4.7797    7.3870   21.9873 C   0  0  0  0  0  0  0  0  0  0  0  0
    6.9243    6.7529   21.3707 C   0  0  0  0  0  0  0  0  0  0  0  0
    8.1406    6.7370   21.2799 O   0  0  0  0  0  0  0  0  0  0  0  0
    6.2087    7.6770   22.0393 N   0  0  0  0  0  0  0  0  0  0  0  0
    6.5390    4.3800   20.6494 N   0  0  0  0  0  0  0  0  0  0  0  0
    7.3126    4.3275   21.3122 H   0  0  0  0  0  0  0  0  0  0  0  0
    7.1023    3.8039   19.2462 S   0  0  0  0  0  0  0  0  0  0  0  0
    8.4663    3.4511   19.4373 O   0  0  0  0  0  0  0  0  0  0  0  0
    6.2006    2.8232   18.7274 O   0  0  0  0  0  0  0  0  0  0  0  0
    6.5038    4.8673   16.9251 C   0  0  0  0  0  0  0  0  0  0  0  0
    7.0264    5.1432   18.1305 C   0  0  0  0  0  0  0  0  0  0  0  0
    5.1143    9.2217   13.7508 Cl  0  0  0  0  0  0  0  0  0  0  0  0
    5.7270    7.7646   14.4172 C   0  0  0  0  0  0  0  0  0  0  0  0
    6.4076    6.7798   13.6736 C   0  0  0  0  0  0  0  0  0  0  0  0
    6.7149    5.6764   14.4948 C   0  0  0  0  0  0  0  0  0  0  0  0
    6.3024    5.8581   15.8150 C   0  0  0  0  0  0  0  0  0  0  0  0
    5.5191    7.3554   16.0598 S   0  0  0  0  0  0  0  0  0  0  0  0
    6.8764    8.8109   22.7005 C   0  0  0  0  0  0  0  0  0  0  0  0
    5.9986   10.0691   22.7501 C   0  0  0  0  0  0  0  0  0  0  0  0
    7.3580    8.4877   24.1027 C   0  0  0  0  0  0  0  0  0  0  0  0
    6.5228    8.1453   24.9358 O   0  0  0  0  0  0  0  0  0  0  0  0
    8.6875    8.5947   24.3672 N   0  0  0  0  0  0  0  0  0  0  0  0
    9.7086    8.9881   23.3729 C   0  0  0  0  0  0  0  0  0  0  0  0
   11.0780    9.3961   23.9327 C   0  0  0  0  0  0  0  0  0  0  0  0
   11.4092    8.4913   24.9731 O   0  0  0  0  0  0  0  0  0  0  0  0
   10.5343    8.6912   26.0828 C   0  0  0  0  0  0  0  0  0  0  0  0
    9.1056    8.2632   25.7326 C   0  0  0  0  0  0  0  0  0  0  0  0
 14 15  1  0  0  0
 15 16  2  0  0  0
 16 17  1  0  0  0
 17 18  2  0  0  0
 18 12  1  0  0  0
  9 10  2  0  0  0
  9 11  2  0  0  0
  9  7  1  0  0  0
  7  1  1  0  0  0
  1  2  1  0  0  0
  2  3  1  0  0  0
  1  4  1  0  0  0
  4  5  2  0  0  0
  3  6  1  0  0  0
  4  6  1  0  0  0
  6 20  1  0  0  0
 20 21  1  0  0  0
 20 22  1  0  0  0
 22 23  2  0  0  0
 22 24  1  0  0  0
 24 25  1  0  0  0
 25 26  1  0  0  0
 26 27  1  0  0  0
 27 28  1  0  0  0
 24 29  1  0  0  0
 28 29  1  0  0  0
 15 19  1  0  0  0
 18 19  1  0  0  0
 12 13  2  0  0  0
  9 13  1  0  0  0
  7  8  1  0  0  0
M  END
> <minimizedAffinity>
-6.80954

$$$$
2UWL_895_A_1245


 29 31  0  0  0  0  0  0  0  0999 V2000
    6.1264    7.7812   20.7934 C   0  0  0  0  0  0  0  0  0  0  0  0
    5.2647    9.0379   21.0213 C   0  0  0  0  0  0  0  0  0  0  0  0
    6.3300   10.1150   21.2658 C   0  0  0  0  0  0  0  0  0  0  0  0
    7.2651    8.0477   21.7493 C   0  0  0  0  0  0  0  0  0  0  0  0
    7.9819    7.1941   22.2445 O   0  0  0  0  0  0  0  0  0  0  0  0
    7.3612    9.3707   21.9809 N   0  0  0  0  0  0  0  0  0  0  0  0
    5.4438    6.5010   20.9812 N   0  0  0  0  0  0  0  0  0  0  0  0
    6.0662    5.9245   21.5475 H   0  0  0  0  0  0  0  0  0  0  0  0
    4.9924    5.5856   19.7257 S   0  0  0  0  0  0  0  0  0  0  0  0
    3.7961    4.9087   20.0891 O   0  0  0  0  0  0  0  0  0  0  0  0
    5.0095    6.3641   18.5267 O   0  0  0  0  0  0  0  0  0  0  0  0
    6.8609    4.3855   18.3310 C   0  0  0  0  0  0  0  0  0  0  0  0
    6.2618    4.4043   19.5322 C   0  0  0  0  0  0  0  0  0  0  0  0
   10.6955    0.3709   17.9477 Cl  0  0  0  0  0  0  0  0  0  0  0  0
    9.6657    1.7267   17.7382 C   0  0  0  0  0  0  0  0  0  0  0  0
    9.8299    2.6957   16.7281 C   0  0  0  0  0  0  0  0  0  0  0  0
    8.8680    3.7158   16.8720 C   0  0  0  0  0  0  0  0  0  0  0  0
    7.9977    3.4867   17.9381 C   0  0  0  0  0  0  0  0  0  0  0  0
    8.3575    2.0480   18.7842 S   0  0  0  0  0  0  0  0  0  0  0  0
    8.4185    9.9058   22.8553 C   0  0  0  0  0  0  0  0  0  0  0  0
    8.4227   11.4397   22.9106 C   0  0  0  0  0  0  0  0  0  0  0  0
    8.3594    9.3597   24.2699 C   0  0  0  0  0  0  0  0  0  0  0  0
    7.2787    9.3831   24.8535 O   0  0  0  0  0  0  0  0  0  0  0  0
    9.5039    8.8742   24.8207 N   0  0  0  0  0  0  0  0  0  0  0  0
   10.8087    8.8221   24.1273 C   0  0  0  0  0  0  0  0  0  0  0  0
   12.0381    8.5809   25.0135 C   0  0  0  0  0  0  0  0  0  0  0  0
   11.6986    7.5874   25.9666 O   0  0  0  0  0  0  0  0  0  0  0  0
   10.7366    8.1076   26.8837 C   0  0  0  0  0  0  0  0  0  0  0  0
    9.3948    8.3492   26.1851 C   0  0  0  0  0  0  0  0  0  0  0  0
 14 15  1  0  0  0
 15 16  2  0  0  0
 16 17  1  0  0  0
 17 18  2  0  0  0
 18 12  1  0  0  0
  9 10  2  0  0  0
  9 11  2  0  0  0
  9  7  1  0  0  0
  7  1  1  0  0  0
  1  2  1  0  0  0
  2  3  1  0  0  0
  1  4  1  0  0  0
  4  5  2  0  0  0
  3  6  1  0  0  0
  4  6  1  0  0  0
  6 20  1  0  0  0
 20 21  1  0  0  0
 20 22  1  0  0  0
 22 23  2  0  0  0
 22 24  1  0  0  0
 24 25  1  0  0  0
 25 26  1  0  0  0
 26 27  1  0  0  0
 27 28  1  0  0  0
 24 29  1  0  0  0
 28 29  1  0  0  0
 15 19  1  0  0  0
 18 19  1  0  0  0
 12 13  2  0  0  0
  9 13  1  0  0  0
  7  8  1  0  0  0
M  END
> <minimizedAffinity>
-6.78256

$$$$
2UWL_895_A_1245


 29 31  0  0  0  0  0  0  0  0999 V2000
    7.2401    7.5264   19.2580 C   0  0  0  0  0  0  0  0  0  0  0  0
    8.3344    8.4837   19.7679 C   0  0  0  0  0  0  0  0  0  0  0  0
    8.3942    8.1334   21.2607 C   0  0  0  0  0  0  0  0  0  0  0  0
    6.3139    7.5023   20.4510 C   0  0  0  0  0  0  0  0  0  0  0  0
    5.1246    7.2342   20.4125 O   0  0  0  0  0  0  0  0  0  0  0  0
    6.9987    7.8330   21.5622 N   0  0  0  0  0  0  0  0  0  0  0  0
    6.6115    7.8986   17.9906 N   0  0  0  0  0  0  0  0  0  0  0  0
    5.9104    8.6047   18.2146 H   0  0  0  0  0  0  0  0  0  0  0  0
    5.8730    6.8051   17.0542 S   0  0  0  0  0  0  0  0  0  0  0  0
    4.4724    6.9260   17.2665 O   0  0  0  0  0  0  0  0  0  0  0  0
    6.3798    6.8874   15.7198 O   0  0  0  0  0  0  0  0  0  0  0  0
    7.6112    4.8520   17.2561 C   0  0  0  0  0  0  0  0  0  0  0  0
    6.3934    5.2519   17.6551 C   0  0  0  0  0  0  0  0  0  0  0  0
   10.6847    0.2245   17.5827 Cl  0  0  0  0  0  0  0  0  0  0  0  0
    9.6430    1.5628   17.8397 C   0  0  0  0  0  0  0  0  0  0  0  0
    8.8386    1.7303   18.9846 C   0  0  0  0  0  0  0  0  0  0  0  0
    8.0473    2.8897   18.8576 C   0  0  0  0  0  0  0  0  0  0  0  0
    8.2874    3.5759   17.6669 C   0  0  0  0  0  0  0  0  0  0  0  0
    9.4541    2.8054   16.6868 S   0  0  0  0  0  0  0  0  0  0  0  0
    6.3350    7.8506   22.8768 C   0  0  0  0  0  0  0  0  0  0  0  0
    7.3291    7.9518   24.0418 C   0  0  0  0  0  0  0  0  0  0  0  0
    5.3009    8.9529   23.0111 C   0  0  0  0  0  0  0  0  0  0  0  0
    5.6553   10.1078   22.7876 O   0  0  0  0  0  0  0  0  0  0  0  0
    4.0363    8.6086   23.3733 N   0  0  0  0  0  0  0  0  0  0  0  0
    3.5881    7.2231   23.6290 C   0  0  0  0  0  0  0  0  0  0  0  0
    2.2490    7.0683   24.3625 C   0  0  0  0  0  0  0  0  0  0  0  0
    1.3464    8.0205   23.8246 O   0  0  0  0  0  0  0  0  0  0  0  0
    1.7622    9.3371   24.1861 C   0  0  0  0  0  0  0  0  0  0  0  0
    3.0710    9.7066   23.4809 C   0  0  0  0  0  0  0  0  0  0  0  0
 14 15  1  0  0  0
 15 16  2  0  0  0
 16 17  1  0  0  0
 17 18  2  0  0  0
 18 12  1  0  0  0
  9 10  2  0  0  0
  9 11  2  0  0  0
  9  7  1  0  0  0
  7  1  1  0  0  0
  1  2  1  0  0  0
  2  3  1  0  0  0
  1  4  1  0  0  0
  4  5  2  0  0  0
  3  6  1  0  0  0
  4  6  1  0  0  0
  6 20  1  0  0  0
 20 21  1  0  0  0
 20 22  1  0  0  0
 22 23  2  0  0  0
 22 24  1  0  0  0
 24 25  1  0  0  0
 25 26  1  0  0  0
 26 27  1  0  0  0
 27 28  1  0  0  0
 24 29  1  0  0  0
 28 29  1  0  0  0
 15 19  1  0  0  0
 18 19  1  0  0  0
 12 13  2  0  0  0
  9 13  1  0  0  0
  7  8  1  0  0  0
M  END
> <minimizedAffinity>
-6.77794

$$$$
2UWL_895_A_1245


 29 31  0  0  0  0  0  0  0  0999 V2000
    8.0298    7.8475   19.7147 C   0  0  0  0  0  0  0  0  0  0  0  0
    8.7647    9.1835   19.4935 C   0  0  0  0  0  0  0  0  0  0  0  0
    9.0146    9.6522   20.9332 C   0  0  0  0  0  0  0  0  0  0  0  0
    7.2275    8.1731   20.9523 C   0  0  0  0  0  0  0  0  0  0  0  0
    6.1964    7.6151   21.2888 O   0  0  0  0  0  0  0  0  0  0  0  0
    7.8176    9.1813   21.6219 N   0  0  0  0  0  0  0  0  0  0  0  0
    7.2491    7.3571   18.5790 N   0  0  0  0  0  0  0  0  0  0  0  0
    6.2827    7.6319   18.7552 H   0  0  0  0  0  0  0  0  0  0  0  0
    7.2116    5.7876   18.1871 S   0  0  0  0  0  0  0  0  0  0  0  0
    6.9351    5.6936   16.7956 O   0  0  0  0  0  0  0  0  0  0  0  0
    8.3690    5.1296   18.7082 O   0  0  0  0  0  0  0  0  0  0  0  0
    6.1760    4.3408   20.1134 C   0  0  0  0  0  0  0  0  0  0  0  0
    5.8608    5.1213   19.0676 C   0  0  0  0  0  0  0  0  0  0  0  0
    1.8921    3.0714   23.4307 Cl  0  0  0  0  0  0  0  0  0  0  0  0
    3.3150    3.1024   22.4731 C   0  0  0  0  0  0  0  0  0  0  0  0
    4.2549    2.0537   22.4195 C   0  0  0  0  0  0  0  0  0  0  0  0
    5.3432    2.4176   21.6012 C   0  0  0  0  0  0  0  0  0  0  0  0
    5.1926    3.6860   21.0400 C   0  0  0  0  0  0  0  0  0  0  0  0
    3.7443    4.4512   21.5217 S   0  0  0  0  0  0  0  0  0  0  0  0
    7.2545    9.6718   22.8912 C   0  0  0  0  0  0  0  0  0  0  0  0
    5.7573    9.9947   22.7904 C   0  0  0  0  0  0  0  0  0  0  0  0
    7.4789    8.7218   24.0530 C   0  0  0  0  0  0  0  0  0  0  0  0
    6.5449    8.0035   24.4006 O   0  0  0  0  0  0  0  0  0  0  0  0
    8.6998    8.7142   24.6516 N   0  0  0  0  0  0  0  0  0  0  0  0
    9.8400    9.5586   24.2357 C   0  0  0  0  0  0  0  0  0  0  0  0
   10.9989    9.6729   25.2351 C   0  0  0  0  0  0  0  0  0  0  0  0
   11.2293    8.3852   25.7823 O   0  0  0  0  0  0  0  0  0  0  0  0
   10.1277    8.0076   26.6074 C   0  0  0  0  0  0  0  0  0  0  0  0
    8.8712    7.7734   25.7627 C   0  0  0  0  0  0  0  0  0  0  0  0
 14 15  1  0  0  0
 15 16  2  0  0  0
 16 17  1  0  0  0
 17 18  2  0  0  0
 18 12  1  0  0  0
  9 10  2  0  0  0
  9 11  2  0  0  0
  9  7  1  0  0  0
  7  1  1  0  0  0
  1  2  1  0  0  0
  2  3  1  0  0  0
  1  4  1  0  0  0
  4  5  2  0  0  0
  3  6  1  0  0  0
  4  6  1  0  0  0
  6 20  1  0  0  0
 20 21  1  0  0  0
 20 22  1  0  0  0
 22 23  2  0  0  0
 22 24  1  0  0  0
 24 25  1  0  0  0
 25 26  1  0  0  0
 26 27  1  0  0  0
 27 28  1  0  0  0
 24 29  1  0  0  0
 28 29  1  0  0  0
 15 19  1  0  0  0
 18 19  1  0  0  0
 12 13  2  0  0  0
  9 13  1  0  0  0
  7  8  1  0  0  0
M  END
> <minimizedAffinity>
-6.40288

$$$$
2UWL_895_A_1245


 29 31  0  0  0  0  0  0  0  0999 V2000
    6.7008   10.2584   19.3312 C   0  0  0  0  0  0  0  0  0  0  0  0
    6.9907   11.7490   19.0708 C   0  0  0  0  0  0  0  0  0  0  0  0
    5.8858   12.1192   18.0724 C   0  0  0  0  0  0  0  0  0  0  0  0
    6.2203    9.8260   17.9661 C   0  0  0  0  0  0  0  0  0  0  0  0
    6.2580    8.6852   17.5361 O   0  0  0  0  0  0  0  0  0  0  0  0
    5.7543   10.8940   17.2912 N   0  0  0  0  0  0  0  0  0  0  0  0
    7.8148    9.4804   19.8732 N   0  0  0  0  0  0  0  0  0  0  0  0
    8.3565    9.1580   19.0713 H   0  0  0  0  0  0  0  0  0  0  0  0
    7.5704    8.1829   20.8085 S   0  0  0  0  0  0  0  0  0  0  0  0
    8.4604    8.2699   21.9138 O   0  0  0  0  0  0  0  0  0  0  0  0
    6.1720    8.0209   21.0578 O   0  0  0  0  0  0  0  0  0  0  0  0
    7.7640    5.6069   20.3575 C   0  0  0  0  0  0  0  0  0  0  0  0
    8.0312    6.8128   19.8314 C   0  0  0  0  0  0  0  0  0  0  0  0
    9.3006    1.4807   16.9544 Cl  0  0  0  0  0  0  0  0  0  0  0  0
    8.7210    2.4678   18.2320 C   0  0  0  0  0  0  0  0  0  0  0  0
    8.0395    1.9770   19.3636 C   0  0  0  0  0  0  0  0  0  0  0  0
    7.6329    3.0457   20.1877 C   0  0  0  0  0  0  0  0  0  0  0  0
    8.0341    4.2873   19.6939 C   0  0  0  0  0  0  0  0  0  0  0  0
    8.8830    4.1655   18.2175 S   0  0  0  0  0  0  0  0  0  0  0  0
    5.1900   10.7413   15.9395 C   0  0  0  0  0  0  0  0  0  0  0  0
    3.8108   11.3992   15.7947 C   0  0  0  0  0  0  0  0  0  0  0  0
    6.1043   11.2624   14.8463 C   0  0  0  0  0  0  0  0  0  0  0  0
    6.2827   12.4756   14.7719 O   0  0  0  0  0  0  0  0  0  0  0  0
    6.6781   10.3624   14.0037 N   0  0  0  0  0  0  0  0  0  0  0  0
    6.4887    8.8987   14.0892 C   0  0  0  0  0  0  0  0  0  0  0  0
    6.9163    8.0868   12.8592 C   0  0  0  0  0  0  0  0  0  0  0  0
    8.1449    8.6194   12.3927 O   0  0  0  0  0  0  0  0  0  0  0  0
    7.9326    9.9260   11.8593 C   0  0  0  0  0  0  0  0  0  0  0  0
    7.5603   10.9129   12.9703 C   0  0  0  0  0  0  0  0  0  0  0  0
 14 15  1  0  0  0
 15 16  2  0  0  0
 16 17  1  0  0  0
 17 18  2  0  0  0
 18 12  1  0  0  0
  9 10  2  0  0  0
  9 11  2  0  0  0
  9  7  1  0  0  0
  7  1  1  0  0  0
  1  2  1  0  0  0
  2  3  1  0  0  0
  1  4  1  0  0  0
  4  5  2  0  0  0
  3  6  1  0  0  0
  4  6  1  0  0  0
  6 20  1  0  0  0
 20 21  1  0  0  0
 20 22  1  0  0  0
 22 23  2  0  0  0
 22 24  1  0  0  0
 24 25  1  0  0  0
 25 26  1  0  0  0
 26 27  1  0  0  0
 27 28  1  0  0  0
 24 29  1  0  0  0
 28 29  1  0  0  0
 15 19  1  0  0  0
 18 19  1  0  0  0
 12 13  2  0  0  0
  9 13  1  0  0  0
  7  8  1  0  0  0
M  END
> <minimizedAffinity>
-6.39823

$$$$
2UWL_895_A_1245


 29 31  0  0  0  0  0  0  0  0999 V2000
    6.3975    5.7077   20.5050 C   0  0  0  0  0  0  0  0  0  0  0  0
    5.0786    5.7073   21.3014 C   0  0  0  0  0  0  0  0  0  0  0  0
    4.9186    7.1921   21.6542 C   0  0  0  0  0  0  0  0  0  0  0  0
    7.1638    6.7841   21.2368 C   0  0  0  0  0  0  0  0  0  0  0  0
    8.3791    6.8842   21.2684 O   0  0  0  0  0  0  0  0  0  0  0  0
    6.3014    7.6102   21.8588 N   0  0  0  0  0  0  0  0  0  0  0  0
    7.0795    4.4173   20.4060 N   0  0  0  0  0  0  0  0  0  0  0  0
    7.8066    4.4215   21.1213 H   0  0  0  0  0  0  0  0  0  0  0  0
    7.7921    3.9349   19.0357 S   0  0  0  0  0  0  0  0  0  0  0  0
    8.5309    5.0345   18.5196 O   0  0  0  0  0  0  0  0  0  0  0  0
    8.4628    2.6905   19.2496 O   0  0  0  0  0  0  0  0  0  0  0  0
    6.4963    2.3453   17.4015 C   0  0  0  0  0  0  0  0  0  0  0  0
    6.4868    3.5774   17.9345 C   0  0  0  0  0  0  0  0  0  0  0  0
    1.8233    0.8063   14.8010 Cl  0  0  0  0  0  0  0  0  0  0  0  0
    3.4328    1.1363   15.2942 C   0  0  0  0  0  0  0  0  0  0  0  0
    4.5782    0.6897   14.6052 C   0  0  0  0  0  0  0  0  0  0  0  0
    5.7431    1.0636   15.3050 C   0  0  0  0  0  0  0  0  0  0  0  0
    5.4644    1.7952   16.4597 C   0  0  0  0  0  0  0  0  0  0  0  0
    3.7899    2.0108   16.7142 S   0  0  0  0  0  0  0  0  0  0  0  0
    6.7900    8.7729   22.6192 C   0  0  0  0  0  0  0  0  0  0  0  0
    5.7556    9.9038   22.7033 C   0  0  0  0  0  0  0  0  0  0  0  0
    7.2532    8.4205   24.0205 C   0  0  0  0  0  0  0  0  0  0  0  0
    6.4122    8.0280   24.8254 O   0  0  0  0  0  0  0  0  0  0  0  0
    8.5734    8.5583   24.3157 N   0  0  0  0  0  0  0  0  0  0  0  0
    9.6017    9.0122   23.3553 C   0  0  0  0  0  0  0  0  0  0  0  0
   10.9469    9.4427   23.9556 C   0  0  0  0  0  0  0  0  0  0  0  0
   11.2844    8.5161   24.9745 O   0  0  0  0  0  0  0  0  0  0  0  0
   10.3820    8.6556   26.0714 C   0  0  0  0  0  0  0  0  0  0  0  0
    8.9741    8.1969   25.6788 C   0  0  0  0  0  0  0  0  0  0  0  0
 14 15  1  0  0  0
 15 16  2  0  0  0
 16 17  1  0  0  0
 17 18  2  0  0  0
 18 12  1  0  0  0
  9 10  2  0  0  0
  9 11  2  0  0  0
  9  7  1  0  0  0
  7  1  1  0  0  0
  1  2  1  0  0  0
  2  3  1  0  0  0
  1  4  1  0  0  0
  4  5  2  0  0  0
  3  6  1  0  0  0
  4  6  1  0  0  0
  6 20  1  0  0  0
 20 21  1  0  0  0
 20 22  1  0  0  0
 22 23  2  0  0  0
 22 24  1  0  0  0
 24 25  1  0  0  0
 25 26  1  0  0  0
 26 27  1  0  0  0
 27 28  1  0  0  0
 24 29  1  0  0  0
 28 29  1  0  0  0
 15 19  1  0  0  0
 18 19  1  0  0  0
 12 13  2  0  0  0
  9 13  1  0  0  0
  7  8  1  0  0  0
M  END
> <minimizedAffinity>
-6.34728

$$$$
