1DL7_NCH_L_999


 21 21  0  0  0  0  0  0  0  0999 V2000
  107.3552   22.3806   19.1565 O   0  0  0  0  0  0  0  0  0  0  0  0
  107.2879   23.1602   20.4007 P   0  0  0  0  0  0  0  0  0  0  0  0
  108.0225   22.4560   21.4741 O   0  0  0  0  0  0  0  0  0  0  0  0
  108.9522   22.3544   21.2167 H   0  0  0  0  0  0  0  0  0  0  0  0
  107.9070   24.5841   20.1658 O   0  0  0  0  0  0  0  0  0  0  0  0
  106.6212   26.6798   16.5374 C   0  0  0  0  0  0  0  0  0  0  0  0
  107.8066   27.0020   17.1370 C   0  0  0  0  0  0  0  0  0  0  0  0
  108.2029   26.3292   18.2709 C   0  0  0  0  0  0  0  0  0  0  0  0
  107.4311   25.3253   18.8256 C   0  0  0  0  0  0  0  0  0  0  0  0
  106.2395   25.0255   18.2118 C   0  0  0  0  0  0  0  0  0  0  0  0
  105.8430   25.7019   17.0689 C   0  0  0  0  0  0  0  0  0  0  0  0
  106.1801   27.3666   15.3519 N   0  0  0  0  0  0  0  0  0  0  0  0
  105.2508   26.7463   14.5053 O   0  0  0  0  0  0  0  0  0  0  0  0
  106.7430   28.6321   15.1378 O   0  0  0  0  0  0  0  0  0  0  0  0
  105.7640   23.2896   20.8988 O   0  0  0  0  0  0  0  0  0  0  0  0
  104.8942   22.3854   20.2292 C   0  0  0  0  0  0  0  0  0  0  0  0
  103.4825   22.5369   20.7227 C   0  0  0  0  0  0  0  0  0  0  0  0
  102.8796   21.1633   20.7313 N   0  0  0  0  0  0  0  0  0  0  0  0
  102.7965   20.6314   22.1475 C   0  0  0  0  0  0  0  0  0  0  0  0
  103.6855   20.2492   19.8293 C   0  0  0  0  0  0  0  0  0  0  0  0
  101.3995   21.1617   20.3790 C   0  0  0  0  0  0  0  0  0  0  0  0
  1  2  2  0  0  0
  2  3  1  0  0  0
  2  5  1  0  0  0
  2 15  1  0  0  0
  5  9  1  0  0  0
 15 16  1  0  0  0
 16 17  1  0  0  0
 17 18  1  0  0  0
 18 19  1  0  0  0
 18 20  1  0  0  0
 18 21  1  0  0  0
  6 12  1  0  0  0
  6  7  2  0  0  0
  6 11  1  0  0  0
 12 13  1  0  0  0
 12 14  2  0  0  0
  7  8  1  0  0  0
  8  9  2  0  0  0
  9 10  1  0  0  0
 10 11  2  0  0  0
  3  4  1  0  0  0
M  CHG 1  12   1
M  CHG 1  13  -1
M  CHG 1  18   1
M  END
> <minimizedAffinity>
-6.87753

$$$$
1DL7_NCH_L_999


 21 21  0  0  0  0  0  0  0  0999 V2000
  108.1686   23.3663   20.7397 O   0  0  0  0  0  0  0  0  0  0  0  0
  106.9114   23.1386   20.0130 P   0  0  0  0  0  0  0  0  0  0  0  0
  107.1779   22.3675   18.7793 O   0  0  0  0  0  0  0  0  0  0  0  0
  107.5664   21.5096   19.0118 H   0  0  0  0  0  0  0  0  0  0  0  0
  105.9045   22.3586   20.9315 O   0  0  0  0  0  0  0  0  0  0  0  0
  101.9467   21.6242   19.1974 C   0  0  0  0  0  0  0  0  0  0  0  0
  102.4539   22.8926   19.2468 C   0  0  0  0  0  0  0  0  0  0  0  0
  103.7025   23.1078   19.7856 C   0  0  0  0  0  0  0  0  0  0  0  0
  104.4676   22.0685   20.2810 C   0  0  0  0  0  0  0  0  0  0  0  0
  103.9336   20.8041   20.2298 C   0  0  0  0  0  0  0  0  0  0  0  0
  102.6776   20.5885   19.6848 C   0  0  0  0  0  0  0  0  0  0  0  0
  100.6440   21.3686   18.6412 N   0  0  0  0  0  0  0  0  0  0  0  0
   99.9929   22.3827   17.9249 O   0  0  0  0  0  0  0  0  0  0  0  0
  100.1216   20.0901   18.8793 O   0  0  0  0  0  0  0  0  0  0  0  0
  106.2721   24.5392   19.5475 O   0  0  0  0  0  0  0  0  0  0  0  0
  106.7144   24.9363   18.2556 C   0  0  0  0  0  0  0  0  0  0  0  0
  105.5482   25.2975   17.3786 C   0  0  0  0  0  0  0  0  0  0  0  0
  106.0703   26.2387   16.3338 N   0  0  0  0  0  0  0  0  0  0  0  0
  106.0095   25.5943   14.9640 C   0  0  0  0  0  0  0  0  0  0  0  0
  107.4785   26.6687   16.6955 C   0  0  0  0  0  0  0  0  0  0  0  0
  105.1502   27.4257   16.0901 C   0  0  0  0  0  0  0  0  0  0  0  0
  1  2  2  0  0  0
  2  3  1  0  0  0
  2  5  1  0  0  0
  2 15  1  0  0  0
  5  9  1  0  0  0
 15 16  1  0  0  0
 16 17  1  0  0  0
 17 18  1  0  0  0
 18 19  1  0  0  0
 18 20  1  0  0  0
 18 21  1  0  0  0
  6 12  1  0  0  0
  6  7  2  0  0  0
  6 11  1  0  0  0
 12 13  1  0  0  0
 12 14  2  0  0  0
  7  8  1  0  0  0
  8  9  2  0  0  0
  9 10  1  0  0  0
 10 11  2  0  0  0
  3  4  1  0  0  0
M  CHG 1  12   1
M  CHG 1  13  -1
M  CHG 1  18   1
M  END
> <minimizedAffinity>
-6.83343

$$$$
1DL7_NCH_L_999


 21 21  0  0  0  0  0  0  0  0999 V2000
  109.8585   27.7767   17.9909 O   0  0  0  0  0  0  0  0  0  0  0  0
  108.6437   26.9587   17.8654 P   0  0  0  0  0  0  0  0  0  0  0  0
  108.4110   26.6213   16.4442 O   0  0  0  0  0  0  0  0  0  0  0  0
  109.1663   26.1167   16.1039 H   0  0  0  0  0  0  0  0  0  0  0  0
  108.8004   25.6469   18.7142 O   0  0  0  0  0  0  0  0  0  0  0  0
  105.0925   23.5351   19.7151 C   0  0  0  0  0  0  0  0  0  0  0  0
  106.2238   23.3317   20.4550 C   0  0  0  0  0  0  0  0  0  0  0  0
  107.3792   24.0088   20.1354 C   0  0  0  0  0  0  0  0  0  0  0  0
  107.4294   24.8994   19.0793 C   0  0  0  0  0  0  0  0  0  0  0  0
  106.2834   25.0803   18.3440 C   0  0  0  0  0  0  0  0  0  0  0  0
  105.1204   24.3999   18.6684 C   0  0  0  0  0  0  0  0  0  0  0  0
  103.8704   22.8405   20.0245 N   0  0  0  0  0  0  0  0  0  0  0  0
  103.8311   21.9811   21.1313 O   0  0  0  0  0  0  0  0  0  0  0  0
  102.7956   23.0868   19.1594 O   0  0  0  0  0  0  0  0  0  0  0  0
  107.3562   27.7895   18.3546 O   0  0  0  0  0  0  0  0  0  0  0  0
  107.2391   29.0466   17.7002 C   0  0  0  0  0  0  0  0  0  0  0  0
  107.4505   30.1759   18.6695 C   0  0  0  0  0  0  0  0  0  0  0  0
  108.3934   31.1385   18.0103 N   0  0  0  0  0  0  0  0  0  0  0  0
  107.8831   32.5581   18.1505 C   0  0  0  0  0  0  0  0  0  0  0  0
  108.5864   30.7467   16.5584 C   0  0  0  0  0  0  0  0  0  0  0  0
  109.7155   31.2764   18.7505 C   0  0  0  0  0  0  0  0  0  0  0  0
  1  2  2  0  0  0
  2  3  1  0  0  0
  2  5  1  0  0  0
  2 15  1  0  0  0
  5  9  1  0  0  0
 15 16  1  0  0  0
 16 17  1  0  0  0
 17 18  1  0  0  0
 18 19  1  0  0  0
 18 20  1  0  0  0
 18 21  1  0  0  0
  6 12  1  0  0  0
  6  7  2  0  0  0
  6 11  1  0  0  0
 12 13  1  0  0  0
 12 14  2  0  0  0
  7  8  1  0  0  0
  8  9  2  0  0  0
  9 10  1  0  0  0
 10 11  2  0  0  0
  3  4  1  0  0  0
M  CHG 1  12   1
M  CHG 1  13  -1
M  CHG 1  18   1
M  END
> <minimizedAffinity>
-6.28179

$$$$
1DL7_NCH_L_999


 21 21  0  0  0  0  0  0  0  0999 V2000
  107.9081   26.4826   16.5704 O   0  0  0  0  0  0  0  0  0  0  0  0
  108.4143   26.9890   17.8541 P   0  0  0  0  0  0  0  0  0  0  0  0
  107.4017   27.8654   18.4819 O   0  0  0  0  0  0  0  0  0  0  0  0
  106.5901   27.3588   18.6418 H   0  0  0  0  0  0  0  0  0  0  0  0
  108.7486   25.7829   18.8026 O   0  0  0  0  0  0  0  0  0  0  0  0
  105.3091   23.2663   19.8258 C   0  0  0  0  0  0  0  0  0  0  0  0
  105.1846   24.2599   18.8953 C   0  0  0  0  0  0  0  0  0  0  0  0
  106.2756   25.0369   18.5765 C   0  0  0  0  0  0  0  0  0  0  0  0
  107.5066   24.8385   19.1735 C   0  0  0  0  0  0  0  0  0  0  0  0
  107.6055   23.8410   20.1125 C   0  0  0  0  0  0  0  0  0  0  0  0
  106.5070   23.0580   20.4306 C   0  0  0  0  0  0  0  0  0  0  0  0
  104.1860   22.4389   20.1805 N   0  0  0  0  0  0  0  0  0  0  0  0
  103.1275   22.2932   19.2729 O   0  0  0  0  0  0  0  0  0  0  0  0
  104.2483   21.8394   21.4457 O   0  0  0  0  0  0  0  0  0  0  0  0
  109.7225   27.8955   17.6219 O   0  0  0  0  0  0  0  0  0  0  0  0
  109.4149   29.2809   17.5293 C   0  0  0  0  0  0  0  0  0  0  0  0
  110.3626   30.0961   18.3640 C   0  0  0  0  0  0  0  0  0  0  0  0
  109.7283   31.4435   18.5438 N   0  0  0  0  0  0  0  0  0  0  0  0
  108.2565   31.3864   18.1888 C   0  0  0  0  0  0  0  0  0  0  0  0
  110.4721   32.4701   17.7122 C   0  0  0  0  0  0  0  0  0  0  0  0
  109.6150   31.8571   20.0036 C   0  0  0  0  0  0  0  0  0  0  0  0
  1  2  2  0  0  0
  2  3  1  0  0  0
  2  5  1  0  0  0
  2 15  1  0  0  0
  5  9  1  0  0  0
 15 16  1  0  0  0
 16 17  1  0  0  0
 17 18  1  0  0  0
 18 19  1  0  0  0
 18 20  1  0  0  0
 18 21  1  0  0  0
  6 12  1  0  0  0
  6  7  2  0  0  0
  6 11  1  0  0  0
 12 13  1  0  0  0
 12 14  2  0  0  0
  7  8  1  0  0  0
  8  9  2  0  0  0
  9 10  1  0  0  0
 10 11  2  0  0  0
  3  4  1  0  0  0
M  CHG 1  12   1
M  CHG 1  13  -1
M  CHG 1  18   1
M  END
> <minimizedAffinity>
-6.25232

$$$$
1DL7_NCH_L_999


 21 21  0  0  0  0  0  0  0  0999 V2000
  105.4999   28.1625   16.3646 O   0  0  0  0  0  0  0  0  0  0  0  0
  106.9400   28.1280   16.6567 P   0  0  0  0  0  0  0  0  0  0  0  0
  107.1890   28.6582   18.0149 O   0  0  0  0  0  0  0  0  0  0  0  0
  106.7229   28.1109   18.6661 H   0  0  0  0  0  0  0  0  0  0  0  0
  107.4658   26.6523   16.5474 O   0  0  0  0  0  0  0  0  0  0  0  0
  106.4546   23.9856   19.8754 C   0  0  0  0  0  0  0  0  0  0  0  0
  107.7157   24.5006   19.7625 C   0  0  0  0  0  0  0  0  0  0  0  0
  108.0172   25.3446   18.7174 C   0  0  0  0  0  0  0  0  0  0  0  0
  107.0721   25.6925   17.7704 C   0  0  0  0  0  0  0  0  0  0  0  0
  105.8145   25.1553   17.8985 C   0  0  0  0  0  0  0  0  0  0  0  0
  105.5118   24.3078   18.9526 C   0  0  0  0  0  0  0  0  0  0  0  0
  106.1104   23.0997   20.9565 N   0  0  0  0  0  0  0  0  0  0  0  0
  104.8733   22.4407   20.9360 O   0  0  0  0  0  0  0  0  0  0  0  0
  107.0701   22.9767   21.9704 O   0  0  0  0  0  0  0  0  0  0  0  0
  107.7409   29.0826   15.6396 O   0  0  0  0  0  0  0  0  0  0  0  0
  107.9195   30.3966   16.1531 C   0  0  0  0  0  0  0  0  0  0  0  0
  109.3291   30.8700   15.9327 C   0  0  0  0  0  0  0  0  0  0  0  0
  109.9088   31.1428   17.2890 N   0  0  0  0  0  0  0  0  0  0  0  0
  110.8798   32.3040   17.2250 C   0  0  0  0  0  0  0  0  0  0  0  0
  110.5647   29.8847   17.8236 C   0  0  0  0  0  0  0  0  0  0  0  0
  108.8940   31.7222   18.2635 C   0  0  0  0  0  0  0  0  0  0  0  0
  1  2  2  0  0  0
  2  3  1  0  0  0
  2  5  1  0  0  0
  2 15  1  0  0  0
  5  9  1  0  0  0
 15 16  1  0  0  0
 16 17  1  0  0  0
 17 18  1  0  0  0
 18 19  1  0  0  0
 18 20  1  0  0  0
 18 21  1  0  0  0
  6 12  1  0  0  0
  6  7  2  0  0  0
  6 11  1  0  0  0
 12 13  1  0  0  0
 12 14  2  0  0  0
  7  8  1  0  0  0
  8  9  2  0  0  0
  9 10  1  0  0  0
 10 11  2  0  0  0
  3  4  1  0  0  0
M  CHG 1  12   1
M  CHG 1  13  -1
M  CHG 1  18   1
M  END
> <minimizedAffinity>
-5.96882

$$$$
1DL7_NCH_L_999


 21 21  0  0  0  0  0  0  0  0999 V2000
  109.2540   27.6116   17.2519 O   0  0  0  0  0  0  0  0  0  0  0  0
  107.8593   27.9002   16.8884 P   0  0  0  0  0  0  0  0  0  0  0  0
  107.8229   28.8176   15.7288 O   0  0  0  0  0  0  0  0  0  0  0  0
  108.2649   28.4007   14.9727 H   0  0  0  0  0  0  0  0  0  0  0  0
  107.1159   26.5610   16.5423 O   0  0  0  0  0  0  0  0  0  0  0  0
  106.3731   23.8910   19.9379 C   0  0  0  0  0  0  0  0  0  0  0  0
  107.6083   24.4470   19.7546 C   0  0  0  0  0  0  0  0  0  0  0  0
  107.8253   25.2915   18.6891 C   0  0  0  0  0  0  0  0  0  0  0  0
  106.8203   25.5992   17.7912 C   0  0  0  0  0  0  0  0  0  0  0  0
  105.5902   25.0212   17.9896 C   0  0  0  0  0  0  0  0  0  0  0  0
  105.3726   24.1733   19.0642 C   0  0  0  0  0  0  0  0  0  0  0  0
  106.1169   23.0036   21.0418 N   0  0  0  0  0  0  0  0  0  0  0  0
  107.0671   22.8909   22.0663 O   0  0  0  0  0  0  0  0  0  0  0  0
  104.9047   22.3022   20.9889 O   0  0  0  0  0  0  0  0  0  0  0  0
  107.1117   28.6580   18.0943 O   0  0  0  0  0  0  0  0  0  0  0  0
  107.0101   30.0596   17.8761 C   0  0  0  0  0  0  0  0  0  0  0  0
  107.6148   30.8241   19.0203 C   0  0  0  0  0  0  0  0  0  0  0  0
  108.7643   31.6056   18.4564 N   0  0  0  0  0  0  0  0  0  0  0  0
  109.1139   32.7640   19.3681 C   0  0  0  0  0  0  0  0  0  0  0  0
  108.4228   32.0712   17.0544 C   0  0  0  0  0  0  0  0  0  0  0  0
  110.0812   30.8452   18.5061 C   0  0  0  0  0  0  0  0  0  0  0  0
  1  2  2  0  0  0
  2  3  1  0  0  0
  2  5  1  0  0  0
  2 15  1  0  0  0
  5  9  1  0  0  0
 15 16  1  0  0  0
 16 17  1  0  0  0
 17 18  1  0  0  0
 18 19  1  0  0  0
 18 20  1  0  0  0
 18 21  1  0  0  0
  6 12  1  0  0  0
  6  7  2  0  0  0
  6 11  1  0  0  0
 12 13  1  0  0  0
 12 14  2  0  0  0
  7  8  1  0  0  0
  8  9  2  0  0  0
  9 10  1  0  0  0
 10 11  2  0  0  0
  3  4  1  0  0  0
M  CHG 1  12   1
M  CHG 1  13  -1
M  CHG 1  18   1
M  END
> <minimizedAffinity>
-5.94361

$$$$
1DL7_NCH_L_999


 21 21  0  0  0  0  0  0  0  0999 V2000
  106.6754   28.7244   17.4092 O   0  0  0  0  0  0  0  0  0  0  0  0
  106.4721   28.0925   16.0978 P   0  0  0  0  0  0  0  0  0  0  0  0
  107.0988   28.9166   15.0414 O   0  0  0  0  0  0  0  0  0  0  0  0
  108.0511   28.9898   15.2108 H   0  0  0  0  0  0  0  0  0  0  0  0
  107.0980   26.6523   16.1030 O   0  0  0  0  0  0  0  0  0  0  0  0
  106.3253   24.2195   19.6659 C   0  0  0  0  0  0  0  0  0  0  0  0
  107.5383   24.8259   19.4942 C   0  0  0  0  0  0  0  0  0  0  0  0
  107.7643   25.5950   18.3748 C   0  0  0  0  0  0  0  0  0  0  0  0
  106.7903   25.7764   17.4107 C   0  0  0  0  0  0  0  0  0  0  0  0
  105.5829   25.1496   17.5996 C   0  0  0  0  0  0  0  0  0  0  0  0
  105.3559   24.3777   18.7281 C   0  0  0  0  0  0  0  0  0  0  0  0
  106.0604   23.4085   20.8252 N   0  0  0  0  0  0  0  0  0  0  0  0
  107.0294   23.3162   21.8339 O   0  0  0  0  0  0  0  0  0  0  0  0
  104.8204   22.7554   20.8395 O   0  0  0  0  0  0  0  0  0  0  0  0
  104.9036   28.0181   15.7491 O   0  0  0  0  0  0  0  0  0  0  0  0
  104.6598   27.5022   14.4465 C   0  0  0  0  0  0  0  0  0  0  0  0
  104.0175   26.1452   14.5202 C   0  0  0  0  0  0  0  0  0  0  0  0
  104.4578   25.3935   13.2991 N   0  0  0  0  0  0  0  0  0  0  0  0
  104.9169   26.3559   12.2228 C   0  0  0  0  0  0  0  0  0  0  0  0
  103.3302   24.5014   12.8178 C   0  0  0  0  0  0  0  0  0  0  0  0
  105.7523   24.6225   13.5104 C   0  0  0  0  0  0  0  0  0  0  0  0
  1  2  2  0  0  0
  2  3  1  0  0  0
  2  5  1  0  0  0
  2 15  1  0  0  0
  5  9  1  0  0  0
 15 16  1  0  0  0
 16 17  1  0  0  0
 17 18  1  0  0  0
 18 19  1  0  0  0
 18 20  1  0  0  0
 18 21  1  0  0  0
  6 12  1  0  0  0
  6  7  2  0  0  0
  6 11  1  0  0  0
 12 13  1  0  0  0
 12 14  2  0  0  0
  7  8  1  0  0  0
  8  9  2  0  0  0
  9 10  1  0  0  0
 10 11  2  0  0  0
  3  4  1  0  0  0
M  CHG 1  12   1
M  CHG 1  13  -1
M  CHG 1  18   1
M  END
> <minimizedAffinity>
-5.83361

$$$$
1DL7_NCH_L_999


 21 21  0  0  0  0  0  0  0  0999 V2000
  107.3797   28.8102   18.3579 O   0  0  0  0  0  0  0  0  0  0  0  0
  108.5229   28.4035   17.5283 P   0  0  0  0  0  0  0  0  0  0  0  0
  109.7344   28.2831   18.3683 O   0  0  0  0  0  0  0  0  0  0  0  0
  109.5879   27.6114   19.0526 H   0  0  0  0  0  0  0  0  0  0  0  0
  108.2086   27.0313   16.8324 O   0  0  0  0  0  0  0  0  0  0  0  0
  105.7983   24.2140   19.1698 C   0  0  0  0  0  0  0  0  0  0  0  0
  107.0928   24.4737   19.5238 C   0  0  0  0  0  0  0  0  0  0  0  0
  107.8357   25.3681   18.7863 C   0  0  0  0  0  0  0  0  0  0  0  0
  107.3053   26.0201   17.6887 C   0  0  0  0  0  0  0  0  0  0  0  0
  106.0059   25.7361   17.3460 C   0  0  0  0  0  0  0  0  0  0  0  0
  105.2585   24.8374   18.0908 C   0  0  0  0  0  0  0  0  0  0  0  0
  104.9977   23.2830   19.9208 N   0  0  0  0  0  0  0  0  0  0  0  0
  105.5636   22.6228   21.0204 O   0  0  0  0  0  0  0  0  0  0  0  0
  103.6835   23.1073   19.4669 O   0  0  0  0  0  0  0  0  0  0  0  0
  108.8423   29.5289   16.4244 O   0  0  0  0  0  0  0  0  0  0  0  0
  109.5057   30.6593   16.9761 C   0  0  0  0  0  0  0  0  0  0  0  0
  108.5827   31.8441   17.0372 C   0  0  0  0  0  0  0  0  0  0  0  0
  108.7747   32.4705   18.3866 N   0  0  0  0  0  0  0  0  0  0  0  0
  107.4851   32.4217   19.1803 C   0  0  0  0  0  0  0  0  0  0  0  0
  109.2843   33.8888   18.2204 C   0  0  0  0  0  0  0  0  0  0  0  0
  109.6620   31.6433   19.3049 C   0  0  0  0  0  0  0  0  0  0  0  0
  1  2  2  0  0  0
  2  3  1  0  0  0
  2  5  1  0  0  0
  2 15  1  0  0  0
  5  9  1  0  0  0
 15 16  1  0  0  0
 16 17  1  0  0  0
 17 18  1  0  0  0
 18 19  1  0  0  0
 18 20  1  0  0  0
 18 21  1  0  0  0
  6 12  1  0  0  0
  6  7  2  0  0  0
  6 11  1  0  0  0
 12 13  1  0  0  0
 12 14  2  0  0  0
  7  8  1  0  0  0
  8  9  2  0  0  0
  9 10  1  0  0  0
 10 11  2  0  0  0
  3  4  1  0  0  0
M  CHG 1  12   1
M  CHG 1  13  -1
M  CHG 1  18   1
M  END
> <minimizedAffinity>
-5.81895

$$$$
1DL7_NCH_L_999


 21 21  0  0  0  0  0  0  0  0999 V2000
  107.2872   28.8548   18.3677 O   0  0  0  0  0  0  0  0  0  0  0  0
  108.3718   28.5026   17.4403 P   0  0  0  0  0  0  0  0  0  0  0  0
  109.6705   28.5493   18.1467 O   0  0  0  0  0  0  0  0  0  0  0  0
  109.6635   27.9128   18.8786 H   0  0  0  0  0  0  0  0  0  0  0  0
  108.1236   27.0650   16.8591 O   0  0  0  0  0  0  0  0  0  0  0  0
  106.6569   24.0797   19.7134 C   0  0  0  0  0  0  0  0  0  0  0  0
  107.9457   24.5292   19.7863 C   0  0  0  0  0  0  0  0  0  0  0  0
  108.3906   25.4742   18.8892 C   0  0  0  0  0  0  0  0  0  0  0  0
  107.5636   25.9892   17.9085 C   0  0  0  0  0  0  0  0  0  0  0  0
  106.2758   25.5156   17.8482 C   0  0  0  0  0  0  0  0  0  0  0  0
  105.8285   24.5661   18.7535 C   0  0  0  0  0  0  0  0  0  0  0  0
  106.1640   23.0914   20.6365 N   0  0  0  0  0  0  0  0  0  0  0  0
  106.8052   22.9266   21.8722 O   0  0  0  0  0  0  0  0  0  0  0  0
  105.0558   22.3522   20.2010 O   0  0  0  0  0  0  0  0  0  0  0  0
  108.4610   29.5787   16.2482 O   0  0  0  0  0  0  0  0  0  0  0  0
  107.2089   30.1964   15.9782 C   0  0  0  0  0  0  0  0  0  0  0  0
  106.7315   29.8551   14.5943 C   0  0  0  0  0  0  0  0  0  0  0  0
  105.4041   29.1745   14.7524 N   0  0  0  0  0  0  0  0  0  0  0  0
  104.5348   29.4227   13.5366 C   0  0  0  0  0  0  0  0  0  0  0  0
  104.7394   29.6480   16.0302 C   0  0  0  0  0  0  0  0  0  0  0  0
  105.5017   27.6578   14.6815 C   0  0  0  0  0  0  0  0  0  0  0  0
  1  2  2  0  0  0
  2  3  1  0  0  0
  2  5  1  0  0  0
  2 15  1  0  0  0
  5  9  1  0  0  0
 15 16  1  0  0  0
 16 17  1  0  0  0
 17 18  1  0  0  0
 18 19  1  0  0  0
 18 20  1  0  0  0
 18 21  1  0  0  0
  6 12  1  0  0  0
  6  7  2  0  0  0
  6 11  1  0  0  0
 12 13  1  0  0  0
 12 14  2  0  0  0
  7  8  1  0  0  0
  8  9  2  0  0  0
  9 10  1  0  0  0
 10 11  2  0  0  0
  3  4  1  0  0  0
M  CHG 1  12   1
M  CHG 1  13  -1
M  CHG 1  18   1
M  END
> <minimizedAffinity>
-5.76592

$$$$
1DL7_NCH_L_999


 21 21  0  0  0  0  0  0  0  0999 V2000
  104.9671   29.0140   16.2214 O   0  0  0  0  0  0  0  0  0  0  0  0
  106.3990   29.2465   16.4581 P   0  0  0  0  0  0  0  0  0  0  0  0
  106.6246   29.5774   17.8820 O   0  0  0  0  0  0  0  0  0  0  0  0
  106.3303   28.8379   18.4364 H   0  0  0  0  0  0  0  0  0  0  0  0
  107.2143   27.9631   16.0653 O   0  0  0  0  0  0  0  0  0  0  0  0
  106.8666   24.6541   18.9183 C   0  0  0  0  0  0  0  0  0  0  0  0
  105.8761   24.8846   18.0048 C   0  0  0  0  0  0  0  0  0  0  0  0
  106.0026   25.9217   17.1082 C   0  0  0  0  0  0  0  0  0  0  0  0
  107.1139   26.7439   17.1023 C   0  0  0  0  0  0  0  0  0  0  0  0
  108.0917   26.4995   18.0354 C   0  0  0  0  0  0  0  0  0  0  0  0
  107.9643   25.4535   18.9357 C   0  0  0  0  0  0  0  0  0  0  0  0
  106.7617   23.5783   19.8688 N   0  0  0  0  0  0  0  0  0  0  0  0
  107.4067   22.3624   19.6027 O   0  0  0  0  0  0  0  0  0  0  0  0
  105.9927   23.8476   21.0090 O   0  0  0  0  0  0  0  0  0  0  0  0
  106.9087   30.5133   15.6082 O   0  0  0  0  0  0  0  0  0  0  0  0
  107.8486   31.3056   16.3233 C   0  0  0  0  0  0  0  0  0  0  0  0
  109.2513   31.0097   15.8712 C   0  0  0  0  0  0  0  0  0  0  0  0
  110.1106   31.0174   17.1006 N   0  0  0  0  0  0  0  0  0  0  0  0
  109.4431   31.8081   18.2072 C   0  0  0  0  0  0  0  0  0  0  0  0
  111.4814   31.5678   16.7587 C   0  0  0  0  0  0  0  0  0  0  0  0
  110.1885   29.6582   17.7799 C   0  0  0  0  0  0  0  0  0  0  0  0
  1  2  2  0  0  0
  2  3  1  0  0  0
  2  5  1  0  0  0
  2 15  1  0  0  0
  5  9  1  0  0  0
 15 16  1  0  0  0
 16 17  1  0  0  0
 17 18  1  0  0  0
 18 19  1  0  0  0
 18 20  1  0  0  0
 18 21  1  0  0  0
  6 12  1  0  0  0
  6  7  2  0  0  0
  6 11  1  0  0  0
 12 13  1  0  0  0
 12 14  2  0  0  0
  7  8  1  0  0  0
  8  9  2  0  0  0
  9 10  1  0  0  0
 10 11  2  0  0  0
  3  4  1  0  0  0
M  CHG 1  12   1
M  CHG 1  13  -1
M  CHG 1  18   1
M  END
> <minimizedAffinity>
-5.70314

$$$$
