3RLQ_3RQ_A_901


 23 25  0  0  0  0  0  0  0  0999 V2000
   17.4314   -1.7542   49.4281 N   0  0  0  0  0  0  0  0  0  0  0  0
   17.2401    0.6041   48.9438 N   0  0  0  0  0  0  0  0  0  0  0  0
   15.0253   -1.3792   50.8913 C   0  0  0  0  0  0  0  0  0  0  0  0
   17.4125   -4.1193   50.0650 C   0  0  0  0  0  0  0  0  0  0  0  0
   15.3717    1.1410   50.0313 C   0  0  0  0  0  0  0  0  0  0  0  0
   16.3836    1.6368   49.2415 C   0  0  0  0  0  0  0  0  0  0  0  0
   15.6145   -0.2569   50.2263 C   0  0  0  0  0  0  0  0  0  0  0  0
   16.7997   -0.5458   49.5283 C   0  0  0  0  0  0  0  0  0  0  0  0
   16.7936   -2.7496   50.1018 C   0  0  0  0  0  0  0  0  0  0  0  0
   15.6416   -2.6194   50.8123 N   0  0  0  0  0  0  0  0  0  0  0  0
   18.0508    0.6830   48.3908 H   0  0  0  0  0  0  0  0  0  0  0  0
   12.4798   -1.2017   51.0600 C   0  0  0  0  0  0  0  0  0  0  0  0
   11.3073   -1.2243   51.8470 C   0  0  0  0  0  0  0  0  0  0  0  0
   11.3894   -1.4073   53.2430 C   0  0  0  0  0  0  0  0  0  0  0  0
   13.8422   -1.5477   53.0824 C   0  0  0  0  0  0  0  0  0  0  0  0
   13.7825   -1.3704   51.6669 C   0  0  0  0  0  0  0  0  0  0  0  0
   12.6551   -1.5668   53.8964 C   0  0  0  0  0  0  0  0  0  0  0  0
   12.2585   -0.9635   49.3515 Cl  0  0  0  0  0  0  0  0  0  0  0  0
    9.9024   -1.4287   54.1162 Cl  0  0  0  0  0  0  0  0  0  0  0  0
   13.2124   -0.7451   56.1321 C   0  0  0  0  0  0  0  0  0  0  0  0
   12.6161   -1.7283   55.2744 O   0  0  0  0  0  0  0  0  0  0  0  0
   14.2963    1.9364   50.5435 C   0  0  0  0  0  0  0  0  0  0  0  0
   13.4445    2.5787   50.9904 N   0  0  0  0  0  0  0  0  0  0  0  0
  8  1  2  0  0  0
  1  9  1  0  0  0
  2  6  1  0  0  0
  2  8  1  0  0  0
 18 12  1  0  0  0
 12 16  2  0  0  0
 12 13  1  0  0  0
 13 14  2  0  0  0
 14 17  1  0  0  0
 14 19  1  0  0  0
 21 20  1  0  0  0
  7  3  2  0  0  0
  3 10  1  0  0  0
  3 16  1  0  0  0
  9  4  1  0  0  0
  6  5  2  0  0  0
  5  7  1  0  0  0
  5 22  1  0  0  0
 22 23  3  0  0  0
 16 15  1  0  0  0
 15 17  2  0  0  0
  8  7  1  0  0  0
 17 21  1  0  0  0
  9 10  2  0  0  0
  2 11  1  0  0  0
M  END
> <minimizedAffinity>
-8.58276

$$$$
3RLQ_3RQ_A_901


 23 25  0  0  0  0  0  0  0  0999 V2000
   17.0068   -0.3232   49.3180 N   0  0  0  0  0  0  0  0  0  0  0  0
   17.6713   -2.6377   49.5019 N   0  0  0  0  0  0  0  0  0  0  0  0
   15.0544   -1.0036   51.2664 C   0  0  0  0  0  0  0  0  0  0  0  0
   16.1437    1.9691   49.3002 C   0  0  0  0  0  0  0  0  0  0  0  0
   16.2275   -3.4059   51.0143 C   0  0  0  0  0  0  0  0  0  0  0  0
   17.2844   -3.7537   50.2044 C   0  0  0  0  0  0  0  0  0  0  0  0
   15.9536   -2.0162   50.8027 C   0  0  0  0  0  0  0  0  0  0  0  0
   16.8827   -1.5795   49.8427 C   0  0  0  0  0  0  0  0  0  0  0  0
   16.1006    0.5590   49.8199 C   0  0  0  0  0  0  0  0  0  0  0  0
   15.1511    0.2813   50.7529 N   0  0  0  0  0  0  0  0  0  0  0  0
   18.4081   -2.6071   48.8497 H   0  0  0  0  0  0  0  0  0  0  0  0
   12.5975   -1.1778   51.9538 C   0  0  0  0  0  0  0  0  0  0  0  0
   11.6255   -1.3690   52.9605 C   0  0  0  0  0  0  0  0  0  0  0  0
   12.0167   -1.5537   54.3028 C   0  0  0  0  0  0  0  0  0  0  0  0
   14.3805   -1.3554   53.6435 C   0  0  0  0  0  0  0  0  0  0  0  0
   14.0078   -1.1731   52.2773 C   0  0  0  0  0  0  0  0  0  0  0  0
   13.3995   -1.5454   54.6798 C   0  0  0  0  0  0  0  0  0  0  0  0
   11.9998   -0.9541   50.3359 Cl  0  0  0  0  0  0  0  0  0  0  0  0
   10.7573   -1.7875   55.4576 Cl  0  0  0  0  0  0  0  0  0  0  0  0
   13.8583   -0.5887   56.8839 C   0  0  0  0  0  0  0  0  0  0  0  0
   13.6667   -1.7253   56.0299 O   0  0  0  0  0  0  0  0  0  0  0  0
   15.5565   -4.3214   51.8878 C   0  0  0  0  0  0  0  0  0  0  0  0
   15.0296   -5.0430   52.6223 N   0  0  0  0  0  0  0  0  0  0  0  0
  8  1  2  0  0  0
  1  9  1  0  0  0
  2  6  1  0  0  0
  2  8  1  0  0  0
 18 12  1  0  0  0
 12 16  2  0  0  0
 12 13  1  0  0  0
 13 14  2  0  0  0
 14 17  1  0  0  0
 14 19  1  0  0  0
 21 20  1  0  0  0
  7  3  2  0  0  0
  3 10  1  0  0  0
  3 16  1  0  0  0
  9  4  1  0  0  0
  6  5  2  0  0  0
  5  7  1  0  0  0
  5 22  1  0  0  0
 22 23  3  0  0  0
 16 15  1  0  0  0
 15 17  2  0  0  0
  8  7  1  0  0  0
 17 21  1  0  0  0
  9 10  2  0  0  0
  2 11  1  0  0  0
M  END
> <minimizedAffinity>
-7.65791

$$$$
3RLQ_3RQ_A_901


 23 25  0  0  0  0  0  0  0  0999 V2000
   17.2132   -0.7734   49.2208 N   0  0  0  0  0  0  0  0  0  0  0  0
   17.7425   -3.1297   49.2116 N   0  0  0  0  0  0  0  0  0  0  0  0
   15.8629   -1.3561   51.6515 C   0  0  0  0  0  0  0  0  0  0  0  0
   16.5405    1.5710   49.4465 C   0  0  0  0  0  0  0  0  0  0  0  0
   16.7465   -3.8263   51.0784 C   0  0  0  0  0  0  0  0  0  0  0  0
   17.4989   -4.2295   49.9990 C   0  0  0  0  0  0  0  0  0  0  0  0
   16.5190   -2.4180   50.9509 C   0  0  0  0  0  0  0  0  0  0  0  0
   17.1598   -2.0276   49.7625 C   0  0  0  0  0  0  0  0  0  0  0  0
   16.5525    0.1582   49.9604 C   0  0  0  0  0  0  0  0  0  0  0  0
   15.8953   -0.0718   51.1284 N   0  0  0  0  0  0  0  0  0  0  0  0
   18.2606   -3.1369   48.3745 H   0  0  0  0  0  0  0  0  0  0  0  0
   15.8078   -1.7367   54.1797 C   0  0  0  0  0  0  0  0  0  0  0  0
   15.0729   -1.8170   55.3830 C   0  0  0  0  0  0  0  0  0  0  0  0
   13.6729   -1.6459   55.3759 C   0  0  0  0  0  0  0  0  0  0  0  0
   13.7244   -1.3098   52.9374 C   0  0  0  0  0  0  0  0  0  0  0  0
   15.1427   -1.4731   52.9219 C   0  0  0  0  0  0  0  0  0  0  0  0
   12.9631   -1.3950   54.1563 C   0  0  0  0  0  0  0  0  0  0  0  0
   17.5265   -1.9699   54.3075 Cl  0  0  0  0  0  0  0  0  0  0  0  0
   12.8658   -1.7534   56.8961 Cl  0  0  0  0  0  0  0  0  0  0  0  0
   10.7355   -1.6097   53.1684 C   0  0  0  0  0  0  0  0  0  0  0  0
   11.5867   -1.2547   54.2672 O   0  0  0  0  0  0  0  0  0  0  0  0
   16.2945   -4.7100   52.1110 C   0  0  0  0  0  0  0  0  0  0  0  0
   15.9139   -5.3946   52.9620 N   0  0  0  0  0  0  0  0  0  0  0  0
  8  1  2  0  0  0
  1  9  1  0  0  0
  2  6  1  0  0  0
  2  8  1  0  0  0
 18 12  1  0  0  0
 12 16  2  0  0  0
 12 13  1  0  0  0
 13 14  2  0  0  0
 14 17  1  0  0  0
 14 19  1  0  0  0
 21 20  1  0  0  0
  7  3  2  0  0  0
  3 10  1  0  0  0
  3 16  1  0  0  0
  9  4  1  0  0  0
  6  5  2  0  0  0
  5  7  1  0  0  0
  5 22  1  0  0  0
 22 23  3  0  0  0
 16 15  1  0  0  0
 15 17  2  0  0  0
  8  7  1  0  0  0
 17 21  1  0  0  0
  9 10  2  0  0  0
  2 11  1  0  0  0
M  END
> <minimizedAffinity>
-7.45154

$$$$
3RLQ_3RQ_A_901


 23 25  0  0  0  0  0  0  0  0999 V2000
   17.1592   -1.1127   49.1366 N   0  0  0  0  0  0  0  0  0  0  0  0
   17.6250   -3.4769   49.2980 N   0  0  0  0  0  0  0  0  0  0  0  0
   16.0692   -1.4185   51.7422 C   0  0  0  0  0  0  0  0  0  0  0  0
   16.5744    1.2649   49.2059 C   0  0  0  0  0  0  0  0  0  0  0  0
   16.8223   -3.9610   51.3187 C   0  0  0  0  0  0  0  0  0  0  0  0
   17.4417   -4.4893   50.2091 C   0  0  0  0  0  0  0  0  0  0  0  0
   16.6177   -2.5636   51.0812 C   0  0  0  0  0  0  0  0  0  0  0  0
   17.1341   -2.3083   49.7992 C   0  0  0  0  0  0  0  0  0  0  0  0
   16.6071   -0.0935   49.8493 C   0  0  0  0  0  0  0  0  0  0  0  0
   16.0763   -0.1904   51.0974 N   0  0  0  0  0  0  0  0  0  0  0  0
   18.0479   -3.5802   48.4150 H   0  0  0  0  0  0  0  0  0  0  0  0
   14.0633   -1.3554   53.3271 C   0  0  0  0  0  0  0  0  0  0  0  0
   13.5512   -1.3545   54.6433 C   0  0  0  0  0  0  0  0  0  0  0  0
   14.4267   -1.3834   55.7487 C   0  0  0  0  0  0  0  0  0  0  0  0
   16.3575   -1.4135   54.2213 C   0  0  0  0  0  0  0  0  0  0  0  0
   15.4899   -1.3913   53.0875 C   0  0  0  0  0  0  0  0  0  0  0  0
   15.8483   -1.4071   55.5678 C   0  0  0  0  0  0  0  0  0  0  0  0
   12.8916   -1.3121   52.0426 Cl  0  0  0  0  0  0  0  0  0  0  0  0
   13.7057   -1.3883   57.3153 Cl  0  0  0  0  0  0  0  0  0  0  0  0
   17.4362   -2.5570   57.0307 C   0  0  0  0  0  0  0  0  0  0  0  0
   16.6123   -1.4228   56.7265 O   0  0  0  0  0  0  0  0  0  0  0  0
   16.4641   -4.7283   52.4739 C   0  0  0  0  0  0  0  0  0  0  0  0
   16.1490   -5.3225   53.4148 N   0  0  0  0  0  0  0  0  0  0  0  0
  8  1  2  0  0  0
  1  9  1  0  0  0
  2  6  1  0  0  0
  2  8  1  0  0  0
 18 12  1  0  0  0
 12 16  2  0  0  0
 12 13  1  0  0  0
 13 14  2  0  0  0
 14 17  1  0  0  0
 14 19  1  0  0  0
 21 20  1  0  0  0
  7  3  2  0  0  0
  3 10  1  0  0  0
  3 16  1  0  0  0
  9  4  1  0  0  0
  6  5  2  0  0  0
  5  7  1  0  0  0
  5 22  1  0  0  0
 22 23  3  0  0  0
 16 15  1  0  0  0
 15 17  2  0  0  0
  8  7  1  0  0  0
 17 21  1  0  0  0
  9 10  2  0  0  0
  2 11  1  0  0  0
M  END
> <minimizedAffinity>
-7.20331

$$$$
3RLQ_3RQ_A_901


 23 25  0  0  0  0  0  0  0  0999 V2000
   17.3161   -2.6346   55.9370 N   0  0  0  0  0  0  0  0  0  0  0  0
   18.5289   -4.3034   54.6813 N   0  0  0  0  0  0  0  0  0  0  0  0
   16.0029   -2.1152   53.4719 C   0  0  0  0  0  0  0  0  0  0  0  0
   15.9690   -0.8792   56.9876 C   0  0  0  0  0  0  0  0  0  0  0  0
   17.6511   -4.0684   52.6476 C   0  0  0  0  0  0  0  0  0  0  0  0
   18.5720   -4.7717   53.3900 C   0  0  0  0  0  0  0  0  0  0  0  0
   17.0127   -3.1287   53.5196 C   0  0  0  0  0  0  0  0  0  0  0  0
   17.5998   -3.3114   54.7834 C   0  0  0  0  0  0  0  0  0  0  0  0
   16.3494   -1.6900   55.7800 C   0  0  0  0  0  0  0  0  0  0  0  0
   15.6922   -1.4074   54.6236 N   0  0  0  0  0  0  0  0  0  0  0  0
   19.0861   -4.6349   55.4222 H   0  0  0  0  0  0  0  0  0  0  0  0
   13.8820   -2.2403   52.0487 C   0  0  0  0  0  0  0  0  0  0  0  0
   13.1510   -1.8249   50.9139 C   0  0  0  0  0  0  0  0  0  0  0  0
   13.7136   -0.9106   49.9993 C   0  0  0  0  0  0  0  0  0  0  0  0
   15.7667   -0.8147   51.3548 C   0  0  0  0  0  0  0  0  0  0  0  0
   15.2146   -1.7342   52.2974 C   0  0  0  0  0  0  0  0  0  0  0  0
   15.0343   -0.3879   50.1913 C   0  0  0  0  0  0  0  0  0  0  0  0
   13.0914   -3.3745   53.1039 Cl  0  0  0  0  0  0  0  0  0  0  0  0
   12.7401   -0.4578   48.6497 Cl  0  0  0  0  0  0  0  0  0  0  0  0
   16.2344    1.6608   49.6027 C   0  0  0  0  0  0  0  0  0  0  0  0
   15.4895    0.4954   49.2222 O   0  0  0  0  0  0  0  0  0  0  0  0
   17.4235   -4.2806   51.2495 C   0  0  0  0  0  0  0  0  0  0  0  0
   17.2644   -4.4254   50.1131 N   0  0  0  0  0  0  0  0  0  0  0  0
  8  1  2  0  0  0
  1  9  1  0  0  0
  2  6  1  0  0  0
  2  8  1  0  0  0
 18 12  1  0  0  0
 12 16  2  0  0  0
 12 13  1  0  0  0
 13 14  2  0  0  0
 14 17  1  0  0  0
 14 19  1  0  0  0
 21 20  1  0  0  0
  7  3  2  0  0  0
  3 10  1  0  0  0
  3 16  1  0  0  0
  9  4  1  0  0  0
  6  5  2  0  0  0
  5  7  1  0  0  0
  5 22  1  0  0  0
 22 23  3  0  0  0
 16 15  1  0  0  0
 15 17  2  0  0  0
  8  7  1  0  0  0
 17 21  1  0  0  0
  9 10  2  0  0  0
  2 11  1  0  0  0
M  END
> <minimizedAffinity>
-6.82211

$$$$
3RLQ_3RQ_A_901


 23 25  0  0  0  0  0  0  0  0999 V2000
   11.7863   -1.0315   51.6754 N   0  0  0  0  0  0  0  0  0  0  0  0
   12.9651   -0.2295   49.7262 N   0  0  0  0  0  0  0  0  0  0  0  0
   14.1915   -2.4402   52.2242 C   0  0  0  0  0  0  0  0  0  0  0  0
   10.8016   -1.9866   53.7048 C   0  0  0  0  0  0  0  0  0  0  0  0
   14.9379   -1.2414   49.9402 C   0  0  0  0  0  0  0  0  0  0  0  0
   14.2031   -0.3866   49.1507 C   0  0  0  0  0  0  0  0  0  0  0  0
   14.1178   -1.6251   51.0498 C   0  0  0  0  0  0  0  0  0  0  0  0
   12.8886   -0.9680   50.8692 C   0  0  0  0  0  0  0  0  0  0  0  0
   11.9596   -1.8381   52.7575 C   0  0  0  0  0  0  0  0  0  0  0  0
   13.0902   -2.5291   53.0628 N   0  0  0  0  0  0  0  0  0  0  0  0
   12.2413    0.3327   49.3665 H   0  0  0  0  0  0  0  0  0  0  0  0
   16.2516   -2.7525   53.7068 C   0  0  0  0  0  0  0  0  0  0  0  0
   17.3461   -3.5442   54.1192 C   0  0  0  0  0  0  0  0  0  0  0  0
   17.5843   -4.7984   53.5197 C   0  0  0  0  0  0  0  0  0  0  0  0
   15.6181   -4.4824   52.0720 C   0  0  0  0  0  0  0  0  0  0  0  0
   15.3539   -3.2127   52.6694 C   0  0  0  0  0  0  0  0  0  0  0  0
   16.7335   -5.2963   52.4793 C   0  0  0  0  0  0  0  0  0  0  0  0
   16.0588   -1.2226   54.5110 Cl  0  0  0  0  0  0  0  0  0  0  0  0
   18.9402   -5.6943   54.0970 Cl  0  0  0  0  0  0  0  0  0  0  0  0
   16.3731   -7.7140   52.3860 C   0  0  0  0  0  0  0  0  0  0  0  0
   17.0699   -6.5365   51.9549 O   0  0  0  0  0  0  0  0  0  0  0  0
   16.2803   -1.6446   49.6455 C   0  0  0  0  0  0  0  0  0  0  0  0
   17.3670   -1.9842   49.4418 N   0  0  0  0  0  0  0  0  0  0  0  0
  8  1  2  0  0  0
  1  9  1  0  0  0
  2  6  1  0  0  0
  2  8  1  0  0  0
 18 12  1  0  0  0
 12 16  2  0  0  0
 12 13  1  0  0  0
 13 14  2  0  0  0
 14 17  1  0  0  0
 14 19  1  0  0  0
 21 20  1  0  0  0
  7  3  2  0  0  0
  3 10  1  0  0  0
  3 16  1  0  0  0
  9  4  1  0  0  0
  6  5  2  0  0  0
  5  7  1  0  0  0
  5 22  1  0  0  0
 22 23  3  0  0  0
 16 15  1  0  0  0
 15 17  2  0  0  0
  8  7  1  0  0  0
 17 21  1  0  0  0
  9 10  2  0  0  0
  2 11  1  0  0  0
M  END
> <minimizedAffinity>
-6.61774

$$$$
3RLQ_3RQ_A_901


 23 25  0  0  0  0  0  0  0  0999 V2000
   17.3546   -3.5142   55.5780 N   0  0  0  0  0  0  0  0  0  0  0  0
   15.7713   -2.5217   57.1079 N   0  0  0  0  0  0  0  0  0  0  0  0
   15.6572   -2.4646   53.5561 C   0  0  0  0  0  0  0  0  0  0  0  0
   18.8056   -4.4393   53.8348 C   0  0  0  0  0  0  0  0  0  0  0  0
   14.2917   -1.6195   55.7084 C   0  0  0  0  0  0  0  0  0  0  0  0
   14.6026   -1.8023   57.0365 C   0  0  0  0  0  0  0  0  0  0  0  0
   15.3138   -2.2516   54.9293 C   0  0  0  0  0  0  0  0  0  0  0  0
   16.2172   -2.8068   55.8519 C   0  0  0  0  0  0  0  0  0  0  0  0
   17.5837   -3.6655   54.2453 C   0  0  0  0  0  0  0  0  0  0  0  0
   16.8033   -3.1805   53.2430 N   0  0  0  0  0  0  0  0  0  0  0  0
   16.2197   -2.7911   57.9420 H   0  0  0  0  0  0  0  0  0  0  0  0
   13.6217   -2.5084   52.0089 C   0  0  0  0  0  0  0  0  0  0  0  0
   12.9299   -1.9899   50.8921 C   0  0  0  0  0  0  0  0  0  0  0  0
   13.4914   -0.9461   50.1277 C   0  0  0  0  0  0  0  0  0  0  0  0
   15.4642   -0.9260   51.6005 C   0  0  0  0  0  0  0  0  0  0  0  0
   14.9120   -1.9778   52.3926 C   0  0  0  0  0  0  0  0  0  0  0  0
   14.7719   -0.3927   50.4566 C   0  0  0  0  0  0  0  0  0  0  0  0
   12.8367   -3.7976   52.8731 Cl  0  0  0  0  0  0  0  0  0  0  0  0
   12.5669   -0.3749   48.7886 Cl  0  0  0  0  0  0  0  0  0  0  0  0
   16.6094    1.0168   49.6684 C   0  0  0  0  0  0  0  0  0  0  0  0
   15.2308    0.6222   49.6283 O   0  0  0  0  0  0  0  0  0  0  0  0
   13.1306   -0.9174   55.2498 C   0  0  0  0  0  0  0  0  0  0  0  0
   12.2045   -0.3554   54.8445 N   0  0  0  0  0  0  0  0  0  0  0  0
  8  1  2  0  0  0
  1  9  1  0  0  0
  2  6  1  0  0  0
  2  8  1  0  0  0
 18 12  1  0  0  0
 12 16  2  0  0  0
 12 13  1  0  0  0
 13 14  2  0  0  0
 14 17  1  0  0  0
 14 19  1  0  0  0
 21 20  1  0  0  0
  7  3  2  0  0  0
  3 10  1  0  0  0
  3 16  1  0  0  0
  9  4  1  0  0  0
  6  5  2  0  0  0
  5  7  1  0  0  0
  5 22  1  0  0  0
 22 23  3  0  0  0
 16 15  1  0  0  0
 15 17  2  0  0  0
  8  7  1  0  0  0
 17 21  1  0  0  0
  9 10  2  0  0  0
  2 11  1  0  0  0
M  END
> <minimizedAffinity>
-6.44574

$$$$
3RLQ_3RQ_A_901


 23 25  0  0  0  0  0  0  0  0999 V2000
   14.3252    0.4674   49.9031 N   0  0  0  0  0  0  0  0  0  0  0  0
   12.3120   -0.5079   50.8131 N   0  0  0  0  0  0  0  0  0  0  0  0
   15.6681   -1.3491   51.6258 C   0  0  0  0  0  0  0  0  0  0  0  0
   16.4985    1.3029   49.1425 C   0  0  0  0  0  0  0  0  0  0  0  0
   13.1378   -2.0015   52.2446 C   0  0  0  0  0  0  0  0  0  0  0  0
   11.9752   -1.4726   51.7321 C   0  0  0  0  0  0  0  0  0  0  0  0
   14.2368   -1.3354   51.6124 C   0  0  0  0  0  0  0  0  0  0  0  0
   13.6682   -0.4048   50.7258 C   0  0  0  0  0  0  0  0  0  0  0  0
   15.6795    0.3777   49.9991 C   0  0  0  0  0  0  0  0  0  0  0  0
   16.3661   -0.4753   50.8052 N   0  0  0  0  0  0  0  0  0  0  0  0
   11.6694    0.0286   50.2950 H   0  0  0  0  0  0  0  0  0  0  0  0
   17.1682   -3.4033   51.8889 C   0  0  0  0  0  0  0  0  0  0  0  0
   17.9976   -4.2094   52.6995 C   0  0  0  0  0  0  0  0  0  0  0  0
   18.2003   -3.8846   54.0568 C   0  0  0  0  0  0  0  0  0  0  0  0
   16.7314   -1.9243   53.8092 C   0  0  0  0  0  0  0  0  0  0  0  0
   16.5172   -2.2303   52.4311 C   0  0  0  0  0  0  0  0  0  0  0  0
   17.5696   -2.7411   54.6474 C   0  0  0  0  0  0  0  0  0  0  0  0
   16.9862   -3.9028   50.2329 Cl  0  0  0  0  0  0  0  0  0  0  0  0
   19.2362   -4.9247   54.9619 Cl  0  0  0  0  0  0  0  0  0  0  0  0
   16.8693   -1.8490   56.8149 C   0  0  0  0  0  0  0  0  0  0  0  0
   17.8315   -2.5249   55.9932 O   0  0  0  0  0  0  0  0  0  0  0  0
   13.1756   -3.0309   53.2397 C   0  0  0  0  0  0  0  0  0  0  0  0
   13.2249   -3.8837   54.0196 N   0  0  0  0  0  0  0  0  0  0  0  0
  8  1  2  0  0  0
  1  9  1  0  0  0
  2  6  1  0  0  0
  2  8  1  0  0  0
 18 12  1  0  0  0
 12 16  2  0  0  0
 12 13  1  0  0  0
 13 14  2  0  0  0
 14 17  1  0  0  0
 14 19  1  0  0  0
 21 20  1  0  0  0
  7  3  2  0  0  0
  3 10  1  0  0  0
  3 16  1  0  0  0
  9  4  1  0  0  0
  6  5  2  0  0  0
  5  7  1  0  0  0
  5 22  1  0  0  0
 22 23  3  0  0  0
 16 15  1  0  0  0
 15 17  2  0  0  0
  8  7  1  0  0  0
 17 21  1  0  0  0
  9 10  2  0  0  0
  2 11  1  0  0  0
M  END
> <minimizedAffinity>
-6.42412

$$$$
3RLQ_3RQ_A_901


 23 25  0  0  0  0  0  0  0  0999 V2000
   14.4319   -6.3496   54.0914 N   0  0  0  0  0  0  0  0  0  0  0  0
   12.8722   -5.0680   55.4169 N   0  0  0  0  0  0  0  0  0  0  0  0
   14.8750   -3.8994   52.7234 C   0  0  0  0  0  0  0  0  0  0  0  0
   16.0523   -7.4335   52.6084 C   0  0  0  0  0  0  0  0  0  0  0  0
   13.0427   -3.0485   54.4925 C   0  0  0  0  0  0  0  0  0  0  0  0
   12.4107   -3.7748   55.4758 C   0  0  0  0  0  0  0  0  0  0  0  0
   13.9325   -3.9318   53.8003 C   0  0  0  0  0  0  0  0  0  0  0  0
   13.7871   -5.1879   54.4138 C   0  0  0  0  0  0  0  0  0  0  0  0
   15.2980   -6.2107   53.0512 C   0  0  0  0  0  0  0  0  0  0  0  0
   15.5449   -5.0610   52.3684 N   0  0  0  0  0  0  0  0  0  0  0  0
   12.5848   -5.7987   56.0107 H   0  0  0  0  0  0  0  0  0  0  0  0
   16.4802   -2.0028   52.1188 C   0  0  0  0  0  0  0  0  0  0  0  0
   16.7996   -0.8891   51.3112 C   0  0  0  0  0  0  0  0  0  0  0  0
   15.9085   -0.4584   50.3065 C   0  0  0  0  0  0  0  0  0  0  0  0
   14.3505   -2.2666   50.9102 C   0  0  0  0  0  0  0  0  0  0  0  0
   15.2404   -2.7242   51.9287 C   0  0  0  0  0  0  0  0  0  0  0  0
   14.6617   -1.1293   50.0843 C   0  0  0  0  0  0  0  0  0  0  0  0
   17.6502   -2.4399   53.3292 Cl  0  0  0  0  0  0  0  0  0  0  0  0
   16.3913    0.9052   49.3674 Cl  0  0  0  0  0  0  0  0  0  0  0  0
   12.4349   -0.7698   49.1377 C   0  0  0  0  0  0  0  0  0  0  0  0
   13.8593   -0.6116   49.0770 O   0  0  0  0  0  0  0  0  0  0  0  0
   12.8034   -1.6574   54.2492 C   0  0  0  0  0  0  0  0  0  0  0  0
   12.6462   -0.5300   54.0444 N   0  0  0  0  0  0  0  0  0  0  0  0
  8  1  2  0  0  0
  1  9  1  0  0  0
  2  6  1  0  0  0
  2  8  1  0  0  0
 18 12  1  0  0  0
 12 16  2  0  0  0
 12 13  1  0  0  0
 13 14  2  0  0  0
 14 17  1  0  0  0
 14 19  1  0  0  0
 21 20  1  0  0  0
  7  3  2  0  0  0
  3 10  1  0  0  0
  3 16  1  0  0  0
  9  4  1  0  0  0
  6  5  2  0  0  0
  5  7  1  0  0  0
  5 22  1  0  0  0
 22 23  3  0  0  0
 16 15  1  0  0  0
 15 17  2  0  0  0
  8  7  1  0  0  0
 17 21  1  0  0  0
  9 10  2  0  0  0
  2 11  1  0  0  0
M  END
> <minimizedAffinity>
-6.37278

$$$$
3RLQ_3RQ_A_901


 23 25  0  0  0  0  0  0  0  0999 V2000
   11.9815   -0.6905   51.3917 N   0  0  0  0  0  0  0  0  0  0  0  0
   13.3268    0.3443   49.6736 N   0  0  0  0  0  0  0  0  0  0  0  0
   14.4644   -1.6405   52.3935 C   0  0  0  0  0  0  0  0  0  0  0  0
   10.8374   -1.8413   53.2265 C   0  0  0  0  0  0  0  0  0  0  0  0
   15.3798   -0.2903   50.2605 C   0  0  0  0  0  0  0  0  0  0  0  0
   14.6562    0.4266   49.3351 C   0  0  0  0  0  0  0  0  0  0  0  0
   14.4566   -0.8351   51.2102 C   0  0  0  0  0  0  0  0  0  0  0  0
   13.1811   -0.4129   50.7975 C   0  0  0  0  0  0  0  0  0  0  0  0
   12.1008   -1.4677   52.5021 C   0  0  0  0  0  0  0  0  0  0  0  0
   13.2645   -1.9434   53.0202 N   0  0  0  0  0  0  0  0  0  0  0  0
   12.5896    0.7690   49.1782 H   0  0  0  0  0  0  0  0  0  0  0  0
   16.5168   -3.1655   52.4295 C   0  0  0  0  0  0  0  0  0  0  0  0
   17.6613   -3.6510   53.0997 C   0  0  0  0  0  0  0  0  0  0  0  0
   17.9733   -3.1964   54.3978 C   0  0  0  0  0  0  0  0  0  0  0  0
   15.9801   -1.7514   54.3733 C   0  0  0  0  0  0  0  0  0  0  0  0
   15.6485   -2.1925   53.0564 C   0  0  0  0  0  0  0  0  0  0  0  0
   17.1404   -2.2428   55.0694 C   0  0  0  0  0  0  0  0  0  0  0  0
   16.2276   -3.8004   50.8364 Cl  0  0  0  0  0  0  0  0  0  0  0  0
   19.3955   -3.8414   55.1297 Cl  0  0  0  0  0  0  0  0  0  0  0  0
   16.7337   -2.2303   57.4815 C   0  0  0  0  0  0  0  0  0  0  0  0
   17.5380   -1.8762   56.3477 O   0  0  0  0  0  0  0  0  0  0  0  0
   16.8042   -0.4348   50.2216 C   0  0  0  0  0  0  0  0  0  0  0  0
   17.9503   -0.5822   50.1695 N   0  0  0  0  0  0  0  0  0  0  0  0
  8  1  2  0  0  0
  1  9  1  0  0  0
  2  6  1  0  0  0
  2  8  1  0  0  0
 18 12  1  0  0  0
 12 16  2  0  0  0
 12 13  1  0  0  0
 13 14  2  0  0  0
 14 17  1  0  0  0
 14 19  1  0  0  0
 21 20  1  0  0  0
  7  3  2  0  0  0
  3 10  1  0  0  0
  3 16  1  0  0  0
  9  4  1  0  0  0
  6  5  2  0  0  0
  5  7  1  0  0  0
  5 22  1  0  0  0
 22 23  3  0  0  0
 16 15  1  0  0  0
 15 17  2  0  0  0
  8  7  1  0  0  0
 17 21  1  0  0  0
  9 10  2  0  0  0
  2 11  1  0  0  0
M  END
> <minimizedAffinity>
-6.35960

$$$$
