1MES_DMP_B_323


 46 50  0  0  0  0  0  0  0  0999 V2000
   -8.6216   15.3396   27.7738 C   0  0  0  0  0  0  0  0  0  0  0  0
  -10.6173   16.4225   28.8309 C   0  0  0  0  0  0  0  0  0  0  0  0
  -10.4418   17.9108   28.6089 C   0  0  0  0  0  0  0  0  0  0  0  0
  -10.0363   18.2020   27.1793 C   0  0  0  0  0  0  0  0  0  0  0  0
   -8.6514   17.6888   26.8558 C   0  0  0  0  0  0  0  0  0  0  0  0
   -9.4197   15.5636   28.8340 N   0  0  0  0  0  0  0  0  0  0  0  0
   -8.4462   16.2232   26.7709 N   0  0  0  0  0  0  0  0  0  0  0  0
   -8.0119   14.2797   27.7228 O   0  0  0  0  0  0  0  0  0  0  0  0
  -11.6952   18.4803   28.9181 O   0  0  0  0  0  0  0  0  0  0  0  0
  -10.0090   19.5856   26.9470 O   0  0  0  0  0  0  0  0  0  0  0  0
  -12.3768   18.0903   28.3486 H   0  0  0  0  0  0  0  0  0  0  0  0
   -9.3419   19.9963   27.5191 H   0  0  0  0  0  0  0  0  0  0  0  0
   -9.1861   14.7031   29.9824 C   0  0  0  0  0  0  0  0  0  0  0  0
   -9.3666   15.3090   31.3321 C   0  0  0  0  0  0  0  0  0  0  0  0
   -8.7840   16.5442   31.6929 C   0  0  0  0  0  0  0  0  0  0  0  0
   -8.9433   17.0214   33.0131 C   0  0  0  0  0  0  0  0  0  0  0  0
   -9.6860   16.2570   33.9463 C   0  0  0  0  0  0  0  0  0  0  0  0
  -10.2615   15.0246   33.5599 C   0  0  0  0  0  0  0  0  0  0  0  0
  -10.1119   14.5501   32.2482 C   0  0  0  0  0  0  0  0  0  0  0  0
   -9.8393   16.7375   35.3702 C   0  0  0  0  0  0  0  0  0  0  0  0
  -11.1891   17.1397   35.6439 O   0  0  0  0  0  0  0  0  0  0  0  0
  -11.4339   17.8716   35.0563 H   0  0  0  0  0  0  0  0  0  0  0  0
  -11.7156   15.7562   27.9773 C   0  0  0  0  0  0  0  0  0  0  0  0
  -12.3142   14.5452   28.6682 C   0  0  0  0  0  0  0  0  0  0  0  0
  -12.0970   13.2547   28.1395 C   0  0  0  0  0  0  0  0  0  0  0  0
  -12.6169   12.1361   28.8132 C   0  0  0  0  0  0  0  0  0  0  0  0
  -13.3449   12.3084   30.0092 C   0  0  0  0  0  0  0  0  0  0  0  0
  -13.5666   13.5935   30.5401 C   0  0  0  0  0  0  0  0  0  0  0  0
  -13.0551   14.7158   29.8665 C   0  0  0  0  0  0  0  0  0  0  0  0
   -7.5076   18.3187   27.6872 C   0  0  0  0  0  0  0  0  0  0  0  0
   -6.2397   18.5104   26.8848 C   0  0  0  0  0  0  0  0  0  0  0  0
   -5.1505   17.6267   27.0714 C   0  0  0  0  0  0  0  0  0  0  0  0
   -3.9905   17.7716   26.2795 C   0  0  0  0  0  0  0  0  0  0  0  0
   -3.9306   18.7919   25.3059 C   0  0  0  0  0  0  0  0  0  0  0  0
   -5.0198   19.6781   25.1250 C   0  0  0  0  0  0  0  0  0  0  0  0
   -6.1795   19.5433   25.9149 C   0  0  0  0  0  0  0  0  0  0  0  0
   -7.7590   15.6950   25.6011 C   0  0  0  0  0  0  0  0  0  0  0  0
   -8.2193   16.1518   24.2600 C   0  0  0  0  0  0  0  0  0  0  0  0
   -7.2502   16.8133   23.4912 C   0  0  0  0  0  0  0  0  0  0  0  0
   -7.5624   17.1952   22.1861 C   0  0  0  0  0  0  0  0  0  0  0  0
   -8.8468   16.9333   21.6520 C   0  0  0  0  0  0  0  0  0  0  0  0
   -9.8234   16.2740   22.4359 C   0  0  0  0  0  0  0  0  0  0  0  0
   -9.5128   15.8868   23.7531 C   0  0  0  0  0  0  0  0  0  0  0  0
   -9.1615   17.3391   20.2347 C   0  0  0  0  0  0  0  0  0  0  0  0
   -8.3636   18.4637   19.8372 O   0  0  0  0  0  0  0  0  0  0  0  0
   -8.5535   19.2166   20.4186 H   0  0  0  0  0  0  0  0  0  0  0  0
  1  6  1  0  0  0
  1  7  1  0  0  0
  1  8  2  0  0  0
  2  3  1  0  0  0
  2 23  1  0  0  0
  2  6  1  0  0  0
  3  4  1  0  0  0
  3  9  1  0  0  0
  4  5  1  0  0  0
  4 10  1  0  0  0
  5 30  1  0  0  0
  5  7  1  0  0  0
 13 14  1  0  0  0
 13  6  1  0  0  0
 14 15  2  0  0  0
 14 19  1  0  0  0
 15 16  1  0  0  0
 16 17  2  0  0  0
 17 18  1  0  0  0
 17 20  1  0  0  0
 18 19  2  0  0  0
 20 21  1  0  0  0
 23 24  1  0  0  0
 24 25  2  0  0  0
 24 29  1  0  0  0
 25 26  1  0  0  0
 26 27  2  0  0  0
 27 28  1  0  0  0
 28 29  2  0  0  0
 30 31  1  0  0  0
 31 32  2  0  0  0
 31 36  1  0  0  0
 32 33  1  0  0  0
 33 34  2  0  0  0
 34 35  1  0  0  0
 35 36  2  0  0  0
 37 38  1  0  0  0
 37  7  1  0  0  0
 38 39  2  0  0  0
 38 43  1  0  0  0
 39 40  1  0  0  0
 40 41  2  0  0  0
 41 42  1  0  0  0
 41 44  1  0  0  0
 42 43  2  0  0  0
 44 45  1  0  0  0
  9 11  1  0  0  0
 10 12  1  0  0  0
 21 22  1  0  0  0
 45 46  1  0  0  0
M  END
> <minimizedAffinity>
-12.27227

$$$$
1MES_DMP_B_323


 46 50  0  0  0  0  0  0  0  0999 V2000
   -8.5788   15.3833   27.7549 C   0  0  0  0  0  0  0  0  0  0  0  0
   -8.5923   17.6636   26.7188 C   0  0  0  0  0  0  0  0  0  0  0  0
   -9.9829   18.2147   26.9588 C   0  0  0  0  0  0  0  0  0  0  0  0
  -10.4186   17.9832   28.3904 C   0  0  0  0  0  0  0  0  0  0  0  0
  -10.6227   16.5179   28.7024 C   0  0  0  0  0  0  0  0  0  0  0  0
   -8.4062   16.2017   26.7005 N   0  0  0  0  0  0  0  0  0  0  0  0
   -9.4301   15.6399   28.7682 N   0  0  0  0  0  0  0  0  0  0  0  0
   -7.9358   14.3426   27.7903 O   0  0  0  0  0  0  0  0  0  0  0  0
   -9.8908   19.5909   26.6614 O   0  0  0  0  0  0  0  0  0  0  0  0
  -11.6466   18.6148   28.6399 O   0  0  0  0  0  0  0  0  0  0  0  0
   -9.2184   19.9999   27.2284 H   0  0  0  0  0  0  0  0  0  0  0  0
  -12.3304   18.2285   28.0706 H   0  0  0  0  0  0  0  0  0  0  0  0
   -7.7710   15.5977   25.5406 C   0  0  0  0  0  0  0  0  0  0  0  0
   -8.2125   16.0753   24.1996 C   0  0  0  0  0  0  0  0  0  0  0  0
   -9.5186   15.8554   23.7085 C   0  0  0  0  0  0  0  0  0  0  0  0
   -9.8426   16.2780   22.3999 C   0  0  0  0  0  0  0  0  0  0  0  0
   -8.8563   16.9166   21.6088 C   0  0  0  0  0  0  0  0  0  0  0  0
   -7.5566   17.1275   22.1241 C   0  0  0  0  0  0  0  0  0  0  0  0
   -7.2322   16.7158   23.4254 C   0  0  0  0  0  0  0  0  0  0  0  0
   -9.1771   17.3464   20.1966 C   0  0  0  0  0  0  0  0  0  0  0  0
   -8.3685   18.4607   19.7925 O   0  0  0  0  0  0  0  0  0  0  0  0
   -8.5412   19.2145   20.3780 H   0  0  0  0  0  0  0  0  0  0  0  0
   -7.4760   18.3052   27.5680 C   0  0  0  0  0  0  0  0  0  0  0  0
   -6.1995   18.5013   26.7717 C   0  0  0  0  0  0  0  0  0  0  0  0
   -5.1076   17.6282   26.9664 C   0  0  0  0  0  0  0  0  0  0  0  0
   -3.9472   17.7904   26.1903 C   0  0  0  0  0  0  0  0  0  0  0  0
   -3.8823   18.8161   25.2240 C   0  0  0  0  0  0  0  0  0  0  0  0
   -4.9675   19.6914   25.0270 C   0  0  0  0  0  0  0  0  0  0  0  0
   -6.1274   19.5380   25.8054 C   0  0  0  0  0  0  0  0  0  0  0  0
  -11.7283   15.8188   27.8747 C   0  0  0  0  0  0  0  0  0  0  0  0
  -12.3221   14.6230   28.5859 C   0  0  0  0  0  0  0  0  0  0  0  0
  -12.0929   13.3211   28.0814 C   0  0  0  0  0  0  0  0  0  0  0  0
  -12.5985   12.2030   28.7798 C   0  0  0  0  0  0  0  0  0  0  0  0
  -13.3222   12.3938   29.9766 C   0  0  0  0  0  0  0  0  0  0  0  0
  -13.5546   13.6978   30.4763 C   0  0  0  0  0  0  0  0  0  0  0  0
  -13.0574   14.8197   29.7825 C   0  0  0  0  0  0  0  0  0  0  0  0
   -9.2814   14.7735   29.9287 C   0  0  0  0  0  0  0  0  0  0  0  0
   -9.4392   15.3859   31.2774 C   0  0  0  0  0  0  0  0  0  0  0  0
  -10.1846   14.6275   32.1924 C   0  0  0  0  0  0  0  0  0  0  0  0
  -10.3071   15.0773   33.5074 C   0  0  0  0  0  0  0  0  0  0  0  0
   -9.7010   16.2923   33.9073 C   0  0  0  0  0  0  0  0  0  0  0  0
   -8.9582   17.0578   32.9771 C   0  0  0  0  0  0  0  0  0  0  0  0
   -8.8318   16.6079   31.6493 C   0  0  0  0  0  0  0  0  0  0  0  0
   -9.8308   16.7550   35.3361 C   0  0  0  0  0  0  0  0  0  0  0  0
  -11.1747   17.1729   35.6167 O   0  0  0  0  0  0  0  0  0  0  0  0
  -11.4116   17.9119   35.0347 H   0  0  0  0  0  0  0  0  0  0  0  0
  1  6  1  0  0  0
  1  7  1  0  0  0
  1  8  2  0  0  0
  2  3  1  0  0  0
  2 23  1  0  0  0
  2  6  1  0  0  0
  3  4  1  0  0  0
  3  9  1  0  0  0
  4  5  1  0  0  0
  4 10  1  0  0  0
  5 30  1  0  0  0
  5  7  1  0  0  0
 13 14  1  0  0  0
 13  6  1  0  0  0
 14 15  2  0  0  0
 14 19  1  0  0  0
 15 16  1  0  0  0
 16 17  2  0  0  0
 17 18  1  0  0  0
 17 20  1  0  0  0
 18 19  2  0  0  0
 20 21  1  0  0  0
 23 24  1  0  0  0
 24 25  2  0  0  0
 24 29  1  0  0  0
 25 26  1  0  0  0
 26 27  2  0  0  0
 27 28  1  0  0  0
 28 29  2  0  0  0
 30 31  1  0  0  0
 31 32  2  0  0  0
 31 36  1  0  0  0
 32 33  1  0  0  0
 33 34  2  0  0  0
 34 35  1  0  0  0
 35 36  2  0  0  0
 37 38  1  0  0  0
 37  7  1  0  0  0
 38 39  2  0  0  0
 38 43  1  0  0  0
 39 40  1  0  0  0
 40 41  2  0  0  0
 41 42  1  0  0  0
 41 44  1  0  0  0
 42 43  2  0  0  0
 44 45  1  0  0  0
  9 11  1  0  0  0
 10 12  1  0  0  0
 21 22  1  0  0  0
 45 46  1  0  0  0
M  END
> <minimizedAffinity>
-12.23113

$$$$
1MES_DMP_B_323


 46 50  0  0  0  0  0  0  0  0999 V2000
  -11.0449   17.2902   28.8681 C   0  0  0  0  0  0  0  0  0  0  0  0
  -10.1362   15.5771   30.4534 C   0  0  0  0  0  0  0  0  0  0  0  0
   -9.2639   14.6650   29.6154 C   0  0  0  0  0  0  0  0  0  0  0  0
   -8.3624   15.4668   28.7002 C   0  0  0  0  0  0  0  0  0  0  0  0
   -9.1348   16.2039   27.6296 C   0  0  0  0  0  0  0  0  0  0  0  0
  -11.2190   16.3240   29.7887 N   0  0  0  0  0  0  0  0  0  0  0  0
   -9.9851   17.3478   28.0369 N   0  0  0  0  0  0  0  0  0  0  0  0
  -11.9020   18.1584   28.7720 O   0  0  0  0  0  0  0  0  0  0  0  0
   -8.5183   13.9105   30.5458 O   0  0  0  0  0  0  0  0  0  0  0  0
   -7.4650   14.6222   28.0290 O   0  0  0  0  0  0  0  0  0  0  0  0
   -8.0062   14.5094   31.1115 H   0  0  0  0  0  0  0  0  0  0  0  0
   -7.9601   14.0049   27.4680 H   0  0  0  0  0  0  0  0  0  0  0  0
  -12.5712   16.1935   30.3066 C   0  0  0  0  0  0  0  0  0  0  0  0
  -13.0256   14.8240   30.6800 C   0  0  0  0  0  0  0  0  0  0  0  0
  -13.4376   14.4926   31.9899 C   0  0  0  0  0  0  0  0  0  0  0  0
  -13.7896   13.1563   32.2838 C   0  0  0  0  0  0  0  0  0  0  0  0
  -13.7275   12.1776   31.2616 C   0  0  0  0  0  0  0  0  0  0  0  0
  -13.3142   12.5350   29.9575 C   0  0  0  0  0  0  0  0  0  0  0  0
  -12.9704   13.8621   29.6592 C   0  0  0  0  0  0  0  0  0  0  0  0
  -14.0703   10.7384   31.5668 C   0  0  0  0  0  0  0  0  0  0  0  0
  -12.9087    9.8988   31.5008 O   0  0  0  0  0  0  0  0  0  0  0  0
  -12.5368    9.9313   30.6055 H   0  0  0  0  0  0  0  0  0  0  0  0
   -9.3743   16.5264   31.4007 C   0  0  0  0  0  0  0  0  0  0  0  0
   -9.6342   16.2004   32.8595 C   0  0  0  0  0  0  0  0  0  0  0  0
   -9.3601   17.1626   33.8551 C   0  0  0  0  0  0  0  0  0  0  0  0
   -9.6481   16.8672   35.1986 C   0  0  0  0  0  0  0  0  0  0  0  0
  -10.2101   15.6196   35.5419 C   0  0  0  0  0  0  0  0  0  0  0  0
  -10.4835   14.6550   34.5532 C   0  0  0  0  0  0  0  0  0  0  0  0
  -10.1907   14.9427   33.2092 C   0  0  0  0  0  0  0  0  0  0  0  0
   -9.9251   15.3009   26.6516 C   0  0  0  0  0  0  0  0  0  0  0  0
   -9.5989   15.5845   25.2020 C   0  0  0  0  0  0  0  0  0  0  0  0
   -8.3442   15.1963   24.6757 C   0  0  0  0  0  0  0  0  0  0  0  0
   -8.0649   15.4089   23.3081 C   0  0  0  0  0  0  0  0  0  0  0  0
   -9.0412   16.0009   22.4781 C   0  0  0  0  0  0  0  0  0  0  0  0
  -10.2938   16.3933   23.0084 C   0  0  0  0  0  0  0  0  0  0  0  0
  -10.5787   16.1890   24.3738 C   0  0  0  0  0  0  0  0  0  0  0  0
   -9.8482   18.5977   27.3031 C   0  0  0  0  0  0  0  0  0  0  0  0
   -8.5381   18.8817   26.6534 C   0  0  0  0  0  0  0  0  0  0  0  0
   -7.5393   19.3636   27.5124 C   0  0  0  0  0  0  0  0  0  0  0  0
   -6.2535   19.5698   27.0115 C   0  0  0  0  0  0  0  0  0  0  0  0
   -5.9664   19.3120   25.6497 C   0  0  0  0  0  0  0  0  0  0  0  0
   -6.9808   18.8350   24.7857 C   0  0  0  0  0  0  0  0  0  0  0  0
   -8.2794   18.6254   25.2866 C   0  0  0  0  0  0  0  0  0  0  0  0
   -4.5678   19.5257   25.1295 C   0  0  0  0  0  0  0  0  0  0  0  0
   -4.5946   20.1182   23.8228 O   0  0  0  0  0  0  0  0  0  0  0  0
   -5.0604   19.5282   23.2098 H   0  0  0  0  0  0  0  0  0  0  0  0
  1  6  1  0  0  0
  1  7  1  0  0  0
  1  8  2  0  0  0
  2  3  1  0  0  0
  2 23  1  0  0  0
  2  6  1  0  0  0
  3  4  1  0  0  0
  3  9  1  0  0  0
  4  5  1  0  0  0
  4 10  1  0  0  0
  5 30  1  0  0  0
  5  7  1  0  0  0
 13 14  1  0  0  0
 13  6  1  0  0  0
 14 15  2  0  0  0
 14 19  1  0  0  0
 15 16  1  0  0  0
 16 17  2  0  0  0
 17 18  1  0  0  0
 17 20  1  0  0  0
 18 19  2  0  0  0
 20 21  1  0  0  0
 23 24  1  0  0  0
 24 25  2  0  0  0
 24 29  1  0  0  0
 25 26  1  0  0  0
 26 27  2  0  0  0
 27 28  1  0  0  0
 28 29  2  0  0  0
 30 31  1  0  0  0
 31 32  2  0  0  0
 31 36  1  0  0  0
 32 33  1  0  0  0
 33 34  2  0  0  0
 34 35  1  0  0  0
 35 36  2  0  0  0
 37 38  1  0  0  0
 37  7  1  0  0  0
 38 39  2  0  0  0
 38 43  1  0  0  0
 39 40  1  0  0  0
 40 41  2  0  0  0
 41 42  1  0  0  0
 41 44  1  0  0  0
 42 43  2  0  0  0
 44 45  1  0  0  0
  9 11  1  0  0  0
 10 12  1  0  0  0
 21 22  1  0  0  0
 45 46  1  0  0  0
M  END
> <minimizedAffinity>
-9.71043

$$$$
1MES_DMP_B_323


 46 50  0  0  0  0  0  0  0  0999 V2000
   -9.8502   17.9574   27.3129 C   0  0  0  0  0  0  0  0  0  0  0  0
   -9.4275   15.9032   28.6823 C   0  0  0  0  0  0  0  0  0  0  0  0
   -8.9264   14.8569   27.7080 C   0  0  0  0  0  0  0  0  0  0  0  0
   -7.8738   15.4347   26.7854 C   0  0  0  0  0  0  0  0  0  0  0  0
   -8.4393   16.4718   25.8416 C   0  0  0  0  0  0  0  0  0  0  0  0
  -10.2625   17.0036   28.1682 N   0  0  0  0  0  0  0  0  0  0  0  0
   -8.8719   17.7734   26.4039 N   0  0  0  0  0  0  0  0  0  0  0  0
  -10.4020   19.0489   27.3545 O   0  0  0  0  0  0  0  0  0  0  0  0
   -8.3994   13.8252   28.5133 O   0  0  0  0  0  0  0  0  0  0  0  0
   -7.3188   14.4286   25.9799 O   0  0  0  0  0  0  0  0  0  0  0  0
   -7.6973   14.1831   29.0789 H   0  0  0  0  0  0  0  0  0  0  0  0
   -8.0102   14.0476   25.4162 H   0  0  0  0  0  0  0  0  0  0  0  0
  -11.5583   17.2375   28.7846 C   0  0  0  0  0  0  0  0  0  0  0  0
  -12.1705   16.1008   29.5294 C   0  0  0  0  0  0  0  0  0  0  0  0
  -12.2016   16.0480   30.9406 C   0  0  0  0  0  0  0  0  0  0  0  0
  -12.7378   14.9054   31.5754 C   0  0  0  0  0  0  0  0  0  0  0  0
  -13.2371   13.8394   30.7874 C   0  0  0  0  0  0  0  0  0  0  0  0
  -13.1970   13.9173   29.3762 C   0  0  0  0  0  0  0  0  0  0  0  0
  -12.6718   15.0528   28.7414 C   0  0  0  0  0  0  0  0  0  0  0  0
  -13.7850   12.5974   31.4502 C   0  0  0  0  0  0  0  0  0  0  0  0
  -15.1784   12.4199   31.1577 O   0  0  0  0  0  0  0  0  0  0  0  0
  -15.6787   13.1800   31.4935 H   0  0  0  0  0  0  0  0  0  0  0  0
   -8.3591   16.4805   29.6332 C   0  0  0  0  0  0  0  0  0  0  0  0
   -8.7175   16.2581   31.0906 C   0  0  0  0  0  0  0  0  0  0  0  0
   -8.8795   17.3645   31.9520 C   0  0  0  0  0  0  0  0  0  0  0  0
   -9.2571   17.1492   33.2886 C   0  0  0  0  0  0  0  0  0  0  0  0
   -9.4748   15.8367   33.7576 C   0  0  0  0  0  0  0  0  0  0  0  0
   -9.3124   14.7291   32.9035 C   0  0  0  0  0  0  0  0  0  0  0  0
   -8.9280   14.9384   31.5681 C   0  0  0  0  0  0  0  0  0  0  0  0
   -9.5221   15.9500   24.8661 C   0  0  0  0  0  0  0  0  0  0  0  0
   -9.1366   16.1311   23.4147 C   0  0  0  0  0  0  0  0  0  0  0  0
  -10.0094   16.8162   22.5367 C   0  0  0  0  0  0  0  0  0  0  0  0
   -9.6211   17.0355   21.1970 C   0  0  0  0  0  0  0  0  0  0  0  0
   -8.3646   16.5749   20.7480 C   0  0  0  0  0  0  0  0  0  0  0  0
   -7.4955   15.8850   21.6272 C   0  0  0  0  0  0  0  0  0  0  0  0
   -7.8777   15.6577   22.9649 C   0  0  0  0  0  0  0  0  0  0  0  0
   -8.3972   18.9892   25.7589 C   0  0  0  0  0  0  0  0  0  0  0  0
   -7.0910   18.9321   25.0450 C   0  0  0  0  0  0  0  0  0  0  0  0
   -7.1697   19.0465   23.6491 C   0  0  0  0  0  0  0  0  0  0  0  0
   -5.9913   19.0967   22.9038 C   0  0  0  0  0  0  0  0  0  0  0  0
   -4.7335   19.0158   23.5479 C   0  0  0  0  0  0  0  0  0  0  0  0
   -4.6608   18.8908   24.9557 C   0  0  0  0  0  0  0  0  0  0  0  0
   -5.8470   18.8399   25.7118 C   0  0  0  0  0  0  0  0  0  0  0  0
   -3.4704   19.0872   22.7281 C   0  0  0  0  0  0  0  0  0  0  0  0
   -3.5504   20.1427   21.7591 O   0  0  0  0  0  0  0  0  0  0  0  0
   -4.2937   19.9748   21.1588 H   0  0  0  0  0  0  0  0  0  0  0  0
  1  6  1  0  0  0
  1  7  1  0  0  0
  1  8  2  0  0  0
  2  3  1  0  0  0
  2 23  1  0  0  0
  2  6  1  0  0  0
  3  4  1  0  0  0
  3  9  1  0  0  0
  4  5  1  0  0  0
  4 10  1  0  0  0
  5 30  1  0  0  0
  5  7  1  0  0  0
 13 14  1  0  0  0
 13  6  1  0  0  0
 14 15  2  0  0  0
 14 19  1  0  0  0
 15 16  1  0  0  0
 16 17  2  0  0  0
 17 18  1  0  0  0
 17 20  1  0  0  0
 18 19  2  0  0  0
 20 21  1  0  0  0
 23 24  1  0  0  0
 24 25  2  0  0  0
 24 29  1  0  0  0
 25 26  1  0  0  0
 26 27  2  0  0  0
 27 28  1  0  0  0
 28 29  2  0  0  0
 30 31  1  0  0  0
 31 32  2  0  0  0
 31 36  1  0  0  0
 32 33  1  0  0  0
 33 34  2  0  0  0
 34 35  1  0  0  0
 35 36  2  0  0  0
 37 38  1  0  0  0
 37  7  1  0  0  0
 38 39  2  0  0  0
 38 43  1  0  0  0
 39 40  1  0  0  0
 40 41  2  0  0  0
 41 42  1  0  0  0
 41 44  1  0  0  0
 42 43  2  0  0  0
 44 45  1  0  0  0
  9 11  1  0  0  0
 10 12  1  0  0  0
 21 22  1  0  0  0
 45 46  1  0  0  0
M  END
> <minimizedAffinity>
-9.58268

$$$$
1MES_DMP_B_323


 46 50  0  0  0  0  0  0  0  0999 V2000
   -9.6486   18.0866   26.9646 C   0  0  0  0  0  0  0  0  0  0  0  0
   -8.3135   16.5838   25.4704 C   0  0  0  0  0  0  0  0  0  0  0  0
   -7.7691   15.4916   26.3681 C   0  0  0  0  0  0  0  0  0  0  0  0
   -8.8481   14.9554   27.2854 C   0  0  0  0  0  0  0  0  0  0  0  0
   -9.3010   15.9774   28.3035 C   0  0  0  0  0  0  0  0  0  0  0  0
   -8.6619   17.8833   26.0721 N   0  0  0  0  0  0  0  0  0  0  0  0
  -10.0796   17.1461   27.8288 N   0  0  0  0  0  0  0  0  0  0  0  0
  -10.1760   19.1903   27.0019 O   0  0  0  0  0  0  0  0  0  0  0  0
   -7.2936   14.4950   25.4898 O   0  0  0  0  0  0  0  0  0  0  0  0
   -8.3724   13.8552   28.0151 O   0  0  0  0  0  0  0  0  0  0  0  0
   -8.0190   14.1917   24.9217 H   0  0  0  0  0  0  0  0  0  0  0  0
   -7.6353   14.1360   28.5797 H   0  0  0  0  0  0  0  0  0  0  0  0
   -8.0695   19.0877   25.5134 C   0  0  0  0  0  0  0  0  0  0  0  0
   -6.7496   18.9434   24.8362 C   0  0  0  0  0  0  0  0  0  0  0  0
   -5.5411   18.8001   25.5533 C   0  0  0  0  0  0  0  0  0  0  0  0
   -4.3217   18.7373   24.8424 C   0  0  0  0  0  0  0  0  0  0  0  0
   -4.3341   18.8143   23.4280 C   0  0  0  0  0  0  0  0  0  0  0  0
   -5.5574   18.9551   22.7330 C   0  0  0  0  0  0  0  0  0  0  0  0
   -6.7712   19.0109   23.4342 C   0  0  0  0  0  0  0  0  0  0  0  0
   -3.0369   18.7803   22.6546 C   0  0  0  0  0  0  0  0  0  0  0  0
   -2.7113   20.0723   22.1224 O   0  0  0  0  0  0  0  0  0  0  0  0
   -3.4113   20.3574   21.5144 H   0  0  0  0  0  0  0  0  0  0  0  0
   -9.4453   16.1477   24.5177 C   0  0  0  0  0  0  0  0  0  0  0  0
   -9.0553   16.3130   23.0608 C   0  0  0  0  0  0  0  0  0  0  0  0
   -9.9039   17.0185   22.1809 C   0  0  0  0  0  0  0  0  0  0  0  0
   -9.5109   17.2057   20.8445 C   0  0  0  0  0  0  0  0  0  0  0  0
   -8.2758   16.6940   20.3940 C   0  0  0  0  0  0  0  0  0  0  0  0
   -7.4262   15.9875   21.2667 C   0  0  0  0  0  0  0  0  0  0  0  0
   -7.8178   15.7913   22.6020 C   0  0  0  0  0  0  0  0  0  0  0  0
   -8.2038   16.4572   29.2843 C   0  0  0  0  0  0  0  0  0  0  0  0
   -8.5989   16.2814   30.7339 C   0  0  0  0  0  0  0  0  0  0  0  0
   -8.7999   14.9809   31.2540 C   0  0  0  0  0  0  0  0  0  0  0  0
   -9.1108   14.8165   32.6215 C   0  0  0  0  0  0  0  0  0  0  0  0
   -9.2124   15.9494   33.4573 C   0  0  0  0  0  0  0  0  0  0  0  0
   -9.0161   17.2498   32.9332 C   0  0  0  0  0  0  0  0  0  0  0  0
   -8.7101   17.4229   31.5681 C   0  0  0  0  0  0  0  0  0  0  0  0
  -11.3166   17.4723   28.5237 C   0  0  0  0  0  0  0  0  0  0  0  0
  -12.0088   16.3780   29.2603 C   0  0  0  0  0  0  0  0  0  0  0  0
  -12.5833   15.3861   28.4516 C   0  0  0  0  0  0  0  0  0  0  0  0
  -13.1722   14.2743   29.0546 C   0  0  0  0  0  0  0  0  0  0  0  0
  -13.2041   14.1584   30.4649 C   0  0  0  0  0  0  0  0  0  0  0  0
  -12.6313   15.1671   31.2758 C   0  0  0  0  0  0  0  0  0  0  0  0
  -12.0359   16.2906   30.6718 C   0  0  0  0  0  0  0  0  0  0  0  0
  -13.8308   12.9428   31.0988 C   0  0  0  0  0  0  0  0  0  0  0  0
  -12.8754   11.8783   31.2146 O   0  0  0  0  0  0  0  0  0  0  0  0
  -12.5577   11.6315   30.3320 H   0  0  0  0  0  0  0  0  0  0  0  0
  1  6  1  0  0  0
  1  7  1  0  0  0
  1  8  2  0  0  0
  2  3  1  0  0  0
  2 23  1  0  0  0
  2  6  1  0  0  0
  3  4  1  0  0  0
  3  9  1  0  0  0
  4  5  1  0  0  0
  4 10  1  0  0  0
  5 30  1  0  0  0
  5  7  1  0  0  0
 13 14  1  0  0  0
 13  6  1  0  0  0
 14 15  2  0  0  0
 14 19  1  0  0  0
 15 16  1  0  0  0
 16 17  2  0  0  0
 17 18  1  0  0  0
 17 20  1  0  0  0
 18 19  2  0  0  0
 20 21  1  0  0  0
 23 24  1  0  0  0
 24 25  2  0  0  0
 24 29  1  0  0  0
 25 26  1  0  0  0
 26 27  2  0  0  0
 27 28  1  0  0  0
 28 29  2  0  0  0
 30 31  1  0  0  0
 31 32  2  0  0  0
 31 36  1  0  0  0
 32 33  1  0  0  0
 33 34  2  0  0  0
 34 35  1  0  0  0
 35 36  2  0  0  0
 37 38  1  0  0  0
 37  7  1  0  0  0
 38 39  2  0  0  0
 38 43  1  0  0  0
 39 40  1  0  0  0
 40 41  2  0  0  0
 41 42  1  0  0  0
 41 44  1  0  0  0
 42 43  2  0  0  0
 44 45  1  0  0  0
  9 11  1  0  0  0
 10 12  1  0  0  0
 21 22  1  0  0  0
 45 46  1  0  0  0
M  END
> <minimizedAffinity>
-9.51847

$$$$
