5ZAE_EAU_U_301


 31 33  0  0  0  0  0  0  0  0999 V2000
  -27.8479  -15.5480   -3.5710 N   0  0  0  0  0  0  0  0  0  0  0  0
  -27.4652  -15.5997   -2.2613 C   0  0  0  0  0  0  0  0  0  0  0  0
  -28.9777  -16.3725   -5.4375 N   0  0  0  0  0  0  0  0  0  0  0  0
  -29.0604  -17.5498   -3.3832 C   0  0  0  0  0  0  0  0  0  0  0  0
  -28.6232  -16.4866   -4.1359 C   0  0  0  0  0  0  0  0  0  0  0  0
  -28.7152  -17.6351   -2.0879 N   0  0  0  0  0  0  0  0  0  0  0  0
  -27.9335  -16.7011   -1.5169 C   0  0  0  0  0  0  0  0  0  0  0  0
  -28.6597  -15.6073   -5.9691 H   0  0  0  0  0  0  0  0  0  0  0  0
  -29.5535  -17.0547   -5.8525 H   0  0  0  0  0  0  0  0  0  0  0  0
  -27.1540  -13.2122   -1.3952 C   0  0  0  0  0  0  0  0  0  0  0  0
  -27.0174  -12.3519   -2.6426 C   0  0  0  0  0  0  0  0  0  0  0  0
  -25.5436  -12.0365   -2.8868 C   0  0  0  0  0  0  0  0  0  0  0  0
  -24.8718  -13.1059   -3.7406 C   0  0  0  0  0  0  0  0  0  0  0  0
  -26.6647  -14.5322   -1.7880 N   0  0  0  0  0  0  0  0  0  0  0  0
  -25.2216  -14.6647   -1.6755 C   0  0  0  0  0  0  0  0  0  0  0  0
  -24.5355  -14.4191   -3.0199 C   0  0  0  0  0  0  0  0  0  0  0  0
  -28.4315  -16.6785    0.9612 O   0  0  0  0  0  0  0  0  0  0  0  0
  -27.6525  -17.0236   -0.1050 C   0  0  0  0  0  0  0  0  0  0  0  0
  -26.5949  -17.8123    0.3394 C   0  0  0  0  0  0  0  0  0  0  0  0
  -26.7010  -17.8986    1.7116 C   0  0  0  0  0  0  0  0  0  0  0  0
  -27.8265  -17.2022    2.0921 C   0  0  0  0  0  0  0  0  0  0  0  0
  -30.9484  -18.9539   -3.0827 N   0  0  0  0  0  0  0  0  0  0  0  0
  -29.9325  -18.6447   -3.8988 C   0  0  0  0  0  0  0  0  0  0  0  0
  -29.7443  -19.1690   -4.9738 O   0  0  0  0  0  0  0  0  0  0  0  0
  -31.1851  -18.3082   -2.3782 H   0  0  0  0  0  0  0  0  0  0  0  0
  -31.6546  -20.0693   -3.1607 C   0  0  0  0  0  0  0  0  0  0  0  0
  -31.7733  -20.8010   -2.0444 N   0  0  0  0  0  0  0  0  0  0  0  0
  -32.2210  -20.4334   -4.3184 N   0  0  0  0  0  0  0  0  0  0  0  0
  -32.2903  -21.6387   -2.0576 H   0  0  0  0  0  0  0  0  0  0  0  0
  -31.3435  -20.5008   -1.2111 H   0  0  0  0  0  0  0  0  0  0  0  0
  -32.1120  -19.8700   -5.1183 H   0  0  0  0  0  0  0  0  0  0  0  0
  3  5  1  0  0  0
 24 23  2  0  0  0
  5  1  2  0  0  0
  5  4  1  0  0  0
 28 26  2  0  0  0
 23  4  1  0  0  0
 23 22  1  0  0  0
  1  2  1  0  0  0
  4  6  2  0  0  0
 16 15  1  0  0  0
 16 13  1  0  0  0
 26 22  1  0  0  0
 26 27  1  0  0  0
 15 14  1  0  0  0
  2 14  1  0  0  0
  2  7  2  0  0  0
  6  7  1  0  0  0
 14 10  1  0  0  0
 13 12  1  0  0  0
  7 18  1  0  0  0
 10 11  1  0  0  0
 12 11  1  0  0  0
 18 19  2  0  0  0
 18 17  1  0  0  0
 19 20  1  0  0  0
 17 21  1  0  0  0
 20 21  2  0  0  0
  3  8  1  0  0  0
  3  9  1  0  0  0
 22 25  1  0  0  0
 27 29  1  0  0  0
 27 30  1  0  0  0
 28 31  1  0  0  0
M  END
> <minimizedAffinity>
-8.66680

$$$$
5ZAE_EAU_U_301


 31 33  0  0  0  0  0  0  0  0999 V2000
  -27.8135  -15.6197   -3.7841 N   0  0  0  0  0  0  0  0  0  0  0  0
  -27.4346  -15.6115   -2.4723 C   0  0  0  0  0  0  0  0  0  0  0  0
  -28.9606  -16.5133   -5.6079 N   0  0  0  0  0  0  0  0  0  0  0  0
  -29.0769  -17.5774   -3.4943 C   0  0  0  0  0  0  0  0  0  0  0  0
  -28.6114  -16.5671   -4.3010 C   0  0  0  0  0  0  0  0  0  0  0  0
  -28.7363  -17.6026   -2.1952 N   0  0  0  0  0  0  0  0  0  0  0  0
  -27.9322  -16.6597   -1.6721 C   0  0  0  0  0  0  0  0  0  0  0  0
  -28.6223  -15.7856   -6.1782 H   0  0  0  0  0  0  0  0  0  0  0  0
  -29.5528  -17.2018   -5.9879 H   0  0  0  0  0  0  0  0  0  0  0  0
  -25.1659  -14.6181   -1.8298 C   0  0  0  0  0  0  0  0  0  0  0  0
  -25.0108  -14.9100   -0.3447 C   0  0  0  0  0  0  0  0  0  0  0  0
  -25.3467  -13.6567    0.4601 C   0  0  0  0  0  0  0  0  0  0  0  0
  -26.8329  -13.5796    0.7900 C   0  0  0  0  0  0  0  0  0  0  0  0
  -26.6081  -14.5410   -2.0537 N   0  0  0  0  0  0  0  0  0  0  0  0
  -27.1612  -13.2258   -1.7760 C   0  0  0  0  0  0  0  0  0  0  0  0
  -27.7505  -13.1582   -0.3665 C   0  0  0  0  0  0  0  0  0  0  0  0
  -28.4068  -16.4518    0.8020 O   0  0  0  0  0  0  0  0  0  0  0  0
  -27.6619  -16.9138   -0.2442 C   0  0  0  0  0  0  0  0  0  0  0  0
  -26.6566  -17.7443    0.2435 C   0  0  0  0  0  0  0  0  0  0  0  0
  -26.7570  -17.7392    1.6188 C   0  0  0  0  0  0  0  0  0  0  0  0
  -27.8294  -16.9456    1.9604 C   0  0  0  0  0  0  0  0  0  0  0  0
  -30.9605  -18.9620   -3.0927 N   0  0  0  0  0  0  0  0  0  0  0  0
  -29.9756  -18.6758   -3.9539 C   0  0  0  0  0  0  0  0  0  0  0  0
  -29.8332  -19.2219   -5.0251 O   0  0  0  0  0  0  0  0  0  0  0  0
  -31.1651  -18.3012   -2.3921 H   0  0  0  0  0  0  0  0  0  0  0  0
  -31.6764  -20.0736   -3.1212 C   0  0  0  0  0  0  0  0  0  0  0  0
  -32.2776  -20.3880   -4.2766 N   0  0  0  0  0  0  0  0  0  0  0  0
  -31.7817  -20.8402   -2.0280 N   0  0  0  0  0  0  0  0  0  0  0  0
  -32.8204  -21.2068   -4.3422 H   0  0  0  0  0  0  0  0  0  0  0  0
  -32.1766  -19.8003   -5.0599 H   0  0  0  0  0  0  0  0  0  0  0  0
  -31.3255  -20.5768   -1.1963 H   0  0  0  0  0  0  0  0  0  0  0  0
  3  5  1  0  0  0
 24 23  2  0  0  0
  5  1  2  0  0  0
  5  4  1  0  0  0
 28 26  2  0  0  0
 23  4  1  0  0  0
 23 22  1  0  0  0
  1  2  1  0  0  0
  4  6  2  0  0  0
 16 15  1  0  0  0
 16 13  1  0  0  0
 26 22  1  0  0  0
 26 27  1  0  0  0
 15 14  1  0  0  0
  2 14  1  0  0  0
  2  7  2  0  0  0
  6  7  1  0  0  0
 14 10  1  0  0  0
 13 12  1  0  0  0
  7 18  1  0  0  0
 10 11  1  0  0  0
 12 11  1  0  0  0
 18 19  2  0  0  0
 18 17  1  0  0  0
 19 20  1  0  0  0
 17 21  1  0  0  0
 20 21  2  0  0  0
  3  8  1  0  0  0
  3  9  1  0  0  0
 22 25  1  0  0  0
 27 29  1  0  0  0
 27 30  1  0  0  0
 28 31  1  0  0  0
M  END
> <minimizedAffinity>
-8.61985

$$$$
5ZAE_EAU_U_301


 31 33  0  0  0  0  0  0  0  0999 V2000
  -27.6408  -15.7347   -3.2894 N   0  0  0  0  0  0  0  0  0  0  0  0
  -27.1717  -15.9365   -2.0231 C   0  0  0  0  0  0  0  0  0  0  0  0
  -28.9330  -16.3174   -5.1418 N   0  0  0  0  0  0  0  0  0  0  0  0
  -28.9280  -17.6970   -3.2157 C   0  0  0  0  0  0  0  0  0  0  0  0
  -28.4954  -16.5792   -3.8877 C   0  0  0  0  0  0  0  0  0  0  0  0
  -28.4987  -17.9293   -1.9643 N   0  0  0  0  0  0  0  0  0  0  0  0
  -27.6377  -17.0902   -1.3610 C   0  0  0  0  0  0  0  0  0  0  0  0
  -28.6176  -15.5140   -5.6155 H   0  0  0  0  0  0  0  0  0  0  0  0
  -29.5667  -16.9303   -5.5800 H   0  0  0  0  0  0  0  0  0  0  0  0
  -26.5404  -14.1309   -0.3237 C   0  0  0  0  0  0  0  0  0  0  0  0
  -27.1588  -12.8480   -0.8591 C   0  0  0  0  0  0  0  0  0  0  0  0
  -26.0850  -12.0148   -1.5547 C   0  0  0  0  0  0  0  0  0  0  0  0
  -25.9531  -12.3816   -3.0284 C   0  0  0  0  0  0  0  0  0  0  0  0
  -26.2925  -14.9554   -1.5046 N   0  0  0  0  0  0  0  0  0  0  0  0
  -25.0258  -14.6602   -2.1535 C   0  0  0  0  0  0  0  0  0  0  0  0
  -25.2140  -13.6943   -3.3242 C   0  0  0  0  0  0  0  0  0  0  0  0
  -26.1688  -18.3029    0.3007 O   0  0  0  0  0  0  0  0  0  0  0  0
  -27.2752  -17.5678   -0.0131 C   0  0  0  0  0  0  0  0  0  0  0  0
  -27.9629  -17.2571    1.1568 C   0  0  0  0  0  0  0  0  0  0  0  0
  -27.2921  -17.8661    2.1964 C   0  0  0  0  0  0  0  0  0  0  0  0
  -26.1931  -18.5081    1.6705 C   0  0  0  0  0  0  0  0  0  0  0  0
  -30.8751  -19.0222   -2.9347 N   0  0  0  0  0  0  0  0  0  0  0  0
  -29.8827  -18.6983   -3.7737 C   0  0  0  0  0  0  0  0  0  0  0  0
  -29.7742  -19.1393   -4.8960 O   0  0  0  0  0  0  0  0  0  0  0  0
  -31.0425  -18.4266   -2.1688 H   0  0  0  0  0  0  0  0  0  0  0  0
  -31.6452  -20.0891   -3.0672 C   0  0  0  0  0  0  0  0  0  0  0  0
  -31.7845  -20.8832   -1.9970 N   0  0  0  0  0  0  0  0  0  0  0  0
  -32.2531  -20.3459   -4.2326 N   0  0  0  0  0  0  0  0  0  0  0  0
  -32.3487  -21.6882   -2.0515 H   0  0  0  0  0  0  0  0  0  0  0  0
  -31.3227  -20.6617   -1.1562 H   0  0  0  0  0  0  0  0  0  0  0  0
  -32.1271  -19.7392   -4.9977 H   0  0  0  0  0  0  0  0  0  0  0  0
  3  5  1  0  0  0
 24 23  2  0  0  0
  5  1  2  0  0  0
  5  4  1  0  0  0
 28 26  2  0  0  0
 23  4  1  0  0  0
 23 22  1  0  0  0
  1  2  1  0  0  0
  4  6  2  0  0  0
 16 15  1  0  0  0
 16 13  1  0  0  0
 26 22  1  0  0  0
 26 27  1  0  0  0
 15 14  1  0  0  0
  2 14  1  0  0  0
  2  7  2  0  0  0
  6  7  1  0  0  0
 14 10  1  0  0  0
 13 12  1  0  0  0
  7 18  1  0  0  0
 10 11  1  0  0  0
 12 11  1  0  0  0
 18 19  2  0  0  0
 18 17  1  0  0  0
 19 20  1  0  0  0
 17 21  1  0  0  0
 20 21  2  0  0  0
  3  8  1  0  0  0
  3  9  1  0  0  0
 22 25  1  0  0  0
 27 29  1  0  0  0
 27 30  1  0  0  0
 28 31  1  0  0  0
M  END
> <minimizedAffinity>
-8.59894

$$$$
5ZAE_EAU_U_301


 31 33  0  0  0  0  0  0  0  0999 V2000
  -27.7797  -15.6493   -3.3996 N   0  0  0  0  0  0  0  0  0  0  0  0
  -27.3716  -15.7586   -2.1011 C   0  0  0  0  0  0  0  0  0  0  0  0
  -28.9654  -16.3784   -5.2711 N   0  0  0  0  0  0  0  0  0  0  0  0
  -29.0322  -17.6304   -3.2609 C   0  0  0  0  0  0  0  0  0  0  0  0
  -28.5870  -16.5491   -3.9826 C   0  0  0  0  0  0  0  0  0  0  0  0
  -28.6625  -17.7720   -1.9773 N   0  0  0  0  0  0  0  0  0  0  0  0
  -27.8489  -16.8771   -1.3886 C   0  0  0  0  0  0  0  0  0  0  0  0
  -28.6414  -15.6006   -5.7804 H   0  0  0  0  0  0  0  0  0  0  0  0
  -29.5645  -17.0321   -5.6990 H   0  0  0  0  0  0  0  0  0  0  0  0
  -25.1056  -14.8452   -1.3412 C   0  0  0  0  0  0  0  0  0  0  0  0
  -25.0035  -15.2116    0.1320 C   0  0  0  0  0  0  0  0  0  0  0  0
  -25.3403  -13.9918    0.9863 C   0  0  0  0  0  0  0  0  0  0  0  0
  -26.8345  -13.8995    1.2736 C   0  0  0  0  0  0  0  0  0  0  0  0
  -26.5381  -14.7271   -1.6054 N   0  0  0  0  0  0  0  0  0  0  0  0
  -27.0741  -13.4156   -1.2809 C   0  0  0  0  0  0  0  0  0  0  0  0
  -27.7066  -13.4037    0.1114 C   0  0  0  0  0  0  0  0  0  0  0  0
  -26.4457  -17.9512    0.4188 O   0  0  0  0  0  0  0  0  0  0  0  0
  -27.5462  -17.2587    0.0040 C   0  0  0  0  0  0  0  0  0  0  0  0
  -28.2954  -16.8846    1.1160 C   0  0  0  0  0  0  0  0  0  0  0  0
  -27.6678  -17.4118    2.2250 C   0  0  0  0  0  0  0  0  0  0  0  0
  -26.5346  -18.0667    1.7965 C   0  0  0  0  0  0  0  0  0  0  0  0
  -30.9267  -19.0258   -2.9604 N   0  0  0  0  0  0  0  0  0  0  0  0
  -29.9386  -18.6862   -3.7984 C   0  0  0  0  0  0  0  0  0  0  0  0
  -29.7992  -19.1555   -4.9058 O   0  0  0  0  0  0  0  0  0  0  0  0
  -31.1271  -18.4152   -2.2145 H   0  0  0  0  0  0  0  0  0  0  0  0
  -31.6509  -20.1270   -3.0687 C   0  0  0  0  0  0  0  0  0  0  0  0
  -31.7622  -20.8990   -1.9793 N   0  0  0  0  0  0  0  0  0  0  0  0
  -32.2418  -20.4382   -4.2296 N   0  0  0  0  0  0  0  0  0  0  0  0
  -32.2920  -21.7280   -2.0155 H   0  0  0  0  0  0  0  0  0  0  0  0
  -31.3142  -20.6373   -1.1426 H   0  0  0  0  0  0  0  0  0  0  0  0
  -32.1374  -19.8463   -5.0093 H   0  0  0  0  0  0  0  0  0  0  0  0
  3  5  1  0  0  0
 24 23  2  0  0  0
  5  1  2  0  0  0
  5  4  1  0  0  0
 28 26  2  0  0  0
 23  4  1  0  0  0
 23 22  1  0  0  0
  1  2  1  0  0  0
  4  6  2  0  0  0
 16 15  1  0  0  0
 16 13  1  0  0  0
 26 22  1  0  0  0
 26 27  1  0  0  0
 15 14  1  0  0  0
  2 14  1  0  0  0
  2  7  2  0  0  0
  6  7  1  0  0  0
 14 10  1  0  0  0
 13 12  1  0  0  0
  7 18  1  0  0  0
 10 11  1  0  0  0
 12 11  1  0  0  0
 18 19  2  0  0  0
 18 17  1  0  0  0
 19 20  1  0  0  0
 17 21  1  0  0  0
 20 21  2  0  0  0
  3  8  1  0  0  0
  3  9  1  0  0  0
 22 25  1  0  0  0
 27 29  1  0  0  0
 27 30  1  0  0  0
 28 31  1  0  0  0
M  END
> <minimizedAffinity>
-8.37434

$$$$
5ZAE_EAU_U_301


 31 33  0  0  0  0  0  0  0  0999 V2000
  -27.2062  -16.2331   -4.2079 N   0  0  0  0  0  0  0  0  0  0  0  0
  -27.2815  -15.5409   -3.0334 C   0  0  0  0  0  0  0  0  0  0  0  0
  -28.0134  -17.7665   -5.7691 N   0  0  0  0  0  0  0  0  0  0  0  0
  -29.2224  -17.3551   -3.7736 C   0  0  0  0  0  0  0  0  0  0  0  0
  -28.1396  -17.1201   -4.5863 C   0  0  0  0  0  0  0  0  0  0  0  0
  -29.3409  -16.6890   -2.6132 N   0  0  0  0  0  0  0  0  0  0  0  0
  -28.4061  -15.8030   -2.2251 C   0  0  0  0  0  0  0  0  0  0  0  0
  -27.2341  -17.5918   -6.3449 H   0  0  0  0  0  0  0  0  0  0  0  0
  -28.7009  -18.4113   -6.0535 H   0  0  0  0  0  0  0  0  0  0  0  0
  -25.2190  -14.7661   -1.7324 C   0  0  0  0  0  0  0  0  0  0  0  0
  -25.7679  -14.0182   -0.5265 C   0  0  0  0  0  0  0  0  0  0  0  0
  -25.6889  -12.5144   -0.7786 C   0  0  0  0  0  0  0  0  0  0  0  0
  -26.9403  -11.9927   -1.4754 C   0  0  0  0  0  0  0  0  0  0  0  0
  -26.2398  -14.6195   -2.7679 N   0  0  0  0  0  0  0  0  0  0  0  0
  -26.1150  -13.3847   -3.5244 C   0  0  0  0  0  0  0  0  0  0  0  0
  -27.0447  -12.3015   -2.9757 C   0  0  0  0  0  0  0  0  0  0  0  0
  -28.3587  -15.7539    0.3016 O   0  0  0  0  0  0  0  0  0  0  0  0
  -28.7238  -15.2285   -0.9040 C   0  0  0  0  0  0  0  0  0  0  0  0
  -29.3649  -14.0106   -0.6952 C   0  0  0  0  0  0  0  0  0  0  0  0
  -29.4430  -13.8209    0.6684 C   0  0  0  0  0  0  0  0  0  0  0  0
  -28.8270  -14.8908    1.2788 C   0  0  0  0  0  0  0  0  0  0  0  0
  -30.8253  -18.9329   -3.0203 N   0  0  0  0  0  0  0  0  0  0  0  0
  -30.3247  -18.3077   -4.0938 C   0  0  0  0  0  0  0  0  0  0  0  0
  -30.7389  -18.4618   -5.2210 O   0  0  0  0  0  0  0  0  0  0  0  0
  -30.6262  -18.5545   -2.1335 H   0  0  0  0  0  0  0  0  0  0  0  0
  -31.5693  -20.0250   -3.0729 C   0  0  0  0  0  0  0  0  0  0  0  0
  -31.5588  -20.8281   -2.0004 N   0  0  0  0  0  0  0  0  0  0  0  0
  -32.2974  -20.2972   -4.1635 N   0  0  0  0  0  0  0  0  0  0  0  0
  -32.0982  -21.6517   -1.9968 H   0  0  0  0  0  0  0  0  0  0  0  0
  -31.0116  -20.5946   -1.2159 H   0  0  0  0  0  0  0  0  0  0  0  0
  -32.2801  -19.6832   -4.9328 H   0  0  0  0  0  0  0  0  0  0  0  0
  3  5  1  0  0  0
 24 23  2  0  0  0
  5  1  2  0  0  0
  5  4  1  0  0  0
 28 26  2  0  0  0
 23  4  1  0  0  0
 23 22  1  0  0  0
  1  2  1  0  0  0
  4  6  2  0  0  0
 16 15  1  0  0  0
 16 13  1  0  0  0
 26 22  1  0  0  0
 26 27  1  0  0  0
 15 14  1  0  0  0
  2 14  1  0  0  0
  2  7  2  0  0  0
  6  7  1  0  0  0
 14 10  1  0  0  0
 13 12  1  0  0  0
  7 18  1  0  0  0
 10 11  1  0  0  0
 12 11  1  0  0  0
 18 19  2  0  0  0
 18 17  1  0  0  0
 19 20  1  0  0  0
 17 21  1  0  0  0
 20 21  2  0  0  0
  3  8  1  0  0  0
  3  9  1  0  0  0
 22 25  1  0  0  0
 27 29  1  0  0  0
 27 30  1  0  0  0
 28 31  1  0  0  0
M  END
> <minimizedAffinity>
-8.24253

$$$$
5ZAE_EAU_U_301


 31 33  0  0  0  0  0  0  0  0999 V2000
  -27.4309  -15.1957   -1.9663 N   0  0  0  0  0  0  0  0  0  0  0  0
  -26.9152  -15.7702   -0.8400 C   0  0  0  0  0  0  0  0  0  0  0  0
  -28.7186  -15.2301   -3.9108 N   0  0  0  0  0  0  0  0  0  0  0  0
  -28.5540  -17.1701   -2.5608 C   0  0  0  0  0  0  0  0  0  0  0  0
  -28.2297  -15.8595   -2.8164 C   0  0  0  0  0  0  0  0  0  0  0  0
  -28.0759  -17.7715   -1.4590 N   0  0  0  0  0  0  0  0  0  0  0  0
  -27.2701  -17.1140   -0.6059 C   0  0  0  0  0  0  0  0  0  0  0  0
  -28.4808  -14.2909   -4.0858 H   0  0  0  0  0  0  0  0  0  0  0  0
  -29.3118  -15.7116   -4.5316 H   0  0  0  0  0  0  0  0  0  0  0  0
  -26.5814  -14.1119    1.0798 C   0  0  0  0  0  0  0  0  0  0  0  0
  -26.8067  -12.7396    0.4628 C   0  0  0  0  0  0  0  0  0  0  0  0
  -25.4595  -12.0795    0.1794 C   0  0  0  0  0  0  0  0  0  0  0  0
  -24.9334  -12.4426   -1.2045 C   0  0  0  0  0  0  0  0  0  0  0  0
  -26.1048  -14.9494   -0.0190 N   0  0  0  0  0  0  0  0  0  0  0  0
  -24.6705  -14.8518   -0.2330 C   0  0  0  0  0  0  0  0  0  0  0  0
  -24.3418  -13.8525   -1.3430 C   0  0  0  0  0  0  0  0  0  0  0  0
  -25.6987  -18.7372    0.5278 O   0  0  0  0  0  0  0  0  0  0  0  0
  -26.8364  -17.9836    0.5041 C   0  0  0  0  0  0  0  0  0  0  0  0
  -27.4797  -18.0904    1.7341 C   0  0  0  0  0  0  0  0  0  0  0  0
  -26.7484  -18.9739    2.4998 C   0  0  0  0  0  0  0  0  0  0  0  0
  -25.6574  -19.3709    1.7591 C   0  0  0  0  0  0  0  0  0  0  0  0
  -30.5155  -18.4839   -2.7907 N   0  0  0  0  0  0  0  0  0  0  0  0
  -29.4390  -18.0028   -3.4259 C   0  0  0  0  0  0  0  0  0  0  0  0
  -29.2078  -18.1865   -4.6002 O   0  0  0  0  0  0  0  0  0  0  0  0
  -30.7670  -18.0695   -1.9339 H   0  0  0  0  0  0  0  0  0  0  0  0
  -31.2629  -19.4788   -3.2385 C   0  0  0  0  0  0  0  0  0  0  0  0
  -31.3722  -20.5639   -2.4601 N   0  0  0  0  0  0  0  0  0  0  0  0
  -31.8779  -19.3840   -4.4244 N   0  0  0  0  0  0  0  0  0  0  0  0
  -31.9187  -21.3280   -2.7547 H   0  0  0  0  0  0  0  0  0  0  0  0
  -30.9060  -20.5972   -1.5936 H   0  0  0  0  0  0  0  0  0  0  0  0
  -31.7742  -18.5705   -4.9691 H   0  0  0  0  0  0  0  0  0  0  0  0
  3  5  1  0  0  0
 24 23  2  0  0  0
  5  1  2  0  0  0
  5  4  1  0  0  0
 28 26  2  0  0  0
 23  4  1  0  0  0
 23 22  1  0  0  0
  1  2  1  0  0  0
  4  6  2  0  0  0
 16 15  1  0  0  0
 16 13  1  0  0  0
 26 22  1  0  0  0
 26 27  1  0  0  0
 15 14  1  0  0  0
  2 14  1  0  0  0
  2  7  2  0  0  0
  6  7  1  0  0  0
 14 10  1  0  0  0
 13 12  1  0  0  0
  7 18  1  0  0  0
 10 11  1  0  0  0
 12 11  1  0  0  0
 18 19  2  0  0  0
 18 17  1  0  0  0
 19 20  1  0  0  0
 17 21  1  0  0  0
 20 21  2  0  0  0
  3  8  1  0  0  0
  3  9  1  0  0  0
 22 25  1  0  0  0
 27 29  1  0  0  0
 27 30  1  0  0  0
 28 31  1  0  0  0
M  END
> <minimizedAffinity>
-7.71345

$$$$
5ZAE_EAU_U_301


 31 33  0  0  0  0  0  0  0  0999 V2000
  -28.1924  -13.3778   -1.9175 N   0  0  0  0  0  0  0  0  0  0  0  0
  -28.2140  -13.6240   -0.5746 C   0  0  0  0  0  0  0  0  0  0  0  0
  -28.2776  -14.0430   -4.1515 N   0  0  0  0  0  0  0  0  0  0  0  0
  -28.4268  -15.6582   -2.4247 C   0  0  0  0  0  0  0  0  0  0  0  0
  -28.2943  -14.3531   -2.8338 C   0  0  0  0  0  0  0  0  0  0  0  0
  -28.4620  -15.9444   -1.1128 N   0  0  0  0  0  0  0  0  0  0  0  0
  -28.3545  -14.9724   -0.1892 C   0  0  0  0  0  0  0  0  0  0  0  0
  -28.1822  -13.1051   -4.4352 H   0  0  0  0  0  0  0  0  0  0  0  0
  -28.3610  -14.7553   -4.8260 H   0  0  0  0  0  0  0  0  0  0  0  0
  -29.2409  -11.8504    0.9572 C   0  0  0  0  0  0  0  0  0  0  0  0
  -29.6604  -10.7195    0.0299 C   0  0  0  0  0  0  0  0  0  0  0  0
  -28.6217   -9.6018    0.0851 C   0  0  0  0  0  0  0  0  0  0  0  0
  -27.5086   -9.8153   -0.9343 C   0  0  0  0  0  0  0  0  0  0  0  0
  -28.1198  -12.5003    0.2815 N   0  0  0  0  0  0  0  0  0  0  0  0
  -26.8422  -11.8598    0.5465 C   0  0  0  0  0  0  0  0  0  0  0  0
  -26.4685  -10.8842   -0.5702 C   0  0  0  0  0  0  0  0  0  0  0  0
  -29.2867  -15.2167    2.1476 O   0  0  0  0  0  0  0  0  0  0  0  0
  -28.3759  -15.5244    1.1788 C   0  0  0  0  0  0  0  0  0  0  0  0
  -27.5219  -16.5157    1.6542 C   0  0  0  0  0  0  0  0  0  0  0  0
  -27.8849  -16.7731    2.9594 C   0  0  0  0  0  0  0  0  0  0  0  0
  -28.9661  -15.9754    3.2615 C   0  0  0  0  0  0  0  0  0  0  0  0
  -29.7261  -17.4683   -3.2385 N   0  0  0  0  0  0  0  0  0  0  0  0
  -28.5586  -16.8214   -3.3493 C   0  0  0  0  0  0  0  0  0  0  0  0
  -27.6941  -17.1166   -4.1440 O   0  0  0  0  0  0  0  0  0  0  0  0
  -30.4645  -17.0084   -2.7775 H   0  0  0  0  0  0  0  0  0  0  0  0
  -29.9525  -18.6839   -3.7073 C   0  0  0  0  0  0  0  0  0  0  0  0
  -30.4148  -19.5991   -2.8447 N   0  0  0  0  0  0  0  0  0  0  0  0
  -29.7234  -18.9669   -4.9961 N   0  0  0  0  0  0  0  0  0  0  0  0
  -30.5971  -20.5167   -3.1513 H   0  0  0  0  0  0  0  0  0  0  0  0
  -30.5722  -19.3539   -1.9043 H   0  0  0  0  0  0  0  0  0  0  0  0
  -29.3834  -18.2682   -5.6006 H   0  0  0  0  0  0  0  0  0  0  0  0
  3  5  1  0  0  0
 24 23  2  0  0  0
  5  1  2  0  0  0
  5  4  1  0  0  0
 28 26  2  0  0  0
 23  4  1  0  0  0
 23 22  1  0  0  0
  1  2  1  0  0  0
  4  6  2  0  0  0
 16 15  1  0  0  0
 16 13  1  0  0  0
 26 22  1  0  0  0
 26 27  1  0  0  0
 15 14  1  0  0  0
  2 14  1  0  0  0
  2  7  2  0  0  0
  6  7  1  0  0  0
 14 10  1  0  0  0
 13 12  1  0  0  0
  7 18  1  0  0  0
 10 11  1  0  0  0
 12 11  1  0  0  0
 18 19  2  0  0  0
 18 17  1  0  0  0
 19 20  1  0  0  0
 17 21  1  0  0  0
 20 21  2  0  0  0
  3  8  1  0  0  0
  3  9  1  0  0  0
 22 25  1  0  0  0
 27 29  1  0  0  0
 27 30  1  0  0  0
 28 31  1  0  0  0
M  END
> <minimizedAffinity>
-7.41066

$$$$
5ZAE_EAU_U_301


 31 33  0  0  0  0  0  0  0  0999 V2000
  -26.3277  -15.2422   -0.6612 N   0  0  0  0  0  0  0  0  0  0  0  0
  -27.1863  -15.5560   -1.6756 C   0  0  0  0  0  0  0  0  0  0  0  0
  -25.0482  -15.7748    1.2147 N   0  0  0  0  0  0  0  0  0  0  0  0
  -26.3506  -17.4446    0.1523 C   0  0  0  0  0  0  0  0  0  0  0  0
  -25.9094  -16.1461    0.2384 C   0  0  0  0  0  0  0  0  0  0  0  0
  -27.1889  -17.7988   -0.8356 N   0  0  0  0  0  0  0  0  0  0  0  0
  -27.6167  -16.8967   -1.7371 C   0  0  0  0  0  0  0  0  0  0  0  0
  -24.7374  -14.8422    1.2686 H   0  0  0  0  0  0  0  0  0  0  0  0
  -24.7326  -16.4375    1.8709 H   0  0  0  0  0  0  0  0  0  0  0  0
  -26.6902  -14.0139   -3.6562 C   0  0  0  0  0  0  0  0  0  0  0  0
  -25.9271  -12.8389   -3.0632 C   0  0  0  0  0  0  0  0  0  0  0  0
  -26.8732  -11.6541   -2.8827 C   0  0  0  0  0  0  0  0  0  0  0  0
  -27.5662  -11.6874   -1.5254 C   0  0  0  0  0  0  0  0  0  0  0  0
  -27.5289  -14.5112   -2.5675 N   0  0  0  0  0  0  0  0  0  0  0  0
  -28.7913  -13.8010   -2.4468 C   0  0  0  0  0  0  0  0  0  0  0  0
  -28.7103  -12.7017   -1.3868 C   0  0  0  0  0  0  0  0  0  0  0  0
  -28.4640  -17.4310   -4.0579 O   0  0  0  0  0  0  0  0  0  0  0  0
  -28.5591  -17.5007   -2.6981 C   0  0  0  0  0  0  0  0  0  0  0  0
  -29.6366  -18.3138   -2.3575 C   0  0  0  0  0  0  0  0  0  0  0  0
  -30.2439  -18.6978   -3.5345 C   0  0  0  0  0  0  0  0  0  0  0  0
  -29.5251  -18.1551   -4.5764 C   0  0  0  0  0  0  0  0  0  0  0  0
  -26.8289  -18.7572    2.0692 N   0  0  0  0  0  0  0  0  0  0  0  0
  -25.9465  -18.5350    1.0865 C   0  0  0  0  0  0  0  0  0  0  0  0
  -24.9287  -19.1728    0.9340 O   0  0  0  0  0  0  0  0  0  0  0  0
  -27.7375  -18.3934    1.9622 H   0  0  0  0  0  0  0  0  0  0  0  0
  -26.5605  -19.4330    3.1739 C   0  0  0  0  0  0  0  0  0  0  0  0
  -27.5598  -20.1382    3.7211 N   0  0  0  0  0  0  0  0  0  0  0  0
  -25.3321  -19.4010    3.7064 N   0  0  0  0  0  0  0  0  0  0  0  0
  -27.4038  -20.6559    4.5439 H   0  0  0  0  0  0  0  0  0  0  0  0
  -28.4499  -20.1386    3.3005 H   0  0  0  0  0  0  0  0  0  0  0  0
  -24.6226  -18.8713    3.2759 H   0  0  0  0  0  0  0  0  0  0  0  0
  3  5  1  0  0  0
 24 23  2  0  0  0
  5  1  2  0  0  0
  5  4  1  0  0  0
 28 26  2  0  0  0
 23  4  1  0  0  0
 23 22  1  0  0  0
  1  2  1  0  0  0
  4  6  2  0  0  0
 16 15  1  0  0  0
 16 13  1  0  0  0
 26 22  1  0  0  0
 26 27  1  0  0  0
 15 14  1  0  0  0
  2 14  1  0  0  0
  2  7  2  0  0  0
  6  7  1  0  0  0
 14 10  1  0  0  0
 13 12  1  0  0  0
  7 18  1  0  0  0
 10 11  1  0  0  0
 12 11  1  0  0  0
 18 19  2  0  0  0
 18 17  1  0  0  0
 19 20  1  0  0  0
 17 21  1  0  0  0
 20 21  2  0  0  0
  3  8  1  0  0  0
  3  9  1  0  0  0
 22 25  1  0  0  0
 27 29  1  0  0  0
 27 30  1  0  0  0
 28 31  1  0  0  0
M  END
> <minimizedAffinity>
-6.97755

$$$$
5ZAE_EAU_U_301


 31 33  0  0  0  0  0  0  0  0999 V2000
  -26.3176  -13.0338   -1.3299 N   0  0  0  0  0  0  0  0  0  0  0  0
  -27.3153  -13.9063   -1.6580 C   0  0  0  0  0  0  0  0  0  0  0  0
  -24.2037  -12.0924   -1.6228 N   0  0  0  0  0  0  0  0  0  0  0  0
  -24.9296  -13.8464   -3.0404 C   0  0  0  0  0  0  0  0  0  0  0  0
  -25.1496  -12.9888   -1.9896 C   0  0  0  0  0  0  0  0  0  0  0  0
  -25.8880  -14.7150   -3.4029 N   0  0  0  0  0  0  0  0  0  0  0  0
  -27.0586  -14.7694   -2.7423 C   0  0  0  0  0  0  0  0  0  0  0  0
  -24.3702  -11.4819   -0.8686 H   0  0  0  0  0  0  0  0  0  0  0  0
  -23.3494  -12.0511   -2.1103 H   0  0  0  0  0  0  0  0  0  0  0  0
  -29.6298  -12.9372   -1.1571 C   0  0  0  0  0  0  0  0  0  0  0  0
  -29.3686  -11.7090   -0.2980 C   0  0  0  0  0  0  0  0  0  0  0  0
  -29.6251  -12.0475    1.1685 C   0  0  0  0  0  0  0  0  0  0  0  0
  -28.3753  -12.5955    1.8479 C   0  0  0  0  0  0  0  0  0  0  0  0
  -28.5047  -13.8320   -0.8936 N   0  0  0  0  0  0  0  0  0  0  0  0
  -28.6965  -14.6617    0.2843 C   0  0  0  0  0  0  0  0  0  0  0  0
  -28.0176  -14.0499    1.5105 C   0  0  0  0  0  0  0  0  0  0  0  0
  -28.4543  -15.8536   -4.5495 O   0  0  0  0  0  0  0  0  0  0  0  0
  -27.9361  -15.8227   -3.2872 C   0  0  0  0  0  0  0  0  0  0  0  0
  -28.2894  -16.9926   -2.6206 C   0  0  0  0  0  0  0  0  0  0  0  0
  -29.0881  -17.7223   -3.4758 C   0  0  0  0  0  0  0  0  0  0  0  0
  -29.1897  -17.0227   -4.6576 C   0  0  0  0  0  0  0  0  0  0  0  0
  -23.8930  -14.0043   -5.1681 N   0  0  0  0  0  0  0  0  0  0  0  0
  -23.6784  -13.8806   -3.8519 C   0  0  0  0  0  0  0  0  0  0  0  0
  -22.5809  -13.7697   -3.3527 O   0  0  0  0  0  0  0  0  0  0  0  0
  -24.7976  -13.8131   -5.5064 H   0  0  0  0  0  0  0  0  0  0  0  0
  -22.9701  -14.3664   -6.0434 C   0  0  0  0  0  0  0  0  0  0  0  0
  -21.8910  -13.5807   -6.1593 N   0  0  0  0  0  0  0  0  0  0  0  0
  -23.1273  -15.4783   -6.7732 N   0  0  0  0  0  0  0  0  0  0  0  0
  -21.1794  -13.8129   -6.7988 H   0  0  0  0  0  0  0  0  0  0  0  0
  -21.8097  -12.7712   -5.6049 H   0  0  0  0  0  0  0  0  0  0  0  0
  -23.9341  -16.0311   -6.6606 H   0  0  0  0  0  0  0  0  0  0  0  0
  3  5  1  0  0  0
 24 23  2  0  0  0
  5  1  2  0  0  0
  5  4  1  0  0  0
 28 26  2  0  0  0
 23  4  1  0  0  0
 23 22  1  0  0  0
  1  2  1  0  0  0
  4  6  2  0  0  0
 16 15  1  0  0  0
 16 13  1  0  0  0
 26 22  1  0  0  0
 26 27  1  0  0  0
 15 14  1  0  0  0
  2 14  1  0  0  0
  2  7  2  0  0  0
  6  7  1  0  0  0
 14 10  1  0  0  0
 13 12  1  0  0  0
  7 18  1  0  0  0
 10 11  1  0  0  0
 12 11  1  0  0  0
 18 19  2  0  0  0
 18 17  1  0  0  0
 19 20  1  0  0  0
 17 21  1  0  0  0
 20 21  2  0  0  0
  3  8  1  0  0  0
  3  9  1  0  0  0
 22 25  1  0  0  0
 27 29  1  0  0  0
 27 30  1  0  0  0
 28 31  1  0  0  0
M  END
> <minimizedAffinity>
-6.76735

$$$$
5ZAE_EAU_U_301


 31 33  0  0  0  0  0  0  0  0999 V2000
  -28.3354  -14.7740   -0.2873 N   0  0  0  0  0  0  0  0  0  0  0  0
  -27.7223  -15.5406    0.6618 C   0  0  0  0  0  0  0  0  0  0  0  0
  -29.2678  -14.4363   -2.3985 N   0  0  0  0  0  0  0  0  0  0  0  0
  -28.3517  -16.5455   -1.8282 C   0  0  0  0  0  0  0  0  0  0  0  0
  -28.6498  -15.2437   -1.5046 C   0  0  0  0  0  0  0  0  0  0  0  0
  -27.7568  -17.3375   -0.9210 N   0  0  0  0  0  0  0  0  0  0  0  0
  -27.4336  -16.8715    0.2988 C   0  0  0  0  0  0  0  0  0  0  0  0
  -29.4775  -13.5050   -2.1578 H   0  0  0  0  0  0  0  0  0  0  0  0
  -29.5076  -14.7805   -3.2891 H   0  0  0  0  0  0  0  0  0  0  0  0
  -26.1699  -14.4316    2.3669 C   0  0  0  0  0  0  0  0  0  0  0  0
  -25.5641  -15.5808    3.1587 C   0  0  0  0  0  0  0  0  0  0  0  0
  -26.2893  -15.7186    4.4952 C   0  0  0  0  0  0  0  0  0  0  0  0
  -27.5008  -16.6376    4.3875 C   0  0  0  0  0  0  0  0  0  0  0  0
  -27.4677  -14.9259    1.9116 N   0  0  0  0  0  0  0  0  0  0  0  0
  -28.5233  -14.7543    2.8959 C   0  0  0  0  0  0  0  0  0  0  0  0
  -28.7374  -16.0322    3.7083 C   0  0  0  0  0  0  0  0  0  0  0  0
  -27.3604  -18.7556    1.9822 O   0  0  0  0  0  0  0  0  0  0  0  0
  -26.7541  -17.9021    1.1066 C   0  0  0  0  0  0  0  0  0  0  0  0
  -25.4012  -18.2195    1.0234 C   0  0  0  0  0  0  0  0  0  0  0  0
  -25.1699  -19.2488    1.9115 C   0  0  0  0  0  0  0  0  0  0  0  0
  -26.3713  -19.5760    2.4998 C   0  0  0  0  0  0  0  0  0  0  0  0
  -29.7662  -17.9368   -3.1281 N   0  0  0  0  0  0  0  0  0  0  0  0
  -28.6621  -17.1789   -3.1426 C   0  0  0  0  0  0  0  0  0  0  0  0
  -27.9868  -16.9855   -4.1288 O   0  0  0  0  0  0  0  0  0  0  0  0
  -30.3940  -17.8203   -2.3789 H   0  0  0  0  0  0  0  0  0  0  0  0
  -30.0687  -18.8315   -4.0539 C   0  0  0  0  0  0  0  0  0  0  0  0
  -31.1102  -19.6388   -3.8113 N   0  0  0  0  0  0  0  0  0  0  0  0
  -29.3505  -18.9094   -5.1816 N   0  0  0  0  0  0  0  0  0  0  0  0
  -31.3702  -20.3193   -4.4735 H   0  0  0  0  0  0  0  0  0  0  0  0
  -31.6155  -19.5515   -2.9709 H   0  0  0  0  0  0  0  0  0  0  0  0
  -28.5915  -18.2990   -5.3250 H   0  0  0  0  0  0  0  0  0  0  0  0
  3  5  1  0  0  0
 24 23  2  0  0  0
  5  1  2  0  0  0
  5  4  1  0  0  0
 28 26  2  0  0  0
 23  4  1  0  0  0
 23 22  1  0  0  0
  1  2  1  0  0  0
  4  6  2  0  0  0
 16 15  1  0  0  0
 16 13  1  0  0  0
 26 22  1  0  0  0
 26 27  1  0  0  0
 15 14  1  0  0  0
  2 14  1  0  0  0
  2  7  2  0  0  0
  6  7  1  0  0  0
 14 10  1  0  0  0
 13 12  1  0  0  0
  7 18  1  0  0  0
 10 11  1  0  0  0
 12 11  1  0  0  0
 18 19  2  0  0  0
 18 17  1  0  0  0
 19 20  1  0  0  0
 17 21  1  0  0  0
 20 21  2  0  0  0
  3  8  1  0  0  0
  3  9  1  0  0  0
 22 25  1  0  0  0
 27 29  1  0  0  0
 27 30  1  0  0  0
 28 31  1  0  0  0
M  END
> <minimizedAffinity>
-6.65752

$$$$
