3B67_B67_A_1


 34 35  0  0  0  0  0  0  0  0999 V2000
   28.4229    2.8115    3.9077 N   0  0  0  0  0  0  0  0  0  0  0  0
   28.3585    1.5970    3.3638 C   0  0  0  0  0  0  0  0  0  0  0  0
   27.4335    1.1877    2.6642 O   0  0  0  0  0  0  0  0  0  0  0  0
   29.2211    3.0316    4.4404 H   0  0  0  0  0  0  0  0  0  0  0  0
   25.1688    4.5118    4.0235 C   0  0  0  0  0  0  0  0  0  0  0  0
   26.1438    3.5156    4.0718 C   0  0  0  0  0  0  0  0  0  0  0  0
   25.5804    5.8016    3.6793 C   0  0  0  0  0  0  0  0  0  0  0  0
   26.9155    6.0413    3.3689 C   0  0  0  0  0  0  0  0  0  0  0  0
   27.8725    5.0344    3.4169 C   0  0  0  0  0  0  0  0  0  0  0  0
   27.4859    3.7492    3.7829 C   0  0  0  0  0  0  0  0  0  0  0  0
   23.5288    2.8032    4.1865 F   0  0  0  0  0  0  0  0  0  0  0  0
   23.6990    4.1203    4.2659 C   0  0  0  0  0  0  0  0  0  0  0  0
   23.3157    4.4856    5.4855 F   0  0  0  0  0  0  0  0  0  0  0  0
   22.8804    4.6493    3.3615 F   0  0  0  0  0  0  0  0  0  0  0  0
   24.8132    6.8837    3.8053 N   0  0  0  0  0  0  0  0  0  0  0  0
   24.5723    7.3946    5.1080 O   0  0  0  0  0  0  0  0  0  0  0  0
   24.2814    7.5964    2.6980 O   0  0  0  0  0  0  0  0  0  0  0  0
   29.5512    0.6925    3.6842 C   0  0  0  0  0  0  0  0  0  0  0  0
   30.7652    1.3580    3.3256 O   0  0  0  0  0  0  0  0  0  0  0  0
   29.4263   -0.6280    2.9217 C   0  0  0  0  0  0  0  0  0  0  0  0
   30.7665    1.5367    2.3722 H   0  0  0  0  0  0  0  0  0  0  0  0
   29.5388    0.4073    5.1784 C   0  0  0  0  0  0  0  0  0  0  0  0
   30.0417    1.5032    5.9630 O   0  0  0  0  0  0  0  0  0  0  0  0
   29.6610    1.4193    7.2697 C   0  0  0  0  0  0  0  0  0  0  0  0
   28.6588    2.2519    7.7629 C   0  0  0  0  0  0  0  0  0  0  0  0
   28.0695    3.1133    6.9065 F   0  0  0  0  0  0  0  0  0  0  0  0
   28.2886    2.1884    9.1077 C   0  0  0  0  0  0  0  0  0  0  0  0
   27.3568    3.0428    9.5891 F   0  0  0  0  0  0  0  0  0  0  0  0
   28.9142    1.2714    9.9544 C   0  0  0  0  0  0  0  0  0  0  0  0
   28.5167    1.1604   11.2418 F   0  0  0  0  0  0  0  0  0  0  0  0
   29.9233    0.4358    9.4635 C   0  0  0  0  0  0  0  0  0  0  0  0
   30.4968   -0.4880   10.2647 F   0  0  0  0  0  0  0  0  0  0  0  0
   30.3005    0.5253    8.1228 C   0  0  0  0  0  0  0  0  0  0  0  0
   31.3180   -0.2044    7.6145 F   0  0  0  0  0  0  0  0  0  0  0  0
 11 12  1  0  0  0
 12 13  1  0  0  0
 12 14  1  0  0  0
 12  5  1  0  0  0
  5  6  2  0  0  0
  5  7  1  0  0  0
  6 10  1  0  0  0
  7 15  1  0  0  0
  7  8  2  0  0  0
 15 16  2  0  0  0
 17 15  1  0  0  0
  8  9  1  0  0  0
  9 10  2  0  0  0
 10  1  1  0  0  0
  1  2  1  0  0  0
  2  3  2  0  0  0
  2 18  1  0  0  0
 18 19  1  0  0  0
 18 20  1  0  0  0
 18 22  1  0  0  0
 22 23  1  0  0  0
 23 24  1  0  0  0
 24 25  2  0  0  0
 24 33  1  0  0  0
 25 26  1  0  0  0
 25 27  1  0  0  0
 27 28  1  0  0  0
 27 29  2  0  0  0
 29 30  1  0  0  0
 29 31  1  0  0  0
 31 32  1  0  0  0
 31 33  2  0  0  0
 33 34  1  0  0  0
  1  4  1  0  0  0
 19 21  1  0  0  0
M  CHG 1  15   1
M  CHG 1  17  -1
M  END
> <minimizedAffinity>
-11.36587

$$$$
3B67_B67_A_1


 34 35  0  0  0  0  0  0  0  0999 V2000
   28.3900    2.8428    3.9128 N   0  0  0  0  0  0  0  0  0  0  0  0
   28.3279    1.6378    3.3476 C   0  0  0  0  0  0  0  0  0  0  0  0
   27.4093    1.2435    2.6311 O   0  0  0  0  0  0  0  0  0  0  0  0
   29.1830    3.0511    4.4579 H   0  0  0  0  0  0  0  0  0  0  0  0
   25.1424    4.5550    4.0338 C   0  0  0  0  0  0  0  0  0  0  0  0
   26.1132    3.5545    4.0759 C   0  0  0  0  0  0  0  0  0  0  0  0
   25.5604    5.8465    3.7036 C   0  0  0  0  0  0  0  0  0  0  0  0
   26.8976    6.0837    3.4003 C   0  0  0  0  0  0  0  0  0  0  0  0
   27.8503    5.0725    3.4418 C   0  0  0  0  0  0  0  0  0  0  0  0
   27.4573    3.7855    3.7940 C   0  0  0  0  0  0  0  0  0  0  0  0
   23.4985    2.8500    4.1938 F   0  0  0  0  0  0  0  0  0  0  0  0
   23.6702    4.1672    4.2672 C   0  0  0  0  0  0  0  0  0  0  0  0
   23.2783    4.5399    5.4819 F   0  0  0  0  0  0  0  0  0  0  0  0
   22.8593    4.6926    3.3538 F   0  0  0  0  0  0  0  0  0  0  0  0
   24.7972    6.9304    3.8375 N   0  0  0  0  0  0  0  0  0  0  0  0
   24.2517    7.5228    2.6681 O   0  0  0  0  0  0  0  0  0  0  0  0
   24.4412    7.4834    5.0962 O   0  0  0  0  0  0  0  0  0  0  0  0
   29.5143    0.7242    3.6654 C   0  0  0  0  0  0  0  0  0  0  0  0
   30.7320    1.3771    3.2965 O   0  0  0  0  0  0  0  0  0  0  0  0
   29.3730   -0.5988    2.9102 C   0  0  0  0  0  0  0  0  0  0  0  0
   30.7294    1.5511    2.3423 H   0  0  0  0  0  0  0  0  0  0  0  0
   29.5081    0.4464    5.1611 C   0  0  0  0  0  0  0  0  0  0  0  0
   30.0192    1.5440    5.9378 O   0  0  0  0  0  0  0  0  0  0  0  0
   29.6795    1.4461    7.2548 C   0  0  0  0  0  0  0  0  0  0  0  0
   30.3207    0.5227    8.0775 C   0  0  0  0  0  0  0  0  0  0  0  0
   31.2939   -0.2416    7.5375 F   0  0  0  0  0  0  0  0  0  0  0  0
   29.9533    0.4001    9.4191 C   0  0  0  0  0  0  0  0  0  0  0  0
   30.5409   -0.5410   10.1932 F   0  0  0  0  0  0  0  0  0  0  0  0
   28.9520    1.2219    9.9395 C   0  0  0  0  0  0  0  0  0  0  0  0
   28.6357    1.1528   11.2521 F   0  0  0  0  0  0  0  0  0  0  0  0
   28.3036    2.1483    9.1156 C   0  0  0  0  0  0  0  0  0  0  0  0
   27.3699    2.9810    9.6247 F   0  0  0  0  0  0  0  0  0  0  0  0
   28.6637    2.2449    7.7707 C   0  0  0  0  0  0  0  0  0  0  0  0
   28.0206    3.0688    6.9141 F   0  0  0  0  0  0  0  0  0  0  0  0
 11 12  1  0  0  0
 12 13  1  0  0  0
 12 14  1  0  0  0
 12  5  1  0  0  0
  5  6  2  0  0  0
  5  7  1  0  0  0
  6 10  1  0  0  0
  7 15  1  0  0  0
  7  8  2  0  0  0
 15 16  2  0  0  0
 17 15  1  0  0  0
  8  9  1  0  0  0
  9 10  2  0  0  0
 10  1  1  0  0  0
  1  2  1  0  0  0
  2  3  2  0  0  0
  2 18  1  0  0  0
 18 19  1  0  0  0
 18 20  1  0  0  0
 18 22  1  0  0  0
 22 23  1  0  0  0
 23 24  1  0  0  0
 24 25  2  0  0  0
 24 33  1  0  0  0
 25 26  1  0  0  0
 25 27  1  0  0  0
 27 28  1  0  0  0
 27 29  2  0  0  0
 29 30  1  0  0  0
 29 31  1  0  0  0
 31 32  1  0  0  0
 31 33  2  0  0  0
 33 34  1  0  0  0
  1  4  1  0  0  0
 19 21  1  0  0  0
M  CHG 1  15   1
M  CHG 1  17  -1
M  END
> <minimizedAffinity>
-11.24040

$$$$
3B67_B67_A_1


 34 35  0  0  0  0  0  0  0  0999 V2000
   28.1550    1.9164    4.0057 N   0  0  0  0  0  0  0  0  0  0  0  0
   28.4719    0.7000    4.4475 C   0  0  0  0  0  0  0  0  0  0  0  0
   27.6863   -0.0811    4.9817 O   0  0  0  0  0  0  0  0  0  0  0  0
   28.8672    2.4485    3.5828 H   0  0  0  0  0  0  0  0  0  0  0  0
   25.4477    4.3978    3.9248 C   0  0  0  0  0  0  0  0  0  0  0  0
   26.7202    3.8270    3.9151 C   0  0  0  0  0  0  0  0  0  0  0  0
   24.3584    3.5435    4.1124 C   0  0  0  0  0  0  0  0  0  0  0  0
   24.5733    2.1835    4.3133 C   0  0  0  0  0  0  0  0  0  0  0  0
   25.8496    1.6330    4.3062 C   0  0  0  0  0  0  0  0  0  0  0  0
   26.9448    2.4644    4.0948 C   0  0  0  0  0  0  0  0  0  0  0  0
   25.2712    6.4986    5.0163 F   0  0  0  0  0  0  0  0  0  0  0  0
   25.3233    5.9291    3.8151 C   0  0  0  0  0  0  0  0  0  0  0  0
   26.3824    6.4381    3.1929 F   0  0  0  0  0  0  0  0  0  0  0  0
   24.2125    6.3011    3.1861 F   0  0  0  0  0  0  0  0  0  0  0  0
   23.0899    3.9069    3.9275 N   0  0  0  0  0  0  0  0  0  0  0  0
   22.4845    3.6360    2.6720 O   0  0  0  0  0  0  0  0  0  0  0  0
   22.2881    4.4873    4.9458 O   0  0  0  0  0  0  0  0  0  0  0  0
   29.9411    0.3161    4.2547 C   0  0  0  0  0  0  0  0  0  0  0  0
   30.5662    1.2487    3.3689 O   0  0  0  0  0  0  0  0  0  0  0  0
   30.0416   -1.1014    3.6880 C   0  0  0  0  0  0  0  0  0  0  0  0
   30.1278    1.2171    2.5043 H   0  0  0  0  0  0  0  0  0  0  0  0
   30.6216    0.3575    5.6147 C   0  0  0  0  0  0  0  0  0  0  0  0
   30.5351    1.6471    6.2463 O   0  0  0  0  0  0  0  0  0  0  0  0
   29.8795    1.5933    7.4409 C   0  0  0  0  0  0  0  0  0  0  0  0
   28.8442    2.4848    7.7131 C   0  0  0  0  0  0  0  0  0  0  0  0
   28.5019    3.3730    6.7556 F   0  0  0  0  0  0  0  0  0  0  0  0
   28.1918    2.4511    8.9472 C   0  0  0  0  0  0  0  0  0  0  0  0
   27.2288    3.3603    9.2231 F   0  0  0  0  0  0  0  0  0  0  0  0
   28.5683    1.5054    9.9026 C   0  0  0  0  0  0  0  0  0  0  0  0
   27.8989    1.4255   11.0744 F   0  0  0  0  0  0  0  0  0  0  0  0
   29.6097    0.6106    9.6340 C   0  0  0  0  0  0  0  0  0  0  0  0
   29.9449   -0.3394   10.5339 F   0  0  0  0  0  0  0  0  0  0  0  0
   30.2696    0.6698    8.4057 C   0  0  0  0  0  0  0  0  0  0  0  0
   31.3290   -0.1199    8.1225 F   0  0  0  0  0  0  0  0  0  0  0  0
 11 12  1  0  0  0
 12 13  1  0  0  0
 12 14  1  0  0  0
 12  5  1  0  0  0
  5  6  2  0  0  0
  5  7  1  0  0  0
  6 10  1  0  0  0
  7 15  1  0  0  0
  7  8  2  0  0  0
 15 16  2  0  0  0
 17 15  1  0  0  0
  8  9  1  0  0  0
  9 10  2  0  0  0
 10  1  1  0  0  0
  1  2  1  0  0  0
  2  3  2  0  0  0
  2 18  1  0  0  0
 18 19  1  0  0  0
 18 20  1  0  0  0
 18 22  1  0  0  0
 22 23  1  0  0  0
 23 24  1  0  0  0
 24 25  2  0  0  0
 24 33  1  0  0  0
 25 26  1  0  0  0
 25 27  1  0  0  0
 27 28  1  0  0  0
 27 29  2  0  0  0
 29 30  1  0  0  0
 29 31  1  0  0  0
 31 32  1  0  0  0
 31 33  2  0  0  0
 33 34  1  0  0  0
  1  4  1  0  0  0
 19 21  1  0  0  0
M  CHG 1  15   1
M  CHG 1  17  -1
M  END
> <minimizedAffinity>
-9.31083

$$$$
3B67_B67_A_1


 34 35  0  0  0  0  0  0  0  0999 V2000
   28.1779    1.9518    4.0912 N   0  0  0  0  0  0  0  0  0  0  0  0
   28.4887    0.7216    4.4977 C   0  0  0  0  0  0  0  0  0  0  0  0
   27.6915   -0.0837    4.9755 O   0  0  0  0  0  0  0  0  0  0  0  0
   28.9000    2.5038    3.7129 H   0  0  0  0  0  0  0  0  0  0  0  0
   25.4488    4.4068    3.9574 C   0  0  0  0  0  0  0  0  0  0  0  0
   26.7266    3.8481    3.9692 C   0  0  0  0  0  0  0  0  0  0  0  0
   24.3650    3.5432    4.1341 C   0  0  0  0  0  0  0  0  0  0  0  0
   24.5899    2.1864    4.3458 C   0  0  0  0  0  0  0  0  0  0  0  0
   25.8713    1.6481    4.3601 C   0  0  0  0  0  0  0  0  0  0  0  0
   26.9614    2.4887    4.1598 C   0  0  0  0  0  0  0  0  0  0  0  0
   26.3464    6.4664    3.1907 F   0  0  0  0  0  0  0  0  0  0  0  0
   25.3115    5.9362    3.8371 C   0  0  0  0  0  0  0  0  0  0  0  0
   24.2216    6.2520    3.1442 F   0  0  0  0  0  0  0  0  0  0  0  0
   25.2770    6.5344    5.0241 F   0  0  0  0  0  0  0  0  0  0  0  0
   23.0960    3.8934    3.9289 N   0  0  0  0  0  0  0  0  0  0  0  0
   22.5044    3.5896    2.6744 O   0  0  0  0  0  0  0  0  0  0  0  0
   22.2806    4.4915    4.9260 O   0  0  0  0  0  0  0  0  0  0  0  0
   29.9664    0.3542    4.3405 C   0  0  0  0  0  0  0  0  0  0  0  0
   30.6090    1.3108    3.4937 O   0  0  0  0  0  0  0  0  0  0  0  0
   30.0962   -1.0499    3.7469 C   0  0  0  0  0  0  0  0  0  0  0  0
   30.1965    1.2942    2.6159 H   0  0  0  0  0  0  0  0  0  0  0  0
   30.6061    0.3719    5.7206 C   0  0  0  0  0  0  0  0  0  0  0  0
   30.5356    1.6610    6.3552 O   0  0  0  0  0  0  0  0  0  0  0  0
   29.8813    1.6122    7.5506 C   0  0  0  0  0  0  0  0  0  0  0  0
   30.2296    0.6559    8.5020 C   0  0  0  0  0  0  0  0  0  0  0  0
   31.2405   -0.1908    8.2117 F   0  0  0  0  0  0  0  0  0  0  0  0
   29.5407    0.5849    9.7144 C   0  0  0  0  0  0  0  0  0  0  0  0
   29.8474   -0.3856   10.6056 F   0  0  0  0  0  0  0  0  0  0  0  0
   28.5119    1.4907    9.9791 C   0  0  0  0  0  0  0  0  0  0  0  0
   27.8837    1.4687   11.1759 F   0  0  0  0  0  0  0  0  0  0  0  0
   28.1572    2.4505    9.0248 C   0  0  0  0  0  0  0  0  0  0  0  0
   27.1974    3.3617    9.2948 F   0  0  0  0  0  0  0  0  0  0  0  0
   28.8378    2.4960    7.8073 C   0  0  0  0  0  0  0  0  0  0  0  0
   28.4880    3.3527    6.8224 F   0  0  0  0  0  0  0  0  0  0  0  0
 11 12  1  0  0  0
 12 13  1  0  0  0
 12 14  1  0  0  0
 12  5  1  0  0  0
  5  6  2  0  0  0
  5  7  1  0  0  0
  6 10  1  0  0  0
  7 15  1  0  0  0
  7  8  2  0  0  0
 15 16  2  0  0  0
 17 15  1  0  0  0
  8  9  1  0  0  0
  9 10  2  0  0  0
 10  1  1  0  0  0
  1  2  1  0  0  0
  2  3  2  0  0  0
  2 18  1  0  0  0
 18 19  1  0  0  0
 18 20  1  0  0  0
 18 22  1  0  0  0
 22 23  1  0  0  0
 23 24  1  0  0  0
 24 25  2  0  0  0
 24 33  1  0  0  0
 25 26  1  0  0  0
 25 27  1  0  0  0
 27 28  1  0  0  0
 27 29  2  0  0  0
 29 30  1  0  0  0
 29 31  1  0  0  0
 31 32  1  0  0  0
 31 33  2  0  0  0
 33 34  1  0  0  0
  1  4  1  0  0  0
 19 21  1  0  0  0
M  CHG 1  15   1
M  CHG 1  17  -1
M  END
> <minimizedAffinity>
-9.22362

$$$$
