2F7O_MSN_A_5002


 16 16  0  0  0  0  0  0  0  0999 V2000
   31.0314   65.9801    9.5541 C   0  0  0  0  0  0  0  0  0  0  0  0
   30.8379   64.6328   10.0971 N   0  0  0  0  0  0  0  0  0  0  0  0
   32.5104   66.2926    9.6621 C   0  0  0  0  0  0  0  0  0  0  0  0
   33.3124   65.2097   10.1406 O   0  0  0  0  0  0  0  0  0  0  0  0
   32.8405   66.7604    8.2405 C   0  0  0  0  0  0  0  0  0  0  0  0
   33.6321   65.8363    7.5010 O   0  0  0  0  0  0  0  0  0  0  0  0
   31.5978   67.0630    7.4092 C   0  0  0  0  0  0  0  0  0  0  0  0
   31.6213   67.2445    5.9923 O   0  0  0  0  0  0  0  0  0  0  0  0
   30.7073   65.9913    8.0673 C   0  0  0  0  0  0  0  0  0  0  0  0
   31.4313   63.9744    9.5924 H   0  0  0  0  0  0  0  0  0  0  0  0
   29.8607   64.3605    9.9907 H   0  0  0  0  0  0  0  0  0  0  0  0
   33.2105   64.4465    9.5506 H   0  0  0  0  0  0  0  0  0  0  0  0
   33.1251   65.0228    7.3525 H   0  0  0  0  0  0  0  0  0  0  0  0
   31.9159   66.4245    5.5661 H   0  0  0  0  0  0  0  0  0  0  0  0
   29.0044   66.5623    8.0139 S   0  0  0  0  0  0  0  0  0  0  0  0
   28.4802   66.1989    6.3312 C   0  0  0  0  0  0  0  0  0  0  0  0
  1  2  1  0  0  0
  1  3  1  0  0  0
  1  9  1  0  0  0
  3  4  1  0  0  0
  3  5  1  0  0  0
  5  6  1  0  0  0
  5  7  1  0  0  0
  7  8  1  0  0  0
  7  9  1  0  0  0
  9 15  1  0  0  0
 15 16  1  0  0  0
  2 10  1  0  0  0
  2 11  1  0  0  0
  4 12  1  0  0  0
  6 13  1  0  0  0
  8 14  1  0  0  0
M  END
> <minimizedAffinity>
-7.25235

$$$$
2F7O_MSN_A_5002


 16 16  0  0  0  0  0  0  0  0999 V2000
   32.0458   66.4536    9.4555 C   0  0  0  0  0  0  0  0  0  0  0  0
   32.9272   65.4051    9.9763 N   0  0  0  0  0  0  0  0  0  0  0  0
   32.5289   66.7840    8.0576 C   0  0  0  0  0  0  0  0  0  0  0  0
   33.5967   65.9570    7.5877 O   0  0  0  0  0  0  0  0  0  0  0  0
   31.2338   66.6893    7.2436 C   0  0  0  0  0  0  0  0  0  0  0  0
   31.1780   65.5565    6.3828 O   0  0  0  0  0  0  0  0  0  0  0  0
   29.9827   66.6607    8.1159 C   0  0  0  0  0  0  0  0  0  0  0  0
   28.6887   66.3020    7.6279 O   0  0  0  0  0  0  0  0  0  0  0  0
   30.6333   65.9107    9.2943 C   0  0  0  0  0  0  0  0  0  0  0  0
   32.9168   64.6062    9.3422 H   0  0  0  0  0  0  0  0  0  0  0  0
   32.6005   65.1125   10.8972 H   0  0  0  0  0  0  0  0  0  0  0  0
   33.3142   65.0291    7.5947 H   0  0  0  0  0  0  0  0  0  0  0  0
   31.1625   64.7461    6.9156 H   0  0  0  0  0  0  0  0  0  0  0  0
   28.7028   65.3823    7.3200 H   0  0  0  0  0  0  0  0  0  0  0  0
   29.8130   66.4206   10.8095 S   0  0  0  0  0  0  0  0  0  0  0  0
   28.5657   65.1506   11.0730 C   0  0  0  0  0  0  0  0  0  0  0  0
  1  2  1  0  0  0
  1  3  1  0  0  0
  1  9  1  0  0  0
  3  4  1  0  0  0
  3  5  1  0  0  0
  5  6  1  0  0  0
  5  7  1  0  0  0
  7  8  1  0  0  0
  7  9  1  0  0  0
  9 15  1  0  0  0
 15 16  1  0  0  0
  2 10  1  0  0  0
  2 11  1  0  0  0
  4 12  1  0  0  0
  6 13  1  0  0  0
  8 14  1  0  0  0
M  END
> <minimizedAffinity>
-6.34262

$$$$
2F7O_MSN_A_5002


 16 16  0  0  0  0  0  0  0  0999 V2000
   27.9812   65.9270    8.9054 C   0  0  0  0  0  0  0  0  0  0  0  0
   27.0983   65.5070    7.8138 N   0  0  0  0  0  0  0  0  0  0  0  0
   27.5621   65.1503   10.1374 C   0  0  0  0  0  0  0  0  0  0  0  0
   26.5383   64.1790    9.9068 O   0  0  0  0  0  0  0  0  0  0  0  0
   28.8985   64.5763   10.6204 C   0  0  0  0  0  0  0  0  0  0  0  0
   29.0232   63.1710   10.4278 O   0  0  0  0  0  0  0  0  0  0  0  0
   30.1043   65.2356    9.9582 C   0  0  0  0  0  0  0  0  0  0  0  0
   31.4290   64.7046   10.0241 O   0  0  0  0  0  0  0  0  0  0  0  0
   29.4118   65.5023    8.6076 C   0  0  0  0  0  0  0  0  0  0  0  0
   27.1587   64.4955    7.6977 H   0  0  0  0  0  0  0  0  0  0  0  0
   27.3845   65.9662    6.9492 H   0  0  0  0  0  0  0  0  0  0  0  0
   26.8408   63.5422    9.2406 H   0  0  0  0  0  0  0  0  0  0  0  0
   29.0299   62.9742    9.4781 H   0  0  0  0  0  0  0  0  0  0  0  0
   31.4511   63.8362    9.5924 H   0  0  0  0  0  0  0  0  0  0  0  0
   30.1429   66.9735    7.8797 S   0  0  0  0  0  0  0  0  0  0  0  0
   31.4363   66.3275    6.8084 C   0  0  0  0  0  0  0  0  0  0  0  0
  1  2  1  0  0  0
  1  3  1  0  0  0
  1  9  1  0  0  0
  3  4  1  0  0  0
  3  5  1  0  0  0
  5  6  1  0  0  0
  5  7  1  0  0  0
  7  8  1  0  0  0
  7  9  1  0  0  0
  9 15  1  0  0  0
 15 16  1  0  0  0
  2 10  1  0  0  0
  2 11  1  0  0  0
  4 12  1  0  0  0
  6 13  1  0  0  0
  8 14  1  0  0  0
M  END
> <minimizedAffinity>
-5.50086

$$$$
2F7O_MSN_A_5002


 16 16  0  0  0  0  0  0  0  0999 V2000
   30.7036   66.0529    9.6273 C   0  0  0  0  0  0  0  0  0  0  0  0
   31.8200   65.1383    9.8816 N   0  0  0  0  0  0  0  0  0  0  0  0
   30.8815   66.5879    8.2205 C   0  0  0  0  0  0  0  0  0  0  0  0
   31.9743   66.0120    7.5002 O   0  0  0  0  0  0  0  0  0  0  0  0
   29.4999   66.3342    7.6075 C   0  0  0  0  0  0  0  0  0  0  0  0
   29.4843   65.2910    6.6386 O   0  0  0  0  0  0  0  0  0  0  0  0
   28.4370   66.0031    8.6505 C   0  0  0  0  0  0  0  0  0  0  0  0
   27.1552   65.4619    8.3263 O   0  0  0  0  0  0  0  0  0  0  0  0
   29.3923   65.2809    9.6203 C   0  0  0  0  0  0  0  0  0  0  0  0
   31.8325   64.4102    9.1673 H   0  0  0  0  0  0  0  0  0  0  0  0
   31.7069   64.7109   10.8008 H   0  0  0  0  0  0  0  0  0  0  0  0
   31.8525   65.0515    7.4415 H   0  0  0  0  0  0  0  0  0  0  0  0
   29.6922   64.4469    7.0689 H   0  0  0  0  0  0  0  0  0  0  0  0
   27.2668   64.5909    7.9142 H   0  0  0  0  0  0  0  0  0  0  0  0
   28.7693   65.4978   11.2917 S   0  0  0  0  0  0  0  0  0  0  0  0
   29.2252   67.1887   11.7058 C   0  0  0  0  0  0  0  0  0  0  0  0
  1  2  1  0  0  0
  1  3  1  0  0  0
  1  9  1  0  0  0
  3  4  1  0  0  0
  3  5  1  0  0  0
  5  6  1  0  0  0
  5  7  1  0  0  0
  7  8  1  0  0  0
  7  9  1  0  0  0
  9 15  1  0  0  0
 15 16  1  0  0  0
  2 10  1  0  0  0
  2 11  1  0  0  0
  4 12  1  0  0  0
  6 13  1  0  0  0
  8 14  1  0  0  0
M  END
> <minimizedAffinity>
-5.48000

$$$$
2F7O_MSN_A_5002


 16 16  0  0  0  0  0  0  0  0999 V2000
   29.2243   65.5190   10.7595 C   0  0  0  0  0  0  0  0  0  0  0  0
   29.5481   64.3434   11.5722 N   0  0  0  0  0  0  0  0  0  0  0  0
   30.4220   65.7856    9.8700 C   0  0  0  0  0  0  0  0  0  0  0  0
   31.4630   64.8102    9.9681 O   0  0  0  0  0  0  0  0  0  0  0  0
   29.7714   65.8975    8.4869 C   0  0  0  0  0  0  0  0  0  0  0  0
   30.0502   64.7949    7.6302 O   0  0  0  0  0  0  0  0  0  0  0  0
   28.2551   66.0514    8.5524 C   0  0  0  0  0  0  0  0  0  0  0  0
   27.3969   65.8989    7.4204 O   0  0  0  0  0  0  0  0  0  0  0  0
   28.0684   65.1994    9.8228 C   0  0  0  0  0  0  0  0  0  0  0  0
   29.7834   63.5617   10.9607 H   0  0  0  0  0  0  0  0  0  0  0  0
   28.7428   64.0951   12.1469 H   0  0  0  0  0  0  0  0  0  0  0  0
   31.1097   63.9362    9.7397 H   0  0  0  0  0  0  0  0  0  0  0  0
   29.6499   63.9911    7.9970 H   0  0  0  0  0  0  0  0  0  0  0  0
   27.4617   64.9908    7.0855 H   0  0  0  0  0  0  0  0  0  0  0  0
   26.6300   65.8136   10.7075 S   0  0  0  0  0  0  0  0  0  0  0  0
   25.5609   64.3727   10.8456 C   0  0  0  0  0  0  0  0  0  0  0  0
  1  2  1  0  0  0
  1  3  1  0  0  0
  1  9  1  0  0  0
  3  4  1  0  0  0
  3  5  1  0  0  0
  5  6  1  0  0  0
  5  7  1  0  0  0
  7  8  1  0  0  0
  7  9  1  0  0  0
  9 15  1  0  0  0
 15 16  1  0  0  0
  2 10  1  0  0  0
  2 11  1  0  0  0
  4 12  1  0  0  0
  6 13  1  0  0  0
  8 14  1  0  0  0
M  END
> <minimizedAffinity>
-5.36056

$$$$
2F7O_MSN_A_5002


 16 16  0  0  0  0  0  0  0  0999 V2000
   27.4077   63.4213   11.1639 C   0  0  0  0  0  0  0  0  0  0  0  0
   27.6350   62.0586   10.6753 N   0  0  0  0  0  0  0  0  0  0  0  0
   28.6411   64.2289   10.8128 C   0  0  0  0  0  0  0  0  0  0  0  0
   29.6141   63.5207   10.0403 O   0  0  0  0  0  0  0  0  0  0  0  0
   28.0325   65.4522   10.1186 C   0  0  0  0  0  0  0  0  0  0  0  0
   28.2598   65.4873    8.7134 O   0  0  0  0  0  0  0  0  0  0  0  0
   26.5282   65.5758   10.3399 C   0  0  0  0  0  0  0  0  0  0  0  0
   25.6894   66.4533    9.5867 O   0  0  0  0  0  0  0  0  0  0  0  0
   26.2563   64.0602   10.4012 C   0  0  0  0  0  0  0  0  0  0  0  0
   27.8337   62.0847    9.6752 H   0  0  0  0  0  0  0  0  0  0  0  0
   26.8018   61.4943   10.8418 H   0  0  0  0  0  0  0  0  0  0  0  0
   29.2105   63.2164    9.2125 H   0  0  0  0  0  0  0  0  0  0  0  0
   27.7995   64.7442    8.2927 H   0  0  0  0  0  0  0  0  0  0  0  0
   25.7033   66.1914    8.6528 H   0  0  0  0  0  0  0  0  0  0  0  0
   24.8399   63.7841   11.4718 S   0  0  0  0  0  0  0  0  0  0  0  0
   25.5527   63.7236   13.1230 C   0  0  0  0  0  0  0  0  0  0  0  0
  1  2  1  0  0  0
  1  3  1  0  0  0
  1  9  1  0  0  0
  3  4  1  0  0  0
  3  5  1  0  0  0
  5  6  1  0  0  0
  5  7  1  0  0  0
  7  8  1  0  0  0
  7  9  1  0  0  0
  9 15  1  0  0  0
 15 16  1  0  0  0
  2 10  1  0  0  0
  2 11  1  0  0  0
  4 12  1  0  0  0
  6 13  1  0  0  0
  8 14  1  0  0  0
M  END
> <minimizedAffinity>
-5.07703

$$$$
2F7O_MSN_A_5002


 16 16  0  0  0  0  0  0  0  0999 V2000
   27.1037   63.6225   12.9550 C   0  0  0  0  0  0  0  0  0  0  0  0
   27.3179   62.3710   13.6866 N   0  0  0  0  0  0  0  0  0  0  0  0
   28.4720   64.2093   12.6717 C   0  0  0  0  0  0  0  0  0  0  0  0
   29.5672   63.3825   13.0738 O   0  0  0  0  0  0  0  0  0  0  0  0
   28.3925   64.4875   11.1666 C   0  0  0  0  0  0  0  0  0  0  0  0
   29.1910   63.6114   10.3778 O   0  0  0  0  0  0  0  0  0  0  0  0
   26.9689   64.4201   10.6227 C   0  0  0  0  0  0  0  0  0  0  0  0
   26.6585   64.3661    9.2292 O   0  0  0  0  0  0  0  0  0  0  0  0
   26.4830   63.3294   11.5969 C   0  0  0  0  0  0  0  0  0  0  0  0
   27.9196   61.7558   13.1390 H   0  0  0  0  0  0  0  0  0  0  0  0
   26.4206   61.9136   13.8479 H   0  0  0  0  0  0  0  0  0  0  0  0
   29.5095   62.5266   12.6210 H   0  0  0  0  0  0  0  0  0  0  0  0
   28.8490   62.7068   10.4525 H   0  0  0  0  0  0  0  0  0  0  0  0
   27.0255   63.5534    8.8474 H   0  0  0  0  0  0  0  0  0  0  0  0
   24.7246   63.5681   11.8794 S   0  0  0  0  0  0  0  0  0  0  0  0
   24.6606   64.8502   13.1405 C   0  0  0  0  0  0  0  0  0  0  0  0
  1  2  1  0  0  0
  1  3  1  0  0  0
  1  9  1  0  0  0
  3  4  1  0  0  0
  3  5  1  0  0  0
  5  6  1  0  0  0
  5  7  1  0  0  0
  7  8  1  0  0  0
  7  9  1  0  0  0
  9 15  1  0  0  0
 15 16  1  0  0  0
  2 10  1  0  0  0
  2 11  1  0  0  0
  4 12  1  0  0  0
  6 13  1  0  0  0
  8 14  1  0  0  0
M  END
> <minimizedAffinity>
-5.02448

$$$$
2F7O_MSN_A_5002


 16 16  0  0  0  0  0  0  0  0999 V2000
   28.5373   64.4256   10.8256 C   0  0  0  0  0  0  0  0  0  0  0  0
   29.7132   64.0499   10.0360 N   0  0  0  0  0  0  0  0  0  0  0  0
   27.6411   65.2476    9.9212 C   0  0  0  0  0  0  0  0  0  0  0  0
   28.0957   65.3499    8.5693 O   0  0  0  0  0  0  0  0  0  0  0  0
   26.2881   64.5491   10.0954 C   0  0  0  0  0  0  0  0  0  0  0  0
   25.8711   63.8113    8.9513 O   0  0  0  0  0  0  0  0  0  0  0  0
   26.2580   63.5973   11.2871 C   0  0  0  0  0  0  0  0  0  0  0  0
   25.2265   62.6320   11.5001 O   0  0  0  0  0  0  0  0  0  0  0  0
   27.7390   63.1825   11.1906 C   0  0  0  0  0  0  0  0  0  0  0  0
   29.4146   63.5523    9.1972 H   0  0  0  0  0  0  0  0  0  0  0  0
   30.3176   63.4456   10.5927 H   0  0  0  0  0  0  0  0  0  0  0  0
   28.1735   64.4622    8.1862 H   0  0  0  0  0  0  0  0  0  0  0  0
   26.4821   63.0728    8.8025 H   0  0  0  0  0  0  0  0  0  0  0  0
   25.2267   61.9923   10.7709 H   0  0  0  0  0  0  0  0  0  0  0  0
   28.3211   62.7806   12.8424 S   0  0  0  0  0  0  0  0  0  0  0  0
   27.4945   63.9832   13.8954 C   0  0  0  0  0  0  0  0  0  0  0  0
  1  2  1  0  0  0
  1  3  1  0  0  0
  1  9  1  0  0  0
  3  4  1  0  0  0
  3  5  1  0  0  0
  5  6  1  0  0  0
  5  7  1  0  0  0
  7  8  1  0  0  0
  7  9  1  0  0  0
  9 15  1  0  0  0
 15 16  1  0  0  0
  2 10  1  0  0  0
  2 11  1  0  0  0
  4 12  1  0  0  0
  6 13  1  0  0  0
  8 14  1  0  0  0
M  END
> <minimizedAffinity>
-5.01409

$$$$
2F7O_MSN_A_5002


 16 16  0  0  0  0  0  0  0  0999 V2000
   27.0868   65.3506    9.9062 C   0  0  0  0  0  0  0  0  0  0  0  0
   27.0655   65.4538    8.4446 N   0  0  0  0  0  0  0  0  0  0  0  0
   26.2799   64.1218   10.2749 C   0  0  0  0  0  0  0  0  0  0  0  0
   25.8193   63.3571    9.1577 O   0  0  0  0  0  0  0  0  0  0  0  0
   27.2402   63.3809   11.2117 C   0  0  0  0  0  0  0  0  0  0  0  0
   27.7928   62.1960   10.6476 O   0  0  0  0  0  0  0  0  0  0  0  0
   28.4044   64.2487   11.6793 C   0  0  0  0  0  0  0  0  0  0  0  0
   29.5687   63.7271   12.3223 O   0  0  0  0  0  0  0  0  0  0  0  0
   28.5054   65.0810   10.3863 C   0  0  0  0  0  0  0  0  0  0  0  0
   27.4276   64.5915    8.0375 H   0  0  0  0  0  0  0  0  0  0  0  0
   27.6468   66.2388    8.1507 H   0  0  0  0  0  0  0  0  0  0  0  0
   26.5791   63.0680    8.6285 H   0  0  0  0  0  0  0  0  0  0  0  0
   28.3573   62.4295    9.8941 H   0  0  0  0  0  0  0  0  0  0  0  0
   30.0338   63.1308   11.7149 H   0  0  0  0  0  0  0  0  0  0  0  0
   29.1207   66.7143   10.8135 S   0  0  0  0  0  0  0  0  0  0  0  0
   27.8348   67.3965   11.8714 C   0  0  0  0  0  0  0  0  0  0  0  0
  1  2  1  0  0  0
  1  3  1  0  0  0
  1  9  1  0  0  0
  3  4  1  0  0  0
  3  5  1  0  0  0
  5  6  1  0  0  0
  5  7  1  0  0  0
  7  8  1  0  0  0
  7  9  1  0  0  0
  9 15  1  0  0  0
 15 16  1  0  0  0
  2 10  1  0  0  0
  2 11  1  0  0  0
  4 12  1  0  0  0
  6 13  1  0  0  0
  8 14  1  0  0  0
M  END
> <minimizedAffinity>
-4.99442

$$$$
2F7O_MSN_A_5002


 16 16  0  0  0  0  0  0  0  0999 V2000
   25.5528   65.0233    9.2306 C   0  0  0  0  0  0  0  0  0  0  0  0
   26.1738   65.3925    7.9556 N   0  0  0  0  0  0  0  0  0  0  0  0
   24.5694   63.9080    8.9374 C   0  0  0  0  0  0  0  0  0  0  0  0
   24.5767   63.4513    7.5823 O   0  0  0  0  0  0  0  0  0  0  0  0
   24.9671   62.8532    9.9756 C   0  0  0  0  0  0  0  0  0  0  0  0
   25.6114   61.7126    9.4177 O   0  0  0  0  0  0  0  0  0  0  0  0
   25.8808   63.4048   11.0655 C   0  0  0  0  0  0  0  0  0  0  0  0
   26.6064   62.5799   11.9789 O   0  0  0  0  0  0  0  0  0  0  0  0
   26.5977   64.4275   10.1629 C   0  0  0  0  0  0  0  0  0  0  0  0
   26.6052   64.5687    7.5364 H   0  0  0  0  0  0  0  0  0  0  0  0
   26.8864   66.1040    8.1179 H   0  0  0  0  0  0  0  0  0  0  0  0
   25.4645   63.1351    7.3525 H   0  0  0  0  0  0  0  0  0  0  0  0
   26.4629   61.9768    9.0356 H   0  0  0  0  0  0  0  0  0  0  0  0
   27.2385   62.0320   11.4878 H   0  0  0  0  0  0  0  0  0  0  0  0
   27.0978   65.8231   11.1783 S   0  0  0  0  0  0  0  0  0  0  0  0
   28.7021   66.2897   10.5099 C   0  0  0  0  0  0  0  0  0  0  0  0
  1  2  1  0  0  0
  1  3  1  0  0  0
  1  9  1  0  0  0
  3  4  1  0  0  0
  3  5  1  0  0  0
  5  6  1  0  0  0
  5  7  1  0  0  0
  7  8  1  0  0  0
  7  9  1  0  0  0
  9 15  1  0  0  0
 15 16  1  0  0  0
  2 10  1  0  0  0
  2 11  1  0  0  0
  4 12  1  0  0  0
  6 13  1  0  0  0
  8 14  1  0  0  0
M  END
> <minimizedAffinity>
-4.95953

$$$$
