2QRL_OGA_A_500


 13 12  0  0  0  0  0  0  0  0999 V2000
   44.3989   55.2901   16.9779 C   0  0  0  0  0  0  0  0  0  0  0  0
   43.2521   55.6403   16.7064 O   0  0  0  0  0  0  0  0  0  0  0  0
   44.9271   55.4687   18.1727 N   0  0  0  0  0  0  0  0  0  0  0  0
   45.8598   55.1763   18.2909 H   0  0  0  0  0  0  0  0  0  0  0  0
   45.2989   54.6993   15.9831 C   0  0  0  0  0  0  0  0  0  0  0  0
   45.9794   53.7128   16.3376 O   0  0  0  0  0  0  0  0  0  0  0  0
   45.4087   55.2057   14.8464 O   0  0  0  0  0  0  0  0  0  0  0  0
   44.8841   55.9454   14.6104 H   0  0  0  0  0  0  0  0  0  0  0  0
   44.2734   56.0545   19.3373 C   0  0  0  0  0  0  0  0  0  0  0  0
   45.1859   57.0683   19.9992 C   0  0  0  0  0  0  0  0  0  0  0  0
   44.6121   58.1180   20.3935 O   0  0  0  0  0  0  0  0  0  0  0  0
   46.4338   56.8436   20.1385 O   0  0  0  0  0  0  0  0  0  0  0  0
   43.6906   58.2257   20.2624 H   0  0  0  0  0  0  0  0  0  0  0  0
  5  1  1  0  0  0
  5  6  2  0  0  0
  5  7  1  0  0  0
  1  2  2  0  0  0
  1  3  1  0  0  0
  9 10  1  0  0  0
  9  3  1  0  0  0
 10 11  1  0  0  0
 10 12  2  0  0  0
  7  8  1  0  0  0
 11 13  1  0  0  0
  3  4  1  0  0  0
M  END
> <minimizedAffinity>
-4.81733

$$$$
2QRL_OGA_A_500


 13 12  0  0  0  0  0  0  0  0999 V2000
   45.2018   54.2075   17.3754 C   0  0  0  0  0  0  0  0  0  0  0  0
   45.9754   53.2521   17.3664 O   0  0  0  0  0  0  0  0  0  0  0  0
   44.8633   54.8310   18.4868 N   0  0  0  0  0  0  0  0  0  0  0  0
   44.2204   55.5715   18.3989 H   0  0  0  0  0  0  0  0  0  0  0  0
   44.5417   54.6985   16.1622 C   0  0  0  0  0  0  0  0  0  0  0  0
   45.2739   55.0738   15.2214 O   0  0  0  0  0  0  0  0  0  0  0  0
   43.2965   54.7814   16.1063 O   0  0  0  0  0  0  0  0  0  0  0  0
   42.7748   54.4914   16.8285 H   0  0  0  0  0  0  0  0  0  0  0  0
   45.3424   54.5379   19.8327 C   0  0  0  0  0  0  0  0  0  0  0  0
   46.4429   55.5051   20.2223 C   0  0  0  0  0  0  0  0  0  0  0  0
   47.5039   54.9624   20.6300 O   0  0  0  0  0  0  0  0  0  0  0  0
   46.2797   56.7666   20.1263 O   0  0  0  0  0  0  0  0  0  0  0  0
   47.5637   54.0285   20.6785 H   0  0  0  0  0  0  0  0  0  0  0  0
  5  1  1  0  0  0
  5  6  2  0  0  0
  5  7  1  0  0  0
  1  2  2  0  0  0
  1  3  1  0  0  0
  9 10  1  0  0  0
  9  3  1  0  0  0
 10 11  1  0  0  0
 10 12  2  0  0  0
  7  8  1  0  0  0
 11 13  1  0  0  0
  3  4  1  0  0  0
M  END
> <minimizedAffinity>
-4.64401

$$$$
2QRL_OGA_A_500


 13 12  0  0  0  0  0  0  0  0999 V2000
   42.8255   55.6470   17.9822 C   0  0  0  0  0  0  0  0  0  0  0  0
   42.6550   56.3491   16.9875 O   0  0  0  0  0  0  0  0  0  0  0  0
   44.0141   55.1968   18.3330 N   0  0  0  0  0  0  0  0  0  0  0  0
   44.0503   54.6233   19.1324 H   0  0  0  0  0  0  0  0  0  0  0  0
   41.7168   55.1994   18.8303 C   0  0  0  0  0  0  0  0  0  0  0  0
   42.0075   54.6750   19.9269 O   0  0  0  0  0  0  0  0  0  0  0  0
   40.5358   55.2977   18.4354 O   0  0  0  0  0  0  0  0  0  0  0  0
   40.3501   55.6962   17.6080 H   0  0  0  0  0  0  0  0  0  0  0  0
   45.2807   55.4600   17.6597 C   0  0  0  0  0  0  0  0  0  0  0  0
   45.4507   54.5294   16.4749 C   0  0  0  0  0  0  0  0  0  0  0  0
   45.0064   54.9757   15.3840 O   0  0  0  0  0  0  0  0  0  0  0  0
   46.0116   53.3910   16.6029 O   0  0  0  0  0  0  0  0  0  0  0  0
   44.6036   55.8212   15.3530 H   0  0  0  0  0  0  0  0  0  0  0  0
  5  1  1  0  0  0
  5  6  2  0  0  0
  5  7  1  0  0  0
  1  2  2  0  0  0
  1  3  1  0  0  0
  9 10  1  0  0  0
  9  3  1  0  0  0
 10 11  1  0  0  0
 10 12  2  0  0  0
  7  8  1  0  0  0
 11 13  1  0  0  0
  3  4  1  0  0  0
M  END
> <minimizedAffinity>
-4.53644

$$$$
2QRL_OGA_A_500


 13 12  0  0  0  0  0  0  0  0999 V2000
   42.9578   54.5303   16.4919 C   0  0  0  0  0  0  0  0  0  0  0  0
   43.3486   53.6258   15.7566 O   0  0  0  0  0  0  0  0  0  0  0  0
   43.7868   55.2728   17.1990 N   0  0  0  0  0  0  0  0  0  0  0  0
   43.3810   55.9591   17.7766 H   0  0  0  0  0  0  0  0  0  0  0  0
   41.5358   54.8233   16.6935 C   0  0  0  0  0  0  0  0  0  0  0  0
   40.8827   55.2122   15.7013 O   0  0  0  0  0  0  0  0  0  0  0  0
   41.0239   54.7330   17.8294 O   0  0  0  0  0  0  0  0  0  0  0  0
   41.5400   54.4380   18.5537 H   0  0  0  0  0  0  0  0  0  0  0  0
   45.2423   55.1830   17.2145 C   0  0  0  0  0  0  0  0  0  0  0  0
   45.6898   54.0360   18.0992 C   0  0  0  0  0  0  0  0  0  0  0  0
   45.8362   52.9354   17.5044 O   0  0  0  0  0  0  0  0  0  0  0  0
   45.9012   54.2054   19.3457 O   0  0  0  0  0  0  0  0  0  0  0  0
   45.6652   52.8733   16.5852 H   0  0  0  0  0  0  0  0  0  0  0  0
  5  1  1  0  0  0
  5  6  2  0  0  0
  5  7  1  0  0  0
  1  2  2  0  0  0
  1  3  1  0  0  0
  9 10  1  0  0  0
  9  3  1  0  0  0
 10 11  1  0  0  0
 10 12  2  0  0  0
  7  8  1  0  0  0
 11 13  1  0  0  0
  3  4  1  0  0  0
M  END
> <minimizedAffinity>
-4.52548

$$$$
2QRL_OGA_A_500


 13 12  0  0  0  0  0  0  0  0999 V2000
   44.7957   55.7980   19.2229 C   0  0  0  0  0  0  0  0  0  0  0  0
   43.8327   55.0941   19.5206 O   0  0  0  0  0  0  0  0  0  0  0  0
   45.5991   55.5068   18.2187 N   0  0  0  0  0  0  0  0  0  0  0  0
   46.3571   56.1170   18.0690 H   0  0  0  0  0  0  0  0  0  0  0  0
   45.1707   56.9873   19.9933 C   0  0  0  0  0  0  0  0  0  0  0  0
   44.3200   57.8972   20.0963 O   0  0  0  0  0  0  0  0  0  0  0  0
   46.3172   57.0946   20.4774 O   0  0  0  0  0  0  0  0  0  0  0  0
   46.9328   56.3945   20.3834 H   0  0  0  0  0  0  0  0  0  0  0  0
   45.4814   54.3748   17.3068 C   0  0  0  0  0  0  0  0  0  0  0  0
   44.7531   54.7897   16.0435 C   0  0  0  0  0  0  0  0  0  0  0  0
   43.4964   54.7513   16.1209 O   0  0  0  0  0  0  0  0  0  0  0  0
   45.3915   55.1523   15.0004 O   0  0  0  0  0  0  0  0  0  0  0  0
   43.0842   54.4756   16.9160 H   0  0  0  0  0  0  0  0  0  0  0  0
  5  1  1  0  0  0
  5  6  2  0  0  0
  5  7  1  0  0  0
  1  2  2  0  0  0
  1  3  1  0  0  0
  9 10  1  0  0  0
  9  3  1  0  0  0
 10 11  1  0  0  0
 10 12  2  0  0  0
  7  8  1  0  0  0
 11 13  1  0  0  0
  3  4  1  0  0  0
M  END
> <minimizedAffinity>
-4.49110

$$$$
2QRL_OGA_A_500


 13 12  0  0  0  0  0  0  0  0999 V2000
   41.7936   52.8935   16.2250 C   0  0  0  0  0  0  0  0  0  0  0  0
   42.6035   53.1722   15.3430 O   0  0  0  0  0  0  0  0  0  0  0  0
   41.0907   53.8147   16.8543 N   0  0  0  0  0  0  0  0  0  0  0  0
   40.4828   53.4991   17.5614 H   0  0  0  0  0  0  0  0  0  0  0  0
   41.5822   51.5216   16.6959 C   0  0  0  0  0  0  0  0  0  0  0  0
   42.4938   50.6937   16.4825 O   0  0  0  0  0  0  0  0  0  0  0  0
   40.5061   51.1963   17.2407 O   0  0  0  0  0  0  0  0  0  0  0  0
   39.8416   51.8404   17.3871 H   0  0  0  0  0  0  0  0  0  0  0  0
   41.1204   55.2524   16.6116 C   0  0  0  0  0  0  0  0  0  0  0  0
   42.2464   55.8959   17.3970 C   0  0  0  0  0  0  0  0  0  0  0  0
   43.3888   55.7723   16.8810 O   0  0  0  0  0  0  0  0  0  0  0  0
   42.0216   56.5149   18.4894 O   0  0  0  0  0  0  0  0  0  0  0  0
   43.4908   55.3053   16.0751 H   0  0  0  0  0  0  0  0  0  0  0  0
  5  1  1  0  0  0
  5  6  2  0  0  0
  5  7  1  0  0  0
  1  2  2  0  0  0
  1  3  1  0  0  0
  9 10  1  0  0  0
  9  3  1  0  0  0
 10 11  1  0  0  0
 10 12  2  0  0  0
  7  8  1  0  0  0
 11 13  1  0  0  0
  3  4  1  0  0  0
M  END
> <minimizedAffinity>
-4.42126

$$$$
2QRL_OGA_A_500


 13 12  0  0  0  0  0  0  0  0999 V2000
   43.2343   55.3153   17.1218 C   0  0  0  0  0  0  0  0  0  0  0  0
   43.9308   55.1028   16.1313 O   0  0  0  0  0  0  0  0  0  0  0  0
   43.7521   55.5896   18.3030 N   0  0  0  0  0  0  0  0  0  0  0  0
   43.1166   55.7236   19.0429 H   0  0  0  0  0  0  0  0  0  0  0  0
   41.7717   55.2233   17.0912 C   0  0  0  0  0  0  0  0  0  0  0  0
   41.2106   55.3540   15.9821 O   0  0  0  0  0  0  0  0  0  0  0  0
   41.1230   55.0722   18.1480 O   0  0  0  0  0  0  0  0  0  0  0  0
   41.5729   54.9768   18.9644 H   0  0  0  0  0  0  0  0  0  0  0  0
   45.1685   55.7151   18.6273 C   0  0  0  0  0  0  0  0  0  0  0  0
   45.3704   56.7558   19.7111 C   0  0  0  0  0  0  0  0  0  0  0  0
   46.4199   56.6125   20.3927 O   0  0  0  0  0  0  0  0  0  0  0  0
   44.5282   57.6970   19.8899 O   0  0  0  0  0  0  0  0  0  0  0  0
   47.0011   55.8997   20.2137 H   0  0  0  0  0  0  0  0  0  0  0  0
  5  1  1  0  0  0
  5  6  2  0  0  0
  5  7  1  0  0  0
  1  2  2  0  0  0
  1  3  1  0  0  0
  9 10  1  0  0  0
  9  3  1  0  0  0
 10 11  1  0  0  0
 10 12  2  0  0  0
  7  8  1  0  0  0
 11 13  1  0  0  0
  3  4  1  0  0  0
M  END
> <minimizedAffinity>
-4.37032

$$$$
2QRL_OGA_A_500


 13 12  0  0  0  0  0  0  0  0999 V2000
   44.7029   55.2510   17.4709 C   0  0  0  0  0  0  0  0  0  0  0  0
   45.3565   55.6155   18.4463 O   0  0  0  0  0  0  0  0  0  0  0  0
   43.4284   55.5542   17.3221 N   0  0  0  0  0  0  0  0  0  0  0  0
   42.9814   55.1998   16.5197 H   0  0  0  0  0  0  0  0  0  0  0  0
   45.2652   54.3983   16.4195 C   0  0  0  0  0  0  0  0  0  0  0  0
   44.9390   54.6501   15.2396 O   0  0  0  0  0  0  0  0  0  0  0  0
   45.9983   53.4300   16.7118 O   0  0  0  0  0  0  0  0  0  0  0  0
   46.2252   53.2675   17.6063 H   0  0  0  0  0  0  0  0  0  0  0  0
   42.6120   56.3600   18.2227 C   0  0  0  0  0  0  0  0  0  0  0  0
   41.2978   55.6608   18.5099 C   0  0  0  0  0  0  0  0  0  0  0  0
   40.9718   54.7817   17.6687 O   0  0  0  0  0  0  0  0  0  0  0  0
   40.6015   55.9566   19.5369 O   0  0  0  0  0  0  0  0  0  0  0  0
   41.5258   54.6090   16.9329 H   0  0  0  0  0  0  0  0  0  0  0  0
  5  1  1  0  0  0
  5  6  2  0  0  0
  5  7  1  0  0  0
  1  2  2  0  0  0
  1  3  1  0  0  0
  9 10  1  0  0  0
  9  3  1  0  0  0
 10 11  1  0  0  0
 10 12  2  0  0  0
  7  8  1  0  0  0
 11 13  1  0  0  0
  3  4  1  0  0  0
M  END
> <minimizedAffinity>
-4.34646

$$$$
2QRL_OGA_A_500


 13 12  0  0  0  0  0  0  0  0999 V2000
   42.0870   54.4002   16.7672 C   0  0  0  0  0  0  0  0  0  0  0  0
   42.9822   55.1035   16.3030 O   0  0  0  0  0  0  0  0  0  0  0  0
   41.3907   54.7539   17.8296 N   0  0  0  0  0  0  0  0  0  0  0  0
   40.7086   54.1166   18.1423 H   0  0  0  0  0  0  0  0  0  0  0  0
   41.7558   53.0819   16.2184 C   0  0  0  0  0  0  0  0  0  0  0  0
   42.3227   52.7419   15.1578 O   0  0  0  0  0  0  0  0  0  0  0  0
   40.8997   52.3605   16.7726 O   0  0  0  0  0  0  0  0  0  0  0  0
   40.4922   52.6434   17.5676 H   0  0  0  0  0  0  0  0  0  0  0  0
   41.5261   55.9913   18.5895 C   0  0  0  0  0  0  0  0  0  0  0  0
   40.7822   55.8847   19.9063 C   0  0  0  0  0  0  0  0  0  0  0  0
   40.8229   54.7473   20.4459 O   0  0  0  0  0  0  0  0  0  0  0  0
   40.1772   56.8895   20.4076 O   0  0  0  0  0  0  0  0  0  0  0  0
   41.2843   54.0468   20.0283 H   0  0  0  0  0  0  0  0  0  0  0  0
  5  1  1  0  0  0
  5  6  2  0  0  0
  5  7  1  0  0  0
  1  2  2  0  0  0
  1  3  1  0  0  0
  9 10  1  0  0  0
  9  3  1  0  0  0
 10 11  1  0  0  0
 10 12  2  0  0  0
  7  8  1  0  0  0
 11 13  1  0  0  0
  3  4  1  0  0  0
M  END
> <minimizedAffinity>
-4.23393

$$$$
2QRL_OGA_A_500


 13 12  0  0  0  0  0  0  0  0999 V2000
   41.6776   55.6399   18.2601 C   0  0  0  0  0  0  0  0  0  0  0  0
   42.4646   56.3920   17.6888 O   0  0  0  0  0  0  0  0  0  0  0  0
   41.0929   54.6309   17.6448 N   0  0  0  0  0  0  0  0  0  0  0  0
   40.4607   54.0961   18.1774 H   0  0  0  0  0  0  0  0  0  0  0  0
   41.2743   55.8340   19.6559 C   0  0  0  0  0  0  0  0  0  0  0  0
   41.6719   54.9937   20.4912 O   0  0  0  0  0  0  0  0  0  0  0  0
   40.5196   56.7776   19.9732 O   0  0  0  0  0  0  0  0  0  0  0  0
   40.2386   57.3916   19.3236 H   0  0  0  0  0  0  0  0  0  0  0  0
   41.2854   54.2248   16.2574 C   0  0  0  0  0  0  0  0  0  0  0  0
   42.5160   53.3484   16.1311 C   0  0  0  0  0  0  0  0  0  0  0  0
   43.5817   53.9677   15.8715 O   0  0  0  0  0  0  0  0  0  0  0  0
   42.4472   52.0844   16.2886 O   0  0  0  0  0  0  0  0  0  0  0  0
   43.5689   54.8987   15.7667 H   0  0  0  0  0  0  0  0  0  0  0  0
  5  1  1  0  0  0
  5  6  2  0  0  0
  5  7  1  0  0  0
  1  2  2  0  0  0
  1  3  1  0  0  0
  9 10  1  0  0  0
  9  3  1  0  0  0
 10 11  1  0  0  0
 10 12  2  0  0  0
  7  8  1  0  0  0
 11 13  1  0  0  0
  3  4  1  0  0  0
M  END
> <minimizedAffinity>
-3.94999

$$$$
