3K5V_STJ_A_1


 30 32  0  0  0  0  0  0  0  0999 V2000
   20.5162   43.6849   53.3753 C   0  0  0  0  0  0  0  0  0  0  0  0
   21.7729   43.4014   52.9328 N   0  0  0  0  0  0  0  0  0  0  0  0
   22.8594   43.6034   53.7184 C   0  0  0  0  0  0  0  0  0  0  0  0
   22.7073   44.1023   54.9688 N   0  0  0  0  0  0  0  0  0  0  0  0
   21.4793   44.4063   55.4625 C   0  0  0  0  0  0  0  0  0  0  0  0
   20.3441   44.2030   54.6579 C   0  0  0  0  0  0  0  0  0  0  0  0
   21.3698   44.9586   56.8318 C   0  0  0  0  0  0  0  0  0  0  0  0
   21.0142   44.0737   57.8551 C   0  0  0  0  0  0  0  0  0  0  0  0
   20.8958   44.4982   59.1784 C   0  0  0  0  0  0  0  0  0  0  0  0
   21.1290   45.8509   59.4926 C   0  0  0  0  0  0  0  0  0  0  0  0
   21.4857   46.7513   58.4713 C   0  0  0  0  0  0  0  0  0  0  0  0
   21.6078   46.3083   57.1388 C   0  0  0  0  0  0  0  0  0  0  0  0
   20.5052   43.4214   60.1714 C   0  0  0  0  0  0  0  0  0  0  0  0
   21.3827   42.6513   60.5262 O   0  0  0  0  0  0  0  0  0  0  0  0
   19.2359   43.2785   60.6168 N   0  0  0  0  0  0  0  0  0  0  0  0
   18.5373   43.9068   60.3227 H   0  0  0  0  0  0  0  0  0  0  0  0
   19.0108   42.5461   61.2351 H   0  0  0  0  0  0  0  0  0  0  0  0
   19.4025   43.4938   52.6205 N   0  0  0  0  0  0  0  0  0  0  0  0
   18.8431   44.2928   52.4866 H   0  0  0  0  0  0  0  0  0  0  0  0
   18.2189   39.9779   50.7256 C   0  0  0  0  0  0  0  0  0  0  0  0
   17.2975   40.6486   51.5602 C   0  0  0  0  0  0  0  0  0  0  0  0
   17.6727   41.8297   52.2069 C   0  0  0  0  0  0  0  0  0  0  0  0
   18.9507   42.3663   52.0267 C   0  0  0  0  0  0  0  0  0  0  0  0
   19.8687   41.6822   51.2051 C   0  0  0  0  0  0  0  0  0  0  0  0
   19.4997   40.4964   50.5585 C   0  0  0  0  0  0  0  0  0  0  0  0
   17.8771   38.7853   50.0816 O   0  0  0  0  0  0  0  0  0  0  0  0
   17.2403   37.6692   48.2750 F   0  0  0  0  0  0  0  0  0  0  0  0
   17.0125   38.8153   48.9619 C   0  0  0  0  0  0  0  0  0  0  0  0
   17.2893   39.9134   48.2045 F   0  0  0  0  0  0  0  0  0  0  0  0
   15.7235   38.8606   49.3906 F   0  0  0  0  0  0  0  0  0  0  0  0
 27 28  1  0  0  0
 28 29  1  0  0  0
 28 30  1  0  0  0
 28 26  1  0  0  0
 26 20  1  0  0  0
 20 21  2  0  0  0
 20 25  1  0  0  0
 21 22  1  0  0  0
 22 23  2  0  0  0
 23 24  1  0  0  0
 23 18  1  0  0  0
 24 25  2  0  0  0
 18  1  1  0  0  0
  1  2  2  0  0  0
  1  6  1  0  0  0
  2  3  1  0  0  0
  3  4  2  0  0  0
  4  5  1  0  0  0
  5  6  2  0  0  0
  5  7  1  0  0  0
  7  8  2  0  0  0
  7 12  1  0  0  0
  8  9  1  0  0  0
  9 10  2  0  0  0
  9 13  1  0  0  0
 10 11  1  0  0  0
 11 12  2  0  0  0
 13 14  2  0  0  0
 13 15  1  0  0  0
 18 19  1  0  0  0
 15 16  1  0  0  0
 15 17  1  0  0  0
M  END
> <minimizedAffinity>
-9.92163

$$$$
3K5V_STJ_A_1


 30 32  0  0  0  0  0  0  0  0999 V2000
   20.2659   43.7151   53.5675 C   0  0  0  0  0  0  0  0  0  0  0  0
   20.0105   43.7757   54.9041 N   0  0  0  0  0  0  0  0  0  0  0  0
   20.9920   44.0527   55.7976 C   0  0  0  0  0  0  0  0  0  0  0  0
   22.2580   44.2698   55.3668 N   0  0  0  0  0  0  0  0  0  0  0  0
   22.5725   44.2193   54.0468 C   0  0  0  0  0  0  0  0  0  0  0  0
   21.5644   43.9317   53.1094 C   0  0  0  0  0  0  0  0  0  0  0  0
   23.9737   44.4540   53.6304 C   0  0  0  0  0  0  0  0  0  0  0  0
   24.1830   45.0150   52.3662 C   0  0  0  0  0  0  0  0  0  0  0  0
   25.4664   45.2826   51.8901 C   0  0  0  0  0  0  0  0  0  0  0  0
   26.5795   44.9720   52.6947 C   0  0  0  0  0  0  0  0  0  0  0  0
   26.3818   44.4056   53.9679 C   0  0  0  0  0  0  0  0  0  0  0  0
   25.0793   44.1456   54.4397 C   0  0  0  0  0  0  0  0  0  0  0  0
   25.5287   45.8921   50.5035 C   0  0  0  0  0  0  0  0  0  0  0  0
   26.0232   45.2098   49.6209 O   0  0  0  0  0  0  0  0  0  0  0  0
   25.1031   47.1508   50.2501 N   0  0  0  0  0  0  0  0  0  0  0  0
   24.7060   47.6908   50.9712 H   0  0  0  0  0  0  0  0  0  0  0  0
   25.1906   47.5271   49.3445 H   0  0  0  0  0  0  0  0  0  0  0  0
   19.3100   43.4439   52.6404 N   0  0  0  0  0  0  0  0  0  0  0  0
   18.7284   44.2015   52.4020 H   0  0  0  0  0  0  0  0  0  0  0  0
   18.2696   39.8957   50.7216 C   0  0  0  0  0  0  0  0  0  0  0  0
   19.5568   40.4369   50.5078 C   0  0  0  0  0  0  0  0  0  0  0  0
   19.9277   41.6269   51.1405 C   0  0  0  0  0  0  0  0  0  0  0  0
   19.0414   42.2850   51.9978 C   0  0  0  0  0  0  0  0  0  0  0  0
   17.7538   41.7466   52.1930 C   0  0  0  0  0  0  0  0  0  0  0  0
   17.3753   40.5574   51.5582 C   0  0  0  0  0  0  0  0  0  0  0  0
   17.8652   38.7176   50.0874 O   0  0  0  0  0  0  0  0  0  0  0  0
   17.2216   37.6600   48.2483 F   0  0  0  0  0  0  0  0  0  0  0  0
   16.9967   38.7837   48.9722 C   0  0  0  0  0  0  0  0  0  0  0  0
   17.2713   39.9054   48.2493 F   0  0  0  0  0  0  0  0  0  0  0  0
   15.7092   38.8157   49.4067 F   0  0  0  0  0  0  0  0  0  0  0  0
 27 28  1  0  0  0
 28 29  1  0  0  0
 28 30  1  0  0  0
 28 26  1  0  0  0
 26 20  1  0  0  0
 20 21  2  0  0  0
 20 25  1  0  0  0
 21 22  1  0  0  0
 22 23  2  0  0  0
 23 24  1  0  0  0
 23 18  1  0  0  0
 24 25  2  0  0  0
 18  1  1  0  0  0
  1  2  2  0  0  0
  1  6  1  0  0  0
  2  3  1  0  0  0
  3  4  2  0  0  0
  4  5  1  0  0  0
  5  6  2  0  0  0
  5  7  1  0  0  0
  7  8  2  0  0  0
  7 12  1  0  0  0
  8  9  1  0  0  0
  9 10  2  0  0  0
  9 13  1  0  0  0
 10 11  1  0  0  0
 11 12  2  0  0  0
 13 14  2  0  0  0
 13 15  1  0  0  0
 18 19  1  0  0  0
 15 16  1  0  0  0
 15 17  1  0  0  0
M  END
> <minimizedAffinity>
-9.80063

$$$$
3K5V_STJ_A_1


 30 32  0  0  0  0  0  0  0  0999 V2000
   21.0764   44.4924   54.7302 C   0  0  0  0  0  0  0  0  0  0  0  0
   21.1614   44.5588   56.0880 N   0  0  0  0  0  0  0  0  0  0  0  0
   22.3597   44.6510   56.7158 C   0  0  0  0  0  0  0  0  0  0  0  0
   23.5039   44.6726   55.9907 N   0  0  0  0  0  0  0  0  0  0  0  0
   23.4810   44.6062   54.6345 C   0  0  0  0  0  0  0  0  0  0  0  0
   22.2451   44.5089   53.9707 C   0  0  0  0  0  0  0  0  0  0  0  0
   24.7610   44.6231   53.8906 C   0  0  0  0  0  0  0  0  0  0  0  0
   24.7400   45.1302   52.5871 C   0  0  0  0  0  0  0  0  0  0  0  0
   25.8972   45.1964   51.8113 C   0  0  0  0  0  0  0  0  0  0  0  0
   27.1143   44.7329   52.3467 C   0  0  0  0  0  0  0  0  0  0  0  0
   27.1478   44.2188   53.6564 C   0  0  0  0  0  0  0  0  0  0  0  0
   25.9723   44.1630   54.4323 C   0  0  0  0  0  0  0  0  0  0  0  0
   25.7126   45.7719   50.4211 C   0  0  0  0  0  0  0  0  0  0  0  0
   26.2165   45.1560   49.4959 O   0  0  0  0  0  0  0  0  0  0  0  0
   25.0625   46.9382   50.2046 N   0  0  0  0  0  0  0  0  0  0  0  0
   24.6605   47.4252   50.9599 H   0  0  0  0  0  0  0  0  0  0  0  0
   24.9914   47.3001   49.2918 H   0  0  0  0  0  0  0  0  0  0  0  0
   19.8956   44.4025   54.0637 N   0  0  0  0  0  0  0  0  0  0  0  0
   19.2579   45.1320   54.2377 H   0  0  0  0  0  0  0  0  0  0  0  0
   18.3739   41.5255   51.4635 C   0  0  0  0  0  0  0  0  0  0  0  0
   19.7204   41.9293   51.3245 C   0  0  0  0  0  0  0  0  0  0  0  0
   20.2525   42.8937   52.1851 C   0  0  0  0  0  0  0  0  0  0  0  0
   19.4690   43.4571   53.1963 C   0  0  0  0  0  0  0  0  0  0  0  0
   18.1224   43.0602   53.3177 C   0  0  0  0  0  0  0  0  0  0  0  0
   17.5829   42.0979   52.4554 C   0  0  0  0  0  0  0  0  0  0  0  0
   17.8102   40.5772   50.6051 O   0  0  0  0  0  0  0  0  0  0  0  0
   18.1859   38.4758   50.0070 F   0  0  0  0  0  0  0  0  0  0  0  0
   17.7002   39.2299   51.0232 C   0  0  0  0  0  0  0  0  0  0  0  0
   16.3939   38.9395   51.2789 F   0  0  0  0  0  0  0  0  0  0  0  0
   18.4444   39.0456   52.1455 F   0  0  0  0  0  0  0  0  0  0  0  0
 27 28  1  0  0  0
 28 29  1  0  0  0
 28 30  1  0  0  0
 28 26  1  0  0  0
 26 20  1  0  0  0
 20 21  2  0  0  0
 20 25  1  0  0  0
 21 22  1  0  0  0
 22 23  2  0  0  0
 23 24  1  0  0  0
 23 18  1  0  0  0
 24 25  2  0  0  0
 18  1  1  0  0  0
  1  2  2  0  0  0
  1  6  1  0  0  0
  2  3  1  0  0  0
  3  4  2  0  0  0
  4  5  1  0  0  0
  5  6  2  0  0  0
  5  7  1  0  0  0
  7  8  2  0  0  0
  7 12  1  0  0  0
  8  9  1  0  0  0
  9 10  2  0  0  0
  9 13  1  0  0  0
 10 11  1  0  0  0
 11 12  2  0  0  0
 13 14  2  0  0  0
 13 15  1  0  0  0
 18 19  1  0  0  0
 15 16  1  0  0  0
 15 17  1  0  0  0
M  END
> <minimizedAffinity>
-9.34044

$$$$
3K5V_STJ_A_1


 30 32  0  0  0  0  0  0  0  0999 V2000
   20.1577   43.9083   53.6863 C   0  0  0  0  0  0  0  0  0  0  0  0
   19.7896   43.9351   54.9975 N   0  0  0  0  0  0  0  0  0  0  0  0
   20.6994   44.1436   55.9811 C   0  0  0  0  0  0  0  0  0  0  0  0
   22.0051   44.3245   55.6682 N   0  0  0  0  0  0  0  0  0  0  0  0
   22.4309   44.3049   54.3789 C   0  0  0  0  0  0  0  0  0  0  0  0
   21.4981   44.0883   53.3490 C   0  0  0  0  0  0  0  0  0  0  0  0
   23.8706   44.4976   54.0925 C   0  0  0  0  0  0  0  0  0  0  0  0
   24.7535   44.4484   55.1764 C   0  0  0  0  0  0  0  0  0  0  0  0
   26.1285   44.6085   55.0052 C   0  0  0  0  0  0  0  0  0  0  0  0
   26.6412   44.8356   53.7135 C   0  0  0  0  0  0  0  0  0  0  0  0
   25.7626   44.8889   52.6153 C   0  0  0  0  0  0  0  0  0  0  0  0
   24.3757   44.7196   52.8010 C   0  0  0  0  0  0  0  0  0  0  0  0
   26.9528   44.5280   56.2749 C   0  0  0  0  0  0  0  0  0  0  0  0
   28.1663   44.5137   56.1468 O   0  0  0  0  0  0  0  0  0  0  0  0
   26.3839   44.4283   57.4981 N   0  0  0  0  0  0  0  0  0  0  0  0
   25.4035   44.4412   57.5875 H   0  0  0  0  0  0  0  0  0  0  0  0
   26.9501   44.3429   58.2989 H   0  0  0  0  0  0  0  0  0  0  0  0
   19.2767   43.7055   52.6718 N   0  0  0  0  0  0  0  0  0  0  0  0
   18.8587   44.5196   52.3088 H   0  0  0  0  0  0  0  0  0  0  0  0
   18.2983   40.1078   50.8136 C   0  0  0  0  0  0  0  0  0  0  0  0
   17.3289   40.7484   51.6170 C   0  0  0  0  0  0  0  0  0  0  0  0
   17.6350   41.9561   52.2509 C   0  0  0  0  0  0  0  0  0  0  0  0
   18.8904   42.5486   52.0883 C   0  0  0  0  0  0  0  0  0  0  0  0
   19.8567   41.8948   51.2979 C   0  0  0  0  0  0  0  0  0  0  0  0
   19.5571   40.6826   50.6644 C   0  0  0  0  0  0  0  0  0  0  0  0
   18.0261   38.8902   50.1834 O   0  0  0  0  0  0  0  0  0  0  0  0
   17.3943   37.7062   48.4188 F   0  0  0  0  0  0  0  0  0  0  0  0
   17.1246   38.8504   49.0935 C   0  0  0  0  0  0  0  0  0  0  0  0
   17.3132   39.9479   48.3085 F   0  0  0  0  0  0  0  0  0  0  0  0
   15.8500   38.8312   49.5651 F   0  0  0  0  0  0  0  0  0  0  0  0
 27 28  1  0  0  0
 28 29  1  0  0  0
 28 30  1  0  0  0
 28 26  1  0  0  0
 26 20  1  0  0  0
 20 21  2  0  0  0
 20 25  1  0  0  0
 21 22  1  0  0  0
 22 23  2  0  0  0
 23 24  1  0  0  0
 23 18  1  0  0  0
 24 25  2  0  0  0
 18  1  1  0  0  0
  1  2  2  0  0  0
  1  6  1  0  0  0
  2  3  1  0  0  0
  3  4  2  0  0  0
  4  5  1  0  0  0
  5  6  2  0  0  0
  5  7  1  0  0  0
  7  8  2  0  0  0
  7 12  1  0  0  0
  8  9  1  0  0  0
  9 10  2  0  0  0
  9 13  1  0  0  0
 10 11  1  0  0  0
 11 12  2  0  0  0
 13 14  2  0  0  0
 13 15  1  0  0  0
 18 19  1  0  0  0
 15 16  1  0  0  0
 15 17  1  0  0  0
M  END
> <minimizedAffinity>
-9.31120

$$$$
3K5V_STJ_A_1


 30 32  0  0  0  0  0  0  0  0999 V2000
   20.8142   44.3925   54.6416 C   0  0  0  0  0  0  0  0  0  0  0  0
   20.3237   44.2940   55.9085 N   0  0  0  0  0  0  0  0  0  0  0  0
   21.1500   44.2385   56.9822 C   0  0  0  0  0  0  0  0  0  0  0  0
   22.4928   44.2748   56.8056 N   0  0  0  0  0  0  0  0  0  0  0  0
   23.0390   44.3694   55.5659 C   0  0  0  0  0  0  0  0  0  0  0  0
   22.1935   44.4264   54.4435 C   0  0  0  0  0  0  0  0  0  0  0  0
   24.5128   44.3950   55.4279 C   0  0  0  0  0  0  0  0  0  0  0  0
   25.0354   44.4983   54.1345 C   0  0  0  0  0  0  0  0  0  0  0  0
   26.4105   44.5401   53.9044 C   0  0  0  0  0  0  0  0  0  0  0  0
   27.2955   44.4662   54.9972 C   0  0  0  0  0  0  0  0  0  0  0  0
   26.7817   44.3602   56.3032 C   0  0  0  0  0  0  0  0  0  0  0  0
   25.3898   44.3250   56.5227 C   0  0  0  0  0  0  0  0  0  0  0  0
   26.8203   44.6549   52.4495 C   0  0  0  0  0  0  0  0  0  0  0  0
   25.9468   44.4884   51.6138 O   0  0  0  0  0  0  0  0  0  0  0  0
   28.1005   44.8840   52.0776 N   0  0  0  0  0  0  0  0  0  0  0  0
   28.7957   45.0167   52.7619 H   0  0  0  0  0  0  0  0  0  0  0  0
   28.3371   44.9181   51.1225 H   0  0  0  0  0  0  0  0  0  0  0  0
   20.0200   44.4538   53.5407 N   0  0  0  0  0  0  0  0  0  0  0  0
   19.8470   45.3599   53.1969 H   0  0  0  0  0  0  0  0  0  0  0  0
   18.4109   41.3143   51.3252 C   0  0  0  0  0  0  0  0  0  0  0  0
   17.6024   41.9554   52.2900 C   0  0  0  0  0  0  0  0  0  0  0  0
   18.1213   43.0107   53.0457 C   0  0  0  0  0  0  0  0  0  0  0  0
   19.4329   43.4516   52.8486 C   0  0  0  0  0  0  0  0  0  0  0  0
   20.2374   42.7961   51.8952 C   0  0  0  0  0  0  0  0  0  0  0  0
   19.7244   41.7355   51.1387 C   0  0  0  0  0  0  0  0  0  0  0  0
   17.9244   40.2444   50.5687 O   0  0  0  0  0  0  0  0  0  0  0  0
   17.9543   38.0421   50.3159 F   0  0  0  0  0  0  0  0  0  0  0  0
   17.6286   39.0143   51.2024 C   0  0  0  0  0  0  0  0  0  0  0  0
   16.3045   38.9750   51.5208 F   0  0  0  0  0  0  0  0  0  0  0  0
   18.3800   38.8971   52.3290 F   0  0  0  0  0  0  0  0  0  0  0  0
 27 28  1  0  0  0
 28 29  1  0  0  0
 28 30  1  0  0  0
 28 26  1  0  0  0
 26 20  1  0  0  0
 20 21  2  0  0  0
 20 25  1  0  0  0
 21 22  1  0  0  0
 22 23  2  0  0  0
 23 24  1  0  0  0
 23 18  1  0  0  0
 24 25  2  0  0  0
 18  1  1  0  0  0
  1  2  2  0  0  0
  1  6  1  0  0  0
  2  3  1  0  0  0
  3  4  2  0  0  0
  4  5  1  0  0  0
  5  6  2  0  0  0
  5  7  1  0  0  0
  7  8  2  0  0  0
  7 12  1  0  0  0
  8  9  1  0  0  0
  9 10  2  0  0  0
  9 13  1  0  0  0
 10 11  1  0  0  0
 11 12  2  0  0  0
 13 14  2  0  0  0
 13 15  1  0  0  0
 18 19  1  0  0  0
 15 16  1  0  0  0
 15 17  1  0  0  0
M  END
> <minimizedAffinity>
-9.23060

$$$$
3K5V_STJ_A_1


 30 32  0  0  0  0  0  0  0  0999 V2000
   21.1374   44.3929   54.4426 C   0  0  0  0  0  0  0  0  0  0  0  0
   22.4337   44.3077   54.0331 N   0  0  0  0  0  0  0  0  0  0  0  0
   23.4563   44.3144   54.9234 C   0  0  0  0  0  0  0  0  0  0  0  0
   23.1984   44.4133   56.2498 N   0  0  0  0  0  0  0  0  0  0  0  0
   21.9263   44.5042   56.7163 C   0  0  0  0  0  0  0  0  0  0  0  0
   20.8564   44.4998   55.8037 C   0  0  0  0  0  0  0  0  0  0  0  0
   21.7004   44.6206   58.1748 C   0  0  0  0  0  0  0  0  0  0  0  0
   20.4011   44.3991   58.6435 C   0  0  0  0  0  0  0  0  0  0  0  0
   20.0923   44.4763   60.0014 C   0  0  0  0  0  0  0  0  0  0  0  0
   21.1082   44.7948   60.9231 C   0  0  0  0  0  0  0  0  0  0  0  0
   22.4190   45.0216   60.4634 C   0  0  0  0  0  0  0  0  0  0  0  0
   22.7192   44.9347   59.0890 C   0  0  0  0  0  0  0  0  0  0  0  0
   18.6419   44.2092   60.3519 C   0  0  0  0  0  0  0  0  0  0  0  0
   17.9468   43.7054   59.4845 O   0  0  0  0  0  0  0  0  0  0  0  0
   18.1155   44.5510   61.5501 N   0  0  0  0  0  0  0  0  0  0  0  0
   18.6873   44.9567   62.2413 H   0  0  0  0  0  0  0  0  0  0  0  0
   17.1605   44.3941   61.7311 H   0  0  0  0  0  0  0  0  0  0  0  0
   20.0851   44.3864   53.5828 N   0  0  0  0  0  0  0  0  0  0  0  0
   19.6258   45.2503   53.4737 H   0  0  0  0  0  0  0  0  0  0  0  0
   18.3174   41.2980   51.4169 C   0  0  0  0  0  0  0  0  0  0  0  0
   19.6735   41.6124   51.1773 C   0  0  0  0  0  0  0  0  0  0  0  0
   20.2876   42.6453   51.8916 C   0  0  0  0  0  0  0  0  0  0  0  0
   19.5769   43.3662   52.8554 C   0  0  0  0  0  0  0  0  0  0  0  0
   18.2202   43.0564   53.0768 C   0  0  0  0  0  0  0  0  0  0  0  0
   17.5988   42.0260   52.3609 C   0  0  0  0  0  0  0  0  0  0  0  0
   17.6727   40.2831   50.7041 O   0  0  0  0  0  0  0  0  0  0  0  0
   17.5148   38.0869   50.4452 F   0  0  0  0  0  0  0  0  0  0  0  0
   17.3337   39.0741   51.3564 C   0  0  0  0  0  0  0  0  0  0  0  0
   16.0390   39.1329   51.7765 F   0  0  0  0  0  0  0  0  0  0  0  0
   18.1587   38.8911   52.4209 F   0  0  0  0  0  0  0  0  0  0  0  0
 27 28  1  0  0  0
 28 29  1  0  0  0
 28 30  1  0  0  0
 28 26  1  0  0  0
 26 20  1  0  0  0
 20 21  2  0  0  0
 20 25  1  0  0  0
 21 22  1  0  0  0
 22 23  2  0  0  0
 23 24  1  0  0  0
 23 18  1  0  0  0
 24 25  2  0  0  0
 18  1  1  0  0  0
  1  2  2  0  0  0
  1  6  1  0  0  0
  2  3  1  0  0  0
  3  4  2  0  0  0
  4  5  1  0  0  0
  5  6  2  0  0  0
  5  7  1  0  0  0
  7  8  2  0  0  0
  7 12  1  0  0  0
  8  9  1  0  0  0
  9 10  2  0  0  0
  9 13  1  0  0  0
 10 11  1  0  0  0
 11 12  2  0  0  0
 13 14  2  0  0  0
 13 15  1  0  0  0
 18 19  1  0  0  0
 15 16  1  0  0  0
 15 17  1  0  0  0
M  END
> <minimizedAffinity>
-8.90225

$$$$
3K5V_STJ_A_1


 30 32  0  0  0  0  0  0  0  0999 V2000
   20.9858   44.0341   53.6085 C   0  0  0  0  0  0  0  0  0  0  0  0
   22.1322   43.5483   53.0562 N   0  0  0  0  0  0  0  0  0  0  0  0
   23.3287   43.6870   53.6788 C   0  0  0  0  0  0  0  0  0  0  0  0
   23.4011   44.3248   54.8719 N   0  0  0  0  0  0  0  0  0  0  0  0
   22.2920   44.8324   55.4689 C   0  0  0  0  0  0  0  0  0  0  0  0
   21.0449   44.6967   54.8335 C   0  0  0  0  0  0  0  0  0  0  0  0
   22.4281   45.5294   56.7679 C   0  0  0  0  0  0  0  0  0  0  0  0
   23.5521   45.2280   57.5442 C   0  0  0  0  0  0  0  0  0  0  0  0
   23.7725   45.8408   58.7776 C   0  0  0  0  0  0  0  0  0  0  0  0
   22.8379   46.7773   59.2597 C   0  0  0  0  0  0  0  0  0  0  0  0
   21.7022   47.0875   58.4885 C   0  0  0  0  0  0  0  0  0  0  0  0
   21.4941   46.4656   57.2408 C   0  0  0  0  0  0  0  0  0  0  0  0
   25.0350   45.4105   59.4980 C   0  0  0  0  0  0  0  0  0  0  0  0
   24.9240   45.1040   60.6739 O   0  0  0  0  0  0  0  0  0  0  0  0
   26.2444   45.4064   58.8920 N   0  0  0  0  0  0  0  0  0  0  0  0
   26.3201   45.6557   57.9426 H   0  0  0  0  0  0  0  0  0  0  0  0
   27.0489   45.1540   59.4004 H   0  0  0  0  0  0  0  0  0  0  0  0
   19.7678   43.9128   53.0183 N   0  0  0  0  0  0  0  0  0  0  0  0
   19.2459   44.7452   52.9560 H   0  0  0  0  0  0  0  0  0  0  0  0
   17.7242   40.6199   51.4904 C   0  0  0  0  0  0  0  0  0  0  0  0
   19.1071   40.7469   51.2319 C   0  0  0  0  0  0  0  0  0  0  0  0
   19.8134   41.8438   51.7338 C   0  0  0  0  0  0  0  0  0  0  0  0
   19.1683   42.8153   52.5042 C   0  0  0  0  0  0  0  0  0  0  0  0
   17.7854   42.6891   52.7439 C   0  0  0  0  0  0  0  0  0  0  0  0
   17.0720   41.5948   52.2398 C   0  0  0  0  0  0  0  0  0  0  0  0
   16.9892   39.5436   50.9853 O   0  0  0  0  0  0  0  0  0  0  0  0
   18.1053   38.2695   49.5550 F   0  0  0  0  0  0  0  0  0  0  0  0
   17.1117   39.1891   49.6210 C   0  0  0  0  0  0  0  0  0  0  0  0
   17.4104   40.2987   48.8890 F   0  0  0  0  0  0  0  0  0  0  0  0
   15.9406   38.6506   49.1897 F   0  0  0  0  0  0  0  0  0  0  0  0
 27 28  1  0  0  0
 28 29  1  0  0  0
 28 30  1  0  0  0
 28 26  1  0  0  0
 26 20  1  0  0  0
 20 21  2  0  0  0
 20 25  1  0  0  0
 21 22  1  0  0  0
 22 23  2  0  0  0
 23 24  1  0  0  0
 23 18  1  0  0  0
 24 25  2  0  0  0
 18  1  1  0  0  0
  1  2  2  0  0  0
  1  6  1  0  0  0
  2  3  1  0  0  0
  3  4  2  0  0  0
  4  5  1  0  0  0
  5  6  2  0  0  0
  5  7  1  0  0  0
  7  8  2  0  0  0
  7 12  1  0  0  0
  8  9  1  0  0  0
  9 10  2  0  0  0
  9 13  1  0  0  0
 10 11  1  0  0  0
 11 12  2  0  0  0
 13 14  2  0  0  0
 13 15  1  0  0  0
 18 19  1  0  0  0
 15 16  1  0  0  0
 15 17  1  0  0  0
M  END
> <minimizedAffinity>
-8.45238

$$$$
3K5V_STJ_A_1


 30 32  0  0  0  0  0  0  0  0999 V2000
   21.0096   44.4372   54.4291 C   0  0  0  0  0  0  0  0  0  0  0  0
   22.3049   44.6903   54.0922 N   0  0  0  0  0  0  0  0  0  0  0  0
   23.2715   44.7964   55.0372 C   0  0  0  0  0  0  0  0  0  0  0  0
   22.9557   44.6561   56.3472 N   0  0  0  0  0  0  0  0  0  0  0  0
   21.6809   44.4060   56.7427 C   0  0  0  0  0  0  0  0  0  0  0  0
   20.6684   44.2948   55.7731 C   0  0  0  0  0  0  0  0  0  0  0  0
   21.3881   44.2716   58.1877 C   0  0  0  0  0  0  0  0  0  0  0  0
   21.9582   45.2147   59.0493 C   0  0  0  0  0  0  0  0  0  0  0  0
   21.7321   45.1766   60.4251 C   0  0  0  0  0  0  0  0  0  0  0  0
   20.9200   44.1598   60.9630 C   0  0  0  0  0  0  0  0  0  0  0  0
   20.3423   43.2040   60.1065 C   0  0  0  0  0  0  0  0  0  0  0  0
   20.5737   43.2572   58.7171 C   0  0  0  0  0  0  0  0  0  0  0  0
   22.4175   46.2672   61.2244 C   0  0  0  0  0  0  0  0  0  0  0  0
   22.9788   45.9292   62.2538 O   0  0  0  0  0  0  0  0  0  0  0  0
   22.3773   47.5669   60.8516 N   0  0  0  0  0  0  0  0  0  0  0  0
   21.9211   47.8263   60.0186 H   0  0  0  0  0  0  0  0  0  0  0  0
   22.8043   48.2535   61.4133 H   0  0  0  0  0  0  0  0  0  0  0  0
   20.0131   44.3206   53.5125 N   0  0  0  0  0  0  0  0  0  0  0  0
   19.5664   45.1631   53.2676 H   0  0  0  0  0  0  0  0  0  0  0  0
   18.3699   40.9694   51.6624 C   0  0  0  0  0  0  0  0  0  0  0  0
   19.7049   41.3266   51.3697 C   0  0  0  0  0  0  0  0  0  0  0  0
   20.2771   42.4476   51.9781 C   0  0  0  0  0  0  0  0  0  0  0  0
   19.5458   43.2163   52.8880 C   0  0  0  0  0  0  0  0  0  0  0  0
   18.2097   42.8621   53.1621 C   0  0  0  0  0  0  0  0  0  0  0  0
   17.6300   41.7430   52.5521 C   0  0  0  0  0  0  0  0  0  0  0  0
   17.7662   39.8650   51.0545 O   0  0  0  0  0  0  0  0  0  0  0  0
   16.2579   39.1534   49.5939 F   0  0  0  0  0  0  0  0  0  0  0  0
   17.3511   39.9471   49.7043 C   0  0  0  0  0  0  0  0  0  0  0  0
   18.3596   39.5218   48.8930 F   0  0  0  0  0  0  0  0  0  0  0  0
   17.0311   41.2350   49.4101 F   0  0  0  0  0  0  0  0  0  0  0  0
 27 28  1  0  0  0
 28 29  1  0  0  0
 28 30  1  0  0  0
 28 26  1  0  0  0
 26 20  1  0  0  0
 20 21  2  0  0  0
 20 25  1  0  0  0
 21 22  1  0  0  0
 22 23  2  0  0  0
 23 24  1  0  0  0
 23 18  1  0  0  0
 24 25  2  0  0  0
 18  1  1  0  0  0
  1  2  2  0  0  0
  1  6  1  0  0  0
  2  3  1  0  0  0
  3  4  2  0  0  0
  4  5  1  0  0  0
  5  6  2  0  0  0
  5  7  1  0  0  0
  7  8  2  0  0  0
  7 12  1  0  0  0
  8  9  1  0  0  0
  9 10  2  0  0  0
  9 13  1  0  0  0
 10 11  1  0  0  0
 11 12  2  0  0  0
 13 14  2  0  0  0
 13 15  1  0  0  0
 18 19  1  0  0  0
 15 16  1  0  0  0
 15 17  1  0  0  0
M  END
> <minimizedAffinity>
-8.41647

$$$$
3K5V_STJ_A_1


 30 32  0  0  0  0  0  0  0  0999 V2000
   20.8324   44.5471   55.1597 C   0  0  0  0  0  0  0  0  0  0  0  0
   20.3907   43.9930   56.3230 N   0  0  0  0  0  0  0  0  0  0  0  0
   21.1450   44.0230   57.4493 C   0  0  0  0  0  0  0  0  0  0  0  0
   22.3672   44.6073   57.4301 N   0  0  0  0  0  0  0  0  0  0  0  0
   22.8610   45.1731   56.2988 C   0  0  0  0  0  0  0  0  0  0  0  0
   22.0896   45.1479   55.1232 C   0  0  0  0  0  0  0  0  0  0  0  0
   24.2068   45.7893   56.3295 C   0  0  0  0  0  0  0  0  0  0  0  0
   25.2780   45.0166   55.8691 C   0  0  0  0  0  0  0  0  0  0  0  0
   26.5810   45.5138   55.8497 C   0  0  0  0  0  0  0  0  0  0  0  0
   26.8281   46.8201   56.3137 C   0  0  0  0  0  0  0  0  0  0  0  0
   25.7587   47.6068   56.7810 C   0  0  0  0  0  0  0  0  0  0  0  0
   24.4455   47.0946   56.7898 C   0  0  0  0  0  0  0  0  0  0  0  0
   27.6314   44.5569   55.3215 C   0  0  0  0  0  0  0  0  0  0  0  0
   28.6563   44.4448   55.9744 O   0  0  0  0  0  0  0  0  0  0  0  0
   27.4748   43.8865   54.1570 N   0  0  0  0  0  0  0  0  0  0  0  0
   26.6429   43.9857   53.6400 H   0  0  0  0  0  0  0  0  0  0  0  0
   28.1927   43.2994   53.8267 H   0  0  0  0  0  0  0  0  0  0  0  0
   20.1059   44.5407   54.0113 N   0  0  0  0  0  0  0  0  0  0  0  0
   19.8615   45.4286   53.6633 H   0  0  0  0  0  0  0  0  0  0  0  0
   18.9719   41.2795   51.6805 C   0  0  0  0  0  0  0  0  0  0  0  0
   18.0374   41.8324   52.5841 C   0  0  0  0  0  0  0  0  0  0  0  0
   18.3958   42.9264   53.3770 C   0  0  0  0  0  0  0  0  0  0  0  0
   19.6699   43.4925   53.2770 C   0  0  0  0  0  0  0  0  0  0  0  0
   20.6010   42.9248   52.3845 C   0  0  0  0  0  0  0  0  0  0  0  0
   20.2488   41.8261   51.5913 C   0  0  0  0  0  0  0  0  0  0  0  0
   18.6470   40.1740   50.8893 O   0  0  0  0  0  0  0  0  0  0  0  0
   17.8705   39.5838   48.8983 F   0  0  0  0  0  0  0  0  0  0  0  0
   17.5183   40.2282   50.0376 C   0  0  0  0  0  0  0  0  0  0  0  0
   17.1955   41.5293   49.7946 F   0  0  0  0  0  0  0  0  0  0  0  0
   16.4741   39.5952   50.6346 F   0  0  0  0  0  0  0  0  0  0  0  0
 27 28  1  0  0  0
 28 29  1  0  0  0
 28 30  1  0  0  0
 28 26  1  0  0  0
 26 20  1  0  0  0
 20 21  2  0  0  0
 20 25  1  0  0  0
 21 22  1  0  0  0
 22 23  2  0  0  0
 23 24  1  0  0  0
 23 18  1  0  0  0
 24 25  2  0  0  0
 18  1  1  0  0  0
  1  2  2  0  0  0
  1  6  1  0  0  0
  2  3  1  0  0  0
  3  4  2  0  0  0
  4  5  1  0  0  0
  5  6  2  0  0  0
  5  7  1  0  0  0
  7  8  2  0  0  0
  7 12  1  0  0  0
  8  9  1  0  0  0
  9 10  2  0  0  0
  9 13  1  0  0  0
 10 11  1  0  0  0
 11 12  2  0  0  0
 13 14  2  0  0  0
 13 15  1  0  0  0
 18 19  1  0  0  0
 15 16  1  0  0  0
 15 17  1  0  0  0
M  END
> <minimizedAffinity>
-8.24679

$$$$
3K5V_STJ_A_1


 30 32  0  0  0  0  0  0  0  0999 V2000
   20.7271   44.6569   55.2590 C   0  0  0  0  0  0  0  0  0  0  0  0
   20.4003   43.8041   56.2696 N   0  0  0  0  0  0  0  0  0  0  0  0
   21.0155   43.8718   57.4760 C   0  0  0  0  0  0  0  0  0  0  0  0
   21.9808   44.7974   57.6927 N   0  0  0  0  0  0  0  0  0  0  0  0
   22.3505   45.6717   56.7216 C   0  0  0  0  0  0  0  0  0  0  0  0
   21.7215   45.6117   55.4653 C   0  0  0  0  0  0  0  0  0  0  0  0
   23.4182   46.6567   57.0074 C   0  0  0  0  0  0  0  0  0  0  0  0
   23.1582   47.6200   57.9878 C   0  0  0  0  0  0  0  0  0  0  0  0
   24.1058   48.5832   58.3337 C   0  0  0  0  0  0  0  0  0  0  0  0
   25.3502   48.5948   57.6747 C   0  0  0  0  0  0  0  0  0  0  0  0
   25.6229   47.6318   56.6852 C   0  0  0  0  0  0  0  0  0  0  0  0
   24.6589   46.6600   56.3491 C   0  0  0  0  0  0  0  0  0  0  0  0
   23.6759   49.5558   59.4141 C   0  0  0  0  0  0  0  0  0  0  0  0
   23.5528   50.7254   59.0885 O   0  0  0  0  0  0  0  0  0  0  0  0
   23.4796   49.1688   60.6953 N   0  0  0  0  0  0  0  0  0  0  0  0
   23.5821   48.2219   60.9447 H   0  0  0  0  0  0  0  0  0  0  0  0
   23.2343   49.8339   61.3784 H   0  0  0  0  0  0  0  0  0  0  0  0
   20.1323   44.6235   54.0377 N   0  0  0  0  0  0  0  0  0  0  0  0
   19.9986   45.5006   53.6109 H   0  0  0  0  0  0  0  0  0  0  0  0
   19.0010   41.3203   51.7656 C   0  0  0  0  0  0  0  0  0  0  0  0
   18.0727   41.8761   52.6738 C   0  0  0  0  0  0  0  0  0  0  0  0
   18.4304   42.9842   53.4472 C   0  0  0  0  0  0  0  0  0  0  0  0
   19.6973   43.5613   53.3231 C   0  0  0  0  0  0  0  0  0  0  0  0
   20.6226   42.9907   52.4264 C   0  0  0  0  0  0  0  0  0  0  0  0
   20.2712   41.8780   51.6525 C   0  0  0  0  0  0  0  0  0  0  0  0
   18.6770   40.2010   50.9935 O   0  0  0  0  0  0  0  0  0  0  0  0
   17.9496   39.5909   48.9901 F   0  0  0  0  0  0  0  0  0  0  0  0
   17.5724   40.2536   50.1108 C   0  0  0  0  0  0  0  0  0  0  0  0
   17.2681   41.5541   49.8418 F   0  0  0  0  0  0  0  0  0  0  0  0
   16.5067   39.6377   50.6873 F   0  0  0  0  0  0  0  0  0  0  0  0
 27 28  1  0  0  0
 28 29  1  0  0  0
 28 30  1  0  0  0
 28 26  1  0  0  0
 26 20  1  0  0  0
 20 21  2  0  0  0
 20 25  1  0  0  0
 21 22  1  0  0  0
 22 23  2  0  0  0
 23 24  1  0  0  0
 23 18  1  0  0  0
 24 25  2  0  0  0
 18  1  1  0  0  0
  1  2  2  0  0  0
  1  6  1  0  0  0
  2  3  1  0  0  0
  3  4  2  0  0  0
  4  5  1  0  0  0
  5  6  2  0  0  0
  5  7  1  0  0  0
  7  8  2  0  0  0
  7 12  1  0  0  0
  8  9  1  0  0  0
  9 10  2  0  0  0
  9 13  1  0  0  0
 10 11  1  0  0  0
 11 12  2  0  0  0
 13 14  2  0  0  0
 13 15  1  0  0  0
 18 19  1  0  0  0
 15 16  1  0  0  0
 15 17  1  0  0  0
M  END
> <minimizedAffinity>
-8.06538

$$$$
