5EXW_7DT_A_501


 39 41  0  0  0  0  0  0  0  0999 V2000
   18.3880   -4.7387    5.3524 C   0  0  0  0  0  0  0  0  0  0  0  0
   17.4090   -5.6272    4.8044 O   0  0  0  0  0  0  0  0  0  0  0  0
   17.2018   -6.6563    5.7443 C   0  0  0  0  0  0  0  0  0  0  0  0
   18.6144   -6.9635    6.2833 C   0  0  0  0  0  0  0  0  0  0  0  0
   18.6041   -7.6017    7.5430 O   0  0  0  0  0  0  0  0  0  0  0  0
   19.1185   -5.5051    6.4684 C   0  0  0  0  0  0  0  0  0  0  0  0
   18.6868   -4.9803    7.6926 O   0  0  0  0  0  0  0  0  0  0  0  0
   18.1006   -7.0637    8.1739 H   0  0  0  0  0  0  0  0  0  0  0  0
   17.7192   -5.0271    7.7413 H   0  0  0  0  0  0  0  0  0  0  0  0
   16.6025   -7.8642    5.1441 N   0  0  0  0  0  0  0  0  0  0  0  0
   17.0862   -8.5362    4.0708 C   0  0  0  0  0  0  0  0  0  0  0  0
   16.2759   -9.6215    3.8189 C   0  0  0  0  0  0  0  0  0  0  0  0
   15.2532   -9.6179    4.7242 C   0  0  0  0  0  0  0  0  0  0  0  0
   14.1105  -10.4436    5.0016 C   0  0  0  0  0  0  0  0  0  0  0  0
   13.8810  -11.5431    4.2124 N   0  0  0  0  0  0  0  0  0  0  0  0
   13.3389  -10.1137    5.9984 N   0  0  0  0  0  0  0  0  0  0  0  0
   13.6122   -9.0099    6.7404 C   0  0  0  0  0  0  0  0  0  0  0  0
   14.6495   -8.1748    6.5683 N   0  0  0  0  0  0  0  0  0  0  0  0
   15.4608   -8.4997    5.5630 C   0  0  0  0  0  0  0  0  0  0  0  0
   14.4925  -11.7523    3.4698 H   0  0  0  0  0  0  0  0  0  0  0  0
   13.1049  -12.1225    4.3891 H   0  0  0  0  0  0  0  0  0  0  0  0
   19.3413   -4.4637    4.2141 C   0  0  0  0  0  0  0  0  0  0  0  0
   18.9858   -3.2196    3.5582 O   0  0  0  0  0  0  0  0  0  0  0  0
   19.8021   -2.6385    2.3493 P   0  0  0  0  0  0  0  0  0  0  0  0
   21.0645   -2.0158    2.8660 O   0  0  0  0  0  0  0  0  0  0  0  0
   19.9967   -3.7248    1.3501 O   0  0  0  0  0  0  0  0  0  0  0  0
   21.5742   -1.6545    2.1239 H   0  0  0  0  0  0  0  0  0  0  0  0
   18.8468   -1.4964    1.8213 O   0  0  0  0  0  0  0  0  0  0  0  0
   19.0394    0.1005    1.6800 P   0  0  0  0  0  0  0  0  0  0  0  0
   17.8907    0.6247    0.8418 O   0  0  0  0  0  0  0  0  0  0  0  0
   20.4603    0.2561    1.1110 O   0  0  0  0  0  0  0  0  0  0  0  0
   20.4665   -0.0122    0.1789 H   0  0  0  0  0  0  0  0  0  0  0  0
   18.9912    0.5206    3.1693 O   0  0  0  0  0  0  0  0  0  0  0  0
   20.1812    2.7128    3.1673 O   0  0  0  0  0  0  0  0  0  0  0  0
   20.0885    1.4023    3.9618 P   0  0  0  0  0  0  0  0  0  0  0  0
   19.4724    1.6314    5.3053 O   0  0  0  0  0  0  0  0  0  0  0  0
   21.2980    0.5350    3.9513 O   0  0  0  0  0  0  0  0  0  0  0  0
   19.3436    3.1962    3.2421 H   0  0  0  0  0  0  0  0  0  0  0  0
   21.1302   -0.2603    4.4806 H   0  0  0  0  0  0  0  0  0  0  0  0
 30 29  2  0  0  0
 26 24  2  0  0  0
 25 24  1  0  0  0
 24 28  1  0  0  0
 24 23  1  0  0  0
 29 28  1  0  0  0
 29 31  1  0  0  0
 29 33  1  0  0  0
 33 35  1  0  0  0
 36 35  2  0  0  0
 23 22  1  0  0  0
 12 11  2  0  0  0
 12 13  1  0  0  0
 15 14  1  0  0  0
 11 10  1  0  0  0
 35 37  1  0  0  0
 35 34  1  0  0  0
 13 14  2  0  0  0
 13 19  1  0  0  0
 14 16  1  0  0  0
 22  1  1  0  0  0
  2  1  1  0  0  0
  2  3  1  0  0  0
 10 19  1  0  0  0
 10  3  1  0  0  0
 19 18  2  0  0  0
 16 17  2  0  0  0
  1  6  1  0  0  0
  3  4  1  0  0  0
 18 17  1  0  0  0
  4  6  1  0  0  0
  4  5  1  0  0  0
  6  7  1  0  0  0
 34 38  1  0  0  0
 37 39  1  0  0  0
 31 32  1  0  0  0
 25 27  1  0  0  0
 15 20  1  0  0  0
 15 21  1  0  0  0
  5  8  1  0  0  0
  7  9  1  0  0  0
M  END
> <minimizedAffinity>
-11.87667

$$$$
5EXW_7DT_A_501


 39 41  0  0  0  0  0  0  0  0999 V2000
   18.4673   -4.7943    5.2066 C   0  0  0  0  0  0  0  0  0  0  0  0
   17.4851   -5.6862    4.6699 O   0  0  0  0  0  0  0  0  0  0  0  0
   17.2260   -6.6653    5.6494 C   0  0  0  0  0  0  0  0  0  0  0  0
   18.6141   -6.9774    6.2459 C   0  0  0  0  0  0  0  0  0  0  0  0
   18.5510   -7.5554    7.5329 O   0  0  0  0  0  0  0  0  0  0  0  0
   19.1458   -5.5231    6.3791 C   0  0  0  0  0  0  0  0  0  0  0  0
   18.6895   -4.9323    7.5636 O   0  0  0  0  0  0  0  0  0  0  0  0
   18.0412   -6.9777    8.1222 H   0  0  0  0  0  0  0  0  0  0  0  0
   17.7200   -4.9558    7.5841 H   0  0  0  0  0  0  0  0  0  0  0  0
   16.6174   -7.8869    5.0872 N   0  0  0  0  0  0  0  0  0  0  0  0
   17.1045   -8.6047    4.0455 C   0  0  0  0  0  0  0  0  0  0  0  0
   16.2825   -9.6880    3.8243 C   0  0  0  0  0  0  0  0  0  0  0  0
   15.2495   -9.6372    4.7163 C   0  0  0  0  0  0  0  0  0  0  0  0
   14.0925  -10.4369    5.0102 C   0  0  0  0  0  0  0  0  0  0  0  0
   13.8574  -11.5620    4.2596 N   0  0  0  0  0  0  0  0  0  0  0  0
   13.3138  -10.0600    5.9845 N   0  0  0  0  0  0  0  0  0  0  0  0
   13.5933   -8.9330    6.6883 C   0  0  0  0  0  0  0  0  0  0  0  0
   14.6438   -8.1185    6.4980 N   0  0  0  0  0  0  0  0  0  0  0  0
   15.4624   -8.4912    5.5154 C   0  0  0  0  0  0  0  0  0  0  0  0
   14.4747  -11.8067    3.5328 H   0  0  0  0  0  0  0  0  0  0  0  0
   13.0715  -12.1242    4.4482 H   0  0  0  0  0  0  0  0  0  0  0  0
   19.4606   -4.5936    4.0871 C   0  0  0  0  0  0  0  0  0  0  0  0
   19.7340   -3.1796    3.9134 O   0  0  0  0  0  0  0  0  0  0  0  0
   19.5448   -2.4452    2.5385 P   0  0  0  0  0  0  0  0  0  0  0  0
   20.8067   -2.5722    1.7386 O   0  0  0  0  0  0  0  0  0  0  0  0
   18.3236   -2.9875    1.8820 O   0  0  0  0  0  0  0  0  0  0  0  0
   20.6968   -2.1204    0.8873 H   0  0  0  0  0  0  0  0  0  0  0  0
   19.3718   -0.9402    2.9865 O   0  0  0  0  0  0  0  0  0  0  0  0
   20.4371    0.2484    3.2316 P   0  0  0  0  0  0  0  0  0  0  0  0
   21.8109   -0.2960    2.8954 O   0  0  0  0  0  0  0  0  0  0  0  0
   20.1834    0.6829    4.6854 O   0  0  0  0  0  0  0  0  0  0  0  0
   20.5236    0.0046    5.2897 H   0  0  0  0  0  0  0  0  0  0  0  0
   19.9059    1.3091    2.2368 O   0  0  0  0  0  0  0  0  0  0  0  0
   18.0852    0.6216    0.6766 O   0  0  0  0  0  0  0  0  0  0  0  0
   19.5503    1.0807    0.6777 P   0  0  0  0  0  0  0  0  0  0  0  0
   19.6875    2.4397    0.0684 O   0  0  0  0  0  0  0  0  0  0  0  0
   20.5584    0.0774    0.2392 O   0  0  0  0  0  0  0  0  0  0  0  0
   17.5182    1.3489    0.9775 H   0  0  0  0  0  0  0  0  0  0  0  0
   21.4442    0.4707    0.2784 H   0  0  0  0  0  0  0  0  0  0  0  0
 30 29  2  0  0  0
 26 24  2  0  0  0
 25 24  1  0  0  0
 24 28  1  0  0  0
 24 23  1  0  0  0
 29 28  1  0  0  0
 29 31  1  0  0  0
 29 33  1  0  0  0
 33 35  1  0  0  0
 36 35  2  0  0  0
 23 22  1  0  0  0
 12 11  2  0  0  0
 12 13  1  0  0  0
 15 14  1  0  0  0
 11 10  1  0  0  0
 35 37  1  0  0  0
 35 34  1  0  0  0
 13 14  2  0  0  0
 13 19  1  0  0  0
 14 16  1  0  0  0
 22  1  1  0  0  0
  2  1  1  0  0  0
  2  3  1  0  0  0
 10 19  1  0  0  0
 10  3  1  0  0  0
 19 18  2  0  0  0
 16 17  2  0  0  0
  1  6  1  0  0  0
  3  4  1  0  0  0
 18 17  1  0  0  0
  4  6  1  0  0  0
  4  5  1  0  0  0
  6  7  1  0  0  0
 34 38  1  0  0  0
 37 39  1  0  0  0
 31 32  1  0  0  0
 25 27  1  0  0  0
 15 20  1  0  0  0
 15 21  1  0  0  0
  5  8  1  0  0  0
  7  9  1  0  0  0
M  END
> <minimizedAffinity>
-11.81573

$$$$
5EXW_7DT_A_501


 39 41  0  0  0  0  0  0  0  0999 V2000
   18.4280   -4.7802    5.0255 C   0  0  0  0  0  0  0  0  0  0  0  0
   17.1638   -5.4493    4.9772 O   0  0  0  0  0  0  0  0  0  0  0  0
   17.0695   -6.2541    6.1299 C   0  0  0  0  0  0  0  0  0  0  0  0
   18.4861   -6.8424    6.2950 C   0  0  0  0  0  0  0  0  0  0  0  0
   18.7578   -7.2816    7.6094 O   0  0  0  0  0  0  0  0  0  0  0  0
   19.3100   -5.5535    6.0207 C   0  0  0  0  0  0  0  0  0  0  0  0
   19.4194   -4.7759    7.1798 O   0  0  0  0  0  0  0  0  0  0  0  0
   18.6097   -6.5521    8.2312 H   0  0  0  0  0  0  0  0  0  0  0  0
   18.5330   -4.5631    7.5112 H   0  0  0  0  0  0  0  0  0  0  0  0
   16.0731   -7.3342    5.9909 N   0  0  0  0  0  0  0  0  0  0  0  0
   14.9289   -7.4506    6.7084 C   0  0  0  0  0  0  0  0  0  0  0  0
   14.2448   -8.5682    6.2829 C   0  0  0  0  0  0  0  0  0  0  0  0
   14.9789   -9.1801    5.3072 C   0  0  0  0  0  0  0  0  0  0  0  0
   14.8358  -10.3447    4.4779 C   0  0  0  0  0  0  0  0  0  0  0  0
   13.7162  -11.1259    4.6212 N   0  0  0  0  0  0  0  0  0  0  0  0
   15.7783  -10.6087    3.6177 N   0  0  0  0  0  0  0  0  0  0  0  0
   16.8672   -9.8029    3.5256 C   0  0  0  0  0  0  0  0  0  0  0  0
   17.0979   -8.6948    4.2480 N   0  0  0  0  0  0  0  0  0  0  0  0
   16.1408   -8.3966    5.1253 C   0  0  0  0  0  0  0  0  0  0  0  0
   13.0303  -10.8860    5.2855 H   0  0  0  0  0  0  0  0  0  0  0  0
   13.5990  -11.9260    4.0596 H   0  0  0  0  0  0  0  0  0  0  0  0
   18.9916   -4.9167    3.6313 C   0  0  0  0  0  0  0  0  0  0  0  0
   18.5945   -3.7804    2.8217 O   0  0  0  0  0  0  0  0  0  0  0  0
   19.6291   -2.7441    2.2549 P   0  0  0  0  0  0  0  0  0  0  0  0
   20.6369   -2.4274    3.3191 O   0  0  0  0  0  0  0  0  0  0  0  0
   20.1955   -3.2908    0.9913 O   0  0  0  0  0  0  0  0  0  0  0  0
   21.2796   -1.7872    2.9755 H   0  0  0  0  0  0  0  0  0  0  0  0
   18.7253   -1.4716    2.0106 O   0  0  0  0  0  0  0  0  0  0  0  0
   19.0810    0.0506    1.6059 P   0  0  0  0  0  0  0  0  0  0  0  0
   18.0745    0.4904    0.5616 O   0  0  0  0  0  0  0  0  0  0  0  0
   20.5590   -0.0112    1.1836 O   0  0  0  0  0  0  0  0  0  0  0  0
   20.6311   -0.4512    0.3222 H   0  0  0  0  0  0  0  0  0  0  0  0
   18.9270    0.7481    2.9795 O   0  0  0  0  0  0  0  0  0  0  0  0
   20.4058    2.7508    3.1345 O   0  0  0  0  0  0  0  0  0  0  0  0
   20.1007    1.4299    3.8552 P   0  0  0  0  0  0  0  0  0  0  0  0
   19.4662    1.6788    5.1865 O   0  0  0  0  0  0  0  0  0  0  0  0
   21.1791    0.4042    3.8413 O   0  0  0  0  0  0  0  0  0  0  0  0
   19.6401    3.3421    3.2053 H   0  0  0  0  0  0  0  0  0  0  0  0
   20.8816   -0.3842    4.3218 H   0  0  0  0  0  0  0  0  0  0  0  0
 30 29  2  0  0  0
 26 24  2  0  0  0
 25 24  1  0  0  0
 24 28  1  0  0  0
 24 23  1  0  0  0
 29 28  1  0  0  0
 29 31  1  0  0  0
 29 33  1  0  0  0
 33 35  1  0  0  0
 36 35  2  0  0  0
 23 22  1  0  0  0
 12 11  2  0  0  0
 12 13  1  0  0  0
 15 14  1  0  0  0
 11 10  1  0  0  0
 35 37  1  0  0  0
 35 34  1  0  0  0
 13 14  2  0  0  0
 13 19  1  0  0  0
 14 16  1  0  0  0
 22  1  1  0  0  0
  2  1  1  0  0  0
  2  3  1  0  0  0
 10 19  1  0  0  0
 10  3  1  0  0  0
 19 18  2  0  0  0
 16 17  2  0  0  0
  1  6  1  0  0  0
  3  4  1  0  0  0
 18 17  1  0  0  0
  4  6  1  0  0  0
  4  5  1  0  0  0
  6  7  1  0  0  0
 34 38  1  0  0  0
 37 39  1  0  0  0
 31 32  1  0  0  0
 25 27  1  0  0  0
 15 20  1  0  0  0
 15 21  1  0  0  0
  5  8  1  0  0  0
  7  9  1  0  0  0
M  END
> <minimizedAffinity>
-10.97884

$$$$
5EXW_7DT_A_501


 39 41  0  0  0  0  0  0  0  0999 V2000
   18.4577   -4.6149    4.7437 C   0  0  0  0  0  0  0  0  0  0  0  0
   17.4158   -5.5361    4.4059 O   0  0  0  0  0  0  0  0  0  0  0  0
   17.4416   -6.5699    5.3629 C   0  0  0  0  0  0  0  0  0  0  0  0
   18.9444   -6.8296    5.5956 C   0  0  0  0  0  0  0  0  0  0  0  0
   19.2163   -7.4659    6.8268 O   0  0  0  0  0  0  0  0  0  0  0  0
   19.4283   -5.3551    5.6799 C   0  0  0  0  0  0  0  0  0  0  0  0
   19.2430   -4.8429    6.9697 O   0  0  0  0  0  0  0  0  0  0  0  0
   18.8374   -6.9437    7.5512 H   0  0  0  0  0  0  0  0  0  0  0  0
   18.3086   -4.9214    7.2177 H   0  0  0  0  0  0  0  0  0  0  0  0
   16.7704   -7.7978    4.8935 N   0  0  0  0  0  0  0  0  0  0  0  0
   17.1952   -8.5926    3.8808 C   0  0  0  0  0  0  0  0  0  0  0  0
   16.3275   -9.6547    3.7505 C   0  0  0  0  0  0  0  0  0  0  0  0
   15.3284   -9.5134    4.6708 C   0  0  0  0  0  0  0  0  0  0  0  0
   14.1541  -10.2502    5.0485 C   0  0  0  0  0  0  0  0  0  0  0  0
   13.8529  -11.4070    4.3735 N   0  0  0  0  0  0  0  0  0  0  0  0
   13.4235   -9.7884    6.0236 N   0  0  0  0  0  0  0  0  0  0  0  0
   13.7675   -8.6341    6.6503 C   0  0  0  0  0  0  0  0  0  0  0  0
   14.8395   -7.8725    6.3785 N   0  0  0  0  0  0  0  0  0  0  0  0
   15.6098   -8.3321    5.3937 C   0  0  0  0  0  0  0  0  0  0  0  0
   14.4356  -11.7166    3.6429 H   0  0  0  0  0  0  0  0  0  0  0  0
   13.0542  -11.9271    4.6202 H   0  0  0  0  0  0  0  0  0  0  0  0
   19.1448   -4.3105    3.4339 C   0  0  0  0  0  0  0  0  0  0  0  0
   19.2750   -2.8758    3.2632 O   0  0  0  0  0  0  0  0  0  0  0  0
   20.1542   -2.2362    2.1303 P   0  0  0  0  0  0  0  0  0  0  0  0
   21.3590   -1.5939    2.7502 O   0  0  0  0  0  0  0  0  0  0  0  0
   20.4492   -3.2864    1.1171 O   0  0  0  0  0  0  0  0  0  0  0  0
   21.9070   -1.1965    2.0555 H   0  0  0  0  0  0  0  0  0  0  0  0
   19.2031   -1.1063    1.5694 O   0  0  0  0  0  0  0  0  0  0  0  0
   18.8579   -0.6253    0.0670 P   0  0  0  0  0  0  0  0  0  0  0  0
   17.4369   -0.0986    0.0735 O   0  0  0  0  0  0  0  0  0  0  0  0
   19.1506   -1.8636   -0.7977 O   0  0  0  0  0  0  0  0  0  0  0  0
   18.4589   -2.5285   -0.6549 H   0  0  0  0  0  0  0  0  0  0  0  0
   19.9437    0.4596   -0.1353 O   0  0  0  0  0  0  0  0  0  0  0  0
   18.4667    2.4288   -0.5386 O   0  0  0  0  0  0  0  0  0  0  0  0
   19.7904    2.0444    0.1377 P   0  0  0  0  0  0  0  0  0  0  0  0
   19.6837    2.1505    1.6257 O   0  0  0  0  0  0  0  0  0  0  0  0
   21.0285    2.6165   -0.4582 O   0  0  0  0  0  0  0  0  0  0  0  0
   17.7300    2.0036   -0.0723 H   0  0  0  0  0  0  0  0  0  0  0  0
   21.8001    2.3107    0.0438 H   0  0  0  0  0  0  0  0  0  0  0  0
 30 29  2  0  0  0
 26 24  2  0  0  0
 25 24  1  0  0  0
 24 28  1  0  0  0
 24 23  1  0  0  0
 29 28  1  0  0  0
 29 31  1  0  0  0
 29 33  1  0  0  0
 33 35  1  0  0  0
 36 35  2  0  0  0
 23 22  1  0  0  0
 12 11  2  0  0  0
 12 13  1  0  0  0
 15 14  1  0  0  0
 11 10  1  0  0  0
 35 37  1  0  0  0
 35 34  1  0  0  0
 13 14  2  0  0  0
 13 19  1  0  0  0
 14 16  1  0  0  0
 22  1  1  0  0  0
  2  1  1  0  0  0
  2  3  1  0  0  0
 10 19  1  0  0  0
 10  3  1  0  0  0
 19 18  2  0  0  0
 16 17  2  0  0  0
  1  6  1  0  0  0
  3  4  1  0  0  0
 18 17  1  0  0  0
  4  6  1  0  0  0
  4  5  1  0  0  0
  6  7  1  0  0  0
 34 38  1  0  0  0
 37 39  1  0  0  0
 31 32  1  0  0  0
 25 27  1  0  0  0
 15 20  1  0  0  0
 15 21  1  0  0  0
  5  8  1  0  0  0
  7  9  1  0  0  0
M  END
> <minimizedAffinity>
-10.66769

$$$$
5EXW_7DT_A_501


 39 41  0  0  0  0  0  0  0  0999 V2000
   18.4977   -4.8015    3.9599 C   0  0  0  0  0  0  0  0  0  0  0  0
   18.4038   -3.4565    3.4797 O   0  0  0  0  0  0  0  0  0  0  0  0
   18.8887   -3.4473    2.1568 C   0  0  0  0  0  0  0  0  0  0  0  0
   20.1070   -4.3930    2.1960 C   0  0  0  0  0  0  0  0  0  0  0  0
   20.4561   -4.9057    0.9273 O   0  0  0  0  0  0  0  0  0  0  0  0
   19.4880   -5.5397    3.0430 C   0  0  0  0  0  0  0  0  0  0  0  0
   18.7465   -6.4109    2.2360 O   0  0  0  0  0  0  0  0  0  0  0  0
   19.6867   -5.3460    0.5336 H   0  0  0  0  0  0  0  0  0  0  0  0
   18.0609   -5.9113    1.7656 H   0  0  0  0  0  0  0  0  0  0  0  0
   19.2927   -2.1007    1.7073 N   0  0  0  0  0  0  0  0  0  0  0  0
   20.1366   -1.2683    2.3652 C   0  0  0  0  0  0  0  0  0  0  0  0
   20.2924   -0.1143    1.6289 C   0  0  0  0  0  0  0  0  0  0  0  0
   19.5158   -0.2067    0.5093 C   0  0  0  0  0  0  0  0  0  0  0  0
   19.2358    0.6225   -0.6303 C   0  0  0  0  0  0  0  0  0  0  0  0
   19.8417    1.8511   -0.7198 N   0  0  0  0  0  0  0  0  0  0  0  0
   18.4173    0.1687   -1.5368 N   0  0  0  0  0  0  0  0  0  0  0  0
   17.8419   -1.0524   -1.3909 C   0  0  0  0  0  0  0  0  0  0  0  0
   18.0352   -1.9040   -0.3709 N   0  0  0  0  0  0  0  0  0  0  0  0
   18.8796   -1.4675    0.5624 C   0  0  0  0  0  0  0  0  0  0  0  0
   20.4534    2.1512   -0.0092 H   0  0  0  0  0  0  0  0  0  0  0  0
   19.6646    2.4320   -1.4947 H   0  0  0  0  0  0  0  0  0  0  0  0
   19.0818   -4.6773    5.3468 C   0  0  0  0  0  0  0  0  0  0  0  0
   19.3812   -5.9932    5.8791 O   0  0  0  0  0  0  0  0  0  0  0  0
   18.8493   -6.4816    7.2734 P   0  0  0  0  0  0  0  0  0  0  0  0
   19.9795   -7.1045    8.0370 O   0  0  0  0  0  0  0  0  0  0  0  0
   18.1867   -5.3331    7.9504 O   0  0  0  0  0  0  0  0  0  0  0  0
   19.6577   -7.4087    8.9000 H   0  0  0  0  0  0  0  0  0  0  0  0
   17.8255   -7.6119    6.8612 O   0  0  0  0  0  0  0  0  0  0  0  0
   16.5466   -7.6107    5.8752 P   0  0  0  0  0  0  0  0  0  0  0  0
   17.0528   -7.8881    4.4739 O   0  0  0  0  0  0  0  0  0  0  0  0
   15.8796   -6.2482    6.1309 O   0  0  0  0  0  0  0  0  0  0  0  0
   16.4175   -5.5454    5.7339 H   0  0  0  0  0  0  0  0  0  0  0  0
   15.7142   -8.7591    6.4960 O   0  0  0  0  0  0  0  0  0  0  0  0
   14.7345  -10.0933    4.6301 O   0  0  0  0  0  0  0  0  0  0  0  0
   14.3330   -9.3713    5.9242 P   0  0  0  0  0  0  0  0  0  0  0  0
   13.9040  -10.3476    6.9728 O   0  0  0  0  0  0  0  0  0  0  0  0
   13.4640   -8.1727    5.7709 O   0  0  0  0  0  0  0  0  0  0  0  0
   15.2965  -10.8541    4.8453 H   0  0  0  0  0  0  0  0  0  0  0  0
   13.2733   -7.7977    6.6450 H   0  0  0  0  0  0  0  0  0  0  0  0
 30 29  2  0  0  0
 26 24  2  0  0  0
 25 24  1  0  0  0
 24 28  1  0  0  0
 24 23  1  0  0  0
 29 28  1  0  0  0
 29 31  1  0  0  0
 29 33  1  0  0  0
 33 35  1  0  0  0
 36 35  2  0  0  0
 23 22  1  0  0  0
 12 11  2  0  0  0
 12 13  1  0  0  0
 15 14  1  0  0  0
 11 10  1  0  0  0
 35 37  1  0  0  0
 35 34  1  0  0  0
 13 14  2  0  0  0
 13 19  1  0  0  0
 14 16  1  0  0  0
 22  1  1  0  0  0
  2  1  1  0  0  0
  2  3  1  0  0  0
 10 19  1  0  0  0
 10  3  1  0  0  0
 19 18  2  0  0  0
 16 17  2  0  0  0
  1  6  1  0  0  0
  3  4  1  0  0  0
 18 17  1  0  0  0
  4  6  1  0  0  0
  4  5  1  0  0  0
  6  7  1  0  0  0
 34 38  1  0  0  0
 37 39  1  0  0  0
 31 32  1  0  0  0
 25 27  1  0  0  0
 15 20  1  0  0  0
 15 21  1  0  0  0
  5  8  1  0  0  0
  7  9  1  0  0  0
M  END
> <minimizedAffinity>
-10.47982

$$$$
5EXW_7DT_A_501


 39 41  0  0  0  0  0  0  0  0999 V2000
   19.1398   -3.9157    1.7862 C   0  0  0  0  0  0  0  0  0  0  0  0
   18.4372   -2.7093    1.4713 O   0  0  0  0  0  0  0  0  0  0  0  0
   19.0260   -2.1703    0.3102 C   0  0  0  0  0  0  0  0  0  0  0  0
   20.5378   -2.4017    0.5130 C   0  0  0  0  0  0  0  0  0  0  0  0
   21.2716   -2.3830   -0.6935 O   0  0  0  0  0  0  0  0  0  0  0  0
   20.4841   -3.8627    1.0402 C   0  0  0  0  0  0  0  0  0  0  0  0
   20.4136   -4.7731   -0.0211 O   0  0  0  0  0  0  0  0  0  0  0  0
   20.8996   -3.0344   -1.3083 H   0  0  0  0  0  0  0  0  0  0  0  0
   19.6414   -4.5689   -0.5716 H   0  0  0  0  0  0  0  0  0  0  0  0
   18.7403   -0.7321    0.1414 N   0  0  0  0  0  0  0  0  0  0  0  0
   18.3415   -0.1356   -1.0087 C   0  0  0  0  0  0  0  0  0  0  0  0
   18.1501    1.2083   -0.7736 C   0  0  0  0  0  0  0  0  0  0  0  0
   18.4597    1.4683    0.5309 C   0  0  0  0  0  0  0  0  0  0  0  0
   18.4710    2.6246    1.3839 C   0  0  0  0  0  0  0  0  0  0  0  0
   18.1031    3.8383    0.8585 N   0  0  0  0  0  0  0  0  0  0  0  0
   18.8282    2.4700    2.6274 N   0  0  0  0  0  0  0  0  0  0  0  0
   19.1889    1.2453    3.0895 C   0  0  0  0  0  0  0  0  0  0  0  0
   19.2118    0.1048    2.3811 N   0  0  0  0  0  0  0  0  0  0  0  0
   18.8370    0.2354    1.1095 C   0  0  0  0  0  0  0  0  0  0  0  0
   17.8407    3.9058   -0.0880 H   0  0  0  0  0  0  0  0  0  0  0  0
   18.1016    4.6412    1.4283 H   0  0  0  0  0  0  0  0  0  0  0  0
   19.3797   -3.8464    3.2754 C   0  0  0  0  0  0  0  0  0  0  0  0
   18.4620   -4.7311    3.9679 O   0  0  0  0  0  0  0  0  0  0  0  0
   18.6177   -6.2935    3.9477 P   0  0  0  0  0  0  0  0  0  0  0  0
   18.3151   -6.7972    2.5681 O   0  0  0  0  0  0  0  0  0  0  0  0
   19.9720   -6.6360    4.4623 O   0  0  0  0  0  0  0  0  0  0  0  0
   18.4094   -7.7624    2.5484 H   0  0  0  0  0  0  0  0  0  0  0  0
   17.4657   -6.7550    4.9253 O   0  0  0  0  0  0  0  0  0  0  0  0
   17.0228   -6.2519    6.3944 P   0  0  0  0  0  0  0  0  0  0  0  0
   15.6709   -6.8665    6.6970 O   0  0  0  0  0  0  0  0  0  0  0  0
   17.0991   -4.7181    6.3023 O   0  0  0  0  0  0  0  0  0  0  0  0
   16.3609   -4.3893    5.7659 H   0  0  0  0  0  0  0  0  0  0  0  0
   18.1881   -6.8135    7.2451 O   0  0  0  0  0  0  0  0  0  0  0  0
   19.7645   -4.9192    6.8600 O   0  0  0  0  0  0  0  0  0  0  0  0
   19.3904   -5.9689    7.9162 P   0  0  0  0  0  0  0  0  0  0  0  0
   18.7630   -5.3269    9.1125 O   0  0  0  0  0  0  0  0  0  0  0  0
   20.4161   -7.0065    8.2102 O   0  0  0  0  0  0  0  0  0  0  0  0
   19.0291   -4.2967    6.7482 H   0  0  0  0  0  0  0  0  0  0  0  0
   20.0774   -7.6135    8.8868 H   0  0  0  0  0  0  0  0  0  0  0  0
 30 29  2  0  0  0
 26 24  2  0  0  0
 25 24  1  0  0  0
 24 28  1  0  0  0
 24 23  1  0  0  0
 29 28  1  0  0  0
 29 31  1  0  0  0
 29 33  1  0  0  0
 33 35  1  0  0  0
 36 35  2  0  0  0
 23 22  1  0  0  0
 12 11  2  0  0  0
 12 13  1  0  0  0
 15 14  1  0  0  0
 11 10  1  0  0  0
 35 37  1  0  0  0
 35 34  1  0  0  0
 13 14  2  0  0  0
 13 19  1  0  0  0
 14 16  1  0  0  0
 22  1  1  0  0  0
  2  1  1  0  0  0
  2  3  1  0  0  0
 10 19  1  0  0  0
 10  3  1  0  0  0
 19 18  2  0  0  0
 16 17  2  0  0  0
  1  6  1  0  0  0
  3  4  1  0  0  0
 18 17  1  0  0  0
  4  6  1  0  0  0
  4  5  1  0  0  0
  6  7  1  0  0  0
 34 38  1  0  0  0
 37 39  1  0  0  0
 31 32  1  0  0  0
 25 27  1  0  0  0
 15 20  1  0  0  0
 15 21  1  0  0  0
  5  8  1  0  0  0
  7  9  1  0  0  0
M  END
> <minimizedAffinity>
-10.44788

$$$$
5EXW_7DT_A_501


 39 41  0  0  0  0  0  0  0  0999 V2000
   18.9054   -4.1723    2.3964 C   0  0  0  0  0  0  0  0  0  0  0  0
   18.2374   -2.9956    1.9301 O   0  0  0  0  0  0  0  0  0  0  0  0
   18.8808   -2.5884    0.7446 C   0  0  0  0  0  0  0  0  0  0  0  0
   20.3791   -2.8181    1.0318 C   0  0  0  0  0  0  0  0  0  0  0  0
   21.1599   -2.9351   -0.1392 O   0  0  0  0  0  0  0  0  0  0  0  0
   20.2786   -4.2156    1.7045 C   0  0  0  0  0  0  0  0  0  0  0  0
   20.2335   -5.2304    0.7409 O   0  0  0  0  0  0  0  0  0  0  0  0
   20.8006   -3.6418   -0.6982 H   0  0  0  0  0  0  0  0  0  0  0  0
   19.4872   -5.0739    0.1413 H   0  0  0  0  0  0  0  0  0  0  0  0
   18.6277   -1.1717    0.4165 N   0  0  0  0  0  0  0  0  0  0  0  0
   18.1727   -0.7052   -0.7722 C   0  0  0  0  0  0  0  0  0  0  0  0
   18.0372    0.6636   -0.6943 C   0  0  0  0  0  0  0  0  0  0  0  0
   18.4389    1.0687    0.5466 C   0  0  0  0  0  0  0  0  0  0  0  0
   18.5404    2.3191    1.2473 C   0  0  0  0  0  0  0  0  0  0  0  0
   18.1754    3.4727    0.5990 N   0  0  0  0  0  0  0  0  0  0  0  0
   18.9733    2.3038    2.4762 N   0  0  0  0  0  0  0  0  0  0  0  0
   19.3267    1.1319    3.0637 C   0  0  0  0  0  0  0  0  0  0  0  0
   19.2693   -0.0864    2.5021 N   0  0  0  0  0  0  0  0  0  0  0  0
   18.8163   -0.0978    1.2494 C   0  0  0  0  0  0  0  0  0  0  0  0
   17.8539    3.4342   -0.3308 H   0  0  0  0  0  0  0  0  0  0  0  0
   18.2350    4.3385    1.0637 H   0  0  0  0  0  0  0  0  0  0  0  0
   19.0880   -3.9517    3.8790 C   0  0  0  0  0  0  0  0  0  0  0  0
   17.8886   -4.3495    4.5916 O   0  0  0  0  0  0  0  0  0  0  0  0
   17.9077   -5.4034    5.7554 P   0  0  0  0  0  0  0  0  0  0  0  0
   19.3150   -5.8778    5.9623 O   0  0  0  0  0  0  0  0  0  0  0  0
   17.2648   -4.7925    6.9512 O   0  0  0  0  0  0  0  0  0  0  0  0
   19.3342   -6.5296    6.6804 H   0  0  0  0  0  0  0  0  0  0  0  0
   17.0531   -6.5851    5.1479 O   0  0  0  0  0  0  0  0  0  0  0  0
   16.7127   -8.0679    5.6891 P   0  0  0  0  0  0  0  0  0  0  0  0
   15.2428   -8.0910    6.0576 O   0  0  0  0  0  0  0  0  0  0  0  0
   17.7304   -8.2951    6.8202 O   0  0  0  0  0  0  0  0  0  0  0  0
   17.4838   -7.7583    7.5896 H   0  0  0  0  0  0  0  0  0  0  0  0
   17.0750   -8.9105    4.4417 O   0  0  0  0  0  0  0  0  0  0  0  0
   18.2196   -7.4607    2.7655 O   0  0  0  0  0  0  0  0  0  0  0  0
   18.4060   -8.7753    3.5363 P   0  0  0  0  0  0  0  0  0  0  0  0
   19.5157   -8.6610    4.5324 O   0  0  0  0  0  0  0  0  0  0  0  0
   18.3982  -10.0240    2.7265 O   0  0  0  0  0  0  0  0  0  0  0  0
   18.2408   -6.7159    3.3867 H   0  0  0  0  0  0  0  0  0  0  0  0
   18.5228  -10.7887    3.3101 H   0  0  0  0  0  0  0  0  0  0  0  0
 30 29  2  0  0  0
 26 24  2  0  0  0
 25 24  1  0  0  0
 24 28  1  0  0  0
 24 23  1  0  0  0
 29 28  1  0  0  0
 29 31  1  0  0  0
 29 33  1  0  0  0
 33 35  1  0  0  0
 36 35  2  0  0  0
 23 22  1  0  0  0
 12 11  2  0  0  0
 12 13  1  0  0  0
 15 14  1  0  0  0
 11 10  1  0  0  0
 35 37  1  0  0  0
 35 34  1  0  0  0
 13 14  2  0  0  0
 13 19  1  0  0  0
 14 16  1  0  0  0
 22  1  1  0  0  0
  2  1  1  0  0  0
  2  3  1  0  0  0
 10 19  1  0  0  0
 10  3  1  0  0  0
 19 18  2  0  0  0
 16 17  2  0  0  0
  1  6  1  0  0  0
  3  4  1  0  0  0
 18 17  1  0  0  0
  4  6  1  0  0  0
  4  5  1  0  0  0
  6  7  1  0  0  0
 34 38  1  0  0  0
 37 39  1  0  0  0
 31 32  1  0  0  0
 25 27  1  0  0  0
 15 20  1  0  0  0
 15 21  1  0  0  0
  5  8  1  0  0  0
  7  9  1  0  0  0
M  END
> <minimizedAffinity>
-10.30848

$$$$
5EXW_7DT_A_501


 39 41  0  0  0  0  0  0  0  0999 V2000
   19.4193   -1.8273    1.9081 C   0  0  0  0  0  0  0  0  0  0  0  0
   19.0346   -2.4707    3.1272 O   0  0  0  0  0  0  0  0  0  0  0  0
   19.4901   -3.8025    3.0620 C   0  0  0  0  0  0  0  0  0  0  0  0
   19.2186   -4.2218    1.6023 C   0  0  0  0  0  0  0  0  0  0  0  0
   20.0060   -5.3157    1.1806 O   0  0  0  0  0  0  0  0  0  0  0  0
   19.7278   -2.9380    0.8896 C   0  0  0  0  0  0  0  0  0  0  0  0
   21.1169   -2.9802    0.7195 O   0  0  0  0  0  0  0  0  0  0  0  0
   20.9443   -5.1092    1.3142 H   0  0  0  0  0  0  0  0  0  0  0  0
   21.5449   -3.0972    1.5820 H   0  0  0  0  0  0  0  0  0  0  0  0
   18.7786   -4.6947    3.9980 N   0  0  0  0  0  0  0  0  0  0  0  0
   17.6902   -4.3613    4.7342 C   0  0  0  0  0  0  0  0  0  0  0  0
   17.2926   -5.4573    5.4681 C   0  0  0  0  0  0  0  0  0  0  0  0
   18.1565   -6.4845    5.2153 C   0  0  0  0  0  0  0  0  0  0  0  0
   18.2980   -7.8495    5.6411 C   0  0  0  0  0  0  0  0  0  0  0  0
   17.3942   -8.3598    6.5396 N   0  0  0  0  0  0  0  0  0  0  0  0
   19.2813   -8.5496    5.1504 N   0  0  0  0  0  0  0  0  0  0  0  0
   20.1491   -7.9888    4.2696 C   0  0  0  0  0  0  0  0  0  0  0  0
   20.1067   -6.7290    3.8066 N   0  0  0  0  0  0  0  0  0  0  0  0
   19.1010   -5.9974    4.2839 C   0  0  0  0  0  0  0  0  0  0  0  0
   16.6671   -7.7917    6.8829 H   0  0  0  0  0  0  0  0  0  0  0  0
   17.4731   -9.2938    6.8406 H   0  0  0  0  0  0  0  0  0  0  0  0
   18.1936   -1.0609    1.4717 C   0  0  0  0  0  0  0  0  0  0  0  0
   18.3860   -0.5375    0.1324 O   0  0  0  0  0  0  0  0  0  0  0  0
   19.2146    0.7650   -0.1546 P   0  0  0  0  0  0  0  0  0  0  0  0
   20.6671    0.4075   -0.2589 O   0  0  0  0  0  0  0  0  0  0  0  0
   18.6400    1.4304   -1.3560 O   0  0  0  0  0  0  0  0  0  0  0  0
   21.1852    1.2081   -0.4363 H   0  0  0  0  0  0  0  0  0  0  0  0
   18.9868    1.6017    1.1659 O   0  0  0  0  0  0  0  0  0  0  0  0
   19.7361    2.8970    1.7727 P   0  0  0  0  0  0  0  0  0  0  0  0
   18.6717    3.9226    2.1076 O   0  0  0  0  0  0  0  0  0  0  0  0
   20.7664    3.2717    0.6935 O   0  0  0  0  0  0  0  0  0  0  0  0
   20.3098    3.6640   -0.0671 H   0  0  0  0  0  0  0  0  0  0  0  0
   20.4302    2.2666    3.0047 O   0  0  0  0  0  0  0  0  0  0  0  0
   20.2531    0.0925    4.2146 O   0  0  0  0  0  0  0  0  0  0  0  0
   19.7103    1.5284    4.2482 P   0  0  0  0  0  0  0  0  0  0  0  0
   20.2117    2.2638    5.4501 O   0  0  0  0  0  0  0  0  0  0  0  0
   18.2610    1.6950    3.9538 O   0  0  0  0  0  0  0  0  0  0  0  0
   21.2012    0.1004    4.4194 H   0  0  0  0  0  0  0  0  0  0  0  0
   18.0273    2.6352    4.0020 H   0  0  0  0  0  0  0  0  0  0  0  0
 30 29  2  0  0  0
 26 24  2  0  0  0
 25 24  1  0  0  0
 24 28  1  0  0  0
 24 23  1  0  0  0
 29 28  1  0  0  0
 29 31  1  0  0  0
 29 33  1  0  0  0
 33 35  1  0  0  0
 36 35  2  0  0  0
 23 22  1  0  0  0
 12 11  2  0  0  0
 12 13  1  0  0  0
 15 14  1  0  0  0
 11 10  1  0  0  0
 35 37  1  0  0  0
 35 34  1  0  0  0
 13 14  2  0  0  0
 13 19  1  0  0  0
 14 16  1  0  0  0
 22  1  1  0  0  0
  2  1  1  0  0  0
  2  3  1  0  0  0
 10 19  1  0  0  0
 10  3  1  0  0  0
 19 18  2  0  0  0
 16 17  2  0  0  0
  1  6  1  0  0  0
  3  4  1  0  0  0
 18 17  1  0  0  0
  4  6  1  0  0  0
  4  5  1  0  0  0
  6  7  1  0  0  0
 34 38  1  0  0  0
 37 39  1  0  0  0
 31 32  1  0  0  0
 25 27  1  0  0  0
 15 20  1  0  0  0
 15 21  1  0  0  0
  5  8  1  0  0  0
  7  9  1  0  0  0
M  END
> <minimizedAffinity>
-10.24301

$$$$
5EXW_7DT_A_501


 39 41  0  0  0  0  0  0  0  0999 V2000
   18.1315   -4.9911    4.2766 C   0  0  0  0  0  0  0  0  0  0  0  0
   18.6118   -6.1877    3.6555 O   0  0  0  0  0  0  0  0  0  0  0  0
   18.4638   -7.2340    4.5876 C   0  0  0  0  0  0  0  0  0  0  0  0
   18.8652   -6.5976    5.9344 C   0  0  0  0  0  0  0  0  0  0  0  0
   18.3518   -7.2898    7.0533 O   0  0  0  0  0  0  0  0  0  0  0  0
   18.1068   -5.2484    5.7930 C   0  0  0  0  0  0  0  0  0  0  0  0
   16.7671   -5.3874    6.1754 O   0  0  0  0  0  0  0  0  0  0  0  0
   17.3875   -7.3600    6.9755 H   0  0  0  0  0  0  0  0  0  0  0  0
   16.3496   -6.0832    5.6438 H   0  0  0  0  0  0  0  0  0  0  0  0
   19.3262   -8.3930    4.2850 N   0  0  0  0  0  0  0  0  0  0  0  0
   20.5854   -8.5835    4.7496 C   0  0  0  0  0  0  0  0  0  0  0  0
   21.0614   -9.7858    4.2745 C   0  0  0  0  0  0  0  0  0  0  0  0
   20.1042  -10.3463    3.4777 C   0  0  0  0  0  0  0  0  0  0  0  0
   19.9712  -11.5519    2.7073 C   0  0  0  0  0  0  0  0  0  0  0  0
   21.0165  -12.4414    2.6844 N   0  0  0  0  0  0  0  0  0  0  0  0
   18.8565  -11.7521    2.0631 N   0  0  0  0  0  0  0  0  0  0  0  0
   17.8590  -10.8325    2.1173 C   0  0  0  0  0  0  0  0  0  0  0  0
   17.8793   -9.6793    2.8049 N   0  0  0  0  0  0  0  0  0  0  0  0
   19.0043   -9.4590    3.4833 C   0  0  0  0  0  0  0  0  0  0  0  0
   21.8399  -12.2465    3.1877 H   0  0  0  0  0  0  0  0  0  0  0  0
   20.9427  -13.2744    2.1647 H   0  0  0  0  0  0  0  0  0  0  0  0
   19.1703   -3.9438    3.9537 C   0  0  0  0  0  0  0  0  0  0  0  0
   19.1474   -3.6426    2.5349 O   0  0  0  0  0  0  0  0  0  0  0  0
   19.9732   -2.4632    1.9082 P   0  0  0  0  0  0  0  0  0  0  0  0
   21.0798   -2.0878    2.8478 O   0  0  0  0  0  0  0  0  0  0  0  0
   20.4127   -2.8714    0.5456 O   0  0  0  0  0  0  0  0  0  0  0  0
   21.5944   -1.3592    2.4666 H   0  0  0  0  0  0  0  0  0  0  0  0
   18.9109   -1.2943    1.8751 O   0  0  0  0  0  0  0  0  0  0  0  0
   19.0460    0.2866    1.5753 P   0  0  0  0  0  0  0  0  0  0  0  0
   17.9083    0.6730    0.6515 O   0  0  0  0  0  0  0  0  0  0  0  0
   20.4791    0.4435    1.0383 O   0  0  0  0  0  0  0  0  0  0  0  0
   20.5291    0.0818    0.1397 H   0  0  0  0  0  0  0  0  0  0  0  0
   18.9282    0.8542    3.0109 O   0  0  0  0  0  0  0  0  0  0  0  0
   20.3953    2.8609    3.2166 O   0  0  0  0  0  0  0  0  0  0  0  0
   20.1123    1.5113    3.8916 P   0  0  0  0  0  0  0  0  0  0  0  0
   19.4994    1.7045    5.2421 O   0  0  0  0  0  0  0  0  0  0  0  0
   21.1974    0.4951    3.8200 O   0  0  0  0  0  0  0  0  0  0  0  0
   19.6268    3.4432    3.3231 H   0  0  0  0  0  0  0  0  0  0  0  0
   20.9139   -0.3132    4.2752 H   0  0  0  0  0  0  0  0  0  0  0  0
 30 29  2  0  0  0
 26 24  2  0  0  0
 25 24  1  0  0  0
 24 28  1  0  0  0
 24 23  1  0  0  0
 29 28  1  0  0  0
 29 31  1  0  0  0
 29 33  1  0  0  0
 33 35  1  0  0  0
 36 35  2  0  0  0
 23 22  1  0  0  0
 12 11  2  0  0  0
 12 13  1  0  0  0
 15 14  1  0  0  0
 11 10  1  0  0  0
 35 37  1  0  0  0
 35 34  1  0  0  0
 13 14  2  0  0  0
 13 19  1  0  0  0
 14 16  1  0  0  0
 22  1  1  0  0  0
  2  1  1  0  0  0
  2  3  1  0  0  0
 10 19  1  0  0  0
 10  3  1  0  0  0
 19 18  2  0  0  0
 16 17  2  0  0  0
  1  6  1  0  0  0
  3  4  1  0  0  0
 18 17  1  0  0  0
  4  6  1  0  0  0
  4  5  1  0  0  0
  6  7  1  0  0  0
 34 38  1  0  0  0
 37 39  1  0  0  0
 31 32  1  0  0  0
 25 27  1  0  0  0
 15 20  1  0  0  0
 15 21  1  0  0  0
  5  8  1  0  0  0
  7  9  1  0  0  0
M  END
> <minimizedAffinity>
-10.06657

$$$$
5EXW_7DT_A_501


 39 41  0  0  0  0  0  0  0  0999 V2000
   18.5717   -4.9236    5.6227 C   0  0  0  0  0  0  0  0  0  0  0  0
   17.6028   -5.7568    4.9782 O   0  0  0  0  0  0  0  0  0  0  0  0
   17.2210   -6.7499    5.9019 C   0  0  0  0  0  0  0  0  0  0  0  0
   18.5392   -7.1385    6.6029 C   0  0  0  0  0  0  0  0  0  0  0  0
   18.3428   -7.7480    7.8616 O   0  0  0  0  0  0  0  0  0  0  0  0
   19.1172   -5.7130    6.8250 C   0  0  0  0  0  0  0  0  0  0  0  0
   18.5865   -5.1352    7.9847 O   0  0  0  0  0  0  0  0  0  0  0  0
   17.8090   -7.1647    8.4236 H   0  0  0  0  0  0  0  0  0  0  0  0
   17.6186   -5.1169    7.9230 H   0  0  0  0  0  0  0  0  0  0  0  0
   16.6126   -7.9279    5.2532 N   0  0  0  0  0  0  0  0  0  0  0  0
   17.1024   -8.5718    4.1656 C   0  0  0  0  0  0  0  0  0  0  0  0
   16.2796   -9.6354    3.8660 C   0  0  0  0  0  0  0  0  0  0  0  0
   15.2433   -9.6454    4.7556 C   0  0  0  0  0  0  0  0  0  0  0  0
   14.0840  -10.4616    4.9885 C   0  0  0  0  0  0  0  0  0  0  0  0
   13.8499  -11.5309    4.1601 N   0  0  0  0  0  0  0  0  0  0  0  0
   13.3023  -10.1525    5.9841 N   0  0  0  0  0  0  0  0  0  0  0  0
   13.5809   -9.0782    6.7661 C   0  0  0  0  0  0  0  0  0  0  0  0
   14.6334   -8.2543    6.6372 N   0  0  0  0  0  0  0  0  0  0  0  0
   15.4550   -8.5587    5.6338 C   0  0  0  0  0  0  0  0  0  0  0  0
   14.4696  -11.7252    3.4201 H   0  0  0  0  0  0  0  0  0  0  0  0
   13.0625  -12.1035    4.3059 H   0  0  0  0  0  0  0  0  0  0  0  0
   19.6642   -4.7363    4.5973 C   0  0  0  0  0  0  0  0  0  0  0  0
   19.0839   -4.4263    3.3044 O   0  0  0  0  0  0  0  0  0  0  0  0
   19.1741   -2.9979    2.6584 P   0  0  0  0  0  0  0  0  0  0  0  0
   17.7925   -2.5310    2.3096 O   0  0  0  0  0  0  0  0  0  0  0  0
   19.9250   -2.1100    3.5880 O   0  0  0  0  0  0  0  0  0  0  0  0
   17.8408   -1.6485    1.9098 H   0  0  0  0  0  0  0  0  0  0  0  0
   19.9693   -3.2860    1.3242 O   0  0  0  0  0  0  0  0  0  0  0  0
   20.3228   -2.3594    0.0499 P   0  0  0  0  0  0  0  0  0  0  0  0
   21.1704   -3.1885   -0.8941 O   0  0  0  0  0  0  0  0  0  0  0  0
   20.9686   -1.1068    0.6670 O   0  0  0  0  0  0  0  0  0  0  0  0
   21.8579   -1.3256    0.9866 H   0  0  0  0  0  0  0  0  0  0  0  0
   18.8990   -2.0473   -0.4721 O   0  0  0  0  0  0  0  0  0  0  0  0
   19.5262    0.2832   -1.1022 O   0  0  0  0  0  0  0  0  0  0  0  0
   18.2951   -0.5908   -0.8233 P   0  0  0  0  0  0  0  0  0  0  0  0
   17.5021   -0.8151   -2.0714 O   0  0  0  0  0  0  0  0  0  0  0  0
   17.5005   -0.2478    0.3875 O   0  0  0  0  0  0  0  0  0  0  0  0
   19.9665   -0.0265   -1.9091 H   0  0  0  0  0  0  0  0  0  0  0  0
   16.7516   -0.8591    0.4667 H   0  0  0  0  0  0  0  0  0  0  0  0
 30 29  2  0  0  0
 26 24  2  0  0  0
 25 24  1  0  0  0
 24 28  1  0  0  0
 24 23  1  0  0  0
 29 28  1  0  0  0
 29 31  1  0  0  0
 29 33  1  0  0  0
 33 35  1  0  0  0
 36 35  2  0  0  0
 23 22  1  0  0  0
 12 11  2  0  0  0
 12 13  1  0  0  0
 15 14  1  0  0  0
 11 10  1  0  0  0
 35 37  1  0  0  0
 35 34  1  0  0  0
 13 14  2  0  0  0
 13 19  1  0  0  0
 14 16  1  0  0  0
 22  1  1  0  0  0
  2  1  1  0  0  0
  2  3  1  0  0  0
 10 19  1  0  0  0
 10  3  1  0  0  0
 19 18  2  0  0  0
 16 17  2  0  0  0
  1  6  1  0  0  0
  3  4  1  0  0  0
 18 17  1  0  0  0
  4  6  1  0  0  0
  4  5  1  0  0  0
  6  7  1  0  0  0
 34 38  1  0  0  0
 37 39  1  0  0  0
 31 32  1  0  0  0
 25 27  1  0  0  0
 15 20  1  0  0  0
 15 21  1  0  0  0
  5  8  1  0  0  0
  7  9  1  0  0  0
M  END
> <minimizedAffinity>
-10.02906

$$$$
