5CP9_6O5_B_301


 11 11  0  0  0  0  0  0  0  0999 V2000
   -1.2930   25.2892  -10.2460 C   0  0  0  0  0  0  0  0  0  0  0  0
   -2.3683   27.6003  -10.0369 C   0  0  0  0  0  0  0  0  0  0  0  0
   -3.1767   28.3507  -10.7810 C   0  0  0  0  0  0  0  0  0  0  0  0
   -3.4687   27.6918  -11.9000 C   0  0  0  0  0  0  0  0  0  0  0  0
   -2.8221   26.4858  -11.8685 O   0  0  0  0  0  0  0  0  0  0  0  0
   -2.1470   26.4655  -10.6869 C   0  0  0  0  0  0  0  0  0  0  0  0
   -1.0934   25.3134   -8.7376 C   0  0  0  0  0  0  0  0  0  0  0  0
   -0.4959   23.9902   -8.2656 C   0  0  0  0  0  0  0  0  0  0  0  0
   -0.4343   23.8149   -7.0304 O   0  0  0  0  0  0  0  0  0  0  0  0
   -0.1226   23.1882   -9.1525 O   0  0  0  0  0  0  0  0  0  0  0  0
   -0.7419   24.4804   -6.4468 H   0  0  0  0  0  0  0  0  0  0  0  0
 10  8  2  0  0  0
  8  9  1  0  0  0
  8  7  1  0  0  0
  7  1  1  0  0  0
  1  6  1  0  0  0
  2  6  2  0  0  0
  2  3  1  0  0  0
  6  5  1  0  0  0
  3  4  2  0  0  0
  5  4  1  0  0  0
  9 11  1  0  0  0
M  END
> <minimizedAffinity>
-5.20554

$$$$
5CP9_6O5_B_301


 11 11  0  0  0  0  0  0  0  0999 V2000
   -3.8440   29.7226  -11.2000 C   0  0  0  0  0  0  0  0  0  0  0  0
   -2.5185   27.8027  -10.1520 C   0  0  0  0  0  0  0  0  0  0  0  0
   -2.1773   26.5677  -10.5102 C   0  0  0  0  0  0  0  0  0  0  0  0
   -2.6720   26.3170  -11.7202 C   0  0  0  0  0  0  0  0  0  0  0  0
   -3.3531   27.4266  -12.1431 O   0  0  0  0  0  0  0  0  0  0  0  0
   -3.2317   28.3338  -11.1360 C   0  0  0  0  0  0  0  0  0  0  0  0
   -5.2440   29.6592  -11.7931 C   0  0  0  0  0  0  0  0  0  0  0  0
   -5.4320   30.7766  -12.8161 C   0  0  0  0  0  0  0  0  0  0  0  0
   -4.5150   30.9294  -13.6505 O   0  0  0  0  0  0  0  0  0  0  0  0
   -6.4896   31.4435  -12.7395 O   0  0  0  0  0  0  0  0  0  0  0  0
   -3.7599   30.3753  -13.6234 H   0  0  0  0  0  0  0  0  0  0  0  0
 10  8  2  0  0  0
  8  9  1  0  0  0
  8  7  1  0  0  0
  7  1  1  0  0  0
  1  6  1  0  0  0
  2  6  2  0  0  0
  2  3  1  0  0  0
  6  5  1  0  0  0
  3  4  2  0  0  0
  5  4  1  0  0  0
  9 11  1  0  0  0
M  END
> <minimizedAffinity>
-5.10146

$$$$
5CP9_6O5_B_301


 11 11  0  0  0  0  0  0  0  0999 V2000
   -2.5803   28.1046  -10.2634 C   0  0  0  0  0  0  0  0  0  0  0  0
   -4.1048   29.8315  -11.3748 C   0  0  0  0  0  0  0  0  0  0  0  0
   -5.3149   29.8248  -11.9278 C   0  0  0  0  0  0  0  0  0  0  0  0
   -5.8128   28.5922  -11.8619 C   0  0  0  0  0  0  0  0  0  0  0  0
   -4.8881   27.7885  -11.2514 O   0  0  0  0  0  0  0  0  0  0  0  0
   -3.8358   28.6007  -10.9600 C   0  0  0  0  0  0  0  0  0  0  0  0
   -2.3188   26.6472  -10.6143 C   0  0  0  0  0  0  0  0  0  0  0  0
   -1.4511   25.9960   -9.5402 C   0  0  0  0  0  0  0  0  0  0  0  0
   -2.0507   25.5053   -8.5603 O   0  0  0  0  0  0  0  0  0  0  0  0
   -0.2131   26.0014   -9.7309 O   0  0  0  0  0  0  0  0  0  0  0  0
   -2.9852   25.5532   -8.5109 H   0  0  0  0  0  0  0  0  0  0  0  0
 10  8  2  0  0  0
  8  9  1  0  0  0
  8  7  1  0  0  0
  7  1  1  0  0  0
  1  6  1  0  0  0
  2  6  2  0  0  0
  2  3  1  0  0  0
  6  5  1  0  0  0
  3  4  2  0  0  0
  5  4  1  0  0  0
  9 11  1  0  0  0
M  END
> <minimizedAffinity>
-5.09323

$$$$
5CP9_6O5_B_301


 11 11  0  0  0  0  0  0  0  0999 V2000
   -2.1885   26.4888  -10.6181 C   0  0  0  0  0  0  0  0  0  0  0  0
    0.0666   26.0653   -9.4883 C   0  0  0  0  0  0  0  0  0  0  0  0
    0.5041   25.3267   -8.4719 C   0  0  0  0  0  0  0  0  0  0  0  0
   -0.5233   24.6634   -7.9465 C   0  0  0  0  0  0  0  0  0  0  0  0
   -1.6510   24.9942   -8.6485 O   0  0  0  0  0  0  0  0  0  0  0  0
   -1.2402   25.8707   -9.6051 C   0  0  0  0  0  0  0  0  0  0  0  0
   -2.5417   27.9130  -10.2151 C   0  0  0  0  0  0  0  0  0  0  0  0
   -3.9882   28.2223  -10.5926 C   0  0  0  0  0  0  0  0  0  0  0  0
   -4.1856   29.2813  -11.2251 O   0  0  0  0  0  0  0  0  0  0  0  0
   -4.8559   27.3890  -10.2437 O   0  0  0  0  0  0  0  0  0  0  0  0
   -3.4648   29.8405  -11.4391 H   0  0  0  0  0  0  0  0  0  0  0  0
 10  8  2  0  0  0
  8  9  1  0  0  0
  8  7  1  0  0  0
  7  1  1  0  0  0
  1  6  1  0  0  0
  2  6  2  0  0  0
  2  3  1  0  0  0
  6  5  1  0  0  0
  3  4  2  0  0  0
  5  4  1  0  0  0
  9 11  1  0  0  0
M  END
> <minimizedAffinity>
-5.02021

$$$$
5CP9_6O5_B_301


 11 11  0  0  0  0  0  0  0  0999 V2000
   -4.2746   27.8603  -10.4006 C   0  0  0  0  0  0  0  0  0  0  0  0
   -4.2465   30.0333  -11.7491 C   0  0  0  0  0  0  0  0  0  0  0  0
   -5.0836   30.6602  -12.5715 C   0  0  0  0  0  0  0  0  0  0  0  0
   -6.1954   29.9379  -12.6889 C   0  0  0  0  0  0  0  0  0  0  0  0
   -6.0592   28.8136  -11.9200 O   0  0  0  0  0  0  0  0  0  0  0  0
   -4.8287   28.9115  -11.3469 C   0  0  0  0  0  0  0  0  0  0  0  0
   -2.7531   27.8789  -10.4181 C   0  0  0  0  0  0  0  0  0  0  0  0
   -2.2078   26.4749  -10.1685 C   0  0  0  0  0  0  0  0  0  0  0  0
   -2.0787   25.7403  -11.1705 O   0  0  0  0  0  0  0  0  0  0  0  0
   -1.9298   26.1768   -8.9841 O   0  0  0  0  0  0  0  0  0  0  0  0
   -2.3167   26.0589  -12.0189 H   0  0  0  0  0  0  0  0  0  0  0  0
 10  8  2  0  0  0
  8  9  1  0  0  0
  8  7  1  0  0  0
  7  1  1  0  0  0
  1  6  1  0  0  0
  2  6  2  0  0  0
  2  3  1  0  0  0
  6  5  1  0  0  0
  3  4  2  0  0  0
  5  4  1  0  0  0
  9 11  1  0  0  0
M  END
> <minimizedAffinity>
-4.97119

$$$$
5CP9_6O5_B_301


 11 11  0  0  0  0  0  0  0  0999 V2000
   -4.4329   29.5506  -10.8960 C   0  0  0  0  0  0  0  0  0  0  0  0
   -5.8843   30.6505  -12.6919 C   0  0  0  0  0  0  0  0  0  0  0  0
   -5.9413   30.6306  -14.0210 C   0  0  0  0  0  0  0  0  0  0  0  0
   -4.9868   29.8257  -14.4821 C   0  0  0  0  0  0  0  0  0  0  0  0
   -4.2982   29.3208  -13.4122 O   0  0  0  0  0  0  0  0  0  0  0  0
   -4.8910   29.8582  -12.3114 C   0  0  0  0  0  0  0  0  0  0  0  0
   -3.1546   28.7253  -10.9189 C   0  0  0  0  0  0  0  0  0  0  0  0
   -3.4273   27.3200  -10.3883 C   0  0  0  0  0  0  0  0  0  0  0  0
   -4.3403   26.6789  -10.9502 O   0  0  0  0  0  0  0  0  0  0  0  0
   -2.7119   26.9233   -9.4397 O   0  0  0  0  0  0  0  0  0  0  0  0
   -4.8199   27.0671  -11.6554 H   0  0  0  0  0  0  0  0  0  0  0  0
 10  8  2  0  0  0
  8  9  1  0  0  0
  8  7  1  0  0  0
  7  1  1  0  0  0
  1  6  1  0  0  0
  2  6  2  0  0  0
  2  3  1  0  0  0
  6  5  1  0  0  0
  3  4  2  0  0  0
  5  4  1  0  0  0
  9 11  1  0  0  0
M  END
> <minimizedAffinity>
-4.67849

$$$$
5CP9_6O5_B_301


 11 11  0  0  0  0  0  0  0  0999 V2000
   -4.1682   29.7252  -12.4261 C   0  0  0  0  0  0  0  0  0  0  0  0
   -2.9405   28.5513  -10.5140 C   0  0  0  0  0  0  0  0  0  0  0  0
   -2.4990   27.3195  -10.2736 C   0  0  0  0  0  0  0  0  0  0  0  0
   -2.7934   26.5444  -11.3148 C   0  0  0  0  0  0  0  0  0  0  0  0
   -3.4469   27.3067  -12.2453 O   0  0  0  0  0  0  0  0  0  0  0  0
   -3.5169   28.5554  -11.7086 C   0  0  0  0  0  0  0  0  0  0  0  0
   -5.5487   30.0009  -11.8483 C   0  0  0  0  0  0  0  0  0  0  0  0
   -6.3047   30.9828  -12.7399 C   0  0  0  0  0  0  0  0  0  0  0  0
   -7.3018   31.5409  -12.2352 O   0  0  0  0  0  0  0  0  0  0  0  0
   -5.8618   31.1528  -13.8992 O   0  0  0  0  0  0  0  0  0  0  0  0
   -7.5527   31.3443  -11.3541 H   0  0  0  0  0  0  0  0  0  0  0  0
 10  8  2  0  0  0
  8  9  1  0  0  0
  8  7  1  0  0  0
  7  1  1  0  0  0
  1  6  1  0  0  0
  2  6  2  0  0  0
  2  3  1  0  0  0
  6  5  1  0  0  0
  3  4  2  0  0  0
  5  4  1  0  0  0
  9 11  1  0  0  0
M  END
> <minimizedAffinity>
-4.67404

$$$$
5CP9_6O5_B_301


 11 11  0  0  0  0  0  0  0  0999 V2000
   -2.5974   28.1172  -10.2878 C   0  0  0  0  0  0  0  0  0  0  0  0
   -1.4515   25.9893   -9.4509 C   0  0  0  0  0  0  0  0  0  0  0  0
   -1.0242   24.8541   -9.9976 C   0  0  0  0  0  0  0  0  0  0  0  0
   -1.2792   24.8810  -11.3037 C   0  0  0  0  0  0  0  0  0  0  0  0
   -1.8920   26.0696  -11.5962 O   0  0  0  0  0  0  0  0  0  0  0  0
   -1.9794   26.7351  -10.4123 C   0  0  0  0  0  0  0  0  0  0  0  0
   -3.5622   28.3732  -11.4364 C   0  0  0  0  0  0  0  0  0  0  0  0
   -4.9752   27.9539  -11.0387 C   0  0  0  0  0  0  0  0  0  0  0  0
   -5.1105   27.4581   -9.9001 O   0  0  0  0  0  0  0  0  0  0  0  0
   -5.8820   28.1458  -11.8813 O   0  0  0  0  0  0  0  0  0  0  0  0
   -4.3648   27.3562   -9.3420 H   0  0  0  0  0  0  0  0  0  0  0  0
 10  8  2  0  0  0
  8  9  1  0  0  0
  8  7  1  0  0  0
  7  1  1  0  0  0
  1  6  1  0  0  0
  2  6  2  0  0  0
  2  3  1  0  0  0
  6  5  1  0  0  0
  3  4  2  0  0  0
  5  4  1  0  0  0
  9 11  1  0  0  0
M  END
> <minimizedAffinity>
-4.66921

$$$$
5CP9_6O5_B_301


 11 11  0  0  0  0  0  0  0  0999 V2000
   -5.4831   28.5673  -13.0543 C   0  0  0  0  0  0  0  0  0  0  0  0
   -3.6697   29.0760  -11.3240 C   0  0  0  0  0  0  0  0  0  0  0  0
   -2.9136   28.3640  -10.4924 C   0  0  0  0  0  0  0  0  0  0  0  0
   -3.2128   27.0748  -10.6335 C   0  0  0  0  0  0  0  0  0  0  0  0
   -4.1934   26.9637  -11.5821 O   0  0  0  0  0  0  0  0  0  0  0  0
   -4.4499   28.2362  -11.9911 C   0  0  0  0  0  0  0  0  0  0  0  0
   -6.6123   29.3950  -12.4581 C   0  0  0  0  0  0  0  0  0  0  0  0
   -6.4319   30.8672  -12.8196 C   0  0  0  0  0  0  0  0  0  0  0  0
   -5.5251   31.1341  -13.6363 O   0  0  0  0  0  0  0  0  0  0  0  0
   -7.2089   31.6844  -12.2742 O   0  0  0  0  0  0  0  0  0  0  0  0
   -4.9952   30.4466  -13.9891 H   0  0  0  0  0  0  0  0  0  0  0  0
 10  8  2  0  0  0
  8  9  1  0  0  0
  8  7  1  0  0  0
  7  1  1  0  0  0
  1  6  1  0  0  0
  2  6  2  0  0  0
  2  3  1  0  0  0
  6  5  1  0  0  0
  3  4  2  0  0  0
  5  4  1  0  0  0
  9 11  1  0  0  0
M  END
> <minimizedAffinity>
-4.39397

$$$$
5CP9_6O5_B_301


 11 11  0  0  0  0  0  0  0  0999 V2000
   -4.4171   29.6117  -12.7529 C   0  0  0  0  0  0  0  0  0  0  0  0
   -3.1546   28.7359  -10.7084 C   0  0  0  0  0  0  0  0  0  0  0  0
   -2.6192   27.5753  -10.3389 C   0  0  0  0  0  0  0  0  0  0  0  0
   -2.8159   26.6819  -11.3058 C   0  0  0  0  0  0  0  0  0  0  0  0
   -3.5020   27.2927  -12.3207 O   0  0  0  0  0  0  0  0  0  0  0  0
   -3.6925   28.5762  -11.9102 C   0  0  0  0  0  0  0  0  0  0  0  0
   -5.8521   29.7768  -12.2740 C   0  0  0  0  0  0  0  0  0  0  0  0
   -6.7061   28.6092  -12.7618 C   0  0  0  0  0  0  0  0  0  0  0  0
   -6.6593   28.3561  -13.9841 O   0  0  0  0  0  0  0  0  0  0  0  0
   -7.3777   27.9985  -11.8986 O   0  0  0  0  0  0  0  0  0  0  0  0
   -6.1227   28.8756  -14.5499 H   0  0  0  0  0  0  0  0  0  0  0  0
 10  8  2  0  0  0
  8  9  1  0  0  0
  8  7  1  0  0  0
  7  1  1  0  0  0
  1  6  1  0  0  0
  2  6  2  0  0  0
  2  3  1  0  0  0
  6  5  1  0  0  0
  3  4  2  0  0  0
  5  4  1  0  0  0
  9 11  1  0  0  0
M  END
> <minimizedAffinity>
-4.21687

$$$$
