4URZ_VJP_R_1167


 19 20  0  0  0  0  0  0  0  0999 V2000
   53.4199   40.4538   67.3711 O   0  0  0  0  0  0  0  0  0  0  0  0
   53.2187   40.2032   65.9775 S   0  0  0  0  0  0  0  0  0  0  0  0
   52.3832   39.1190   65.5629 O   0  0  0  0  0  0  0  0  0  0  0  0
   57.3213   39.5876   64.1011 C   0  0  0  0  0  0  0  0  0  0  0  0
   58.5410   39.3961   63.5476 N   0  0  0  0  0  0  0  0  0  0  0  0
   57.1348   40.5274   65.1239 C   0  0  0  0  0  0  0  0  0  0  0  0
   55.8895   40.7102   65.7031 C   0  0  0  0  0  0  0  0  0  0  0  0
   54.8091   39.9642   65.2520 C   0  0  0  0  0  0  0  0  0  0  0  0
   54.9801   38.9942   64.2723 C   0  0  0  0  0  0  0  0  0  0  0  0
   56.2192   38.8344   63.6816 C   0  0  0  0  0  0  0  0  0  0  0  0
   59.3089   39.9322   63.8510 H   0  0  0  0  0  0  0  0  0  0  0  0
   58.6604   38.7206   62.8413 H   0  0  0  0  0  0  0  0  0  0  0  0
   52.5756   41.6422   65.3622 N   0  0  0  0  0  0  0  0  0  0  0  0
   52.3831   40.8856   63.2828 O   0  0  0  0  0  0  0  0  0  0  0  0
   52.1986   42.7630   66.2672 C   0  0  0  0  0  0  0  0  0  0  0  0
   52.5207   44.1117   65.6705 C   0  0  0  0  0  0  0  0  0  0  0  0
   51.7430   44.3392   64.3950 C   0  0  0  0  0  0  0  0  0  0  0  0
   51.9025   43.1916   63.4175 C   0  0  0  0  0  0  0  0  0  0  0  0
   52.3019   41.8603   64.0055 C   0  0  0  0  0  0  0  0  0  0  0  0
  4  5  1  0  0  0
  4  6  2  0  0  0
  4 10  1  0  0  0
  1  2  2  0  0  0
  2 13  1  0  0  0
  2  3  2  0  0  0
  2  8  1  0  0  0
  6  7  1  0  0  0
 13 15  1  0  0  0
 13 19  1  0  0  0
  7  8  2  0  0  0
 14 19  2  0  0  0
  8  9  1  0  0  0
  9 10  2  0  0  0
 15 16  1  0  0  0
 16 17  1  0  0  0
 17 18  1  0  0  0
 18 19  1  0  0  0
  5 11  1  0  0  0
  5 12  1  0  0  0
M  END
> <minimizedAffinity>
-8.45683

$$$$
4URZ_VJP_R_1167


 19 20  0  0  0  0  0  0  0  0999 V2000
   52.1033   39.9995   63.7640 O   0  0  0  0  0  0  0  0  0  0  0  0
   52.3509   40.4607   65.0949 S   0  0  0  0  0  0  0  0  0  0  0  0
   51.6993   39.8282   66.1998 O   0  0  0  0  0  0  0  0  0  0  0  0
   51.2987   44.8890   65.2169 C   0  0  0  0  0  0  0  0  0  0  0  0
   50.9772   46.2028   65.2502 N   0  0  0  0  0  0  0  0  0  0  0  0
   52.1835   44.3889   64.2519 C   0  0  0  0  0  0  0  0  0  0  0  0
   52.4983   43.0404   64.2066 C   0  0  0  0  0  0  0  0  0  0  0  0
   51.9425   42.1765   65.1405 C   0  0  0  0  0  0  0  0  0  0  0  0
   51.0269   42.6417   66.0762 C   0  0  0  0  0  0  0  0  0  0  0  0
   50.7367   43.9917   66.1316 C   0  0  0  0  0  0  0  0  0  0  0  0
   51.3791   46.8246   64.6013 H   0  0  0  0  0  0  0  0  0  0  0  0
   50.3413   46.5370   65.9234 H   0  0  0  0  0  0  0  0  0  0  0  0
   54.0237   40.3170   65.3042 N   0  0  0  0  0  0  0  0  0  0  0  0
   54.0474   41.3027   67.2944 O   0  0  0  0  0  0  0  0  0  0  0  0
   54.8518   39.5303   64.3488 C   0  0  0  0  0  0  0  0  0  0  0  0
   56.1945   40.1716   64.0947 C   0  0  0  0  0  0  0  0  0  0  0  0
   57.0060   40.2513   65.3669 C   0  0  0  0  0  0  0  0  0  0  0  0
   56.2312   40.8979   66.4980 C   0  0  0  0  0  0  0  0  0  0  0  0
   54.7264   40.8588   66.3885 C   0  0  0  0  0  0  0  0  0  0  0  0
  4  5  1  0  0  0
  4  6  2  0  0  0
  4 10  1  0  0  0
  1  2  2  0  0  0
  2 13  1  0  0  0
  2  3  2  0  0  0
  2  8  1  0  0  0
  6  7  1  0  0  0
 13 15  1  0  0  0
 13 19  1  0  0  0
  7  8  2  0  0  0
 14 19  2  0  0  0
  8  9  1  0  0  0
  9 10  2  0  0  0
 15 16  1  0  0  0
 16 17  1  0  0  0
 17 18  1  0  0  0
 18 19  1  0  0  0
  5 11  1  0  0  0
  5 12  1  0  0  0
M  END
> <minimizedAffinity>
-8.22395

$$$$
4URZ_VJP_R_1167


 19 20  0  0  0  0  0  0  0  0999 V2000
   53.1670   41.3123   67.9619 O   0  0  0  0  0  0  0  0  0  0  0  0
   52.5612   41.1202   66.6807 S   0  0  0  0  0  0  0  0  0  0  0  0
   51.4522   40.2274   66.5448 O   0  0  0  0  0  0  0  0  0  0  0  0
   55.8257   39.7226   63.8310 C   0  0  0  0  0  0  0  0  0  0  0  0
   56.7928   39.2983   62.9852 N   0  0  0  0  0  0  0  0  0  0  0  0
   56.1469   40.2080   65.1059 C   0  0  0  0  0  0  0  0  0  0  0  0
   55.1549   40.6253   65.9786 C   0  0  0  0  0  0  0  0  0  0  0  0
   53.8267   40.5774   65.5777 C   0  0  0  0  0  0  0  0  0  0  0  0
   53.4815   40.0562   64.3370 C   0  0  0  0  0  0  0  0  0  0  0  0
   54.4773   39.6652   63.4621 C   0  0  0  0  0  0  0  0  0  0  0  0
   57.7382   39.3436   63.2560 H   0  0  0  0  0  0  0  0  0  0  0  0
   56.5510   38.9442   62.0990 H   0  0  0  0  0  0  0  0  0  0  0  0
   52.0705   42.6640   66.1923 N   0  0  0  0  0  0  0  0  0  0  0  0
   50.2024   42.6541   67.3937 O   0  0  0  0  0  0  0  0  0  0  0  0
   52.9678   43.5343   65.3830 C   0  0  0  0  0  0  0  0  0  0  0  0
   52.2108   44.3257   64.3441 C   0  0  0  0  0  0  0  0  0  0  0  0
   51.2157   45.2592   64.9936 C   0  0  0  0  0  0  0  0  0  0  0  0
   50.3167   44.5387   65.9788 C   0  0  0  0  0  0  0  0  0  0  0  0
   50.8473   43.2464   66.5498 C   0  0  0  0  0  0  0  0  0  0  0  0
  4  5  1  0  0  0
  4  6  2  0  0  0
  4 10  1  0  0  0
  1  2  2  0  0  0
  2 13  1  0  0  0
  2  3  2  0  0  0
  2  8  1  0  0  0
  6  7  1  0  0  0
 13 15  1  0  0  0
 13 19  1  0  0  0
  7  8  2  0  0  0
 14 19  2  0  0  0
  8  9  1  0  0  0
  9 10  2  0  0  0
 15 16  1  0  0  0
 16 17  1  0  0  0
 17 18  1  0  0  0
 18 19  1  0  0  0
  5 11  1  0  0  0
  5 12  1  0  0  0
M  END
> <minimizedAffinity>
-8.15283

$$$$
4URZ_VJP_R_1167


 19 20  0  0  0  0  0  0  0  0999 V2000
   52.4403   40.0992   66.4423 O   0  0  0  0  0  0  0  0  0  0  0  0
   52.7899   40.6249   65.1590 S   0  0  0  0  0  0  0  0  0  0  0  0
   52.1494   40.1192   63.9845 O   0  0  0  0  0  0  0  0  0  0  0  0
   57.2786   40.0664   64.6381 C   0  0  0  0  0  0  0  0  0  0  0  0
   58.6114   39.8910   64.4845 N   0  0  0  0  0  0  0  0  0  0  0  0
   56.7627   40.7018   65.7757 C   0  0  0  0  0  0  0  0  0  0  0  0
   55.3968   40.8649   65.9412 C   0  0  0  0  0  0  0  0  0  0  0  0
   54.5293   40.4075   64.9587 C   0  0  0  0  0  0  0  0  0  0  0  0
   55.0151   39.7330   63.8455 C   0  0  0  0  0  0  0  0  0  0  0  0
   56.3796   39.5960   63.6746 C   0  0  0  0  0  0  0  0  0  0  0  0
   59.2341   40.2264   65.1693 H   0  0  0  0  0  0  0  0  0  0  0  0
   58.9584   39.4280   63.6880 H   0  0  0  0  0  0  0  0  0  0  0  0
   52.4807   42.2848   65.2667 N   0  0  0  0  0  0  0  0  0  0  0  0
   52.7036   42.3727   67.4748 O   0  0  0  0  0  0  0  0  0  0  0  0
   52.3576   43.1235   64.0424 C   0  0  0  0  0  0  0  0  0  0  0  0
   51.2893   44.1811   64.1799 C   0  0  0  0  0  0  0  0  0  0  0  0
   51.6185   45.1411   65.2994 C   0  0  0  0  0  0  0  0  0  0  0  0
   51.9264   44.4200   66.5968 C   0  0  0  0  0  0  0  0  0  0  0  0
   52.3794   42.9855   66.4758 C   0  0  0  0  0  0  0  0  0  0  0  0
  4  5  1  0  0  0
  4  6  2  0  0  0
  4 10  1  0  0  0
  1  2  2  0  0  0
  2 13  1  0  0  0
  2  3  2  0  0  0
  2  8  1  0  0  0
  6  7  1  0  0  0
 13 15  1  0  0  0
 13 19  1  0  0  0
  7  8  2  0  0  0
 14 19  2  0  0  0
  8  9  1  0  0  0
  9 10  2  0  0  0
 15 16  1  0  0  0
 16 17  1  0  0  0
 17 18  1  0  0  0
 18 19  1  0  0  0
  5 11  1  0  0  0
  5 12  1  0  0  0
M  END
> <minimizedAffinity>
-8.14122

$$$$
4URZ_VJP_R_1167


 19 20  0  0  0  0  0  0  0  0999 V2000
   52.2659   39.7847   65.1043 O   0  0  0  0  0  0  0  0  0  0  0  0
   53.0967   40.6843   65.8431 S   0  0  0  0  0  0  0  0  0  0  0  0
   53.1362   40.6064   67.2707 O   0  0  0  0  0  0  0  0  0  0  0  0
   51.8512   44.9175   64.7205 C   0  0  0  0  0  0  0  0  0  0  0  0
   51.4727   46.1741   64.3911 N   0  0  0  0  0  0  0  0  0  0  0  0
   52.0052   43.9312   63.7369 C   0  0  0  0  0  0  0  0  0  0  0  0
   52.3750   42.6398   64.0766 C   0  0  0  0  0  0  0  0  0  0  0  0
   52.6125   42.3240   65.4074 C   0  0  0  0  0  0  0  0  0  0  0  0
   52.4206   43.2729   66.4039 C   0  0  0  0  0  0  0  0  0  0  0  0
   52.0759   44.5652   66.0559 C   0  0  0  0  0  0  0  0  0  0  0  0
   51.3175   46.4101   63.4480 H   0  0  0  0  0  0  0  0  0  0  0  0
   51.3524   46.8523   65.0945 H   0  0  0  0  0  0  0  0  0  0  0  0
   54.6593   40.4263   65.2480 N   0  0  0  0  0  0  0  0  0  0  0  0
   53.9846   39.7310   63.2494 O   0  0  0  0  0  0  0  0  0  0  0  0
   55.8564   40.8486   66.0264 C   0  0  0  0  0  0  0  0  0  0  0  0
   56.9923   39.8616   65.9072 C   0  0  0  0  0  0  0  0  0  0  0  0
   57.4591   39.7437   64.4749 C   0  0  0  0  0  0  0  0  0  0  0  0
   56.3130   39.4648   63.5227 C   0  0  0  0  0  0  0  0  0  0  0  0
   54.9369   39.8686   63.9930 C   0  0  0  0  0  0  0  0  0  0  0  0
  4  5  1  0  0  0
  4  6  2  0  0  0
  4 10  1  0  0  0
  1  2  2  0  0  0
  2 13  1  0  0  0
  2  3  2  0  0  0
  2  8  1  0  0  0
  6  7  1  0  0  0
 13 15  1  0  0  0
 13 19  1  0  0  0
  7  8  2  0  0  0
 14 19  2  0  0  0
  8  9  1  0  0  0
  9 10  2  0  0  0
 15 16  1  0  0  0
 16 17  1  0  0  0
 17 18  1  0  0  0
 18 19  1  0  0  0
  5 11  1  0  0  0
  5 12  1  0  0  0
M  END
> <minimizedAffinity>
-8.10974

$$$$
4URZ_VJP_R_1167


 19 20  0  0  0  0  0  0  0  0999 V2000
   53.1399   39.5295   63.3258 O   0  0  0  0  0  0  0  0  0  0  0  0
   53.6076   38.9251   64.5347 S   0  0  0  0  0  0  0  0  0  0  0  0
   53.6546   37.5000   64.6457 O   0  0  0  0  0  0  0  0  0  0  0  0
   51.0139   40.4968   67.9308 C   0  0  0  0  0  0  0  0  0  0  0  0
   50.2375   40.9561   68.9392 N   0  0  0  0  0  0  0  0  0  0  0  0
   51.0319   41.1403   66.6860 C   0  0  0  0  0  0  0  0  0  0  0  0
   51.8131   40.6588   65.6479 C   0  0  0  0  0  0  0  0  0  0  0  0
   52.6011   39.5339   65.8496 C   0  0  0  0  0  0  0  0  0  0  0  0
   52.5633   38.8526   67.0598 C   0  0  0  0  0  0  0  0  0  0  0  0
   51.8013   39.3524   68.0987 C   0  0  0  0  0  0  0  0  0  0  0  0
   49.6878   41.7624   68.8091 H   0  0  0  0  0  0  0  0  0  0  0  0
   50.2223   40.4841   69.8030 H   0  0  0  0  0  0  0  0  0  0  0  0
   55.1720   39.5323   64.7512 N   0  0  0  0  0  0  0  0  0  0  0  0
   56.1040   38.1832   63.2530 O   0  0  0  0  0  0  0  0  0  0  0  0
   55.4194   40.7310   65.5993 C   0  0  0  0  0  0  0  0  0  0  0  0
   56.6976   40.6143   66.3938 C   0  0  0  0  0  0  0  0  0  0  0  0
   57.8959   40.5083   65.4794 C   0  0  0  0  0  0  0  0  0  0  0  0
   57.7267   39.4161   64.4419 C   0  0  0  0  0  0  0  0  0  0  0  0
   56.3092   39.0079   64.1228 C   0  0  0  0  0  0  0  0  0  0  0  0
  4  5  1  0  0  0
  4  6  2  0  0  0
  4 10  1  0  0  0
  1  2  2  0  0  0
  2 13  1  0  0  0
  2  3  2  0  0  0
  2  8  1  0  0  0
  6  7  1  0  0  0
 13 15  1  0  0  0
 13 19  1  0  0  0
  7  8  2  0  0  0
 14 19  2  0  0  0
  8  9  1  0  0  0
  9 10  2  0  0  0
 15 16  1  0  0  0
 16 17  1  0  0  0
 17 18  1  0  0  0
 18 19  1  0  0  0
  5 11  1  0  0  0
  5 12  1  0  0  0
M  END
> <minimizedAffinity>
-7.92105

$$$$
4URZ_VJP_R_1167


 19 20  0  0  0  0  0  0  0  0999 V2000
   53.2735   41.8506   65.0660 O   0  0  0  0  0  0  0  0  0  0  0  0
   53.2653   40.4250   64.9524 S   0  0  0  0  0  0  0  0  0  0  0  0
   52.5377   39.8000   63.8915 O   0  0  0  0  0  0  0  0  0  0  0  0
   51.6905   38.7598   68.8867 C   0  0  0  0  0  0  0  0  0  0  0  0
   51.2153   38.2608   70.0511 N   0  0  0  0  0  0  0  0  0  0  0  0
   51.6281   40.1329   68.6135 C   0  0  0  0  0  0  0  0  0  0  0  0
   52.0981   40.6413   67.4134 C   0  0  0  0  0  0  0  0  0  0  0  0
   52.6534   39.7804   66.4766 C   0  0  0  0  0  0  0  0  0  0  0  0
   52.6828   38.4105   66.7059 C   0  0  0  0  0  0  0  0  0  0  0  0
   52.2353   37.9131   67.9151 C   0  0  0  0  0  0  0  0  0  0  0  0
   50.8343   38.8665   70.7272 H   0  0  0  0  0  0  0  0  0  0  0  0
   51.2507   37.2919   70.2223 H   0  0  0  0  0  0  0  0  0  0  0  0
   54.8939   39.9870   64.8172 N   0  0  0  0  0  0  0  0  0  0  0  0
   55.5240   41.0402   66.6685 O   0  0  0  0  0  0  0  0  0  0  0  0
   55.3449   39.0198   63.7787 C   0  0  0  0  0  0  0  0  0  0  0  0
   56.6865   39.3923   63.1956 C   0  0  0  0  0  0  0  0  0  0  0  0
   57.7611   39.3793   64.2579 C   0  0  0  0  0  0  0  0  0  0  0  0
   57.3766   40.2070   65.4682 C   0  0  0  0  0  0  0  0  0  0  0  0
   55.9005   40.4391   65.6807 C   0  0  0  0  0  0  0  0  0  0  0  0
  4  5  1  0  0  0
  4  6  2  0  0  0
  4 10  1  0  0  0
  1  2  2  0  0  0
  2 13  1  0  0  0
  2  3  2  0  0  0
  2  8  1  0  0  0
  6  7  1  0  0  0
 13 15  1  0  0  0
 13 19  1  0  0  0
  7  8  2  0  0  0
 14 19  2  0  0  0
  8  9  1  0  0  0
  9 10  2  0  0  0
 15 16  1  0  0  0
 16 17  1  0  0  0
 17 18  1  0  0  0
 18 19  1  0  0  0
  5 11  1  0  0  0
  5 12  1  0  0  0
M  END
> <minimizedAffinity>
-7.89214

$$$$
4URZ_VJP_R_1167


 19 20  0  0  0  0  0  0  0  0999 V2000
   52.1367   40.0568   64.1534 O   0  0  0  0  0  0  0  0  0  0  0  0
   52.8385   40.9825   64.9877 S   0  0  0  0  0  0  0  0  0  0  0  0
   52.6521   42.3886   64.8040 O   0  0  0  0  0  0  0  0  0  0  0  0
   57.2843   40.1056   64.5430 C   0  0  0  0  0  0  0  0  0  0  0  0
   58.6035   39.8357   64.4116 N   0  0  0  0  0  0  0  0  0  0  0  0
   56.7892   40.7329   65.6943 C   0  0  0  0  0  0  0  0  0  0  0  0
   55.4356   40.9925   65.8364 C   0  0  0  0  0  0  0  0  0  0  0  0
   54.5612   40.6417   64.8169 C   0  0  0  0  0  0  0  0  0  0  0  0
   55.0227   39.9769   63.6876 C   0  0  0  0  0  0  0  0  0  0  0  0
   56.3770   39.7434   63.5413 C   0  0  0  0  0  0  0  0  0  0  0  0
   59.2324   40.0954   65.1233 H   0  0  0  0  0  0  0  0  0  0  0  0
   58.9347   39.3796   63.6045 H   0  0  0  0  0  0  0  0  0  0  0  0
   52.3817   40.5822   66.5669 N   0  0  0  0  0  0  0  0  0  0  0  0
   52.8280   38.4176   66.3465 O   0  0  0  0  0  0  0  0  0  0  0  0
   52.0480   41.6397   67.5607 C   0  0  0  0  0  0  0  0  0  0  0  0
   50.9021   41.2390   68.4578 C   0  0  0  0  0  0  0  0  0  0  0  0
   51.2528   40.0137   69.2697 C   0  0  0  0  0  0  0  0  0  0  0  0
   51.7657   38.8819   68.4013 C   0  0  0  0  0  0  0  0  0  0  0  0
   52.3413   39.2720   67.0619 C   0  0  0  0  0  0  0  0  0  0  0  0
  4  5  1  0  0  0
  4  6  2  0  0  0
  4 10  1  0  0  0
  1  2  2  0  0  0
  2 13  1  0  0  0
  2  3  2  0  0  0
  2  8  1  0  0  0
  6  7  1  0  0  0
 13 15  1  0  0  0
 13 19  1  0  0  0
  7  8  2  0  0  0
 14 19  2  0  0  0
  8  9  1  0  0  0
  9 10  2  0  0  0
 15 16  1  0  0  0
 16 17  1  0  0  0
 17 18  1  0  0  0
 18 19  1  0  0  0
  5 11  1  0  0  0
  5 12  1  0  0  0
M  END
> <minimizedAffinity>
-7.88606

$$$$
4URZ_VJP_R_1167


 19 20  0  0  0  0  0  0  0  0999 V2000
   52.1301   40.1267   63.6568 O   0  0  0  0  0  0  0  0  0  0  0  0
   52.6513   41.0123   64.6515 S   0  0  0  0  0  0  0  0  0  0  0  0
   52.4776   42.4247   64.5080 O   0  0  0  0  0  0  0  0  0  0  0  0
   57.1161   40.1883   64.9952 C   0  0  0  0  0  0  0  0  0  0  0  0
   58.4446   39.9528   65.0966 N   0  0  0  0  0  0  0  0  0  0  0  0
   56.4007   39.7967   63.8555 C   0  0  0  0  0  0  0  0  0  0  0  0
   55.0439   40.0544   63.7442 C   0  0  0  0  0  0  0  0  0  0  0  0
   54.3817   40.6940   64.7832 C   0  0  0  0  0  0  0  0  0  0  0  0
   55.0792   41.1331   65.9016 C   0  0  0  0  0  0  0  0  0  0  0  0
   56.4271   40.8507   66.0172 C   0  0  0  0  0  0  0  0  0  0  0  0
   58.9185   39.4858   64.3709 H   0  0  0  0  0  0  0  0  0  0  0  0
   58.9373   40.2485   65.8960 H   0  0  0  0  0  0  0  0  0  0  0  0
   51.9200   40.5258   66.0976 N   0  0  0  0  0  0  0  0  0  0  0  0
   50.5414   42.2641   66.2028 O   0  0  0  0  0  0  0  0  0  0  0  0
   52.2152   39.1951   66.6972 C   0  0  0  0  0  0  0  0  0  0  0  0
   52.2854   39.2506   68.2040 C   0  0  0  0  0  0  0  0  0  0  0  0
   50.9606   39.6773   68.7925 C   0  0  0  0  0  0  0  0  0  0  0  0
   50.4424   40.9555   68.1635 C   0  0  0  0  0  0  0  0  0  0  0  0
   50.9672   41.2868   66.7878 C   0  0  0  0  0  0  0  0  0  0  0  0
  4  5  1  0  0  0
  4  6  2  0  0  0
  4 10  1  0  0  0
  1  2  2  0  0  0
  2 13  1  0  0  0
  2  3  2  0  0  0
  2  8  1  0  0  0
  6  7  1  0  0  0
 13 15  1  0  0  0
 13 19  1  0  0  0
  7  8  2  0  0  0
 14 19  2  0  0  0
  8  9  1  0  0  0
  9 10  2  0  0  0
 15 16  1  0  0  0
 16 17  1  0  0  0
 17 18  1  0  0  0
 18 19  1  0  0  0
  5 11  1  0  0  0
  5 12  1  0  0  0
M  END
> <minimizedAffinity>
-7.84629

$$$$
4URZ_VJP_R_1167


 19 20  0  0  0  0  0  0  0  0999 V2000
   52.7001   42.2437   65.4534 O   0  0  0  0  0  0  0  0  0  0  0  0
   52.8565   40.8339   65.2703 S   0  0  0  0  0  0  0  0  0  0  0  0
   52.1735   40.1753   64.2002 O   0  0  0  0  0  0  0  0  0  0  0  0
   51.6103   38.8184   69.1582 C   0  0  0  0  0  0  0  0  0  0  0  0
   51.2473   38.2236   70.3180 N   0  0  0  0  0  0  0  0  0  0  0  0
   52.1305   38.0667   68.0960 C   0  0  0  0  0  0  0  0  0  0  0  0
   52.5192   38.6785   66.9152 C   0  0  0  0  0  0  0  0  0  0  0  0
   52.3753   40.0523   66.7771 C   0  0  0  0  0  0  0  0  0  0  0  0
   51.9061   40.8233   67.8333 C   0  0  0  0  0  0  0  0  0  0  0  0
   51.4969   40.2039   68.9989 C   0  0  0  0  0  0  0  0  0  0  0  0
   51.3316   37.2479   70.4183 H   0  0  0  0  0  0  0  0  0  0  0  0
   50.8988   38.7666   71.0617 H   0  0  0  0  0  0  0  0  0  0  0  0
   54.5202   40.6002   65.0697 N   0  0  0  0  0  0  0  0  0  0  0  0
   54.3875   40.1785   62.8931 O   0  0  0  0  0  0  0  0  0  0  0  0
   55.4741   40.8842   66.1773 C   0  0  0  0  0  0  0  0  0  0  0  0
   56.6025   39.8828   66.2299 C   0  0  0  0  0  0  0  0  0  0  0  0
   57.4250   39.9268   64.9630 C   0  0  0  0  0  0  0  0  0  0  0  0
   56.5653   39.8049   63.7204 C   0  0  0  0  0  0  0  0  0  0  0  0
   55.1142   40.1924   63.8680 C   0  0  0  0  0  0  0  0  0  0  0  0
  4  5  1  0  0  0
  4  6  2  0  0  0
  4 10  1  0  0  0
  1  2  2  0  0  0
  2 13  1  0  0  0
  2  3  2  0  0  0
  2  8  1  0  0  0
  6  7  1  0  0  0
 13 15  1  0  0  0
 13 19  1  0  0  0
  7  8  2  0  0  0
 14 19  2  0  0  0
  8  9  1  0  0  0
  9 10  2  0  0  0
 15 16  1  0  0  0
 16 17  1  0  0  0
 17 18  1  0  0  0
 18 19  1  0  0  0
  5 11  1  0  0  0
  5 12  1  0  0  0
M  END
> <minimizedAffinity>
-7.55945

$$$$
