4LL3_017_A_201


 42 45  0  0  0  0  0  0  0  0999 V2000
  -10.0696   16.2491   28.1140 C   0  0  0  0  0  0  0  0  0  0  0  0
  -10.6728   17.5369   28.3619 O   0  0  0  0  0  0  0  0  0  0  0  0
  -11.0133   17.5650   29.2698 H   0  0  0  0  0  0  0  0  0  0  0  0
  -11.0829   15.0954   28.1706 C   0  0  0  0  0  0  0  0  0  0  0  0
  -11.5746   14.8108   26.8038 N   0  0  0  0  0  0  0  0  0  0  0  0
  -10.5426   13.9283   25.8869 S   0  0  0  0  0  0  0  0  0  0  0  0
  -11.2913   13.1286   24.9639 O   0  0  0  0  0  0  0  0  0  0  0  0
   -9.8379   13.0569   26.7706 O   0  0  0  0  0  0  0  0  0  0  0  0
   -6.7861   17.1745   22.9576 N   0  0  0  0  0  0  0  0  0  0  0  0
   -7.6714   16.4153   23.6562 C   0  0  0  0  0  0  0  0  0  0  0  0
   -8.9764   16.8685   23.8649 C   0  0  0  0  0  0  0  0  0  0  0  0
   -9.8840   16.0734   24.5640 C   0  0  0  0  0  0  0  0  0  0  0  0
   -9.4927   14.8304   25.0686 C   0  0  0  0  0  0  0  0  0  0  0  0
   -8.1908   14.3691   24.8430 C   0  0  0  0  0  0  0  0  0  0  0  0
   -7.2814   15.1638   24.1363 C   0  0  0  0  0  0  0  0  0  0  0  0
   -7.0564   18.0577   22.6169 H   0  0  0  0  0  0  0  0  0  0  0  0
   -5.8746   16.8410   22.7924 H   0  0  0  0  0  0  0  0  0  0  0  0
  -12.9549   14.2716   26.8494 C   0  0  0  0  0  0  0  0  0  0  0  0
  -13.2116   13.4207   28.0980 C   0  0  0  0  0  0  0  0  0  0  0  0
  -14.5414   13.7548   28.7726 C   0  0  0  0  0  0  0  0  0  0  0  0
  -13.1177   11.9230   27.7766 C   0  0  0  0  0  0  0  0  0  0  0  0
   -8.9020   16.0570   29.0685 C   0  0  0  0  0  0  0  0  0  0  0  0
   -9.4293   15.1427   30.0755 N   0  0  0  0  0  0  0  0  0  0  0  0
   -8.9342   15.1039   31.3066 C   0  0  0  0  0  0  0  0  0  0  0  0
   -8.0099   15.8144   31.7215 O   0  0  0  0  0  0  0  0  0  0  0  0
  -10.1702   14.5401   29.8364 H   0  0  0  0  0  0  0  0  0  0  0  0
   -9.5864   14.1442   32.1796 O   0  0  0  0  0  0  0  0  0  0  0  0
   -9.3552   14.2886   33.5634 C   0  0  0  0  0  0  0  0  0  0  0  0
   -9.7041   15.7382   33.8366 C   0  0  0  0  0  0  0  0  0  0  0  0
  -11.1173   15.7423   34.0405 O   0  0  0  0  0  0  0  0  0  0  0  0
  -11.5854   14.4377   34.4120 C   0  0  0  0  0  0  0  0  0  0  0  0
  -12.5368   13.9482   33.4671 O   0  0  0  0  0  0  0  0  0  0  0  0
  -12.3253   12.5536   33.2154 C   0  0  0  0  0  0  0  0  0  0  0  0
  -10.9070   12.2457   33.6519 C   0  0  0  0  0  0  0  0  0  0  0  0
  -10.4028   13.5085   34.3319 C   0  0  0  0  0  0  0  0  0  0  0  0
   -7.7083   15.3365   28.4363 C   0  0  0  0  0  0  0  0  0  0  0  0
   -5.3897   16.0609   27.8123 C   0  0  0  0  0  0  0  0  0  0  0  0
   -4.5007   16.9454   27.2046 C   0  0  0  0  0  0  0  0  0  0  0  0
   -4.9973   18.0865   26.5732 C   0  0  0  0  0  0  0  0  0  0  0  0
   -6.3703   18.3320   26.5429 C   0  0  0  0  0  0  0  0  0  0  0  0
   -7.2644   17.4514   27.1457 C   0  0  0  0  0  0  0  0  0  0  0  0
   -6.7690   16.3160   27.7844 C   0  0  0  0  0  0  0  0  0  0  0  0
  9 10  1  0  0  0
 10 11  2  0  0  0
 10 15  1  0  0  0
 11 12  1  0  0  0
 12 13  2  0  0  0
 13 14  1  0  0  0
 13  6  1  0  0  0
 14 15  2  0  0  0
  6  7  2  0  0  0
  6  8  2  0  0  0
  6  5  1  0  0  0
  5 18  1  0  0  0
  5  4  1  0  0  0
 18 19  1  0  0  0
 19 20  1  0  0  0
 19 21  1  0  0  0
  4  1  1  0  0  0
  1  2  1  0  0  0
  1 22  1  0  0  0
 22 23  1  0  0  0
 22 36  1  0  0  0
 23 24  1  0  0  0
 24 25  2  0  0  0
 24 27  1  0  0  0
 27 28  1  0  0  0
 28 29  1  0  0  0
 28 35  1  0  0  0
 29 30  1  0  0  0
 30 31  1  0  0  0
 31 32  1  0  0  0
 31 35  1  0  0  0
 32 33  1  0  0  0
 33 34  1  0  0  0
 34 35  1  0  0  0
 36 42  1  0  0  0
 37 38  2  0  0  0
 37 42  1  0  0  0
 38 39  1  0  0  0
 39 40  2  0  0  0
 40 41  1  0  0  0
 41 42  2  0  0  0
  9 16  1  0  0  0
  9 17  1  0  0  0
  2  3  1  0  0  0
 23 26  1  0  0  0
M  END
> <minimizedAffinity>
-9.93105

$$$$
4LL3_017_A_201


 42 45  0  0  0  0  0  0  0  0999 V2000
   -9.0658   16.7959   25.2279 C   0  0  0  0  0  0  0  0  0  0  0  0
   -9.8845   17.9557   24.9669 O   0  0  0  0  0  0  0  0  0  0  0  0
   -9.7465   18.2498   24.0529 H   0  0  0  0  0  0  0  0  0  0  0  0
   -7.5613   17.0995   25.1544 C   0  0  0  0  0  0  0  0  0  0  0  0
   -7.0620   17.4209   26.5101 N   0  0  0  0  0  0  0  0  0  0  0  0
   -6.7921   16.1110   27.4567 S   0  0  0  0  0  0  0  0  0  0  0  0
   -5.7176   16.3913   28.3616 O   0  0  0  0  0  0  0  0  0  0  0  0
   -6.3902   15.0471   26.5945 O   0  0  0  0  0  0  0  0  0  0  0  0
  -11.4212   14.4893   30.4851 N   0  0  0  0  0  0  0  0  0  0  0  0
  -10.3236   14.8694   29.7787 C   0  0  0  0  0  0  0  0  0  0  0  0
   -9.4313   13.9098   29.2940 C   0  0  0  0  0  0  0  0  0  0  0  0
   -8.3196   14.3076   28.5519 C   0  0  0  0  0  0  0  0  0  0  0  0
   -8.0854   15.6620   28.3003 C   0  0  0  0  0  0  0  0  0  0  0  0
   -8.9897   16.6212   28.7702 C   0  0  0  0  0  0  0  0  0  0  0  0
  -10.1086   16.2223   29.5098 C   0  0  0  0  0  0  0  0  0  0  0  0
  -11.5772   13.5364   30.6773 H   0  0  0  0  0  0  0  0  0  0  0  0
  -12.0600   15.1669   30.8045 H   0  0  0  0  0  0  0  0  0  0  0  0
   -5.9154   18.3579   26.4335 C   0  0  0  0  0  0  0  0  0  0  0  0
   -5.0495   18.1252   25.1906 C   0  0  0  0  0  0  0  0  0  0  0  0
   -4.6580   19.4287   24.4957 C   0  0  0  0  0  0  0  0  0  0  0  0
   -3.8092   17.2869   25.5287 C   0  0  0  0  0  0  0  0  0  0  0  0
   -9.4877   15.6717   24.2952 C   0  0  0  0  0  0  0  0  0  0  0  0
   -8.4236   15.6362   23.2980 N   0  0  0  0  0  0  0  0  0  0  0  0
   -8.6540   15.2496   22.0491 C   0  0  0  0  0  0  0  0  0  0  0  0
   -9.7547   14.8951   21.6085 O   0  0  0  0  0  0  0  0  0  0  0  0
   -7.5128   15.9053   23.5574 H   0  0  0  0  0  0  0  0  0  0  0  0
   -7.4841   15.2873   21.1897 O   0  0  0  0  0  0  0  0  0  0  0  0
   -7.7170   15.2167   19.8005 C   0  0  0  0  0  0  0  0  0  0  0  0
   -8.7736   16.2763   19.5590 C   0  0  0  0  0  0  0  0  0  0  0  0
   -8.0429   17.4936   19.4063 O   0  0  0  0  0  0  0  0  0  0  0  0
   -6.6819   17.2312   19.0349 C   0  0  0  0  0  0  0  0  0  0  0  0
   -5.7772   17.7548   20.0071 O   0  0  0  0  0  0  0  0  0  0  0  0
   -4.6962   16.8417   20.2328 C   0  0  0  0  0  0  0  0  0  0  0  0
   -5.1650   15.4868   19.7414 C   0  0  0  0  0  0  0  0  0  0  0  0
   -6.5010   15.7362   19.0603 C   0  0  0  0  0  0  0  0  0  0  0  0
   -9.4821   14.2924   24.9594 C   0  0  0  0  0  0  0  0  0  0  0  0
  -11.3753   12.7053   25.3914 C   0  0  0  0  0  0  0  0  0  0  0  0
  -12.6080   12.3889   25.9592 C   0  0  0  0  0  0  0  0  0  0  0  0
  -13.2850   13.3556   26.7040 C   0  0  0  0  0  0  0  0  0  0  0  0
  -12.7271   14.6213   26.8856 C   0  0  0  0  0  0  0  0  0  0  0  0
  -11.4948   14.9435   26.3234 C   0  0  0  0  0  0  0  0  0  0  0  0
  -10.8219   13.9818   25.5719 C   0  0  0  0  0  0  0  0  0  0  0  0
  9 10  1  0  0  0
 10 11  2  0  0  0
 10 15  1  0  0  0
 11 12  1  0  0  0
 12 13  2  0  0  0
 13 14  1  0  0  0
 13  6  1  0  0  0
 14 15  2  0  0  0
  6  7  2  0  0  0
  6  8  2  0  0  0
  6  5  1  0  0  0
  5 18  1  0  0  0
  5  4  1  0  0  0
 18 19  1  0  0  0
 19 20  1  0  0  0
 19 21  1  0  0  0
  4  1  1  0  0  0
  1  2  1  0  0  0
  1 22  1  0  0  0
 22 23  1  0  0  0
 22 36  1  0  0  0
 23 24  1  0  0  0
 24 25  2  0  0  0
 24 27  1  0  0  0
 27 28  1  0  0  0
 28 29  1  0  0  0
 28 35  1  0  0  0
 29 30  1  0  0  0
 30 31  1  0  0  0
 31 32  1  0  0  0
 31 35  1  0  0  0
 32 33  1  0  0  0
 33 34  1  0  0  0
 34 35  1  0  0  0
 36 42  1  0  0  0
 37 38  2  0  0  0
 37 42  1  0  0  0
 38 39  1  0  0  0
 39 40  2  0  0  0
 40 41  1  0  0  0
 41 42  2  0  0  0
  9 16  1  0  0  0
  9 17  1  0  0  0
  2  3  1  0  0  0
 23 26  1  0  0  0
M  END
> <minimizedAffinity>
-9.85801

$$$$
4LL3_017_A_201


 42 45  0  0  0  0  0  0  0  0999 V2000
   -9.9292   16.9259   26.8994 C   0  0  0  0  0  0  0  0  0  0  0  0
  -10.8645   17.9796   27.2136 O   0  0  0  0  0  0  0  0  0  0  0  0
  -11.7143   17.7966   26.7834 H   0  0  0  0  0  0  0  0  0  0  0  0
   -9.5859   16.8603   25.4031 C   0  0  0  0  0  0  0  0  0  0  0  0
   -8.3719   16.0343   25.2172 N   0  0  0  0  0  0  0  0  0  0  0  0
   -8.6032   14.6926   24.3055 S   0  0  0  0  0  0  0  0  0  0  0  0
   -9.9248   14.1874   24.5293 O   0  0  0  0  0  0  0  0  0  0  0  0
   -7.6646   13.7152   24.7534 O   0  0  0  0  0  0  0  0  0  0  0  0
   -7.8818   15.6414   18.6655 N   0  0  0  0  0  0  0  0  0  0  0  0
   -8.0484   15.4268   19.9976 C   0  0  0  0  0  0  0  0  0  0  0  0
   -9.0700   16.0783   20.6933 C   0  0  0  0  0  0  0  0  0  0  0  0
   -9.2469   15.8355   22.0550 C   0  0  0  0  0  0  0  0  0  0  0  0
   -8.4003   14.9535   22.7318 C   0  0  0  0  0  0  0  0  0  0  0  0
   -7.3890   14.2873   22.0303 C   0  0  0  0  0  0  0  0  0  0  0  0
   -7.2148   14.5258   20.6625 C   0  0  0  0  0  0  0  0  0  0  0  0
   -8.4671   16.2759   18.1921 H   0  0  0  0  0  0  0  0  0  0  0  0
   -7.1758   15.1624   18.1743 H   0  0  0  0  0  0  0  0  0  0  0  0
   -7.2330   16.8753   24.7769 C   0  0  0  0  0  0  0  0  0  0  0  0
   -6.2239   17.1320   25.9015 C   0  0  0  0  0  0  0  0  0  0  0  0
   -6.3314   18.5442   26.4753 C   0  0  0  0  0  0  0  0  0  0  0  0
   -6.3479   16.0765   27.0085 C   0  0  0  0  0  0  0  0  0  0  0  0
  -10.4654   15.6101   27.4405 C   0  0  0  0  0  0  0  0  0  0  0  0
  -10.6037   15.8589   28.8712 N   0  0  0  0  0  0  0  0  0  0  0  0
   -9.6617   15.4974   29.7339 C   0  0  0  0  0  0  0  0  0  0  0  0
   -8.6013   14.9358   29.4314 O   0  0  0  0  0  0  0  0  0  0  0  0
  -11.4151   16.3055   29.2050 H   0  0  0  0  0  0  0  0  0  0  0  0
   -9.9597   15.8333   31.1148 O   0  0  0  0  0  0  0  0  0  0  0  0
   -9.3718   15.0192   32.1051 C   0  0  0  0  0  0  0  0  0  0  0  0
   -9.2220   15.9495   33.2925 C   0  0  0  0  0  0  0  0  0  0  0  0
  -10.4847   15.9004   33.9574 O   0  0  0  0  0  0  0  0  0  0  0  0
  -11.1976   14.7029   33.6159 C   0  0  0  0  0  0  0  0  0  0  0  0
  -12.4463   15.0109   32.9966 O   0  0  0  0  0  0  0  0  0  0  0  0
  -12.7031   14.1158   31.9076 C   0  0  0  0  0  0  0  0  0  0  0  0
  -11.3674   13.5154   31.5173 C   0  0  0  0  0  0  0  0  0  0  0  0
  -10.3800   13.9886   32.5719 C   0  0  0  0  0  0  0  0  0  0  0  0
  -11.8714   15.2709   26.9389 C   0  0  0  0  0  0  0  0  0  0  0  0
  -13.6808   14.0230   28.1469 C   0  0  0  0  0  0  0  0  0  0  0  0
  -14.1900   12.8729   28.7467 C   0  0  0  0  0  0  0  0  0  0  0  0
  -13.4029   11.7215   28.7934 C   0  0  0  0  0  0  0  0  0  0  0  0
  -12.1241   11.7210   28.2360 C   0  0  0  0  0  0  0  0  0  0  0  0
  -11.6098   12.8656   27.6330 C   0  0  0  0  0  0  0  0  0  0  0  0
  -12.3915   14.0188   27.5936 C   0  0  0  0  0  0  0  0  0  0  0  0
  9 10  1  0  0  0
 10 11  2  0  0  0
 10 15  1  0  0  0
 11 12  1  0  0  0
 12 13  2  0  0  0
 13 14  1  0  0  0
 13  6  1  0  0  0
 14 15  2  0  0  0
  6  7  2  0  0  0
  6  8  2  0  0  0
  6  5  1  0  0  0
  5 18  1  0  0  0
  5  4  1  0  0  0
 18 19  1  0  0  0
 19 20  1  0  0  0
 19 21  1  0  0  0
  4  1  1  0  0  0
  1  2  1  0  0  0
  1 22  1  0  0  0
 22 23  1  0  0  0
 22 36  1  0  0  0
 23 24  1  0  0  0
 24 25  2  0  0  0
 24 27  1  0  0  0
 27 28  1  0  0  0
 28 29  1  0  0  0
 28 35  1  0  0  0
 29 30  1  0  0  0
 30 31  1  0  0  0
 31 32  1  0  0  0
 31 35  1  0  0  0
 32 33  1  0  0  0
 33 34  1  0  0  0
 34 35  1  0  0  0
 36 42  1  0  0  0
 37 38  2  0  0  0
 37 42  1  0  0  0
 38 39  1  0  0  0
 39 40  2  0  0  0
 40 41  1  0  0  0
 41 42  2  0  0  0
  9 16  1  0  0  0
  9 17  1  0  0  0
  2  3  1  0  0  0
 23 26  1  0  0  0
M  END
> <minimizedAffinity>
-9.77074

$$$$
4LL3_017_A_201


 42 45  0  0  0  0  0  0  0  0999 V2000
  -10.1906   16.5066   26.8554 C   0  0  0  0  0  0  0  0  0  0  0  0
  -10.5965   17.8918   26.8747 O   0  0  0  0  0  0  0  0  0  0  0  0
  -10.0701   18.3738   27.5315 H   0  0  0  0  0  0  0  0  0  0  0  0
  -10.4842   15.7810   28.1776 C   0  0  0  0  0  0  0  0  0  0  0  0
  -11.1756   14.5043   27.8900 N   0  0  0  0  0  0  0  0  0  0  0  0
  -11.6878   13.7005   29.2227 S   0  0  0  0  0  0  0  0  0  0  0  0
  -11.4952   12.2937   29.0331 O   0  0  0  0  0  0  0  0  0  0  0  0
  -13.0870   13.9512   29.3509 O   0  0  0  0  0  0  0  0  0  0  0  0
   -8.9690   15.3403   34.0340 N   0  0  0  0  0  0  0  0  0  0  0  0
   -9.6060   14.9612   32.8944 C   0  0  0  0  0  0  0  0  0  0  0  0
   -8.8870   14.3844   31.8445 C   0  0  0  0  0  0  0  0  0  0  0  0
   -9.5522   13.9789   30.6879 C   0  0  0  0  0  0  0  0  0  0  0  0
  -10.9329   14.1574   30.5670 C   0  0  0  0  0  0  0  0  0  0  0  0
  -11.6550   14.7181   31.6266 C   0  0  0  0  0  0  0  0  0  0  0  0
  -10.9891   15.1197   32.7898 C   0  0  0  0  0  0  0  0  0  0  0  0
   -7.9938   15.2306   34.1126 H   0  0  0  0  0  0  0  0  0  0  0  0
   -9.4829   15.7245   34.7807 H   0  0  0  0  0  0  0  0  0  0  0  0
  -12.2259   14.7016   26.8622 C   0  0  0  0  0  0  0  0  0  0  0  0
  -12.1620   13.6508   25.7485 C   0  0  0  0  0  0  0  0  0  0  0  0
  -10.7596   13.0710   25.5685 C   0  0  0  0  0  0  0  0  0  0  0  0
  -13.1932   12.5375   25.9776 C   0  0  0  0  0  0  0  0  0  0  0  0
   -8.7279   16.4248   26.4489 C   0  0  0  0  0  0  0  0  0  0  0  0
   -8.7389   16.8258   25.0464 N   0  0  0  0  0  0  0  0  0  0  0  0
   -8.4500   15.9676   24.0757 C   0  0  0  0  0  0  0  0  0  0  0  0
   -8.1556   14.7778   24.2459 O   0  0  0  0  0  0  0  0  0  0  0  0
   -8.9661   17.7552   24.8142 H   0  0  0  0  0  0  0  0  0  0  0  0
   -8.5214   16.5341   22.7406 O   0  0  0  0  0  0  0  0  0  0  0  0
   -8.0401   15.7310   21.6858 C   0  0  0  0  0  0  0  0  0  0  0  0
   -8.9611   16.0667   20.5296 C   0  0  0  0  0  0  0  0  0  0  0  0
   -8.3950   17.2369   19.9387 O   0  0  0  0  0  0  0  0  0  0  0  0
   -7.0051   17.3591   20.2737 C   0  0  0  0  0  0  0  0  0  0  0  0
   -6.7543   18.5757   20.9770 O   0  0  0  0  0  0  0  0  0  0  0  0
   -5.8215   18.3584   22.0428 C   0  0  0  0  0  0  0  0  0  0  0  0
   -5.8318   16.8703   22.3298 C   0  0  0  0  0  0  0  0  0  0  0  0
   -6.6873   16.2471   21.2385 C   0  0  0  0  0  0  0  0  0  0  0  0
   -7.8367   17.4423   27.1659 C   0  0  0  0  0  0  0  0  0  0  0  0
   -5.9076   18.6174   26.0761 C   0  0  0  0  0  0  0  0  0  0  0  0
   -4.6133   18.6359   25.5600 C   0  0  0  0  0  0  0  0  0  0  0  0
   -3.8578   17.4626   25.5688 C   0  0  0  0  0  0  0  0  0  0  0  0
   -4.3908   16.2872   26.0984 C   0  0  0  0  0  0  0  0  0  0  0  0
   -5.6822   16.2619   26.6180 C   0  0  0  0  0  0  0  0  0  0  0  0
   -6.4409   17.4309   26.6017 C   0  0  0  0  0  0  0  0  0  0  0  0
  9 10  1  0  0  0
 10 11  2  0  0  0
 10 15  1  0  0  0
 11 12  1  0  0  0
 12 13  2  0  0  0
 13 14  1  0  0  0
 13  6  1  0  0  0
 14 15  2  0  0  0
  6  7  2  0  0  0
  6  8  2  0  0  0
  6  5  1  0  0  0
  5 18  1  0  0  0
  5  4  1  0  0  0
 18 19  1  0  0  0
 19 20  1  0  0  0
 19 21  1  0  0  0
  4  1  1  0  0  0
  1  2  1  0  0  0
  1 22  1  0  0  0
 22 23  1  0  0  0
 22 36  1  0  0  0
 23 24  1  0  0  0
 24 25  2  0  0  0
 24 27  1  0  0  0
 27 28  1  0  0  0
 28 29  1  0  0  0
 28 35  1  0  0  0
 29 30  1  0  0  0
 30 31  1  0  0  0
 31 32  1  0  0  0
 31 35  1  0  0  0
 32 33  1  0  0  0
 33 34  1  0  0  0
 34 35  1  0  0  0
 36 42  1  0  0  0
 37 38  2  0  0  0
 37 42  1  0  0  0
 38 39  1  0  0  0
 39 40  2  0  0  0
 40 41  1  0  0  0
 41 42  2  0  0  0
  9 16  1  0  0  0
  9 17  1  0  0  0
  2  3  1  0  0  0
 23 26  1  0  0  0
M  END
> <minimizedAffinity>
-9.59657

$$$$
4LL3_017_A_201


 42 45  0  0  0  0  0  0  0  0999 V2000
   -9.2478   16.5900   28.1253 C   0  0  0  0  0  0  0  0  0  0  0  0
   -9.7443   17.5911   27.2115 O   0  0  0  0  0  0  0  0  0  0  0  0
   -9.7194   17.2433   26.3063 H   0  0  0  0  0  0  0  0  0  0  0  0
   -7.7667   16.2532   27.8932 C   0  0  0  0  0  0  0  0  0  0  0  0
   -7.4006   16.5983   26.5012 N   0  0  0  0  0  0  0  0  0  0  0  0
   -6.2087   17.7157   26.3755 S   0  0  0  0  0  0  0  0  0  0  0  0
   -5.3708   17.6499   27.5355 O   0  0  0  0  0  0  0  0  0  0  0  0
   -6.8373   18.9966   26.3448 O   0  0  0  0  0  0  0  0  0  0  0  0
   -2.9486   17.0347   21.6704 N   0  0  0  0  0  0  0  0  0  0  0  0
   -3.7184   17.1853   22.7809 C   0  0  0  0  0  0  0  0  0  0  0  0
   -3.2081   16.8612   24.0404 C   0  0  0  0  0  0  0  0  0  0  0  0
   -3.9975   17.0394   25.1761 C   0  0  0  0  0  0  0  0  0  0  0  0
   -5.3014   17.5287   25.0611 C   0  0  0  0  0  0  0  0  0  0  0  0
   -5.8052   17.8706   23.8010 C   0  0  0  0  0  0  0  0  0  0  0  0
   -5.0114   17.6978   22.6616 C   0  0  0  0  0  0  0  0  0  0  0  0
   -2.0361   16.6737   21.7493 H   0  0  0  0  0  0  0  0  0  0  0  0
   -3.3037   17.2866   20.7874 H   0  0  0  0  0  0  0  0  0  0  0  0
   -7.1636   15.3697   25.7058 C   0  0  0  0  0  0  0  0  0  0  0  0
   -8.2453   15.1399   24.6447 C   0  0  0  0  0  0  0  0  0  0  0  0
   -9.0504   16.4035   24.3441 C   0  0  0  0  0  0  0  0  0  0  0  0
   -7.6455   14.5503   23.3610 C   0  0  0  0  0  0  0  0  0  0  0  0
  -10.1491   15.3674   28.0581 C   0  0  0  0  0  0  0  0  0  0  0  0
  -10.4584   15.0923   29.4569 N   0  0  0  0  0  0  0  0  0  0  0  0
   -9.7352   14.2413   30.1744 C   0  0  0  0  0  0  0  0  0  0  0  0
   -8.7540   13.6152   29.7541 O   0  0  0  0  0  0  0  0  0  0  0  0
  -11.2218   15.5488   29.8789 H   0  0  0  0  0  0  0  0  0  0  0  0
  -10.1773   14.0981   31.5501 O   0  0  0  0  0  0  0  0  0  0  0  0
   -9.2083   14.3141   32.5519 C   0  0  0  0  0  0  0  0  0  0  0  0
   -9.1321   15.8243   32.6583 C   0  0  0  0  0  0  0  0  0  0  0  0
  -10.1843   16.1815   33.5551 O   0  0  0  0  0  0  0  0  0  0  0  0
  -10.5593   15.0656   34.3756 C   0  0  0  0  0  0  0  0  0  0  0  0
  -11.9325   14.7276   34.1814 O   0  0  0  0  0  0  0  0  0  0  0  0
  -12.1020   13.3050   34.1522 C   0  0  0  0  0  0  0  0  0  0  0  0
  -10.7401   12.7135   33.8484 C   0  0  0  0  0  0  0  0  0  0  0  0
   -9.7661   13.8799   33.8923 C   0  0  0  0  0  0  0  0  0  0  0  0
  -11.4945   15.6370   27.3793 C   0  0  0  0  0  0  0  0  0  0  0  0
  -11.5674   13.8703   25.6006 C   0  0  0  0  0  0  0  0  0  0  0  0
  -12.0793   12.6929   25.0587 C   0  0  0  0  0  0  0  0  0  0  0  0
  -13.1031   12.0216   25.7285 C   0  0  0  0  0  0  0  0  0  0  0  0
  -13.6004   12.5201   26.9329 C   0  0  0  0  0  0  0  0  0  0  0  0
  -13.0920   13.6944   27.4814 C   0  0  0  0  0  0  0  0  0  0  0  0
  -12.0756   14.3706   26.8089 C   0  0  0  0  0  0  0  0  0  0  0  0
  9 10  1  0  0  0
 10 11  2  0  0  0
 10 15  1  0  0  0
 11 12  1  0  0  0
 12 13  2  0  0  0
 13 14  1  0  0  0
 13  6  1  0  0  0
 14 15  2  0  0  0
  6  7  2  0  0  0
  6  8  2  0  0  0
  6  5  1  0  0  0
  5 18  1  0  0  0
  5  4  1  0  0  0
 18 19  1  0  0  0
 19 20  1  0  0  0
 19 21  1  0  0  0
  4  1  1  0  0  0
  1  2  1  0  0  0
  1 22  1  0  0  0
 22 23  1  0  0  0
 22 36  1  0  0  0
 23 24  1  0  0  0
 24 25  2  0  0  0
 24 27  1  0  0  0
 27 28  1  0  0  0
 28 29  1  0  0  0
 28 35  1  0  0  0
 29 30  1  0  0  0
 30 31  1  0  0  0
 31 32  1  0  0  0
 31 35  1  0  0  0
 32 33  1  0  0  0
 33 34  1  0  0  0
 34 35  1  0  0  0
 36 42  1  0  0  0
 37 38  2  0  0  0
 37 42  1  0  0  0
 38 39  1  0  0  0
 39 40  2  0  0  0
 40 41  1  0  0  0
 41 42  2  0  0  0
  9 16  1  0  0  0
  9 17  1  0  0  0
  2  3  1  0  0  0
 23 26  1  0  0  0
M  END
> <minimizedAffinity>
-9.50944

$$$$
4LL3_017_A_201


 42 45  0  0  0  0  0  0  0  0999 V2000
   -8.4077   14.3084   26.1265 C   0  0  0  0  0  0  0  0  0  0  0  0
   -7.9726   13.0129   25.6616 O   0  0  0  0  0  0  0  0  0  0  0  0
   -8.6015   12.3357   25.9560 H   0  0  0  0  0  0  0  0  0  0  0  0
   -8.3966   14.4264   27.6585 C   0  0  0  0  0  0  0  0  0  0  0  0
   -8.2434   15.8492   28.0368 N   0  0  0  0  0  0  0  0  0  0  0  0
   -9.4392   16.4229   28.9990 S   0  0  0  0  0  0  0  0  0  0  0  0
  -10.6053   16.6787   28.2073 O   0  0  0  0  0  0  0  0  0  0  0  0
   -8.9818   17.6609   29.5420 O   0  0  0  0  0  0  0  0  0  0  0  0
  -10.8341   12.8189   33.2763 N   0  0  0  0  0  0  0  0  0  0  0  0
  -10.5034   13.6610   32.2615 C   0  0  0  0  0  0  0  0  0  0  0  0
  -11.3645   13.8247   31.1735 C   0  0  0  0  0  0  0  0  0  0  0  0
  -11.0270   14.7069   30.1477 C   0  0  0  0  0  0  0  0  0  0  0  0
   -9.8260   15.4198   30.1947 C   0  0  0  0  0  0  0  0  0  0  0  0
   -8.9729   15.2693   31.2939 C   0  0  0  0  0  0  0  0  0  0  0  0
   -9.3138   14.3887   32.3266 C   0  0  0  0  0  0  0  0  0  0  0  0
  -11.6719   12.3036   33.2350 H   0  0  0  0  0  0  0  0  0  0  0  0
  -10.2358   12.7245   34.0523 H   0  0  0  0  0  0  0  0  0  0  0  0
   -6.8772   16.1061   28.5521 C   0  0  0  0  0  0  0  0  0  0  0  0
   -5.9366   16.6544   27.4734 C   0  0  0  0  0  0  0  0  0  0  0  0
   -6.4585   17.9433   26.8397 C   0  0  0  0  0  0  0  0  0  0  0  0
   -4.5163   16.8460   28.0223 C   0  0  0  0  0  0  0  0  0  0  0  0
   -9.7662   14.6217   25.5199 C   0  0  0  0  0  0  0  0  0  0  0  0
   -9.4384   15.1544   24.2021 N   0  0  0  0  0  0  0  0  0  0  0  0
   -9.3027   16.4584   23.9935 C   0  0  0  0  0  0  0  0  0  0  0  0
   -9.4295   17.3319   24.8608 O   0  0  0  0  0  0  0  0  0  0  0  0
   -9.3149   14.5320   23.4494 H   0  0  0  0  0  0  0  0  0  0  0  0
   -8.9639   16.8095   22.6258 O   0  0  0  0  0  0  0  0  0  0  0  0
   -8.5302   15.7582   21.7915 C   0  0  0  0  0  0  0  0  0  0  0  0
   -9.3505   15.9394   20.5297 C   0  0  0  0  0  0  0  0  0  0  0  0
   -8.6249   16.8950   19.7556 O   0  0  0  0  0  0  0  0  0  0  0  0
   -7.2475   16.9388   20.1554 C   0  0  0  0  0  0  0  0  0  0  0  0
   -6.8901   18.2425   20.6142 O   0  0  0  0  0  0  0  0  0  0  0  0
   -6.0401   18.1564   21.7645 C   0  0  0  0  0  0  0  0  0  0  0  0
   -6.2371   16.7703   22.3449 C   0  0  0  0  0  0  0  0  0  0  0  0
   -7.1071   16.0257   21.3450 C   0  0  0  0  0  0  0  0  0  0  0  0
  -10.6229   13.3787   25.2653 C   0  0  0  0  0  0  0  0  0  0  0  0
  -11.8902   12.0784   26.9954 C   0  0  0  0  0  0  0  0  0  0  0  0
  -12.9032   11.9595   27.9449 C   0  0  0  0  0  0  0  0  0  0  0  0
  -13.7608   13.0377   28.1671 C   0  0  0  0  0  0  0  0  0  0  0  0
  -13.5975   14.2247   27.4526 C   0  0  0  0  0  0  0  0  0  0  0  0
  -12.5861   14.3515   26.5043 C   0  0  0  0  0  0  0  0  0  0  0  0
  -11.7345   13.2722   26.2751 C   0  0  0  0  0  0  0  0  0  0  0  0
  9 10  1  0  0  0
 10 11  2  0  0  0
 10 15  1  0  0  0
 11 12  1  0  0  0
 12 13  2  0  0  0
 13 14  1  0  0  0
 13  6  1  0  0  0
 14 15  2  0  0  0
  6  7  2  0  0  0
  6  8  2  0  0  0
  6  5  1  0  0  0
  5 18  1  0  0  0
  5  4  1  0  0  0
 18 19  1  0  0  0
 19 20  1  0  0  0
 19 21  1  0  0  0
  4  1  1  0  0  0
  1  2  1  0  0  0
  1 22  1  0  0  0
 22 23  1  0  0  0
 22 36  1  0  0  0
 23 24  1  0  0  0
 24 25  2  0  0  0
 24 27  1  0  0  0
 27 28  1  0  0  0
 28 29  1  0  0  0
 28 35  1  0  0  0
 29 30  1  0  0  0
 30 31  1  0  0  0
 31 32  1  0  0  0
 31 35  1  0  0  0
 32 33  1  0  0  0
 33 34  1  0  0  0
 34 35  1  0  0  0
 36 42  1  0  0  0
 37 38  2  0  0  0
 37 42  1  0  0  0
 38 39  1  0  0  0
 39 40  2  0  0  0
 40 41  1  0  0  0
 41 42  2  0  0  0
  9 16  1  0  0  0
  9 17  1  0  0  0
  2  3  1  0  0  0
 23 26  1  0  0  0
M  END
> <minimizedAffinity>
-9.42052

$$$$
4LL3_017_A_201


 42 45  0  0  0  0  0  0  0  0999 V2000
   -9.8628   16.0003   25.4230 C   0  0  0  0  0  0  0  0  0  0  0  0
  -10.5435   16.9465   26.2745 O   0  0  0  0  0  0  0  0  0  0  0  0
  -10.2358   16.8390   27.1881 H   0  0  0  0  0  0  0  0  0  0  0  0
  -10.2015   14.5407   25.7638 C   0  0  0  0  0  0  0  0  0  0  0  0
  -10.7742   14.4787   27.1273 N   0  0  0  0  0  0  0  0  0  0  0  0
  -12.3314   13.9719   27.1813 S   0  0  0  0  0  0  0  0  0  0  0  0
  -12.6037   13.1489   26.0409 O   0  0  0  0  0  0  0  0  0  0  0  0
  -13.1535   15.1360   27.1043 O   0  0  0  0  0  0  0  0  0  0  0  0
  -13.5885   11.0149   31.9673 N   0  0  0  0  0  0  0  0  0  0  0  0
  -13.2827   11.7087   30.8389 C   0  0  0  0  0  0  0  0  0  0  0  0
  -13.0976   11.0370   29.6279 C   0  0  0  0  0  0  0  0  0  0  0  0
  -12.8054   11.7590   28.4712 C   0  0  0  0  0  0  0  0  0  0  0  0
  -12.6840   13.1504   28.5179 C   0  0  0  0  0  0  0  0  0  0  0  0
  -12.8880   13.8240   29.7276 C   0  0  0  0  0  0  0  0  0  0  0  0
  -13.1872   13.1006   30.8874 C   0  0  0  0  0  0  0  0  0  0  0  0
  -13.6570   10.0332   31.9382 H   0  0  0  0  0  0  0  0  0  0  0  0
  -13.7415   11.4942   32.8136 H   0  0  0  0  0  0  0  0  0  0  0  0
   -9.8668   13.7421   28.0395 C   0  0  0  0  0  0  0  0  0  0  0  0
   -9.1226   14.6721   29.0040 C   0  0  0  0  0  0  0  0  0  0  0  0
   -9.8853   15.9682   29.2752 C   0  0  0  0  0  0  0  0  0  0  0  0
   -8.7784   13.9508   30.3141 C   0  0  0  0  0  0  0  0  0  0  0  0
   -8.3697   16.2844   25.4610 C   0  0  0  0  0  0  0  0  0  0  0  0
   -8.0274   16.5066   24.0605 N   0  0  0  0  0  0  0  0  0  0  0  0
   -7.5560   15.5286   23.2966 C   0  0  0  0  0  0  0  0  0  0  0  0
   -7.3667   14.3647   23.6717 O   0  0  0  0  0  0  0  0  0  0  0  0
   -8.1489   17.4033   23.6726 H   0  0  0  0  0  0  0  0  0  0  0  0
   -7.2806   15.9244   21.9269 O   0  0  0  0  0  0  0  0  0  0  0  0
   -7.9376   15.1960   20.9134 C   0  0  0  0  0  0  0  0  0  0  0  0
   -9.2479   15.9360   20.7312 C   0  0  0  0  0  0  0  0  0  0  0  0
   -8.9473   16.9934   19.8198 O   0  0  0  0  0  0  0  0  0  0  0  0
   -7.7694   16.6933   19.0571 C   0  0  0  0  0  0  0  0  0  0  0  0
   -6.7580   17.6777   19.2710 O   0  0  0  0  0  0  0  0  0  0  0  0
   -5.4684   17.0614   19.3719 C   0  0  0  0  0  0  0  0  0  0  0  0
   -5.7111   15.6023   19.7022 C   0  0  0  0  0  0  0  0  0  0  0  0
   -7.2144   15.4017   19.5977 C   0  0  0  0  0  0  0  0  0  0  0  0
   -8.0135   17.5838   26.1879 C   0  0  0  0  0  0  0  0  0  0  0  0
   -6.2511   16.7313   27.7554 C   0  0  0  0  0  0  0  0  0  0  0  0
   -4.9366   16.6802   28.2153 C   0  0  0  0  0  0  0  0  0  0  0  0
   -3.9639   17.4622   27.5910 C   0  0  0  0  0  0  0  0  0  0  0  0
   -4.3039   18.2782   26.5117 C   0  0  0  0  0  0  0  0  0  0  0  0
   -5.6146   18.3323   26.0453 C   0  0  0  0  0  0  0  0  0  0  0  0
   -6.5887   17.5585   26.6736 C   0  0  0  0  0  0  0  0  0  0  0  0
  9 10  1  0  0  0
 10 11  2  0  0  0
 10 15  1  0  0  0
 11 12  1  0  0  0
 12 13  2  0  0  0
 13 14  1  0  0  0
 13  6  1  0  0  0
 14 15  2  0  0  0
  6  7  2  0  0  0
  6  8  2  0  0  0
  6  5  1  0  0  0
  5 18  1  0  0  0
  5  4  1  0  0  0
 18 19  1  0  0  0
 19 20  1  0  0  0
 19 21  1  0  0  0
  4  1  1  0  0  0
  1  2  1  0  0  0
  1 22  1  0  0  0
 22 23  1  0  0  0
 22 36  1  0  0  0
 23 24  1  0  0  0
 24 25  2  0  0  0
 24 27  1  0  0  0
 27 28  1  0  0  0
 28 29  1  0  0  0
 28 35  1  0  0  0
 29 30  1  0  0  0
 30 31  1  0  0  0
 31 32  1  0  0  0
 31 35  1  0  0  0
 32 33  1  0  0  0
 33 34  1  0  0  0
 34 35  1  0  0  0
 36 42  1  0  0  0
 37 38  2  0  0  0
 37 42  1  0  0  0
 38 39  1  0  0  0
 39 40  2  0  0  0
 40 41  1  0  0  0
 41 42  2  0  0  0
  9 16  1  0  0  0
  9 17  1  0  0  0
  2  3  1  0  0  0
 23 26  1  0  0  0
M  END
> <minimizedAffinity>
-9.35646

$$$$
4LL3_017_A_201


 42 45  0  0  0  0  0  0  0  0999 V2000
   -9.7062   16.9943   25.7585 C   0  0  0  0  0  0  0  0  0  0  0  0
   -9.9538   18.3769   26.0914 O   0  0  0  0  0  0  0  0  0  0  0  0
   -9.5173   18.5905   26.9310 H   0  0  0  0  0  0  0  0  0  0  0  0
  -10.3321   16.0174   26.7660 C   0  0  0  0  0  0  0  0  0  0  0  0
   -9.2554   15.2691   27.4528 N   0  0  0  0  0  0  0  0  0  0  0  0
   -8.8068   15.9054   28.8945 S   0  0  0  0  0  0  0  0  0  0  0  0
   -9.2491   17.2658   28.9723 O   0  0  0  0  0  0  0  0  0  0  0  0
   -7.3802   15.8918   28.9324 O   0  0  0  0  0  0  0  0  0  0  0  0
  -10.9014   12.9877   33.4032 N   0  0  0  0  0  0  0  0  0  0  0  0
  -10.4120   13.6694   32.3337 C   0  0  0  0  0  0  0  0  0  0  0  0
  -11.2619   14.4544   31.5503 C   0  0  0  0  0  0  0  0  0  0  0  0
  -10.7470   15.1673   30.4681 C   0  0  0  0  0  0  0  0  0  0  0  0
   -9.3874   15.0917   30.1540 C   0  0  0  0  0  0  0  0  0  0  0  0
   -8.5337   14.3200   30.9504 C   0  0  0  0  0  0  0  0  0  0  0  0
   -9.0486   13.6092   32.0401 C   0  0  0  0  0  0  0  0  0  0  0  0
  -11.8622   13.0270   33.6144 H   0  0  0  0  0  0  0  0  0  0  0  0
  -10.2950   12.4547   33.9667 H   0  0  0  0  0  0  0  0  0  0  0  0
   -9.5785   13.8230   27.5046 C   0  0  0  0  0  0  0  0  0  0  0  0
  -11.0173   13.5271   27.0674 C   0  0  0  0  0  0  0  0  0  0  0  0
  -11.0888   12.8734   25.6880 C   0  0  0  0  0  0  0  0  0  0  0  0
  -11.7523   12.6820   28.1165 C   0  0  0  0  0  0  0  0  0  0  0  0
   -8.2101   16.7866   25.5857 C   0  0  0  0  0  0  0  0  0  0  0  0
   -8.0227   16.8306   24.1397 N   0  0  0  0  0  0  0  0  0  0  0  0
   -7.7118   15.7426   23.4456 C   0  0  0  0  0  0  0  0  0  0  0  0
   -7.5573   14.6138   23.9287 O   0  0  0  0  0  0  0  0  0  0  0  0
   -8.1293   17.6877   23.6673 H   0  0  0  0  0  0  0  0  0  0  0  0
   -7.5754   15.9672   22.0176 O   0  0  0  0  0  0  0  0  0  0  0  0
   -7.8973   14.8844   21.1730 C   0  0  0  0  0  0  0  0  0  0  0  0
   -9.3921   15.0241   20.9640 C   0  0  0  0  0  0  0  0  0  0  0  0
   -9.5257   15.9475   19.8831 O   0  0  0  0  0  0  0  0  0  0  0  0
   -8.3236   15.9989   19.1012 C   0  0  0  0  0  0  0  0  0  0  0  0
   -7.7743   17.3165   19.0951 O   0  0  0  0  0  0  0  0  0  0  0  0
   -6.3466   17.2677   19.2063 C   0  0  0  0  0  0  0  0  0  0  0  0
   -6.0033   15.9044   19.7724 C   0  0  0  0  0  0  0  0  0  0  0  0
   -7.3104   15.1285   19.7974 C   0  0  0  0  0  0  0  0  0  0  0  0
   -7.3652   17.9317   26.1501 C   0  0  0  0  0  0  0  0  0  0  0  0
   -5.2052   16.6669   25.9919 C   0  0  0  0  0  0  0  0  0  0  0  0
   -3.8845   16.5396   25.5661 C   0  0  0  0  0  0  0  0  0  0  0  0
   -3.2976   17.5778   24.8414 C   0  0  0  0  0  0  0  0  0  0  0  0
   -4.0303   18.7258   24.5388 C   0  0  0  0  0  0  0  0  0  0  0  0
   -5.3510   18.8587   24.9588 C   0  0  0  0  0  0  0  0  0  0  0  0
   -5.9355   17.8263   25.6902 C   0  0  0  0  0  0  0  0  0  0  0  0
  9 10  1  0  0  0
 10 11  2  0  0  0
 10 15  1  0  0  0
 11 12  1  0  0  0
 12 13  2  0  0  0
 13 14  1  0  0  0
 13  6  1  0  0  0
 14 15  2  0  0  0
  6  7  2  0  0  0
  6  8  2  0  0  0
  6  5  1  0  0  0
  5 18  1  0  0  0
  5  4  1  0  0  0
 18 19  1  0  0  0
 19 20  1  0  0  0
 19 21  1  0  0  0
  4  1  1  0  0  0
  1  2  1  0  0  0
  1 22  1  0  0  0
 22 23  1  0  0  0
 22 36  1  0  0  0
 23 24  1  0  0  0
 24 25  2  0  0  0
 24 27  1  0  0  0
 27 28  1  0  0  0
 28 29  1  0  0  0
 28 35  1  0  0  0
 29 30  1  0  0  0
 30 31  1  0  0  0
 31 32  1  0  0  0
 31 35  1  0  0  0
 32 33  1  0  0  0
 33 34  1  0  0  0
 34 35  1  0  0  0
 36 42  1  0  0  0
 37 38  2  0  0  0
 37 42  1  0  0  0
 38 39  1  0  0  0
 39 40  2  0  0  0
 40 41  1  0  0  0
 41 42  2  0  0  0
  9 16  1  0  0  0
  9 17  1  0  0  0
  2  3  1  0  0  0
 23 26  1  0  0  0
M  END
> <minimizedAffinity>
-9.33849

$$$$
4LL3_017_A_201


 42 45  0  0  0  0  0  0  0  0999 V2000
   -7.6555   16.0577   24.6889 C   0  0  0  0  0  0  0  0  0  0  0  0
   -8.1973   17.2872   24.1612 O   0  0  0  0  0  0  0  0  0  0  0  0
   -8.1187   17.2866   23.1944 H   0  0  0  0  0  0  0  0  0  0  0  0
   -6.1468   15.9139   24.4352 C   0  0  0  0  0  0  0  0  0  0  0  0
   -5.4121   16.8375   25.3284 N   0  0  0  0  0  0  0  0  0  0  0  0
   -4.4656   17.9217   24.5451 S   0  0  0  0  0  0  0  0  0  0  0  0
   -3.1067   17.7600   24.9683 O   0  0  0  0  0  0  0  0  0  0  0  0
   -4.9079   19.2216   24.9343 O   0  0  0  0  0  0  0  0  0  0  0  0
   -4.7120   17.4192   18.8078 N   0  0  0  0  0  0  0  0  0  0  0  0
   -4.6546   17.5277   20.1618 C   0  0  0  0  0  0  0  0  0  0  0  0
   -3.5081   17.1269   20.8522 C   0  0  0  0  0  0  0  0  0  0  0  0
   -3.4499   17.2620   22.2389 C   0  0  0  0  0  0  0  0  0  0  0  0
   -4.5370   17.7846   22.9445 C   0  0  0  0  0  0  0  0  0  0  0  0
   -5.6779   18.2031   22.2502 C   0  0  0  0  0  0  0  0  0  0  0  0
   -5.7345   18.0735   20.8582 C   0  0  0  0  0  0  0  0  0  0  0  0
   -3.9531   17.0350   18.3122 H   0  0  0  0  0  0  0  0  0  0  0  0
   -5.5125   17.7248   18.3230 H   0  0  0  0  0  0  0  0  0  0  0  0
   -6.3323   17.4439   26.3202 C   0  0  0  0  0  0  0  0  0  0  0  0
   -5.9952   17.0373   27.7589 C   0  0  0  0  0  0  0  0  0  0  0  0
   -6.9615   15.9923   28.3151 C   0  0  0  0  0  0  0  0  0  0  0  0
   -4.5413   16.5596   27.8733 C   0  0  0  0  0  0  0  0  0  0  0  0
   -8.4600   14.8881   24.1447 C   0  0  0  0  0  0  0  0  0  0  0  0
   -9.2615   14.4624   25.2868 N   0  0  0  0  0  0  0  0  0  0  0  0
   -8.7754   13.6415   26.2098 C   0  0  0  0  0  0  0  0  0  0  0  0
   -7.6318   13.1687   26.2064 O   0  0  0  0  0  0  0  0  0  0  0  0
  -10.1850   14.7919   25.3752 H   0  0  0  0  0  0  0  0  0  0  0  0
   -9.7062   13.3333   27.2809 O   0  0  0  0  0  0  0  0  0  0  0  0
  -11.0717   13.5717   27.0207 C   0  0  0  0  0  0  0  0  0  0  0  0
  -11.7293   12.2348   27.3000 C   0  0  0  0  0  0  0  0  0  0  0  0
  -11.9662   12.2307   28.7082 O   0  0  0  0  0  0  0  0  0  0  0  0
  -11.9910   13.5681   29.2277 C   0  0  0  0  0  0  0  0  0  0  0  0
  -10.9769   13.7512   30.2154 O   0  0  0  0  0  0  0  0  0  0  0  0
  -10.3584   15.0356   30.0704 C   0  0  0  0  0  0  0  0  0  0  0  0
  -10.6580   15.5030   28.6602 C   0  0  0  0  0  0  0  0  0  0  0  0
  -11.6343   14.4873   28.0891 C   0  0  0  0  0  0  0  0  0  0  0  0
   -9.4621   15.2885   23.0589 C   0  0  0  0  0  0  0  0  0  0  0  0
   -7.6316   14.5972   21.4900 C   0  0  0  0  0  0  0  0  0  0  0  0
   -7.0094   14.6172   20.2433 C   0  0  0  0  0  0  0  0  0  0  0  0
   -7.5612   15.3851   19.2169 C   0  0  0  0  0  0  0  0  0  0  0  0
   -8.7291   16.1160   19.4358 C   0  0  0  0  0  0  0  0  0  0  0  0
   -9.3576   16.0987   20.6781 C   0  0  0  0  0  0  0  0  0  0  0  0
   -8.8024   15.3393   21.7065 C   0  0  0  0  0  0  0  0  0  0  0  0
  9 10  1  0  0  0
 10 11  2  0  0  0
 10 15  1  0  0  0
 11 12  1  0  0  0
 12 13  2  0  0  0
 13 14  1  0  0  0
 13  6  1  0  0  0
 14 15  2  0  0  0
  6  7  2  0  0  0
  6  8  2  0  0  0
  6  5  1  0  0  0
  5 18  1  0  0  0
  5  4  1  0  0  0
 18 19  1  0  0  0
 19 20  1  0  0  0
 19 21  1  0  0  0
  4  1  1  0  0  0
  1  2  1  0  0  0
  1 22  1  0  0  0
 22 23  1  0  0  0
 22 36  1  0  0  0
 23 24  1  0  0  0
 24 25  2  0  0  0
 24 27  1  0  0  0
 27 28  1  0  0  0
 28 29  1  0  0  0
 28 35  1  0  0  0
 29 30  1  0  0  0
 30 31  1  0  0  0
 31 32  1  0  0  0
 31 35  1  0  0  0
 32 33  1  0  0  0
 33 34  1  0  0  0
 34 35  1  0  0  0
 36 42  1  0  0  0
 37 38  2  0  0  0
 37 42  1  0  0  0
 38 39  1  0  0  0
 39 40  2  0  0  0
 40 41  1  0  0  0
 41 42  2  0  0  0
  9 16  1  0  0  0
  9 17  1  0  0  0
  2  3  1  0  0  0
 23 26  1  0  0  0
M  END
> <minimizedAffinity>
-9.23419

$$$$
4LL3_017_A_201


 42 45  0  0  0  0  0  0  0  0999 V2000
   -9.4400   16.6959   25.3071 C   0  0  0  0  0  0  0  0  0  0  0  0
   -9.1348   17.9869   25.8763 O   0  0  0  0  0  0  0  0  0  0  0  0
   -8.2046   18.0075   26.1508 H   0  0  0  0  0  0  0  0  0  0  0  0
   -9.3243   15.5524   26.3270 C   0  0  0  0  0  0  0  0  0  0  0  0
  -10.6623   15.2648   26.8908 N   0  0  0  0  0  0  0  0  0  0  0  0
  -11.3015   13.8340   26.4122 S   0  0  0  0  0  0  0  0  0  0  0  0
  -10.2438   12.9028   26.1548 O   0  0  0  0  0  0  0  0  0  0  0  0
  -11.9983   14.0747   25.1901 O   0  0  0  0  0  0  0  0  0  0  0  0
  -14.9047   11.5488   30.2883 N   0  0  0  0  0  0  0  0  0  0  0  0
  -14.0488   12.0905   29.3816 C   0  0  0  0  0  0  0  0  0  0  0  0
  -12.8253   11.4723   29.1116 C   0  0  0  0  0  0  0  0  0  0  0  0
  -11.9632   12.0235   28.1642 C   0  0  0  0  0  0  0  0  0  0  0  0
  -12.3098   13.1983   27.4915 C   0  0  0  0  0  0  0  0  0  0  0  0
  -13.5436   13.8065   27.7491 C   0  0  0  0  0  0  0  0  0  0  0  0
  -14.4119   13.2506   28.6952 C   0  0  0  0  0  0  0  0  0  0  0  0
  -14.6532   10.7307   30.7750 H   0  0  0  0  0  0  0  0  0  0  0  0
  -15.7760   11.9744   30.4583 H   0  0  0  0  0  0  0  0  0  0  0  0
  -10.6618   15.4654   28.3598 C   0  0  0  0  0  0  0  0  0  0  0  0
   -9.2778   15.2482   28.9813 C   0  0  0  0  0  0  0  0  0  0  0  0
   -8.9023   16.3460   29.9759 C   0  0  0  0  0  0  0  0  0  0  0  0
   -9.1722   13.8600   29.6269 C   0  0  0  0  0  0  0  0  0  0  0  0
   -8.5735   16.4796   24.0766 C   0  0  0  0  0  0  0  0  0  0  0  0
   -7.2317   16.3199   24.6261 N   0  0  0  0  0  0  0  0  0  0  0  0
   -6.1690   16.8460   24.0293 C   0  0  0  0  0  0  0  0  0  0  0  0
   -6.1983   17.5084   22.9845 O   0  0  0  0  0  0  0  0  0  0  0  0
   -7.1113   15.8096   25.4594 H   0  0  0  0  0  0  0  0  0  0  0  0
   -4.9160   16.5988   24.7204 O   0  0  0  0  0  0  0  0  0  0  0  0
   -4.2647   17.7222   25.2708 C   0  0  0  0  0  0  0  0  0  0  0  0
   -5.1605   18.8822   24.8838 C   0  0  0  0  0  0  0  0  0  0  0  0
   -6.1623   18.9258   25.9003 O   0  0  0  0  0  0  0  0  0  0  0  0
   -5.7095   18.2718   27.0946 C   0  0  0  0  0  0  0  0  0  0  0  0
   -6.5622   17.1779   27.4325 O   0  0  0  0  0  0  0  0  0  0  0  0
   -5.7908   16.0606   27.8905 C   0  0  0  0  0  0  0  0  0  0  0  0
   -4.3770   16.2766   27.3890 C   0  0  0  0  0  0  0  0  0  0  0  0
   -4.3645   17.6704   26.7820 C   0  0  0  0  0  0  0  0  0  0  0  0
   -8.8785   15.1747   23.3365 C   0  0  0  0  0  0  0  0  0  0  0  0
   -9.2665   16.0624   21.0231 C   0  0  0  0  0  0  0  0  0  0  0  0
   -8.9206   16.1801   19.6783 C   0  0  0  0  0  0  0  0  0  0  0  0
   -7.7984   15.5022   19.2001 C   0  0  0  0  0  0  0  0  0  0  0  0
   -7.0266   14.7238   20.0630 C   0  0  0  0  0  0  0  0  0  0  0  0
   -7.3648   14.6037   21.4082 C   0  0  0  0  0  0  0  0  0  0  0  0
   -8.4904   15.2730   21.8851 C   0  0  0  0  0  0  0  0  0  0  0  0
  9 10  1  0  0  0
 10 11  2  0  0  0
 10 15  1  0  0  0
 11 12  1  0  0  0
 12 13  2  0  0  0
 13 14  1  0  0  0
 13  6  1  0  0  0
 14 15  2  0  0  0
  6  7  2  0  0  0
  6  8  2  0  0  0
  6  5  1  0  0  0
  5 18  1  0  0  0
  5  4  1  0  0  0
 18 19  1  0  0  0
 19 20  1  0  0  0
 19 21  1  0  0  0
  4  1  1  0  0  0
  1  2  1  0  0  0
  1 22  1  0  0  0
 22 23  1  0  0  0
 22 36  1  0  0  0
 23 24  1  0  0  0
 24 25  2  0  0  0
 24 27  1  0  0  0
 27 28  1  0  0  0
 28 29  1  0  0  0
 28 35  1  0  0  0
 29 30  1  0  0  0
 30 31  1  0  0  0
 31 32  1  0  0  0
 31 35  1  0  0  0
 32 33  1  0  0  0
 33 34  1  0  0  0
 34 35  1  0  0  0
 36 42  1  0  0  0
 37 38  2  0  0  0
 37 42  1  0  0  0
 38 39  1  0  0  0
 39 40  2  0  0  0
 40 41  1  0  0  0
 41 42  2  0  0  0
  9 16  1  0  0  0
  9 17  1  0  0  0
  2  3  1  0  0  0
 23 26  1  0  0  0
M  END
> <minimizedAffinity>
-9.16997

$$$$
