6BDY_SFG_A_1301


 36 38  0  0  0  0  0  0  0  0999 V2000
   -8.3818   15.0387  -16.3643 C   0  0  0  0  0  0  0  0  0  0  0  0
   -8.0273   13.7263  -15.8995 O   0  0  0  0  0  0  0  0  0  0  0  0
   -8.9435   14.7773  -17.7558 C   0  0  0  0  0  0  0  0  0  0  0  0
   -8.7922   15.9111  -18.6111 O   0  0  0  0  0  0  0  0  0  0  0  0
   -8.1280   13.5900  -18.2239 C   0  0  0  0  0  0  0  0  0  0  0  0
   -6.8194   13.9967  -18.6425 O   0  0  0  0  0  0  0  0  0  0  0  0
   -7.9586   12.7942  -16.9757 C   0  0  0  0  0  0  0  0  0  0  0  0
   -7.8545   16.1537  -18.6636 H   0  0  0  0  0  0  0  0  0  0  0  0
   -6.3774   14.4622  -17.9152 H   0  0  0  0  0  0  0  0  0  0  0  0
   -9.0349   11.8225  -16.7752 N   0  0  0  0  0  0  0  0  0  0  0  0
  -10.1097   11.9370  -15.9754 C   0  0  0  0  0  0  0  0  0  0  0  0
  -10.8636   10.7992  -16.0156 N   0  0  0  0  0  0  0  0  0  0  0  0
  -10.2482    9.9508  -16.8516 C   0  0  0  0  0  0  0  0  0  0  0  0
  -10.4976    8.5886  -17.3277 C   0  0  0  0  0  0  0  0  0  0  0  0
  -11.5987    7.8980  -16.9056 N   0  0  0  0  0  0  0  0  0  0  0  0
   -9.5463    8.0963  -18.1612 N   0  0  0  0  0  0  0  0  0  0  0  0
   -8.4777    8.7967  -18.5973 C   0  0  0  0  0  0  0  0  0  0  0  0
   -8.1967   10.0623  -18.1954 N   0  0  0  0  0  0  0  0  0  0  0  0
   -9.0477   10.6241  -17.3356 C   0  0  0  0  0  0  0  0  0  0  0  0
  -12.2453    8.3259  -16.2990 H   0  0  0  0  0  0  0  0  0  0  0  0
  -11.7453    6.9727  -17.2082 H   0  0  0  0  0  0  0  0  0  0  0  0
   -9.3643   15.7947  -15.4548 C   0  0  0  0  0  0  0  0  0  0  0  0
   -8.8560   17.1753  -14.9900 C   0  0  0  0  0  0  0  0  0  0  0  0
   -8.0978   17.7888  -16.1127 N   0  0  0  0  0  0  0  0  0  0  0  0
   -8.7189   17.9195  -16.9112 H   0  0  0  0  0  0  0  0  0  0  0  0
   -7.3274   17.1752  -16.3781 H   0  0  0  0  0  0  0  0  0  0  0  0
   -9.9819   18.1658  -14.6441 C   0  0  0  0  0  0  0  0  0  0  0  0
  -10.0944   19.3569  -15.6039 C   0  0  0  0  0  0  0  0  0  0  0  0
  -12.2633   18.2593  -15.9230 N   0  0  0  0  0  0  0  0  0  0  0  0
  -11.3693   19.3096  -16.4561 C   0  0  0  0  0  0  0  0  0  0  0  0
  -13.1144   18.2204  -16.4838 H   0  0  0  0  0  0  0  0  0  0  0  0
  -12.5031   18.4758  -14.9555 H   0  0  0  0  0  0  0  0  0  0  0  0
  -11.0712   19.0504  -17.9077 C   0  0  0  0  0  0  0  0  0  0  0  0
  -10.5268   17.9719  -18.2384 O   0  0  0  0  0  0  0  0  0  0  0  0
  -11.4022   19.9174  -18.7591 O   0  0  0  0  0  0  0  0  0  0  0  0
  -11.8080   20.7152  -18.4820 H   0  0  0  0  0  0  0  0  0  0  0  0
 29 30  1  0  0  0
 30 33  1  0  0  0
 30 28  1  0  0  0
 33 34  2  0  0  0
 33 35  1  0  0  0
 28 27  1  0  0  0
 27 23  1  0  0  0
 23 24  1  0  0  0
 23 22  1  0  0  0
 22  1  1  0  0  0
  1  2  1  0  0  0
  1  3  1  0  0  0
  2  7  1  0  0  0
  3  4  1  0  0  0
  3  5  1  0  0  0
  5  6  1  0  0  0
  5  7  1  0  0  0
  7 10  1  0  0  0
 10 11  1  0  0  0
 10 19  1  0  0  0
 11 12  2  0  0  0
 12 13  1  0  0  0
 13 14  1  0  0  0
 13 19  2  0  0  0
 14 15  1  0  0  0
 14 16  2  0  0  0
 16 17  1  0  0  0
 17 18  2  0  0  0
 18 19  1  0  0  0
 29 31  1  0  0  0
 29 32  1  0  0  0
 35 36  1  0  0  0
 24 25  1  0  0  0
 24 26  1  0  0  0
  4  8  1  0  0  0
  6  9  1  0  0  0
 15 20  1  0  0  0
 15 21  1  0  0  0
M  END
> <minimizedAffinity>
-8.74984

$$$$
6BDY_SFG_A_1301


 36 38  0  0  0  0  0  0  0  0999 V2000
   -7.9807   15.0893  -16.1559 C   0  0  0  0  0  0  0  0  0  0  0  0
   -7.6590   13.7120  -15.9032 O   0  0  0  0  0  0  0  0  0  0  0  0
   -8.7454   15.0342  -17.4720 C   0  0  0  0  0  0  0  0  0  0  0  0
   -8.6336   16.2565  -18.2025 O   0  0  0  0  0  0  0  0  0  0  0  0
   -8.0876   13.8731  -18.1884 C   0  0  0  0  0  0  0  0  0  0  0  0
   -6.8236   14.2589  -18.7421 O   0  0  0  0  0  0  0  0  0  0  0  0
   -7.8046   12.9196  -17.0791 C   0  0  0  0  0  0  0  0  0  0  0  0
   -7.6973   16.4535  -18.3619 H   0  0  0  0  0  0  0  0  0  0  0  0
   -6.2542   14.6056  -18.0374 H   0  0  0  0  0  0  0  0  0  0  0  0
   -8.9089   11.9891  -16.8390 N   0  0  0  0  0  0  0  0  0  0  0  0
   -9.9735   12.1635  -16.0363 C   0  0  0  0  0  0  0  0  0  0  0  0
  -10.7624   11.0490  -16.0333 N   0  0  0  0  0  0  0  0  0  0  0  0
  -10.1800   10.1545  -16.8446 C   0  0  0  0  0  0  0  0  0  0  0  0
  -10.4751    8.7857  -17.2733 C   0  0  0  0  0  0  0  0  0  0  0  0
  -11.5936    8.1442  -16.8210 N   0  0  0  0  0  0  0  0  0  0  0  0
   -9.5459    8.2366  -18.0961 N   0  0  0  0  0  0  0  0  0  0  0  0
   -8.4596    8.8885  -18.5626 C   0  0  0  0  0  0  0  0  0  0  0  0
   -8.1365   10.1574  -18.2051 N   0  0  0  0  0  0  0  0  0  0  0  0
   -8.9631   10.7737  -17.3588 C   0  0  0  0  0  0  0  0  0  0  0  0
  -12.2220    8.6118  -16.2246 H   0  0  0  0  0  0  0  0  0  0  0  0
  -11.7711    7.2143  -17.0915 H   0  0  0  0  0  0  0  0  0  0  0  0
   -8.7732   15.7767  -15.0319 C   0  0  0  0  0  0  0  0  0  0  0  0
   -8.2225   17.1607  -14.6297 C   0  0  0  0  0  0  0  0  0  0  0  0
   -7.3545   17.6496  -15.7339 N   0  0  0  0  0  0  0  0  0  0  0  0
   -7.9099   17.7515  -16.5833 H   0  0  0  0  0  0  0  0  0  0  0  0
   -6.6028   16.9797  -15.8974 H   0  0  0  0  0  0  0  0  0  0  0  0
   -9.3129   18.2299  -14.4390 C   0  0  0  0  0  0  0  0  0  0  0  0
   -9.2421   19.3916  -15.4379 C   0  0  0  0  0  0  0  0  0  0  0  0
   -9.9844   21.7161  -15.2003 N   0  0  0  0  0  0  0  0  0  0  0  0
   -8.9667   20.7389  -14.7575 C   0  0  0  0  0  0  0  0  0  0  0  0
   -9.8093   22.6158  -14.7527 H   0  0  0  0  0  0  0  0  0  0  0  0
  -10.9124   21.3819  -14.9403 H   0  0  0  0  0  0  0  0  0  0  0  0
   -7.5858   21.2542  -15.0592 C   0  0  0  0  0  0  0  0  0  0  0  0
   -7.0442   22.0568  -14.2647 O   0  0  0  0  0  0  0  0  0  0  0  0
   -6.9976   20.8428  -16.0940 O   0  0  0  0  0  0  0  0  0  0  0  0
   -7.4281   20.2423  -16.6702 H   0  0  0  0  0  0  0  0  0  0  0  0
 29 30  1  0  0  0
 30 33  1  0  0  0
 30 28  1  0  0  0
 33 34  2  0  0  0
 33 35  1  0  0  0
 28 27  1  0  0  0
 27 23  1  0  0  0
 23 24  1  0  0  0
 23 22  1  0  0  0
 22  1  1  0  0  0
  1  2  1  0  0  0
  1  3  1  0  0  0
  2  7  1  0  0  0
  3  4  1  0  0  0
  3  5  1  0  0  0
  5  6  1  0  0  0
  5  7  1  0  0  0
  7 10  1  0  0  0
 10 11  1  0  0  0
 10 19  1  0  0  0
 11 12  2  0  0  0
 12 13  1  0  0  0
 13 14  1  0  0  0
 13 19  2  0  0  0
 14 15  1  0  0  0
 14 16  2  0  0  0
 16 17  1  0  0  0
 17 18  2  0  0  0
 18 19  1  0  0  0
 29 31  1  0  0  0
 29 32  1  0  0  0
 35 36  1  0  0  0
 24 25  1  0  0  0
 24 26  1  0  0  0
  4  8  1  0  0  0
  6  9  1  0  0  0
 15 20  1  0  0  0
 15 21  1  0  0  0
M  END
> <minimizedAffinity>
-8.34300

$$$$
6BDY_SFG_A_1301


 36 38  0  0  0  0  0  0  0  0999 V2000
   -6.8340   14.2281  -17.0448 C   0  0  0  0  0  0  0  0  0  0  0  0
   -7.8712   14.9676  -17.7095 O   0  0  0  0  0  0  0  0  0  0  0  0
   -6.5917   15.0310  -15.7733 C   0  0  0  0  0  0  0  0  0  0  0  0
   -5.2610   14.8605  -15.2833 O   0  0  0  0  0  0  0  0  0  0  0  0
   -6.8621   16.4519  -16.2229 C   0  0  0  0  0  0  0  0  0  0  0  0
   -5.7560   16.9756  -16.9682 O   0  0  0  0  0  0  0  0  0  0  0  0
   -7.9922   16.2852  -17.1794 C   0  0  0  0  0  0  0  0  0  0  0  0
   -4.6276   15.1159  -15.9721 H   0  0  0  0  0  0  0  0  0  0  0  0
   -5.5724   16.3965  -17.7243 H   0  0  0  0  0  0  0  0  0  0  0  0
   -9.3004   16.3705  -16.5279 N   0  0  0  0  0  0  0  0  0  0  0  0
  -10.1756   15.3746  -16.3039 C   0  0  0  0  0  0  0  0  0  0  0  0
  -11.3118   15.8544  -15.7177 N   0  0  0  0  0  0  0  0  0  0  0  0
  -11.1506   17.1778  -15.5759 C   0  0  0  0  0  0  0  0  0  0  0  0
  -11.9615   18.2784  -15.0511 C   0  0  0  0  0  0  0  0  0  0  0  0
  -13.2052   18.0390  -14.5380 N   0  0  0  0  0  0  0  0  0  0  0  0
  -11.3901   19.5047  -15.1581 N   0  0  0  0  0  0  0  0  0  0  0  0
  -10.1482   19.7284  -15.6381 C   0  0  0  0  0  0  0  0  0  0  0  0
   -9.3490   18.7495  -16.1335 N   0  0  0  0  0  0  0  0  0  0  0  0
   -9.8369   17.5082  -16.1180 C   0  0  0  0  0  0  0  0  0  0  0  0
  -13.5506   17.1181  -14.4940 H   0  0  0  0  0  0  0  0  0  0  0  0
  -13.7558   18.7873  -14.2124 H   0  0  0  0  0  0  0  0  0  0  0  0
   -7.1776   12.7556  -16.7661 C   0  0  0  0  0  0  0  0  0  0  0  0
   -8.2354   12.1649  -17.7216 C   0  0  0  0  0  0  0  0  0  0  0  0
   -7.7509   10.8355  -18.1796 N   0  0  0  0  0  0  0  0  0  0  0  0
   -7.6510   10.2148  -17.3764 H   0  0  0  0  0  0  0  0  0  0  0  0
   -6.8474   10.9432  -18.6405 H   0  0  0  0  0  0  0  0  0  0  0  0
   -9.6006   11.9155  -17.0566 C   0  0  0  0  0  0  0  0  0  0  0  0
   -9.7126   10.5719  -16.3254 C   0  0  0  0  0  0  0  0  0  0  0  0
  -11.8438    9.6003  -15.6008 N   0  0  0  0  0  0  0  0  0  0  0  0
  -10.9418    9.7637  -16.7611 C   0  0  0  0  0  0  0  0  0  0  0  0
  -12.6646    9.0637  -15.8811 H   0  0  0  0  0  0  0  0  0  0  0  0
  -12.1359   10.5182  -15.2653 H   0  0  0  0  0  0  0  0  0  0  0  0
  -10.5662    8.4186  -17.3206 C   0  0  0  0  0  0  0  0  0  0  0  0
   -9.4689    8.2846  -17.9095 O   0  0  0  0  0  0  0  0  0  0  0  0
  -11.3570    7.4519  -17.1583 O   0  0  0  0  0  0  0  0  0  0  0  0
  -12.1713    7.5823  -16.7136 H   0  0  0  0  0  0  0  0  0  0  0  0
 29 30  1  0  0  0
 30 33  1  0  0  0
 30 28  1  0  0  0
 33 34  2  0  0  0
 33 35  1  0  0  0
 28 27  1  0  0  0
 27 23  1  0  0  0
 23 24  1  0  0  0
 23 22  1  0  0  0
 22  1  1  0  0  0
  1  2  1  0  0  0
  1  3  1  0  0  0
  2  7  1  0  0  0
  3  4  1  0  0  0
  3  5  1  0  0  0
  5  6  1  0  0  0
  5  7  1  0  0  0
  7 10  1  0  0  0
 10 11  1  0  0  0
 10 19  1  0  0  0
 11 12  2  0  0  0
 12 13  1  0  0  0
 13 14  1  0  0  0
 13 19  2  0  0  0
 14 15  1  0  0  0
 14 16  2  0  0  0
 16 17  1  0  0  0
 17 18  2  0  0  0
 18 19  1  0  0  0
 29 31  1  0  0  0
 29 32  1  0  0  0
 35 36  1  0  0  0
 24 25  1  0  0  0
 24 26  1  0  0  0
  4  8  1  0  0  0
  6  9  1  0  0  0
 15 20  1  0  0  0
 15 21  1  0  0  0
M  END
> <minimizedAffinity>
-7.82629

$$$$
6BDY_SFG_A_1301


 36 38  0  0  0  0  0  0  0  0999 V2000
   -9.3527   15.1965  -14.7831 C   0  0  0  0  0  0  0  0  0  0  0  0
   -9.3758   16.2513  -13.8078 O   0  0  0  0  0  0  0  0  0  0  0  0
   -9.6876   15.9150  -16.0836 C   0  0  0  0  0  0  0  0  0  0  0  0
  -10.3025   15.0401  -17.0304 O   0  0  0  0  0  0  0  0  0  0  0  0
  -10.6227   17.0138  -15.6230 C   0  0  0  0  0  0  0  0  0  0  0  0
  -11.9361   16.4999  -15.3696 O   0  0  0  0  0  0  0  0  0  0  0  0
  -10.0466   17.4060  -14.3062 C   0  0  0  0  0  0  0  0  0  0  0  0
  -11.1020   14.6527  -16.6410 H   0  0  0  0  0  0  0  0  0  0  0  0
  -11.8831   15.7858  -14.7152 H   0  0  0  0  0  0  0  0  0  0  0  0
   -9.0478   18.4700  -14.4213 N   0  0  0  0  0  0  0  0  0  0  0  0
   -7.7317   18.3966  -14.1559 C   0  0  0  0  0  0  0  0  0  0  0  0
   -7.1362   19.6128  -14.3318 N   0  0  0  0  0  0  0  0  0  0  0  0
   -8.0970   20.4686  -14.7090 C   0  0  0  0  0  0  0  0  0  0  0  0
   -8.1552   21.8942  -15.0389 C   0  0  0  0  0  0  0  0  0  0  0  0
   -7.0236   22.6595  -15.0058 N   0  0  0  0  0  0  0  0  0  0  0  0
   -9.3969   22.3585  -15.3292 N   0  0  0  0  0  0  0  0  0  0  0  0
  -10.5044   21.5888  -15.3896 C   0  0  0  0  0  0  0  0  0  0  0  0
  -10.5119   20.2629  -15.0995 N   0  0  0  0  0  0  0  0  0  0  0  0
   -9.3456   19.7152  -14.7547 C   0  0  0  0  0  0  0  0  0  0  0  0
   -6.1569   22.2475  -14.7860 H   0  0  0  0  0  0  0  0  0  0  0  0
   -7.0751   23.6229  -15.2018 H   0  0  0  0  0  0  0  0  0  0  0  0
   -8.0275   14.4200  -14.8528 C   0  0  0  0  0  0  0  0  0  0  0  0
   -6.8798   15.1943  -15.5340 C   0  0  0  0  0  0  0  0  0  0  0  0
   -5.7866   15.3657  -14.5405 N   0  0  0  0  0  0  0  0  0  0  0  0
   -5.4403   14.4498  -14.2547 H   0  0  0  0  0  0  0  0  0  0  0  0
   -6.1432   15.8639  -13.7251 H   0  0  0  0  0  0  0  0  0  0  0  0
   -6.2569   14.4532  -16.7303 C   0  0  0  0  0  0  0  0  0  0  0  0
   -6.6065   12.9615  -16.8026 C   0  0  0  0  0  0  0  0  0  0  0  0
   -7.9013   13.8630  -18.6792 N   0  0  0  0  0  0  0  0  0  0  0  0
   -7.4428   12.6108  -18.0402 C   0  0  0  0  0  0  0  0  0  0  0  0
   -8.4587   13.6396  -19.5037 H   0  0  0  0  0  0  0  0  0  0  0  0
   -7.0925   14.4194  -18.9560 H   0  0  0  0  0  0  0  0  0  0  0  0
   -8.6210   11.7397  -17.6995 C   0  0  0  0  0  0  0  0  0  0  0  0
   -9.6628   12.2677  -17.2468 O   0  0  0  0  0  0  0  0  0  0  0  0
   -8.5380   10.4998  -17.9040 O   0  0  0  0  0  0  0  0  0  0  0  0
   -7.7454   10.1330  -18.2435 H   0  0  0  0  0  0  0  0  0  0  0  0
 29 30  1  0  0  0
 30 33  1  0  0  0
 30 28  1  0  0  0
 33 34  2  0  0  0
 33 35  1  0  0  0
 28 27  1  0  0  0
 27 23  1  0  0  0
 23 24  1  0  0  0
 23 22  1  0  0  0
 22  1  1  0  0  0
  1  2  1  0  0  0
  1  3  1  0  0  0
  2  7  1  0  0  0
  3  4  1  0  0  0
  3  5  1  0  0  0
  5  6  1  0  0  0
  5  7  1  0  0  0
  7 10  1  0  0  0
 10 11  1  0  0  0
 10 19  1  0  0  0
 11 12  2  0  0  0
 12 13  1  0  0  0
 13 14  1  0  0  0
 13 19  2  0  0  0
 14 15  1  0  0  0
 14 16  2  0  0  0
 16 17  1  0  0  0
 17 18  2  0  0  0
 18 19  1  0  0  0
 29 31  1  0  0  0
 29 32  1  0  0  0
 35 36  1  0  0  0
 24 25  1  0  0  0
 24 26  1  0  0  0
  4  8  1  0  0  0
  6  9  1  0  0  0
 15 20  1  0  0  0
 15 21  1  0  0  0
M  END
> <minimizedAffinity>
-7.66912

$$$$
6BDY_SFG_A_1301


 36 38  0  0  0  0  0  0  0  0999 V2000
   -9.4861   13.7814  -17.2802 C   0  0  0  0  0  0  0  0  0  0  0  0
  -10.1475   14.7061  -16.4017 O   0  0  0  0  0  0  0  0  0  0  0  0
   -8.2512   14.5501  -17.7320 C   0  0  0  0  0  0  0  0  0  0  0  0
   -7.7927   14.1130  -19.0121 O   0  0  0  0  0  0  0  0  0  0  0  0
   -8.7433   15.9824  -17.7548 C   0  0  0  0  0  0  0  0  0  0  0  0
   -9.5373   16.2357  -18.9204 O   0  0  0  0  0  0  0  0  0  0  0  0
   -9.6614   16.0338  -16.5826 C   0  0  0  0  0  0  0  0  0  0  0  0
   -8.5075   14.2071  -19.6611 H   0  0  0  0  0  0  0  0  0  0  0  0
  -10.2772   15.6091  -18.9501 H   0  0  0  0  0  0  0  0  0  0  0  0
   -8.9772   16.4157  -15.3460 N   0  0  0  0  0  0  0  0  0  0  0  0
   -8.5942   15.6155  -14.3356 C   0  0  0  0  0  0  0  0  0  0  0  0
   -8.0318   16.3466  -13.3286 N   0  0  0  0  0  0  0  0  0  0  0  0
   -8.0674   17.6314  -13.7103 C   0  0  0  0  0  0  0  0  0  0  0  0
   -7.6579   18.9078  -13.1207 C   0  0  0  0  0  0  0  0  0  0  0  0
   -7.0716   18.9444  -11.8869 N   0  0  0  0  0  0  0  0  0  0  0  0
   -7.9432   19.9986  -13.8761 N   0  0  0  0  0  0  0  0  0  0  0  0
   -8.4946   19.9507  -15.1074 C   0  0  0  0  0  0  0  0  0  0  0  0
   -8.8901   18.7989  -15.7069 N   0  0  0  0  0  0  0  0  0  0  0  0
   -8.6968   17.6684  -15.0260 C   0  0  0  0  0  0  0  0  0  0  0  0
   -6.8966   18.1068  -11.4000 H   0  0  0  0  0  0  0  0  0  0  0  0
   -6.8242   19.8084  -11.4849 H   0  0  0  0  0  0  0  0  0  0  0  0
   -9.1458   12.4251  -16.6409 C   0  0  0  0  0  0  0  0  0  0  0  0
   -8.9463   11.2825  -17.6585 C   0  0  0  0  0  0  0  0  0  0  0  0
   -7.4859   11.1185  -17.8862 N   0  0  0  0  0  0  0  0  0  0  0  0
   -7.0320   10.8605  -17.0099 H   0  0  0  0  0  0  0  0  0  0  0  0
   -7.0941   11.9966  -18.2264 H   0  0  0  0  0  0  0  0  0  0  0  0
   -9.4572    9.9173  -17.1652 C   0  0  0  0  0  0  0  0  0  0  0  0
  -10.8557    9.9542  -16.5364 C   0  0  0  0  0  0  0  0  0  0  0  0
  -11.2650    7.7201  -17.4593 N   0  0  0  0  0  0  0  0  0  0  0  0
  -11.4094    8.5531  -16.2461 C   0  0  0  0  0  0  0  0  0  0  0  0
  -11.6307    6.7858  -17.2758 H   0  0  0  0  0  0  0  0  0  0  0  0
  -10.2789    7.6556  -17.7121 H   0  0  0  0  0  0  0  0  0  0  0  0
  -12.8489    8.5917  -15.8108 C   0  0  0  0  0  0  0  0  0  0  0  0
  -13.2122    9.4464  -14.9704 O   0  0  0  0  0  0  0  0  0  0  0  0
  -13.6601    7.7769  -16.3249 O   0  0  0  0  0  0  0  0  0  0  0  0
  -13.3592    7.1484  -16.9513 H   0  0  0  0  0  0  0  0  0  0  0  0
 29 30  1  0  0  0
 30 33  1  0  0  0
 30 28  1  0  0  0
 33 34  2  0  0  0
 33 35  1  0  0  0
 28 27  1  0  0  0
 27 23  1  0  0  0
 23 24  1  0  0  0
 23 22  1  0  0  0
 22  1  1  0  0  0
  1  2  1  0  0  0
  1  3  1  0  0  0
  2  7  1  0  0  0
  3  4  1  0  0  0
  3  5  1  0  0  0
  5  6  1  0  0  0
  5  7  1  0  0  0
  7 10  1  0  0  0
 10 11  1  0  0  0
 10 19  1  0  0  0
 11 12  2  0  0  0
 12 13  1  0  0  0
 13 14  1  0  0  0
 13 19  2  0  0  0
 14 15  1  0  0  0
 14 16  2  0  0  0
 16 17  1  0  0  0
 17 18  2  0  0  0
 18 19  1  0  0  0
 29 31  1  0  0  0
 29 32  1  0  0  0
 35 36  1  0  0  0
 24 25  1  0  0  0
 24 26  1  0  0  0
  4  8  1  0  0  0
  6  9  1  0  0  0
 15 20  1  0  0  0
 15 21  1  0  0  0
M  END
> <minimizedAffinity>
-7.54557

$$$$
6BDY_SFG_A_1301


 36 38  0  0  0  0  0  0  0  0999 V2000
   -8.9341   13.4323  -17.3476 C   0  0  0  0  0  0  0  0  0  0  0  0
   -9.5256   14.6794  -17.7466 O   0  0  0  0  0  0  0  0  0  0  0  0
   -7.6393   13.8604  -16.6693 C   0  0  0  0  0  0  0  0  0  0  0  0
   -6.6404   12.8420  -16.7414 O   0  0  0  0  0  0  0  0  0  0  0  0
   -7.2533   15.1016  -17.4467 C   0  0  0  0  0  0  0  0  0  0  0  0
   -6.6767   14.7579  -18.7126 O   0  0  0  0  0  0  0  0  0  0  0  0
   -8.5712   15.7379  -17.7265 C   0  0  0  0  0  0  0  0  0  0  0  0
   -6.4778   12.6137  -17.6700 H   0  0  0  0  0  0  0  0  0  0  0  0
   -7.3000   14.2089  -19.2135 H   0  0  0  0  0  0  0  0  0  0  0  0
   -8.9822   16.6705  -16.6757 N   0  0  0  0  0  0  0  0  0  0  0  0
   -8.6500   16.6423  -15.3731 C   0  0  0  0  0  0  0  0  0  0  0  0
   -9.2723   17.6512  -14.6952 N   0  0  0  0  0  0  0  0  0  0  0  0
  -10.0148   18.3227  -15.5870 C   0  0  0  0  0  0  0  0  0  0  0  0
  -10.9199   19.4729  -15.5376 C   0  0  0  0  0  0  0  0  0  0  0  0
  -11.1472   20.1252  -14.3586 N   0  0  0  0  0  0  0  0  0  0  0  0
  -11.5083   19.7823  -16.7207 N   0  0  0  0  0  0  0  0  0  0  0  0
  -11.2543   19.1517  -17.8870 C   0  0  0  0  0  0  0  0  0  0  0  0
  -10.4230   18.0843  -17.9960 N   0  0  0  0  0  0  0  0  0  0  0  0
   -9.8273   17.6682  -16.8774 C   0  0  0  0  0  0  0  0  0  0  0  0
  -10.6800   19.8401  -13.5402 H   0  0  0  0  0  0  0  0  0  0  0  0
  -11.7782   20.8803  -14.3275 H   0  0  0  0  0  0  0  0  0  0  0  0
   -9.8242   12.5635  -16.4437 C   0  0  0  0  0  0  0  0  0  0  0  0
  -10.0711   11.1400  -16.9853 C   0  0  0  0  0  0  0  0  0  0  0  0
   -8.8081   10.6573  -17.6043 N   0  0  0  0  0  0  0  0  0  0  0  0
   -8.0759   10.6163  -16.8953 H   0  0  0  0  0  0  0  0  0  0  0  0
   -8.5269   11.2977  -18.3468 H   0  0  0  0  0  0  0  0  0  0  0  0
  -10.4302   10.1157  -15.8943 C   0  0  0  0  0  0  0  0  0  0  0  0
  -11.9083    9.7068  -15.8717 C   0  0  0  0  0  0  0  0  0  0  0  0
  -11.5651    7.6758  -17.2013 N   0  0  0  0  0  0  0  0  0  0  0  0
  -12.1005    8.1854  -15.9206 C   0  0  0  0  0  0  0  0  0  0  0  0
  -11.6885    6.6641  -17.2429 H   0  0  0  0  0  0  0  0  0  0  0  0
  -10.5723    7.9002  -17.2681 H   0  0  0  0  0  0  0  0  0  0  0  0
  -13.5444    7.7915  -15.7677 C   0  0  0  0  0  0  0  0  0  0  0  0
  -13.8423    6.8355  -15.0153 O   0  0  0  0  0  0  0  0  0  0  0  0
  -14.4219    8.4532  -16.3826 O   0  0  0  0  0  0  0  0  0  0  0  0
  -14.1690    9.1635  -16.9388 H   0  0  0  0  0  0  0  0  0  0  0  0
 29 30  1  0  0  0
 30 33  1  0  0  0
 30 28  1  0  0  0
 33 34  2  0  0  0
 33 35  1  0  0  0
 28 27  1  0  0  0
 27 23  1  0  0  0
 23 24  1  0  0  0
 23 22  1  0  0  0
 22  1  1  0  0  0
  1  2  1  0  0  0
  1  3  1  0  0  0
  2  7  1  0  0  0
  3  4  1  0  0  0
  3  5  1  0  0  0
  5  6  1  0  0  0
  5  7  1  0  0  0
  7 10  1  0  0  0
 10 11  1  0  0  0
 10 19  1  0  0  0
 11 12  2  0  0  0
 12 13  1  0  0  0
 13 14  1  0  0  0
 13 19  2  0  0  0
 14 15  1  0  0  0
 14 16  2  0  0  0
 16 17  1  0  0  0
 17 18  2  0  0  0
 18 19  1  0  0  0
 29 31  1  0  0  0
 29 32  1  0  0  0
 35 36  1  0  0  0
 24 25  1  0  0  0
 24 26  1  0  0  0
  4  8  1  0  0  0
  6  9  1  0  0  0
 15 20  1  0  0  0
 15 21  1  0  0  0
M  END
> <minimizedAffinity>
-7.53664

$$$$
6BDY_SFG_A_1301


 36 38  0  0  0  0  0  0  0  0999 V2000
   -7.0555   14.3268  -16.3314 C   0  0  0  0  0  0  0  0  0  0  0  0
   -8.4838   14.4541  -16.2425 O   0  0  0  0  0  0  0  0  0  0  0  0
   -6.7617   14.6877  -17.7817 C   0  0  0  0  0  0  0  0  0  0  0  0
   -5.5635   14.0676  -18.2509 O   0  0  0  0  0  0  0  0  0  0  0  0
   -7.9928   14.1818  -18.5044 C   0  0  0  0  0  0  0  0  0  0  0  0
   -7.9448   12.7593  -18.6700 O   0  0  0  0  0  0  0  0  0  0  0  0
   -9.0861   14.4709  -17.5343 C   0  0  0  0  0  0  0  0  0  0  0  0
   -5.6357   13.1058  -18.1483 H   0  0  0  0  0  0  0  0  0  0  0  0
   -7.8472   12.3359  -17.8028 H   0  0  0  0  0  0  0  0  0  0  0  0
   -9.6702   15.8001  -17.7216 N   0  0  0  0  0  0  0  0  0  0  0  0
   -9.6885   16.5412  -18.8433 C   0  0  0  0  0  0  0  0  0  0  0  0
  -10.2789   17.7506  -18.6121 N   0  0  0  0  0  0  0  0  0  0  0  0
  -10.6331   17.7729  -17.3192 C   0  0  0  0  0  0  0  0  0  0  0  0
  -11.2772   18.7413  -16.4294 C   0  0  0  0  0  0  0  0  0  0  0  0
  -11.6779   19.9584  -16.9040 N   0  0  0  0  0  0  0  0  0  0  0  0
  -11.3934   18.3357  -15.1394 N   0  0  0  0  0  0  0  0  0  0  0  0
  -11.0228   17.1194  -14.6858 C   0  0  0  0  0  0  0  0  0  0  0  0
  -10.4260   16.1800  -15.4628 N   0  0  0  0  0  0  0  0  0  0  0  0
  -10.2218   16.4976  -16.7421 C   0  0  0  0  0  0  0  0  0  0  0  0
  -11.5594   20.1787  -17.8562 H   0  0  0  0  0  0  0  0  0  0  0  0
  -12.0851   20.6149  -16.2938 H   0  0  0  0  0  0  0  0  0  0  0  0
   -6.2735   15.1918  -15.3294 C   0  0  0  0  0  0  0  0  0  0  0  0
   -7.1596   15.8967  -14.2813 C   0  0  0  0  0  0  0  0  0  0  0  0
   -6.4459   15.8626  -12.9770 N   0  0  0  0  0  0  0  0  0  0  0  0
   -5.5655   16.3713  -13.0579 H   0  0  0  0  0  0  0  0  0  0  0  0
   -6.2566   14.8944  -12.7182 H   0  0  0  0  0  0  0  0  0  0  0  0
   -7.4185   17.3825  -14.5873 C   0  0  0  0  0  0  0  0  0  0  0  0
   -7.6767   18.2485  -13.3480 C   0  0  0  0  0  0  0  0  0  0  0  0
   -9.2602   20.1202  -13.3424 N   0  0  0  0  0  0  0  0  0  0  0  0
   -7.8782   19.7295  -13.6945 C   0  0  0  0  0  0  0  0  0  0  0  0
   -9.4037   21.1041  -13.5695 H   0  0  0  0  0  0  0  0  0  0  0  0
   -9.4103   19.9763  -12.3438 H   0  0  0  0  0  0  0  0  0  0  0  0
   -7.6127   20.0124  -15.1481 C   0  0  0  0  0  0  0  0  0  0  0  0
   -8.5708   20.3032  -15.9006 O   0  0  0  0  0  0  0  0  0  0  0  0
   -6.4254   19.9750  -15.5662 O   0  0  0  0  0  0  0  0  0  0  0  0
   -5.7288   19.7542  -14.9797 H   0  0  0  0  0  0  0  0  0  0  0  0
 29 30  1  0  0  0
 30 33  1  0  0  0
 30 28  1  0  0  0
 33 34  2  0  0  0
 33 35  1  0  0  0
 28 27  1  0  0  0
 27 23  1  0  0  0
 23 24  1  0  0  0
 23 22  1  0  0  0
 22  1  1  0  0  0
  1  2  1  0  0  0
  1  3  1  0  0  0
  2  7  1  0  0  0
  3  4  1  0  0  0
  3  5  1  0  0  0
  5  6  1  0  0  0
  5  7  1  0  0  0
  7 10  1  0  0  0
 10 11  1  0  0  0
 10 19  1  0  0  0
 11 12  2  0  0  0
 12 13  1  0  0  0
 13 14  1  0  0  0
 13 19  2  0  0  0
 14 15  1  0  0  0
 14 16  2  0  0  0
 16 17  1  0  0  0
 17 18  2  0  0  0
 18 19  1  0  0  0
 29 31  1  0  0  0
 29 32  1  0  0  0
 35 36  1  0  0  0
 24 25  1  0  0  0
 24 26  1  0  0  0
  4  8  1  0  0  0
  6  9  1  0  0  0
 15 20  1  0  0  0
 15 21  1  0  0  0
M  END
> <minimizedAffinity>
-7.44787

$$$$
6BDY_SFG_A_1301


 36 38  0  0  0  0  0  0  0  0999 V2000
   -6.1836   14.9685  -15.7958 C   0  0  0  0  0  0  0  0  0  0  0  0
   -6.8781   13.7495  -16.1056 O   0  0  0  0  0  0  0  0  0  0  0  0
   -6.8681   15.9973  -16.6863 C   0  0  0  0  0  0  0  0  0  0  0  0
   -6.0000   17.0862  -17.0036 O   0  0  0  0  0  0  0  0  0  0  0  0
   -7.2397   15.1824  -17.9077 C   0  0  0  0  0  0  0  0  0  0  0  0
   -6.0993   14.9629  -18.7470 O   0  0  0  0  0  0  0  0  0  0  0  0
   -7.6108   13.8632  -17.3230 C   0  0  0  0  0  0  0  0  0  0  0  0
   -5.1984   16.7467  -17.4314 H   0  0  0  0  0  0  0  0  0  0  0  0
   -5.3993   14.5291  -18.2344 H   0  0  0  0  0  0  0  0  0  0  0  0
   -9.0318   13.7765  -16.9818 N   0  0  0  0  0  0  0  0  0  0  0  0
   -9.8824   14.7877  -16.7332 C   0  0  0  0  0  0  0  0  0  0  0  0
  -11.1162   14.3081  -16.3981 N   0  0  0  0  0  0  0  0  0  0  0  0
  -11.0385   12.9700  -16.4306 C   0  0  0  0  0  0  0  0  0  0  0  0
  -11.9619   11.8635  -16.1709 C   0  0  0  0  0  0  0  0  0  0  0  0
  -13.2558   12.1118  -15.8085 N   0  0  0  0  0  0  0  0  0  0  0  0
  -11.4125   10.6278  -16.2858 N   0  0  0  0  0  0  0  0  0  0  0  0
  -10.1415   10.3913  -16.6744 C   0  0  0  0  0  0  0  0  0  0  0  0
   -9.2418   11.3742  -16.9329 N   0  0  0  0  0  0  0  0  0  0  0  0
   -9.6691   12.6311  -16.8029 C   0  0  0  0  0  0  0  0  0  0  0  0
  -13.5806   13.0391  -15.7473 H   0  0  0  0  0  0  0  0  0  0  0  0
  -13.8633   11.3633  -15.6085 H   0  0  0  0  0  0  0  0  0  0  0  0
   -6.2057   15.3559  -14.3080 C   0  0  0  0  0  0  0  0  0  0  0  0
   -7.5807   15.8434  -13.8055 C   0  0  0  0  0  0  0  0  0  0  0  0
   -8.1734   14.7664  -12.9686 N   0  0  0  0  0  0  0  0  0  0  0  0
   -7.5725   14.5921  -12.1631 H   0  0  0  0  0  0  0  0  0  0  0  0
   -8.2570   13.9133  -13.5215 H   0  0  0  0  0  0  0  0  0  0  0  0
   -7.5052   17.0898  -12.9060 C   0  0  0  0  0  0  0  0  0  0  0  0
   -8.3242   18.2847  -13.4099 C   0  0  0  0  0  0  0  0  0  0  0  0
   -7.9784   20.6502  -12.8659 N   0  0  0  0  0  0  0  0  0  0  0  0
   -7.4593   19.5245  -13.6721 C   0  0  0  0  0  0  0  0  0  0  0  0
   -7.4091   21.4797  -13.0338 H   0  0  0  0  0  0  0  0  0  0  0  0
   -7.9397   20.4059  -11.8763 H   0  0  0  0  0  0  0  0  0  0  0  0
   -7.4319   19.8983  -15.1291 C   0  0  0  0  0  0  0  0  0  0  0  0
   -8.4689   20.3530  -15.6646 O   0  0  0  0  0  0  0  0  0  0  0  0
   -6.3547   19.7683  -15.7685 O   0  0  0  0  0  0  0  0  0  0  0  0
   -5.5947   19.4251  -15.3412 H   0  0  0  0  0  0  0  0  0  0  0  0
 29 30  1  0  0  0
 30 33  1  0  0  0
 30 28  1  0  0  0
 33 34  2  0  0  0
 33 35  1  0  0  0
 28 27  1  0  0  0
 27 23  1  0  0  0
 23 24  1  0  0  0
 23 22  1  0  0  0
 22  1  1  0  0  0
  1  2  1  0  0  0
  1  3  1  0  0  0
  2  7  1  0  0  0
  3  4  1  0  0  0
  3  5  1  0  0  0
  5  6  1  0  0  0
  5  7  1  0  0  0
  7 10  1  0  0  0
 10 11  1  0  0  0
 10 19  1  0  0  0
 11 12  2  0  0  0
 12 13  1  0  0  0
 13 14  1  0  0  0
 13 19  2  0  0  0
 14 15  1  0  0  0
 14 16  2  0  0  0
 16 17  1  0  0  0
 17 18  2  0  0  0
 18 19  1  0  0  0
 29 31  1  0  0  0
 29 32  1  0  0  0
 35 36  1  0  0  0
 24 25  1  0  0  0
 24 26  1  0  0  0
  4  8  1  0  0  0
  6  9  1  0  0  0
 15 20  1  0  0  0
 15 21  1  0  0  0
M  END
> <minimizedAffinity>
-7.41281

$$$$
6BDY_SFG_A_1301


 36 38  0  0  0  0  0  0  0  0999 V2000
   -9.3913   13.7163  -16.2349 C   0  0  0  0  0  0  0  0  0  0  0  0
  -10.0183   14.9490  -16.6242 O   0  0  0  0  0  0  0  0  0  0  0  0
   -7.9052   14.0221  -16.3682 C   0  0  0  0  0  0  0  0  0  0  0  0
   -7.1415   12.8430  -16.6260 O   0  0  0  0  0  0  0  0  0  0  0  0
   -7.8707   14.9955  -17.5281 C   0  0  0  0  0  0  0  0  0  0  0  0
   -8.0165   14.3118  -18.7789 O   0  0  0  0  0  0  0  0  0  0  0  0
   -9.1098   15.7969  -17.3224 C   0  0  0  0  0  0  0  0  0  0  0  0
   -7.4730   12.4123  -17.4295 H   0  0  0  0  0  0  0  0  0  0  0  0
   -8.8406   13.8002  -18.7735 H   0  0  0  0  0  0  0  0  0  0  0  0
   -8.8870   16.9756  -16.4835 N   0  0  0  0  0  0  0  0  0  0  0  0
   -7.8796   17.1938  -15.6200 C   0  0  0  0  0  0  0  0  0  0  0  0
   -8.0433   18.3893  -14.9807 N   0  0  0  0  0  0  0  0  0  0  0  0
   -9.1781   18.9304  -15.4465 C   0  0  0  0  0  0  0  0  0  0  0  0
   -9.9329   20.1583  -15.1874 C   0  0  0  0  0  0  0  0  0  0  0  0
   -9.4778   21.0724  -14.2793 N   0  0  0  0  0  0  0  0  0  0  0  0
  -11.0933   20.2677  -15.8825 N   0  0  0  0  0  0  0  0  0  0  0  0
  -11.5198   19.3744  -16.8005 C   0  0  0  0  0  0  0  0  0  0  0  0
  -10.8619   18.2221  -17.0865 N   0  0  0  0  0  0  0  0  0  0  0  0
   -9.7287   17.9944  -16.4209 C   0  0  0  0  0  0  0  0  0  0  0  0
   -8.6233   20.9211  -13.8144 H   0  0  0  0  0  0  0  0  0  0  0  0
  -10.0045   21.8824  -14.0900 H   0  0  0  0  0  0  0  0  0  0  0  0
   -9.7763   13.2192  -14.8318 C   0  0  0  0  0  0  0  0  0  0  0  0
  -10.8861   12.1473  -14.8268 C   0  0  0  0  0  0  0  0  0  0  0  0
  -12.1370   12.7819  -14.3329 N   0  0  0  0  0  0  0  0  0  0  0  0
  -12.4097   13.5337  -14.9659 H   0  0  0  0  0  0  0  0  0  0  0  0
  -11.9795   13.1632  -13.4001 H   0  0  0  0  0  0  0  0  0  0  0  0
  -11.2136   11.5882  -16.2226 C   0  0  0  0  0  0  0  0  0  0  0  0
  -11.1530   10.0588  -16.3223 C   0  0  0  0  0  0  0  0  0  0  0  0
   -9.1118   10.6484  -17.5457 N   0  0  0  0  0  0  0  0  0  0  0  0
   -9.7934    9.5535  -16.8223 C   0  0  0  0  0  0  0  0  0  0  0  0
   -8.2061   10.3215  -17.8822 H   0  0  0  0  0  0  0  0  0  0  0  0
   -8.9753   11.4389  -16.9157 H   0  0  0  0  0  0  0  0  0  0  0  0
   -9.9293    8.3484  -17.7126 C   0  0  0  0  0  0  0  0  0  0  0  0
   -8.9308    7.9419  -18.3502 O   0  0  0  0  0  0  0  0  0  0  0  0
  -11.0420    7.7615  -17.7732 O   0  0  0  0  0  0  0  0  0  0  0  0
  -11.7716    8.0889  -17.2848 H   0  0  0  0  0  0  0  0  0  0  0  0
 29 30  1  0  0  0
 30 33  1  0  0  0
 30 28  1  0  0  0
 33 34  2  0  0  0
 33 35  1  0  0  0
 28 27  1  0  0  0
 27 23  1  0  0  0
 23 24  1  0  0  0
 23 22  1  0  0  0
 22  1  1  0  0  0
  1  2  1  0  0  0
  1  3  1  0  0  0
  2  7  1  0  0  0
  3  4  1  0  0  0
  3  5  1  0  0  0
  5  6  1  0  0  0
  5  7  1  0  0  0
  7 10  1  0  0  0
 10 11  1  0  0  0
 10 19  1  0  0  0
 11 12  2  0  0  0
 12 13  1  0  0  0
 13 14  1  0  0  0
 13 19  2  0  0  0
 14 15  1  0  0  0
 14 16  2  0  0  0
 16 17  1  0  0  0
 17 18  2  0  0  0
 18 19  1  0  0  0
 29 31  1  0  0  0
 29 32  1  0  0  0
 35 36  1  0  0  0
 24 25  1  0  0  0
 24 26  1  0  0  0
  4  8  1  0  0  0
  6  9  1  0  0  0
 15 20  1  0  0  0
 15 21  1  0  0  0
M  END
> <minimizedAffinity>
-7.33378

$$$$
6BDY_SFG_A_1301


 36 38  0  0  0  0  0  0  0  0999 V2000
   -8.5455   16.7554  -14.9114 C   0  0  0  0  0  0  0  0  0  0  0  0
   -8.0546   15.4116  -14.7790 O   0  0  0  0  0  0  0  0  0  0  0  0
   -9.3158   16.7187  -16.2249 C   0  0  0  0  0  0  0  0  0  0  0  0
   -9.3641   18.0030  -16.8480 O   0  0  0  0  0  0  0  0  0  0  0  0
   -8.5311   15.7122  -17.0405 C   0  0  0  0  0  0  0  0  0  0  0  0
   -7.3313   16.2959  -17.5631 O   0  0  0  0  0  0  0  0  0  0  0  0
   -8.1186   14.7099  -16.0181 C   0  0  0  0  0  0  0  0  0  0  0  0
   -8.4611   18.3263  -16.9929 H   0  0  0  0  0  0  0  0  0  0  0  0
   -6.7989   16.6488  -16.8331 H   0  0  0  0  0  0  0  0  0  0  0  0
   -9.0977   13.6339  -15.8553 N   0  0  0  0  0  0  0  0  0  0  0  0
  -10.1460   13.5943  -15.0143 C   0  0  0  0  0  0  0  0  0  0  0  0
  -10.7991   12.3992  -15.1143 N   0  0  0  0  0  0  0  0  0  0  0  0
  -10.1455   11.6711  -16.0310 C   0  0  0  0  0  0  0  0  0  0  0  0
  -10.2941   10.3295  -16.5989 C   0  0  0  0  0  0  0  0  0  0  0  0
  -11.3134    9.5147  -16.1934 N   0  0  0  0  0  0  0  0  0  0  0  0
   -9.3371    9.9852  -17.4975 N   0  0  0  0  0  0  0  0  0  0  0  0
   -8.3514   10.8078  -17.9151 C   0  0  0  0  0  0  0  0  0  0  0  0
   -8.1660   12.0616  -17.4294 N   0  0  0  0  0  0  0  0  0  0  0  0
   -9.0282   12.4822  -16.5026 C   0  0  0  0  0  0  0  0  0  0  0  0
  -11.9705    9.8385  -15.5357 H   0  0  0  0  0  0  0  0  0  0  0  0
  -11.3908    8.6040  -16.5591 H   0  0  0  0  0  0  0  0  0  0  0  0
   -9.4005   17.2423  -13.7299 C   0  0  0  0  0  0  0  0  0  0  0  0
   -9.2160   18.7369  -13.3939 C   0  0  0  0  0  0  0  0  0  0  0  0
   -9.2985   18.8905  -11.9170 N   0  0  0  0  0  0  0  0  0  0  0  0
   -8.5463   18.3600  -11.4775 H   0  0  0  0  0  0  0  0  0  0  0  0
  -10.1985   18.5404  -11.5885 H   0  0  0  0  0  0  0  0  0  0  0  0
   -7.8440   19.2996  -13.8054 C   0  0  0  0  0  0  0  0  0  0  0  0
   -7.7082   20.8187  -13.6427 C   0  0  0  0  0  0  0  0  0  0  0  0
   -6.9301   20.8694  -15.9671 N   0  0  0  0  0  0  0  0  0  0  0  0
   -7.7852   21.5647  -14.9812 C   0  0  0  0  0  0  0  0  0  0  0  0
   -6.9750   21.3587  -16.8610 H   0  0  0  0  0  0  0  0  0  0  0  0
   -7.2592   19.9115  -16.0869 H   0  0  0  0  0  0  0  0  0  0  0  0
   -7.3654   23.0037  -14.8528 C   0  0  0  0  0  0  0  0  0  0  0  0
   -6.4082   23.2979  -14.1005 O   0  0  0  0  0  0  0  0  0  0  0  0
   -7.9733   23.8755  -15.5284 O   0  0  0  0  0  0  0  0  0  0  0  0
   -8.6862   23.6255  -16.0828 H   0  0  0  0  0  0  0  0  0  0  0  0
 29 30  1  0  0  0
 30 33  1  0  0  0
 30 28  1  0  0  0
 33 34  2  0  0  0
 33 35  1  0  0  0
 28 27  1  0  0  0
 27 23  1  0  0  0
 23 24  1  0  0  0
 23 22  1  0  0  0
 22  1  1  0  0  0
  1  2  1  0  0  0
  1  3  1  0  0  0
  2  7  1  0  0  0
  3  4  1  0  0  0
  3  5  1  0  0  0
  5  6  1  0  0  0
  5  7  1  0  0  0
  7 10  1  0  0  0
 10 11  1  0  0  0
 10 19  1  0  0  0
 11 12  2  0  0  0
 12 13  1  0  0  0
 13 14  1  0  0  0
 13 19  2  0  0  0
 14 15  1  0  0  0
 14 16  2  0  0  0
 16 17  1  0  0  0
 17 18  2  0  0  0
 18 19  1  0  0  0
 29 31  1  0  0  0
 29 32  1  0  0  0
 35 36  1  0  0  0
 24 25  1  0  0  0
 24 26  1  0  0  0
  4  8  1  0  0  0
  6  9  1  0  0  0
 15 20  1  0  0  0
 15 21  1  0  0  0
M  END
> <minimizedAffinity>
-7.31681

$$$$
