5N24_8HE_A_302


 20 21  0  0  0  0  0  0  0  0999 V2000
   -4.2354    4.5469   14.5810 C   0  0  0  0  0  0  0  0  0  0  0  0
   -5.6059    4.4648   14.9243 C   0  0  0  0  0  0  0  0  0  0  0  0
   -6.0967    3.3340   15.6186 C   0  0  0  0  0  0  0  0  0  0  0  0
   -5.2514    2.2683   15.9786 C   0  0  0  0  0  0  0  0  0  0  0  0
   -3.8948    2.3777   15.6331 C   0  0  0  0  0  0  0  0  0  0  0  0
   -3.3980    3.4922   14.9484 C   0  0  0  0  0  0  0  0  0  0  0  0
   -3.6773    5.8791   12.5102 C   0  0  0  0  0  0  0  0  0  0  0  0
   -3.0601    6.9759   11.9074 C   0  0  0  0  0  0  0  0  0  0  0  0
   -2.3439    7.8853   12.6862 C   0  0  0  0  0  0  0  0  0  0  0  0
   -2.2444    7.7134   14.0650 C   0  0  0  0  0  0  0  0  0  0  0  0
   -2.8728    6.6215   14.6650 C   0  0  0  0  0  0  0  0  0  0  0  0
   -3.6211    5.7247   13.8905 C   0  0  0  0  0  0  0  0  0  0  0  0
   -1.2798    9.8015   11.5906 N   0  0  0  0  0  0  0  0  0  0  0  0
   -1.7748    8.8923   12.1151 C   0  0  0  0  0  0  0  0  0  0  0  0
   -5.7848    0.9640   16.8204 S   0  0  0  0  0  0  0  0  0  0  0  0
   -5.3435    1.0541   18.2084 O   0  0  0  0  0  0  0  0  0  0  0  0
   -5.2655   -0.1587   16.0842 O   0  0  0  0  0  0  0  0  0  0  0  0
   -7.3836    0.9010   16.7846 N   0  0  0  0  0  0  0  0  0  0  0  0
   -7.7667    1.6915   17.3030 H   0  0  0  0  0  0  0  0  0  0  0  0
   -7.6991    0.0297   17.2110 H   0  0  0  0  0  0  0  0  0  0  0  0
 13 14  3  0  0  0
 14  9  1  0  0  0
  8  9  2  0  0  0
  8  7  1  0  0  0
  9 10  1  0  0  0
  7 12  2  0  0  0
 10 11  2  0  0  0
 12 11  1  0  0  0
 12  1  1  0  0  0
  1  2  2  0  0  0
  1  6  1  0  0  0
  2  3  1  0  0  0
  6  5  2  0  0  0
  3  4  2  0  0  0
  5  4  1  0  0  0
  4 15  1  0  0  0
 18 15  1  0  0  0
 16 15  2  0  0  0
 15 17  2  0  0  0
 18 19  1  0  0  0
 18 20  1  0  0  0
M  END
> <minimizedAffinity>
-7.45219

$$$$
5N24_8HE_A_302


 20 21  0  0  0  0  0  0  0  0999 V2000
   -4.3521    4.5478   14.5360 C   0  0  0  0  0  0  0  0  0  0  0  0
   -5.7036    4.5642   14.9557 C   0  0  0  0  0  0  0  0  0  0  0  0
   -6.2295    3.4792   15.6960 C   0  0  0  0  0  0  0  0  0  0  0  0
   -5.4389    2.3636   16.0278 C   0  0  0  0  0  0  0  0  0  0  0  0
   -4.0996    2.3755   15.6062 C   0  0  0  0  0  0  0  0  0  0  0  0
   -3.5682    3.4439   14.8755 C   0  0  0  0  0  0  0  0  0  0  0  0
   -2.7891    6.5261   14.4019 C   0  0  0  0  0  0  0  0  0  0  0  0
   -2.2326    7.5810   13.6776 C   0  0  0  0  0  0  0  0  0  0  0  0
   -2.6317    7.8064   12.3600 C   0  0  0  0  0  0  0  0  0  0  0  0
   -3.5777    6.9818   11.7552 C   0  0  0  0  0  0  0  0  0  0  0  0
   -4.1230    5.9211   12.4794 C   0  0  0  0  0  0  0  0  0  0  0  0
   -3.6998    5.6713   13.7918 C   0  0  0  0  0  0  0  0  0  0  0  0
   -1.6569    9.6837   11.1231 N   0  0  0  0  0  0  0  0  0  0  0  0
   -2.1121    8.7879   11.7037 C   0  0  0  0  0  0  0  0  0  0  0  0
   -6.0106    1.1106   16.9207 S   0  0  0  0  0  0  0  0  0  0  0  0
   -7.4576    1.0070   16.7623 O   0  0  0  0  0  0  0  0  0  0  0  0
   -5.5602    1.4037   18.2562 O   0  0  0  0  0  0  0  0  0  0  0  0
   -5.3345   -0.2596   16.4445 N   0  0  0  0  0  0  0  0  0  0  0  0
   -5.6446   -0.4809   15.4983 H   0  0  0  0  0  0  0  0  0  0  0  0
   -5.6084   -1.0117   17.0767 H   0  0  0  0  0  0  0  0  0  0  0  0
 13 14  3  0  0  0
 14  9  1  0  0  0
  8  9  2  0  0  0
  8  7  1  0  0  0
  9 10  1  0  0  0
  7 12  2  0  0  0
 10 11  2  0  0  0
 12 11  1  0  0  0
 12  1  1  0  0  0
  1  2  2  0  0  0
  1  6  1  0  0  0
  2  3  1  0  0  0
  6  5  2  0  0  0
  3  4  2  0  0  0
  5  4  1  0  0  0
  4 15  1  0  0  0
 18 15  1  0  0  0
 16 15  2  0  0  0
 15 17  2  0  0  0
 18 19  1  0  0  0
 18 20  1  0  0  0
M  END
> <minimizedAffinity>
-7.41168

$$$$
5N24_8HE_A_302


 20 21  0  0  0  0  0  0  0  0999 V2000
   -3.9302    2.1361   13.3718 C   0  0  0  0  0  0  0  0  0  0  0  0
   -4.7404    3.1044   14.0112 C   0  0  0  0  0  0  0  0  0  0  0  0
   -5.4551    2.7679   15.1850 C   0  0  0  0  0  0  0  0  0  0  0  0
   -5.3888    1.4774   15.7415 C   0  0  0  0  0  0  0  0  0  0  0  0
   -4.5720    0.5376   15.0925 C   0  0  0  0  0  0  0  0  0  0  0  0
   -3.8591    0.8598   13.9324 C   0  0  0  0  0  0  0  0  0  0  0  0
   -2.3553    1.4260   11.5305 C   0  0  0  0  0  0  0  0  0  0  0  0
   -1.5721    1.7425   10.4198 C   0  0  0  0  0  0  0  0  0  0  0  0
   -1.5006    3.0621    9.9729 C   0  0  0  0  0  0  0  0  0  0  0  0
   -2.2114    4.0695   10.6213 C   0  0  0  0  0  0  0  0  0  0  0  0
   -3.0025    3.7466   11.7245 C   0  0  0  0  0  0  0  0  0  0  0  0
   -3.1032    2.4170   12.1557 C   0  0  0  0  0  0  0  0  0  0  0  0
   -0.1021    3.6062    8.0357 N   0  0  0  0  0  0  0  0  0  0  0  0
   -0.7692    3.3409    8.9475 C   0  0  0  0  0  0  0  0  0  0  0  0
   -6.1737    1.0712   17.1248 S   0  0  0  0  0  0  0  0  0  0  0  0
   -5.5660   -0.1197   17.7095 O   0  0  0  0  0  0  0  0  0  0  0  0
   -7.5447    0.9197   16.7128 O   0  0  0  0  0  0  0  0  0  0  0  0
   -6.0886    2.2716   18.1798 N   0  0  0  0  0  0  0  0  0  0  0  0
   -5.1216    2.3912   18.4815 H   0  0  0  0  0  0  0  0  0  0  0  0
   -6.6727    2.0561   18.9878 H   0  0  0  0  0  0  0  0  0  0  0  0
 13 14  3  0  0  0
 14  9  1  0  0  0
  8  9  2  0  0  0
  8  7  1  0  0  0
  9 10  1  0  0  0
  7 12  2  0  0  0
 10 11  2  0  0  0
 12 11  1  0  0  0
 12  1  1  0  0  0
  1  2  2  0  0  0
  1  6  1  0  0  0
  2  3  1  0  0  0
  6  5  2  0  0  0
  3  4  2  0  0  0
  5  4  1  0  0  0
  4 15  1  0  0  0
 18 15  1  0  0  0
 16 15  2  0  0  0
 15 17  2  0  0  0
 18 19  1  0  0  0
 18 20  1  0  0  0
M  END
> <minimizedAffinity>
-6.96814

$$$$
5N24_8HE_A_302


 20 21  0  0  0  0  0  0  0  0999 V2000
   -3.1962    5.6490   14.1749 C   0  0  0  0  0  0  0  0  0  0  0  0
   -4.5733    5.3355   14.2668 C   0  0  0  0  0  0  0  0  0  0  0  0
   -4.9813    4.0177   14.5808 C   0  0  0  0  0  0  0  0  0  0  0  0
   -4.0448    2.9911   14.8019 C   0  0  0  0  0  0  0  0  0  0  0  0
   -2.6851    3.3299   14.7123 C   0  0  0  0  0  0  0  0  0  0  0  0
   -2.2700    4.6302   14.4046 C   0  0  0  0  0  0  0  0  0  0  0  0
   -2.5520    7.5149   12.6008 C   0  0  0  0  0  0  0  0  0  0  0  0
   -2.0275    8.7903   12.3871 C   0  0  0  0  0  0  0  0  0  0  0  0
   -1.5785    9.5475   13.4694 C   0  0  0  0  0  0  0  0  0  0  0  0
   -1.6555    9.0450   14.7664 C   0  0  0  0  0  0  0  0  0  0  0  0
   -2.1912    7.7739   14.9765 C   0  0  0  0  0  0  0  0  0  0  0  0
   -2.6741    7.0241   13.8955 C   0  0  0  0  0  0  0  0  0  0  0  0
   -0.6568   11.7852   13.0850 N   0  0  0  0  0  0  0  0  0  0  0  0
   -1.0921   10.7232   13.2567 C   0  0  0  0  0  0  0  0  0  0  0  0
   -4.4885    1.4640   15.2084 S   0  0  0  0  0  0  0  0  0  0  0  0
   -4.4658    0.6087   14.0263 O   0  0  0  0  0  0  0  0  0  0  0  0
   -5.7814    1.6305   15.8191 O   0  0  0  0  0  0  0  0  0  0  0  0
   -3.4816    0.8698   16.3013 N   0  0  0  0  0  0  0  0  0  0  0  0
   -2.5598    0.7461   15.8827 H   0  0  0  0  0  0  0  0  0  0  0  0
   -3.8295   -0.0310   16.6299 H   0  0  0  0  0  0  0  0  0  0  0  0
 13 14  3  0  0  0
 14  9  1  0  0  0
  8  9  2  0  0  0
  8  7  1  0  0  0
  9 10  1  0  0  0
  7 12  2  0  0  0
 10 11  2  0  0  0
 12 11  1  0  0  0
 12  1  1  0  0  0
  1  2  2  0  0  0
  1  6  1  0  0  0
  2  3  1  0  0  0
  6  5  2  0  0  0
  3  4  2  0  0  0
  5  4  1  0  0  0
  4 15  1  0  0  0
 18 15  1  0  0  0
 16 15  2  0  0  0
 15 17  2  0  0  0
 18 19  1  0  0  0
 18 20  1  0  0  0
M  END
> <minimizedAffinity>
-6.82973

$$$$
5N24_8HE_A_302


 20 21  0  0  0  0  0  0  0  0999 V2000
   -3.7420    5.3745   13.8640 C   0  0  0  0  0  0  0  0  0  0  0  0
   -4.1298    5.6979   12.5418 C   0  0  0  0  0  0  0  0  0  0  0  0
   -3.6066    6.8514   11.9113 C   0  0  0  0  0  0  0  0  0  0  0  0
   -2.7028    7.7040   12.5715 C   0  0  0  0  0  0  0  0  0  0  0  0
   -2.3283    7.3568   13.8794 C   0  0  0  0  0  0  0  0  0  0  0  0
   -2.8375    6.2174   14.5120 C   0  0  0  0  0  0  0  0  0  0  0  0
   -5.5336    3.9805   14.9692 C   0  0  0  0  0  0  0  0  0  0  0  0
   -5.9141    2.8386   15.6752 C   0  0  0  0  0  0  0  0  0  0  0  0
   -4.9530    1.8972   16.0445 C   0  0  0  0  0  0  0  0  0  0  0  0
   -3.6139    2.0821   15.7081 C   0  0  0  0  0  0  0  0  0  0  0  0
   -3.2396    3.2197   14.9920 C   0  0  0  0  0  0  0  0  0  0  0  0
   -4.2070    4.1507   14.5902 C   0  0  0  0  0  0  0  0  0  0  0  0
   -5.6356   -0.0892   17.3066 N   0  0  0  0  0  0  0  0  0  0  0  0
   -5.3184    0.8484   16.7007 C   0  0  0  0  0  0  0  0  0  0  0  0
   -2.0481    9.0253   11.8502 S   0  0  0  0  0  0  0  0  0  0  0  0
   -0.7785    8.6715   11.2238 O   0  0  0  0  0  0  0  0  0  0  0  0
   -1.9583    9.9911   12.9138 O   0  0  0  0  0  0  0  0  0  0  0  0
   -3.0419    9.5915   10.7307 N   0  0  0  0  0  0  0  0  0  0  0  0
   -3.1160    8.9170    9.9692 H   0  0  0  0  0  0  0  0  0  0  0  0
   -2.6797   10.4739   10.3693 H   0  0  0  0  0  0  0  0  0  0  0  0
 13 14  3  0  0  0
 14  9  1  0  0  0
  8  9  2  0  0  0
  8  7  1  0  0  0
  9 10  1  0  0  0
  7 12  2  0  0  0
 10 11  2  0  0  0
 12 11  1  0  0  0
 12  1  1  0  0  0
  1  2  2  0  0  0
  1  6  1  0  0  0
  2  3  1  0  0  0
  6  5  2  0  0  0
  3  4  2  0  0  0
  5  4  1  0  0  0
  4 15  1  0  0  0
 18 15  1  0  0  0
 16 15  2  0  0  0
 15 17  2  0  0  0
 18 19  1  0  0  0
 18 20  1  0  0  0
M  END
> <minimizedAffinity>
-6.58496

$$$$
5N24_8HE_A_302


 20 21  0  0  0  0  0  0  0  0999 V2000
   -3.6640    5.3992   13.8836 C   0  0  0  0  0  0  0  0  0  0  0  0
   -4.0811    5.6428   12.5533 C   0  0  0  0  0  0  0  0  0  0  0  0
   -3.6179    6.7878   11.8633 C   0  0  0  0  0  0  0  0  0  0  0  0
   -2.7462    7.7100   12.4711 C   0  0  0  0  0  0  0  0  0  0  0  0
   -2.3415    7.4413   13.7885 C   0  0  0  0  0  0  0  0  0  0  0  0
   -2.7914    6.3110   14.4798 C   0  0  0  0  0  0  0  0  0  0  0  0
   -3.1508    3.2025   15.0175 C   0  0  0  0  0  0  0  0  0  0  0  0
   -3.5776    2.0768   15.7232 C   0  0  0  0  0  0  0  0  0  0  0  0
   -4.9289    1.9219   16.0333 C   0  0  0  0  0  0  0  0  0  0  0  0
   -5.8588    2.8860   15.6510 C   0  0  0  0  0  0  0  0  0  0  0  0
   -5.4260    4.0156   14.9555 C   0  0  0  0  0  0  0  0  0  0  0  0
   -4.0648    4.1910   14.6718 C   0  0  0  0  0  0  0  0  0  0  0  0
   -5.6469   -0.0595   17.2837 N   0  0  0  0  0  0  0  0  0  0  0  0
   -5.3099    0.8742   16.6824 C   0  0  0  0  0  0  0  0  0  0  0  0
   -2.1604    9.0240   11.6808 S   0  0  0  0  0  0  0  0  0  0  0  0
   -3.1942    9.5868   10.8182 O   0  0  0  0  0  0  0  0  0  0  0  0
   -0.9962    8.5255   10.9965 O   0  0  0  0  0  0  0  0  0  0  0  0
   -1.6953   10.1376   12.7321 N   0  0  0  0  0  0  0  0  0  0  0  0
   -2.5107   10.5009   13.2256 H   0  0  0  0  0  0  0  0  0  0  0  0
   -1.2302   10.8988   12.2375 H   0  0  0  0  0  0  0  0  0  0  0  0
 13 14  3  0  0  0
 14  9  1  0  0  0
  8  9  2  0  0  0
  8  7  1  0  0  0
  9 10  1  0  0  0
  7 12  2  0  0  0
 10 11  2  0  0  0
 12 11  1  0  0  0
 12  1  1  0  0  0
  1  2  2  0  0  0
  1  6  1  0  0  0
  2  3  1  0  0  0
  6  5  2  0  0  0
  3  4  2  0  0  0
  5  4  1  0  0  0
  4 15  1  0  0  0
 18 15  1  0  0  0
 16 15  2  0  0  0
 15 17  2  0  0  0
 18 19  1  0  0  0
 18 20  1  0  0  0
M  END
> <minimizedAffinity>
-6.55917

$$$$
5N24_8HE_A_302


 20 21  0  0  0  0  0  0  0  0999 V2000
   -2.9040    5.2093   14.2388 C   0  0  0  0  0  0  0  0  0  0  0  0
   -2.9447    6.6106   14.4327 C   0  0  0  0  0  0  0  0  0  0  0  0
   -2.0219    7.4467   13.7609 C   0  0  0  0  0  0  0  0  0  0  0  0
   -1.0451    6.9184   12.8969 C   0  0  0  0  0  0  0  0  0  0  0  0
   -1.0309    5.5260   12.7159 C   0  0  0  0  0  0  0  0  0  0  0  0
   -1.9399    4.6898   13.3733 C   0  0  0  0  0  0  0  0  0  0  0  0
   -3.4745    3.0022   15.3241 C   0  0  0  0  0  0  0  0  0  0  0  0
   -4.4172    2.1327   15.8741 C   0  0  0  0  0  0  0  0  0  0  0  0
   -5.7617    2.5024   15.9177 C   0  0  0  0  0  0  0  0  0  0  0  0
   -6.1734    3.7379   15.4233 C   0  0  0  0  0  0  0  0  0  0  0  0
   -5.2257    4.6090   14.8848 C   0  0  0  0  0  0  0  0  0  0  0  0
   -3.8698    4.2551   14.8698 C   0  0  0  0  0  0  0  0  0  0  0  0
   -7.4122    0.9668   16.8783 N   0  0  0  0  0  0  0  0  0  0  0  0
   -6.6229    1.6868   16.4251 C   0  0  0  0  0  0  0  0  0  0  0  0
    0.0107    7.8673   12.0728 S   0  0  0  0  0  0  0  0  0  0  0  0
    0.7291    8.7339   13.0014 O   0  0  0  0  0  0  0  0  0  0  0  0
   -0.8155    8.5504   11.1120 O   0  0  0  0  0  0  0  0  0  0  0  0
    1.0666    6.9603   11.2830 N   0  0  0  0  0  0  0  0  0  0  0  0
    1.6601    6.4692   11.9515 H   0  0  0  0  0  0  0  0  0  0  0  0
    1.6443    7.5524   10.6863 H   0  0  0  0  0  0  0  0  0  0  0  0
 13 14  3  0  0  0
 14  9  1  0  0  0
  8  9  2  0  0  0
  8  7  1  0  0  0
  9 10  1  0  0  0
  7 12  2  0  0  0
 10 11  2  0  0  0
 12 11  1  0  0  0
 12  1  1  0  0  0
  1  2  2  0  0  0
  1  6  1  0  0  0
  2  3  1  0  0  0
  6  5  2  0  0  0
  3  4  2  0  0  0
  5  4  1  0  0  0
  4 15  1  0  0  0
 18 15  1  0  0  0
 16 15  2  0  0  0
 15 17  2  0  0  0
 18 19  1  0  0  0
 18 20  1  0  0  0
M  END
> <minimizedAffinity>
-6.29954

$$$$
5N24_8HE_A_302


 20 21  0  0  0  0  0  0  0  0999 V2000
   -3.0880    6.4872   13.8867 C   0  0  0  0  0  0  0  0  0  0  0  0
   -3.0418    6.7869   12.5043 C   0  0  0  0  0  0  0  0  0  0  0  0
   -2.4517    7.9935   12.0595 C   0  0  0  0  0  0  0  0  0  0  0  0
   -1.9062    8.9225   12.9646 C   0  0  0  0  0  0  0  0  0  0  0  0
   -1.9579    8.5978   14.3297 C   0  0  0  0  0  0  0  0  0  0  0  0
   -2.5369    7.4066   14.7808 C   0  0  0  0  0  0  0  0  0  0  0  0
   -2.8563    4.0927   14.6529 C   0  0  0  0  0  0  0  0  0  0  0  0
   -3.4301    2.9178   15.1405 C   0  0  0  0  0  0  0  0  0  0  0  0
   -4.8056    2.8572   15.3651 C   0  0  0  0  0  0  0  0  0  0  0  0
   -5.6141    3.9635   15.1139 C   0  0  0  0  0  0  0  0  0  0  0  0
   -5.0345    5.1399   14.6373 C   0  0  0  0  0  0  0  0  0  0  0  0
   -3.6487    5.2152   14.4425 C   0  0  0  0  0  0  0  0  0  0  0  0
   -5.7927    0.7736   16.1950 N   0  0  0  0  0  0  0  0  0  0  0  0
   -5.3231    1.7633   15.8120 C   0  0  0  0  0  0  0  0  0  0  0  0
   -1.1787   10.3099   12.4744 S   0  0  0  0  0  0  0  0  0  0  0  0
   -1.9676   10.9388   11.4201 O   0  0  0  0  0  0  0  0  0  0  0  0
    0.1411    9.8888   12.0833 O   0  0  0  0  0  0  0  0  0  0  0  0
   -1.0457   11.3266   13.7032 N   0  0  0  0  0  0  0  0  0  0  0  0
   -1.9744   11.6342   13.9920 H   0  0  0  0  0  0  0  0  0  0  0  0
   -0.4934   12.1350   13.4174 H   0  0  0  0  0  0  0  0  0  0  0  0
 13 14  3  0  0  0
 14  9  1  0  0  0
  8  9  2  0  0  0
  8  7  1  0  0  0
  9 10  1  0  0  0
  7 12  2  0  0  0
 10 11  2  0  0  0
 12 11  1  0  0  0
 12  1  1  0  0  0
  1  2  2  0  0  0
  1  6  1  0  0  0
  2  3  1  0  0  0
  6  5  2  0  0  0
  3  4  2  0  0  0
  5  4  1  0  0  0
  4 15  1  0  0  0
 18 15  1  0  0  0
 16 15  2  0  0  0
 15 17  2  0  0  0
 18 19  1  0  0  0
 18 20  1  0  0  0
M  END
> <minimizedAffinity>
-6.11606

$$$$
5N24_8HE_A_302


 20 21  0  0  0  0  0  0  0  0999 V2000
   -2.5407    4.4030   12.7805 C   0  0  0  0  0  0  0  0  0  0  0  0
   -3.1361    3.4356   13.6248 C   0  0  0  0  0  0  0  0  0  0  0  0
   -3.5594    2.1946   13.0932 C   0  0  0  0  0  0  0  0  0  0  0  0
   -3.4099    1.8904   11.7277 C   0  0  0  0  0  0  0  0  0  0  0  0
   -2.8095    2.8639   10.9132 C   0  0  0  0  0  0  0  0  0  0  0  0
   -2.3851    4.0936   11.4283 C   0  0  0  0  0  0  0  0  0  0  0  0
   -2.6645    6.4431   14.2627 C   0  0  0  0  0  0  0  0  0  0  0  0
   -2.1620    7.6837   14.6575 C   0  0  0  0  0  0  0  0  0  0  0  0
   -1.0465    8.2188   14.0130 C   0  0  0  0  0  0  0  0  0  0  0  0
   -0.4221    7.5220   12.9810 C   0  0  0  0  0  0  0  0  0  0  0  0
   -0.9210    6.2766   12.5972 C   0  0  0  0  0  0  0  0  0  0  0  0
   -2.0207    5.7208   13.2647 C   0  0  0  0  0  0  0  0  0  0  0  0
   -0.1908   10.3969   14.7400 N   0  0  0  0  0  0  0  0  0  0  0  0
   -0.5953    9.3686   14.3856 C   0  0  0  0  0  0  0  0  0  0  0  0
   -3.8536    0.4435   11.0919 S   0  0  0  0  0  0  0  0  0  0  0  0
   -4.0555   -0.5283   12.1617 O   0  0  0  0  0  0  0  0  0  0  0  0
   -2.7919    0.1298   10.1719 O   0  0  0  0  0  0  0  0  0  0  0  0
   -5.2150    0.5989   10.2649 N   0  0  0  0  0  0  0  0  0  0  0  0
   -5.9777    0.8216   10.9044 H   0  0  0  0  0  0  0  0  0  0  0  0
   -5.4208   -0.2754    9.7815 H   0  0  0  0  0  0  0  0  0  0  0  0
 13 14  3  0  0  0
 14  9  1  0  0  0
  8  9  2  0  0  0
  8  7  1  0  0  0
  9 10  1  0  0  0
  7 12  2  0  0  0
 10 11  2  0  0  0
 12 11  1  0  0  0
 12  1  1  0  0  0
  1  2  2  0  0  0
  1  6  1  0  0  0
  2  3  1  0  0  0
  6  5  2  0  0  0
  3  4  2  0  0  0
  5  4  1  0  0  0
  4 15  1  0  0  0
 18 15  1  0  0  0
 16 15  2  0  0  0
 15 17  2  0  0  0
 18 19  1  0  0  0
 18 20  1  0  0  0
M  END
> <minimizedAffinity>
-6.03613

$$$$
5N24_8HE_A_302


 20 21  0  0  0  0  0  0  0  0999 V2000
   -4.0631    5.0420   12.9472 C   0  0  0  0  0  0  0  0  0  0  0  0
   -4.5971    3.8087   12.5036 C   0  0  0  0  0  0  0  0  0  0  0  0
   -4.6269    2.6943   13.3748 C   0  0  0  0  0  0  0  0  0  0  0  0
   -4.1279    2.7743   14.6880 C   0  0  0  0  0  0  0  0  0  0  0  0
   -3.6106    4.0109   15.1059 C   0  0  0  0  0  0  0  0  0  0  0  0
   -3.5781    5.1202   14.2537 C   0  0  0  0  0  0  0  0  0  0  0  0
   -5.0419    6.5786   11.1992 C   0  0  0  0  0  0  0  0  0  0  0  0
   -4.9557    7.7308   10.4167 C   0  0  0  0  0  0  0  0  0  0  0  0
   -3.8344    8.5551   10.5143 C   0  0  0  0  0  0  0  0  0  0  0  0
   -2.7997    8.2430   11.3932 C   0  0  0  0  0  0  0  0  0  0  0  0
   -2.8954    7.0960   12.1821 C   0  0  0  0  0  0  0  0  0  0  0  0
   -4.0352    6.2838   12.1113 C   0  0  0  0  0  0  0  0  0  0  0  0
   -3.7130   10.5788    9.1378 N   0  0  0  0  0  0  0  0  0  0  0  0
   -3.7662    9.6148    9.7817 C   0  0  0  0  0  0  0  0  0  0  0  0
   -4.1876    1.5102   15.7335 S   0  0  0  0  0  0  0  0  0  0  0  0
   -5.1660    1.7787   16.7823 O   0  0  0  0  0  0  0  0  0  0  0  0
   -2.8280    1.3707   16.1854 O   0  0  0  0  0  0  0  0  0  0  0  0
   -4.6066    0.1737   14.9592 N   0  0  0  0  0  0  0  0  0  0  0  0
   -5.5692    0.2576   14.6324 H   0  0  0  0  0  0  0  0  0  0  0  0
   -4.5303   -0.6234   15.5910 H   0  0  0  0  0  0  0  0  0  0  0  0
 13 14  3  0  0  0
 14  9  1  0  0  0
  8  9  2  0  0  0
  8  7  1  0  0  0
  9 10  1  0  0  0
  7 12  2  0  0  0
 10 11  2  0  0  0
 12 11  1  0  0  0
 12  1  1  0  0  0
  1  2  2  0  0  0
  1  6  1  0  0  0
  2  3  1  0  0  0
  6  5  2  0  0  0
  3  4  2  0  0  0
  5  4  1  0  0  0
  4 15  1  0  0  0
 18 15  1  0  0  0
 16 15  2  0  0  0
 15 17  2  0  0  0
 18 19  1  0  0  0
 18 20  1  0  0  0
M  END
> <minimizedAffinity>
-5.86437

$$$$
