4Q3U_NNH_A_405


 19 18  0  0  0  0  0  0  0  0999 V2000
  -41.9620   20.2109   40.4671 C   0  0  0  0  0  0  0  0  0  0  0  0
  -41.3639   19.7473   41.7013 N   0  0  0  0  0  0  0  0  0  0  0  0
  -41.5483   18.8120   41.9471 H   0  0  0  0  0  0  0  0  0  0  0  0
  -40.5339   20.4872   42.6105 C   0  0  0  0  0  0  0  0  0  0  0  0
  -39.5241   19.9117   43.1916 N   0  0  0  0  0  0  0  0  0  0  0  0
  -39.3221   18.9663   43.0051 H   0  0  0  0  0  0  0  0  0  0  0  0
  -40.9224   21.9039   42.8229 N   0  0  0  0  0  0  0  0  0  0  0  0
  -40.1468   22.9059   42.3829 O   0  0  0  0  0  0  0  0  0  0  0  0
  -41.7618   22.1112   43.2937 H   0  0  0  0  0  0  0  0  0  0  0  0
  -39.3632   22.5395   41.9441 H   0  0  0  0  0  0  0  0  0  0  0  0
  -42.2266   18.9657   39.6213 C   0  0  0  0  0  0  0  0  0  0  0  0
  -43.2868   17.0207   40.8334 N   0  0  0  0  0  0  0  0  0  0  0  0
  -43.4968   18.2262   40.0644 C   0  0  0  0  0  0  0  0  0  0  0  0
  -44.1887   16.6102   41.0752 H   0  0  0  0  0  0  0  0  0  0  0  0
  -42.7762   17.2465   41.6870 H   0  0  0  0  0  0  0  0  0  0  0  0
  -44.2876   17.9500   38.7874 C   0  0  0  0  0  0  0  0  0  0  0  0
  -43.6940   17.0595   37.9472 O   0  0  0  0  0  0  0  0  0  0  0  0
  -45.3583   18.4196   38.4122 O   0  0  0  0  0  0  0  0  0  0  0  0
  -45.8128   19.0378   38.9499 H   0  0  0  0  0  0  0  0  0  0  0  0
 12 13  1  0  0  0
 13 16  1  0  0  0
 13 11  1  0  0  0
 16 17  2  0  0  0
 16 18  1  0  0  0
 11  1  1  0  0  0
  1  2  1  0  0  0
  2  4  1  0  0  0
  4  7  1  0  0  0
  4  5  2  0  0  0
  7  8  1  0  0  0
 12 14  1  0  0  0
 12 15  1  0  0  0
  2  3  1  0  0  0
  7  9  1  0  0  0
  5  6  1  0  0  0
  8 10  1  0  0  0
 18 19  1  0  0  0
M  END
> <minimizedAffinity>
-7.33974

$$$$
4Q3U_NNH_A_405


 19 18  0  0  0  0  0  0  0  0999 V2000
  -41.9258   18.6446   39.1256 C   0  0  0  0  0  0  0  0  0  0  0  0
  -41.8727   18.9433   40.5413 N   0  0  0  0  0  0  0  0  0  0  0  0
  -42.1055   18.2043   41.1486 H   0  0  0  0  0  0  0  0  0  0  0  0
  -41.5214   20.1877   41.1665 C   0  0  0  0  0  0  0  0  0  0  0  0
  -41.8927   21.3147   40.6366 N   0  0  0  0  0  0  0  0  0  0  0  0
  -42.4217   21.3176   39.8063 H   0  0  0  0  0  0  0  0  0  0  0  0
  -40.7238   20.0747   42.4132 N   0  0  0  0  0  0  0  0  0  0  0  0
  -41.2977   20.2257   43.6161 O   0  0  0  0  0  0  0  0  0  0  0  0
  -39.7593   19.8860   42.3563 H   0  0  0  0  0  0  0  0  0  0  0  0
  -42.2441   20.4052   43.5025 H   0  0  0  0  0  0  0  0  0  0  0  0
  -43.2748   17.9709   38.8770 C   0  0  0  0  0  0  0  0  0  0  0  0
  -43.5458   15.9221   40.3279 N   0  0  0  0  0  0  0  0  0  0  0  0
  -43.8410   17.3256   40.1496 C   0  0  0  0  0  0  0  0  0  0  0  0
  -43.9653   15.5943   41.1979 H   0  0  0  0  0  0  0  0  0  0  0  0
  -42.5352   15.7894   40.3665 H   0  0  0  0  0  0  0  0  0  0  0  0
  -45.3455   17.5858   40.1174 C   0  0  0  0  0  0  0  0  0  0  0  0
  -45.7641   18.2966   39.0354 O   0  0  0  0  0  0  0  0  0  0  0  0
  -46.2138   17.2611   40.9226 O   0  0  0  0  0  0  0  0  0  0  0  0
  -45.9841   16.7703   41.6869 H   0  0  0  0  0  0  0  0  0  0  0  0
 12 13  1  0  0  0
 13 16  1  0  0  0
 13 11  1  0  0  0
 16 17  2  0  0  0
 16 18  1  0  0  0
 11  1  1  0  0  0
  1  2  1  0  0  0
  2  4  1  0  0  0
  4  7  1  0  0  0
  4  5  2  0  0  0
  7  8  1  0  0  0
 12 14  1  0  0  0
 12 15  1  0  0  0
  2  3  1  0  0  0
  7  9  1  0  0  0
  5  6  1  0  0  0
  8 10  1  0  0  0
 18 19  1  0  0  0
M  END
> <minimizedAffinity>
-7.23651

$$$$
4Q3U_NNH_A_405


 19 18  0  0  0  0  0  0  0  0999 V2000
  -41.4727   19.1568   40.5902 C   0  0  0  0  0  0  0  0  0  0  0  0
  -41.5516   20.2570   41.5280 N   0  0  0  0  0  0  0  0  0  0  0  0
  -42.3676   20.8061   41.4835 H   0  0  0  0  0  0  0  0  0  0  0  0
  -40.5830   20.6442   42.5153 C   0  0  0  0  0  0  0  0  0  0  0  0
  -39.7004   19.7890   42.9376 N   0  0  0  0  0  0  0  0  0  0  0  0
  -39.6903   18.8732   42.5764 H   0  0  0  0  0  0  0  0  0  0  0  0
  -40.6828   22.0455   42.9944 N   0  0  0  0  0  0  0  0  0  0  0  0
  -40.1534   23.0558   42.2888 O   0  0  0  0  0  0  0  0  0  0  0  0
  -41.1445   22.2362   43.8428 H   0  0  0  0  0  0  0  0  0  0  0  0
  -39.7373   22.7059   41.4855 H   0  0  0  0  0  0  0  0  0  0  0  0
  -42.8372   19.0735   39.9069 C   0  0  0  0  0  0  0  0  0  0  0  0
  -43.6432   17.9359   37.8015 N   0  0  0  0  0  0  0  0  0  0  0  0
  -42.9929   17.7872   39.0836 C   0  0  0  0  0  0  0  0  0  0  0  0
  -43.6954   17.0281   37.3394 H   0  0  0  0  0  0  0  0  0  0  0  0
  -43.1080   18.5823   37.2217 H   0  0  0  0  0  0  0  0  0  0  0  0
  -43.7370   16.8021   39.9824 C   0  0  0  0  0  0  0  0  0  0  0  0
  -44.9162   17.2749   40.4695 O   0  0  0  0  0  0  0  0  0  0  0  0
  -43.4209   15.6684   40.3322 O   0  0  0  0  0  0  0  0  0  0  0  0
  -42.6193   15.2906   40.0279 H   0  0  0  0  0  0  0  0  0  0  0  0
 12 13  1  0  0  0
 13 16  1  0  0  0
 13 11  1  0  0  0
 16 17  2  0  0  0
 16 18  1  0  0  0
 11  1  1  0  0  0
  1  2  1  0  0  0
  2  4  1  0  0  0
  4  7  1  0  0  0
  4  5  2  0  0  0
  7  8  1  0  0  0
 12 14  1  0  0  0
 12 15  1  0  0  0
  2  3  1  0  0  0
  7  9  1  0  0  0
  5  6  1  0  0  0
  8 10  1  0  0  0
 18 19  1  0  0  0
M  END
> <minimizedAffinity>
-7.16363

$$$$
4Q3U_NNH_A_405


 19 18  0  0  0  0  0  0  0  0999 V2000
  -42.0119   20.3562   40.5027 C   0  0  0  0  0  0  0  0  0  0  0  0
  -41.2843   19.7899   41.6189 N   0  0  0  0  0  0  0  0  0  0  0  0
  -41.3360   18.8117   41.7178 H   0  0  0  0  0  0  0  0  0  0  0  0
  -40.4960   20.4829   42.5994 C   0  0  0  0  0  0  0  0  0  0  0  0
  -39.5136   19.8775   43.1968 N   0  0  0  0  0  0  0  0  0  0  0  0
  -39.3035   18.9418   42.9739 H   0  0  0  0  0  0  0  0  0  0  0  0
  -40.8934   21.8885   42.8626 N   0  0  0  0  0  0  0  0  0  0  0  0
  -40.1514   22.9115   42.4133 O   0  0  0  0  0  0  0  0  0  0  0  0
  -41.7139   22.0727   43.3746 H   0  0  0  0  0  0  0  0  0  0  0  0
  -39.3831   22.5667   41.9318 H   0  0  0  0  0  0  0  0  0  0  0  0
  -42.8244   19.2143   39.8931 C   0  0  0  0  0  0  0  0  0  0  0  0
  -41.5236   19.2226   37.7288 N   0  0  0  0  0  0  0  0  0  0  0  0
  -42.0271   18.4396   38.8344 C   0  0  0  0  0  0  0  0  0  0  0  0
  -41.0124   18.6160   37.0876 H   0  0  0  0  0  0  0  0  0  0  0  0
  -40.8989   19.9473   38.0821 H   0  0  0  0  0  0  0  0  0  0  0  0
  -42.9452   17.3161   38.3578 C   0  0  0  0  0  0  0  0  0  0  0  0
  -43.4437   16.5423   39.3598 O   0  0  0  0  0  0  0  0  0  0  0  0
  -43.2806   17.0096   37.2171 O   0  0  0  0  0  0  0  0  0  0  0  0
  -42.9679   17.5069   36.4872 H   0  0  0  0  0  0  0  0  0  0  0  0
 12 13  1  0  0  0
 13 16  1  0  0  0
 13 11  1  0  0  0
 16 17  2  0  0  0
 16 18  1  0  0  0
 11  1  1  0  0  0
  1  2  1  0  0  0
  2  4  1  0  0  0
  4  7  1  0  0  0
  4  5  2  0  0  0
  7  8  1  0  0  0
 12 14  1  0  0  0
 12 15  1  0  0  0
  2  3  1  0  0  0
  7  9  1  0  0  0
  5  6  1  0  0  0
  8 10  1  0  0  0
 18 19  1  0  0  0
M  END
> <minimizedAffinity>
-7.11167

$$$$
4Q3U_NNH_A_405


 19 18  0  0  0  0  0  0  0  0999 V2000
  -43.3336   19.3639   39.4938 C   0  0  0  0  0  0  0  0  0  0  0  0
  -43.1126   18.1308   40.2196 N   0  0  0  0  0  0  0  0  0  0  0  0
  -42.2579   18.0602   40.7030 H   0  0  0  0  0  0  0  0  0  0  0  0
  -43.9899   16.9979   40.3195 C   0  0  0  0  0  0  0  0  0  0  0  0
  -43.5256   15.7942   40.1635 N   0  0  0  0  0  0  0  0  0  0  0  0
  -42.5680   15.6558   39.9815 H   0  0  0  0  0  0  0  0  0  0  0  0
  -45.4135   17.3136   40.5965 N   0  0  0  0  0  0  0  0  0  0  0  0
  -46.3263   17.3064   39.6137 O   0  0  0  0  0  0  0  0  0  0  0  0
  -45.6920   17.5316   41.5153 H   0  0  0  0  0  0  0  0  0  0  0  0
  -45.8968   17.0748   38.7753 H   0  0  0  0  0  0  0  0  0  0  0  0
  -42.5965   19.2193   38.1629 C   0  0  0  0  0  0  0  0  0  0  0  0
  -44.9000   18.5310   37.3905 N   0  0  0  0  0  0  0  0  0  0  0  0
  -43.4950   18.6298   37.0665 C   0  0  0  0  0  0  0  0  0  0  0  0
  -45.4038   18.1294   36.5997 H   0  0  0  0  0  0  0  0  0  0  0  0
  -45.2687   19.4605   37.5919 H   0  0  0  0  0  0  0  0  0  0  0  0
  -42.8981   17.2666   36.7238 C   0  0  0  0  0  0  0  0  0  0  0  0
  -43.0488   16.9050   35.4208 O   0  0  0  0  0  0  0  0  0  0  0  0
  -42.3231   16.4589   37.4482 O   0  0  0  0  0  0  0  0  0  0  0  0
  -42.1907   16.6542   38.3550 H   0  0  0  0  0  0  0  0  0  0  0  0
 12 13  1  0  0  0
 13 16  1  0  0  0
 13 11  1  0  0  0
 16 17  2  0  0  0
 16 18  1  0  0  0
 11  1  1  0  0  0
  1  2  1  0  0  0
  2  4  1  0  0  0
  4  7  1  0  0  0
  4  5  2  0  0  0
  7  8  1  0  0  0
 12 14  1  0  0  0
 12 15  1  0  0  0
  2  3  1  0  0  0
  7  9  1  0  0  0
  5  6  1  0  0  0
  8 10  1  0  0  0
 18 19  1  0  0  0
M  END
> <minimizedAffinity>
-6.50719

$$$$
4Q3U_NNH_A_405


 19 18  0  0  0  0  0  0  0  0999 V2000
  -43.4794   18.5044   38.0789 C   0  0  0  0  0  0  0  0  0  0  0  0
  -44.1292   17.3451   38.6534 N   0  0  0  0  0  0  0  0  0  0  0  0
  -44.4022   16.6433   38.0193 H   0  0  0  0  0  0  0  0  0  0  0  0
  -44.4236   17.0954   40.0369 C   0  0  0  0  0  0  0  0  0  0  0  0
  -43.5020   16.6369   40.8301 N   0  0  0  0  0  0  0  0  0  0  0  0
  -42.5963   16.4646   40.4847 H   0  0  0  0  0  0  0  0  0  0  0  0
  -45.8166   17.3879   40.4575 N   0  0  0  0  0  0  0  0  0  0  0  0
  -46.8269   17.3470   39.5763 O   0  0  0  0  0  0  0  0  0  0  0  0
  -46.0018   17.6152   41.3973 H   0  0  0  0  0  0  0  0  0  0  0  0
  -46.4830   17.1102   38.7008 H   0  0  0  0  0  0  0  0  0  0  0  0
  -43.8069   19.6818   38.9965 C   0  0  0  0  0  0  0  0  0  0  0  0
  -41.6715   20.6437   38.0526 N   0  0  0  0  0  0  0  0  0  0  0  0
  -42.6227   20.6480   39.1407 C   0  0  0  0  0  0  0  0  0  0  0  0
  -40.9297   21.3164   38.2468 H   0  0  0  0  0  0  0  0  0  0  0  0
  -42.1448   20.9003   37.1863 H   0  0  0  0  0  0  0  0  0  0  0  0
  -41.9588   20.3012   40.4715 C   0  0  0  0  0  0  0  0  0  0  0  0
  -41.5833   21.3841   41.2047 O   0  0  0  0  0  0  0  0  0  0  0  0
  -41.7083   19.2024   40.9589 O   0  0  0  0  0  0  0  0  0  0  0  0
  -41.9439   18.4210   40.4987 H   0  0  0  0  0  0  0  0  0  0  0  0
 12 13  1  0  0  0
 13 16  1  0  0  0
 13 11  1  0  0  0
 16 17  2  0  0  0
 16 18  1  0  0  0
 11  1  1  0  0  0
  1  2  1  0  0  0
  2  4  1  0  0  0
  4  7  1  0  0  0
  4  5  2  0  0  0
  7  8  1  0  0  0
 12 14  1  0  0  0
 12 15  1  0  0  0
  2  3  1  0  0  0
  7  9  1  0  0  0
  5  6  1  0  0  0
  8 10  1  0  0  0
 18 19  1  0  0  0
M  END
> <minimizedAffinity>
-6.48851

$$$$
4Q3U_NNH_A_405


 19 18  0  0  0  0  0  0  0  0999 V2000
  -44.7072   18.9656   37.9668 C   0  0  0  0  0  0  0  0  0  0  0  0
  -45.3090   18.7647   39.2682 N   0  0  0  0  0  0  0  0  0  0  0  0
  -45.7029   19.5620   39.6906 H   0  0  0  0  0  0  0  0  0  0  0  0
  -45.4007   17.5427   40.0173 C   0  0  0  0  0  0  0  0  0  0  0  0
  -46.3607   17.3715   40.8762 N   0  0  0  0  0  0  0  0  0  0  0  0
  -47.0321   18.0787   41.0115 H   0  0  0  0  0  0  0  0  0  0  0  0
  -44.3413   16.5410   39.7395 N   0  0  0  0  0  0  0  0  0  0  0  0
  -43.3465   16.3276   40.6135 O   0  0  0  0  0  0  0  0  0  0  0  0
  -44.3692   16.0254   38.9012 H   0  0  0  0  0  0  0  0  0  0  0  0
  -43.4608   16.9087   41.3817 H   0  0  0  0  0  0  0  0  0  0  0  0
  -43.6539   20.0589   38.1425 C   0  0  0  0  0  0  0  0  0  0  0  0
  -42.1004   18.0777   38.3376 N   0  0  0  0  0  0  0  0  0  0  0  0
  -42.2977   19.4886   38.5809 C   0  0  0  0  0  0  0  0  0  0  0  0
  -41.1738   17.8028   38.6636 H   0  0  0  0  0  0  0  0  0  0  0  0
  -42.1783   17.8910   37.3378 H   0  0  0  0  0  0  0  0  0  0  0  0
  -42.1591   19.8300   40.0629 C   0  0  0  0  0  0  0  0  0  0  0  0
  -42.1275   21.1647   40.3257 O   0  0  0  0  0  0  0  0  0  0  0  0
  -42.0606   19.0834   41.0327 O   0  0  0  0  0  0  0  0  0  0  0  0
  -42.0761   18.1544   40.9122 H   0  0  0  0  0  0  0  0  0  0  0  0
 12 13  1  0  0  0
 13 16  1  0  0  0
 13 11  1  0  0  0
 16 17  2  0  0  0
 16 18  1  0  0  0
 11  1  1  0  0  0
  1  2  1  0  0  0
  2  4  1  0  0  0
  4  7  1  0  0  0
  4  5  2  0  0  0
  7  8  1  0  0  0
 12 14  1  0  0  0
 12 15  1  0  0  0
  2  3  1  0  0  0
  7  9  1  0  0  0
  5  6  1  0  0  0
  8 10  1  0  0  0
 18 19  1  0  0  0
M  END
> <minimizedAffinity>
-6.45238

$$$$
4Q3U_NNH_A_405


 19 18  0  0  0  0  0  0  0  0999 V2000
  -42.7202   18.0784   38.5478 C   0  0  0  0  0  0  0  0  0  0  0  0
  -43.7897   17.1543   38.8613 N   0  0  0  0  0  0  0  0  0  0  0  0
  -43.9949   16.4803   38.1736 H   0  0  0  0  0  0  0  0  0  0  0  0
  -44.5876   17.1023   40.0544 C   0  0  0  0  0  0  0  0  0  0  0  0
  -44.0604   16.7188   41.1786 N   0  0  0  0  0  0  0  0  0  0  0  0
  -43.1092   16.4679   41.2159 H   0  0  0  0  0  0  0  0  0  0  0  0
  -46.0081   17.5006   39.8921 N   0  0  0  0  0  0  0  0  0  0  0  0
  -46.3653   18.4360   38.9995 O   0  0  0  0  0  0  0  0  0  0  0  0
  -46.6986   17.0719   40.4477 H   0  0  0  0  0  0  0  0  0  0  0  0
  -45.5766   18.7582   38.5357 H   0  0  0  0  0  0  0  0  0  0  0  0
  -42.4021   17.8836   37.0657 C   0  0  0  0  0  0  0  0  0  0  0  0
  -41.4386   15.6122   36.5286 N   0  0  0  0  0  0  0  0  0  0  0  0
  -42.6247   16.4337   36.6132 C   0  0  0  0  0  0  0  0  0  0  0  0
  -41.6959   14.6743   36.2211 H   0  0  0  0  0  0  0  0  0  0  0  0
  -40.9953   15.5596   37.4457 H   0  0  0  0  0  0  0  0  0  0  0  0
  -43.3477   16.5201   35.2709 C   0  0  0  0  0  0  0  0  0  0  0  0
  -44.0441   15.3987   34.9409 O   0  0  0  0  0  0  0  0  0  0  0  0
  -43.3782   17.4375   34.4554 O   0  0  0  0  0  0  0  0  0  0  0  0
  -42.9169   18.2344   34.6292 H   0  0  0  0  0  0  0  0  0  0  0  0
 12 13  1  0  0  0
 13 16  1  0  0  0
 13 11  1  0  0  0
 16 17  2  0  0  0
 16 18  1  0  0  0
 11  1  1  0  0  0
  1  2  1  0  0  0
  2  4  1  0  0  0
  4  7  1  0  0  0
  4  5  2  0  0  0
  7  8  1  0  0  0
 12 14  1  0  0  0
 12 15  1  0  0  0
  2  3  1  0  0  0
  7  9  1  0  0  0
  5  6  1  0  0  0
  8 10  1  0  0  0
 18 19  1  0  0  0
M  END
> <minimizedAffinity>
-6.20874

$$$$
4Q3U_NNH_A_405


 19 18  0  0  0  0  0  0  0  0999 V2000
  -42.4401   17.9216   38.6193 C   0  0  0  0  0  0  0  0  0  0  0  0
  -43.3676   17.3560   37.6624 N   0  0  0  0  0  0  0  0  0  0  0  0
  -43.7281   16.4667   37.8825 H   0  0  0  0  0  0  0  0  0  0  0  0
  -43.8255   17.9357   36.4306 C   0  0  0  0  0  0  0  0  0  0  0  0
  -44.8935   18.6759   36.4123 N   0  0  0  0  0  0  0  0  0  0  0  0
  -45.3890   18.8458   37.2458 H   0  0  0  0  0  0  0  0  0  0  0  0
  -43.0088   17.6196   35.2322 N   0  0  0  0  0  0  0  0  0  0  0  0
  -43.2590   16.5276   34.4946 O   0  0  0  0  0  0  0  0  0  0  0  0
  -42.2725   18.2203   34.9750 H   0  0  0  0  0  0  0  0  0  0  0  0
  -44.0087   16.0446   34.8760 H   0  0  0  0  0  0  0  0  0  0  0  0
  -43.2822   18.4254   39.7909 C   0  0  0  0  0  0  0  0  0  0  0  0
  -43.5554   15.9429   40.1634 N   0  0  0  0  0  0  0  0  0  0  0  0
  -43.9519   17.2758   40.5568 C   0  0  0  0  0  0  0  0  0  0  0  0
  -44.0556   15.2581   40.7302 H   0  0  0  0  0  0  0  0  0  0  0  0
  -42.5511   15.8317   40.3034 H   0  0  0  0  0  0  0  0  0  0  0  0
  -45.4561   17.4867   40.3976 C   0  0  0  0  0  0  0  0  0  0  0  0
  -45.8112   18.1095   39.2412 O   0  0  0  0  0  0  0  0  0  0  0  0
  -46.3732   17.1907   41.1584 O   0  0  0  0  0  0  0  0  0  0  0  0
  -46.1884   16.7600   41.9698 H   0  0  0  0  0  0  0  0  0  0  0  0
 12 13  1  0  0  0
 13 16  1  0  0  0
 13 11  1  0  0  0
 16 17  2  0  0  0
 16 18  1  0  0  0
 11  1  1  0  0  0
  1  2  1  0  0  0
  2  4  1  0  0  0
  4  7  1  0  0  0
  4  5  2  0  0  0
  7  8  1  0  0  0
 12 14  1  0  0  0
 12 15  1  0  0  0
  2  3  1  0  0  0
  7  9  1  0  0  0
  5  6  1  0  0  0
  8 10  1  0  0  0
 18 19  1  0  0  0
M  END
> <minimizedAffinity>
-6.16903

$$$$
4Q3U_NNH_A_405


 19 18  0  0  0  0  0  0  0  0999 V2000
  -41.7296   18.7341   39.6454 C   0  0  0  0  0  0  0  0  0  0  0  0
  -41.9200   19.5610   38.4723 N   0  0  0  0  0  0  0  0  0  0  0  0
  -42.2891   20.4597   38.6314 H   0  0  0  0  0  0  0  0  0  0  0  0
  -41.6354   19.2284   37.1043 C   0  0  0  0  0  0  0  0  0  0  0  0
  -40.6009   19.7407   36.5074 N   0  0  0  0  0  0  0  0  0  0  0  0
  -40.0056   20.3550   36.9946 H   0  0  0  0  0  0  0  0  0  0  0  0
  -42.5924   18.2944   36.4605 N   0  0  0  0  0  0  0  0  0  0  0  0
  -42.3717   16.9713   36.4600 O   0  0  0  0  0  0  0  0  0  0  0  0
  -43.4013   18.6512   36.0274 H   0  0  0  0  0  0  0  0  0  0  0  0
  -41.5403   16.7821   36.9224 H   0  0  0  0  0  0  0  0  0  0  0  0
  -43.0914   18.6397   40.3325 C   0  0  0  0  0  0  0  0  0  0  0  0
  -43.1047   16.4178   39.1329 N   0  0  0  0  0  0  0  0  0  0  0  0
  -43.8284   17.3408   39.9773 C   0  0  0  0  0  0  0  0  0  0  0  0
  -43.6799   15.5937   38.9586 H   0  0  0  0  0  0  0  0  0  0  0  0
  -42.2410   16.1375   39.5976 H   0  0  0  0  0  0  0  0  0  0  0  0
  -45.1495   17.7690   39.3420 C   0  0  0  0  0  0  0  0  0  0  0  0
  -45.0079   18.5503   38.2371 O   0  0  0  0  0  0  0  0  0  0  0  0
  -46.3014   17.5232   39.6889 O   0  0  0  0  0  0  0  0  0  0  0  0
  -46.4599   16.9900   40.4429 H   0  0  0  0  0  0  0  0  0  0  0  0
 12 13  1  0  0  0
 13 16  1  0  0  0
 13 11  1  0  0  0
 16 17  2  0  0  0
 16 18  1  0  0  0
 11  1  1  0  0  0
  1  2  1  0  0  0
  2  4  1  0  0  0
  4  7  1  0  0  0
  4  5  2  0  0  0
  7  8  1  0  0  0
 12 14  1  0  0  0
 12 15  1  0  0  0
  2  3  1  0  0  0
  7  9  1  0  0  0
  5  6  1  0  0  0
  8 10  1  0  0  0
 18 19  1  0  0  0
M  END
> <minimizedAffinity>
-6.13503

$$$$
