3RT8_CWD_A_401


 19 19  0  0  0  0  0  0  0  0999 V2000
  -19.8555   -1.2156  -19.3623 N   0  0  0  0  0  0  0  0  0  0  0  0
  -18.6926   -0.7295  -19.8025 C   0  0  0  0  0  0  0  0  0  0  0  0
  -17.8458   -1.4740  -20.1804 O   0  0  0  0  0  0  0  0  0  0  0  0
  -18.4534    0.6271  -19.7850 N   0  0  0  0  0  0  0  0  0  0  0  0
  -19.4133    1.4860  -19.3208 C   0  0  0  0  0  0  0  0  0  0  0  0
  -19.1583    2.8501  -19.3422 O   0  0  0  0  0  0  0  0  0  0  0  0
  -20.6303    0.9925  -18.8618 C   0  0  0  0  0  0  0  0  0  0  0  0
  -21.9589    2.0555  -18.2739 Cl  0  0  0  0  0  0  0  0  0  0  0  0
  -20.8437   -0.3365  -18.8855 C   0  0  0  0  0  0  0  0  0  0  0  0
  -17.5919    0.9791  -20.1063 H   0  0  0  0  0  0  0  0  0  0  0  0
  -20.0924   -2.6402  -19.4490 C   0  0  0  0  0  0  0  0  0  0  0  0
  -20.3083   -3.1630  -20.8719 C   0  0  0  0  0  0  0  0  0  0  0  0
  -21.5709   -2.7580  -21.4626 N   0  0  0  0  0  0  0  0  0  0  0  0
  -22.3387   -3.2132  -20.9691 H   0  0  0  0  0  0  0  0  0  0  0  0
  -21.5894   -3.0304  -22.4454 H   0  0  0  0  0  0  0  0  0  0  0  0
  -19.8784   -4.6116  -21.1191 C   0  0  0  0  0  0  0  0  0  0  0  0
  -20.7046   -5.4608  -21.1889 O   0  0  0  0  0  0  0  0  0  0  0  0
  -18.5290   -4.9308  -20.9222 O   0  0  0  0  0  0  0  0  0  0  0  0
  -17.8891   -4.2484  -20.8693 H   0  0  0  0  0  0  0  0  0  0  0  0
  1  2  1  0  0  0
  1  9  1  0  0  0
  1 11  1  0  0  0
  2  3  2  0  0  0
  2  4  1  0  0  0
  4  5  1  0  0  0
  5  6  2  0  0  0
  5  7  1  0  0  0
  7  8  1  0  0  0
  7  9  2  0  0  0
 11 12  1  0  0  0
 12 13  1  0  0  0
 12 16  1  0  0  0
 16 17  2  0  0  0
 16 18  1  0  0  0
  4 10  1  0  0  0
 13 14  1  0  0  0
 13 15  1  0  0  0
 18 19  1  0  0  0
M  END
> <minimizedAffinity>
-9.06402

$$$$
3RT8_CWD_A_401


 19 19  0  0  0  0  0  0  0  0999 V2000
  -20.5919   -0.8258  -19.3028 N   0  0  0  0  0  0  0  0  0  0  0  0
  -21.8211   -0.3058  -19.3310 C   0  0  0  0  0  0  0  0  0  0  0  0
  -22.7651   -1.0241  -19.4146 O   0  0  0  0  0  0  0  0  0  0  0  0
  -22.0005    1.0599  -19.3033 N   0  0  0  0  0  0  0  0  0  0  0  0
  -20.9152    1.8922  -19.2394 C   0  0  0  0  0  0  0  0  0  0  0  0
  -21.1250    3.2629  -19.1820 O   0  0  0  0  0  0  0  0  0  0  0  0
  -19.6291    1.3629  -19.2067 C   0  0  0  0  0  0  0  0  0  0  0  0
  -18.1525    2.3851  -19.0820 Cl  0  0  0  0  0  0  0  0  0  0  0  0
  -19.4752    0.0258  -19.2365 C   0  0  0  0  0  0  0  0  0  0  0  0
  -22.9094    1.4375  -19.3294 H   0  0  0  0  0  0  0  0  0  0  0  0
  -20.4449   -2.2648  -19.2759 C   0  0  0  0  0  0  0  0  0  0  0  0
  -20.3078   -2.9154  -20.6553 C   0  0  0  0  0  0  0  0  0  0  0  0
  -21.4396   -2.6786  -21.5328 N   0  0  0  0  0  0  0  0  0  0  0  0
  -22.2595   -3.1641  -21.1688 H   0  0  0  0  0  0  0  0  0  0  0  0
  -21.2246   -3.0277  -22.4668 H   0  0  0  0  0  0  0  0  0  0  0  0
  -19.7268   -4.3319  -20.6661 C   0  0  0  0  0  0  0  0  0  0  0  0
  -18.5613   -4.4851  -20.5024 O   0  0  0  0  0  0  0  0  0  0  0  0
  -20.5229   -5.3559  -21.1945 O   0  0  0  0  0  0  0  0  0  0  0  0
  -21.4416   -5.2190  -21.3176 H   0  0  0  0  0  0  0  0  0  0  0  0
  1  2  1  0  0  0
  1  9  1  0  0  0
  1 11  1  0  0  0
  2  3  2  0  0  0
  2  4  1  0  0  0
  4  5  1  0  0  0
  5  6  2  0  0  0
  5  7  1  0  0  0
  7  8  1  0  0  0
  7  9  2  0  0  0
 11 12  1  0  0  0
 12 13  1  0  0  0
 12 16  1  0  0  0
 16 17  2  0  0  0
 16 18  1  0  0  0
  4 10  1  0  0  0
 13 14  1  0  0  0
 13 15  1  0  0  0
 18 19  1  0  0  0
M  END
> <minimizedAffinity>
-8.37848

$$$$
3RT8_CWD_A_401


 19 19  0  0  0  0  0  0  0  0999 V2000
  -20.9059    0.0883  -18.5483 N   0  0  0  0  0  0  0  0  0  0  0  0
  -19.9069    0.9303  -18.8230 C   0  0  0  0  0  0  0  0  0  0  0  0
  -19.9816    2.0672  -18.4826 O   0  0  0  0  0  0  0  0  0  0  0  0
  -18.8077    0.4990  -19.5326 N   0  0  0  0  0  0  0  0  0  0  0  0
  -18.7318   -0.8014  -19.9545 C   0  0  0  0  0  0  0  0  0  0  0  0
  -17.5998   -1.2175  -20.6412 O   0  0  0  0  0  0  0  0  0  0  0  0
  -19.7647   -1.6894  -19.6725 C   0  0  0  0  0  0  0  0  0  0  0  0
  -19.7246   -3.4232  -20.1553 Cl  0  0  0  0  0  0  0  0  0  0  0  0
  -20.8311   -1.2478  -18.9795 C   0  0  0  0  0  0  0  0  0  0  0  0
  -18.0765    1.1259  -19.7364 H   0  0  0  0  0  0  0  0  0  0  0  0
  -22.0172    0.5623  -17.7524 C   0  0  0  0  0  0  0  0  0  0  0  0
  -23.0438    1.3942  -18.5262 C   0  0  0  0  0  0  0  0  0  0  0  0
  -23.6016    2.4972  -17.7650 N   0  0  0  0  0  0  0  0  0  0  0  0
  -24.1785    2.1305  -17.0080 H   0  0  0  0  0  0  0  0  0  0  0  0
  -24.1738    3.0782  -18.3777 H   0  0  0  0  0  0  0  0  0  0  0  0
  -24.0287    0.5992  -19.3877 C   0  0  0  0  0  0  0  0  0  0  0  0
  -24.2875   -0.5212  -19.0937 O   0  0  0  0  0  0  0  0  0  0  0  0
  -24.3272    1.0992  -20.6614 O   0  0  0  0  0  0  0  0  0  0  0  0
  -24.1163    1.9862  -20.8777 H   0  0  0  0  0  0  0  0  0  0  0  0
  1  2  1  0  0  0
  1  9  1  0  0  0
  1 11  1  0  0  0
  2  3  2  0  0  0
  2  4  1  0  0  0
  4  5  1  0  0  0
  5  6  2  0  0  0
  5  7  1  0  0  0
  7  8  1  0  0  0
  7  9  2  0  0  0
 11 12  1  0  0  0
 12 13  1  0  0  0
 12 16  1  0  0  0
 16 17  2  0  0  0
 16 18  1  0  0  0
  4 10  1  0  0  0
 13 14  1  0  0  0
 13 15  1  0  0  0
 18 19  1  0  0  0
M  END
> <minimizedAffinity>
-7.94604

$$$$
3RT8_CWD_A_401


 19 19  0  0  0  0  0  0  0  0999 V2000
  -20.9234    0.9530  -19.1166 N   0  0  0  0  0  0  0  0  0  0  0  0
  -19.8005    1.6346  -19.3553 C   0  0  0  0  0  0  0  0  0  0  0  0
  -19.8228    2.8234  -19.3720 O   0  0  0  0  0  0  0  0  0  0  0  0
  -18.6244    0.9682  -19.6209 N   0  0  0  0  0  0  0  0  0  0  0  0
  -18.6006   -0.4007  -19.6344 C   0  0  0  0  0  0  0  0  0  0  0  0
  -17.3963   -1.0471  -19.8749 O   0  0  0  0  0  0  0  0  0  0  0  0
  -19.7632   -1.1227  -19.3846 C   0  0  0  0  0  0  0  0  0  0  0  0
  -19.8087   -2.9219  -19.3439 Cl  0  0  0  0  0  0  0  0  0  0  0  0
  -20.9026   -0.4527  -19.1290 C   0  0  0  0  0  0  0  0  0  0  0  0
  -17.8007    1.4765  -19.8011 H   0  0  0  0  0  0  0  0  0  0  0  0
  -22.1260    1.6860  -18.7855 C   0  0  0  0  0  0  0  0  0  0  0  0
  -23.3314    1.3634  -19.6730 C   0  0  0  0  0  0  0  0  0  0  0  0
  -23.4888    2.2626  -20.8016 N   0  0  0  0  0  0  0  0  0  0  0  0
  -23.7388    3.1919  -20.4636 H   0  0  0  0  0  0  0  0  0  0  0  0
  -24.2263    1.9138  -21.4140 H   0  0  0  0  0  0  0  0  0  0  0  0
  -24.6141    0.9728  -18.9339 C   0  0  0  0  0  0  0  0  0  0  0  0
  -24.9325   -0.1694  -18.8828 O   0  0  0  0  0  0  0  0  0  0  0  0
  -25.5282    1.9916  -18.6374 O   0  0  0  0  0  0  0  0  0  0  0  0
  -25.2609    2.8886  -18.6824 H   0  0  0  0  0  0  0  0  0  0  0  0
  1  2  1  0  0  0
  1  9  1  0  0  0
  1 11  1  0  0  0
  2  3  2  0  0  0
  2  4  1  0  0  0
  4  5  1  0  0  0
  5  6  2  0  0  0
  5  7  1  0  0  0
  7  8  1  0  0  0
  7  9  2  0  0  0
 11 12  1  0  0  0
 12 13  1  0  0  0
 12 16  1  0  0  0
 16 17  2  0  0  0
 16 18  1  0  0  0
  4 10  1  0  0  0
 13 14  1  0  0  0
 13 15  1  0  0  0
 18 19  1  0  0  0
M  END
> <minimizedAffinity>
-7.68550

$$$$
3RT8_CWD_A_401


 19 19  0  0  0  0  0  0  0  0999 V2000
  -21.3777   -0.1803  -18.9907 N   0  0  0  0  0  0  0  0  0  0  0  0
  -21.1377   -1.2858  -19.6997 C   0  0  0  0  0  0  0  0  0  0  0  0
  -22.0218   -2.0494  -19.9214 O   0  0  0  0  0  0  0  0  0  0  0  0
  -19.8636   -1.5664  -20.1425 N   0  0  0  0  0  0  0  0  0  0  0  0
  -18.8360   -0.7061  -19.8622 C   0  0  0  0  0  0  0  0  0  0  0  0
  -17.5682   -0.9973  -20.3460 O   0  0  0  0  0  0  0  0  0  0  0  0
  -19.0733    0.4506  -19.1267 C   0  0  0  0  0  0  0  0  0  0  0  0
  -17.7871    1.6526  -18.7502 Cl  0  0  0  0  0  0  0  0  0  0  0  0
  -20.3250    0.7057  -18.7016 C   0  0  0  0  0  0  0  0  0  0  0  0
  -19.6921   -2.3858  -20.6606 H   0  0  0  0  0  0  0  0  0  0  0  0
  -22.7377    0.1096  -18.5917 C   0  0  0  0  0  0  0  0  0  0  0  0
  -23.2361    1.4998  -18.9965 C   0  0  0  0  0  0  0  0  0  0  0  0
  -23.5429    2.3655  -17.8724 N   0  0  0  0  0  0  0  0  0  0  0  0
  -24.3573    2.0031  -17.3766 H   0  0  0  0  0  0  0  0  0  0  0  0
  -23.7426    3.3062  -18.2123 H   0  0  0  0  0  0  0  0  0  0  0  0
  -24.2207    1.5366  -20.1684 C   0  0  0  0  0  0  0  0  0  0  0  0
  -25.0304    0.6756  -20.2766 O   0  0  0  0  0  0  0  0  0  0  0  0
  -23.9214    2.3858  -21.2412 O   0  0  0  0  0  0  0  0  0  0  0  0
  -23.2795    3.0607  -21.1395 H   0  0  0  0  0  0  0  0  0  0  0  0
  1  2  1  0  0  0
  1  9  1  0  0  0
  1 11  1  0  0  0
  2  3  2  0  0  0
  2  4  1  0  0  0
  4  5  1  0  0  0
  5  6  2  0  0  0
  5  7  1  0  0  0
  7  8  1  0  0  0
  7  9  2  0  0  0
 11 12  1  0  0  0
 12 13  1  0  0  0
 12 16  1  0  0  0
 16 17  2  0  0  0
 16 18  1  0  0  0
  4 10  1  0  0  0
 13 14  1  0  0  0
 13 15  1  0  0  0
 18 19  1  0  0  0
M  END
> <minimizedAffinity>
-7.38619

$$$$
3RT8_CWD_A_401


 19 19  0  0  0  0  0  0  0  0999 V2000
  -21.7524   -0.5065  -18.9329 N   0  0  0  0  0  0  0  0  0  0  0  0
  -22.6582   -0.8482  -19.8523 C   0  0  0  0  0  0  0  0  0  0  0  0
  -23.6611   -0.2179  -19.9568 O   0  0  0  0  0  0  0  0  0  0  0  0
  -22.4553   -1.9499  -20.6541 N   0  0  0  0  0  0  0  0  0  0  0  0
  -21.3167   -2.6976  -20.5156 C   0  0  0  0  0  0  0  0  0  0  0  0
  -21.1231   -3.7846  -21.3565 O   0  0  0  0  0  0  0  0  0  0  0  0
  -20.3639   -2.3507  -19.5633 C   0  0  0  0  0  0  0  0  0  0  0  0
  -18.8232   -3.2558  -19.3449 Cl  0  0  0  0  0  0  0  0  0  0  0  0
  -20.5818   -1.2716  -18.7883 C   0  0  0  0  0  0  0  0  0  0  0  0
  -23.1293   -2.1997  -21.3268 H   0  0  0  0  0  0  0  0  0  0  0  0
  -21.9730    0.6890  -18.1485 C   0  0  0  0  0  0  0  0  0  0  0  0
  -20.7637    1.6244  -18.0621 C   0  0  0  0  0  0  0  0  0  0  0  0
  -20.5992    2.2554  -16.7653 N   0  0  0  0  0  0  0  0  0  0  0  0
  -21.3644    2.9109  -16.6065 H   0  0  0  0  0  0  0  0  0  0  0  0
  -19.7114    2.7570  -16.7414 H   0  0  0  0  0  0  0  0  0  0  0  0
  -20.5252    2.5153  -19.2842 C   0  0  0  0  0  0  0  0  0  0  0  0
  -19.4317    2.6021  -19.7377 O   0  0  0  0  0  0  0  0  0  0  0  0
  -21.5201    3.4440  -19.6146 O   0  0  0  0  0  0  0  0  0  0  0  0
  -22.3784    3.3614  -19.2479 H   0  0  0  0  0  0  0  0  0  0  0  0
  1  2  1  0  0  0
  1  9  1  0  0  0
  1 11  1  0  0  0
  2  3  2  0  0  0
  2  4  1  0  0  0
  4  5  1  0  0  0
  5  6  2  0  0  0
  5  7  1  0  0  0
  7  8  1  0  0  0
  7  9  2  0  0  0
 11 12  1  0  0  0
 12 13  1  0  0  0
 12 16  1  0  0  0
 16 17  2  0  0  0
 16 18  1  0  0  0
  4 10  1  0  0  0
 13 14  1  0  0  0
 13 15  1  0  0  0
 18 19  1  0  0  0
M  END
> <minimizedAffinity>
-7.27772

$$$$
3RT8_CWD_A_401


 19 19  0  0  0  0  0  0  0  0999 V2000
  -21.7474    0.8975  -18.6042 N   0  0  0  0  0  0  0  0  0  0  0  0
  -21.6167    2.2245  -18.6707 C   0  0  0  0  0  0  0  0  0  0  0  0
  -22.5486    2.9231  -18.4308 O   0  0  0  0  0  0  0  0  0  0  0  0
  -20.4193    2.7881  -19.0536 N   0  0  0  0  0  0  0  0  0  0  0  0
  -19.3526    1.9871  -19.3619 C   0  0  0  0  0  0  0  0  0  0  0  0
  -18.1492    2.5811  -19.7154 O   0  0  0  0  0  0  0  0  0  0  0  0
  -19.4749    0.6030  -19.2939 C   0  0  0  0  0  0  0  0  0  0  0  0
  -18.1110   -0.5188  -19.6433 Cl  0  0  0  0  0  0  0  0  0  0  0  0
  -20.6540    0.0719  -18.9194 C   0  0  0  0  0  0  0  0  0  0  0  0
  -20.3307    3.7673  -19.1056 H   0  0  0  0  0  0  0  0  0  0  0  0
  -23.0019    0.3435  -18.1435 C   0  0  0  0  0  0  0  0  0  0  0  0
  -24.0026    0.0239  -19.2576 C   0  0  0  0  0  0  0  0  0  0  0  0
  -23.4721   -0.8423  -20.2946 N   0  0  0  0  0  0  0  0  0  0  0  0
  -22.7510   -0.3449  -20.8171 H   0  0  0  0  0  0  0  0  0  0  0  0
  -24.2240   -1.1145  -20.9279 H   0  0  0  0  0  0  0  0  0  0  0  0
  -24.8662    1.1964  -19.7305 C   0  0  0  0  0  0  0  0  0  0  0  0
  -24.8648    1.4952  -20.8791 O   0  0  0  0  0  0  0  0  0  0  0  0
  -25.3595    2.0735  -18.7564 O   0  0  0  0  0  0  0  0  0  0  0  0
  -25.3535    1.8224  -17.8537 H   0  0  0  0  0  0  0  0  0  0  0  0
  1  2  1  0  0  0
  1  9  1  0  0  0
  1 11  1  0  0  0
  2  3  2  0  0  0
  2  4  1  0  0  0
  4  5  1  0  0  0
  5  6  2  0  0  0
  5  7  1  0  0  0
  7  8  1  0  0  0
  7  9  2  0  0  0
 11 12  1  0  0  0
 12 13  1  0  0  0
 12 16  1  0  0  0
 16 17  2  0  0  0
 16 18  1  0  0  0
  4 10  1  0  0  0
 13 14  1  0  0  0
 13 15  1  0  0  0
 18 19  1  0  0  0
M  END
> <minimizedAffinity>
-7.24292

$$$$
3RT8_CWD_A_401


 19 19  0  0  0  0  0  0  0  0999 V2000
  -21.1549   -0.4124  -19.2286 N   0  0  0  0  0  0  0  0  0  0  0  0
  -22.3544    0.1616  -19.3473 C   0  0  0  0  0  0  0  0  0  0  0  0
  -23.3239   -0.5155  -19.4721 O   0  0  0  0  0  0  0  0  0  0  0  0
  -22.4711    1.5342  -19.3654 N   0  0  0  0  0  0  0  0  0  0  0  0
  -21.3541    2.3182  -19.2542 C   0  0  0  0  0  0  0  0  0  0  0  0
  -21.5027    3.6980  -19.2447 O   0  0  0  0  0  0  0  0  0  0  0  0
  -20.0986    1.7326  -19.1272 C   0  0  0  0  0  0  0  0  0  0  0  0
  -18.5864    2.6903  -18.9355 Cl  0  0  0  0  0  0  0  0  0  0  0  0
  -20.0058    0.3895  -19.1136 C   0  0  0  0  0  0  0  0  0  0  0  0
  -23.3579    1.9515  -19.4582 H   0  0  0  0  0  0  0  0  0  0  0  0
  -21.0773   -1.8552  -19.1563 C   0  0  0  0  0  0  0  0  0  0  0  0
  -20.4812   -2.5226  -20.3989 C   0  0  0  0  0  0  0  0  0  0  0  0
  -21.4103   -3.3842  -21.1071 N   0  0  0  0  0  0  0  0  0  0  0  0
  -21.6244   -4.1989  -20.5319 H   0  0  0  0  0  0  0  0  0  0  0  0
  -20.9898   -3.6888  -21.9850 H   0  0  0  0  0  0  0  0  0  0  0  0
  -19.0507   -3.0471  -20.2488 C   0  0  0  0  0  0  0  0  0  0  0  0
  -18.1540   -2.2754  -20.1533 O   0  0  0  0  0  0  0  0  0  0  0  0
  -18.8163   -4.3919  -20.5618 O   0  0  0  0  0  0  0  0  0  0  0  0
  -19.5353   -4.9885  -20.6335 H   0  0  0  0  0  0  0  0  0  0  0  0
  1  2  1  0  0  0
  1  9  1  0  0  0
  1 11  1  0  0  0
  2  3  2  0  0  0
  2  4  1  0  0  0
  4  5  1  0  0  0
  5  6  2  0  0  0
  5  7  1  0  0  0
  7  8  1  0  0  0
  7  9  2  0  0  0
 11 12  1  0  0  0
 12 13  1  0  0  0
 12 16  1  0  0  0
 16 17  2  0  0  0
 16 18  1  0  0  0
  4 10  1  0  0  0
 13 14  1  0  0  0
 13 15  1  0  0  0
 18 19  1  0  0  0
M  END
> <minimizedAffinity>
-7.18607

$$$$
3RT8_CWD_A_401


 19 19  0  0  0  0  0  0  0  0999 V2000
  -21.1032   -0.8508  -19.2090 N   0  0  0  0  0  0  0  0  0  0  0  0
  -21.9446   -1.6043  -19.9208 C   0  0  0  0  0  0  0  0  0  0  0  0
  -21.5551   -2.6060  -20.4296 O   0  0  0  0  0  0  0  0  0  0  0  0
  -23.2515   -1.2079  -20.1019 N   0  0  0  0  0  0  0  0  0  0  0  0
  -23.6963   -0.0390  -19.5447 C   0  0  0  0  0  0  0  0  0  0  0  0
  -25.0253    0.3217  -19.7171 O   0  0  0  0  0  0  0  0  0  0  0  0
  -22.8304    0.7538  -18.7986 C   0  0  0  0  0  0  0  0  0  0  0  0
  -23.3456    2.2826  -17.9997 Cl  0  0  0  0  0  0  0  0  0  0  0  0
  -21.5566    0.3498  -18.6350 C   0  0  0  0  0  0  0  0  0  0  0  0
  -23.8658   -1.7654  -20.6321 H   0  0  0  0  0  0  0  0  0  0  0  0
  -19.7544   -1.3272  -18.9929 C   0  0  0  0  0  0  0  0  0  0  0  0
  -18.6737   -0.5325  -19.7313 C   0  0  0  0  0  0  0  0  0  0  0  0
  -18.0367   -1.2664  -20.8095 N   0  0  0  0  0  0  0  0  0  0  0  0
  -17.4849   -2.0311  -20.4207 H   0  0  0  0  0  0  0  0  0  0  0  0
  -17.4266   -0.6392  -21.3337 H   0  0  0  0  0  0  0  0  0  0  0  0
  -17.7505    0.3114  -18.8482 C   0  0  0  0  0  0  0  0  0  0  0  0
  -17.8775    1.4914  -18.8326 O   0  0  0  0  0  0  0  0  0  0  0  0
  -16.5891   -0.2969  -18.3557 O   0  0  0  0  0  0  0  0  0  0  0  0
  -16.5045   -1.2299  -18.3752 H   0  0  0  0  0  0  0  0  0  0  0  0
  1  2  1  0  0  0
  1  9  1  0  0  0
  1 11  1  0  0  0
  2  3  2  0  0  0
  2  4  1  0  0  0
  4  5  1  0  0  0
  5  6  2  0  0  0
  5  7  1  0  0  0
  7  8  1  0  0  0
  7  9  2  0  0  0
 11 12  1  0  0  0
 12 13  1  0  0  0
 12 16  1  0  0  0
 16 17  2  0  0  0
 16 18  1  0  0  0
  4 10  1  0  0  0
 13 14  1  0  0  0
 13 15  1  0  0  0
 18 19  1  0  0  0
M  END
> <minimizedAffinity>
-7.05845

$$$$
3RT8_CWD_A_401


 19 19  0  0  0  0  0  0  0  0999 V2000
  -19.9820   -0.0104  -18.7931 N   0  0  0  0  0  0  0  0  0  0  0  0
  -19.2151    1.0561  -19.0319 C   0  0  0  0  0  0  0  0  0  0  0  0
  -18.0309    0.9500  -19.0075 O   0  0  0  0  0  0  0  0  0  0  0  0
  -19.7873    2.2868  -19.2676 N   0  0  0  0  0  0  0  0  0  0  0  0
  -21.1500    2.4205  -19.2650 C   0  0  0  0  0  0  0  0  0  0  0  0
  -21.7012    3.6652  -19.5353 O   0  0  0  0  0  0  0  0  0  0  0  0
  -21.9604    1.3166  -19.0203 C   0  0  0  0  0  0  0  0  0  0  0  0
  -23.7586    1.3987  -19.0391 Cl  0  0  0  0  0  0  0  0  0  0  0  0
  -21.3815    0.1231  -18.7902 C   0  0  0  0  0  0  0  0  0  0  0  0
  -19.2163    3.0705  -19.4381 H   0  0  0  0  0  0  0  0  0  0  0  0
  -19.3472   -1.2969  -18.6063 C   0  0  0  0  0  0  0  0  0  0  0  0
  -18.9556   -2.0069  -19.9052 C   0  0  0  0  0  0  0  0  0  0  0  0
  -18.1857   -1.1816  -20.8181 N   0  0  0  0  0  0  0  0  0  0  0  0
  -18.7750   -0.4303  -21.1766 H   0  0  0  0  0  0  0  0  0  0  0  0
  -17.8531   -1.7530  -21.5948 H   0  0  0  0  0  0  0  0  0  0  0  0
  -20.0412   -2.8832  -20.5359 C   0  0  0  0  0  0  0  0  0  0  0  0
  -21.0948   -2.4054  -20.8011 O   0  0  0  0  0  0  0  0  0  0  0  0
  -19.8739   -4.2721  -20.4697 O   0  0  0  0  0  0  0  0  0  0  0  0
  -19.0355   -4.6335  -20.2590 H   0  0  0  0  0  0  0  0  0  0  0  0
  1  2  1  0  0  0
  1  9  1  0  0  0
  1 11  1  0  0  0
  2  3  2  0  0  0
  2  4  1  0  0  0
  4  5  1  0  0  0
  5  6  2  0  0  0
  5  7  1  0  0  0
  7  8  1  0  0  0
  7  9  2  0  0  0
 11 12  1  0  0  0
 12 13  1  0  0  0
 12 16  1  0  0  0
 16 17  2  0  0  0
 16 18  1  0  0  0
  4 10  1  0  0  0
 13 14  1  0  0  0
 13 15  1  0  0  0
 18 19  1  0  0  0
M  END
> <minimizedAffinity>
-6.84324

$$$$
