5GMN_949_A_302


 27 29  0  0  0  0  0  0  0  0999 V2000
    8.5082    3.3045   16.3831 C   0  0  0  0  0  0  0  0  0  0  0  0
    7.2351    3.5626   15.6339 C   0  0  0  0  0  0  0  0  0  0  0  0
    8.9298    2.5460   14.2948 C   0  0  0  0  0  0  0  0  0  0  0  0
    9.5051    2.7246   15.4900 C   0  0  0  0  0  0  0  0  0  0  0  0
    6.0634    2.8405   16.2843 C   0  0  0  0  0  0  0  0  0  0  0  0
    6.9909    5.0639   15.5450 C   0  0  0  0  0  0  0  0  0  0  0  0
    8.6723    3.5588   17.5703 O   0  0  0  0  0  0  0  0  0  0  0  0
    7.5505    2.9826   14.3552 O   0  0  0  0  0  0  0  0  0  0  0  0
   11.7521    3.5945   16.1494 C   0  0  0  0  0  0  0  0  0  0  0  0
   13.0745    3.4123   16.5433 C   0  0  0  0  0  0  0  0  0  0  0  0
   13.5695    2.1195   16.6919 C   0  0  0  0  0  0  0  0  0  0  0  0
   12.7490    1.0185   16.4531 C   0  0  0  0  0  0  0  0  0  0  0  0
   11.4281    1.2061   16.0554 C   0  0  0  0  0  0  0  0  0  0  0  0
   10.9276    2.4928   15.9108 C   0  0  0  0  0  0  0  0  0  0  0  0
   13.8711    4.4823   16.7779 F   0  0  0  0  0  0  0  0  0  0  0  0
    9.1131    1.3068   10.7223 C   0  0  0  0  0  0  0  0  0  0  0  0
   10.4576    1.4813   10.4147 C   0  0  0  0  0  0  0  0  0  0  0  0
    9.5063    2.1450   12.9627 C   0  0  0  0  0  0  0  0  0  0  0  0
   11.3168    2.0060   11.3797 C   0  0  0  0  0  0  0  0  0  0  0  0
    8.6372    1.6485   11.9891 C   0  0  0  0  0  0  0  0  0  0  0  0
   10.8443    2.3409   12.6456 C   0  0  0  0  0  0  0  0  0  0  0  0
   11.0242    1.1369    8.9503 S   0  0  0  0  0  0  0  0  0  0  0  0
   10.4570   -0.1282    8.5934 O   0  0  0  0  0  0  0  0  0  0  0  0
   12.6193    1.0310    8.9229 N   0  0  0  0  0  0  0  0  0  0  0  0
   10.5908    2.1437    8.0170 O   0  0  0  0  0  0  0  0  0  0  0  0
   12.9240    0.3173    9.5848 H   0  0  0  0  0  0  0  0  0  0  0  0
   13.0242    1.9305    9.1824 H   0  0  0  0  0  0  0  0  0  0  0  0
 12 11  2  0  0  0
 12 13  1  0  0  0
 11 10  1  0  0  0
  7  1  2  0  0  0
 13 14  2  0  0  0
 10 15  1  0  0  0
 10  9  2  0  0  0
 14  9  1  0  0  0
 14  4  1  0  0  0
  1  4  1  0  0  0
  1  2  1  0  0  0
  6  2  1  0  0  0
  4  3  2  0  0  0
  2  5  1  0  0  0
  2  8  1  0  0  0
  3  8  1  0  0  0
  3 18  1  0  0  0
 18 20  2  0  0  0
 18 21  1  0  0  0
 20 16  1  0  0  0
 21 19  2  0  0  0
 16 17  2  0  0  0
 19 17  1  0  0  0
 17 22  1  0  0  0
 24 22  1  0  0  0
 22 23  2  0  0  0
 22 25  2  0  0  0
 24 26  1  0  0  0
 24 27  1  0  0  0
M  END
> <minimizedAffinity>
-9.40022

$$$$
5GMN_949_A_302


 27 29  0  0  0  0  0  0  0  0999 V2000
    8.4022    3.0717   16.5148 C   0  0  0  0  0  0  0  0  0  0  0  0
    7.1061    2.7831   15.8181 C   0  0  0  0  0  0  0  0  0  0  0  0
    9.0222    2.3839   14.4517 C   0  0  0  0  0  0  0  0  0  0  0  0
    9.5198    2.8463   15.6049 C   0  0  0  0  0  0  0  0  0  0  0  0
    6.3098    1.7222   16.5648 C   0  0  0  0  0  0  0  0  0  0  0  0
    6.3127    4.0745   15.6610 C   0  0  0  0  0  0  0  0  0  0  0  0
    8.4902    3.4500   17.6767 O   0  0  0  0  0  0  0  0  0  0  0  0
    7.5821    2.2765   14.5582 O   0  0  0  0  0  0  0  0  0  0  0  0
   11.7884    2.1806   16.4117 C   0  0  0  0  0  0  0  0  0  0  0  0
   13.1071    2.4693   16.7506 C   0  0  0  0  0  0  0  0  0  0  0  0
   13.5668    3.7792   16.6451 C   0  0  0  0  0  0  0  0  0  0  0  0
   12.7174    4.7909   16.2008 C   0  0  0  0  0  0  0  0  0  0  0  0
   11.3980    4.4977   15.8669 C   0  0  0  0  0  0  0  0  0  0  0  0
   10.9357    3.1924   15.9650 C   0  0  0  0  0  0  0  0  0  0  0  0
   13.9333    1.4855   17.1798 F   0  0  0  0  0  0  0  0  0  0  0  0
    9.4354    1.3760   10.8260 C   0  0  0  0  0  0  0  0  0  0  0  0
   10.7493    1.7456   10.5615 C   0  0  0  0  0  0  0  0  0  0  0  0
    9.6715    2.1366   13.1156 C   0  0  0  0  0  0  0  0  0  0  0  0
   11.5122    2.3276   11.5736 C   0  0  0  0  0  0  0  0  0  0  0  0
    8.8951    1.5817   12.0963 C   0  0  0  0  0  0  0  0  0  0  0  0
   10.9762    2.5270   12.8427 C   0  0  0  0  0  0  0  0  0  0  0  0
   11.3835    1.5602    9.0961 S   0  0  0  0  0  0  0  0  0  0  0  0
   11.4206    2.8668    8.5123 O   0  0  0  0  0  0  0  0  0  0  0  0
   10.5110    0.5898    8.1723 N   0  0  0  0  0  0  0  0  0  0  0  0
   12.7217    1.0424    9.2123 O   0  0  0  0  0  0  0  0  0  0  0  0
    9.5635    0.9585    8.0914 H   0  0  0  0  0  0  0  0  0  0  0  0
   10.4795   -0.3401    8.5904 H   0  0  0  0  0  0  0  0  0  0  0  0
 12 11  2  0  0  0
 12 13  1  0  0  0
 11 10  1  0  0  0
  7  1  2  0  0  0
 13 14  2  0  0  0
 10 15  1  0  0  0
 10  9  2  0  0  0
 14  9  1  0  0  0
 14  4  1  0  0  0
  1  4  1  0  0  0
  1  2  1  0  0  0
  6  2  1  0  0  0
  4  3  2  0  0  0
  2  5  1  0  0  0
  2  8  1  0  0  0
  3  8  1  0  0  0
  3 18  1  0  0  0
 18 20  2  0  0  0
 18 21  1  0  0  0
 20 16  1  0  0  0
 21 19  2  0  0  0
 16 17  2  0  0  0
 19 17  1  0  0  0
 17 22  1  0  0  0
 24 22  1  0  0  0
 22 23  2  0  0  0
 22 25  2  0  0  0
 24 26  1  0  0  0
 24 27  1  0  0  0
M  END
> <minimizedAffinity>
-9.32107

$$$$
5GMN_949_A_302


 27 29  0  0  0  0  0  0  0  0999 V2000
   11.1170    0.2723   17.8131 C   0  0  0  0  0  0  0  0  0  0  0  0
   10.6786   -1.1498   17.6286 C   0  0  0  0  0  0  0  0  0  0  0  0
   10.8833    0.0496   15.5748 C   0  0  0  0  0  0  0  0  0  0  0  0
   11.1766    0.9486   16.5220 C   0  0  0  0  0  0  0  0  0  0  0  0
   11.7067   -2.1160   18.2003 C   0  0  0  0  0  0  0  0  0  0  0  0
    9.3076   -1.3474   18.2633 C   0  0  0  0  0  0  0  0  0  0  0  0
   11.3743    0.7784   18.8987 O   0  0  0  0  0  0  0  0  0  0  0  0
   10.6348   -1.2361   16.1929 O   0  0  0  0  0  0  0  0  0  0  0  0
   12.7539    2.8854   16.4813 C   0  0  0  0  0  0  0  0  0  0  0  0
   13.0302    4.2444   16.3639 C   0  0  0  0  0  0  0  0  0  0  0  0
   11.9818    5.1383   16.1641 C   0  0  0  0  0  0  0  0  0  0  0  0
   10.6691    4.6778   16.0780 C   0  0  0  0  0  0  0  0  0  0  0  0
   10.3976    3.3178   16.2001 C   0  0  0  0  0  0  0  0  0  0  0  0
   11.4396    2.4213   16.3941 C   0  0  0  0  0  0  0  0  0  0  0  0
   14.3062    4.6917   16.4449 F   0  0  0  0  0  0  0  0  0  0  0  0
    9.1903   -0.2380   12.2009 C   0  0  0  0  0  0  0  0  0  0  0  0
   10.0131    0.5330   11.3877 C   0  0  0  0  0  0  0  0  0  0  0  0
   10.6327    0.2054   14.0981 C   0  0  0  0  0  0  0  0  0  0  0  0
   11.1333    1.1528   11.9407 C   0  0  0  0  0  0  0  0  0  0  0  0
    9.4935   -0.3916   13.5546 C   0  0  0  0  0  0  0  0  0  0  0  0
   11.4401    0.9947   13.2893 C   0  0  0  0  0  0  0  0  0  0  0  0
    9.6642    0.7623    9.8354 S   0  0  0  0  0  0  0  0  0  0  0  0
    9.9618   -0.4729    9.1757 O   0  0  0  0  0  0  0  0  0  0  0  0
   10.5315    1.9360    9.1823 N   0  0  0  0  0  0  0  0  0  0  0  0
    8.2631    1.0618    9.6956 O   0  0  0  0  0  0  0  0  0  0  0  0
   11.5237    1.7218    9.2825 H   0  0  0  0  0  0  0  0  0  0  0  0
   10.3241    2.8156    9.6553 H   0  0  0  0  0  0  0  0  0  0  0  0
 12 11  2  0  0  0
 12 13  1  0  0  0
 11 10  1  0  0  0
  7  1  2  0  0  0
 13 14  2  0  0  0
 10 15  1  0  0  0
 10  9  2  0  0  0
 14  9  1  0  0  0
 14  4  1  0  0  0
  1  4  1  0  0  0
  1  2  1  0  0  0
  6  2  1  0  0  0
  4  3  2  0  0  0
  2  5  1  0  0  0
  2  8  1  0  0  0
  3  8  1  0  0  0
  3 18  1  0  0  0
 18 20  2  0  0  0
 18 21  1  0  0  0
 20 16  1  0  0  0
 21 19  2  0  0  0
 16 17  2  0  0  0
 19 17  1  0  0  0
 17 22  1  0  0  0
 24 22  1  0  0  0
 22 23  2  0  0  0
 22 25  2  0  0  0
 24 26  1  0  0  0
 24 27  1  0  0  0
M  END
> <minimizedAffinity>
-8.83473

$$$$
5GMN_949_A_302


 27 29  0  0  0  0  0  0  0  0999 V2000
   11.1380    1.6589   17.2060 C   0  0  0  0  0  0  0  0  0  0  0  0
   12.2291    0.6448   17.0332 C   0  0  0  0  0  0  0  0  0  0  0  0
   11.1590    1.2393   14.9839 C   0  0  0  0  0  0  0  0  0  0  0  0
   10.5060    1.9370   15.9211 C   0  0  0  0  0  0  0  0  0  0  0  0
   13.5616    1.1873   17.5305 C   0  0  0  0  0  0  0  0  0  0  0  0
   11.8450   -0.6447   17.7483 C   0  0  0  0  0  0  0  0  0  0  0  0
   10.8297    2.1627   18.2793 O   0  0  0  0  0  0  0  0  0  0  0  0
   12.2368    0.4957   15.6020 O   0  0  0  0  0  0  0  0  0  0  0  0
    8.0382    2.2635   16.1314 C   0  0  0  0  0  0  0  0  0  0  0  0
    6.8866    3.0379   16.0263 C   0  0  0  0  0  0  0  0  0  0  0  0
    6.9871    4.3510   15.5748 C   0  0  0  0  0  0  0  0  0  0  0  0
    8.2280    4.8870   15.2354 C   0  0  0  0  0  0  0  0  0  0  0  0
    9.3766    4.1069   15.3385 C   0  0  0  0  0  0  0  0  0  0  0  0
    9.2831    2.7986   15.7932 C   0  0  0  0  0  0  0  0  0  0  0  0
    5.6808    2.5178   16.3586 F   0  0  0  0  0  0  0  0  0  0  0  0
    9.6031   -0.2298   11.8609 C   0  0  0  0  0  0  0  0  0  0  0  0
   10.1411    0.5668   10.8566 C   0  0  0  0  0  0  0  0  0  0  0  0
   10.8581    1.0053   13.5270 C   0  0  0  0  0  0  0  0  0  0  0  0
   11.0222    1.5930   11.1967 C   0  0  0  0  0  0  0  0  0  0  0  0
    9.9522   -0.0034   13.1931 C   0  0  0  0  0  0  0  0  0  0  0  0
   11.3760    1.8153   12.5246 C   0  0  0  0  0  0  0  0  0  0  0  0
    9.7234    0.3564    9.3187 S   0  0  0  0  0  0  0  0  0  0  0  0
    9.7715   -1.0551    9.0846 O   0  0  0  0  0  0  0  0  0  0  0  0
   10.7184    1.0967    8.3096 N   0  0  0  0  0  0  0  0  0  0  0  0
    8.3819    0.8368    9.1137 O   0  0  0  0  0  0  0  0  0  0  0  0
   11.6681    0.7548    8.4566 H   0  0  0  0  0  0  0  0  0  0  0  0
   10.6889    2.1020    8.4793 H   0  0  0  0  0  0  0  0  0  0  0  0
 12 11  2  0  0  0
 12 13  1  0  0  0
 11 10  1  0  0  0
  7  1  2  0  0  0
 13 14  2  0  0  0
 10 15  1  0  0  0
 10  9  2  0  0  0
 14  9  1  0  0  0
 14  4  1  0  0  0
  1  4  1  0  0  0
  1  2  1  0  0  0
  6  2  1  0  0  0
  4  3  2  0  0  0
  2  5  1  0  0  0
  2  8  1  0  0  0
  3  8  1  0  0  0
  3 18  1  0  0  0
 18 20  2  0  0  0
 18 21  1  0  0  0
 20 16  1  0  0  0
 21 19  2  0  0  0
 16 17  2  0  0  0
 19 17  1  0  0  0
 17 22  1  0  0  0
 24 22  1  0  0  0
 22 23  2  0  0  0
 22 25  2  0  0  0
 24 26  1  0  0  0
 24 27  1  0  0  0
M  END
> <minimizedAffinity>
-8.66772

$$$$
5GMN_949_A_302


 27 29  0  0  0  0  0  0  0  0999 V2000
    8.5623    0.7188   16.3434 C   0  0  0  0  0  0  0  0  0  0  0  0
    7.4258    0.0362   15.6428 C   0  0  0  0  0  0  0  0  0  0  0  0
    9.1395    0.7821   14.1578 C   0  0  0  0  0  0  0  0  0  0  0  0
    9.5441    1.1823   15.3693 C   0  0  0  0  0  0  0  0  0  0  0  0
    7.2476   -1.3875   16.1514 C   0  0  0  0  0  0  0  0  0  0  0  0
    6.1539    0.8575   15.8138 C   0  0  0  0  0  0  0  0  0  0  0  0
    8.6345    0.8652   17.5576 O   0  0  0  0  0  0  0  0  0  0  0  0
    7.9020    0.0410   14.2849 O   0  0  0  0  0  0  0  0  0  0  0  0
   11.8667    1.4159   16.2590 C   0  0  0  0  0  0  0  0  0  0  0  0
   12.9749    2.1766   16.6201 C   0  0  0  0  0  0  0  0  0  0  0  0
   12.9278    3.5605   16.4758 C   0  0  0  0  0  0  0  0  0  0  0  0
   11.7851    4.1785   15.9711 C   0  0  0  0  0  0  0  0  0  0  0  0
   10.6777    3.4134   15.6152 C   0  0  0  0  0  0  0  0  0  0  0  0
   10.7209    2.0326   15.7519 C   0  0  0  0  0  0  0  0  0  0  0  0
   14.0864    1.5758   17.1080 F   0  0  0  0  0  0  0  0  0  0  0  0
   11.5644    1.4290   11.3235 C   0  0  0  0  0  0  0  0  0  0  0  0
   10.7152    1.5832   10.2337 C   0  0  0  0  0  0  0  0  0  0  0  0
    9.6537    1.1051   12.7798 C   0  0  0  0  0  0  0  0  0  0  0  0
    9.3372    1.4781   10.4211 C   0  0  0  0  0  0  0  0  0  0  0  0
   11.0352    1.1794   12.5906 C   0  0  0  0  0  0  0  0  0  0  0  0
    8.8082    1.2357   11.6857 C   0  0  0  0  0  0  0  0  0  0  0  0
   11.2990    1.8284    8.7562 S   0  0  0  0  0  0  0  0  0  0  0  0
   12.5840    1.1981    8.7283 O   0  0  0  0  0  0  0  0  0  0  0  0
   11.4614    3.3818    8.4146 N   0  0  0  0  0  0  0  0  0  0  0  0
   10.4333    1.2087    7.7871 O   0  0  0  0  0  0  0  0  0  0  0  0
   12.0750    3.8188    9.1023 H   0  0  0  0  0  0  0  0  0  0  0  0
   10.5469    3.8329    8.4396 H   0  0  0  0  0  0  0  0  0  0  0  0
 12 11  2  0  0  0
 12 13  1  0  0  0
 11 10  1  0  0  0
  7  1  2  0  0  0
 13 14  2  0  0  0
 10 15  1  0  0  0
 10  9  2  0  0  0
 14  9  1  0  0  0
 14  4  1  0  0  0
  1  4  1  0  0  0
  1  2  1  0  0  0
  6  2  1  0  0  0
  4  3  2  0  0  0
  2  5  1  0  0  0
  2  8  1  0  0  0
  3  8  1  0  0  0
  3 18  1  0  0  0
 18 20  2  0  0  0
 18 21  1  0  0  0
 20 16  1  0  0  0
 21 19  2  0  0  0
 16 17  2  0  0  0
 19 17  1  0  0  0
 17 22  1  0  0  0
 24 22  1  0  0  0
 22 23  2  0  0  0
 22 25  2  0  0  0
 24 26  1  0  0  0
 24 27  1  0  0  0
M  END
> <minimizedAffinity>
-8.56144

$$$$
5GMN_949_A_302


 27 29  0  0  0  0  0  0  0  0999 V2000
    8.1635    4.7918   16.9594 C   0  0  0  0  0  0  0  0  0  0  0  0
    6.7499    4.6678   16.4748 C   0  0  0  0  0  0  0  0  0  0  0  0
    8.1806    2.9360   15.6672 C   0  0  0  0  0  0  0  0  0  0  0  0
    8.9822    3.7268   16.3907 C   0  0  0  0  0  0  0  0  0  0  0  0
    5.7813    4.5485   17.6431 C   0  0  0  0  0  0  0  0  0  0  0  0
    6.4106    5.8553   15.5823 C   0  0  0  0  0  0  0  0  0  0  0  0
    8.5578    5.6716   17.7154 O   0  0  0  0  0  0  0  0  0  0  0  0
    6.8225    3.4333   15.7392 O   0  0  0  0  0  0  0  0  0  0  0  0
   11.0151    2.7135   17.4305 C   0  0  0  0  0  0  0  0  0  0  0  0
   12.3921    2.6344   17.6163 C   0  0  0  0  0  0  0  0  0  0  0  0
   13.2232    3.5236   16.9403 C   0  0  0  0  0  0  0  0  0  0  0  0
   12.6833    4.4805   16.0828 C   0  0  0  0  0  0  0  0  0  0  0  0
   11.3049    4.5580   15.9035 C   0  0  0  0  0  0  0  0  0  0  0  0
   10.4717    3.6706   16.5708 C   0  0  0  0  0  0  0  0  0  0  0  0
   12.9170    1.7027   18.4476 F   0  0  0  0  0  0  0  0  0  0  0  0
    8.7939   -0.5907   14.4350 C   0  0  0  0  0  0  0  0  0  0  0  0
    8.9350   -0.4074   13.0641 C   0  0  0  0  0  0  0  0  0  0  0  0
    8.4871    1.7954   14.7329 C   0  0  0  0  0  0  0  0  0  0  0  0
    8.8319    0.8778   12.5325 C   0  0  0  0  0  0  0  0  0  0  0  0
    8.5594    0.5065   15.2651 C   0  0  0  0  0  0  0  0  0  0  0  0
    8.6045    1.9735   13.3605 C   0  0  0  0  0  0  0  0  0  0  0  0
    9.1626   -1.6577   12.0799 S   0  0  0  0  0  0  0  0  0  0  0  0
    7.9149   -2.3581   12.0340 O   0  0  0  0  0  0  0  0  0  0  0  0
   10.3072   -2.6445   12.6019 N   0  0  0  0  0  0  0  0  0  0  0  0
    9.4997   -1.1801   10.7643 O   0  0  0  0  0  0  0  0  0  0  0  0
   10.0664   -2.9815   13.5340 H   0  0  0  0  0  0  0  0  0  0  0  0
   11.1956   -2.1447   12.6401 H   0  0  0  0  0  0  0  0  0  0  0  0
 12 11  2  0  0  0
 12 13  1  0  0  0
 11 10  1  0  0  0
  7  1  2  0  0  0
 13 14  2  0  0  0
 10 15  1  0  0  0
 10  9  2  0  0  0
 14  9  1  0  0  0
 14  4  1  0  0  0
  1  4  1  0  0  0
  1  2  1  0  0  0
  6  2  1  0  0  0
  4  3  2  0  0  0
  2  5  1  0  0  0
  2  8  1  0  0  0
  3  8  1  0  0  0
  3 18  1  0  0  0
 18 20  2  0  0  0
 18 21  1  0  0  0
 20 16  1  0  0  0
 21 19  2  0  0  0
 16 17  2  0  0  0
 19 17  1  0  0  0
 17 22  1  0  0  0
 24 22  1  0  0  0
 22 23  2  0  0  0
 22 25  2  0  0  0
 24 26  1  0  0  0
 24 27  1  0  0  0
M  END
> <minimizedAffinity>
-8.28850

$$$$
5GMN_949_A_302


 27 29  0  0  0  0  0  0  0  0999 V2000
    7.9975    4.5519   17.2792 C   0  0  0  0  0  0  0  0  0  0  0  0
    6.5848    4.5377   16.7766 C   0  0  0  0  0  0  0  0  0  0  0  0
    8.1003    3.3462   15.3688 C   0  0  0  0  0  0  0  0  0  0  0  0
    8.8671    3.8433   16.3467 C   0  0  0  0  0  0  0  0  0  0  0  0
    5.6473    3.9154   17.8018 C   0  0  0  0  0  0  0  0  0  0  0  0
    6.1587    5.9545   16.4122 C   0  0  0  0  0  0  0  0  0  0  0  0
    8.3531    5.0931   18.3193 O   0  0  0  0  0  0  0  0  0  0  0  0
    6.7167    3.6914   15.6203 O   0  0  0  0  0  0  0  0  0  0  0  0
   10.9490    2.7679   17.2125 C   0  0  0  0  0  0  0  0  0  0  0  0
   12.3309    2.7118   17.3690 C   0  0  0  0  0  0  0  0  0  0  0  0
   13.1212    3.7133   16.8116 C   0  0  0  0  0  0  0  0  0  0  0  0
   12.5361    4.7595   16.1005 C   0  0  0  0  0  0  0  0  0  0  0  0
   11.1530    4.8132   15.9503 C   0  0  0  0  0  0  0  0  0  0  0  0
   10.3604    3.8145   16.4993 C   0  0  0  0  0  0  0  0  0  0  0  0
   12.8997    1.6936   18.0578 F   0  0  0  0  0  0  0  0  0  0  0  0
   10.1923    1.9132   12.5577 C   0  0  0  0  0  0  0  0  0  0  0  0
    9.2303    1.3492   11.7276 C   0  0  0  0  0  0  0  0  0  0  0  0
    8.4564    2.6778   14.0672 C   0  0  0  0  0  0  0  0  0  0  0  0
    7.8846    1.4367   12.0834 C   0  0  0  0  0  0  0  0  0  0  0  0
    9.8067    2.5656   13.7297 C   0  0  0  0  0  0  0  0  0  0  0  0
    7.4986    2.0929   13.2488 C   0  0  0  0  0  0  0  0  0  0  0  0
    9.6488    0.5548   10.3943 S   0  0  0  0  0  0  0  0  0  0  0  0
    9.6386   -0.8342   10.7410 O   0  0  0  0  0  0  0  0  0  0  0  0
   11.1045    0.9619    9.8733 N   0  0  0  0  0  0  0  0  0  0  0  0
    8.6785    0.8039    9.3604 O   0  0  0  0  0  0  0  0  0  0  0  0
   11.7902    0.7846   10.6073 H   0  0  0  0  0  0  0  0  0  0  0  0
   11.1141    1.9527    9.6312 H   0  0  0  0  0  0  0  0  0  0  0  0
 12 11  2  0  0  0
 12 13  1  0  0  0
 11 10  1  0  0  0
  7  1  2  0  0  0
 13 14  2  0  0  0
 10 15  1  0  0  0
 10  9  2  0  0  0
 14  9  1  0  0  0
 14  4  1  0  0  0
  1  4  1  0  0  0
  1  2  1  0  0  0
  6  2  1  0  0  0
  4  3  2  0  0  0
  2  5  1  0  0  0
  2  8  1  0  0  0
  3  8  1  0  0  0
  3 18  1  0  0  0
 18 20  2  0  0  0
 18 21  1  0  0  0
 20 16  1  0  0  0
 21 19  2  0  0  0
 16 17  2  0  0  0
 19 17  1  0  0  0
 17 22  1  0  0  0
 24 22  1  0  0  0
 22 23  2  0  0  0
 22 25  2  0  0  0
 24 26  1  0  0  0
 24 27  1  0  0  0
M  END
> <minimizedAffinity>
-8.22641

$$$$
5GMN_949_A_302


 27 29  0  0  0  0  0  0  0  0999 V2000
   10.6516    1.5098   12.8892 C   0  0  0  0  0  0  0  0  0  0  0  0
    9.4190    1.0856   12.1481 C   0  0  0  0  0  0  0  0  0  0  0  0
    8.9737    2.6200   13.9217 C   0  0  0  0  0  0  0  0  0  0  0  0
   10.2942    2.4094   13.9804 C   0  0  0  0  0  0  0  0  0  0  0  0
    9.5217    1.4393   10.6711 C   0  0  0  0  0  0  0  0  0  0  0  0
    9.1879   -0.4064   12.3541 C   0  0  0  0  0  0  0  0  0  0  0  0
   11.7851    1.1374   12.6106 O   0  0  0  0  0  0  0  0  0  0  0  0
    8.4198    1.8895   12.8008 O   0  0  0  0  0  0  0  0  0  0  0  0
   11.9922    1.9432   15.7524 C   0  0  0  0  0  0  0  0  0  0  0  0
   12.9278    2.3532   16.6978 C   0  0  0  0  0  0  0  0  0  0  0  0
   13.1573    3.7137   16.8840 C   0  0  0  0  0  0  0  0  0  0  0  0
   12.4612    4.6561   16.1292 C   0  0  0  0  0  0  0  0  0  0  0  0
   11.5235    4.2410   15.1876 C   0  0  0  0  0  0  0  0  0  0  0  0
   11.2943    2.8856   14.9938 C   0  0  0  0  0  0  0  0  0  0  0  0
   13.6062    1.4372   17.4295 F   0  0  0  0  0  0  0  0  0  0  0  0
    7.2086    5.4039   15.7835 C   0  0  0  0  0  0  0  0  0  0  0  0
    6.2505    4.7122   16.5159 C   0  0  0  0  0  0  0  0  0  0  0  0
    8.0336    3.3152   14.8707 C   0  0  0  0  0  0  0  0  0  0  0  0
    6.1775    3.3239   16.4061 C   0  0  0  0  0  0  0  0  0  0  0  0
    8.0898    4.7078   14.9547 C   0  0  0  0  0  0  0  0  0  0  0  0
    7.0603    2.6282   15.5848 C   0  0  0  0  0  0  0  0  0  0  0  0
    5.1952    5.4917   17.4447 S   0  0  0  0  0  0  0  0  0  0  0  0
    5.5822    5.2222   18.7964 O   0  0  0  0  0  0  0  0  0  0  0  0
    3.6938    4.9935   17.2123 N   0  0  0  0  0  0  0  0  0  0  0  0
    5.2800    6.9057   17.1883 O   0  0  0  0  0  0  0  0  0  0  0  0
    3.6360    3.9916   17.3945 H   0  0  0  0  0  0  0  0  0  0  0  0
    3.4190    5.1801   16.2479 H   0  0  0  0  0  0  0  0  0  0  0  0
 12 11  2  0  0  0
 12 13  1  0  0  0
 11 10  1  0  0  0
  7  1  2  0  0  0
 13 14  2  0  0  0
 10 15  1  0  0  0
 10  9  2  0  0  0
 14  9  1  0  0  0
 14  4  1  0  0  0
  1  4  1  0  0  0
  1  2  1  0  0  0
  6  2  1  0  0  0
  4  3  2  0  0  0
  2  5  1  0  0  0
  2  8  1  0  0  0
  3  8  1  0  0  0
  3 18  1  0  0  0
 18 20  2  0  0  0
 18 21  1  0  0  0
 20 16  1  0  0  0
 21 19  2  0  0  0
 16 17  2  0  0  0
 19 17  1  0  0  0
 17 22  1  0  0  0
 24 22  1  0  0  0
 22 23  2  0  0  0
 22 25  2  0  0  0
 24 26  1  0  0  0
 24 27  1  0  0  0
M  END
> <minimizedAffinity>
-7.89794

$$$$
5GMN_949_A_302


 27 29  0  0  0  0  0  0  0  0999 V2000
   10.6912    1.4162   12.8364 C   0  0  0  0  0  0  0  0  0  0  0  0
    9.4838    1.0642   12.0199 C   0  0  0  0  0  0  0  0  0  0  0  0
    9.0108    2.5844   13.7984 C   0  0  0  0  0  0  0  0  0  0  0  0
   10.3148    2.3110   13.9252 C   0  0  0  0  0  0  0  0  0  0  0  0
    9.6850    1.4402   10.5585 C   0  0  0  0  0  0  0  0  0  0  0  0
    9.1736   -0.4189   12.1811 C   0  0  0  0  0  0  0  0  0  0  0  0
   11.8202    0.9965   12.6127 O   0  0  0  0  0  0  0  0  0  0  0  0
    8.4875    1.9017   12.6336 O   0  0  0  0  0  0  0  0  0  0  0  0
   11.5225    4.0798   15.2111 C   0  0  0  0  0  0  0  0  0  0  0  0
   12.4075    4.4915   16.2033 C   0  0  0  0  0  0  0  0  0  0  0  0
   13.0511    3.5340   16.9825 C   0  0  0  0  0  0  0  0  0  0  0  0
   12.8093    2.1772   16.7749 C   0  0  0  0  0  0  0  0  0  0  0  0
   11.9263    1.7704   15.7784 C   0  0  0  0  0  0  0  0  0  0  0  0
   11.2775    2.7209   15.0020 C   0  0  0  0  0  0  0  0  0  0  0  0
   12.6404    5.8102   16.4068 F   0  0  0  0  0  0  0  0  0  0  0  0
    6.2228    3.1627   16.2933 C   0  0  0  0  0  0  0  0  0  0  0  0
    6.3001    4.5330   16.5147 C   0  0  0  0  0  0  0  0  0  0  0  0
    8.0518    3.3051   14.7088 C   0  0  0  0  0  0  0  0  0  0  0  0
    7.2683    5.2799   15.8441 C   0  0  0  0  0  0  0  0  0  0  0  0
    7.1038    2.5493   15.4015 C   0  0  0  0  0  0  0  0  0  0  0  0
    8.1431    4.6700   14.9494 C   0  0  0  0  0  0  0  0  0  0  0  0
    5.3269    5.2585   17.5685 S   0  0  0  0  0  0  0  0  0  0  0  0
    4.4441    6.0773   16.7940 O   0  0  0  0  0  0  0  0  0  0  0  0
    6.1265    6.1739   18.6072 N   0  0  0  0  0  0  0  0  0  0  0  0
    4.5666    4.2672   18.2839 O   0  0  0  0  0  0  0  0  0  0  0  0
    6.6643    6.8754   18.0982 H   0  0  0  0  0  0  0  0  0  0  0  0
    6.7597    5.5921   19.1558 H   0  0  0  0  0  0  0  0  0  0  0  0
 12 11  2  0  0  0
 12 13  1  0  0  0
 11 10  1  0  0  0
  7  1  2  0  0  0
 13 14  2  0  0  0
 10 15  1  0  0  0
 10  9  2  0  0  0
 14  9  1  0  0  0
 14  4  1  0  0  0
  1  4  1  0  0  0
  1  2  1  0  0  0
  6  2  1  0  0  0
  4  3  2  0  0  0
  2  5  1  0  0  0
  2  8  1  0  0  0
  3  8  1  0  0  0
  3 18  1  0  0  0
 18 20  2  0  0  0
 18 21  1  0  0  0
 20 16  1  0  0  0
 21 19  2  0  0  0
 16 17  2  0  0  0
 19 17  1  0  0  0
 17 22  1  0  0  0
 24 22  1  0  0  0
 22 23  2  0  0  0
 22 25  2  0  0  0
 24 26  1  0  0  0
 24 27  1  0  0  0
M  END
> <minimizedAffinity>
-7.72606

$$$$
5GMN_949_A_302


 27 29  0  0  0  0  0  0  0  0999 V2000
    9.4516   -1.4277   11.3216 C   0  0  0  0  0  0  0  0  0  0  0  0
    9.0712   -2.1912   12.5549 C   0  0  0  0  0  0  0  0  0  0  0  0
    9.9709   -0.0299   13.0217 C   0  0  0  0  0  0  0  0  0  0  0  0
   10.0311   -0.1405   11.6893 C   0  0  0  0  0  0  0  0  0  0  0  0
    7.5930   -2.5542   12.5374 C   0  0  0  0  0  0  0  0  0  0  0  0
    9.9523   -3.4279   12.6814 C   0  0  0  0  0  0  0  0  0  0  0  0
    9.2993   -1.8441   10.1795 O   0  0  0  0  0  0  0  0  0  0  0  0
    9.3487   -1.2148   13.5748 O   0  0  0  0  0  0  0  0  0  0  0  0
   10.5183    0.4877    9.3210 C   0  0  0  0  0  0  0  0  0  0  0  0
   11.0737    1.3283    8.3608 C   0  0  0  0  0  0  0  0  0  0  0  0
   11.7619    2.4678    8.7685 C   0  0  0  0  0  0  0  0  0  0  0  0
   11.8904    2.7669   10.1237 C   0  0  0  0  0  0  0  0  0  0  0  0
   11.3366    1.9206   11.0804 C   0  0  0  0  0  0  0  0  0  0  0  0
   10.6446    0.7859   10.6796 C   0  0  0  0  0  0  0  0  0  0  0  0
   10.9465    1.0390    7.0437 F   0  0  0  0  0  0  0  0  0  0  0  0
   12.4060    1.6477   15.3856 C   0  0  0  0  0  0  0  0  0  0  0  0
   11.7871    2.8673   15.6354 C   0  0  0  0  0  0  0  0  0  0  0  0
   10.5568    0.9888   13.9634 C   0  0  0  0  0  0  0  0  0  0  0  0
   10.5623    3.1484   15.0305 C   0  0  0  0  0  0  0  0  0  0  0  0
   11.7975    0.7162   14.5429 C   0  0  0  0  0  0  0  0  0  0  0  0
    9.9515    2.2172   14.1952 C   0  0  0  0  0  0  0  0  0  0  0  0
   12.4854    3.9757   16.5669 S   0  0  0  0  0  0  0  0  0  0  0  0
   11.5250    5.0261   16.7206 O   0  0  0  0  0  0  0  0  0  0  0  0
   13.8202    4.5670   15.9151 N   0  0  0  0  0  0  0  0  0  0  0  0
   12.7882    3.4031   17.8526 O   0  0  0  0  0  0  0  0  0  0  0  0
   13.6033    4.9721   15.0044 H   0  0  0  0  0  0  0  0  0  0  0  0
   14.5031    3.8181   15.8002 H   0  0  0  0  0  0  0  0  0  0  0  0
 12 11  2  0  0  0
 12 13  1  0  0  0
 11 10  1  0  0  0
  7  1  2  0  0  0
 13 14  2  0  0  0
 10 15  1  0  0  0
 10  9  2  0  0  0
 14  9  1  0  0  0
 14  4  1  0  0  0
  1  4  1  0  0  0
  1  2  1  0  0  0
  6  2  1  0  0  0
  4  3  2  0  0  0
  2  5  1  0  0  0
  2  8  1  0  0  0
  3  8  1  0  0  0
  3 18  1  0  0  0
 18 20  2  0  0  0
 18 21  1  0  0  0
 20 16  1  0  0  0
 21 19  2  0  0  0
 16 17  2  0  0  0
 19 17  1  0  0  0
 17 22  1  0  0  0
 24 22  1  0  0  0
 22 23  2  0  0  0
 22 25  2  0  0  0
 24 26  1  0  0  0
 24 27  1  0  0  0
M  END
> <minimizedAffinity>
-7.46211

$$$$
