5KQY_017_B_101


 42 45  0  0  0  0  0  0  0  0999 V2000
  -17.9328   13.7531  -19.0737 C   0  0  0  0  0  0  0  0  0  0  0  0
  -18.3338   14.7992  -18.2496 O   0  0  0  0  0  0  0  0  0  0  0  0
  -17.5629   15.1552  -17.7808 H   0  0  0  0  0  0  0  0  0  0  0  0
  -17.3320   12.6338  -18.2120 C   0  0  0  0  0  0  0  0  0  0  0  0
  -17.3638   11.3694  -18.9736 N   0  0  0  0  0  0  0  0  0  0  0  0
  -15.8864   10.7109  -19.4697 S   0  0  0  0  0  0  0  0  0  0  0  0
  -14.9366   11.7348  -19.7584 O   0  0  0  0  0  0  0  0  0  0  0  0
  -16.0927    9.9533  -20.6557 O   0  0  0  0  0  0  0  0  0  0  0  0
  -13.7101    7.2949  -15.0547 N   0  0  0  0  0  0  0  0  0  0  0  0
  -14.2378    8.0884  -16.1214 C   0  0  0  0  0  0  0  0  0  0  0  0
  -14.2421    9.4697  -15.9871 C   0  0  0  0  0  0  0  0  0  0  0  0
  -14.7493   10.2535  -17.0109 C   0  0  0  0  0  0  0  0  0  0  0  0
  -15.2395    9.6461  -18.1573 C   0  0  0  0  0  0  0  0  0  0  0  0
  -15.2397    8.2684  -18.2998 C   0  0  0  0  0  0  0  0  0  0  0  0
  -14.7273    7.4778  -17.2681 C   0  0  0  0  0  0  0  0  0  0  0  0
  -13.3635    7.7300  -14.2424 H   0  0  0  0  0  0  0  0  0  0  0  0
  -13.6934    6.3136  -15.1329 H   0  0  0  0  0  0  0  0  0  0  0  0
  -18.4515   10.4178  -18.7734 C   0  0  0  0  0  0  0  0  0  0  0  0
  -19.7438   10.6941  -19.5882 C   0  0  0  0  0  0  0  0  0  0  0  0
  -19.4426   10.9493  -21.0630 C   0  0  0  0  0  0  0  0  0  0  0  0
  -20.5877    9.4392  -19.4978 C   0  0  0  0  0  0  0  0  0  0  0  0
  -16.9498   14.2622  -20.1311 C   0  0  0  0  0  0  0  0  0  0  0  0
  -17.6707   15.1787  -20.9426 N   0  0  0  0  0  0  0  0  0  0  0  0
  -18.2174   14.8266  -22.2231 C   0  0  0  0  0  0  0  0  0  0  0  0
  -18.0416   13.7405  -22.7591 O   0  0  0  0  0  0  0  0  0  0  0  0
  -17.8015   16.0968  -20.6122 H   0  0  0  0  0  0  0  0  0  0  0  0
  -18.9943   15.8611  -22.8226 O   0  0  0  0  0  0  0  0  0  0  0  0
  -19.2369   15.8077  -24.1816 C   0  0  0  0  0  0  0  0  0  0  0  0
  -20.5610   16.4220  -24.3887 C   0  0  0  0  0  0  0  0  0  0  0  0
  -20.3386   17.7119  -24.3034 O   0  0  0  0  0  0  0  0  0  0  0  0
  -18.8769   17.9338  -24.8988 C   0  0  0  0  0  0  0  0  0  0  0  0
  -18.1264   18.8743  -23.9589 O   0  0  0  0  0  0  0  0  0  0  0  0
  -17.0578   18.0349  -23.3358 C   0  0  0  0  0  0  0  0  0  0  0  0
  -16.9027   17.0432  -24.1228 C   0  0  0  0  0  0  0  0  0  0  0  0
  -18.2950   16.8234  -24.9047 C   0  0  0  0  0  0  0  0  0  0  0  0
  -15.7546   15.0288  -19.5770 C   0  0  0  0  0  0  0  0  0  0  0  0
  -14.5179   16.7295  -20.8241 C   0  0  0  0  0  0  0  0  0  0  0  0
  -13.7190   17.2304  -21.8521 C   0  0  0  0  0  0  0  0  0  0  0  0
  -13.2420   16.3753  -22.8352 C   0  0  0  0  0  0  0  0  0  0  0  0
  -13.5724   15.0190  -22.7819 C   0  0  0  0  0  0  0  0  0  0  0  0
  -14.3678   14.5206  -21.7558 C   0  0  0  0  0  0  0  0  0  0  0  0
  -14.8475   15.3789  -20.7760 C   0  0  0  0  0  0  0  0  0  0  0  0
  9 10  1  0  0  0
 10 11  2  0  0  0
 10 15  1  0  0  0
 11 12  1  0  0  0
 12 13  2  0  0  0
 13 14  1  0  0  0
 13  6  1  0  0  0
 14 15  2  0  0  0
  6  7  2  0  0  0
  6  8  2  0  0  0
  6  5  1  0  0  0
  5 18  1  0  0  0
  5  4  1  0  0  0
 18 19  1  0  0  0
 19 20  1  0  0  0
 19 21  1  0  0  0
  4  1  1  0  0  0
  1  2  1  0  0  0
  1 22  1  0  0  0
 22 23  1  0  0  0
 22 36  1  0  0  0
 23 24  1  0  0  0
 24 25  2  0  0  0
 24 27  1  0  0  0
 27 28  1  0  0  0
 28 29  1  0  0  0
 28 35  1  0  0  0
 29 30  1  0  0  0
 30 31  1  0  0  0
 31 32  1  0  0  0
 31 35  1  0  0  0
 32 33  1  0  0  0
 33 34  1  0  0  0
 34 35  1  0  0  0
 36 42  1  0  0  0
 37 38  2  0  0  0
 37 42  1  0  0  0
 38 39  1  0  0  0
 39 40  2  0  0  0
 40 41  1  0  0  0
 41 42  2  0  0  0
  9 16  1  0  0  0
  9 17  1  0  0  0
  2  3  1  0  0  0
 23 26  1  0  0  0
M  END
> <minimizedAffinity>
-10.19962

$$$$
5KQY_017_B_101


 42 45  0  0  0  0  0  0  0  0999 V2000
  -16.5366   11.8738  -21.7250 C   0  0  0  0  0  0  0  0  0  0  0  0
  -16.4788   10.9208  -22.7363 O   0  0  0  0  0  0  0  0  0  0  0  0
  -16.9377   10.1160  -22.4488 H   0  0  0  0  0  0  0  0  0  0  0  0
  -15.8243   11.3304  -20.4785 C   0  0  0  0  0  0  0  0  0  0  0  0
  -15.6797   12.4199  -19.4927 N   0  0  0  0  0  0  0  0  0  0  0  0
  -16.1164   12.0962  -17.8905 S   0  0  0  0  0  0  0  0  0  0  0  0
  -17.4152   12.6071  -17.5970 O   0  0  0  0  0  0  0  0  0  0  0  0
  -15.1862   12.7293  -17.0206 O   0  0  0  0  0  0  0  0  0  0  0  0
  -16.1998    6.1714  -17.0032 N   0  0  0  0  0  0  0  0  0  0  0  0
  -16.1532    7.5852  -17.2151 C   0  0  0  0  0  0  0  0  0  0  0  0
  -17.3397    8.2637  -17.4557 C   0  0  0  0  0  0  0  0  0  0  0  0
  -17.3127    9.6335  -17.6626 C   0  0  0  0  0  0  0  0  0  0  0  0
  -16.1012   10.3069  -17.6200 C   0  0  0  0  0  0  0  0  0  0  0  0
  -14.9121    9.6379  -17.3812 C   0  0  0  0  0  0  0  0  0  0  0  0
  -14.9390    8.2570  -17.1713 C   0  0  0  0  0  0  0  0  0  0  0  0
  -17.0619    5.6971  -17.0347 H   0  0  0  0  0  0  0  0  0  0  0  0
  -15.3697    5.6726  -16.8259 H   0  0  0  0  0  0  0  0  0  0  0  0
  -14.6664   13.4526  -19.6816 C   0  0  0  0  0  0  0  0  0  0  0  0
  -15.1556   14.7552  -20.3702 C   0  0  0  0  0  0  0  0  0  0  0  0
  -14.6806   16.0029  -19.6296 C   0  0  0  0  0  0  0  0  0  0  0  0
  -14.5352   14.7721  -21.7522 C   0  0  0  0  0  0  0  0  0  0  0  0
  -17.9922   12.2540  -21.4417 C   0  0  0  0  0  0  0  0  0  0  0  0
  -18.2371   13.4622  -22.1477 N   0  0  0  0  0  0  0  0  0  0  0  0
  -18.7606   14.6426  -21.5191 C   0  0  0  0  0  0  0  0  0  0  0  0
  -19.1155   14.6859  -20.3486 O   0  0  0  0  0  0  0  0  0  0  0  0
  -18.0389   13.4917  -23.1116 H   0  0  0  0  0  0  0  0  0  0  0  0
  -18.8299   15.7741  -22.3841 O   0  0  0  0  0  0  0  0  0  0  0  0
  -19.0594   15.5683  -23.7308 C   0  0  0  0  0  0  0  0  0  0  0  0
  -20.4076   16.0979  -24.0051 C   0  0  0  0  0  0  0  0  0  0  0  0
  -20.2428   17.3983  -24.0546 O   0  0  0  0  0  0  0  0  0  0  0  0
  -18.7879   17.6218  -24.6656 C   0  0  0  0  0  0  0  0  0  0  0  0
  -18.0867   18.6878  -23.8270 O   0  0  0  0  0  0  0  0  0  0  0  0
  -16.9870   17.9665  -23.1162 C   0  0  0  0  0  0  0  0  0  0  0  0
  -16.7823   16.9060  -23.7946 C   0  0  0  0  0  0  0  0  0  0  0  0
  -18.1576   16.5439  -24.5534 C   0  0  0  0  0  0  0  0  0  0  0  0
  -19.0244   11.2496  -21.9404 C   0  0  0  0  0  0  0  0  0  0  0  0
  -19.8785    9.2700  -20.7875 C   0  0  0  0  0  0  0  0  0  0  0  0
  -20.4961    8.5585  -19.7589 C   0  0  0  0  0  0  0  0  0  0  0  0
  -20.9404    9.2267  -18.6269 C   0  0  0  0  0  0  0  0  0  0  0  0
  -20.7638   10.6094  -18.5347 C   0  0  0  0  0  0  0  0  0  0  0  0
  -20.1467   11.3173  -19.5603 C   0  0  0  0  0  0  0  0  0  0  0  0
  -19.7072   10.6473  -20.6937 C   0  0  0  0  0  0  0  0  0  0  0  0
  9 10  1  0  0  0
 10 11  2  0  0  0
 10 15  1  0  0  0
 11 12  1  0  0  0
 12 13  2  0  0  0
 13 14  1  0  0  0
 13  6  1  0  0  0
 14 15  2  0  0  0
  6  7  2  0  0  0
  6  8  2  0  0  0
  6  5  1  0  0  0
  5 18  1  0  0  0
  5  4  1  0  0  0
 18 19  1  0  0  0
 19 20  1  0  0  0
 19 21  1  0  0  0
  4  1  1  0  0  0
  1  2  1  0  0  0
  1 22  1  0  0  0
 22 23  1  0  0  0
 22 36  1  0  0  0
 23 24  1  0  0  0
 24 25  2  0  0  0
 24 27  1  0  0  0
 27 28  1  0  0  0
 28 29  1  0  0  0
 28 35  1  0  0  0
 29 30  1  0  0  0
 30 31  1  0  0  0
 31 32  1  0  0  0
 31 35  1  0  0  0
 32 33  1  0  0  0
 33 34  1  0  0  0
 34 35  1  0  0  0
 36 42  1  0  0  0
 37 38  2  0  0  0
 37 42  1  0  0  0
 38 39  1  0  0  0
 39 40  2  0  0  0
 40 41  1  0  0  0
 41 42  2  0  0  0
  9 16  1  0  0  0
  9 17  1  0  0  0
  2  3  1  0  0  0
 23 26  1  0  0  0
M  END
> <minimizedAffinity>
-9.98581

$$$$
5KQY_017_B_101


 42 45  0  0  0  0  0  0  0  0999 V2000
  -17.2354   12.1487  -18.5001 C   0  0  0  0  0  0  0  0  0  0  0  0
  -17.4563   12.8719  -17.3328 O   0  0  0  0  0  0  0  0  0  0  0  0
  -17.2192   12.3278  -16.5656 H   0  0  0  0  0  0  0  0  0  0  0  0
  -18.1296   10.9011  -18.4975 C   0  0  0  0  0  0  0  0  0  0  0  0
  -19.2429   11.1041  -19.4457 N   0  0  0  0  0  0  0  0  0  0  0  0
  -18.8774   11.1247  -21.0975 S   0  0  0  0  0  0  0  0  0  0  0  0
  -19.9937   10.7017  -21.8778 O   0  0  0  0  0  0  0  0  0  0  0  0
  -17.8014   10.2280  -21.3444 O   0  0  0  0  0  0  0  0  0  0  0  0
  -17.4174   16.7343  -22.6134 N   0  0  0  0  0  0  0  0  0  0  0  0
  -17.7470   15.3861  -22.2679 C   0  0  0  0  0  0  0  0  0  0  0  0
  -18.6686   15.1626  -21.2546 C   0  0  0  0  0  0  0  0  0  0  0  0
  -18.9996   13.8627  -20.9074 C   0  0  0  0  0  0  0  0  0  0  0  0
  -18.4096   12.8044  -21.5820 C   0  0  0  0  0  0  0  0  0  0  0  0
  -17.4885   13.0178  -22.5941 C   0  0  0  0  0  0  0  0  0  0  0  0
  -17.1554   14.3284  -22.9453 C   0  0  0  0  0  0  0  0  0  0  0  0
  -17.8382   17.4828  -22.1318 H   0  0  0  0  0  0  0  0  0  0  0  0
  -16.7699   16.9139  -23.3329 H   0  0  0  0  0  0  0  0  0  0  0  0
  -20.5934   10.6765  -19.0963 C   0  0  0  0  0  0  0  0  0  0  0  0
  -20.8119    9.1416  -19.0156 C   0  0  0  0  0  0  0  0  0  0  0  0
  -21.3530    8.7150  -17.6532 C   0  0  0  0  0  0  0  0  0  0  0  0
  -21.8570    8.7990  -20.0575 C   0  0  0  0  0  0  0  0  0  0  0  0
  -15.7509   11.7981  -18.6297 C   0  0  0  0  0  0  0  0  0  0  0  0
  -15.6286   10.4279  -18.2748 N   0  0  0  0  0  0  0  0  0  0  0  0
  -14.7287    9.9612  -17.2575 C   0  0  0  0  0  0  0  0  0  0  0  0
  -13.9364   10.6857  -16.6698 O   0  0  0  0  0  0  0  0  0  0  0  0
  -16.1861    9.7685  -18.7475 H   0  0  0  0  0  0  0  0  0  0  0  0
  -14.8401    8.5660  -16.9850 O   0  0  0  0  0  0  0  0  0  0  0  0
  -14.1464    8.0408  -15.9120 C   0  0  0  0  0  0  0  0  0  0  0  0
  -14.4474    8.9107  -14.7604 C   0  0  0  0  0  0  0  0  0  0  0  0
  -15.6501    8.5472  -14.3833 O   0  0  0  0  0  0  0  0  0  0  0  0
  -15.7367    6.9837  -14.6800 C   0  0  0  0  0  0  0  0  0  0  0  0
  -17.0791    6.7087  -15.3536 O   0  0  0  0  0  0  0  0  0  0  0  0
  -16.7404    6.3133  -16.7550 C   0  0  0  0  0  0  0  0  0  0  0  0
  -15.5231    5.9346  -16.7163 C   0  0  0  0  0  0  0  0  0  0  0  0
  -14.8180    6.6966  -15.4833 C   0  0  0  0  0  0  0  0  0  0  0  0
  -15.1836   11.9279  -20.0385 C   0  0  0  0  0  0  0  0  0  0  0  0
  -13.6338   13.5359  -21.0335 C   0  0  0  0  0  0  0  0  0  0  0  0
  -13.0915   14.7948  -21.2920 C   0  0  0  0  0  0  0  0  0  0  0  0
  -13.6735   15.9250  -20.7359 C   0  0  0  0  0  0  0  0  0  0  0  0
  -14.7984   15.7843  -19.9195 C   0  0  0  0  0  0  0  0  0  0  0  0
  -15.3389   14.5288  -19.6637 C   0  0  0  0  0  0  0  0  0  0  0  0
  -14.7520   13.3993  -20.2175 C   0  0  0  0  0  0  0  0  0  0  0  0
  9 10  1  0  0  0
 10 11  2  0  0  0
 10 15  1  0  0  0
 11 12  1  0  0  0
 12 13  2  0  0  0
 13 14  1  0  0  0
 13  6  1  0  0  0
 14 15  2  0  0  0
  6  7  2  0  0  0
  6  8  2  0  0  0
  6  5  1  0  0  0
  5 18  1  0  0  0
  5  4  1  0  0  0
 18 19  1  0  0  0
 19 20  1  0  0  0
 19 21  1  0  0  0
  4  1  1  0  0  0
  1  2  1  0  0  0
  1 22  1  0  0  0
 22 23  1  0  0  0
 22 36  1  0  0  0
 23 24  1  0  0  0
 24 25  2  0  0  0
 24 27  1  0  0  0
 27 28  1  0  0  0
 28 29  1  0  0  0
 28 35  1  0  0  0
 29 30  1  0  0  0
 30 31  1  0  0  0
 31 32  1  0  0  0
 31 35  1  0  0  0
 32 33  1  0  0  0
 33 34  1  0  0  0
 34 35  1  0  0  0
 36 42  1  0  0  0
 37 38  2  0  0  0
 37 42  1  0  0  0
 38 39  1  0  0  0
 39 40  2  0  0  0
 40 41  1  0  0  0
 41 42  2  0  0  0
  9 16  1  0  0  0
  9 17  1  0  0  0
  2  3  1  0  0  0
 23 26  1  0  0  0
M  END
> <minimizedAffinity>
-9.89873

$$$$
5KQY_017_B_101


 42 45  0  0  0  0  0  0  0  0999 V2000
  -16.3998   12.6779  -19.2508 C   0  0  0  0  0  0  0  0  0  0  0  0
  -15.8238   12.8546  -17.9973 O   0  0  0  0  0  0  0  0  0  0  0  0
  -16.5080   13.1151  -17.3609 H   0  0  0  0  0  0  0  0  0  0  0  0
  -17.0125   14.0062  -19.7163 C   0  0  0  0  0  0  0  0  0  0  0  0
  -16.6832   14.2161  -21.1401 N   0  0  0  0  0  0  0  0  0  0  0  0
  -17.8754   13.8581  -22.2859 S   0  0  0  0  0  0  0  0  0  0  0  0
  -19.1437   13.6585  -21.6649 O   0  0  0  0  0  0  0  0  0  0  0  0
  -17.5216   12.6580  -22.9622 O   0  0  0  0  0  0  0  0  0  0  0  0
  -18.2576   18.2937  -26.2955 N   0  0  0  0  0  0  0  0  0  0  0  0
  -18.1707   17.2524  -25.3187 C   0  0  0  0  0  0  0  0  0  0  0  0
  -18.0769   15.9371  -25.7515 C   0  0  0  0  0  0  0  0  0  0  0  0
  -17.9914   14.9161  -24.8186 C   0  0  0  0  0  0  0  0  0  0  0  0
  -17.9947   15.2244  -23.4665 C   0  0  0  0  0  0  0  0  0  0  0  0
  -18.0885   16.5340  -23.0255 C   0  0  0  0  0  0  0  0  0  0  0  0
  -18.1735   17.5638  -23.9658 C   0  0  0  0  0  0  0  0  0  0  0  0
  -18.2555   18.0706  -27.2544 H   0  0  0  0  0  0  0  0  0  0  0  0
  -18.3197   19.2335  -26.0089 H   0  0  0  0  0  0  0  0  0  0  0  0
  -15.7104   15.2321  -21.5277 C   0  0  0  0  0  0  0  0  0  0  0  0
  -14.4517   14.7079  -22.2702 C   0  0  0  0  0  0  0  0  0  0  0  0
  -13.6002   15.8489  -22.8214 C   0  0  0  0  0  0  0  0  0  0  0  0
  -13.6225   13.9651  -21.2427 C   0  0  0  0  0  0  0  0  0  0  0  0
  -17.4322   11.5486  -19.2019 C   0  0  0  0  0  0  0  0  0  0  0  0
  -16.9932   10.6455  -18.1970 N   0  0  0  0  0  0  0  0  0  0  0  0
  -16.2046    9.4800  -18.4837 C   0  0  0  0  0  0  0  0  0  0  0  0
  -15.9134    9.1213  -19.6171 O   0  0  0  0  0  0  0  0  0  0  0  0
  -17.2409   10.8267  -17.2616 H   0  0  0  0  0  0  0  0  0  0  0  0
  -15.7820    8.7695  -17.3218 O   0  0  0  0  0  0  0  0  0  0  0  0
  -14.4300    8.5699  -17.1198 C   0  0  0  0  0  0  0  0  0  0  0  0
  -13.8849    9.8635  -16.6691 C   0  0  0  0  0  0  0  0  0  0  0  0
  -14.2380    9.9443  -15.4084 O   0  0  0  0  0  0  0  0  0  0  0  0
  -14.2133    8.4477  -14.8610 C   0  0  0  0  0  0  0  0  0  0  0  0
  -15.4845    8.2268  -14.0445 O   0  0  0  0  0  0  0  0  0  0  0  0
  -16.2948    7.2521  -14.8372 C   0  0  0  0  0  0  0  0  0  0  0  0
  -15.4636    6.6666  -15.6075 C   0  0  0  0  0  0  0  0  0  0  0  0
  -14.2334    7.6791  -15.8512 C   0  0  0  0  0  0  0  0  0  0  0  0
  -18.8375   11.9834  -18.8030 C   0  0  0  0  0  0  0  0  0  0  0  0
  -20.5940   10.3062  -18.5221 C   0  0  0  0  0  0  0  0  0  0  0  0
  -21.5255    9.3518  -18.9311 C   0  0  0  0  0  0  0  0  0  0  0  0
  -21.6889    9.0808  -20.2821 C   0  0  0  0  0  0  0  0  0  0  0  0
  -20.9125    9.7697  -21.2172 C   0  0  0  0  0  0  0  0  0  0  0  0
  -19.9852   10.7219  -20.8081 C   0  0  0  0  0  0  0  0  0  0  0  0
  -19.8204   10.9879  -19.4558 C   0  0  0  0  0  0  0  0  0  0  0  0
  9 10  1  0  0  0
 10 11  2  0  0  0
 10 15  1  0  0  0
 11 12  1  0  0  0
 12 13  2  0  0  0
 13 14  1  0  0  0
 13  6  1  0  0  0
 14 15  2  0  0  0
  6  7  2  0  0  0
  6  8  2  0  0  0
  6  5  1  0  0  0
  5 18  1  0  0  0
  5  4  1  0  0  0
 18 19  1  0  0  0
 19 20  1  0  0  0
 19 21  1  0  0  0
  4  1  1  0  0  0
  1  2  1  0  0  0
  1 22  1  0  0  0
 22 23  1  0  0  0
 22 36  1  0  0  0
 23 24  1  0  0  0
 24 25  2  0  0  0
 24 27  1  0  0  0
 27 28  1  0  0  0
 28 29  1  0  0  0
 28 35  1  0  0  0
 29 30  1  0  0  0
 30 31  1  0  0  0
 31 32  1  0  0  0
 31 35  1  0  0  0
 32 33  1  0  0  0
 33 34  1  0  0  0
 34 35  1  0  0  0
 36 42  1  0  0  0
 37 38  2  0  0  0
 37 42  1  0  0  0
 38 39  1  0  0  0
 39 40  2  0  0  0
 40 41  1  0  0  0
 41 42  2  0  0  0
  9 16  1  0  0  0
  9 17  1  0  0  0
  2  3  1  0  0  0
 23 26  1  0  0  0
M  END
> <minimizedAffinity>
-9.66057

$$$$
5KQY_017_B_101


 42 45  0  0  0  0  0  0  0  0999 V2000
  -17.7171   12.6360  -18.6658 C   0  0  0  0  0  0  0  0  0  0  0  0
  -18.1082   13.2567  -17.4842 O   0  0  0  0  0  0  0  0  0  0  0  0
  -18.0397   12.6265  -16.7500 H   0  0  0  0  0  0  0  0  0  0  0  0
  -18.6576   11.4569  -18.9515 C   0  0  0  0  0  0  0  0  0  0  0  0
  -19.1655   11.5693  -20.3333 N   0  0  0  0  0  0  0  0  0  0  0  0
  -20.0354   10.2615  -20.9620 S   0  0  0  0  0  0  0  0  0  0  0  0
  -19.3097    9.6131  -22.0045 O   0  0  0  0  0  0  0  0  0  0  0  0
  -21.2590   10.7393  -21.5075 O   0  0  0  0  0  0  0  0  0  0  0  0
  -21.0401    6.2558  -16.6213 N   0  0  0  0  0  0  0  0  0  0  0  0
  -20.8180    7.2284  -17.6463 C   0  0  0  0  0  0  0  0  0  0  0  0
  -19.8016    7.0096  -18.5655 C   0  0  0  0  0  0  0  0  0  0  0  0
  -19.5731    7.9414  -19.5652 C   0  0  0  0  0  0  0  0  0  0  0  0
  -20.3677    9.0758  -19.6359 C   0  0  0  0  0  0  0  0  0  0  0  0
  -21.3839    9.3027  -18.7226 C   0  0  0  0  0  0  0  0  0  0  0  0
  -21.6154    8.3628  -17.7152 C   0  0  0  0  0  0  0  0  0  0  0  0
  -20.4734    5.4520  -16.5743 H   0  0  0  0  0  0  0  0  0  0  0  0
  -21.7595    6.3900  -15.9628 H   0  0  0  0  0  0  0  0  0  0  0  0
  -19.4851   12.8774  -20.8949 C   0  0  0  0  0  0  0  0  0  0  0  0
  -18.3347   13.5747  -21.6699 C   0  0  0  0  0  0  0  0  0  0  0  0
  -17.6246   12.6135  -22.6199 C   0  0  0  0  0  0  0  0  0  0  0  0
  -18.9753   14.6639  -22.5056 C   0  0  0  0  0  0  0  0  0  0  0  0
  -16.2525   12.2003  -18.5726 C   0  0  0  0  0  0  0  0  0  0  0  0
  -16.2570   10.8878  -18.0291 N   0  0  0  0  0  0  0  0  0  0  0  0
  -15.1498   10.3417  -17.2953 C   0  0  0  0  0  0  0  0  0  0  0  0
  -14.0836   10.9236  -17.1456 O   0  0  0  0  0  0  0  0  0  0  0  0
  -17.0554   10.3271  -18.1615 H   0  0  0  0  0  0  0  0  0  0  0  0
  -15.4025    9.0499  -16.7469 O   0  0  0  0  0  0  0  0  0  0  0  0
  -14.3960    8.4185  -16.0420 C   0  0  0  0  0  0  0  0  0  0  0  0
  -14.4311    8.9809  -14.6797 C   0  0  0  0  0  0  0  0  0  0  0  0
  -15.4466    8.3810  -14.1057 O   0  0  0  0  0  0  0  0  0  0  0  0
  -15.4871    6.9160  -14.7320 C   0  0  0  0  0  0  0  0  0  0  0  0
  -16.9380    6.5984  -15.0866 O   0  0  0  0  0  0  0  0  0  0  0  0
  -16.9750    6.5523  -16.5804 C   0  0  0  0  0  0  0  0  0  0  0  0
  -15.7693    6.3500  -16.9440 C   0  0  0  0  0  0  0  0  0  0  0  0
  -14.8105    6.9336  -15.7872 C   0  0  0  0  0  0  0  0  0  0  0  0
  -15.5263   12.1081  -19.9094 C   0  0  0  0  0  0  0  0  0  0  0  0
  -13.7189   13.3988  -20.9316 C   0  0  0  0  0  0  0  0  0  0  0  0
  -12.9885   14.5443  -21.2478 C   0  0  0  0  0  0  0  0  0  0  0  0
  -13.4217   15.7847  -20.8015 C   0  0  0  0  0  0  0  0  0  0  0  0
  -14.5876   15.8680  -20.0364 C   0  0  0  0  0  0  0  0  0  0  0  0
  -15.3156   14.7253  -19.7230 C   0  0  0  0  0  0  0  0  0  0  0  0
  -14.8776   13.4851  -20.1668 C   0  0  0  0  0  0  0  0  0  0  0  0
  9 10  1  0  0  0
 10 11  2  0  0  0
 10 15  1  0  0  0
 11 12  1  0  0  0
 12 13  2  0  0  0
 13 14  1  0  0  0
 13  6  1  0  0  0
 14 15  2  0  0  0
  6  7  2  0  0  0
  6  8  2  0  0  0
  6  5  1  0  0  0
  5 18  1  0  0  0
  5  4  1  0  0  0
 18 19  1  0  0  0
 19 20  1  0  0  0
 19 21  1  0  0  0
  4  1  1  0  0  0
  1  2  1  0  0  0
  1 22  1  0  0  0
 22 23  1  0  0  0
 22 36  1  0  0  0
 23 24  1  0  0  0
 24 25  2  0  0  0
 24 27  1  0  0  0
 27 28  1  0  0  0
 28 29  1  0  0  0
 28 35  1  0  0  0
 29 30  1  0  0  0
 30 31  1  0  0  0
 31 32  1  0  0  0
 31 35  1  0  0  0
 32 33  1  0  0  0
 33 34  1  0  0  0
 34 35  1  0  0  0
 36 42  1  0  0  0
 37 38  2  0  0  0
 37 42  1  0  0  0
 38 39  1  0  0  0
 39 40  2  0  0  0
 40 41  1  0  0  0
 41 42  2  0  0  0
  9 16  1  0  0  0
  9 17  1  0  0  0
  2  3  1  0  0  0
 23 26  1  0  0  0
M  END
> <minimizedAffinity>
-9.65312

$$$$
5KQY_017_B_101


 42 45  0  0  0  0  0  0  0  0999 V2000
  -16.6848   12.7229  -19.1405 C   0  0  0  0  0  0  0  0  0  0  0  0
  -16.0617   12.8782  -17.9068 O   0  0  0  0  0  0  0  0  0  0  0  0
  -16.7265   13.0914  -17.2334 H   0  0  0  0  0  0  0  0  0  0  0  0
  -17.3639   14.0426  -19.5324 C   0  0  0  0  0  0  0  0  0  0  0  0
  -16.5757   14.6922  -20.5984 N   0  0  0  0  0  0  0  0  0  0  0  0
  -14.9243   14.9342  -20.3215 S   0  0  0  0  0  0  0  0  0  0  0  0
  -14.2250   13.6929  -20.2572 O   0  0  0  0  0  0  0  0  0  0  0  0
  -14.7568   15.5999  -19.0758 O   0  0  0  0  0  0  0  0  0  0  0  0
  -12.7189   18.3702  -24.7063 N   0  0  0  0  0  0  0  0  0  0  0  0
  -13.2306   17.5296  -23.6684 C   0  0  0  0  0  0  0  0  0  0  0  0
  -14.0371   18.0930  -22.6896 C   0  0  0  0  0  0  0  0  0  0  0  0
  -14.5416   17.2930  -21.6770 C   0  0  0  0  0  0  0  0  0  0  0  0
  -14.2380   15.9399  -21.6603 C   0  0  0  0  0  0  0  0  0  0  0  0
  -13.4335   15.3692  -22.6326 C   0  0  0  0  0  0  0  0  0  0  0  0
  -12.9256   16.1752  -23.6544 C   0  0  0  0  0  0  0  0  0  0  0  0
  -12.9363   19.3304  -24.7143 H   0  0  0  0  0  0  0  0  0  0  0  0
  -12.1492   17.9887  -25.4128 H   0  0  0  0  0  0  0  0  0  0  0  0
  -16.9751   14.5558  -21.9951 C   0  0  0  0  0  0  0  0  0  0  0  0
  -17.9170   15.6653  -22.5355 C   0  0  0  0  0  0  0  0  0  0  0  0
  -17.3544   16.3273  -23.7909 C   0  0  0  0  0  0  0  0  0  0  0  0
  -19.2156   14.9828  -22.9136 C   0  0  0  0  0  0  0  0  0  0  0  0
  -17.6733   11.5551  -19.0883 C   0  0  0  0  0  0  0  0  0  0  0  0
  -17.1733   10.6479  -18.1162 N   0  0  0  0  0  0  0  0  0  0  0  0
  -16.3239    9.5379  -18.4465 C   0  0  0  0  0  0  0  0  0  0  0  0
  -16.0259    9.2309  -19.5931 O   0  0  0  0  0  0  0  0  0  0  0  0
  -17.4202   10.7864  -17.1732 H   0  0  0  0  0  0  0  0  0  0  0  0
  -15.8492    8.8173  -17.3113 O   0  0  0  0  0  0  0  0  0  0  0  0
  -14.4874    8.6449  -17.1551 C   0  0  0  0  0  0  0  0  0  0  0  0
  -13.9552    9.9460  -16.7108 C   0  0  0  0  0  0  0  0  0  0  0  0
  -14.2685   10.0087  -15.4386 O   0  0  0  0  0  0  0  0  0  0  0  0
  -14.1944    8.5084  -14.9058 C   0  0  0  0  0  0  0  0  0  0  0  0
  -15.4333    8.2536  -14.0504 O   0  0  0  0  0  0  0  0  0  0  0  0
  -16.2483    7.2686  -14.8251 C   0  0  0  0  0  0  0  0  0  0  0  0
  -15.4307    6.7073  -15.6273 C   0  0  0  0  0  0  0  0  0  0  0  0
  -14.2307    7.7479  -15.9017 C   0  0  0  0  0  0  0  0  0  0  0  0
  -19.0818   11.9287  -18.6413 C   0  0  0  0  0  0  0  0  0  0  0  0
  -20.1785   10.9602  -20.6000 C   0  0  0  0  0  0  0  0  0  0  0  0
  -21.0186   10.0879  -21.2921 C   0  0  0  0  0  0  0  0  0  0  0  0
  -21.7173    9.1082  -20.6012 C   0  0  0  0  0  0  0  0  0  0  0  0
  -21.5699    9.0109  -19.2154 C   0  0  0  0  0  0  0  0  0  0  0  0
  -20.7310    9.8803  -18.5268 C   0  0  0  0  0  0  0  0  0  0  0  0
  -20.0367   10.8625  -19.2197 C   0  0  0  0  0  0  0  0  0  0  0  0
  9 10  1  0  0  0
 10 11  2  0  0  0
 10 15  1  0  0  0
 11 12  1  0  0  0
 12 13  2  0  0  0
 13 14  1  0  0  0
 13  6  1  0  0  0
 14 15  2  0  0  0
  6  7  2  0  0  0
  6  8  2  0  0  0
  6  5  1  0  0  0
  5 18  1  0  0  0
  5  4  1  0  0  0
 18 19  1  0  0  0
 19 20  1  0  0  0
 19 21  1  0  0  0
  4  1  1  0  0  0
  1  2  1  0  0  0
  1 22  1  0  0  0
 22 23  1  0  0  0
 22 36  1  0  0  0
 23 24  1  0  0  0
 24 25  2  0  0  0
 24 27  1  0  0  0
 27 28  1  0  0  0
 28 29  1  0  0  0
 28 35  1  0  0  0
 29 30  1  0  0  0
 30 31  1  0  0  0
 31 32  1  0  0  0
 31 35  1  0  0  0
 32 33  1  0  0  0
 33 34  1  0  0  0
 34 35  1  0  0  0
 36 42  1  0  0  0
 37 38  2  0  0  0
 37 42  1  0  0  0
 38 39  1  0  0  0
 39 40  2  0  0  0
 40 41  1  0  0  0
 41 42  2  0  0  0
  9 16  1  0  0  0
  9 17  1  0  0  0
  2  3  1  0  0  0
 23 26  1  0  0  0
M  END
> <minimizedAffinity>
-9.48674

$$$$
5KQY_017_B_101


 42 45  0  0  0  0  0  0  0  0999 V2000
  -17.0070   11.6250  -21.3805 C   0  0  0  0  0  0  0  0  0  0  0  0
  -16.6913   11.1445  -22.6470 O   0  0  0  0  0  0  0  0  0  0  0  0
  -17.2644   10.3912  -22.8591 H   0  0  0  0  0  0  0  0  0  0  0  0
  -16.7561   10.5201  -20.3448 C   0  0  0  0  0  0  0  0  0  0  0  0
  -15.6946   10.9605  -19.4179 N   0  0  0  0  0  0  0  0  0  0  0  0
  -15.8388   12.4986  -18.7281 S   0  0  0  0  0  0  0  0  0  0  0  0
  -15.1934   12.5564  -17.4577 O   0  0  0  0  0  0  0  0  0  0  0  0
  -17.2172   12.7923  -18.5365 O   0  0  0  0  0  0  0  0  0  0  0  0
  -13.2807   16.4462  -22.4389 N   0  0  0  0  0  0  0  0  0  0  0  0
  -13.9092   15.5224  -21.5460 C   0  0  0  0  0  0  0  0  0  0  0  0
  -13.4859   14.2007  -21.5459 C   0  0  0  0  0  0  0  0  0  0  0  0
  -14.0837   13.2925  -20.6870 C   0  0  0  0  0  0  0  0  0  0  0  0
  -15.0919   13.7193  -19.8358 C   0  0  0  0  0  0  0  0  0  0  0  0
  -15.5212   15.0362  -19.8294 C   0  0  0  0  0  0  0  0  0  0  0  0
  -14.9179   15.9524  -20.6944 C   0  0  0  0  0  0  0  0  0  0  0  0
  -12.5657   16.1391  -23.0419 H   0  0  0  0  0  0  0  0  0  0  0  0
  -13.5632   17.3893  -22.4505 H   0  0  0  0  0  0  0  0  0  0  0  0
  -14.9447    9.9801  -18.6400 C   0  0  0  0  0  0  0  0  0  0  0  0
  -15.7515    8.7426  -18.1624 C   0  0  0  0  0  0  0  0  0  0  0  0
  -14.8390    7.5717  -17.8060 C   0  0  0  0  0  0  0  0  0  0  0  0
  -16.4803    9.1626  -16.9024 C   0  0  0  0  0  0  0  0  0  0  0  0
  -18.4525   12.1283  -21.3530 C   0  0  0  0  0  0  0  0  0  0  0  0
  -18.4685   13.3458  -22.0849 N   0  0  0  0  0  0  0  0  0  0  0  0
  -18.8155   14.6083  -21.4946 C   0  0  0  0  0  0  0  0  0  0  0  0
  -19.2036   14.7325  -20.3406 O   0  0  0  0  0  0  0  0  0  0  0  0
  -18.2309   13.3231  -23.0400 H   0  0  0  0  0  0  0  0  0  0  0  0
  -18.6648   15.7182  -22.3770 O   0  0  0  0  0  0  0  0  0  0  0  0
  -18.9076   15.5340  -23.7245 C   0  0  0  0  0  0  0  0  0  0  0  0
  -20.2790   16.0178  -23.9664 C   0  0  0  0  0  0  0  0  0  0  0  0
  -20.1644   17.3243  -23.9884 O   0  0  0  0  0  0  0  0  0  0  0  0
  -18.7288   17.6168  -24.6157 C   0  0  0  0  0  0  0  0  0  0  0  0
  -18.0553   18.6898  -23.7633 O   0  0  0  0  0  0  0  0  0  0  0  0
  -16.9180   17.9953  -23.0859 C   0  0  0  0  0  0  0  0  0  0  0  0
  -16.6841   16.9588  -23.7915 C   0  0  0  0  0  0  0  0  0  0  0  0
  -18.0565   16.5616  -24.5378 C   0  0  0  0  0  0  0  0  0  0  0  0
  -19.4630   11.2089  -22.0288 C   0  0  0  0  0  0  0  0  0  0  0  0
  -20.0902   11.1247  -19.6672 C   0  0  0  0  0  0  0  0  0  0  0  0
  -20.7250   10.6211  -18.5318 C   0  0  0  0  0  0  0  0  0  0  0  0
  -21.5434    9.5055  -18.6357 C   0  0  0  0  0  0  0  0  0  0  0  0
  -21.7186    8.8987  -19.8819 C   0  0  0  0  0  0  0  0  0  0  0  0
  -21.0863    9.4026  -21.0133 C   0  0  0  0  0  0  0  0  0  0  0  0
  -20.2644   10.5160  -20.9059 C   0  0  0  0  0  0  0  0  0  0  0  0
  9 10  1  0  0  0
 10 11  2  0  0  0
 10 15  1  0  0  0
 11 12  1  0  0  0
 12 13  2  0  0  0
 13 14  1  0  0  0
 13  6  1  0  0  0
 14 15  2  0  0  0
  6  7  2  0  0  0
  6  8  2  0  0  0
  6  5  1  0  0  0
  5 18  1  0  0  0
  5  4  1  0  0  0
 18 19  1  0  0  0
 19 20  1  0  0  0
 19 21  1  0  0  0
  4  1  1  0  0  0
  1  2  1  0  0  0
  1 22  1  0  0  0
 22 23  1  0  0  0
 22 36  1  0  0  0
 23 24  1  0  0  0
 24 25  2  0  0  0
 24 27  1  0  0  0
 27 28  1  0  0  0
 28 29  1  0  0  0
 28 35  1  0  0  0
 29 30  1  0  0  0
 30 31  1  0  0  0
 31 32  1  0  0  0
 31 35  1  0  0  0
 32 33  1  0  0  0
 33 34  1  0  0  0
 34 35  1  0  0  0
 36 42  1  0  0  0
 37 38  2  0  0  0
 37 42  1  0  0  0
 38 39  1  0  0  0
 39 40  2  0  0  0
 40 41  1  0  0  0
 41 42  2  0  0  0
  9 16  1  0  0  0
  9 17  1  0  0  0
  2  3  1  0  0  0
 23 26  1  0  0  0
M  END
> <minimizedAffinity>
-9.48501

$$$$
5KQY_017_B_101


 42 45  0  0  0  0  0  0  0  0999 V2000
  -18.4997   12.9775  -20.4896 C   0  0  0  0  0  0  0  0  0  0  0  0
  -19.5840   13.8467  -20.4330 O   0  0  0  0  0  0  0  0  0  0  0  0
  -19.4353   14.5043  -19.7356 H   0  0  0  0  0  0  0  0  0  0  0  0
  -18.3736   12.2403  -19.1491 C   0  0  0  0  0  0  0  0  0  0  0  0
  -18.2847   10.7888  -19.4038 N   0  0  0  0  0  0  0  0  0  0  0  0
  -19.6463   10.0164  -20.0455 S   0  0  0  0  0  0  0  0  0  0  0  0
  -19.3797    9.4989  -21.3474 O   0  0  0  0  0  0  0  0  0  0  0  0
  -20.7052   10.9598  -20.1539 O   0  0  0  0  0  0  0  0  0  0  0  0
  -21.1736    5.4457  -16.4854 N   0  0  0  0  0  0  0  0  0  0  0  0
  -20.8240    6.5531  -17.3204 C   0  0  0  0  0  0  0  0  0  0  0  0
  -19.8652    6.3691  -18.3068 C   0  0  0  0  0  0  0  0  0  0  0  0
  -19.5149    7.4312  -19.1248 C   0  0  0  0  0  0  0  0  0  0  0  0
  -20.1323    8.6606  -18.9497 C   0  0  0  0  0  0  0  0  0  0  0  0
  -21.0897    8.8536  -17.9677 C   0  0  0  0  0  0  0  0  0  0  0  0
  -21.4441    7.7826  -17.1434 C   0  0  0  0  0  0  0  0  0  0  0  0
  -20.7326    4.5748  -16.6127 H   0  0  0  0  0  0  0  0  0  0  0  0
  -21.8552    5.5545  -15.7834 H   0  0  0  0  0  0  0  0  0  0  0  0
  -16.9979   10.1739  -19.7119 C   0  0  0  0  0  0  0  0  0  0  0  0
  -16.0966    9.8542  -18.4889 C   0  0  0  0  0  0  0  0  0  0  0  0
  -15.3138    8.5578  -18.6828 C   0  0  0  0  0  0  0  0  0  0  0  0
  -15.0971   10.9876  -18.3812 C   0  0  0  0  0  0  0  0  0  0  0  0
  -17.2262   13.7465  -20.8507 C   0  0  0  0  0  0  0  0  0  0  0  0
  -17.6327   14.8396  -21.6619 N   0  0  0  0  0  0  0  0  0  0  0  0
  -17.7480   14.7523  -23.0908 C   0  0  0  0  0  0  0  0  0  0  0  0
  -17.4305   13.7624  -23.7367 O   0  0  0  0  0  0  0  0  0  0  0  0
  -17.8449   15.6958  -21.2248 H   0  0  0  0  0  0  0  0  0  0  0  0
  -18.2730   15.9299  -23.6999 O   0  0  0  0  0  0  0  0  0  0  0  0
  -19.2224   15.7970  -24.6947 C   0  0  0  0  0  0  0  0  0  0  0  0
  -20.5007   16.2367  -24.1064 C   0  0  0  0  0  0  0  0  0  0  0  0
  -20.4278   17.5464  -24.1108 O   0  0  0  0  0  0  0  0  0  0  0  0
  -19.5853   17.9231  -25.4102 C   0  0  0  0  0  0  0  0  0  0  0  0
  -18.5601   18.9825  -25.0126 O   0  0  0  0  0  0  0  0  0  0  0  0
  -17.2327   18.3035  -25.1220 C   0  0  0  0  0  0  0  0  0  0  0  0
  -17.4224   17.3098  -25.8988 C   0  0  0  0  0  0  0  0  0  0  0  0
  -18.9750   16.8928  -25.7809 C   0  0  0  0  0  0  0  0  0  0  0  0
  -16.4833   14.3472  -19.6631 C   0  0  0  0  0  0  0  0  0  0  0  0
  -14.4044   13.6238  -20.7272 C   0  0  0  0  0  0  0  0  0  0  0  0
  -13.1026   13.7590  -21.2096 C   0  0  0  0  0  0  0  0  0  0  0  0
  -12.4576   14.9844  -21.1228 C   0  0  0  0  0  0  0  0  0  0  0  0
  -13.1241   16.0696  -20.5485 C   0  0  0  0  0  0  0  0  0  0  0  0
  -14.4225   15.9338  -20.0691 C   0  0  0  0  0  0  0  0  0  0  0  0
  -15.0639   14.7057  -20.1531 C   0  0  0  0  0  0  0  0  0  0  0  0
  9 10  1  0  0  0
 10 11  2  0  0  0
 10 15  1  0  0  0
 11 12  1  0  0  0
 12 13  2  0  0  0
 13 14  1  0  0  0
 13  6  1  0  0  0
 14 15  2  0  0  0
  6  7  2  0  0  0
  6  8  2  0  0  0
  6  5  1  0  0  0
  5 18  1  0  0  0
  5  4  1  0  0  0
 18 19  1  0  0  0
 19 20  1  0  0  0
 19 21  1  0  0  0
  4  1  1  0  0  0
  1  2  1  0  0  0
  1 22  1  0  0  0
 22 23  1  0  0  0
 22 36  1  0  0  0
 23 24  1  0  0  0
 24 25  2  0  0  0
 24 27  1  0  0  0
 27 28  1  0  0  0
 28 29  1  0  0  0
 28 35  1  0  0  0
 29 30  1  0  0  0
 30 31  1  0  0  0
 31 32  1  0  0  0
 31 35  1  0  0  0
 32 33  1  0  0  0
 33 34  1  0  0  0
 34 35  1  0  0  0
 36 42  1  0  0  0
 37 38  2  0  0  0
 37 42  1  0  0  0
 38 39  1  0  0  0
 39 40  2  0  0  0
 40 41  1  0  0  0
 41 42  2  0  0  0
  9 16  1  0  0  0
  9 17  1  0  0  0
  2  3  1  0  0  0
 23 26  1  0  0  0
M  END
> <minimizedAffinity>
-9.44103

$$$$
5KQY_017_B_101


 42 45  0  0  0  0  0  0  0  0999 V2000
  -18.4854   12.2951  -20.2840 C   0  0  0  0  0  0  0  0  0  0  0  0
  -19.7346   12.9023  -20.3566 O   0  0  0  0  0  0  0  0  0  0  0  0
  -19.7764   13.6330  -19.7201 H   0  0  0  0  0  0  0  0  0  0  0  0
  -18.2850   11.7205  -18.8747 C   0  0  0  0  0  0  0  0  0  0  0  0
  -17.7167   10.3623  -18.9844 N   0  0  0  0  0  0  0  0  0  0  0  0
  -16.1845   10.0930  -18.3194 S   0  0  0  0  0  0  0  0  0  0  0  0
  -15.7012   11.2561  -17.6504 O   0  0  0  0  0  0  0  0  0  0  0  0
  -15.2751    9.7762  -19.3661 O   0  0  0  0  0  0  0  0  0  0  0  0
  -16.4139    5.4817  -14.5010 N   0  0  0  0  0  0  0  0  0  0  0  0
  -16.3748    6.5965  -15.3962 C   0  0  0  0  0  0  0  0  0  0  0  0
  -15.5299    6.5407  -16.4957 C   0  0  0  0  0  0  0  0  0  0  0  0
  -15.4800    7.6118  -17.3733 C   0  0  0  0  0  0  0  0  0  0  0  0
  -16.2797    8.7211  -17.1431 C   0  0  0  0  0  0  0  0  0  0  0  0
  -17.1254    8.7859  -16.0481 C   0  0  0  0  0  0  0  0  0  0  0  0
  -17.1770    7.7056  -15.1637 C   0  0  0  0  0  0  0  0  0  0  0  0
  -15.8442    4.6962  -14.6678 H   0  0  0  0  0  0  0  0  0  0  0  0
  -17.0105    5.4997  -13.7180 H   0  0  0  0  0  0  0  0  0  0  0  0
  -18.5966    9.2004  -19.0509 C   0  0  0  0  0  0  0  0  0  0  0  0
  -20.0788    9.4578  -18.6670 C   0  0  0  0  0  0  0  0  0  0  0  0
  -21.0087    9.3281  -19.8709 C   0  0  0  0  0  0  0  0  0  0  0  0
  -20.4592    8.3830  -17.6694 C   0  0  0  0  0  0  0  0  0  0  0  0
  -17.3905   13.2953  -20.6638 C   0  0  0  0  0  0  0  0  0  0  0  0
  -18.0388   14.3655  -21.3364 N   0  0  0  0  0  0  0  0  0  0  0  0
  -17.8032   14.6774  -22.7184 C   0  0  0  0  0  0  0  0  0  0  0  0
  -16.9703   14.1057  -23.4092 O   0  0  0  0  0  0  0  0  0  0  0  0
  -18.6787   14.9184  -20.8324 H   0  0  0  0  0  0  0  0  0  0  0  0
  -18.6343   15.7200  -23.2240 O   0  0  0  0  0  0  0  0  0  0  0  0
  -19.2051   15.5685  -24.4729 C   0  0  0  0  0  0  0  0  0  0  0  0
  -20.6381   15.8751  -24.3114 C   0  0  0  0  0  0  0  0  0  0  0  0
  -20.6867   17.1849  -24.2569 O   0  0  0  0  0  0  0  0  0  0  0  0
  -19.5151   17.6960  -25.2089 C   0  0  0  0  0  0  0  0  0  0  0  0
  -18.7683   18.8082  -24.4764 O   0  0  0  0  0  0  0  0  0  0  0  0
  -17.4184   18.2411  -24.1750 C   0  0  0  0  0  0  0  0  0  0  0  0
  -17.2623   17.2795  -24.9984 C   0  0  0  0  0  0  0  0  0  0  0  0
  -18.7282   16.7377  -25.3932 C   0  0  0  0  0  0  0  0  0  0  0  0
  -16.6531   13.9155  -19.4828 C   0  0  0  0  0  0  0  0  0  0  0  0
  -14.5660   13.4496  -20.6678 C   0  0  0  0  0  0  0  0  0  0  0  0
  -13.3085   13.7350  -21.1998 C   0  0  0  0  0  0  0  0  0  0  0  0
  -12.7845   15.0148  -21.0855 C   0  0  0  0  0  0  0  0  0  0  0  0
  -13.5270   16.0028  -20.4342 C   0  0  0  0  0  0  0  0  0  0  0  0
  -14.7812   15.7172  -19.9055 C   0  0  0  0  0  0  0  0  0  0  0  0
  -15.3011   14.4351  -20.0171 C   0  0  0  0  0  0  0  0  0  0  0  0
  9 10  1  0  0  0
 10 11  2  0  0  0
 10 15  1  0  0  0
 11 12  1  0  0  0
 12 13  2  0  0  0
 13 14  1  0  0  0
 13  6  1  0  0  0
 14 15  2  0  0  0
  6  7  2  0  0  0
  6  8  2  0  0  0
  6  5  1  0  0  0
  5 18  1  0  0  0
  5  4  1  0  0  0
 18 19  1  0  0  0
 19 20  1  0  0  0
 19 21  1  0  0  0
  4  1  1  0  0  0
  1  2  1  0  0  0
  1 22  1  0  0  0
 22 23  1  0  0  0
 22 36  1  0  0  0
 23 24  1  0  0  0
 24 25  2  0  0  0
 24 27  1  0  0  0
 27 28  1  0  0  0
 28 29  1  0  0  0
 28 35  1  0  0  0
 29 30  1  0  0  0
 30 31  1  0  0  0
 31 32  1  0  0  0
 31 35  1  0  0  0
 32 33  1  0  0  0
 33 34  1  0  0  0
 34 35  1  0  0  0
 36 42  1  0  0  0
 37 38  2  0  0  0
 37 42  1  0  0  0
 38 39  1  0  0  0
 39 40  2  0  0  0
 40 41  1  0  0  0
 41 42  2  0  0  0
  9 16  1  0  0  0
  9 17  1  0  0  0
  2  3  1  0  0  0
 23 26  1  0  0  0
M  END
> <minimizedAffinity>
-9.39321

$$$$
5KQY_017_B_101


 42 45  0  0  0  0  0  0  0  0999 V2000
  -17.7388   13.5915  -19.5028 C   0  0  0  0  0  0  0  0  0  0  0  0
  -18.0258   13.9351  -18.1860 O   0  0  0  0  0  0  0  0  0  0  0  0
  -18.5337   14.7613  -18.1708 H   0  0  0  0  0  0  0  0  0  0  0  0
  -16.8831   14.6966  -20.1375 C   0  0  0  0  0  0  0  0  0  0  0  0
  -15.4567   14.3433  -19.9953 N   0  0  0  0  0  0  0  0  0  0  0  0
  -14.9476   12.8548  -20.6178 S   0  0  0  0  0  0  0  0  0  0  0  0
  -13.5316   12.8231  -20.7850 O   0  0  0  0  0  0  0  0  0  0  0  0
  -15.5469   12.6570  -21.8924 O   0  0  0  0  0  0  0  0  0  0  0  0
  -16.6611    8.4213  -16.9701 N   0  0  0  0  0  0  0  0  0  0  0  0
  -16.2387    9.4908  -17.8207 C   0  0  0  0  0  0  0  0  0  0  0  0
  -16.5260    9.4190  -19.1765 C   0  0  0  0  0  0  0  0  0  0  0  0
  -16.1245   10.4466  -20.0147 C   0  0  0  0  0  0  0  0  0  0  0  0
  -15.4469   11.5346  -19.4852 C   0  0  0  0  0  0  0  0  0  0  0  0
  -15.1553   11.6145  -18.1335 C   0  0  0  0  0  0  0  0  0  0  0  0
  -15.5611   10.5791  -17.2878 C   0  0  0  0  0  0  0  0  0  0  0  0
  -17.1415    7.6505  -17.3501 H   0  0  0  0  0  0  0  0  0  0  0  0
  -16.4715    8.4559  -16.0046 H   0  0  0  0  0  0  0  0  0  0  0  0
  -14.4424   15.3904  -19.9353 C   0  0  0  0  0  0  0  0  0  0  0  0
  -14.2707   16.2336  -21.2276 C   0  0  0  0  0  0  0  0  0  0  0  0
  -14.1513   17.7246  -20.9220 C   0  0  0  0  0  0  0  0  0  0  0  0
  -12.9718   15.7857  -21.8659 C   0  0  0  0  0  0  0  0  0  0  0  0
  -19.0358   13.3450  -20.2777 C   0  0  0  0  0  0  0  0  0  0  0  0
  -19.2631   14.5076  -21.0618 N   0  0  0  0  0  0  0  0  0  0  0  0
  -18.8940   14.6012  -22.4466 C   0  0  0  0  0  0  0  0  0  0  0  0
  -18.2830   13.7259  -23.0452 O   0  0  0  0  0  0  0  0  0  0  0  0
  -19.6932   15.2845  -20.6366 H   0  0  0  0  0  0  0  0  0  0  0  0
  -19.3076   15.8136  -23.0730 O   0  0  0  0  0  0  0  0  0  0  0  0
  -19.3534   15.8670  -24.4526 C   0  0  0  0  0  0  0  0  0  0  0  0
  -20.5818   16.6061  -24.7963 C   0  0  0  0  0  0  0  0  0  0  0  0
  -20.2751   17.8638  -24.5847 O   0  0  0  0  0  0  0  0  0  0  0  0
  -18.7297   17.9944  -24.9519 C   0  0  0  0  0  0  0  0  0  0  0  0
  -18.0534   18.8051  -23.8488 O   0  0  0  0  0  0  0  0  0  0  0  0
  -17.1548   17.8382  -23.1470 C   0  0  0  0  0  0  0  0  0  0  0  0
  -16.9641   16.8881  -23.9764 C   0  0  0  0  0  0  0  0  0  0  0  0
  -18.2407   16.8401  -24.9593 C   0  0  0  0  0  0  0  0  0  0  0  0
  -18.9861   12.1740  -21.2521 C   0  0  0  0  0  0  0  0  0  0  0  0
  -19.9406   11.0262  -19.3160 C   0  0  0  0  0  0  0  0  0  0  0  0
  -20.7313   10.0915  -18.6475 C   0  0  0  0  0  0  0  0  0  0  0  0
  -21.5315    9.2196  -19.3720 C   0  0  0  0  0  0  0  0  0  0  0  0
  -21.5317    9.2897  -20.7672 C   0  0  0  0  0  0  0  0  0  0  0  0
  -20.7439   10.2230  -21.4324 C   0  0  0  0  0  0  0  0  0  0  0  0
  -19.9408   11.0910  -20.7055 C   0  0  0  0  0  0  0  0  0  0  0  0
  9 10  1  0  0  0
 10 11  2  0  0  0
 10 15  1  0  0  0
 11 12  1  0  0  0
 12 13  2  0  0  0
 13 14  1  0  0  0
 13  6  1  0  0  0
 14 15  2  0  0  0
  6  7  2  0  0  0
  6  8  2  0  0  0
  6  5  1  0  0  0
  5 18  1  0  0  0
  5  4  1  0  0  0
 18 19  1  0  0  0
 19 20  1  0  0  0
 19 21  1  0  0  0
  4  1  1  0  0  0
  1  2  1  0  0  0
  1 22  1  0  0  0
 22 23  1  0  0  0
 22 36  1  0  0  0
 23 24  1  0  0  0
 24 25  2  0  0  0
 24 27  1  0  0  0
 27 28  1  0  0  0
 28 29  1  0  0  0
 28 35  1  0  0  0
 29 30  1  0  0  0
 30 31  1  0  0  0
 31 32  1  0  0  0
 31 35  1  0  0  0
 32 33  1  0  0  0
 33 34  1  0  0  0
 34 35  1  0  0  0
 36 42  1  0  0  0
 37 38  2  0  0  0
 37 42  1  0  0  0
 38 39  1  0  0  0
 39 40  2  0  0  0
 40 41  1  0  0  0
 41 42  2  0  0  0
  9 16  1  0  0  0
  9 17  1  0  0  0
  2  3  1  0  0  0
 23 26  1  0  0  0
M  END
> <minimizedAffinity>
-9.22801

$$$$
