5ANV_RGJ_A_1157


 29 31  0  0  0  0  0  0  0  0999 V2000
   15.3427   19.9916    4.6858 C   0  0  0  0  0  0  0  0  0  0  0  0
   15.7435   20.9273    3.6708 C   0  0  0  0  0  0  0  0  0  0  0  0
   15.3715   22.2525    1.6749 C   0  0  0  0  0  0  0  0  0  0  0  0
   16.6960   22.7307    1.7435 C   0  0  0  0  0  0  0  0  0  0  0  0
   16.3100   19.5060    5.5956 C   0  0  0  0  0  0  0  0  0  0  0  0
   17.0784   21.3902    3.7161 C   0  0  0  0  0  0  0  0  0  0  0  0
   17.9758   20.9577    4.6489 N   0  0  0  0  0  0  0  0  0  0  0  0
   17.5885   20.0496    5.5156 C   0  0  0  0  0  0  0  0  0  0  0  0
   14.9256   21.3394    2.5875 C   0  0  0  0  0  0  0  0  0  0  0  0
   17.5346   22.2935    2.7271 C   0  0  0  0  0  0  0  0  0  0  0  0
   15.9837   18.4336    6.6001 C   0  0  0  0  0  0  0  0  0  0  0  0
   14.9069   17.8638    6.6095 O   0  0  0  0  0  0  0  0  0  0  0  0
   16.9501   18.0320    7.4168 N   0  0  0  0  0  0  0  0  0  0  0  0
   16.7716   16.8975    8.3049 C   0  0  0  0  0  0  0  0  0  0  0  0
   17.8080   18.5149    7.4203 H   0  0  0  0  0  0  0  0  0  0  0  0
   14.0298   19.5656    4.7886 N   0  0  0  0  0  0  0  0  0  0  0  0
   13.8793   18.6476    5.1110 H   0  0  0  0  0  0  0  0  0  0  0  0
    9.1913   22.6560    3.4101 Cl  0  0  0  0  0  0  0  0  0  0  0  0
   10.6041   21.7620    3.8238 C   0  0  0  0  0  0  0  0  0  0  0  0
   12.8846   20.3344    4.4705 C   0  0  0  0  0  0  0  0  0  0  0  0
   10.8762   20.5857    3.1570 C   0  0  0  0  0  0  0  0  0  0  0  0
   12.0168   19.8751    3.4802 C   0  0  0  0  0  0  0  0  0  0  0  0
   11.4263   22.2499    4.8200 C   0  0  0  0  0  0  0  0  0  0  0  0
   12.5378   21.5125    5.1295 C   0  0  0  0  0  0  0  0  0  0  0  0
   13.3699   21.9792    6.0863 F   0  0  0  0  0  0  0  0  0  0  0  0
   14.6437   22.7256    0.6125 O   0  0  0  0  0  0  0  0  0  0  0  0
   13.2906   22.2730    0.4690 C   0  0  0  0  0  0  0  0  0  0  0  0
   18.3808   24.1054    0.7615 C   0  0  0  0  0  0  0  0  0  0  0  0
   17.0375   23.6303    0.7701 O   0  0  0  0  0  0  0  0  0  0  0  0
 18 19  1  0  0  0
 19 21  1  0  0  0
 19 23  2  0  0  0
 16  1  1  0  0  0
 16 20  1  0  0  0
  1  2  1  0  0  0
  1  5  2  0  0  0
 11 12  2  0  0  0
 11 13  1  0  0  0
 11  5  1  0  0  0
 13 14  1  0  0  0
  2  6  2  0  0  0
  2  9  1  0  0  0
  3 26  1  0  0  0
  3  4  1  0  0  0
  3  9  2  0  0  0
 26 27  1  0  0  0
  4 10  2  0  0  0
  4 29  1  0  0  0
 28 29  1  0  0  0
 20 22  1  0  0  0
 20 24  2  0  0  0
  5  8  1  0  0  0
  6  7  1  0  0  0
  6 10  1  0  0  0
  7  8  2  0  0  0
 21 22  2  0  0  0
 23 24  1  0  0  0
 24 25  1  0  0  0
 16 17  1  0  0  0
 13 15  1  0  0  0
M  END
> <minimizedAffinity>
-10.36488

$$$$
5ANV_RGJ_A_1157


 29 31  0  0  0  0  0  0  0  0999 V2000
   12.5636   21.2106    2.9921 C   0  0  0  0  0  0  0  0  0  0  0  0
   11.3471   21.6960    2.3998 C   0  0  0  0  0  0  0  0  0  0  0  0
    9.9995   22.4673    0.5377 C   0  0  0  0  0  0  0  0  0  0  0  0
    8.9114   22.6765    1.4095 C   0  0  0  0  0  0  0  0  0  0  0  0
   12.6486   21.1011    4.3992 C   0  0  0  0  0  0  0  0  0  0  0  0
   10.2599   21.9349    3.2713 C   0  0  0  0  0  0  0  0  0  0  0  0
   10.3459   21.7548    4.6213 N   0  0  0  0  0  0  0  0  0  0  0  0
   11.4969   21.3773    5.1299 C   0  0  0  0  0  0  0  0  0  0  0  0
   11.1975   22.0341    1.0302 C   0  0  0  0  0  0  0  0  0  0  0  0
    9.0456   22.4366    2.7460 C   0  0  0  0  0  0  0  0  0  0  0  0
   13.9317   20.7195    5.0873 C   0  0  0  0  0  0  0  0  0  0  0  0
   14.5656   21.5145    5.7584 O   0  0  0  0  0  0  0  0  0  0  0  0
   14.3060   19.4467    5.0435 N   0  0  0  0  0  0  0  0  0  0  0  0
   15.4396   18.9613    5.8096 C   0  0  0  0  0  0  0  0  0  0  0  0
   13.8029   18.8170    4.4781 H   0  0  0  0  0  0  0  0  0  0  0  0
   13.6452   20.8458    2.2093 N   0  0  0  0  0  0  0  0  0  0  0  0
   13.6328   19.9421    1.8190 H   0  0  0  0  0  0  0  0  0  0  0  0
   18.4098   24.1431    1.0740 Cl  0  0  0  0  0  0  0  0  0  0  0  0
   17.0148   23.1844    1.3927 C   0  0  0  0  0  0  0  0  0  0  0  0
   14.7676   21.6586    1.9209 C   0  0  0  0  0  0  0  0  0  0  0  0
   17.0293   22.3068    2.4566 C   0  0  0  0  0  0  0  0  0  0  0  0
   15.9052   21.5469    2.7199 C   0  0  0  0  0  0  0  0  0  0  0  0
   15.9172   23.3202    0.5661 C   0  0  0  0  0  0  0  0  0  0  0  0
   14.8268   22.5394    0.8424 C   0  0  0  0  0  0  0  0  0  0  0  0
   13.7321   22.6688    0.0612 F   0  0  0  0  0  0  0  0  0  0  0  0
    9.7570   22.7930   -0.7728 O   0  0  0  0  0  0  0  0  0  0  0  0
   10.5501   23.8298   -1.3663 C   0  0  0  0  0  0  0  0  0  0  0  0
    6.6068   23.2544    1.6263 C   0  0  0  0  0  0  0  0  0  0  0  0
    7.7663   23.1246    0.8085 O   0  0  0  0  0  0  0  0  0  0  0  0
 18 19  1  0  0  0
 19 21  1  0  0  0
 19 23  2  0  0  0
 16  1  1  0  0  0
 16 20  1  0  0  0
  1  2  1  0  0  0
  1  5  2  0  0  0
 11 12  2  0  0  0
 11 13  1  0  0  0
 11  5  1  0  0  0
 13 14  1  0  0  0
  2  6  2  0  0  0
  2  9  1  0  0  0
  3 26  1  0  0  0
  3  4  1  0  0  0
  3  9  2  0  0  0
 26 27  1  0  0  0
  4 10  2  0  0  0
  4 29  1  0  0  0
 28 29  1  0  0  0
 20 22  1  0  0  0
 20 24  2  0  0  0
  5  8  1  0  0  0
  6  7  1  0  0  0
  6 10  1  0  0  0
  7  8  2  0  0  0
 21 22  2  0  0  0
 23 24  1  0  0  0
 24 25  1  0  0  0
 16 17  1  0  0  0
 13 15  1  0  0  0
M  END
> <minimizedAffinity>
-9.58808

$$$$
5ANV_RGJ_A_1157


 29 31  0  0  0  0  0  0  0  0999 V2000
   11.3546   20.8182    2.4694 C   0  0  0  0  0  0  0  0  0  0  0  0
   12.6073   21.0711    3.1274 C   0  0  0  0  0  0  0  0  0  0  0  0
   15.0166   21.3385    3.1743 C   0  0  0  0  0  0  0  0  0  0  0  0
   14.9689   21.5393    4.5690 C   0  0  0  0  0  0  0  0  0  0  0  0
   10.1877   20.6515    3.2503 C   0  0  0  0  0  0  0  0  0  0  0  0
   12.5716   21.2458    4.5298 C   0  0  0  0  0  0  0  0  0  0  0  0
   11.4191   21.1487    5.2541 N   0  0  0  0  0  0  0  0  0  0  0  0
   10.3072   20.8468    4.6230 C   0  0  0  0  0  0  0  0  0  0  0  0
   13.8710   21.0649    2.4829 C   0  0  0  0  0  0  0  0  0  0  0  0
   13.7785   21.4730    5.2327 C   0  0  0  0  0  0  0  0  0  0  0  0
    8.8713   20.2620    2.6332 C   0  0  0  0  0  0  0  0  0  0  0  0
    8.6304   19.1166    2.2953 O   0  0  0  0  0  0  0  0  0  0  0  0
    7.9179   21.1834    2.5692 N   0  0  0  0  0  0  0  0  0  0  0  0
    6.5712   20.8544    2.1382 C   0  0  0  0  0  0  0  0  0  0  0  0
    8.1290   22.1118    2.8198 H   0  0  0  0  0  0  0  0  0  0  0  0
   11.2732   20.7411    1.0898 N   0  0  0  0  0  0  0  0  0  0  0  0
   11.5034   19.8791    0.6737 H   0  0  0  0  0  0  0  0  0  0  0  0
    9.8016   25.1730   -2.5234 Cl  0  0  0  0  0  0  0  0  0  0  0  0
   10.2216   23.8721   -1.4756 C   0  0  0  0  0  0  0  0  0  0  0  0
   10.8881   21.7935    0.2251 C   0  0  0  0  0  0  0  0  0  0  0  0
   11.3748   23.9579   -0.7239 C   0  0  0  0  0  0  0  0  0  0  0  0
   11.7049   22.9194    0.1264 C   0  0  0  0  0  0  0  0  0  0  0  0
    9.3885   22.7723   -1.4215 C   0  0  0  0  0  0  0  0  0  0  0  0
    9.7538   21.7526   -0.5838 C   0  0  0  0  0  0  0  0  0  0  0  0
    8.9444   20.6743   -0.4967 F   0  0  0  0  0  0  0  0  0  0  0  0
   16.2755   21.3781    2.6305 O   0  0  0  0  0  0  0  0  0  0  0  0
   16.6608   22.5570    1.9108 C   0  0  0  0  0  0  0  0  0  0  0  0
   16.7954   20.7212    5.8679 C   0  0  0  0  0  0  0  0  0  0  0  0
   16.1778   21.7918    5.1590 O   0  0  0  0  0  0  0  0  0  0  0  0
 18 19  1  0  0  0
 19 21  1  0  0  0
 19 23  2  0  0  0
 16  1  1  0  0  0
 16 20  1  0  0  0
  1  2  1  0  0  0
  1  5  2  0  0  0
 11 12  2  0  0  0
 11 13  1  0  0  0
 11  5  1  0  0  0
 13 14  1  0  0  0
  2  6  2  0  0  0
  2  9  1  0  0  0
  3 26  1  0  0  0
  3  4  1  0  0  0
  3  9  2  0  0  0
 26 27  1  0  0  0
  4 10  2  0  0  0
  4 29  1  0  0  0
 28 29  1  0  0  0
 20 22  1  0  0  0
 20 24  2  0  0  0
  5  8  1  0  0  0
  6  7  1  0  0  0
  6 10  1  0  0  0
  7  8  2  0  0  0
 21 22  2  0  0  0
 23 24  1  0  0  0
 24 25  1  0  0  0
 16 17  1  0  0  0
 13 15  1  0  0  0
M  END
> <minimizedAffinity>
-8.38377

$$$$
5ANV_RGJ_A_1157


 29 31  0  0  0  0  0  0  0  0999 V2000
   14.4495   21.8853    3.0915 C   0  0  0  0  0  0  0  0  0  0  0  0
   13.0795   21.4817    2.9283 C   0  0  0  0  0  0  0  0  0  0  0  0
   10.9894   20.5366    3.7133 C   0  0  0  0  0  0  0  0  0  0  0  0
   10.4277   20.7098    2.4317 C   0  0  0  0  0  0  0  0  0  0  0  0
   15.1864   22.2961    1.9569 C   0  0  0  0  0  0  0  0  0  0  0  0
   12.5174   21.6262    1.6392 C   0  0  0  0  0  0  0  0  0  0  0  0
   13.2312   22.0917    0.5733 N   0  0  0  0  0  0  0  0  0  0  0  0
   14.5000   22.3832    0.7494 C   0  0  0  0  0  0  0  0  0  0  0  0
   12.2943   20.8704    3.9392 C   0  0  0  0  0  0  0  0  0  0  0  0
   11.1801   21.2218    1.4150 C   0  0  0  0  0  0  0  0  0  0  0  0
   16.6560   22.6108    2.0390 C   0  0  0  0  0  0  0  0  0  0  0  0
   17.4185   21.9580    2.7294 O   0  0  0  0  0  0  0  0  0  0  0  0
   17.1345   23.5578    1.2412 N   0  0  0  0  0  0  0  0  0  0  0  0
   18.5593   23.8164    1.1388 C   0  0  0  0  0  0  0  0  0  0  0  0
   16.5083   24.0974    0.7065 H   0  0  0  0  0  0  0  0  0  0  0  0
   15.0530   21.8828    4.3371 N   0  0  0  0  0  0  0  0  0  0  0  0
   15.2045   22.7566    4.7646 H   0  0  0  0  0  0  0  0  0  0  0  0
   16.7059   17.0119    7.2362 Cl  0  0  0  0  0  0  0  0  0  0  0  0
   16.2369   18.4372    6.3906 C   0  0  0  0  0  0  0  0  0  0  0  0
   15.4714   20.7337    5.0499 C   0  0  0  0  0  0  0  0  0  0  0  0
   14.9931   18.4896    5.7968 C   0  0  0  0  0  0  0  0  0  0  0  0
   14.6119   19.6383    5.1292 C   0  0  0  0  0  0  0  0  0  0  0  0
   17.1269   19.4910    6.3278 C   0  0  0  0  0  0  0  0  0  0  0  0
   16.7263   20.6069    5.6429 C   0  0  0  0  0  0  0  0  0  0  0  0
   17.5707   21.6601    5.5849 F   0  0  0  0  0  0  0  0  0  0  0  0
   10.1502   19.9657    4.6364 O   0  0  0  0  0  0  0  0  0  0  0  0
   10.3452   18.5819    4.9578 C   0  0  0  0  0  0  0  0  0  0  0  0
    8.1709   21.3375    1.9789 C   0  0  0  0  0  0  0  0  0  0  0  0
    9.1182   20.3286    2.3175 O   0  0  0  0  0  0  0  0  0  0  0  0
 18 19  1  0  0  0
 19 21  1  0  0  0
 19 23  2  0  0  0
 16  1  1  0  0  0
 16 20  1  0  0  0
  1  2  1  0  0  0
  1  5  2  0  0  0
 11 12  2  0  0  0
 11 13  1  0  0  0
 11  5  1  0  0  0
 13 14  1  0  0  0
  2  6  2  0  0  0
  2  9  1  0  0  0
  3 26  1  0  0  0
  3  4  1  0  0  0
  3  9  2  0  0  0
 26 27  1  0  0  0
  4 10  2  0  0  0
  4 29  1  0  0  0
 28 29  1  0  0  0
 20 22  1  0  0  0
 20 24  2  0  0  0
  5  8  1  0  0  0
  6  7  1  0  0  0
  6 10  1  0  0  0
  7  8  2  0  0  0
 21 22  2  0  0  0
 23 24  1  0  0  0
 24 25  1  0  0  0
 16 17  1  0  0  0
 13 15  1  0  0  0
M  END
> <minimizedAffinity>
-8.30816

$$$$
5ANV_RGJ_A_1157


 29 31  0  0  0  0  0  0  0  0999 V2000
   10.5608   21.3870    1.0388 C   0  0  0  0  0  0  0  0  0  0  0  0
   10.0657   22.5336    0.3271 C   0  0  0  0  0  0  0  0  0  0  0  0
   10.3093   24.7055   -0.7225 C   0  0  0  0  0  0  0  0  0  0  0  0
    8.9323   24.7157   -1.0252 C   0  0  0  0  0  0  0  0  0  0  0  0
    9.6436   20.4183    1.5073 C   0  0  0  0  0  0  0  0  0  0  0  0
    8.6809   22.5645    0.0443 C   0  0  0  0  0  0  0  0  0  0  0  0
    7.8255   21.5808    0.4480 N   0  0  0  0  0  0  0  0  0  0  0  0
    8.3072   20.5850    1.1567 C   0  0  0  0  0  0  0  0  0  0  0  0
   10.8486   23.6634   -0.0236 C   0  0  0  0  0  0  0  0  0  0  0  0
    8.1346   23.6807   -0.6323 C   0  0  0  0  0  0  0  0  0  0  0  0
   10.0829   19.2617    2.3645 C   0  0  0  0  0  0  0  0  0  0  0  0
   11.0414   18.5688    2.0721 O   0  0  0  0  0  0  0  0  0  0  0  0
    9.4661   19.0790    3.5256 N   0  0  0  0  0  0  0  0  0  0  0  0
    9.9280   18.0912    4.4840 C   0  0  0  0  0  0  0  0  0  0  0  0
    8.6768   19.6262    3.7419 H   0  0  0  0  0  0  0  0  0  0  0  0
   11.9152   21.2155    1.2663 N   0  0  0  0  0  0  0  0  0  0  0  0
   12.4401   20.7875    0.5518 H   0  0  0  0  0  0  0  0  0  0  0  0
   14.7109   22.7809    6.2257 Cl  0  0  0  0  0  0  0  0  0  0  0  0
   13.9075   22.3202    4.7735 C   0  0  0  0  0  0  0  0  0  0  0  0
   12.6116   21.6017    2.4365 C   0  0  0  0  0  0  0  0  0  0  0  0
   12.5326   22.2105    4.7701 C   0  0  0  0  0  0  0  0  0  0  0  0
   11.8871   21.8532    3.6013 C   0  0  0  0  0  0  0  0  0  0  0  0
   14.6683   22.0686    3.6491 C   0  0  0  0  0  0  0  0  0  0  0  0
   13.9999   21.6984    2.5128 C   0  0  0  0  0  0  0  0  0  0  0  0
   14.7198   21.4671    1.3931 F   0  0  0  0  0  0  0  0  0  0  0  0
   10.9945   25.8243   -1.1241 O   0  0  0  0  0  0  0  0  0  0  0  0
   11.9835   25.6748   -2.1515 C   0  0  0  0  0  0  0  0  0  0  0  0
    8.0079   25.6060   -3.0364 C   0  0  0  0  0  0  0  0  0  0  0  0
    8.4997   25.8154   -1.7157 O   0  0  0  0  0  0  0  0  0  0  0  0
 18 19  1  0  0  0
 19 21  1  0  0  0
 19 23  2  0  0  0
 16  1  1  0  0  0
 16 20  1  0  0  0
  1  2  1  0  0  0
  1  5  2  0  0  0
 11 12  2  0  0  0
 11 13  1  0  0  0
 11  5  1  0  0  0
 13 14  1  0  0  0
  2  6  2  0  0  0
  2  9  1  0  0  0
  3 26  1  0  0  0
  3  4  1  0  0  0
  3  9  2  0  0  0
 26 27  1  0  0  0
  4 10  2  0  0  0
  4 29  1  0  0  0
 28 29  1  0  0  0
 20 22  1  0  0  0
 20 24  2  0  0  0
  5  8  1  0  0  0
  6  7  1  0  0  0
  6 10  1  0  0  0
  7  8  2  0  0  0
 21 22  2  0  0  0
 23 24  1  0  0  0
 24 25  1  0  0  0
 16 17  1  0  0  0
 13 15  1  0  0  0
M  END
> <minimizedAffinity>
-8.23166

$$$$
5ANV_RGJ_A_1157


 29 31  0  0  0  0  0  0  0  0999 V2000
   10.3933   21.4406    0.8239 C   0  0  0  0  0  0  0  0  0  0  0  0
   10.0030   22.5832    0.0439 C   0  0  0  0  0  0  0  0  0  0  0  0
   10.4002   24.3350   -1.5845 C   0  0  0  0  0  0  0  0  0  0  0  0
    9.0979   24.8312   -1.3710 C   0  0  0  0  0  0  0  0  0  0  0  0
    9.5262   20.9689    1.8362 C   0  0  0  0  0  0  0  0  0  0  0  0
    8.7086   23.1040    0.2721 C   0  0  0  0  0  0  0  0  0  0  0  0
    7.8620   22.5863    1.2089 N   0  0  0  0  0  0  0  0  0  0  0  0
    8.2841   21.5863    1.9490 C   0  0  0  0  0  0  0  0  0  0  0  0
   10.8535   23.2693   -0.8607 C   0  0  0  0  0  0  0  0  0  0  0  0
    8.2807   24.2431   -0.4500 C   0  0  0  0  0  0  0  0  0  0  0  0
    9.9285   19.8580    2.7686 C   0  0  0  0  0  0  0  0  0  0  0  0
   10.2727   18.7637    2.3585 O   0  0  0  0  0  0  0  0  0  0  0  0
   10.0140   20.1341    4.0642 N   0  0  0  0  0  0  0  0  0  0  0  0
   10.5460   19.1721    5.0125 C   0  0  0  0  0  0  0  0  0  0  0  0
    9.7095   21.0119    4.3897 H   0  0  0  0  0  0  0  0  0  0  0  0
   11.5965   20.7955    0.5962 N   0  0  0  0  0  0  0  0  0  0  0  0
   11.5589   19.9198    0.1479 H   0  0  0  0  0  0  0  0  0  0  0  0
   16.9116   22.9514    1.9979 Cl  0  0  0  0  0  0  0  0  0  0  0  0
   15.3598   22.3176    1.6020 C   0  0  0  0  0  0  0  0  0  0  0  0
   12.8763   21.2849    0.9515 C   0  0  0  0  0  0  0  0  0  0  0  0
   14.7400   22.7299    0.4408 C   0  0  0  0  0  0  0  0  0  0  0  0
   13.5004   22.2115    0.1168 C   0  0  0  0  0  0  0  0  0  0  0  0
   14.7758   21.4126    2.4659 C   0  0  0  0  0  0  0  0  0  0  0  0
   13.5394   20.9326    2.1256 C   0  0  0  0  0  0  0  0  0  0  0  0
   12.9556   20.0296    2.9438 F   0  0  0  0  0  0  0  0  0  0  0  0
   11.1422   25.0416   -2.4968 O   0  0  0  0  0  0  0  0  0  0  0  0
   12.4081   25.5655   -2.0733 C   0  0  0  0  0  0  0  0  0  0  0  0
    7.7526   25.7129   -3.1332 C   0  0  0  0  0  0  0  0  0  0  0  0
    8.7561   25.9098   -2.1411 O   0  0  0  0  0  0  0  0  0  0  0  0
 18 19  1  0  0  0
 19 21  1  0  0  0
 19 23  2  0  0  0
 16  1  1  0  0  0
 16 20  1  0  0  0
  1  2  1  0  0  0
  1  5  2  0  0  0
 11 12  2  0  0  0
 11 13  1  0  0  0
 11  5  1  0  0  0
 13 14  1  0  0  0
  2  6  2  0  0  0
  2  9  1  0  0  0
  3 26  1  0  0  0
  3  4  1  0  0  0
  3  9  2  0  0  0
 26 27  1  0  0  0
  4 10  2  0  0  0
  4 29  1  0  0  0
 28 29  1  0  0  0
 20 22  1  0  0  0
 20 24  2  0  0  0
  5  8  1  0  0  0
  6  7  1  0  0  0
  6 10  1  0  0  0
  7  8  2  0  0  0
 21 22  2  0  0  0
 23 24  1  0  0  0
 24 25  1  0  0  0
 16 17  1  0  0  0
 13 15  1  0  0  0
M  END
> <minimizedAffinity>
-8.20450

$$$$
5ANV_RGJ_A_1157


 29 31  0  0  0  0  0  0  0  0999 V2000
   13.5627   20.9413    2.4956 C   0  0  0  0  0  0  0  0  0  0  0  0
   12.1861   20.5965    2.2666 C   0  0  0  0  0  0  0  0  0  0  0  0
   10.1904   19.2731    2.6460 C   0  0  0  0  0  0  0  0  0  0  0  0
    9.5035   20.0265    1.6722 C   0  0  0  0  0  0  0  0  0  0  0  0
   14.1808   21.8998    1.6599 C   0  0  0  0  0  0  0  0  0  0  0  0
   11.4981   21.3288    1.2721 C   0  0  0  0  0  0  0  0  0  0  0  0
   12.0997   22.2994    0.5248 N   0  0  0  0  0  0  0  0  0  0  0  0
   13.3777   22.5351    0.7175 C   0  0  0  0  0  0  0  0  0  0  0  0
   11.5089   19.5227    2.8997 C   0  0  0  0  0  0  0  0  0  0  0  0
   10.1480   21.0152    0.9874 C   0  0  0  0  0  0  0  0  0  0  0  0
   15.6491   22.2132    1.7664 C   0  0  0  0  0  0  0  0  0  0  0  0
   16.4486   21.4142    2.2210 O   0  0  0  0  0  0  0  0  0  0  0  0
   16.0814   23.3524    1.2396 N   0  0  0  0  0  0  0  0  0  0  0  0
   17.4974   23.6611    1.1550 C   0  0  0  0  0  0  0  0  0  0  0  0
   15.4263   24.0032    0.8981 H   0  0  0  0  0  0  0  0  0  0  0  0
   14.2865   20.3560    3.5199 N   0  0  0  0  0  0  0  0  0  0  0  0
   14.4502   19.3872    3.4577 H   0  0  0  0  0  0  0  0  0  0  0  0
   16.3476   23.2066    8.2621 Cl  0  0  0  0  0  0  0  0  0  0  0  0
   15.7554   22.3648    6.8811 C   0  0  0  0  0  0  0  0  0  0  0  0
   14.8119   21.0287    4.6491 C   0  0  0  0  0  0  0  0  0  0  0  0
   14.5647   22.7620    6.3094 C   0  0  0  0  0  0  0  0  0  0  0  0
   14.0961   22.0945    5.1935 C   0  0  0  0  0  0  0  0  0  0  0  0
   16.4924   21.3075    6.3858 C   0  0  0  0  0  0  0  0  0  0  0  0
   15.9912   20.6552    5.2911 C   0  0  0  0  0  0  0  0  0  0  0  0
   16.7042   19.6305    4.7743 F   0  0  0  0  0  0  0  0  0  0  0  0
    9.4506   18.2748    3.2278 O   0  0  0  0  0  0  0  0  0  0  0  0
   10.1186   17.0515    3.5646 C   0  0  0  0  0  0  0  0  0  0  0  0
    7.2051   20.6326    1.8783 C   0  0  0  0  0  0  0  0  0  0  0  0
    8.1917   19.6801    1.4917 O   0  0  0  0  0  0  0  0  0  0  0  0
 18 19  1  0  0  0
 19 21  1  0  0  0
 19 23  2  0  0  0
 16  1  1  0  0  0
 16 20  1  0  0  0
  1  2  1  0  0  0
  1  5  2  0  0  0
 11 12  2  0  0  0
 11 13  1  0  0  0
 11  5  1  0  0  0
 13 14  1  0  0  0
  2  6  2  0  0  0
  2  9  1  0  0  0
  3 26  1  0  0  0
  3  4  1  0  0  0
  3  9  2  0  0  0
 26 27  1  0  0  0
  4 10  2  0  0  0
  4 29  1  0  0  0
 28 29  1  0  0  0
 20 22  1  0  0  0
 20 24  2  0  0  0
  5  8  1  0  0  0
  6  7  1  0  0  0
  6 10  1  0  0  0
  7  8  2  0  0  0
 21 22  2  0  0  0
 23 24  1  0  0  0
 24 25  1  0  0  0
 16 17  1  0  0  0
 13 15  1  0  0  0
M  END
> <minimizedAffinity>
-8.03125

$$$$
5ANV_RGJ_A_1157


 29 31  0  0  0  0  0  0  0  0999 V2000
   10.7595   21.5032    1.3927 C   0  0  0  0  0  0  0  0  0  0  0  0
   11.9732   21.5852    2.1587 C   0  0  0  0  0  0  0  0  0  0  0  0
   14.3838   21.6864    2.3974 C   0  0  0  0  0  0  0  0  0  0  0  0
   14.2459   21.7048    3.8004 C   0  0  0  0  0  0  0  0  0  0  0  0
    9.5313   21.3118    2.0666 C   0  0  0  0  0  0  0  0  0  0  0  0
   11.8451   21.5760    3.5666 C   0  0  0  0  0  0  0  0  0  0  0  0
   10.6393   21.4599    4.1949 N   0  0  0  0  0  0  0  0  0  0  0  0
    9.5612   21.3168    3.4579 C   0  0  0  0  0  0  0  0  0  0  0  0
   13.2782   21.5814    1.6025 C   0  0  0  0  0  0  0  0  0  0  0  0
   13.0084   21.6297    4.3704 C   0  0  0  0  0  0  0  0  0  0  0  0
    8.2438   21.0935    1.3184 C   0  0  0  0  0  0  0  0  0  0  0  0
    8.0129   20.0584    0.7189 O   0  0  0  0  0  0  0  0  0  0  0  0
    7.2995   22.0207    1.4222 N   0  0  0  0  0  0  0  0  0  0  0  0
    5.9731   21.8196    0.8675 C   0  0  0  0  0  0  0  0  0  0  0  0
    7.5035   22.8647    1.8863 H   0  0  0  0  0  0  0  0  0  0  0  0
   10.7748   21.6137    0.0132 N   0  0  0  0  0  0  0  0  0  0  0  0
   11.0008   20.8044   -0.4999 H   0  0  0  0  0  0  0  0  0  0  0  0
    9.7384   26.5539   -3.0500 Cl  0  0  0  0  0  0  0  0  0  0  0  0
   10.0320   25.1059   -2.1648 C   0  0  0  0  0  0  0  0  0  0  0  0
   10.4939   22.7886   -0.7245 C   0  0  0  0  0  0  0  0  0  0  0  0
   11.1003   25.0537   -1.2939 C   0  0  0  0  0  0  0  0  0  0  0  0
   11.3282   23.8959   -0.5741 C   0  0  0  0  0  0  0  0  0  0  0  0
    9.1866   24.0313   -2.3569 C   0  0  0  0  0  0  0  0  0  0  0  0
    9.4509   22.8931   -1.6431 C   0  0  0  0  0  0  0  0  0  0  0  0
    8.6258   21.8344   -1.7974 F   0  0  0  0  0  0  0  0  0  0  0  0
   15.6793   21.7150    1.9467 O   0  0  0  0  0  0  0  0  0  0  0  0
   16.1367   22.9043    1.2890 C   0  0  0  0  0  0  0  0  0  0  0  0
   15.7427   20.7294    5.3816 C   0  0  0  0  0  0  0  0  0  0  0  0
   15.4208   21.7982    4.4962 O   0  0  0  0  0  0  0  0  0  0  0  0
 18 19  1  0  0  0
 19 21  1  0  0  0
 19 23  2  0  0  0
 16  1  1  0  0  0
 16 20  1  0  0  0
  1  2  1  0  0  0
  1  5  2  0  0  0
 11 12  2  0  0  0
 11 13  1  0  0  0
 11  5  1  0  0  0
 13 14  1  0  0  0
  2  6  2  0  0  0
  2  9  1  0  0  0
  3 26  1  0  0  0
  3  4  1  0  0  0
  3  9  2  0  0  0
 26 27  1  0  0  0
  4 10  2  0  0  0
  4 29  1  0  0  0
 28 29  1  0  0  0
 20 22  1  0  0  0
 20 24  2  0  0  0
  5  8  1  0  0  0
  6  7  1  0  0  0
  6 10  1  0  0  0
  7  8  2  0  0  0
 21 22  2  0  0  0
 23 24  1  0  0  0
 24 25  1  0  0  0
 16 17  1  0  0  0
 13 15  1  0  0  0
M  END
> <minimizedAffinity>
-7.73786

$$$$
5ANV_RGJ_A_1157


 29 31  0  0  0  0  0  0  0  0999 V2000
   12.1639   21.9835    2.1907 C   0  0  0  0  0  0  0  0  0  0  0  0
   13.5870   21.9866    2.3931 C   0  0  0  0  0  0  0  0  0  0  0  0
   15.5858   21.7332    3.7419 C   0  0  0  0  0  0  0  0  0  0  0  0
   16.3817   22.0767    2.6301 C   0  0  0  0  0  0  0  0  0  0  0  0
   11.6422   22.4453    0.9604 C   0  0  0  0  0  0  0  0  0  0  0  0
   14.3910   22.3570    1.2909 C   0  0  0  0  0  0  0  0  0  0  0  0
   13.8643   22.7329    0.0895 N   0  0  0  0  0  0  0  0  0  0  0  0
   12.5572   22.7839   -0.0320 C   0  0  0  0  0  0  0  0  0  0  0  0
   14.2242   21.7354    3.6355 C   0  0  0  0  0  0  0  0  0  0  0  0
   15.7974   22.4014    1.4405 C   0  0  0  0  0  0  0  0  0  0  0  0
   10.1612   22.5847    0.7312 C   0  0  0  0  0  0  0  0  0  0  0  0
    9.3944   22.8860    1.6287 O   0  0  0  0  0  0  0  0  0  0  0  0
    9.7127   22.4849   -0.5142 N   0  0  0  0  0  0  0  0  0  0  0  0
    8.3273   22.7631   -0.8474 C   0  0  0  0  0  0  0  0  0  0  0  0
   10.3342   22.2158   -1.2288 H   0  0  0  0  0  0  0  0  0  0  0  0
   11.3017   21.5325    3.1751 N   0  0  0  0  0  0  0  0  0  0  0  0
   10.8852   22.2118    3.7532 H   0  0  0  0  0  0  0  0  0  0  0  0
    9.9794   15.8522    4.0961 Cl  0  0  0  0  0  0  0  0  0  0  0  0
   10.3660   17.5112    3.8412 C   0  0  0  0  0  0  0  0  0  0  0  0
   10.9665   20.1798    3.4230 C   0  0  0  0  0  0  0  0  0  0  0  0
   10.7300   17.9317    2.5790 C   0  0  0  0  0  0  0  0  0  0  0  0
   11.0278   19.2654    2.3719 C   0  0  0  0  0  0  0  0  0  0  0  0
   10.3039   18.3765    4.9153 C   0  0  0  0  0  0  0  0  0  0  0  0
   10.6233   19.6871    4.6808 C   0  0  0  0  0  0  0  0  0  0  0  0
   10.5497   20.5583    5.7109 F   0  0  0  0  0  0  0  0  0  0  0  0
   16.2863   21.4779    4.8936 O   0  0  0  0  0  0  0  0  0  0  0  0
   16.3125   20.1293    5.3802 C   0  0  0  0  0  0  0  0  0  0  0  0
   18.5475   22.8686    2.0181 C   0  0  0  0  0  0  0  0  0  0  0  0
   17.7315   22.0548    2.8558 O   0  0  0  0  0  0  0  0  0  0  0  0
 18 19  1  0  0  0
 19 21  1  0  0  0
 19 23  2  0  0  0
 16  1  1  0  0  0
 16 20  1  0  0  0
  1  2  1  0  0  0
  1  5  2  0  0  0
 11 12  2  0  0  0
 11 13  1  0  0  0
 11  5  1  0  0  0
 13 14  1  0  0  0
  2  6  2  0  0  0
  2  9  1  0  0  0
  3 26  1  0  0  0
  3  4  1  0  0  0
  3  9  2  0  0  0
 26 27  1  0  0  0
  4 10  2  0  0  0
  4 29  1  0  0  0
 28 29  1  0  0  0
 20 22  1  0  0  0
 20 24  2  0  0  0
  5  8  1  0  0  0
  6  7  1  0  0  0
  6 10  1  0  0  0
  7  8  2  0  0  0
 21 22  2  0  0  0
 23 24  1  0  0  0
 24 25  1  0  0  0
 16 17  1  0  0  0
 13 15  1  0  0  0
M  END
> <minimizedAffinity>
-7.65307

$$$$
