4BKS_X6C_C_1203


 26 28  0  0  0  0  0  0  0  0999 V2000
   -6.1365   34.3994    1.9285 C   0  0  0  0  0  0  0  0  0  0  0  0
   -5.0637   34.0897    1.3904 O   0  0  0  0  0  0  0  0  0  0  0  0
   -6.2384   35.1531    3.0563 N   0  0  0  0  0  0  0  0  0  0  0  0
   -7.1361   35.4272    3.3536 H   0  0  0  0  0  0  0  0  0  0  0  0
   -7.0223   34.0735   -2.5176 C   0  0  0  0  0  0  0  0  0  0  0  0
   -7.0507   34.5470   -1.0311 C   0  0  0  0  0  0  0  0  0  0  0  0
   -6.7614   35.7164   -0.7592 O   0  0  0  0  0  0  0  0  0  0  0  0
   -7.3402   33.6241   -0.0716 N   0  0  0  0  0  0  0  0  0  0  0  0
   -7.7420   32.1914   -0.2355 C   0  0  0  0  0  0  0  0  0  0  0  0
   -8.4589   31.8265    1.0456 C   0  0  0  0  0  0  0  0  0  0  0  0
   -9.8263   32.2551    0.9875 O   0  0  0  0  0  0  0  0  0  0  0  0
   -7.7330   32.6135    2.1094 C   0  0  0  0  0  0  0  0  0  0  0  0
   -7.3676   33.9455    1.4192 C   0  0  0  0  0  0  0  0  0  0  0  0
   -9.8590   33.2106    0.8235 H   0  0  0  0  0  0  0  0  0  0  0  0
   -5.0704   35.5844    3.8625 C   0  0  0  0  0  0  0  0  0  0  0  0
   -4.9085   34.7930    5.0452 C   0  0  0  0  0  0  0  0  0  0  0  0
   -3.6922   34.7562    5.7727 C   0  0  0  0  0  0  0  0  0  0  0  0
   -3.5533   33.9820    6.9361 C   0  0  0  0  0  0  0  0  0  0  0  0
   -5.9699   33.9896    5.4957 C   0  0  0  0  0  0  0  0  0  0  0  0
   -5.8223   33.1924    6.6494 C   0  0  0  0  0  0  0  0  0  0  0  0
   -4.6099   33.1700    7.3805 C   0  0  0  0  0  0  0  0  0  0  0  0
   -4.4582   32.4219    8.4958 C   0  0  0  0  0  0  0  0  0  0  0  0
   -3.7087   32.7804    9.6061 O   0  0  0  0  0  0  0  0  0  0  0  0
   -3.8163   31.7505   10.5042 C   0  0  0  0  0  0  0  0  0  0  0  0
   -4.5927   30.8153    9.9557 N   0  0  0  0  0  0  0  0  0  0  0  0
   -4.9867   31.2198    8.7393 C   0  0  0  0  0  0  0  0  0  0  0  0
  5  6  1  0  0  0
  6  7  2  0  0  0
  6  8  1  0  0  0
  8  9  1  0  0  0
  8 13  1  0  0  0
  9 10  1  0  0  0
 10 11  1  0  0  0
 10 12  1  0  0  0
 12 13  1  0  0  0
 13  1  1  0  0  0
  1  2  2  0  0  0
  1  3  1  0  0  0
  3 15  1  0  0  0
 15 16  1  0  0  0
 16 17  1  0  0  0
 16 19  2  0  0  0
 17 18  2  0  0  0
 18 21  1  0  0  0
 19 20  1  0  0  0
 20 21  2  0  0  0
 21 22  1  0  0  0
 22 23  1  0  0  0
 22 26  2  0  0  0
 23 24  1  0  0  0
 24 25  2  0  0  0
 25 26  1  0  0  0
 11 14  1  0  0  0
  3  4  1  0  0  0
M  END
> <minimizedAffinity>
-8.45768

$$$$
4BKS_X6C_C_1203


 26 28  0  0  0  0  0  0  0  0999 V2000
   -6.4556   35.1335    1.6019 C   0  0  0  0  0  0  0  0  0  0  0  0
   -7.0729   36.1981    1.4543 O   0  0  0  0  0  0  0  0  0  0  0  0
   -5.8327   34.7622    2.7528 N   0  0  0  0  0  0  0  0  0  0  0  0
   -5.4511   33.8561    2.8042 H   0  0  0  0  0  0  0  0  0  0  0  0
   -9.1277   31.4934    1.0835 C   0  0  0  0  0  0  0  0  0  0  0  0
   -7.8810   32.3900    1.3601 C   0  0  0  0  0  0  0  0  0  0  0  0
   -7.3178   32.3275    2.4574 O   0  0  0  0  0  0  0  0  0  0  0  0
   -7.4922   33.2619    0.3881 N   0  0  0  0  0  0  0  0  0  0  0  0
   -8.0402   33.4348   -0.9942 C   0  0  0  0  0  0  0  0  0  0  0  0
   -6.9312   34.0912   -1.7865 C   0  0  0  0  0  0  0  0  0  0  0  0
   -5.9957   33.1038   -2.2410 O   0  0  0  0  0  0  0  0  0  0  0  0
   -6.2548   34.9989   -0.7883 C   0  0  0  0  0  0  0  0  0  0  0  0
   -6.3137   34.2178    0.5424 C   0  0  0  0  0  0  0  0  0  0  0  0
   -5.6454   32.6155   -1.4795 H   0  0  0  0  0  0  0  0  0  0  0  0
   -5.6975   35.6485    3.9345 C   0  0  0  0  0  0  0  0  0  0  0  0
   -5.3609   34.9196    5.1206 C   0  0  0  0  0  0  0  0  0  0  0  0
   -4.2423   35.2543    5.9247 C   0  0  0  0  0  0  0  0  0  0  0  0
   -3.9317   34.5349    7.0902 C   0  0  0  0  0  0  0  0  0  0  0  0
   -6.1335   33.8078    5.4972 C   0  0  0  0  0  0  0  0  0  0  0  0
   -5.8069   33.0697    6.6533 C   0  0  0  0  0  0  0  0  0  0  0  0
   -4.6968   33.4167    7.4609 C   0  0  0  0  0  0  0  0  0  0  0  0
   -4.3796   32.7274    8.5793 C   0  0  0  0  0  0  0  0  0  0  0  0
   -3.6569   33.2279    9.6519 O   0  0  0  0  0  0  0  0  0  0  0  0
   -3.5571   32.2134   10.5683 C   0  0  0  0  0  0  0  0  0  0  0  0
   -4.1888   31.1516   10.0662 N   0  0  0  0  0  0  0  0  0  0  0  0
   -4.6917   31.4600    8.8619 C   0  0  0  0  0  0  0  0  0  0  0  0
  5  6  1  0  0  0
  6  7  2  0  0  0
  6  8  1  0  0  0
  8  9  1  0  0  0
  8 13  1  0  0  0
  9 10  1  0  0  0
 10 11  1  0  0  0
 10 12  1  0  0  0
 12 13  1  0  0  0
 13  1  1  0  0  0
  1  2  2  0  0  0
  1  3  1  0  0  0
  3 15  1  0  0  0
 15 16  1  0  0  0
 16 17  1  0  0  0
 16 19  2  0  0  0
 17 18  2  0  0  0
 18 21  1  0  0  0
 19 20  1  0  0  0
 20 21  2  0  0  0
 21 22  1  0  0  0
 22 23  1  0  0  0
 22 26  2  0  0  0
 23 24  1  0  0  0
 24 25  2  0  0  0
 25 26  1  0  0  0
 11 14  1  0  0  0
  3  4  1  0  0  0
M  END
> <minimizedAffinity>
-7.26026

$$$$
4BKS_X6C_C_1203


 26 28  0  0  0  0  0  0  0  0999 V2000
   -5.4381   35.3895    1.4762 C   0  0  0  0  0  0  0  0  0  0  0  0
   -5.7664   36.5804    1.3747 O   0  0  0  0  0  0  0  0  0  0  0  0
   -4.9087   34.8338    2.5993 N   0  0  0  0  0  0  0  0  0  0  0  0
   -4.7697   33.8593    2.6156 H   0  0  0  0  0  0  0  0  0  0  0  0
   -9.0225   32.6638    0.8585 C   0  0  0  0  0  0  0  0  0  0  0  0
   -7.5754   33.1654    1.1568 C   0  0  0  0  0  0  0  0  0  0  0  0
   -7.0571   32.9136    2.2492 O   0  0  0  0  0  0  0  0  0  0  0  0
   -6.9532   33.9225    0.2103 N   0  0  0  0  0  0  0  0  0  0  0  0
   -7.4248   34.2846   -1.1636 C   0  0  0  0  0  0  0  0  0  0  0  0
   -6.1727   34.6273   -1.9403 C   0  0  0  0  0  0  0  0  0  0  0  0
   -5.5501   33.4313   -2.4291 O   0  0  0  0  0  0  0  0  0  0  0  0
   -5.2729   35.2774   -0.9178 C   0  0  0  0  0  0  0  0  0  0  0  0
   -5.5544   34.5038    0.3885 C   0  0  0  0  0  0  0  0  0  0  0  0
   -5.3542   32.8412   -1.6846 H   0  0  0  0  0  0  0  0  0  0  0  0
   -4.5296   35.6166    3.8009 C   0  0  0  0  0  0  0  0  0  0  0  0
   -4.5121   34.8124    4.9860 C   0  0  0  0  0  0  0  0  0  0  0  0
   -5.6879   34.2347    5.5280 C   0  0  0  0  0  0  0  0  0  0  0  0
   -5.6517   33.4406    6.6858 C   0  0  0  0  0  0  0  0  0  0  0  0
   -3.3019   34.6074    5.6702 C   0  0  0  0  0  0  0  0  0  0  0  0
   -3.2694   33.8312    6.8470 C   0  0  0  0  0  0  0  0  0  0  0  0
   -4.4444   33.2447    7.3766 C   0  0  0  0  0  0  0  0  0  0  0  0
   -4.4267   32.4870    8.4955 C   0  0  0  0  0  0  0  0  0  0  0  0
   -5.1653   31.3299    8.6922 O   0  0  0  0  0  0  0  0  0  0  0  0
   -4.8601   30.8757    9.9490 C   0  0  0  0  0  0  0  0  0  0  0  0
   -3.9805   31.7241   10.4828 N   0  0  0  0  0  0  0  0  0  0  0  0
   -3.7125   32.7006    9.6036 C   0  0  0  0  0  0  0  0  0  0  0  0
  5  6  1  0  0  0
  6  7  2  0  0  0
  6  8  1  0  0  0
  8  9  1  0  0  0
  8 13  1  0  0  0
  9 10  1  0  0  0
 10 11  1  0  0  0
 10 12  1  0  0  0
 12 13  1  0  0  0
 13  1  1  0  0  0
  1  2  2  0  0  0
  1  3  1  0  0  0
  3 15  1  0  0  0
 15 16  1  0  0  0
 16 17  1  0  0  0
 16 19  2  0  0  0
 17 18  2  0  0  0
 18 21  1  0  0  0
 19 20  1  0  0  0
 20 21  2  0  0  0
 21 22  1  0  0  0
 22 23  1  0  0  0
 22 26  2  0  0  0
 23 24  1  0  0  0
 24 25  2  0  0  0
 25 26  1  0  0  0
 11 14  1  0  0  0
  3  4  1  0  0  0
M  END
> <minimizedAffinity>
-6.79973

$$$$
4BKS_X6C_C_1203


 26 28  0  0  0  0  0  0  0  0999 V2000
   -6.2925   34.2588    2.8284 C   0  0  0  0  0  0  0  0  0  0  0  0
   -6.7624   33.2883    2.2170 O   0  0  0  0  0  0  0  0  0  0  0  0
   -6.1494   34.3166    4.1799 N   0  0  0  0  0  0  0  0  0  0  0  0
   -5.6773   35.0897    4.5655 H   0  0  0  0  0  0  0  0  0  0  0  0
   -2.1637   34.8037    1.0079 C   0  0  0  0  0  0  0  0  0  0  0  0
   -3.4063   34.9616    1.9383 C   0  0  0  0  0  0  0  0  0  0  0  0
   -3.2912   34.7468    3.1490 O   0  0  0  0  0  0  0  0  0  0  0  0
   -4.6000   35.2773    1.3626 N   0  0  0  0  0  0  0  0  0  0  0  0
   -4.8978   35.6000   -0.0685 C   0  0  0  0  0  0  0  0  0  0  0  0
   -6.1873   36.3905   -0.0418 C   0  0  0  0  0  0  0  0  0  0  0  0
   -5.9178   37.7683    0.2513 O   0  0  0  0  0  0  0  0  0  0  0  0
   -6.9682   35.7806    1.0967 C   0  0  0  0  0  0  0  0  0  0  0  0
   -5.8969   35.4276    2.1512 C   0  0  0  0  0  0  0  0  0  0  0  0
   -5.4456   37.8328    1.0962 H   0  0  0  0  0  0  0  0  0  0  0  0
   -6.6660   33.2778    5.1042 C   0  0  0  0  0  0  0  0  0  0  0  0
   -5.8924   33.1917    6.3065 C   0  0  0  0  0  0  0  0  0  0  0  0
   -5.1396   34.2852    6.8040 C   0  0  0  0  0  0  0  0  0  0  0  0
   -4.3939   34.1868    7.9900 C   0  0  0  0  0  0  0  0  0  0  0  0
   -5.8360   31.9779    7.0125 C   0  0  0  0  0  0  0  0  0  0  0  0
   -5.0669   31.8714    8.1895 C   0  0  0  0  0  0  0  0  0  0  0  0
   -4.3280   32.9707    8.6899 C   0  0  0  0  0  0  0  0  0  0  0  0
   -3.5976   32.8878    9.8240 C   0  0  0  0  0  0  0  0  0  0  0  0
   -2.6082   33.7806   10.2077 O   0  0  0  0  0  0  0  0  0  0  0  0
   -2.1198   33.3360   11.4089 C   0  0  0  0  0  0  0  0  0  0  0  0
   -2.7843   32.2251   11.7292 N   0  0  0  0  0  0  0  0  0  0  0  0
   -3.6835   31.9517   10.7726 C   0  0  0  0  0  0  0  0  0  0  0  0
  5  6  1  0  0  0
  6  7  2  0  0  0
  6  8  1  0  0  0
  8  9  1  0  0  0
  8 13  1  0  0  0
  9 10  1  0  0  0
 10 11  1  0  0  0
 10 12  1  0  0  0
 12 13  1  0  0  0
 13  1  1  0  0  0
  1  2  2  0  0  0
  1  3  1  0  0  0
  3 15  1  0  0  0
 15 16  1  0  0  0
 16 17  1  0  0  0
 16 19  2  0  0  0
 17 18  2  0  0  0
 18 21  1  0  0  0
 19 20  1  0  0  0
 20 21  2  0  0  0
 21 22  1  0  0  0
 22 23  1  0  0  0
 22 26  2  0  0  0
 23 24  1  0  0  0
 24 25  2  0  0  0
 25 26  1  0  0  0
 11 14  1  0  0  0
  3  4  1  0  0  0
M  END
> <minimizedAffinity>
-6.76482

$$$$
4BKS_X6C_C_1203


 26 28  0  0  0  0  0  0  0  0999 V2000
   -5.6673   33.7707    5.7053 C   0  0  0  0  0  0  0  0  0  0  0  0
   -6.0489   32.8923    6.4922 O   0  0  0  0  0  0  0  0  0  0  0  0
   -6.2159   33.9930    4.4805 N   0  0  0  0  0  0  0  0  0  0  0  0
   -5.9087   34.7753    3.9678 H   0  0  0  0  0  0  0  0  0  0  0  0
   -6.0503   37.5560    8.1920 C   0  0  0  0  0  0  0  0  0  0  0  0
   -5.8309   36.5901    6.9864 C   0  0  0  0  0  0  0  0  0  0  0  0
   -6.5594   36.6811    5.9933 O   0  0  0  0  0  0  0  0  0  0  0  0
   -4.8692   35.6319    7.1016 N   0  0  0  0  0  0  0  0  0  0  0  0
   -3.8892   35.4118    8.2116 C   0  0  0  0  0  0  0  0  0  0  0  0
   -2.7530   34.6269    7.5940 C   0  0  0  0  0  0  0  0  0  0  0  0
   -1.8477   35.5122    6.9206 O   0  0  0  0  0  0  0  0  0  0  0  0
   -3.4300   33.7376    6.5797 C   0  0  0  0  0  0  0  0  0  0  0  0
   -4.5757   34.6041    6.0135 C   0  0  0  0  0  0  0  0  0  0  0  0
   -2.3312   36.0211    6.2511 H   0  0  0  0  0  0  0  0  0  0  0  0
   -7.2519   33.1206    3.8757 C   0  0  0  0  0  0  0  0  0  0  0  0
   -7.2387   33.1787    2.4447 C   0  0  0  0  0  0  0  0  0  0  0  0
   -7.9023   32.2181    1.6404 C   0  0  0  0  0  0  0  0  0  0  0  0
   -7.8873   32.2952    0.2382 C   0  0  0  0  0  0  0  0  0  0  0  0
   -6.5176   34.1956    1.7960 C   0  0  0  0  0  0  0  0  0  0  0  0
   -6.4813   34.2585    0.3878 C   0  0  0  0  0  0  0  0  0  0  0  0
   -7.1574   33.3047   -0.4109 C   0  0  0  0  0  0  0  0  0  0  0  0
   -7.1432   33.3600   -1.7612 C   0  0  0  0  0  0  0  0  0  0  0  0
   -6.0311   33.1444   -2.5610 O   0  0  0  0  0  0  0  0  0  0  0  0
   -6.4436   33.2953   -3.8595 C   0  0  0  0  0  0  0  0  0  0  0  0
   -7.7437   33.5912   -3.8388 N   0  0  0  0  0  0  0  0  0  0  0  0
   -8.1726   33.6281   -2.5687 C   0  0  0  0  0  0  0  0  0  0  0  0
  5  6  1  0  0  0
  6  7  2  0  0  0
  6  8  1  0  0  0
  8  9  1  0  0  0
  8 13  1  0  0  0
  9 10  1  0  0  0
 10 11  1  0  0  0
 10 12  1  0  0  0
 12 13  1  0  0  0
 13  1  1  0  0  0
  1  2  2  0  0  0
  1  3  1  0  0  0
  3 15  1  0  0  0
 15 16  1  0  0  0
 16 17  1  0  0  0
 16 19  2  0  0  0
 17 18  2  0  0  0
 18 21  1  0  0  0
 19 20  1  0  0  0
 20 21  2  0  0  0
 21 22  1  0  0  0
 22 23  1  0  0  0
 22 26  2  0  0  0
 23 24  1  0  0  0
 24 25  2  0  0  0
 25 26  1  0  0  0
 11 14  1  0  0  0
  3  4  1  0  0  0
M  END
> <minimizedAffinity>
-6.67892

$$$$
4BKS_X6C_C_1203


 26 28  0  0  0  0  0  0  0  0999 V2000
   -3.4302   34.0043    7.4176 C   0  0  0  0  0  0  0  0  0  0  0  0
   -2.5258   34.1824    6.5889 O   0  0  0  0  0  0  0  0  0  0  0  0
   -4.6731   34.5491    7.3242 N   0  0  0  0  0  0  0  0  0  0  0  0
   -5.3533   34.2723    7.9799 H   0  0  0  0  0  0  0  0  0  0  0  0
   -2.4205   35.8140   11.4629 C   0  0  0  0  0  0  0  0  0  0  0  0
   -2.3012   35.0373   10.1149 C   0  0  0  0  0  0  0  0  0  0  0  0
   -1.4404   35.3707    9.2945 O   0  0  0  0  0  0  0  0  0  0  0  0
   -3.2020   34.0458    9.8664 N   0  0  0  0  0  0  0  0  0  0  0  0
   -4.2727   33.5022   10.7605 C   0  0  0  0  0  0  0  0  0  0  0  0
   -4.5702   32.1159   10.2332 C   0  0  0  0  0  0  0  0  0  0  0  0
   -3.6150   31.1760   10.7440 O   0  0  0  0  0  0  0  0  0  0  0  0
   -4.3946   32.2457    8.7398 C   0  0  0  0  0  0  0  0  0  0  0  0
   -3.2189   33.2330    8.5759 C   0  0  0  0  0  0  0  0  0  0  0  0
   -2.7198   31.4616   10.5033 H   0  0  0  0  0  0  0  0  0  0  0  0
   -5.0592   35.5377    6.2878 C   0  0  0  0  0  0  0  0  0  0  0  0
   -5.6015   34.9114    5.1195 C   0  0  0  0  0  0  0  0  0  0  0  0
   -5.4175   35.4443    3.8186 C   0  0  0  0  0  0  0  0  0  0  0  0
   -5.9481   34.8123    2.6823 C   0  0  0  0  0  0  0  0  0  0  0  0
   -6.3769   33.7467    5.2504 C   0  0  0  0  0  0  0  0  0  0  0  0
   -6.9312   33.1261    4.1121 C   0  0  0  0  0  0  0  0  0  0  0  0
   -6.7327   33.6545    2.8135 C   0  0  0  0  0  0  0  0  0  0  0  0
   -7.2459   33.0632    1.7120 C   0  0  0  0  0  0  0  0  0  0  0  0
   -6.7953   33.2559    0.4147 O   0  0  0  0  0  0  0  0  0  0  0  0
   -7.5815   32.4787   -0.3958 C   0  0  0  0  0  0  0  0  0  0  0  0
   -8.4655   31.8508    0.3804 N   0  0  0  0  0  0  0  0  0  0  0  0
   -8.2634   32.1998    1.6594 C   0  0  0  0  0  0  0  0  0  0  0  0
  5  6  1  0  0  0
  6  7  2  0  0  0
  6  8  1  0  0  0
  8  9  1  0  0  0
  8 13  1  0  0  0
  9 10  1  0  0  0
 10 11  1  0  0  0
 10 12  1  0  0  0
 12 13  1  0  0  0
 13  1  1  0  0  0
  1  2  2  0  0  0
  1  3  1  0  0  0
  3 15  1  0  0  0
 15 16  1  0  0  0
 16 17  1  0  0  0
 16 19  2  0  0  0
 17 18  2  0  0  0
 18 21  1  0  0  0
 19 20  1  0  0  0
 20 21  2  0  0  0
 21 22  1  0  0  0
 22 23  1  0  0  0
 22 26  2  0  0  0
 23 24  1  0  0  0
 24 25  2  0  0  0
 25 26  1  0  0  0
 11 14  1  0  0  0
  3  4  1  0  0  0
M  END
> <minimizedAffinity>
-6.53957

$$$$
4BKS_X6C_C_1203


 26 28  0  0  0  0  0  0  0  0999 V2000
   -6.8108   35.5720    1.8600 C   0  0  0  0  0  0  0  0  0  0  0  0
   -7.0760   36.7651    2.0666 O   0  0  0  0  0  0  0  0  0  0  0  0
   -5.8505   34.8744    2.5245 N   0  0  0  0  0  0  0  0  0  0  0  0
   -5.7791   33.9066    2.3584 H   0  0  0  0  0  0  0  0  0  0  0  0
   -5.8213   35.9163   -2.5628 C   0  0  0  0  0  0  0  0  0  0  0  0
   -6.5726   36.0205   -1.1993 C   0  0  0  0  0  0  0  0  0  0  0  0
   -6.9019   37.1304   -0.7691 O   0  0  0  0  0  0  0  0  0  0  0  0
   -6.7871   34.8723   -0.4981 N   0  0  0  0  0  0  0  0  0  0  0  0
   -6.4846   33.4599   -0.8912 C   0  0  0  0  0  0  0  0  0  0  0  0
   -7.4003   32.6029   -0.0453 C   0  0  0  0  0  0  0  0  0  0  0  0
   -8.7020   32.5294   -0.6429 O   0  0  0  0  0  0  0  0  0  0  0  0
   -7.4928   33.3468    1.2646 C   0  0  0  0  0  0  0  0  0  0  0  0
   -7.4775   34.8373    0.8616 C   0  0  0  0  0  0  0  0  0  0  0  0
   -9.0579   33.4249   -0.7539 H   0  0  0  0  0  0  0  0  0  0  0  0
   -4.9051   35.4928    3.4858 C   0  0  0  0  0  0  0  0  0  0  0  0
   -4.8164   34.7522    4.7084 C   0  0  0  0  0  0  0  0  0  0  0  0
   -5.9307   34.0791    5.2700 C   0  0  0  0  0  0  0  0  0  0  0  0
   -5.8242   33.3492    6.4650 C   0  0  0  0  0  0  0  0  0  0  0  0
   -3.5994   34.7095    5.4097 C   0  0  0  0  0  0  0  0  0  0  0  0
   -3.4987   33.9979    6.6228 C   0  0  0  0  0  0  0  0  0  0  0  0
   -4.6111   33.3156    7.1724 C   0  0  0  0  0  0  0  0  0  0  0  0
   -4.5263   32.6179    8.3267 C   0  0  0  0  0  0  0  0  0  0  0  0
   -3.9841   33.0914    9.5120 O   0  0  0  0  0  0  0  0  0  0  0  0
   -4.0912   32.0772   10.4279 C   0  0  0  0  0  0  0  0  0  0  0  0
   -4.6687   31.0413    9.8182 N   0  0  0  0  0  0  0  0  0  0  0  0
   -4.9371   31.3661    8.5451 C   0  0  0  0  0  0  0  0  0  0  0  0
  5  6  1  0  0  0
  6  7  2  0  0  0
  6  8  1  0  0  0
  8  9  1  0  0  0
  8 13  1  0  0  0
  9 10  1  0  0  0
 10 11  1  0  0  0
 10 12  1  0  0  0
 12 13  1  0  0  0
 13  1  1  0  0  0
  1  2  2  0  0  0
  1  3  1  0  0  0
  3 15  1  0  0  0
 15 16  1  0  0  0
 16 17  1  0  0  0
 16 19  2  0  0  0
 17 18  2  0  0  0
 18 21  1  0  0  0
 19 20  1  0  0  0
 20 21  2  0  0  0
 21 22  1  0  0  0
 22 23  1  0  0  0
 22 26  2  0  0  0
 23 24  1  0  0  0
 24 25  2  0  0  0
 25 26  1  0  0  0
 11 14  1  0  0  0
  3  4  1  0  0  0
M  END
> <minimizedAffinity>
-6.53263

$$$$
4BKS_X6C_C_1203


 26 28  0  0  0  0  0  0  0  0999 V2000
   -4.3072   34.2226    7.4895 C   0  0  0  0  0  0  0  0  0  0  0  0
   -5.2418   34.9105    7.9250 O   0  0  0  0  0  0  0  0  0  0  0  0
   -3.5804   34.5308    6.3817 N   0  0  0  0  0  0  0  0  0  0  0  0
   -2.7962   33.9745    6.1697 H   0  0  0  0  0  0  0  0  0  0  0  0
   -2.2063   34.0089   11.5144 C   0  0  0  0  0  0  0  0  0  0  0  0
   -2.4876   33.9190    9.9822 C   0  0  0  0  0  0  0  0  0  0  0  0
   -1.7952   34.5741    9.1969 O   0  0  0  0  0  0  0  0  0  0  0  0
   -3.5383   33.1566    9.5687 N   0  0  0  0  0  0  0  0  0  0  0  0
   -4.4436   32.2834   10.3804 C   0  0  0  0  0  0  0  0  0  0  0  0
   -5.0224   31.2857    9.4017 C   0  0  0  0  0  0  0  0  0  0  0  0
   -4.1035   30.2041    9.1951 O   0  0  0  0  0  0  0  0  0  0  0  0
   -5.1675   32.0701    8.1205 C   0  0  0  0  0  0  0  0  0  0  0  0
   -3.9429   33.0105    8.1054 C   0  0  0  0  0  0  0  0  0  0  0  0
   -3.2554   30.5557    8.8821 H   0  0  0  0  0  0  0  0  0  0  0  0
   -3.9053   35.6595    5.4758 C   0  0  0  0  0  0  0  0  0  0  0  0
   -4.5888   35.2245    4.2947 C   0  0  0  0  0  0  0  0  0  0  0  0
   -4.1453   35.5667    2.9923 C   0  0  0  0  0  0  0  0  0  0  0  0
   -4.8219   35.1238    1.8441 C   0  0  0  0  0  0  0  0  0  0  0  0
   -5.7629   34.4612    4.4112 C   0  0  0  0  0  0  0  0  0  0  0  0
   -6.4568   34.0378    3.2590 C   0  0  0  0  0  0  0  0  0  0  0  0
   -6.0019   34.3705    1.9600 C   0  0  0  0  0  0  0  0  0  0  0  0
   -6.6483   33.9603    0.8463 C   0  0  0  0  0  0  0  0  0  0  0  0
   -7.3081   32.7491    0.7022 O   0  0  0  0  0  0  0  0  0  0  0  0
   -7.8214   32.7279   -0.5686 C   0  0  0  0  0  0  0  0  0  0  0  0
   -7.4818   33.8735   -1.1607 N   0  0  0  0  0  0  0  0  0  0  0  0
   -6.7733   34.6250   -0.3053 C   0  0  0  0  0  0  0  0  0  0  0  0
  5  6  1  0  0  0
  6  7  2  0  0  0
  6  8  1  0  0  0
  8  9  1  0  0  0
  8 13  1  0  0  0
  9 10  1  0  0  0
 10 11  1  0  0  0
 10 12  1  0  0  0
 12 13  1  0  0  0
 13  1  1  0  0  0
  1  2  2  0  0  0
  1  3  1  0  0  0
  3 15  1  0  0  0
 15 16  1  0  0  0
 16 17  1  0  0  0
 16 19  2  0  0  0
 17 18  2  0  0  0
 18 21  1  0  0  0
 19 20  1  0  0  0
 20 21  2  0  0  0
 21 22  1  0  0  0
 22 23  1  0  0  0
 22 26  2  0  0  0
 23 24  1  0  0  0
 24 25  2  0  0  0
 25 26  1  0  0  0
 11 14  1  0  0  0
  3  4  1  0  0  0
M  END
> <minimizedAffinity>
-6.51142

$$$$
4BKS_X6C_C_1203


 26 28  0  0  0  0  0  0  0  0999 V2000
   -5.7992   34.4576    2.8018 C   0  0  0  0  0  0  0  0  0  0  0  0
   -6.5041   33.6194    2.2212 O   0  0  0  0  0  0  0  0  0  0  0  0
   -5.6456   34.5265    4.1516 N   0  0  0  0  0  0  0  0  0  0  0  0
   -4.9897   35.1652    4.5136 H   0  0  0  0  0  0  0  0  0  0  0  0
   -7.6875   38.4302    1.6566 C   0  0  0  0  0  0  0  0  0  0  0  0
   -7.0666   37.0018    1.5619 C   0  0  0  0  0  0  0  0  0  0  0  0
   -7.7292   36.0813    1.0734 O   0  0  0  0  0  0  0  0  0  0  0  0
   -5.8224   36.8098    2.0828 N   0  0  0  0  0  0  0  0  0  0  0  0
   -4.8838   37.8164    2.6718 C   0  0  0  0  0  0  0  0  0  0  0  0
   -3.5090   37.1946    2.5636 C   0  0  0  0  0  0  0  0  0  0  0  0
   -2.9713   37.4066    1.2510 O   0  0  0  0  0  0  0  0  0  0  0  0
   -3.7556   35.7201    2.7707 C   0  0  0  0  0  0  0  0  0  0  0  0
   -5.1150   35.4585    2.0868 C   0  0  0  0  0  0  0  0  0  0  0  0
   -3.5787   37.0397    0.5896 H   0  0  0  0  0  0  0  0  0  0  0  0
   -6.4130   33.6915    5.1077 C   0  0  0  0  0  0  0  0  0  0  0  0
   -5.6979   33.4737    6.3294 C   0  0  0  0  0  0  0  0  0  0  0  0
   -4.8584   34.4616    6.9033 C   0  0  0  0  0  0  0  0  0  0  0  0
   -4.1716   34.2351    8.1072 C   0  0  0  0  0  0  0  0  0  0  0  0
   -5.7903   32.2304    6.9779 C   0  0  0  0  0  0  0  0  0  0  0  0
   -5.0807   31.9939    8.1732 C   0  0  0  0  0  0  0  0  0  0  0  0
   -4.2545   32.9888    8.7498 C   0  0  0  0  0  0  0  0  0  0  0  0
   -3.5794   32.7816    9.9021 C   0  0  0  0  0  0  0  0  0  0  0  0
   -2.5897   33.6087   10.4115 O   0  0  0  0  0  0  0  0  0  0  0  0
   -2.1672   33.0416   11.5858 C   0  0  0  0  0  0  0  0  0  0  0  0
   -2.8698   31.9234   11.7704 N   0  0  0  0  0  0  0  0  0  0  0  0
   -3.7295   31.7637   10.7536 C   0  0  0  0  0  0  0  0  0  0  0  0
  5  6  1  0  0  0
  6  7  2  0  0  0
  6  8  1  0  0  0
  8  9  1  0  0  0
  8 13  1  0  0  0
  9 10  1  0  0  0
 10 11  1  0  0  0
 10 12  1  0  0  0
 12 13  1  0  0  0
 13  1  1  0  0  0
  1  2  2  0  0  0
  1  3  1  0  0  0
  3 15  1  0  0  0
 15 16  1  0  0  0
 16 17  1  0  0  0
 16 19  2  0  0  0
 17 18  2  0  0  0
 18 21  1  0  0  0
 19 20  1  0  0  0
 20 21  2  0  0  0
 21 22  1  0  0  0
 22 23  1  0  0  0
 22 26  2  0  0  0
 23 24  1  0  0  0
 24 25  2  0  0  0
 25 26  1  0  0  0
 11 14  1  0  0  0
  3  4  1  0  0  0
M  END
> <minimizedAffinity>
-6.29191

$$$$
4BKS_X6C_C_1203


 26 28  0  0  0  0  0  0  0  0999 V2000
   -3.8389   35.5052    7.6406 C   0  0  0  0  0  0  0  0  0  0  0  0
   -2.6082   35.6486    7.6762 O   0  0  0  0  0  0  0  0  0  0  0  0
   -4.5903   35.6106    6.5116 N   0  0  0  0  0  0  0  0  0  0  0  0
   -5.5470   35.3850    6.5662 H   0  0  0  0  0  0  0  0  0  0  0  0
   -4.3187   31.3605    9.4434 C   0  0  0  0  0  0  0  0  0  0  0  0
   -4.6332   32.7137    8.7330 C   0  0  0  0  0  0  0  0  0  0  0  0
   -5.0710   32.7075    7.5782 O   0  0  0  0  0  0  0  0  0  0  0  0
   -4.3533   33.8671    9.4020 N   0  0  0  0  0  0  0  0  0  0  0  0
   -3.8580   34.0449   10.8035 C   0  0  0  0  0  0  0  0  0  0  0  0
   -4.2526   35.4524   11.1930 C   0  0  0  0  0  0  0  0  0  0  0  0
   -5.6175   35.4806   11.6325 O   0  0  0  0  0  0  0  0  0  0  0  0
   -4.1238   36.2379    9.9107 C   0  0  0  0  0  0  0  0  0  0  0  0
   -4.5798   35.2547    8.8109 C   0  0  0  0  0  0  0  0  0  0  0  0
   -6.1903   35.1339   10.9307 H   0  0  0  0  0  0  0  0  0  0  0  0
   -4.0461   36.0472    5.2025 C   0  0  0  0  0  0  0  0  0  0  0  0
   -4.7613   35.4738    4.1020 C   0  0  0  0  0  0  0  0  0  0  0  0
   -5.7833   34.5079    4.2823 C   0  0  0  0  0  0  0  0  0  0  0  0
   -6.4815   33.9626    3.1926 C   0  0  0  0  0  0  0  0  0  0  0  0
   -4.4278   35.8421    2.7875 C   0  0  0  0  0  0  0  0  0  0  0  0
   -5.1113   35.2758    1.6919 C   0  0  0  0  0  0  0  0  0  0  0  0
   -6.1410   34.3218    1.8780 C   0  0  0  0  0  0  0  0  0  0  0  0
   -6.8144   33.7808    0.8386 C   0  0  0  0  0  0  0  0  0  0  0  0
   -7.2904   32.4795    0.7816 O   0  0  0  0  0  0  0  0  0  0  0  0
   -7.9067   32.3376   -0.4345 C   0  0  0  0  0  0  0  0  0  0  0  0
   -7.8021   33.5005   -1.0787 N   0  0  0  0  0  0  0  0  0  0  0  0
   -7.1434   34.3792   -0.3091 C   0  0  0  0  0  0  0  0  0  0  0  0
  5  6  1  0  0  0
  6  7  2  0  0  0
  6  8  1  0  0  0
  8  9  1  0  0  0
  8 13  1  0  0  0
  9 10  1  0  0  0
 10 11  1  0  0  0
 10 12  1  0  0  0
 12 13  1  0  0  0
 13  1  1  0  0  0
  1  2  2  0  0  0
  1  3  1  0  0  0
  3 15  1  0  0  0
 15 16  1  0  0  0
 16 17  1  0  0  0
 16 19  2  0  0  0
 17 18  2  0  0  0
 18 21  1  0  0  0
 19 20  1  0  0  0
 20 21  2  0  0  0
 21 22  1  0  0  0
 22 23  1  0  0  0
 22 26  2  0  0  0
 23 24  1  0  0  0
 24 25  2  0  0  0
 25 26  1  0  0  0
 11 14  1  0  0  0
  3  4  1  0  0  0
M  END
> <minimizedAffinity>
-6.18133

$$$$
