2POG_WST_A_201


 23 26  0  0  0  0  0  0  0  0999 V2000
   14.4512   51.1265   58.6337 C   0  0  0  0  0  0  0  0  0  0  0  0
   15.8274   51.0238   58.1714 C   0  0  0  0  0  0  0  0  0  0  0  0
   16.8307   51.5626   58.7637 O   0  0  0  0  0  0  0  0  0  0  0  0
   16.0146   50.2609   56.9660 C   0  0  0  0  0  0  0  0  0  0  0  0
   14.9492   49.6325   56.2543 C   0  0  0  0  0  0  0  0  0  0  0  0
   13.6269   49.7460   56.7290 C   0  0  0  0  0  0  0  0  0  0  0  0
   13.3790   50.4838   57.9060 C   0  0  0  0  0  0  0  0  0  0  0  0
   12.0623   50.5422   58.3024 O   0  0  0  0  0  0  0  0  0  0  0  0
   11.6625   51.7856   58.9445 C   0  0  0  0  0  0  0  0  0  0  0  0
   12.5798   52.1375   60.1709 C   0  0  0  0  0  0  0  0  0  0  0  0
   14.0996   51.9145   59.9078 C   0  0  0  0  0  0  0  0  0  0  0  0
   14.6412   51.2482   61.1947 C   0  0  0  0  0  0  0  0  0  0  0  0
   13.5876   51.5021   62.2520 C   0  0  0  0  0  0  0  0  0  0  0  0
   12.2934   51.3741   61.4767 C   0  0  0  0  0  0  0  0  0  0  0  0
   16.7008   52.0580   59.5483 H   0  0  0  0  0  0  0  0  0  0  0  0
   10.1701   51.7492   59.2951 C   0  0  0  0  0  0  0  0  0  0  0  0
    9.4498   50.5217   59.1533 C   0  0  0  0  0  0  0  0  0  0  0  0
    8.0743   50.4438   59.4722 C   0  0  0  0  0  0  0  0  0  0  0  0
    7.3206   51.5666   59.9488 C   0  0  0  0  0  0  0  0  0  0  0  0
    6.0866   51.4821   60.2342 O   0  0  0  0  0  0  0  0  0  0  0  0
    8.0672   52.7863   60.0810 C   0  0  0  0  0  0  0  0  0  0  0  0
    9.4560   52.8910   59.7676 C   0  0  0  0  0  0  0  0  0  0  0  0
    5.6372   50.6662   60.1333 H   0  0  0  0  0  0  0  0  0  0  0  0
  1 11  1  0  0  0
  1  2  2  0  0  0
  1  7  1  0  0  0
  2  3  1  0  0  0
  2  4  1  0  0  0
  4  5  2  0  0  0
  5  6  1  0  0  0
  6  7  2  0  0  0
  7  8  1  0  0  0
  8  9  1  0  0  0
  9 10  1  0  0  0
  9 16  1  0  0  0
 10 14  1  0  0  0
 10 11  1  0  0  0
 11 12  1  0  0  0
 12 13  1  0  0  0
 13 14  1  0  0  0
 16 22  2  0  0  0
 16 17  1  0  0  0
 17 18  2  0  0  0
 18 19  1  0  0  0
 19 20  1  0  0  0
 19 21  2  0  0  0
 21 22  1  0  0  0
  3 15  1  0  0  0
 20 23  1  0  0  0
M  END
> <minimizedAffinity>
-10.84540

$$$$
2POG_WST_A_201


 23 26  0  0  0  0  0  0  0  0999 V2000
   14.1890   50.0961   60.2242 C   0  0  0  0  0  0  0  0  0  0  0  0
   15.4456   49.4901   60.6390 C   0  0  0  0  0  0  0  0  0  0  0  0
   16.2305   48.8452   59.8544 O   0  0  0  0  0  0  0  0  0  0  0  0
   15.7757   49.6527   62.0299 C   0  0  0  0  0  0  0  0  0  0  0  0
   14.9544   50.3570   62.9606 C   0  0  0  0  0  0  0  0  0  0  0  0
   13.7448   50.9371   62.5281 C   0  0  0  0  0  0  0  0  0  0  0  0
   13.3652   50.8097   61.1751 C   0  0  0  0  0  0  0  0  0  0  0  0
   12.1731   51.4077   60.8353 O   0  0  0  0  0  0  0  0  0  0  0  0
   11.4070   50.7223   59.8050 C   0  0  0  0  0  0  0  0  0  0  0  0
   12.2504   50.4896   58.4997 C   0  0  0  0  0  0  0  0  0  0  0  0
   13.7055   49.9995   58.7665 C   0  0  0  0  0  0  0  0  0  0  0  0
   14.5913   50.8034   57.7855 C   0  0  0  0  0  0  0  0  0  0  0  0
   13.6385   51.3606   56.7490 C   0  0  0  0  0  0  0  0  0  0  0  0
   12.4121   51.7043   57.5678 C   0  0  0  0  0  0  0  0  0  0  0  0
   16.0087   48.7434   58.9497 H   0  0  0  0  0  0  0  0  0  0  0  0
   10.0838   51.4537   59.5487 C   0  0  0  0  0  0  0  0  0  0  0  0
   10.0739   52.8832   59.5041 C   0  0  0  0  0  0  0  0  0  0  0  0
    8.8763   53.5958   59.2639 C   0  0  0  0  0  0  0  0  0  0  0  0
    7.6140   52.9490   59.0540 C   0  0  0  0  0  0  0  0  0  0  0  0
    6.5467   53.6009   58.8364 O   0  0  0  0  0  0  0  0  0  0  0  0
    7.6517   51.5143   59.1050 C   0  0  0  0  0  0  0  0  0  0  0  0
    8.8471   50.7714   59.3440 C   0  0  0  0  0  0  0  0  0  0  0  0
    6.5666   54.5373   58.8113 H   0  0  0  0  0  0  0  0  0  0  0  0
  1 11  1  0  0  0
  1  2  2  0  0  0
  1  7  1  0  0  0
  2  3  1  0  0  0
  2  4  1  0  0  0
  4  5  2  0  0  0
  5  6  1  0  0  0
  6  7  2  0  0  0
  7  8  1  0  0  0
  8  9  1  0  0  0
  9 10  1  0  0  0
  9 16  1  0  0  0
 10 14  1  0  0  0
 10 11  1  0  0  0
 11 12  1  0  0  0
 12 13  1  0  0  0
 13 14  1  0  0  0
 16 22  2  0  0  0
 16 17  1  0  0  0
 17 18  2  0  0  0
 18 19  1  0  0  0
 19 20  1  0  0  0
 19 21  2  0  0  0
 21 22  1  0  0  0
  3 15  1  0  0  0
 20 23  1  0  0  0
M  END
> <minimizedAffinity>
-8.78018

$$$$
2POG_WST_A_201


 23 26  0  0  0  0  0  0  0  0999 V2000
   14.2139   50.9991   59.3507 C   0  0  0  0  0  0  0  0  0  0  0  0
   15.6200   50.7844   59.0422 C   0  0  0  0  0  0  0  0  0  0  0  0
   16.5347   51.6738   59.1833 O   0  0  0  0  0  0  0  0  0  0  0  0
   15.9464   49.4736   58.5469 C   0  0  0  0  0  0  0  0  0  0  0  0
   14.9849   48.4347   58.3654 C   0  0  0  0  0  0  0  0  0  0  0  0
   13.6309   48.6713   58.6771 C   0  0  0  0  0  0  0  0  0  0  0  0
   13.2481   49.9387   59.1653 C   0  0  0  0  0  0  0  0  0  0  0  0
   11.9091   50.0849   59.4483 O   0  0  0  0  0  0  0  0  0  0  0  0
   11.3652   51.4128   59.2047 C   0  0  0  0  0  0  0  0  0  0  0  0
   12.1710   52.5283   59.9634 C   0  0  0  0  0  0  0  0  0  0  0  0
   13.7178   52.3540   59.8858 C   0  0  0  0  0  0  0  0  0  0  0  0
   14.2333   52.6618   61.3115 C   0  0  0  0  0  0  0  0  0  0  0  0
   13.0982   53.3895   62.0003 C   0  0  0  0  0  0  0  0  0  0  0  0
   11.8703   52.6833   61.4653 C   0  0  0  0  0  0  0  0  0  0  0  0
   16.3145   52.5253   59.5064 H   0  0  0  0  0  0  0  0  0  0  0  0
    9.8625   51.4379   59.5093 C   0  0  0  0  0  0  0  0  0  0  0  0
    9.3881   52.2065   60.6183 C   0  0  0  0  0  0  0  0  0  0  0  0
    8.0097   52.2616   60.9293 C   0  0  0  0  0  0  0  0  0  0  0  0
    7.0119   51.5645   60.1715 C   0  0  0  0  0  0  0  0  0  0  0  0
    5.7772   51.6249   60.4599 O   0  0  0  0  0  0  0  0  0  0  0  0
    7.5150   50.7999   59.0648 C   0  0  0  0  0  0  0  0  0  0  0  0
    8.9007   50.7291   58.7288 C   0  0  0  0  0  0  0  0  0  0  0  0
    5.4914   52.1361   61.1913 H   0  0  0  0  0  0  0  0  0  0  0  0
  1 11  1  0  0  0
  1  2  2  0  0  0
  1  7  1  0  0  0
  2  3  1  0  0  0
  2  4  1  0  0  0
  4  5  2  0  0  0
  5  6  1  0  0  0
  6  7  2  0  0  0
  7  8  1  0  0  0
  8  9  1  0  0  0
  9 10  1  0  0  0
  9 16  1  0  0  0
 10 14  1  0  0  0
 10 11  1  0  0  0
 11 12  1  0  0  0
 12 13  1  0  0  0
 13 14  1  0  0  0
 16 22  2  0  0  0
 16 17  1  0  0  0
 17 18  2  0  0  0
 18 19  1  0  0  0
 19 20  1  0  0  0
 19 21  2  0  0  0
 21 22  1  0  0  0
  3 15  1  0  0  0
 20 23  1  0  0  0
M  END
> <minimizedAffinity>
-8.12936

$$$$
2POG_WST_A_201


 23 26  0  0  0  0  0  0  0  0999 V2000
   14.2437   50.9851   58.7543 C   0  0  0  0  0  0  0  0  0  0  0  0
   15.6123   50.7401   58.3242 C   0  0  0  0  0  0  0  0  0  0  0  0
   16.5031   51.6549   58.1926 O   0  0  0  0  0  0  0  0  0  0  0  0
   15.9291   49.3661   58.0381 C   0  0  0  0  0  0  0  0  0  0  0  0
   14.9931   48.2961   58.1628 C   0  0  0  0  0  0  0  0  0  0  0  0
   13.6755   48.5640   58.5859 C   0  0  0  0  0  0  0  0  0  0  0  0
   13.3035   49.8931   58.8796 C   0  0  0  0  0  0  0  0  0  0  0  0
   12.0011   50.0672   59.2890 O   0  0  0  0  0  0  0  0  0  0  0  0
   11.3834   51.3188   58.8766 C   0  0  0  0  0  0  0  0  0  0  0  0
   12.2280   52.5675   59.3202 C   0  0  0  0  0  0  0  0  0  0  0  0
   13.7612   52.4069   59.0915 C   0  0  0  0  0  0  0  0  0  0  0  0
   14.4243   52.9794   60.3666 C   0  0  0  0  0  0  0  0  0  0  0  0
   13.3487   53.8027   61.0432 C   0  0  0  0  0  0  0  0  0  0  0  0
   12.0952   52.9906   60.7944 C   0  0  0  0  0  0  0  0  0  0  0  0
   16.2893   52.5476   58.3808 H   0  0  0  0  0  0  0  0  0  0  0  0
    9.9254   51.3751   59.3486 C   0  0  0  0  0  0  0  0  0  0  0  0
    8.9916   50.4154   58.8459 C   0  0  0  0  0  0  0  0  0  0  0  0
    7.6399   50.4285   59.2606 C   0  0  0  0  0  0  0  0  0  0  0  0
    7.1208   51.3855   60.1937 C   0  0  0  0  0  0  0  0  0  0  0  0
    5.9054   51.3843   60.5598 O   0  0  0  0  0  0  0  0  0  0  0  0
    8.0785   52.3379   60.6818 C   0  0  0  0  0  0  0  0  0  0  0  0
    9.4485   52.3452   60.2805 C   0  0  0  0  0  0  0  0  0  0  0  0
    5.3133   50.7444   60.2164 H   0  0  0  0  0  0  0  0  0  0  0  0
  1 11  1  0  0  0
  1  2  2  0  0  0
  1  7  1  0  0  0
  2  3  1  0  0  0
  2  4  1  0  0  0
  4  5  2  0  0  0
  5  6  1  0  0  0
  6  7  2  0  0  0
  7  8  1  0  0  0
  8  9  1  0  0  0
  9 10  1  0  0  0
  9 16  1  0  0  0
 10 14  1  0  0  0
 10 11  1  0  0  0
 11 12  1  0  0  0
 12 13  1  0  0  0
 13 14  1  0  0  0
 16 22  2  0  0  0
 16 17  1  0  0  0
 17 18  2  0  0  0
 18 19  1  0  0  0
 19 20  1  0  0  0
 19 21  2  0  0  0
 21 22  1  0  0  0
  3 15  1  0  0  0
 20 23  1  0  0  0
M  END
> <minimizedAffinity>
-7.89289

$$$$
