3VHC_VHC_A_1


 32 35  0  0  0  0  0  0  0  0999 V2000
   10.4103   -3.2233   14.6992 C   0  0  0  0  0  0  0  0  0  0  0  0
   10.1612   -1.7368   14.3811 C   0  0  0  0  0  0  0  0  0  0  0  0
    9.2473   -1.4523   13.3681 C   0  0  0  0  0  0  0  0  0  0  0  0
    8.9753   -0.1252   12.9929 C   0  0  0  0  0  0  0  0  0  0  0  0
    7.9643    0.1121   11.8651 C   0  0  0  0  0  0  0  0  0  0  0  0
    9.6637    0.9281   13.6173 C   0  0  0  0  0  0  0  0  0  0  0  0
   10.5959    0.6341   14.6303 C   0  0  0  0  0  0  0  0  0  0  0  0
   10.8422   -0.6960   15.0416 C   0  0  0  0  0  0  0  0  0  0  0  0
   11.8051   -0.9244   16.2107 C   0  0  0  0  0  0  0  0  0  0  0  0
   11.5265   -1.7387   17.1089 O   0  0  0  0  0  0  0  0  0  0  0  0
   12.8410   -0.0950   16.2510 N   0  0  0  0  0  0  0  0  0  0  0  0
   13.8793   -0.1452   17.3068 C   0  0  0  0  0  0  0  0  0  0  0  0
   14.3870    1.2467   17.7157 C   0  0  0  0  0  0  0  0  0  0  0  0
   15.1802    1.9220   16.5839 C   0  0  0  0  0  0  0  0  0  0  0  0
   14.1049    2.4290   15.7767 O   0  0  0  0  0  0  0  0  0  0  0  0
   14.3371    3.1590   14.6556 C   0  0  0  0  0  0  0  0  0  0  0  0
   13.2211    3.8243   14.1549 C   0  0  0  0  0  0  0  0  0  0  0  0
   15.5519    3.2141   13.9472 C   0  0  0  0  0  0  0  0  0  0  0  0
   15.6046    3.9447   12.7625 C   0  0  0  0  0  0  0  0  0  0  0  0
   14.5024    4.6503   12.2883 C   0  0  0  0  0  0  0  0  0  0  0  0
   13.2873    4.5396   12.9677 C   0  0  0  0  0  0  0  0  0  0  0  0
   11.8864    5.4472   12.3453 S   0  0  0  0  0  0  0  0  0  0  0  0
   10.5324    4.3858   12.7059 C   0  0  0  0  0  0  0  0  0  0  0  0
    9.3418    4.9851   12.7512 N   0  0  0  0  0  0  0  0  0  0  0  0
   10.6652    3.0039   12.8997 C   0  0  0  0  0  0  0  0  0  0  0  0
    9.5298    2.2890   13.2750 C   0  0  0  0  0  0  0  0  0  0  0  0
    8.3439    2.9291   13.3489 N   0  0  0  0  0  0  0  0  0  0  0  0
    8.2355    4.2552   13.0686 C   0  0  0  0  0  0  0  0  0  0  0  0
    7.0198    4.8224   13.0811 N   0  0  0  0  0  0  0  0  0  0  0  0
   12.9232    0.5864   15.5452 H   0  0  0  0  0  0  0  0  0  0  0  0
    6.9218    5.7812   12.8807 H   0  0  0  0  0  0  0  0  0  0  0  0
    6.2255    4.2797   13.2908 H   0  0  0  0  0  0  0  0  0  0  0  0
  1  2  1  0  0  0
  2  3  2  0  0  0
  2  8  1  0  0  0
  3  4  1  0  0  0
  4  5  1  0  0  0
  4  6  2  0  0  0
  6  7  1  0  0  0
  6 26  1  0  0  0
  7  8  2  0  0  0
  8  9  1  0  0  0
  9 10  2  0  0  0
  9 11  1  0  0  0
 11 12  1  0  0  0
 12 13  1  0  0  0
 13 14  1  0  0  0
 14 15  1  0  0  0
 15 16  1  0  0  0
 16 17  2  0  0  0
 16 18  1  0  0  0
 17 21  1  0  0  0
 18 19  2  0  0  0
 19 20  1  0  0  0
 20 21  2  0  0  0
 21 22  1  0  0  0
 22 23  1  0  0  0
 23 24  2  0  0  0
 23 25  1  0  0  0
 24 28  1  0  0  0
 25 26  2  0  0  0
 26 27  1  0  0  0
 27 28  2  0  0  0
 28 29  1  0  0  0
 11 30  1  0  0  0
 29 31  1  0  0  0
 29 32  1  0  0  0
M  END
> <minimizedAffinity>
-11.68076

$$$$
3VHC_VHC_A_1


 32 35  0  0  0  0  0  0  0  0999 V2000
   12.9378    5.6599   13.3347 C   0  0  0  0  0  0  0  0  0  0  0  0
   12.5810    4.8010   14.5627 C   0  0  0  0  0  0  0  0  0  0  0  0
   13.4760    4.8236   15.6308 C   0  0  0  0  0  0  0  0  0  0  0  0
   13.2449    4.0521   16.7829 C   0  0  0  0  0  0  0  0  0  0  0  0
   14.2765    4.1206   17.9149 C   0  0  0  0  0  0  0  0  0  0  0  0
   12.1191    3.2143   16.8435 C   0  0  0  0  0  0  0  0  0  0  0  0
   11.2256    3.1850   15.7560 C   0  0  0  0  0  0  0  0  0  0  0  0
   11.4301    3.9910   14.6124 C   0  0  0  0  0  0  0  0  0  0  0  0
   10.3651    3.9672   13.5117 C   0  0  0  0  0  0  0  0  0  0  0  0
    9.9838    5.0244   12.9785 O   0  0  0  0  0  0  0  0  0  0  0  0
    9.8041    2.7822   13.3033 N   0  0  0  0  0  0  0  0  0  0  0  0
    8.7473    2.5522   12.2906 C   0  0  0  0  0  0  0  0  0  0  0  0
    7.6839    1.5428   12.7516 C   0  0  0  0  0  0  0  0  0  0  0  0
    8.2590    0.1214   12.8742 C   0  0  0  0  0  0  0  0  0  0  0  0
    8.8957    0.2064   14.1596 O   0  0  0  0  0  0  0  0  0  0  0  0
    9.5180   -0.8625   14.7198 C   0  0  0  0  0  0  0  0  0  0  0  0
    9.8193   -0.7160   16.0713 C   0  0  0  0  0  0  0  0  0  0  0  0
    9.9402   -2.0188   14.0375 C   0  0  0  0  0  0  0  0  0  0  0  0
   10.6442   -2.9930   14.7414 C   0  0  0  0  0  0  0  0  0  0  0  0
   10.9019   -2.8689   16.1036 C   0  0  0  0  0  0  0  0  0  0  0  0
   10.5305   -1.6912   16.7558 C   0  0  0  0  0  0  0  0  0  0  0  0
   10.8704   -1.5482   18.4988 S   0  0  0  0  0  0  0  0  0  0  0  0
   11.2300    0.1612   18.6952 C   0  0  0  0  0  0  0  0  0  0  0  0
   11.0916    0.6281   19.9368 N   0  0  0  0  0  0  0  0  0  0  0  0
   11.6656    0.9838   17.6471 C   0  0  0  0  0  0  0  0  0  0  0  0
   11.8237    2.3426   17.9111 C   0  0  0  0  0  0  0  0  0  0  0  0
   11.6409    2.7938   19.1699 N   0  0  0  0  0  0  0  0  0  0  0  0
   11.3030    1.9518   20.1826 C   0  0  0  0  0  0  0  0  0  0  0  0
   11.2116    2.4413   21.4284 N   0  0  0  0  0  0  0  0  0  0  0  0
   10.1047    2.0192   13.8480 H   0  0  0  0  0  0  0  0  0  0  0  0
   10.9682    1.8467   22.1743 H   0  0  0  0  0  0  0  0  0  0  0  0
   11.3880    3.3952   21.5967 H   0  0  0  0  0  0  0  0  0  0  0  0
  1  2  1  0  0  0
  2  3  2  0  0  0
  2  8  1  0  0  0
  3  4  1  0  0  0
  4  5  1  0  0  0
  4  6  2  0  0  0
  6  7  1  0  0  0
  6 26  1  0  0  0
  7  8  2  0  0  0
  8  9  1  0  0  0
  9 10  2  0  0  0
  9 11  1  0  0  0
 11 12  1  0  0  0
 12 13  1  0  0  0
 13 14  1  0  0  0
 14 15  1  0  0  0
 15 16  1  0  0  0
 16 17  2  0  0  0
 16 18  1  0  0  0
 17 21  1  0  0  0
 18 19  2  0  0  0
 19 20  1  0  0  0
 20 21  2  0  0  0
 21 22  1  0  0  0
 22 23  1  0  0  0
 23 24  2  0  0  0
 23 25  1  0  0  0
 24 28  1  0  0  0
 25 26  2  0  0  0
 26 27  1  0  0  0
 27 28  2  0  0  0
 28 29  1  0  0  0
 11 30  1  0  0  0
 29 31  1  0  0  0
 29 32  1  0  0  0
M  END
> <minimizedAffinity>
-8.93626

$$$$
3VHC_VHC_A_1


 32 35  0  0  0  0  0  0  0  0999 V2000
   13.0000   -0.3279   19.1310 C   0  0  0  0  0  0  0  0  0  0  0  0
   13.3898    0.5234   17.9078 C   0  0  0  0  0  0  0  0  0  0  0  0
   14.3743    1.4911   18.0996 C   0  0  0  0  0  0  0  0  0  0  0  0
   14.7763    2.3308   17.0464 C   0  0  0  0  0  0  0  0  0  0  0  0
   15.8592    3.3776   17.3325 C   0  0  0  0  0  0  0  0  0  0  0  0
   14.1490    2.2232   15.7942 C   0  0  0  0  0  0  0  0  0  0  0  0
   13.1455    1.2533   15.6100 C   0  0  0  0  0  0  0  0  0  0  0  0
   12.7670    0.3772   16.6532 C   0  0  0  0  0  0  0  0  0  0  0  0
   11.7306   -0.7079   16.3455 C   0  0  0  0  0  0  0  0  0  0  0  0
   11.8937   -1.8714   16.7540 O   0  0  0  0  0  0  0  0  0  0  0  0
   10.7680   -0.3393   15.5088 N   0  0  0  0  0  0  0  0  0  0  0  0
    9.6774   -1.2449   15.0779 C   0  0  0  0  0  0  0  0  0  0  0  0
    9.2695   -1.0373   13.6107 C   0  0  0  0  0  0  0  0  0  0  0  0
    8.5942    0.3274   13.3919 C   0  0  0  0  0  0  0  0  0  0  0  0
    9.7479    1.1801   13.3079 O   0  0  0  0  0  0  0  0  0  0  0  0
    9.6351    2.5116   13.0672 C   0  0  0  0  0  0  0  0  0  0  0  0
   10.8271    3.1415   12.7195 C   0  0  0  0  0  0  0  0  0  0  0  0
    8.4665    3.2797   13.2256 C   0  0  0  0  0  0  0  0  0  0  0  0
    8.5355    4.6556   13.0199 C   0  0  0  0  0  0  0  0  0  0  0  0
    9.7159    5.2779   12.6239 C   0  0  0  0  0  0  0  0  0  0  0  0
   10.8816    4.5147   12.5281 C   0  0  0  0  0  0  0  0  0  0  0  0
   12.3839    5.3280   12.0226 S   0  0  0  0  0  0  0  0  0  0  0  0
   13.6232    4.4759   12.9324 C   0  0  0  0  0  0  0  0  0  0  0  0
   14.8566    4.5731   12.4341 N   0  0  0  0  0  0  0  0  0  0  0  0
   13.3643    3.7701   14.1155 C   0  0  0  0  0  0  0  0  0  0  0  0
   14.4148    3.0568   14.6890 C   0  0  0  0  0  0  0  0  0  0  0  0
   15.6454    3.1441   14.1418 N   0  0  0  0  0  0  0  0  0  0  0  0
   15.8796    3.9094   13.0425 C   0  0  0  0  0  0  0  0  0  0  0  0
   17.1369    4.0222   12.5881 N   0  0  0  0  0  0  0  0  0  0  0  0
   10.7794    0.5804   15.1576 H   0  0  0  0  0  0  0  0  0  0  0  0
   17.3256    4.5720   11.7935 H   0  0  0  0  0  0  0  0  0  0  0  0
   17.8707    3.5552   13.0492 H   0  0  0  0  0  0  0  0  0  0  0  0
  1  2  1  0  0  0
  2  3  2  0  0  0
  2  8  1  0  0  0
  3  4  1  0  0  0
  4  5  1  0  0  0
  4  6  2  0  0  0
  6  7  1  0  0  0
  6 26  1  0  0  0
  7  8  2  0  0  0
  8  9  1  0  0  0
  9 10  2  0  0  0
  9 11  1  0  0  0
 11 12  1  0  0  0
 12 13  1  0  0  0
 13 14  1  0  0  0
 14 15  1  0  0  0
 15 16  1  0  0  0
 16 17  2  0  0  0
 16 18  1  0  0  0
 17 21  1  0  0  0
 18 19  2  0  0  0
 19 20  1  0  0  0
 20 21  2  0  0  0
 21 22  1  0  0  0
 22 23  1  0  0  0
 23 24  2  0  0  0
 23 25  1  0  0  0
 24 28  1  0  0  0
 25 26  2  0  0  0
 26 27  1  0  0  0
 27 28  2  0  0  0
 28 29  1  0  0  0
 11 30  1  0  0  0
 29 31  1  0  0  0
 29 32  1  0  0  0
M  END
> <minimizedAffinity>
-8.90987

$$$$
3VHC_VHC_A_1


 32 35  0  0  0  0  0  0  0  0999 V2000
    9.3902    5.0727   12.9931 C   0  0  0  0  0  0  0  0  0  0  0  0
    9.6079    3.6348   13.5008 C   0  0  0  0  0  0  0  0  0  0  0  0
    8.7112    2.6652   13.0554 C   0  0  0  0  0  0  0  0  0  0  0  0
    8.8176    1.3313   13.4856 C   0  0  0  0  0  0  0  0  0  0  0  0
    7.7914    0.3206   12.9603 C   0  0  0  0  0  0  0  0  0  0  0  0
    9.8145    0.9769   14.4096 C   0  0  0  0  0  0  0  0  0  0  0  0
   10.7089    1.9632   14.8668 C   0  0  0  0  0  0  0  0  0  0  0  0
   10.6336    3.2973   14.4049 C   0  0  0  0  0  0  0  0  0  0  0  0
   11.6987    4.2889   14.8830 C   0  0  0  0  0  0  0  0  0  0  0  0
   12.2307    5.0792   14.0832 O   0  0  0  0  0  0  0  0  0  0  0  0
   12.0913    4.1232   16.1404 N   0  0  0  0  0  0  0  0  0  0  0  0
   13.1184    4.9725   16.7877 C   0  0  0  0  0  0  0  0  0  0  0  0
   14.0243    4.1893   17.7511 C   0  0  0  0  0  0  0  0  0  0  0  0
   13.2547    3.6990   18.9895 C   0  0  0  0  0  0  0  0  0  0  0  0
   12.6199    2.5256   18.4558 O   0  0  0  0  0  0  0  0  0  0  0  0
   11.8473    1.7187   19.2276 C   0  0  0  0  0  0  0  0  0  0  0  0
   11.5522    0.4819   18.6602 C   0  0  0  0  0  0  0  0  0  0  0  0
   11.2764    2.0664   20.4661 C   0  0  0  0  0  0  0  0  0  0  0  0
   10.4343    1.1531   21.0961 C   0  0  0  0  0  0  0  0  0  0  0  0
   10.1791   -0.1026   20.5525 C   0  0  0  0  0  0  0  0  0  0  0  0
   10.7031   -0.4128   19.2957 C   0  0  0  0  0  0  0  0  0  0  0  0
   10.3643   -2.0234   18.6139 S   0  0  0  0  0  0  0  0  0  0  0  0
   10.2447   -1.7082   16.8888 C   0  0  0  0  0  0  0  0  0  0  0  0
   10.4311   -2.7720   16.1062 N   0  0  0  0  0  0  0  0  0  0  0  0
    9.9416   -0.4487   16.3534 C   0  0  0  0  0  0  0  0  0  0  0  0
    9.9716   -0.3080   14.9676 C   0  0  0  0  0  0  0  0  0  0  0  0
   10.1996   -1.3950   14.2008 N   0  0  0  0  0  0  0  0  0  0  0  0
   10.4035   -2.6211   14.7520 C   0  0  0  0  0  0  0  0  0  0  0  0
   10.5466   -3.6801   13.9408 N   0  0  0  0  0  0  0  0  0  0  0  0
   11.6801    3.4011   16.6682 H   0  0  0  0  0  0  0  0  0  0  0  0
   10.6950   -4.5756   14.3218 H   0  0  0  0  0  0  0  0  0  0  0  0
   10.5031   -3.5616   12.9644 H   0  0  0  0  0  0  0  0  0  0  0  0
  1  2  1  0  0  0
  2  3  2  0  0  0
  2  8  1  0  0  0
  3  4  1  0  0  0
  4  5  1  0  0  0
  4  6  2  0  0  0
  6  7  1  0  0  0
  6 26  1  0  0  0
  7  8  2  0  0  0
  8  9  1  0  0  0
  9 10  2  0  0  0
  9 11  1  0  0  0
 11 12  1  0  0  0
 12 13  1  0  0  0
 13 14  1  0  0  0
 14 15  1  0  0  0
 15 16  1  0  0  0
 16 17  2  0  0  0
 16 18  1  0  0  0
 17 21  1  0  0  0
 18 19  2  0  0  0
 19 20  1  0  0  0
 20 21  2  0  0  0
 21 22  1  0  0  0
 22 23  1  0  0  0
 23 24  2  0  0  0
 23 25  1  0  0  0
 24 28  1  0  0  0
 25 26  2  0  0  0
 26 27  1  0  0  0
 27 28  2  0  0  0
 28 29  1  0  0  0
 11 30  1  0  0  0
 29 31  1  0  0  0
 29 32  1  0  0  0
M  END
> <minimizedAffinity>
-8.86287

$$$$
3VHC_VHC_A_1


 32 35  0  0  0  0  0  0  0  0999 V2000
   10.5749   -3.3797   16.5868 C   0  0  0  0  0  0  0  0  0  0  0  0
   10.6405   -1.8895   16.2021 C   0  0  0  0  0  0  0  0  0  0  0  0
   10.9374   -1.5929   14.8731 C   0  0  0  0  0  0  0  0  0  0  0  0
   11.0422   -0.2608   14.4367 C   0  0  0  0  0  0  0  0  0  0  0  0
   11.3793   -0.0099   12.9623 C   0  0  0  0  0  0  0  0  0  0  0  0
   10.8874    0.7867   15.3597 C   0  0  0  0  0  0  0  0  0  0  0  0
   10.6013    0.4810   16.7037 C   0  0  0  0  0  0  0  0  0  0  0  0
   10.4523   -0.8557   17.1397 C   0  0  0  0  0  0  0  0  0  0  0  0
   10.0535   -1.1000   18.5983 C   0  0  0  0  0  0  0  0  0  0  0  0
    9.1870   -1.9456   18.8833 O   0  0  0  0  0  0  0  0  0  0  0  0
   10.5840   -0.2522   19.4715 N   0  0  0  0  0  0  0  0  0  0  0  0
   10.3149   -0.3135   20.9272 C   0  0  0  0  0  0  0  0  0  0  0  0
   10.2213    1.0753   21.5791 C   0  0  0  0  0  0  0  0  0  0  0  0
   11.5786    1.7990   21.5821 C   0  0  0  0  0  0  0  0  0  0  0  0
   11.6067    2.3087   20.2389 O   0  0  0  0  0  0  0  0  0  0  0  0
   12.6323    3.0759   19.7880 C   0  0  0  0  0  0  0  0  0  0  0  0
   12.3804    3.7340   18.5872 C   0  0  0  0  0  0  0  0  0  0  0  0
   13.9059    3.1754   20.3784 C   0  0  0  0  0  0  0  0  0  0  0  0
   14.8809    3.9417   19.7440 C   0  0  0  0  0  0  0  0  0  0  0  0
   14.6138    4.6396   18.5697 C   0  0  0  0  0  0  0  0  0  0  0  0
   13.3657    4.4853   17.9624 C   0  0  0  0  0  0  0  0  0  0  0  0
   13.0418    5.3837   16.4585 S   0  0  0  0  0  0  0  0  0  0  0  0
   12.0091    4.2861   15.5538 C   0  0  0  0  0  0  0  0  0  0  0  0
   11.2694    4.8606   14.6042 N   0  0  0  0  0  0  0  0  0  0  0  0
   11.9751    2.9019   15.7721 C   0  0  0  0  0  0  0  0  0  0  0  0
   11.0431    2.1543   15.0554 C   0  0  0  0  0  0  0  0  0  0  0  0
   10.2813    2.7688   14.1262 N   0  0  0  0  0  0  0  0  0  0  0  0
   10.4021    4.1003   13.8782 C   0  0  0  0  0  0  0  0  0  0  0  0
    9.6760    4.6432   12.8893 N   0  0  0  0  0  0  0  0  0  0  0  0
   11.1852    0.4512   19.1355 H   0  0  0  0  0  0  0  0  0  0  0  0
    9.7503    5.6055   12.6952 H   0  0  0  0  0  0  0  0  0  0  0  0
    9.0689    4.0793   12.3576 H   0  0  0  0  0  0  0  0  0  0  0  0
  1  2  1  0  0  0
  2  3  2  0  0  0
  2  8  1  0  0  0
  3  4  1  0  0  0
  4  5  1  0  0  0
  4  6  2  0  0  0
  6  7  1  0  0  0
  6 26  1  0  0  0
  7  8  2  0  0  0
  8  9  1  0  0  0
  9 10  2  0  0  0
  9 11  1  0  0  0
 11 12  1  0  0  0
 12 13  1  0  0  0
 13 14  1  0  0  0
 14 15  1  0  0  0
 15 16  1  0  0  0
 16 17  2  0  0  0
 16 18  1  0  0  0
 17 21  1  0  0  0
 18 19  2  0  0  0
 19 20  1  0  0  0
 20 21  2  0  0  0
 21 22  1  0  0  0
 22 23  1  0  0  0
 23 24  2  0  0  0
 23 25  1  0  0  0
 24 28  1  0  0  0
 25 26  2  0  0  0
 26 27  1  0  0  0
 27 28  2  0  0  0
 28 29  1  0  0  0
 11 30  1  0  0  0
 29 31  1  0  0  0
 29 32  1  0  0  0
M  END
> <minimizedAffinity>
-8.74906

$$$$
