5F8Y_X6X_A_201


 18 18  0  0  0  0  0  0  0  0999 V2000
   44.7885   -1.8888   12.7248 O   0  0  0  0  0  0  0  0  0  0  0  0
   45.4683   -2.8943   11.9847 C   0  0  0  0  0  0  0  0  0  0  0  0
   46.4717   -3.6229   12.8871 C   0  0  0  0  0  0  0  0  0  0  0  0
   45.8872   -4.1205   14.0505 O   0  0  0  0  0  0  0  0  0  0  0  0
   47.5649   -2.6540   13.2895 C   0  0  0  0  0  0  0  0  0  0  0  0
   48.6391   -3.3270   14.0626 N   0  0  0  0  0  0  0  0  0  0  0  0
   48.2050   -1.9982   12.0858 C   0  0  0  0  0  0  0  0  0  0  0  0
   48.9089   -3.0001   11.3348 O   0  0  0  0  0  0  0  0  0  0  0  0
   47.2257   -1.3623   11.2301 O   0  0  0  0  0  0  0  0  0  0  0  0
   46.2008   -2.2809   10.7762 C   0  0  0  0  0  0  0  0  0  0  0  0
   44.3345   -2.2945   13.4800 H   0  0  0  0  0  0  0  0  0  0  0  0
   45.5313   -3.3852   14.5735 H   0  0  0  0  0  0  0  0  0  0  0  0
   49.0892   -4.0309   13.4775 H   0  0  0  0  0  0  0  0  0  0  0  0
   48.2360   -3.7757   14.8851 H   0  0  0  0  0  0  0  0  0  0  0  0
   48.2826   -3.6751   11.0298 H   0  0  0  0  0  0  0  0  0  0  0  0
   45.2304   -1.5148    9.9324 C   0  0  0  0  0  0  0  0  0  0  0  0
   45.2029   -0.1287   10.3796 O   0  0  0  0  0  0  0  0  0  0  0  0
   46.0891    0.2562   10.2943 H   0  0  0  0  0  0  0  0  0  0  0  0
  4  3  1  0  0  0
  3  2  1  0  0  0
  3  5  1  0  0  0
  2  1  1  0  0  0
  2 10  1  0  0  0
  6  5  1  0  0  0
 17 16  1  0  0  0
 10 16  1  0  0  0
 10  9  1  0  0  0
  5  7  1  0  0  0
  8  7  1  0  0  0
  7  9  1  0  0  0
  1 11  1  0  0  0
  4 12  1  0  0  0
  6 13  1  0  0  0
  6 14  1  0  0  0
  8 15  1  0  0  0
 17 18  1  0  0  0
M  END
> <minimizedAffinity>
-5.57806

$$$$
5F8Y_X6X_A_201


 18 18  0  0  0  0  0  0  0  0999 V2000
   47.1992   -2.6952    9.3720 O   0  0  0  0  0  0  0  0  0  0  0  0
   47.1673   -1.8419   10.5085 C   0  0  0  0  0  0  0  0  0  0  0  0
   47.8887   -2.5086   11.6864 C   0  0  0  0  0  0  0  0  0  0  0  0
   49.1809   -2.9192   11.3638 O   0  0  0  0  0  0  0  0  0  0  0  0
   47.1026   -3.7304   12.1164 C   0  0  0  0  0  0  0  0  0  0  0  0
   47.6779   -4.3538   13.3350 N   0  0  0  0  0  0  0  0  0  0  0  0
   45.6572   -3.3936   12.4096 C   0  0  0  0  0  0  0  0  0  0  0  0
   45.6074   -2.5426   13.5658 O   0  0  0  0  0  0  0  0  0  0  0  0
   45.0204   -2.7220   11.2965 O   0  0  0  0  0  0  0  0  0  0  0  0
   45.7151   -1.5125   10.9030 C   0  0  0  0  0  0  0  0  0  0  0  0
   48.1206   -2.8905    9.1401 H   0  0  0  0  0  0  0  0  0  0  0  0
   49.1426   -3.5807   10.6554 H   0  0  0  0  0  0  0  0  0  0  0  0
   47.6217   -3.6958   14.1124 H   0  0  0  0  0  0  0  0  0  0  0  0
   48.6540   -4.5960   13.1645 H   0  0  0  0  0  0  0  0  0  0  0  0
   46.0914   -1.7219   13.3843 H   0  0  0  0  0  0  0  0  0  0  0  0
   44.9943   -0.9226    9.7313 C   0  0  0  0  0  0  0  0  0  0  0  0
   45.9628   -0.2849    8.8495 O   0  0  0  0  0  0  0  0  0  0  0  0
   46.6046   -0.9446    8.5433 H   0  0  0  0  0  0  0  0  0  0  0  0
  4  3  1  0  0  0
  3  2  1  0  0  0
  3  5  1  0  0  0
  2  1  1  0  0  0
  2 10  1  0  0  0
  6  5  1  0  0  0
 17 16  1  0  0  0
 10 16  1  0  0  0
 10  9  1  0  0  0
  5  7  1  0  0  0
  8  7  1  0  0  0
  7  9  1  0  0  0
  1 11  1  0  0  0
  4 12  1  0  0  0
  6 13  1  0  0  0
  6 14  1  0  0  0
  8 15  1  0  0  0
 17 18  1  0  0  0
M  END
> <minimizedAffinity>
-5.52017

$$$$
5F8Y_X6X_A_201


 18 18  0  0  0  0  0  0  0  0999 V2000
   45.4730   -4.2742   12.2327 O   0  0  0  0  0  0  0  0  0  0  0  0
   46.3996   -3.2770   12.6422 C   0  0  0  0  0  0  0  0  0  0  0  0
   45.9226   -1.8948   12.1793 C   0  0  0  0  0  0  0  0  0  0  0  0
   44.6197   -1.6110   12.5850 O   0  0  0  0  0  0  0  0  0  0  0  0
   45.9639   -1.8419   10.6657 C   0  0  0  0  0  0  0  0  0  0  0  0
   45.6339   -0.4880   10.1534 N   0  0  0  0  0  0  0  0  0  0  0  0
   47.3266   -2.2187   10.1276 C   0  0  0  0  0  0  0  0  0  0  0  0
   48.2724   -1.2117   10.5211 O   0  0  0  0  0  0  0  0  0  0  0  0
   47.7681   -3.5056   10.6223 O   0  0  0  0  0  0  0  0  0  0  0  0
   47.8004   -3.5658   12.0700 C   0  0  0  0  0  0  0  0  0  0  0  0
   44.5988   -4.0747   12.6027 H   0  0  0  0  0  0  0  0  0  0  0  0
   44.0112   -2.2568   12.1933 H   0  0  0  0  0  0  0  0  0  0  0  0
   46.3353    0.1782   10.4769 H   0  0  0  0  0  0  0  0  0  0  0  0
   44.7153   -0.2087   10.4979 H   0  0  0  0  0  0  0  0  0  0  0  0
   48.3165   -1.1702   11.4892 H   0  0  0  0  0  0  0  0  0  0  0  0
   48.2356   -4.9414   12.4685 C   0  0  0  0  0  0  0  0  0  0  0  0
   47.6642   -5.9080   11.5405 O   0  0  0  0  0  0  0  0  0  0  0  0
   47.9708   -5.7132   10.6412 H   0  0  0  0  0  0  0  0  0  0  0  0
  4  3  1  0  0  0
  3  2  1  0  0  0
  3  5  1  0  0  0
  2  1  1  0  0  0
  2 10  1  0  0  0
  6  5  1  0  0  0
 17 16  1  0  0  0
 10 16  1  0  0  0
 10  9  1  0  0  0
  5  7  1  0  0  0
  8  7  1  0  0  0
  7  9  1  0  0  0
  1 11  1  0  0  0
  4 12  1  0  0  0
  6 13  1  0  0  0
  6 14  1  0  0  0
  8 15  1  0  0  0
 17 18  1  0  0  0
M  END
> <minimizedAffinity>
-5.36424

$$$$
5F8Y_X6X_A_201


 18 18  0  0  0  0  0  0  0  0999 V2000
   45.0521   -3.5958   12.3711 O   0  0  0  0  0  0  0  0  0  0  0  0
   45.9637   -2.5719   12.7469 C   0  0  0  0  0  0  0  0  0  0  0  0
   46.0527   -1.5151   11.6390 C   0  0  0  0  0  0  0  0  0  0  0  0
   44.8055   -1.0113   11.2739 O   0  0  0  0  0  0  0  0  0  0  0  0
   46.6823   -2.1416   10.4114 C   0  0  0  0  0  0  0  0  0  0  0  0
   46.9143   -1.1399    9.3403 N   0  0  0  0  0  0  0  0  0  0  0  0
   48.0109   -2.7906   10.7311 C   0  0  0  0  0  0  0  0  0  0  0  0
   48.9480   -1.7660   11.0989 O   0  0  0  0  0  0  0  0  0  0  0  0
   47.9013   -3.7461   11.8131 O   0  0  0  0  0  0  0  0  0  0  0  0
   47.3607   -3.1594   13.0230 C   0  0  0  0  0  0  0  0  0  0  0  0
   44.1801   -3.2063   12.2019 H   0  0  0  0  0  0  0  0  0  0  0  0
   44.2561   -1.7301   10.9242 H   0  0  0  0  0  0  0  0  0  0  0  0
   47.5776   -0.4381    9.6690 H   0  0  0  0  0  0  0  0  0  0  0  0
   46.0319   -0.6879    9.1006 H   0  0  0  0  0  0  0  0  0  0  0  0
   48.6265   -1.3017   11.8876 H   0  0  0  0  0  0  0  0  0  0  0  0
   47.2608   -4.2366   14.0576 C   0  0  0  0  0  0  0  0  0  0  0  0
   46.2653   -3.8521   15.0492 O   0  0  0  0  0  0  0  0  0  0  0  0
   45.4063   -3.7316   14.6151 H   0  0  0  0  0  0  0  0  0  0  0  0
  4  3  1  0  0  0
  3  2  1  0  0  0
  3  5  1  0  0  0
  2  1  1  0  0  0
  2 10  1  0  0  0
  6  5  1  0  0  0
 17 16  1  0  0  0
 10 16  1  0  0  0
 10  9  1  0  0  0
  5  7  1  0  0  0
  8  7  1  0  0  0
  7  9  1  0  0  0
  1 11  1  0  0  0
  4 12  1  0  0  0
  6 13  1  0  0  0
  6 14  1  0  0  0
  8 15  1  0  0  0
 17 18  1  0  0  0
M  END
> <minimizedAffinity>
-5.23778

$$$$
5F8Y_X6X_A_201


 18 18  0  0  0  0  0  0  0  0999 V2000
   48.4493   -0.9834   10.3905 O   0  0  0  0  0  0  0  0  0  0  0  0
   47.5426   -1.9778    9.9323 C   0  0  0  0  0  0  0  0  0  0  0  0
   46.1475   -1.7266   10.5176 C   0  0  0  0  0  0  0  0  0  0  0  0
   45.6872   -0.4333   10.2764 O   0  0  0  0  0  0  0  0  0  0  0  0
   46.1992   -1.9332   12.0177 C   0  0  0  0  0  0  0  0  0  0  0  0
   44.8525   -1.8286   12.6341 N   0  0  0  0  0  0  0  0  0  0  0  0
   46.7673   -3.2880   12.3787 C   0  0  0  0  0  0  0  0  0  0  0  0
   45.8543   -4.3041   11.9347 O   0  0  0  0  0  0  0  0  0  0  0  0
   48.0618   -3.5126   11.7708 O   0  0  0  0  0  0  0  0  0  0  0  0
   48.0302   -3.3846   10.3275 C   0  0  0  0  0  0  0  0  0  0  0  0
   48.1250   -0.1065   10.1322 H   0  0  0  0  0  0  0  0  0  0  0  0
   46.2817    0.2057   10.6997 H   0  0  0  0  0  0  0  0  0  0  0  0
   44.2531   -2.5689   12.2692 H   0  0  0  0  0  0  0  0  0  0  0  0
   44.4456   -0.9205   12.4102 H   0  0  0  0  0  0  0  0  0  0  0  0
   45.7548   -4.2508   10.9712 H   0  0  0  0  0  0  0  0  0  0  0  0
   49.4182   -3.6023    9.8110 C   0  0  0  0  0  0  0  0  0  0  0  0
   49.6078   -2.8043    8.6071 O   0  0  0  0  0  0  0  0  0  0  0  0
   49.4778   -1.8663    8.8172 H   0  0  0  0  0  0  0  0  0  0  0  0
  4  3  1  0  0  0
  3  2  1  0  0  0
  3  5  1  0  0  0
  2  1  1  0  0  0
  2 10  1  0  0  0
  6  5  1  0  0  0
 17 16  1  0  0  0
 10 16  1  0  0  0
 10  9  1  0  0  0
  5  7  1  0  0  0
  8  7  1  0  0  0
  7  9  1  0  0  0
  1 11  1  0  0  0
  4 12  1  0  0  0
  6 13  1  0  0  0
  6 14  1  0  0  0
  8 15  1  0  0  0
 17 18  1  0  0  0
M  END
> <minimizedAffinity>
-5.20238

$$$$
5F8Y_X6X_A_201


 18 18  0  0  0  0  0  0  0  0999 V2000
   48.0464   -3.8060    9.6673 O   0  0  0  0  0  0  0  0  0  0  0  0
   48.4653   -3.3863   10.9592 C   0  0  0  0  0  0  0  0  0  0  0  0
   47.5550   -3.9981   12.0312 C   0  0  0  0  0  0  0  0  0  0  0  0
   47.4565   -5.3845   11.9267 O   0  0  0  0  0  0  0  0  0  0  0  0
   46.1633   -3.4173   11.8844 C   0  0  0  0  0  0  0  0  0  0  0  0
   45.2599   -3.8724   12.9712 N   0  0  0  0  0  0  0  0  0  0  0  0
   46.1813   -1.9047   11.9032 C   0  0  0  0  0  0  0  0  0  0  0  0
   46.5891   -1.4645   13.2083 O   0  0  0  0  0  0  0  0  0  0  0  0
   47.0866   -1.3609   10.9130 O   0  0  0  0  0  0  0  0  0  0  0  0
   48.4421   -1.8498   11.0679 C   0  0  0  0  0  0  0  0  0  0  0  0
   48.0679   -4.7746    9.6192 H   0  0  0  0  0  0  0  0  0  0  0  0
   47.0662   -5.6172   11.0698 H   0  0  0  0  0  0  0  0  0  0  0  0
   45.6110   -3.5368   13.8682 H   0  0  0  0  0  0  0  0  0  0  0  0
   45.2248   -4.8917   12.9797 H   0  0  0  0  0  0  0  0  0  0  0  0
   47.4825   -1.7925   13.3956 H   0  0  0  0  0  0  0  0  0  0  0  0
   49.2787   -1.2532    9.9795 C   0  0  0  0  0  0  0  0  0  0  0  0
   48.4162   -0.8854    8.8647 O   0  0  0  0  0  0  0  0  0  0  0  0
   47.7573   -0.2400    9.1650 H   0  0  0  0  0  0  0  0  0  0  0  0
  4  3  1  0  0  0
  3  2  1  0  0  0
  3  5  1  0  0  0
  2  1  1  0  0  0
  2 10  1  0  0  0
  6  5  1  0  0  0
 17 16  1  0  0  0
 10 16  1  0  0  0
 10  9  1  0  0  0
  5  7  1  0  0  0
  8  7  1  0  0  0
  7  9  1  0  0  0
  1 11  1  0  0  0
  4 12  1  0  0  0
  6 13  1  0  0  0
  6 14  1  0  0  0
  8 15  1  0  0  0
 17 18  1  0  0  0
M  END
> <minimizedAffinity>
-5.13535

$$$$
5F8Y_X6X_A_201


 18 18  0  0  0  0  0  0  0  0999 V2000
   48.9626   -2.1682   11.4719 O   0  0  0  0  0  0  0  0  0  0  0  0
   48.0042   -2.9925   10.8216 C   0  0  0  0  0  0  0  0  0  0  0  0
   46.8823   -2.1290   10.2321 C   0  0  0  0  0  0  0  0  0  0  0  0
   47.3615   -1.1142    9.4055 O   0  0  0  0  0  0  0  0  0  0  0  0
   46.1106   -1.4845   11.3656 C   0  0  0  0  0  0  0  0  0  0  0  0
   44.9298   -0.7332   10.8698 N   0  0  0  0  0  0  0  0  0  0  0  0
   45.6188   -2.5092   12.3639 C   0  0  0  0  0  0  0  0  0  0  0  0
   44.6378   -3.3416   11.7252 O   0  0  0  0  0  0  0  0  0  0  0  0
   46.6945   -3.3392   12.8636 O   0  0  0  0  0  0  0  0  0  0  0  0
   47.4120   -4.0203   11.8044 C   0  0  0  0  0  0  0  0  0  0  0  0
   49.3230   -1.5291   10.8375 H   0  0  0  0  0  0  0  0  0  0  0  0
   47.9258   -0.5168    9.9208 H   0  0  0  0  0  0  0  0  0  0  0  0
   44.2808   -1.3784   10.4194 H   0  0  0  0  0  0  0  0  0  0  0  0
   45.2328   -0.0300   10.1958 H   0  0  0  0  0  0  0  0  0  0  0  0
   45.0442   -3.8027   10.9748 H   0  0  0  0  0  0  0  0  0  0  0  0
   48.5148   -4.8175   12.4280 C   0  0  0  0  0  0  0  0  0  0  0  0
   48.9521   -4.1510   13.6472 O   0  0  0  0  0  0  0  0  0  0  0  0
   48.2062   -4.0824   14.2635 H   0  0  0  0  0  0  0  0  0  0  0  0
  4  3  1  0  0  0
  3  2  1  0  0  0
  3  5  1  0  0  0
  2  1  1  0  0  0
  2 10  1  0  0  0
  6  5  1  0  0  0
 17 16  1  0  0  0
 10 16  1  0  0  0
 10  9  1  0  0  0
  5  7  1  0  0  0
  8  7  1  0  0  0
  7  9  1  0  0  0
  1 11  1  0  0  0
  4 12  1  0  0  0
  6 13  1  0  0  0
  6 14  1  0  0  0
  8 15  1  0  0  0
 17 18  1  0  0  0
M  END
> <minimizedAffinity>
-5.13450

$$$$
5F8Y_X6X_A_201


 18 18  0  0  0  0  0  0  0  0999 V2000
   48.8297   -1.2933   11.8870 O   0  0  0  0  0  0  0  0  0  0  0  0
   48.1742   -2.5284   11.6306 C   0  0  0  0  0  0  0  0  0  0  0  0
   47.3253   -2.4183   10.3581 C   0  0  0  0  0  0  0  0  0  0  0  0
   48.0554   -1.9642    9.2612 O   0  0  0  0  0  0  0  0  0  0  0  0
   46.1940   -1.4409   10.6048 C   0  0  0  0  0  0  0  0  0  0  0  0
   45.2580   -1.3810    9.4538 N   0  0  0  0  0  0  0  0  0  0  0  0
   45.3912   -1.8097   11.8329 C   0  0  0  0  0  0  0  0  0  0  0  0
   44.7105   -3.0498   11.5836 O   0  0  0  0  0  0  0  0  0  0  0  0
   46.2285   -1.9535   13.0050 O   0  0  0  0  0  0  0  0  0  0  0  0
   47.2830   -2.9306   12.8210 C   0  0  0  0  0  0  0  0  0  0  0  0
   49.3848   -1.0580   11.1272 H   0  0  0  0  0  0  0  0  0  0  0  0
   48.3931   -1.0733    9.4438 H   0  0  0  0  0  0  0  0  0  0  0  0
   44.8186   -2.2925    9.3251 H   0  0  0  0  0  0  0  0  0  0  0  0
   45.7727   -1.1295    8.6098 H   0  0  0  0  0  0  0  0  0  0  0  0
   45.3621   -3.7475   11.4121 H   0  0  0  0  0  0  0  0  0  0  0  0
   48.1013   -2.9729   14.0737 C   0  0  0  0  0  0  0  0  0  0  0  0
   48.0694   -1.6613   14.7066 O   0  0  0  0  0  0  0  0  0  0  0  0
   47.1525   -1.4275   14.9199 H   0  0  0  0  0  0  0  0  0  0  0  0
  4  3  1  0  0  0
  3  2  1  0  0  0
  3  5  1  0  0  0
  2  1  1  0  0  0
  2 10  1  0  0  0
  6  5  1  0  0  0
 17 16  1  0  0  0
 10 16  1  0  0  0
 10  9  1  0  0  0
  5  7  1  0  0  0
  8  7  1  0  0  0
  7  9  1  0  0  0
  1 11  1  0  0  0
  4 12  1  0  0  0
  6 13  1  0  0  0
  6 14  1  0  0  0
  8 15  1  0  0  0
 17 18  1  0  0  0
M  END
> <minimizedAffinity>
-5.13050

$$$$
5F8Y_X6X_A_201


 18 18  0  0  0  0  0  0  0  0999 V2000
   45.9654   -1.2149   11.4341 O   0  0  0  0  0  0  0  0  0  0  0  0
   46.4775   -2.5157   11.1761 C   0  0  0  0  0  0  0  0  0  0  0  0
   45.9533   -3.5042   12.2250 C   0  0  0  0  0  0  0  0  0  0  0  0
   44.5636   -3.4895   12.3318 O   0  0  0  0  0  0  0  0  0  0  0  0
   46.5308   -3.1384   13.5772 C   0  0  0  0  0  0  0  0  0  0  0  0
   46.1639   -4.1310   14.6187 N   0  0  0  0  0  0  0  0  0  0  0  0
   48.0404   -3.0488   13.5374 C   0  0  0  0  0  0  0  0  0  0  0  0
   48.5739   -4.3597   13.2918 O   0  0  0  0  0  0  0  0  0  0  0  0
   48.5029   -2.1456   12.5049 O   0  0  0  0  0  0  0  0  0  0  0  0
   48.0179   -2.5080   11.1882 C   0  0  0  0  0  0  0  0  0  0  0  0
   44.9958   -1.2409   11.4222 H   0  0  0  0  0  0  0  0  0  0  0  0
   44.2703   -2.6090   12.6136 H   0  0  0  0  0  0  0  0  0  0  0  0
   46.5631   -5.0386   14.3791 H   0  0  0  0  0  0  0  0  0  0  0  0
   45.1483   -4.2094   14.6710 H   0  0  0  0  0  0  0  0  0  0  0  0
   48.2549   -4.6833   12.4349 H   0  0  0  0  0  0  0  0  0  0  0  0
   48.5261   -1.4949   10.2104 C   0  0  0  0  0  0  0  0  0  0  0  0
   47.4982   -1.2433    9.2094 O   0  0  0  0  0  0  0  0  0  0  0  0
   46.6983   -0.9089    9.6444 H   0  0  0  0  0  0  0  0  0  0  0  0
  4  3  1  0  0  0
  3  2  1  0  0  0
  3  5  1  0  0  0
  2  1  1  0  0  0
  2 10  1  0  0  0
  6  5  1  0  0  0
 17 16  1  0  0  0
 10 16  1  0  0  0
 10  9  1  0  0  0
  5  7  1  0  0  0
  8  7  1  0  0  0
  7  9  1  0  0  0
  1 11  1  0  0  0
  4 12  1  0  0  0
  6 13  1  0  0  0
  6 14  1  0  0  0
  8 15  1  0  0  0
 17 18  1  0  0  0
M  END
> <minimizedAffinity>
-4.98378

$$$$
5F8Y_X6X_A_201


 18 18  0  0  0  0  0  0  0  0999 V2000
   49.2864   -2.9632   11.9338 O   0  0  0  0  0  0  0  0  0  0  0  0
   48.3239   -1.9824   12.2977 C   0  0  0  0  0  0  0  0  0  0  0  0
   47.6700   -2.3582   13.6331 C   0  0  0  0  0  0  0  0  0  0  0  0
   48.6024   -2.5907   14.6427 O   0  0  0  0  0  0  0  0  0  0  0  0
   46.8586   -3.6237   13.4444 C   0  0  0  0  0  0  0  0  0  0  0  0
   46.0957   -3.9756   14.6686 N   0  0  0  0  0  0  0  0  0  0  0  0
   45.8698   -3.4924   12.3070 C   0  0  0  0  0  0  0  0  0  0  0  0
   44.8811   -2.5142   12.6662 O   0  0  0  0  0  0  0  0  0  0  0  0
   46.5122   -3.0893   11.0739 O   0  0  0  0  0  0  0  0  0  0  0  0
   47.2448   -1.8459   11.2069 C   0  0  0  0  0  0  0  0  0  0  0  0
   49.9558   -3.0340   12.6322 H   0  0  0  0  0  0  0  0  0  0  0  0
   49.1684   -3.3383   14.3942 H   0  0  0  0  0  0  0  0  0  0  0  0
   45.4217   -3.2378   14.8730 H   0  0  0  0  0  0  0  0  0  0  0  0
   46.7394   -4.0752   15.4535 H   0  0  0  0  0  0  0  0  0  0  0  0
   45.3116   -1.6569   12.8098 H   0  0  0  0  0  0  0  0  0  0  0  0
   47.8913   -1.5442    9.8909 C   0  0  0  0  0  0  0  0  0  0  0  0
   48.0787   -2.7887    9.1573 O   0  0  0  0  0  0  0  0  0  0  0  0
   47.2177   -3.2112    9.0121 H   0  0  0  0  0  0  0  0  0  0  0  0
  4  3  1  0  0  0
  3  2  1  0  0  0
  3  5  1  0  0  0
  2  1  1  0  0  0
  2 10  1  0  0  0
  6  5  1  0  0  0
 17 16  1  0  0  0
 10 16  1  0  0  0
 10  9  1  0  0  0
  5  7  1  0  0  0
  8  7  1  0  0  0
  7  9  1  0  0  0
  1 11  1  0  0  0
  4 12  1  0  0  0
  6 13  1  0  0  0
  6 14  1  0  0  0
  8 15  1  0  0  0
 17 18  1  0  0  0
M  END
> <minimizedAffinity>
-4.84137

$$$$
