4JYC_GDP_D_501


 36 38  0  0  0  0  0  0  0  0999 V2000
  -34.2069   -1.9689   47.1280 C   0  0  0  0  0  0  0  0  0  0  0  0
  -33.0162   -1.2541   47.5406 O   0  0  0  0  0  0  0  0  0  0  0  0
  -35.0339   -2.3297   48.3546 C   0  0  0  0  0  0  0  0  0  0  0  0
  -34.8699   -3.7167   48.7641 O   0  0  0  0  0  0  0  0  0  0  0  0
  -34.5369   -1.2870   49.3358 C   0  0  0  0  0  0  0  0  0  0  0  0
  -34.6908   -1.6326   50.7031 O   0  0  0  0  0  0  0  0  0  0  0  0
  -33.0725   -1.1034   48.9557 C   0  0  0  0  0  0  0  0  0  0  0  0
  -33.9305   -3.8973   48.9251 H   0  0  0  0  0  0  0  0  0  0  0  0
  -34.1975   -2.4470   50.8883 H   0  0  0  0  0  0  0  0  0  0  0  0
  -32.5798    0.2182   49.3343 N   0  0  0  0  0  0  0  0  0  0  0  0
  -33.1947    1.4096   49.1571 C   0  0  0  0  0  0  0  0  0  0  0  0
  -32.4143    2.4079   49.6323 N   0  0  0  0  0  0  0  0  0  0  0  0
  -31.2833    1.8769   50.1239 C   0  0  0  0  0  0  0  0  0  0  0  0
  -30.0467    2.3795   50.7596 C   0  0  0  0  0  0  0  0  0  0  0  0
  -29.8357    3.5978   50.9997 O   0  0  0  0  0  0  0  0  0  0  0  0
  -29.1453    1.4549   51.0986 N   0  0  0  0  0  0  0  0  0  0  0  0
  -29.3291    0.1240   50.8738 C   0  0  0  0  0  0  0  0  0  0  0  0
  -28.3754   -0.7531   51.2345 N   0  0  0  0  0  0  0  0  0  0  0  0
  -30.4029   -0.4009   50.2772 N   0  0  0  0  0  0  0  0  0  0  0  0
  -31.4031    0.4194   49.9084 C   0  0  0  0  0  0  0  0  0  0  0  0
  -28.3105    1.7481   51.5304 H   0  0  0  0  0  0  0  0  0  0  0  0
  -27.5567   -0.4349   51.6790 H   0  0  0  0  0  0  0  0  0  0  0  0
  -28.4961   -1.7134   51.0540 H   0  0  0  0  0  0  0  0  0  0  0  0
  -35.0009   -1.1126   46.1476 C   0  0  0  0  0  0  0  0  0  0  0  0
  -36.3786   -1.0568   46.5176 O   0  0  0  0  0  0  0  0  0  0  0  0
  -37.3222    0.2028   46.1491 P   0  0  0  0  0  0  0  0  0  0  0  0
  -38.6756   -0.3118   45.7302 O   0  0  0  0  0  0  0  0  0  0  0  0
  -37.2449    1.1416   47.3351 O   0  0  0  0  0  0  0  0  0  0  0  0
  -37.7970    1.9212   47.1669 H   0  0  0  0  0  0  0  0  0  0  0  0
  -36.5699    0.8638   44.9039 O   0  0  0  0  0  0  0  0  0  0  0  0
  -37.1884    1.3301   43.4814 P   0  0  0  0  0  0  0  0  0  0  0  0
  -36.0701    1.9761   42.7125 O   0  0  0  0  0  0  0  0  0  0  0  0
  -38.3429    2.2294   43.7418 O   0  0  0  0  0  0  0  0  0  0  0  0
  -37.6412   -0.0286   42.9463 O   0  0  0  0  0  0  0  0  0  0  0  0
  -38.7248    2.5177   42.8981 H   0  0  0  0  0  0  0  0  0  0  0  0
  -38.0458    0.0866   42.0723 H   0  0  0  0  0  0  0  0  0  0  0  0
 31 32  2  0  0  0
 31 33  1  0  0  0
 31 34  1  0  0  0
 31 30  1  0  0  0
 30 26  1  0  0  0
 26 27  2  0  0  0
 26 28  1  0  0  0
 26 25  1  0  0  0
 25 24  1  0  0  0
 24  1  1  0  0  0
  1  2  1  0  0  0
  1  3  1  0  0  0
  2  7  1  0  0  0
  3  4  1  0  0  0
  3  5  1  0  0  0
  5  6  1  0  0  0
  5  7  1  0  0  0
  7 10  1  0  0  0
 10 11  1  0  0  0
 10 20  1  0  0  0
 11 12  2  0  0  0
 12 13  1  0  0  0
 13 14  1  0  0  0
 13 20  2  0  0  0
 14 15  2  0  0  0
 14 16  1  0  0  0
 16 17  1  0  0  0
 17 18  1  0  0  0
 17 19  2  0  0  0
 19 20  1  0  0  0
 33 35  1  0  0  0
 34 36  1  0  0  0
 28 29  1  0  0  0
  4  8  1  0  0  0
  6  9  1  0  0  0
 16 21  1  0  0  0
 18 22  1  0  0  0
 18 23  1  0  0  0
M  END
> <minimizedAffinity>
-9.61800

$$$$
4JYC_GDP_D_501


 36 38  0  0  0  0  0  0  0  0999 V2000
  -34.1766   -2.0358   47.0792 C   0  0  0  0  0  0  0  0  0  0  0  0
  -32.9949   -1.3047   47.4895 O   0  0  0  0  0  0  0  0  0  0  0  0
  -34.9923   -2.4142   48.3080 C   0  0  0  0  0  0  0  0  0  0  0  0
  -34.8054   -3.8002   48.7109 O   0  0  0  0  0  0  0  0  0  0  0  0
  -34.5066   -1.3682   49.2914 C   0  0  0  0  0  0  0  0  0  0  0  0
  -34.6490   -1.7218   50.6579 O   0  0  0  0  0  0  0  0  0  0  0  0
  -33.0469   -1.1609   48.9054 C   0  0  0  0  0  0  0  0  0  0  0  0
  -33.8628   -3.9673   48.8668 H   0  0  0  0  0  0  0  0  0  0  0  0
  -34.1425   -2.5294   50.8374 H   0  0  0  0  0  0  0  0  0  0  0  0
  -32.5725    0.1665   49.2874 N   0  0  0  0  0  0  0  0  0  0  0  0
  -33.1971    1.3512   49.0996 C   0  0  0  0  0  0  0  0  0  0  0  0
  -32.4330    2.3583   49.5826 N   0  0  0  0  0  0  0  0  0  0  0  0
  -31.3032    1.8398   50.0900 C   0  0  0  0  0  0  0  0  0  0  0  0
  -30.0801    2.3562   50.7405 C   0  0  0  0  0  0  0  0  0  0  0  0
  -29.8844    3.5771   50.9805 O   0  0  0  0  0  0  0  0  0  0  0  0
  -29.1738    1.4415   51.0932 N   0  0  0  0  0  0  0  0  0  0  0  0
  -29.3413    0.1083   50.8690 C   0  0  0  0  0  0  0  0  0  0  0  0
  -28.3836   -0.7583   51.2440 N   0  0  0  0  0  0  0  0  0  0  0  0
  -30.4019   -0.4286   50.2598 N   0  0  0  0  0  0  0  0  0  0  0  0
  -31.4055    0.3807   49.8763 C   0  0  0  0  0  0  0  0  0  0  0  0
  -28.3477    1.7440   51.5351 H   0  0  0  0  0  0  0  0  0  0  0  0
  -27.5739   -0.4309   51.6983 H   0  0  0  0  0  0  0  0  0  0  0  0
  -28.4922   -1.7201   51.0641 H   0  0  0  0  0  0  0  0  0  0  0  0
  -34.9880   -1.1875   46.1061 C   0  0  0  0  0  0  0  0  0  0  0  0
  -36.2892   -0.9164   46.6269 O   0  0  0  0  0  0  0  0  0  0  0  0
  -37.1889    0.3207   46.1046 P   0  0  0  0  0  0  0  0  0  0  0  0
  -37.3131    1.3323   47.2151 O   0  0  0  0  0  0  0  0  0  0  0  0
  -36.5690    0.7622   44.7951 O   0  0  0  0  0  0  0  0  0  0  0  0
  -37.0730    1.5082   44.4341 H   0  0  0  0  0  0  0  0  0  0  0  0
  -38.6044   -0.3613   45.8140 O   0  0  0  0  0  0  0  0  0  0  0  0
  -39.4016   -1.4535   46.7056 P   0  0  0  0  0  0  0  0  0  0  0  0
  -39.0093   -2.8081   46.1858 O   0  0  0  0  0  0  0  0  0  0  0  0
  -40.8571   -1.1667   46.6111 O   0  0  0  0  0  0  0  0  0  0  0  0
  -38.8465   -1.1045   48.0868 O   0  0  0  0  0  0  0  0  0  0  0  0
  -41.3491   -1.8135   47.1408 H   0  0  0  0  0  0  0  0  0  0  0  0
  -39.2409   -1.6908   48.7513 H   0  0  0  0  0  0  0  0  0  0  0  0
 31 32  2  0  0  0
 31 33  1  0  0  0
 31 34  1  0  0  0
 31 30  1  0  0  0
 30 26  1  0  0  0
 26 27  2  0  0  0
 26 28  1  0  0  0
 26 25  1  0  0  0
 25 24  1  0  0  0
 24  1  1  0  0  0
  1  2  1  0  0  0
  1  3  1  0  0  0
  2  7  1  0  0  0
  3  4  1  0  0  0
  3  5  1  0  0  0
  5  6  1  0  0  0
  5  7  1  0  0  0
  7 10  1  0  0  0
 10 11  1  0  0  0
 10 20  1  0  0  0
 11 12  2  0  0  0
 12 13  1  0  0  0
 13 14  1  0  0  0
 13 20  2  0  0  0
 14 15  2  0  0  0
 14 16  1  0  0  0
 16 17  1  0  0  0
 17 18  1  0  0  0
 17 19  2  0  0  0
 19 20  1  0  0  0
 33 35  1  0  0  0
 34 36  1  0  0  0
 28 29  1  0  0  0
  4  8  1  0  0  0
  6  9  1  0  0  0
 16 21  1  0  0  0
 18 22  1  0  0  0
 18 23  1  0  0  0
M  END
> <minimizedAffinity>
-8.35385

$$$$
4JYC_GDP_D_501


 36 38  0  0  0  0  0  0  0  0999 V2000
  -38.0427   -2.3638   45.2106 C   0  0  0  0  0  0  0  0  0  0  0  0
  -36.7655   -2.6945   45.8094 O   0  0  0  0  0  0  0  0  0  0  0  0
  -38.8761   -1.5620   46.2012 C   0  0  0  0  0  0  0  0  0  0  0  0
  -39.8892   -2.3628   46.8724 O   0  0  0  0  0  0  0  0  0  0  0  0
  -37.7823   -1.0006   47.0874 C   0  0  0  0  0  0  0  0  0  0  0  0
  -38.1984   -0.6436   48.3959 O   0  0  0  0  0  0  0  0  0  0  0  0
  -36.7308   -2.1037   47.1048 C   0  0  0  0  0  0  0  0  0  0  0  0
  -39.4655   -3.1134   47.3174 H   0  0  0  0  0  0  0  0  0  0  0  0
  -38.5493   -1.4265   48.8484 H   0  0  0  0  0  0  0  0  0  0  0  0
  -35.3972   -1.5720   47.3725 N   0  0  0  0  0  0  0  0  0  0  0  0
  -34.4036   -1.3505   46.4822 C   0  0  0  0  0  0  0  0  0  0  0  0
  -33.3144   -0.8596   47.1177 N   0  0  0  0  0  0  0  0  0  0  0  0
  -33.5874   -0.7562   48.4282 C   0  0  0  0  0  0  0  0  0  0  0  0
  -32.8704   -0.3195   49.6452 C   0  0  0  0  0  0  0  0  0  0  0  0
  -31.6905    0.1211   49.6349 O   0  0  0  0  0  0  0  0  0  0  0  0
  -33.5571   -0.3939   50.7877 N   0  0  0  0  0  0  0  0  0  0  0  0
  -34.8390   -0.8500   50.8528 C   0  0  0  0  0  0  0  0  0  0  0  0
  -35.4697   -0.9054   52.0395 N   0  0  0  0  0  0  0  0  0  0  0  0
  -35.5391   -1.2905   49.8038 N   0  0  0  0  0  0  0  0  0  0  0  0
  -34.9739   -1.2445   48.5842 C   0  0  0  0  0  0  0  0  0  0  0  0
  -33.1173   -0.1064   51.6203 H   0  0  0  0  0  0  0  0  0  0  0  0
  -35.0123   -0.5968   52.8548 H   0  0  0  0  0  0  0  0  0  0  0  0
  -36.3887   -1.2544   52.0927 H   0  0  0  0  0  0  0  0  0  0  0  0
  -37.8136   -1.5920   43.9157 C   0  0  0  0  0  0  0  0  0  0  0  0
  -36.8730   -0.5359   44.1101 O   0  0  0  0  0  0  0  0  0  0  0  0
  -37.2383    1.0115   43.8184 P   0  0  0  0  0  0  0  0  0  0  0  0
  -37.7138    1.6470   45.0998 O   0  0  0  0  0  0  0  0  0  0  0  0
  -36.0261    1.6022   43.1288 O   0  0  0  0  0  0  0  0  0  0  0  0
  -36.1914    2.5369   42.9289 H   0  0  0  0  0  0  0  0  0  0  0  0
  -38.4409    0.9061   42.7715 O   0  0  0  0  0  0  0  0  0  0  0  0
  -39.9310    1.5319   42.8782 P   0  0  0  0  0  0  0  0  0  0  0  0
  -40.7074    0.6476   43.8132 O   0  0  0  0  0  0  0  0  0  0  0  0
  -40.5047    1.6181   41.5097 O   0  0  0  0  0  0  0  0  0  0  0  0
  -39.5845    2.9139   43.4326 O   0  0  0  0  0  0  0  0  0  0  0  0
  -41.3987    1.9917   41.5568 H   0  0  0  0  0  0  0  0  0  0  0  0
  -40.3988    3.4264   43.5556 H   0  0  0  0  0  0  0  0  0  0  0  0
 31 32  2  0  0  0
 31 33  1  0  0  0
 31 34  1  0  0  0
 31 30  1  0  0  0
 30 26  1  0  0  0
 26 27  2  0  0  0
 26 28  1  0  0  0
 26 25  1  0  0  0
 25 24  1  0  0  0
 24  1  1  0  0  0
  1  2  1  0  0  0
  1  3  1  0  0  0
  2  7  1  0  0  0
  3  4  1  0  0  0
  3  5  1  0  0  0
  5  6  1  0  0  0
  5  7  1  0  0  0
  7 10  1  0  0  0
 10 11  1  0  0  0
 10 20  1  0  0  0
 11 12  2  0  0  0
 12 13  1  0  0  0
 13 14  1  0  0  0
 13 20  2  0  0  0
 14 15  2  0  0  0
 14 16  1  0  0  0
 16 17  1  0  0  0
 17 18  1  0  0  0
 17 19  2  0  0  0
 19 20  1  0  0  0
 33 35  1  0  0  0
 34 36  1  0  0  0
 28 29  1  0  0  0
  4  8  1  0  0  0
  6  9  1  0  0  0
 16 21  1  0  0  0
 18 22  1  0  0  0
 18 23  1  0  0  0
M  END
> <minimizedAffinity>
-7.55384

$$$$
4JYC_GDP_D_501


 36 38  0  0  0  0  0  0  0  0999 V2000
  -34.3167   -2.2062   47.2098 C   0  0  0  0  0  0  0  0  0  0  0  0
  -33.2273   -1.2550   47.2969 O   0  0  0  0  0  0  0  0  0  0  0  0
  -34.4272   -2.9740   48.5200 C   0  0  0  0  0  0  0  0  0  0  0  0
  -33.8373   -4.3028   48.4529 O   0  0  0  0  0  0  0  0  0  0  0  0
  -33.7552   -1.9988   49.4659 C   0  0  0  0  0  0  0  0  0  0  0  0
  -33.2168   -2.5824   50.6416 O   0  0  0  0  0  0  0  0  0  0  0  0
  -32.6769   -1.3488   48.6071 C   0  0  0  0  0  0  0  0  0  0  0  0
  -32.9090   -4.2311   48.1808 H   0  0  0  0  0  0  0  0  0  0  0  0
  -32.5474   -3.2409   50.3984 H   0  0  0  0  0  0  0  0  0  0  0  0
  -32.3294   -0.0173   49.0962 N   0  0  0  0  0  0  0  0  0  0  0  0
  -33.0470    1.1218   48.9677 C   0  0  0  0  0  0  0  0  0  0  0  0
  -32.3867    2.1519   49.5460 N   0  0  0  0  0  0  0  0  0  0  0  0
  -31.2325    1.6942   50.0570 C   0  0  0  0  0  0  0  0  0  0  0  0
  -30.0782    2.2627   50.7851 C   0  0  0  0  0  0  0  0  0  0  0  0
  -29.9949    3.4753   51.1152 O   0  0  0  0  0  0  0  0  0  0  0  0
  -29.1081    1.4037   51.1066 N   0  0  0  0  0  0  0  0  0  0  0  0
  -29.1542    0.0806   50.7855 C   0  0  0  0  0  0  0  0  0  0  0  0
  -28.1376   -0.7280   51.1344 N   0  0  0  0  0  0  0  0  0  0  0  0
  -30.1462   -0.4978   50.1030 N   0  0  0  0  0  0  0  0  0  0  0  0
  -31.2032    0.2507   49.7400 C   0  0  0  0  0  0  0  0  0  0  0  0
  -28.3245    1.7414   51.5977 H   0  0  0  0  0  0  0  0  0  0  0  0
  -27.3729   -0.3677   51.6390 H   0  0  0  0  0  0  0  0  0  0  0  0
  -28.1582   -1.6802   50.8851 H   0  0  0  0  0  0  0  0  0  0  0  0
  -35.6105   -1.4699   46.8797 C   0  0  0  0  0  0  0  0  0  0  0  0
  -36.6300   -1.7772   47.8305 O   0  0  0  0  0  0  0  0  0  0  0  0
  -38.1667   -1.3179   47.6291 P   0  0  0  0  0  0  0  0  0  0  0  0
  -38.2643   -0.4899   46.3733 O   0  0  0  0  0  0  0  0  0  0  0  0
  -38.9947   -2.5825   47.7234 O   0  0  0  0  0  0  0  0  0  0  0  0
  -39.9328   -2.3641   47.6087 H   0  0  0  0  0  0  0  0  0  0  0  0
  -38.4424   -0.4104   48.9151 O   0  0  0  0  0  0  0  0  0  0  0  0
  -39.6634   -0.5048   49.9751 P   0  0  0  0  0  0  0  0  0  0  0  0
  -39.2536   -1.5026   51.0217 O   0  0  0  0  0  0  0  0  0  0  0  0
  -40.9000   -0.8739   49.2376 O   0  0  0  0  0  0  0  0  0  0  0  0
  -39.7005    0.9492   50.4465 O   0  0  0  0  0  0  0  0  0  0  0  0
  -41.6417   -0.9345   49.8599 H   0  0  0  0  0  0  0  0  0  0  0  0
  -40.4036    1.0575   51.1059 H   0  0  0  0  0  0  0  0  0  0  0  0
 31 32  2  0  0  0
 31 33  1  0  0  0
 31 34  1  0  0  0
 31 30  1  0  0  0
 30 26  1  0  0  0
 26 27  2  0  0  0
 26 28  1  0  0  0
 26 25  1  0  0  0
 25 24  1  0  0  0
 24  1  1  0  0  0
  1  2  1  0  0  0
  1  3  1  0  0  0
  2  7  1  0  0  0
  3  4  1  0  0  0
  3  5  1  0  0  0
  5  6  1  0  0  0
  5  7  1  0  0  0
  7 10  1  0  0  0
 10 11  1  0  0  0
 10 20  1  0  0  0
 11 12  2  0  0  0
 12 13  1  0  0  0
 13 14  1  0  0  0
 13 20  2  0  0  0
 14 15  2  0  0  0
 14 16  1  0  0  0
 16 17  1  0  0  0
 17 18  1  0  0  0
 17 19  2  0  0  0
 19 20  1  0  0  0
 33 35  1  0  0  0
 34 36  1  0  0  0
 28 29  1  0  0  0
  4  8  1  0  0  0
  6  9  1  0  0  0
 16 21  1  0  0  0
 18 22  1  0  0  0
 18 23  1  0  0  0
M  END
> <minimizedAffinity>
-7.51622

$$$$
4JYC_GDP_D_501


 36 38  0  0  0  0  0  0  0  0999 V2000
  -37.2610    0.0220   46.9656 C   0  0  0  0  0  0  0  0  0  0  0  0
  -37.4696    1.1111   46.0331 O   0  0  0  0  0  0  0  0  0  0  0  0
  -38.1987   -1.1276   46.6226 C   0  0  0  0  0  0  0  0  0  0  0  0
  -39.3675   -1.1866   47.4877 O   0  0  0  0  0  0  0  0  0  0  0  0
  -38.4714   -0.8313   45.1614 C   0  0  0  0  0  0  0  0  0  0  0  0
  -39.6836   -1.3707   44.6591 O   0  0  0  0  0  0  0  0  0  0  0  0
  -38.4535    0.6911   45.0929 C   0  0  0  0  0  0  0  0  0  0  0  0
  -39.8415   -0.3412   47.4490 H   0  0  0  0  0  0  0  0  0  0  0  0
  -40.4309   -1.0092   45.1609 H   0  0  0  0  0  0  0  0  0  0  0  0
  -38.0991    1.1657   43.7580 N   0  0  0  0  0  0  0  0  0  0  0  0
  -36.8759    1.5281   43.3092 C   0  0  0  0  0  0  0  0  0  0  0  0
  -36.9553    1.9202   42.0164 N   0  0  0  0  0  0  0  0  0  0  0  0
  -38.2308    1.8169   41.6100 C   0  0  0  0  0  0  0  0  0  0  0  0
  -38.9885    2.0794   40.3679 C   0  0  0  0  0  0  0  0  0  0  0  0
  -38.4558    2.4939   39.3045 O   0  0  0  0  0  0  0  0  0  0  0  0
  -40.2990    1.8292   40.4176 N   0  0  0  0  0  0  0  0  0  0  0  0
  -40.9228    1.3678   41.5373 C   0  0  0  0  0  0  0  0  0  0  0  0
  -42.2489    1.1437   41.5197 N   0  0  0  0  0  0  0  0  0  0  0  0
  -40.3120    1.1380   42.7028 N   0  0  0  0  0  0  0  0  0  0  0  0
  -38.9823    1.3239   42.7835 C   0  0  0  0  0  0  0  0  0  0  0  0
  -40.8385    1.9850   39.6090 H   0  0  0  0  0  0  0  0  0  0  0  0
  -42.7624    1.2927   40.6931 H   0  0  0  0  0  0  0  0  0  0  0  0
  -42.7060    0.8305   42.3335 H   0  0  0  0  0  0  0  0  0  0  0  0
  -35.8002   -0.4129   46.9221 C   0  0  0  0  0  0  0  0  0  0  0  0
  -35.0601    0.1750   47.9919 O   0  0  0  0  0  0  0  0  0  0  0  0
  -33.8863   -0.6189   48.7696 P   0  0  0  0  0  0  0  0  0  0  0  0
  -34.5021   -1.7532   49.5482 O   0  0  0  0  0  0  0  0  0  0  0  0
  -32.8424   -0.9480   47.7228 O   0  0  0  0  0  0  0  0  0  0  0  0
  -32.1090   -1.4287   48.1375 H   0  0  0  0  0  0  0  0  0  0  0  0
  -33.3034    0.4861   49.7658 O   0  0  0  0  0  0  0  0  0  0  0  0
  -32.1183    1.5585   49.5033 P   0  0  0  0  0  0  0  0  0  0  0  0
  -30.8474    0.9328   50.0056 O   0  0  0  0  0  0  0  0  0  0  0  0
  -32.4761    2.8315   50.1821 O   0  0  0  0  0  0  0  0  0  0  0  0
  -32.2223    1.6814   47.9829 O   0  0  0  0  0  0  0  0  0  0  0  0
  -31.7749    3.4851   50.0339 H   0  0  0  0  0  0  0  0  0  0  0  0
  -31.5555    2.3090   47.6629 H   0  0  0  0  0  0  0  0  0  0  0  0
 31 32  2  0  0  0
 31 33  1  0  0  0
 31 34  1  0  0  0
 31 30  1  0  0  0
 30 26  1  0  0  0
 26 27  2  0  0  0
 26 28  1  0  0  0
 26 25  1  0  0  0
 25 24  1  0  0  0
 24  1  1  0  0  0
  1  2  1  0  0  0
  1  3  1  0  0  0
  2  7  1  0  0  0
  3  4  1  0  0  0
  3  5  1  0  0  0
  5  6  1  0  0  0
  5  7  1  0  0  0
  7 10  1  0  0  0
 10 11  1  0  0  0
 10 20  1  0  0  0
 11 12  2  0  0  0
 12 13  1  0  0  0
 13 14  1  0  0  0
 13 20  2  0  0  0
 14 15  2  0  0  0
 14 16  1  0  0  0
 16 17  1  0  0  0
 17 18  1  0  0  0
 17 19  2  0  0  0
 19 20  1  0  0  0
 33 35  1  0  0  0
 34 36  1  0  0  0
 28 29  1  0  0  0
  4  8  1  0  0  0
  6  9  1  0  0  0
 16 21  1  0  0  0
 18 22  1  0  0  0
 18 23  1  0  0  0
M  END
> <minimizedAffinity>
-7.41948

$$$$
4JYC_GDP_D_501


 36 38  0  0  0  0  0  0  0  0999 V2000
  -34.7597   -2.0843   46.9543 C   0  0  0  0  0  0  0  0  0  0  0  0
  -33.3326   -2.3241   47.0257 O   0  0  0  0  0  0  0  0  0  0  0  0
  -35.4423   -2.7169   48.1595 C   0  0  0  0  0  0  0  0  0  0  0  0
  -36.0799   -3.9882   47.8506 O   0  0  0  0  0  0  0  0  0  0  0  0
  -34.2805   -2.7782   49.1308 C   0  0  0  0  0  0  0  0  0  0  0  0
  -34.4027   -3.7613   50.1464 O   0  0  0  0  0  0  0  0  0  0  0  0
  -33.0743   -3.0315   48.2344 C   0  0  0  0  0  0  0  0  0  0  0  0
  -35.4236   -4.5966   47.4764 H   0  0  0  0  0  0  0  0  0  0  0  0
  -34.4726   -4.6392   49.7398 H   0  0  0  0  0  0  0  0  0  0  0  0
  -31.8398   -2.5420   48.8421 N   0  0  0  0  0  0  0  0  0  0  0  0
  -30.6982   -3.2329   49.0616 C   0  0  0  0  0  0  0  0  0  0  0  0
  -29.7808   -2.4337   49.6542 N   0  0  0  0  0  0  0  0  0  0  0  0
  -30.3156   -1.2143   49.8266 C   0  0  0  0  0  0  0  0  0  0  0  0
  -29.8828    0.0791   50.3974 C   0  0  0  0  0  0  0  0  0  0  0  0
  -28.7346    0.2771   50.8756 O   0  0  0  0  0  0  0  0  0  0  0  0
  -30.7827    1.0647   50.3627 N   0  0  0  0  0  0  0  0  0  0  0  0
  -32.0331    0.9079   49.8452 C   0  0  0  0  0  0  0  0  0  0  0  0
  -32.8928    1.9423   49.8488 N   0  0  0  0  0  0  0  0  0  0  0  0
  -32.5053   -0.2359   49.3423 N   0  0  0  0  0  0  0  0  0  0  0  0
  -31.6904   -1.3048   49.2912 C   0  0  0  0  0  0  0  0  0  0  0  0
  -30.5314    1.9440   50.7273 H   0  0  0  0  0  0  0  0  0  0  0  0
  -32.6107    2.8156   50.2053 H   0  0  0  0  0  0  0  0  0  0  0  0
  -33.8041    1.8261   49.4950 H   0  0  0  0  0  0  0  0  0  0  0  0
  -35.0212   -0.5838   46.8844 C   0  0  0  0  0  0  0  0  0  0  0  0
  -35.8241   -0.2575   45.7500 O   0  0  0  0  0  0  0  0  0  0  0  0
  -37.2647    0.4623   45.8889 P   0  0  0  0  0  0  0  0  0  0  0  0
  -38.3422   -0.5478   45.5874 O   0  0  0  0  0  0  0  0  0  0  0  0
  -37.2660    1.1319   47.2474 O   0  0  0  0  0  0  0  0  0  0  0  0
  -38.1137    1.5829   47.3848 H   0  0  0  0  0  0  0  0  0  0  0  0
  -37.2190    1.5818   44.7496 O   0  0  0  0  0  0  0  0  0  0  0  0
  -37.3645    1.3987   43.1469 P   0  0  0  0  0  0  0  0  0  0  0  0
  -38.5566    2.2103   42.7236 O   0  0  0  0  0  0  0  0  0  0  0  0
  -37.4825   -0.0524   42.8474 O   0  0  0  0  0  0  0  0  0  0  0  0
  -36.0115    1.9575   42.7058 O   0  0  0  0  0  0  0  0  0  0  0  0
  -37.5706   -0.1788   41.8897 H   0  0  0  0  0  0  0  0  0  0  0  0
  -35.9438    1.9150   41.7391 H   0  0  0  0  0  0  0  0  0  0  0  0
 31 32  2  0  0  0
 31 33  1  0  0  0
 31 34  1  0  0  0
 31 30  1  0  0  0
 30 26  1  0  0  0
 26 27  2  0  0  0
 26 28  1  0  0  0
 26 25  1  0  0  0
 25 24  1  0  0  0
 24  1  1  0  0  0
  1  2  1  0  0  0
  1  3  1  0  0  0
  2  7  1  0  0  0
  3  4  1  0  0  0
  3  5  1  0  0  0
  5  6  1  0  0  0
  5  7  1  0  0  0
  7 10  1  0  0  0
 10 11  1  0  0  0
 10 20  1  0  0  0
 11 12  2  0  0  0
 12 13  1  0  0  0
 13 14  1  0  0  0
 13 20  2  0  0  0
 14 15  2  0  0  0
 14 16  1  0  0  0
 16 17  1  0  0  0
 17 18  1  0  0  0
 17 19  2  0  0  0
 19 20  1  0  0  0
 33 35  1  0  0  0
 34 36  1  0  0  0
 28 29  1  0  0  0
  4  8  1  0  0  0
  6  9  1  0  0  0
 16 21  1  0  0  0
 18 22  1  0  0  0
 18 23  1  0  0  0
M  END
> <minimizedAffinity>
-7.31336

$$$$
4JYC_GDP_D_501


 36 38  0  0  0  0  0  0  0  0999 V2000
  -36.3598   -2.1256   46.6788 C   0  0  0  0  0  0  0  0  0  0  0  0
  -36.7550   -1.7283   45.3427 O   0  0  0  0  0  0  0  0  0  0  0  0
  -36.4253   -0.9209   47.6077 C   0  0  0  0  0  0  0  0  0  0  0  0
  -35.1207   -0.3301   47.8669 O   0  0  0  0  0  0  0  0  0  0  0  0
  -37.4090   -0.0480   46.8544 C   0  0  0  0  0  0  0  0  0  0  0  0
  -37.3164    1.3387   47.1392 O   0  0  0  0  0  0  0  0  0  0  0  0
  -37.1116   -0.3503   45.3905 C   0  0  0  0  0  0  0  0  0  0  0  0
  -34.7036   -0.0857   47.0260 H   0  0  0  0  0  0  0  0  0  0  0  0
  -36.4292    1.6572   46.9103 H   0  0  0  0  0  0  0  0  0  0  0  0
  -38.2767   -0.1093   44.5437 N   0  0  0  0  0  0  0  0  0  0  0  0
  -39.5135   -0.6413   44.6716 C   0  0  0  0  0  0  0  0  0  0  0  0
  -40.3191   -0.1806   43.6866 N   0  0  0  0  0  0  0  0  0  0  0  0
  -39.6153    0.6562   42.9073 C   0  0  0  0  0  0  0  0  0  0  0  0
  -39.8681    1.4691   41.6985 C   0  0  0  0  0  0  0  0  0  0  0  0
  -40.9875    1.5289   41.1242 O   0  0  0  0  0  0  0  0  0  0  0  0
  -38.8321    2.1761   41.2412 N   0  0  0  0  0  0  0  0  0  0  0  0
  -37.6047    2.1577   41.8317 C   0  0  0  0  0  0  0  0  0  0  0  0
  -36.6022    2.8894   41.3135 N   0  0  0  0  0  0  0  0  0  0  0  0
  -37.2925    1.4252   42.9043 N   0  0  0  0  0  0  0  0  0  0  0  0
  -38.2544    0.6849   43.4838 C   0  0  0  0  0  0  0  0  0  0  0  0
  -38.9610    2.7357   40.4416 H   0  0  0  0  0  0  0  0  0  0  0  0
  -36.7621    3.4528   40.5221 H   0  0  0  0  0  0  0  0  0  0  0  0
  -35.7085    2.8616   41.7254 H   0  0  0  0  0  0  0  0  0  0  0  0
  -37.2615   -3.2565   47.1615 C   0  0  0  0  0  0  0  0  0  0  0  0
  -37.9203   -2.9011   48.3771 O   0  0  0  0  0  0  0  0  0  0  0  0
  -39.5306   -2.8329   48.4996 P   0  0  0  0  0  0  0  0  0  0  0  0
  -40.1312   -3.0881   47.1409 O   0  0  0  0  0  0  0  0  0  0  0  0
  -39.9010   -3.7628   49.6363 O   0  0  0  0  0  0  0  0  0  0  0  0
  -40.8638   -3.7608   49.7550 H   0  0  0  0  0  0  0  0  0  0  0  0
  -39.7937   -1.3219   48.9479 O   0  0  0  0  0  0  0  0  0  0  0  0
  -39.4594   -0.6164   50.3670 P   0  0  0  0  0  0  0  0  0  0  0  0
  -39.5430    0.8677   50.1445 O   0  0  0  0  0  0  0  0  0  0  0  0
  -38.1252   -1.0861   50.8239 O   0  0  0  0  0  0  0  0  0  0  0  0
  -40.5862   -1.2083   51.2140 O   0  0  0  0  0  0  0  0  0  0  0  0
  -37.9103   -0.6718   51.6742 H   0  0  0  0  0  0  0  0  0  0  0  0
  -40.5207   -0.8705   52.1209 H   0  0  0  0  0  0  0  0  0  0  0  0
 31 32  2  0  0  0
 31 33  1  0  0  0
 31 34  1  0  0  0
 31 30  1  0  0  0
 30 26  1  0  0  0
 26 27  2  0  0  0
 26 28  1  0  0  0
 26 25  1  0  0  0
 25 24  1  0  0  0
 24  1  1  0  0  0
  1  2  1  0  0  0
  1  3  1  0  0  0
  2  7  1  0  0  0
  3  4  1  0  0  0
  3  5  1  0  0  0
  5  6  1  0  0  0
  5  7  1  0  0  0
  7 10  1  0  0  0
 10 11  1  0  0  0
 10 20  1  0  0  0
 11 12  2  0  0  0
 12 13  1  0  0  0
 13 14  1  0  0  0
 13 20  2  0  0  0
 14 15  2  0  0  0
 14 16  1  0  0  0
 16 17  1  0  0  0
 17 18  1  0  0  0
 17 19  2  0  0  0
 19 20  1  0  0  0
 33 35  1  0  0  0
 34 36  1  0  0  0
 28 29  1  0  0  0
  4  8  1  0  0  0
  6  9  1  0  0  0
 16 21  1  0  0  0
 18 22  1  0  0  0
 18 23  1  0  0  0
M  END
> <minimizedAffinity>
-7.20353

$$$$
4JYC_GDP_D_501


 36 38  0  0  0  0  0  0  0  0999 V2000
  -37.1013    0.4115   46.0244 C   0  0  0  0  0  0  0  0  0  0  0  0
  -37.7385    0.1764   47.3042 O   0  0  0  0  0  0  0  0  0  0  0  0
  -36.2765   -0.8079   45.6355 C   0  0  0  0  0  0  0  0  0  0  0  0
  -34.8531   -0.6359   45.8857 O   0  0  0  0  0  0  0  0  0  0  0  0
  -36.9678   -1.8786   46.4559 C   0  0  0  0  0  0  0  0  0  0  0  0
  -36.1697   -3.0142   46.7491 O   0  0  0  0  0  0  0  0  0  0  0  0
  -37.3982   -1.1428   47.7192 C   0  0  0  0  0  0  0  0  0  0  0  0
  -34.7132   -0.4177   46.8204 H   0  0  0  0  0  0  0  0  0  0  0  0
  -35.3879   -2.7387   47.2528 H   0  0  0  0  0  0  0  0  0  0  0  0
  -38.5535   -1.7797   48.3458 N   0  0  0  0  0  0  0  0  0  0  0  0
  -39.2796   -2.8183   47.8735 C   0  0  0  0  0  0  0  0  0  0  0  0
  -40.2776   -3.1155   48.7379 N   0  0  0  0  0  0  0  0  0  0  0  0
  -40.2115   -2.2738   49.7818 C   0  0  0  0  0  0  0  0  0  0  0  0
  -40.9711   -2.0459   51.0296 C   0  0  0  0  0  0  0  0  0  0  0  0
  -41.9600   -2.7442   51.3773 O   0  0  0  0  0  0  0  0  0  0  0  0
  -40.5361   -1.0512   51.8065 N   0  0  0  0  0  0  0  0  0  0  0  0
  -39.4644   -0.2744   51.4842 C   0  0  0  0  0  0  0  0  0  0  0  0
  -39.0843    0.7167   52.3102 N   0  0  0  0  0  0  0  0  0  0  0  0
  -38.7502   -0.3991   50.3623 N   0  0  0  0  0  0  0  0  0  0  0  0
  -39.0655   -1.3832   49.5013 C   0  0  0  0  0  0  0  0  0  0  0  0
  -41.0110   -0.8709   52.6498 H   0  0  0  0  0  0  0  0  0  0  0  0
  -39.5670    0.8655   53.1553 H   0  0  0  0  0  0  0  0  0  0  0  0
  -38.3234    1.2933   52.0698 H   0  0  0  0  0  0  0  0  0  0  0  0
  -38.1635    0.7281   44.9773 C   0  0  0  0  0  0  0  0  0  0  0  0
  -37.7151    1.7507   44.0878 O   0  0  0  0  0  0  0  0  0  0  0  0
  -37.9190    1.6546   42.4872 P   0  0  0  0  0  0  0  0  0  0  0  0
  -36.8697    2.5014   41.8134 O   0  0  0  0  0  0  0  0  0  0  0  0
  -37.9684    0.1762   42.1621 O   0  0  0  0  0  0  0  0  0  0  0  0
  -38.0903    0.0591   41.2070 H   0  0  0  0  0  0  0  0  0  0  0  0
  -39.3688    2.2906   42.2703 O   0  0  0  0  0  0  0  0  0  0  0  0
  -40.7134    1.5755   41.7190 P   0  0  0  0  0  0  0  0  0  0  0  0
  -40.3238    0.8105   40.4853 O   0  0  0  0  0  0  0  0  0  0  0  0
  -41.7410    2.6231   41.4826 O   0  0  0  0  0  0  0  0  0  0  0  0
  -41.0562    0.7131   42.9340 O   0  0  0  0  0  0  0  0  0  0  0  0
  -42.5538    2.2100   41.1516 H   0  0  0  0  0  0  0  0  0  0  0  0
  -41.8642    0.2075   42.7540 H   0  0  0  0  0  0  0  0  0  0  0  0
 31 32  2  0  0  0
 31 33  1  0  0  0
 31 34  1  0  0  0
 31 30  1  0  0  0
 30 26  1  0  0  0
 26 27  2  0  0  0
 26 28  1  0  0  0
 26 25  1  0  0  0
 25 24  1  0  0  0
 24  1  1  0  0  0
  1  2  1  0  0  0
  1  3  1  0  0  0
  2  7  1  0  0  0
  3  4  1  0  0  0
  3  5  1  0  0  0
  5  6  1  0  0  0
  5  7  1  0  0  0
  7 10  1  0  0  0
 10 11  1  0  0  0
 10 20  1  0  0  0
 11 12  2  0  0  0
 12 13  1  0  0  0
 13 14  1  0  0  0
 13 20  2  0  0  0
 14 15  2  0  0  0
 14 16  1  0  0  0
 16 17  1  0  0  0
 17 18  1  0  0  0
 17 19  2  0  0  0
 19 20  1  0  0  0
 33 35  1  0  0  0
 34 36  1  0  0  0
 28 29  1  0  0  0
  4  8  1  0  0  0
  6  9  1  0  0  0
 16 21  1  0  0  0
 18 22  1  0  0  0
 18 23  1  0  0  0
M  END
> <minimizedAffinity>
-7.19524

$$$$
4JYC_GDP_D_501


 36 38  0  0  0  0  0  0  0  0999 V2000
  -38.1477   -0.6314   45.3117 C   0  0  0  0  0  0  0  0  0  0  0  0
  -38.7686   -0.5238   46.6164 O   0  0  0  0  0  0  0  0  0  0  0  0
  -36.7421   -1.1970   45.4628 C   0  0  0  0  0  0  0  0  0  0  0  0
  -35.7069   -0.1765   45.3905 O   0  0  0  0  0  0  0  0  0  0  0  0
  -36.8759   -1.9105   46.7932 C   0  0  0  0  0  0  0  0  0  0  0  0
  -35.6566   -2.1043   47.4920 O   0  0  0  0  0  0  0  0  0  0  0  0
  -37.8482   -1.0355   47.5753 C   0  0  0  0  0  0  0  0  0  0  0  0
  -35.8727    0.5006   46.0650 H   0  0  0  0  0  0  0  0  0  0  0  0
  -35.2497   -1.2435   47.6772 H   0  0  0  0  0  0  0  0  0  0  0  0
  -38.5645   -1.8021   48.5912 N   0  0  0  0  0  0  0  0  0  0  0  0
  -38.7986   -3.1339   48.6068 C   0  0  0  0  0  0  0  0  0  0  0  0
  -39.5045   -3.4663   49.7125 N   0  0  0  0  0  0  0  0  0  0  0  0
  -39.7372   -2.3545   50.4284 C   0  0  0  0  0  0  0  0  0  0  0  0
  -40.4301   -2.0120   51.6887 C   0  0  0  0  0  0  0  0  0  0  0  0
  -40.9901   -2.8653   52.4267 O   0  0  0  0  0  0  0  0  0  0  0  0
  -40.4169   -0.7219   52.0321 N   0  0  0  0  0  0  0  0  0  0  0  0
  -39.8150    0.2392   51.2773 C   0  0  0  0  0  0  0  0  0  0  0  0
  -39.8460    1.5222   51.6795 N   0  0  0  0  0  0  0  0  0  0  0  0
  -39.1987    0.0115   50.1143 N   0  0  0  0  0  0  0  0  0  0  0  0
  -39.1150   -1.2530   49.6637 C   0  0  0  0  0  0  0  0  0  0  0  0
  -40.8621   -0.4532   52.8681 H   0  0  0  0  0  0  0  0  0  0  0  0
  -40.2844    1.7617   52.5278 H   0  0  0  0  0  0  0  0  0  0  0  0
  -39.4303    2.2219   51.1255 H   0  0  0  0  0  0  0  0  0  0  0  0
  -39.0104   -1.5052   44.4077 C   0  0  0  0  0  0  0  0  0  0  0  0
  -39.7984   -0.7060   43.5256 O   0  0  0  0  0  0  0  0  0  0  0  0
  -39.3463   -0.3943   42.0053 P   0  0  0  0  0  0  0  0  0  0  0  0
  -39.2425   -1.6968   41.2538 O   0  0  0  0  0  0  0  0  0  0  0  0
  -40.3078    0.6576   41.4927 O   0  0  0  0  0  0  0  0  0  0  0  0
  -40.0812    0.8841   40.5771 H   0  0  0  0  0  0  0  0  0  0  0  0
  -37.8991    0.2585   42.1870 O   0  0  0  0  0  0  0  0  0  0  0  0
  -37.5209    1.7841   42.5779 P   0  0  0  0  0  0  0  0  0  0  0  0
  -36.1183    1.7591   43.1175 O   0  0  0  0  0  0  0  0  0  0  0  0
  -38.5325    2.2875   43.5436 O   0  0  0  0  0  0  0  0  0  0  0  0
  -37.6749    2.4411   41.2060 O   0  0  0  0  0  0  0  0  0  0  0  0
  -38.3194    3.2017   43.7879 H   0  0  0  0  0  0  0  0  0  0  0  0
  -37.4756    3.3877   41.2766 H   0  0  0  0  0  0  0  0  0  0  0  0
 31 32  2  0  0  0
 31 33  1  0  0  0
 31 34  1  0  0  0
 31 30  1  0  0  0
 30 26  1  0  0  0
 26 27  2  0  0  0
 26 28  1  0  0  0
 26 25  1  0  0  0
 25 24  1  0  0  0
 24  1  1  0  0  0
  1  2  1  0  0  0
  1  3  1  0  0  0
  2  7  1  0  0  0
  3  4  1  0  0  0
  3  5  1  0  0  0
  5  6  1  0  0  0
  5  7  1  0  0  0
  7 10  1  0  0  0
 10 11  1  0  0  0
 10 20  1  0  0  0
 11 12  2  0  0  0
 12 13  1  0  0  0
 13 14  1  0  0  0
 13 20  2  0  0  0
 14 15  2  0  0  0
 14 16  1  0  0  0
 16 17  1  0  0  0
 17 18  1  0  0  0
 17 19  2  0  0  0
 19 20  1  0  0  0
 33 35  1  0  0  0
 34 36  1  0  0  0
 28 29  1  0  0  0
  4  8  1  0  0  0
  6  9  1  0  0  0
 16 21  1  0  0  0
 18 22  1  0  0  0
 18 23  1  0  0  0
M  END
> <minimizedAffinity>
-7.06342

$$$$
4JYC_GDP_D_501


 36 38  0  0  0  0  0  0  0  0999 V2000
  -38.1835   -2.6357   46.9448 C   0  0  0  0  0  0  0  0  0  0  0  0
  -37.1740   -2.5159   47.9771 O   0  0  0  0  0  0  0  0  0  0  0  0
  -39.1518   -3.7533   47.3079 C   0  0  0  0  0  0  0  0  0  0  0  0
  -38.8896   -4.9903   46.5875 O   0  0  0  0  0  0  0  0  0  0  0  0
  -38.9555   -3.8080   48.8098 C   0  0  0  0  0  0  0  0  0  0  0  0
  -39.2904   -5.0487   49.4108 O   0  0  0  0  0  0  0  0  0  0  0  0
  -37.4819   -3.4650   48.9933 C   0  0  0  0  0  0  0  0  0  0  0  0
  -37.9750   -5.2705   46.7483 H   0  0  0  0  0  0  0  0  0  0  0  0
  -38.7387   -5.7508   49.0319 H   0  0  0  0  0  0  0  0  0  0  0  0
  -37.2240   -2.8854   50.3088 N   0  0  0  0  0  0  0  0  0  0  0  0
  -36.3960   -3.3554   51.2692 C   0  0  0  0  0  0  0  0  0  0  0  0
  -36.4359   -2.5441   52.3516 N   0  0  0  0  0  0  0  0  0  0  0  0
  -37.2902   -1.5375   52.1072 C   0  0  0  0  0  0  0  0  0  0  0  0
  -37.7929   -0.3527   52.8347 C   0  0  0  0  0  0  0  0  0  0  0  0
  -37.4136   -0.0376   53.9937 O   0  0  0  0  0  0  0  0  0  0  0  0
  -38.6771    0.4043   52.1808 N   0  0  0  0  0  0  0  0  0  0  0  0
  -39.1107    0.1163   50.9220 C   0  0  0  0  0  0  0  0  0  0  0  0
  -40.0093    0.9189   50.3242 N   0  0  0  0  0  0  0  0  0  0  0  0
  -38.7272   -0.9507   50.2157 N   0  0  0  0  0  0  0  0  0  0  0  0
  -37.8154   -1.7843   50.7476 C   0  0  0  0  0  0  0  0  0  0  0  0
  -39.0315    1.2064   52.6283 H   0  0  0  0  0  0  0  0  0  0  0  0
  -40.3358    1.7236   50.7880 H   0  0  0  0  0  0  0  0  0  0  0  0
  -40.3406    0.7017   49.4229 H   0  0  0  0  0  0  0  0  0  0  0  0
  -38.9028   -1.3015   46.7787 C   0  0  0  0  0  0  0  0  0  0  0  0
  -38.4142   -0.5964   45.6376 O   0  0  0  0  0  0  0  0  0  0  0  0
  -37.2588    0.5289   45.7462 P   0  0  0  0  0  0  0  0  0  0  0  0
  -37.3234    1.1593   47.1139 O   0  0  0  0  0  0  0  0  0  0  0  0
  -35.9729   -0.1535   45.3285 O   0  0  0  0  0  0  0  0  0  0  0  0
  -35.2404    0.4806   45.3753 H   0  0  0  0  0  0  0  0  0  0  0  0
  -37.6814    1.5876   44.6264 O   0  0  0  0  0  0  0  0  0  0  0  0
  -37.5352    1.4692   43.0177 P   0  0  0  0  0  0  0  0  0  0  0  0
  -38.5322    2.4218   42.4198 O   0  0  0  0  0  0  0  0  0  0  0  0
  -37.7449    0.0500   42.6289 O   0  0  0  0  0  0  0  0  0  0  0  0
  -36.0717    1.8850   42.8667 O   0  0  0  0  0  0  0  0  0  0  0  0
  -37.6604   -0.0375   41.6666 H   0  0  0  0  0  0  0  0  0  0  0  0
  -35.8246    1.8636   41.9289 H   0  0  0  0  0  0  0  0  0  0  0  0
 31 32  2  0  0  0
 31 33  1  0  0  0
 31 34  1  0  0  0
 31 30  1  0  0  0
 30 26  1  0  0  0
 26 27  2  0  0  0
 26 28  1  0  0  0
 26 25  1  0  0  0
 25 24  1  0  0  0
 24  1  1  0  0  0
  1  2  1  0  0  0
  1  3  1  0  0  0
  2  7  1  0  0  0
  3  4  1  0  0  0
  3  5  1  0  0  0
  5  6  1  0  0  0
  5  7  1  0  0  0
  7 10  1  0  0  0
 10 11  1  0  0  0
 10 20  1  0  0  0
 11 12  2  0  0  0
 12 13  1  0  0  0
 13 14  1  0  0  0
 13 20  2  0  0  0
 14 15  2  0  0  0
 14 16  1  0  0  0
 16 17  1  0  0  0
 17 18  1  0  0  0
 17 19  2  0  0  0
 19 20  1  0  0  0
 33 35  1  0  0  0
 34 36  1  0  0  0
 28 29  1  0  0  0
  4  8  1  0  0  0
  6  9  1  0  0  0
 16 21  1  0  0  0
 18 22  1  0  0  0
 18 23  1  0  0  0
M  END
> <minimizedAffinity>
-7.02201

$$$$
