3KDB_006_B_100


 49 53  0  0  0  0  0  0  0  0999 V2000
   14.6078   24.1298   18.4628 O   0  0  0  0  0  0  0  0  0  0  0  0
   15.7846   23.3138   18.4141 C   0  0  0  0  0  0  0  0  0  0  0  0
   13.8253   23.5637   18.5528 H   0  0  0  0  0  0  0  0  0  0  0  0
   17.1314   25.0675   17.5191 O   0  0  0  0  0  0  0  0  0  0  0  0
   17.0635   24.1024   18.2742 C   0  0  0  0  0  0  0  0  0  0  0  0
   18.2032   22.3726   19.6994 C   0  0  0  0  0  0  0  0  0  0  0  0
   18.1120   23.6505   18.9687 N   0  0  0  0  0  0  0  0  0  0  0  0
   19.8597   22.2148   20.2388 S   0  0  0  0  0  0  0  0  0  0  0  0
   20.2279   23.9397   20.1912 C   0  0  0  0  0  0  0  0  0  0  0  0
   19.7133   24.6026   21.4773 C   0  0  0  0  0  0  0  0  0  0  0  0
   21.7272   24.1533   20.0255 C   0  0  0  0  0  0  0  0  0  0  0  0
   19.3454   24.4526   19.0490 C   0  0  0  0  0  0  0  0  0  0  0  0
   20.4413   25.6909   17.2894 N   0  0  0  0  0  0  0  0  0  0  0  0
   20.2609   23.4549   17.0960 O   0  0  0  0  0  0  0  0  0  0  0  0
   20.0620   24.4863   17.7145 C   0  0  0  0  0  0  0  0  0  0  0  0
   20.0931   26.4915   17.7443 H   0  0  0  0  0  0  0  0  0  0  0  0
   21.9436   27.8833   17.4039 O   0  0  0  0  0  0  0  0  0  0  0  0
   21.3517   25.8527   16.1766 C   0  0  0  0  0  0  0  0  0  0  0  0
   20.7010   26.4451   14.9908 C   0  0  0  0  0  0  0  0  0  0  0  0
   19.4626   26.1570   14.4343 C   0  0  0  0  0  0  0  0  0  0  0  0
   19.0696   26.8757   13.2976 C   0  0  0  0  0  0  0  0  0  0  0  0
   22.4352   26.9021   16.4895 C   0  0  0  0  0  0  0  0  0  0  0  0
   21.5496   27.4891   14.4032 C   0  0  0  0  0  0  0  0  0  0  0  0
   21.1388   28.1963   13.2724 C   0  0  0  0  0  0  0  0  0  0  0  0
   19.8852   27.8726   12.7354 C   0  0  0  0  0  0  0  0  0  0  0  0
   22.8198   27.6209   15.1920 C   0  0  0  0  0  0  0  0  0  0  0  0
   21.6925   27.4527   18.2360 H   0  0  0  0  0  0  0  0  0  0  0  0
   15.6630   22.3385   17.2545 C   0  0  0  0  0  0  0  0  0  0  0  0
   14.8002   21.2491   17.6870 N   0  0  0  0  0  0  0  0  0  0  0  0
   16.5551   19.9706   18.2531 O   0  0  0  0  0  0  0  0  0  0  0  0
   15.3598   20.1242   18.1392 C   0  0  0  0  0  0  0  0  0  0  0  0
   13.8208   21.3400   17.6469 H   0  0  0  0  0  0  0  0  0  0  0  0
   14.4528   18.9700   18.4804 C   0  0  0  0  0  0  0  0  0  0  0  0
   13.1743   19.3999   18.9609 O   0  0  0  0  0  0  0  0  0  0  0  0
   10.4945   16.2609   19.7438 C   0  0  0  0  0  0  0  0  0  0  0  0
   10.4588   16.8799   18.4982 C   0  0  0  0  0  0  0  0  0  0  0  0
   11.3248   17.9235   18.1912 C   0  0  0  0  0  0  0  0  0  0  0  0
   11.2748   18.5842   16.8398 C   0  0  0  0  0  0  0  0  0  0  0  0
   13.2337   18.0702   21.6538 C   0  0  0  0  0  0  0  0  0  0  0  0
   12.2910   18.3775   19.2258 C   0  0  0  0  0  0  0  0  0  0  0  0
   12.2974   17.6737   20.5438 C   0  0  0  0  0  0  0  0  0  0  0  0
   11.3840   16.6461   20.7470 C   0  0  0  0  0  0  0  0  0  0  0  0
   15.1844   22.9695   15.9430 C   0  0  0  0  0  0  0  0  0  0  0  0
   14.3807   21.9477   15.1632 C   0  0  0  0  0  0  0  0  0  0  0  0
   12.9815   22.0393   15.1287 C   0  0  0  0  0  0  0  0  0  0  0  0
   12.2478   21.1050   14.4034 C   0  0  0  0  0  0  0  0  0  0  0  0
   12.8976   20.0808   13.7012 C   0  0  0  0  0  0  0  0  0  0  0  0
   14.2870   19.9854   13.7332 C   0  0  0  0  0  0  0  0  0  0  0  0
   15.0342   20.9161   14.4634 C   0  0  0  0  0  0  0  0  0  0  0  0
 29 31  1  0  0  0
 29 28  1  0  0  0
 43 28  1  0  0  0
 28  2  1  0  0  0
  2  1  1  0  0  0
 44 43  1  0  0  0
  5  4  2  0  0  0
 49 44  2  0  0  0
 44 45  1  0  0  0
 46 45  2  0  0  0
 47 46  1  0  0  0
 48 47  2  0  0  0
 48 49  1  0  0  0
  5  2  1  0  0  0
  7  5  1  0  0  0
 13 18  1  0  0  0
 13 15  1  0  0  0
 22 17  1  0  0  0
 19 18  1  0  0  0
 18 22  1  0  0  0
 20 19  2  0  0  0
 19 23  1  0  0  0
 21 20  1  0  0  0
 21 25  2  0  0  0
 26 22  1  0  0  0
 24 23  2  0  0  0
 23 26  1  0  0  0
 25 24  1  0  0  0
 35 42  2  0  0  0
 35 36  1  0  0  0
 31 30  2  0  0  0
 36 37  2  0  0  0
 40 34  1  0  0  0
 34 33  1  0  0  0
 37 40  1  0  0  0
 37 38  1  0  0  0
 41 39  1  0  0  0
 41 40  2  0  0  0
 42 41  1  0  0  0
 33 31  1  0  0  0
  8  6  1  0  0  0
  6  7  1  0  0  0
 12  7  1  0  0  0
 14 15  2  0  0  0
  9  8  1  0  0  0
 11  9  1  0  0  0
  9 12  1  0  0  0
  9 10  1  0  0  0
 15 12  1  0  0  0
 29 32  1  0  0  0
  1  3  1  0  0  0
 13 16  1  0  0  0
 17 27  1  0  0  0
M  END
> <minimizedAffinity>
-12.68401

$$$$
3KDB_006_B_100


 49 53  0  0  0  0  0  0  0  0999 V2000
   15.8261   24.8900   19.0581 O   0  0  0  0  0  0  0  0  0  0  0  0
   16.1219   23.9154   18.0502 C   0  0  0  0  0  0  0  0  0  0  0  0
   16.5508   25.5328   19.1088 H   0  0  0  0  0  0  0  0  0  0  0  0
   14.3850   22.4899   18.8515 O   0  0  0  0  0  0  0  0  0  0  0  0
   15.0510   22.8643   17.8910 C   0  0  0  0  0  0  0  0  0  0  0  0
   15.8264   22.5340   15.5221 C   0  0  0  0  0  0  0  0  0  0  0  0
   14.9214   22.3371   16.6699 N   0  0  0  0  0  0  0  0  0  0  0  0
   15.2870   21.4495   14.2600 S   0  0  0  0  0  0  0  0  0  0  0  0
   13.6309   21.2989   14.8499 C   0  0  0  0  0  0  0  0  0  0  0  0
   12.8116   22.5063   14.3712 C   0  0  0  0  0  0  0  0  0  0  0  0
   13.0167   19.9916   14.3654 C   0  0  0  0  0  0  0  0  0  0  0  0
   13.7870   21.4471   16.3665 C   0  0  0  0  0  0  0  0  0  0  0  0
   12.8235   19.6467   17.6554 N   0  0  0  0  0  0  0  0  0  0  0  0
   15.0055   19.5466   17.1087 O   0  0  0  0  0  0  0  0  0  0  0  0
   13.9295   20.1187   17.0811 C   0  0  0  0  0  0  0  0  0  0  0  0
   12.0424   20.2384   17.7501 H   0  0  0  0  0  0  0  0  0  0  0  0
   10.3512   18.8057   18.1623 O   0  0  0  0  0  0  0  0  0  0  0  0
   12.7409   18.2871   18.1431 C   0  0  0  0  0  0  0  0  0  0  0  0
   12.9975   18.1867   19.5939 C   0  0  0  0  0  0  0  0  0  0  0  0
   13.9760   18.8089   20.3566 C   0  0  0  0  0  0  0  0  0  0  0  0
   14.0009   18.5485   21.7330 C   0  0  0  0  0  0  0  0  0  0  0  0
   11.3018   17.7458   18.0470 C   0  0  0  0  0  0  0  0  0  0  0  0
   12.0151   17.3021   20.2324 C   0  0  0  0  0  0  0  0  0  0  0  0
   12.0545   17.0578   21.6058 C   0  0  0  0  0  0  0  0  0  0  0  0
   13.0610   17.6989   22.3413 C   0  0  0  0  0  0  0  0  0  0  0  0
   11.0598   16.7705   19.2039 C   0  0  0  0  0  0  0  0  0  0  0  0
   10.4835   19.4387   17.4394 H   0  0  0  0  0  0  0  0  0  0  0  0
   17.4437   23.2433   18.3844 C   0  0  0  0  0  0  0  0  0  0  0  0
   18.5099   24.1250   17.9328 N   0  0  0  0  0  0  0  0  0  0  0  0
   18.9561   22.8194   16.1633 O   0  0  0  0  0  0  0  0  0  0  0  0
   19.1977   23.7960   16.8366 C   0  0  0  0  0  0  0  0  0  0  0  0
   18.7205   24.9500   18.4271 H   0  0  0  0  0  0  0  0  0  0  0  0
   20.3662   24.6643   16.4470 C   0  0  0  0  0  0  0  0  0  0  0  0
   20.0655   26.0615   16.5354 O   0  0  0  0  0  0  0  0  0  0  0  0
   21.1620   28.2715   13.1352 C   0  0  0  0  0  0  0  0  0  0  0  0
   21.9545   28.3559   14.2757 C   0  0  0  0  0  0  0  0  0  0  0  0
   21.6332   27.6443   15.4262 C   0  0  0  0  0  0  0  0  0  0  0  0
   22.4993   27.7454   16.6529 C   0  0  0  0  0  0  0  0  0  0  0  0
   18.3501   25.8977   14.0749 C   0  0  0  0  0  0  0  0  0  0  0  0
   20.4151   26.7919   15.4219 C   0  0  0  0  0  0  0  0  0  0  0  0
   19.6033   26.7264   14.1692 C   0  0  0  0  0  0  0  0  0  0  0  0
   20.0122   27.4838   13.0780 C   0  0  0  0  0  0  0  0  0  0  0  0
   17.6015   22.8521   19.8572 C   0  0  0  0  0  0  0  0  0  0  0  0
   18.9690   23.2887   20.3444 C   0  0  0  0  0  0  0  0  0  0  0  0
   20.0723   22.4381   20.1816 C   0  0  0  0  0  0  0  0  0  0  0  0
   21.3280   22.8468   20.6213 C   0  0  0  0  0  0  0  0  0  0  0  0
   21.4983   24.1043   21.2162 C   0  0  0  0  0  0  0  0  0  0  0  0
   20.4054   24.9523   21.3808 C   0  0  0  0  0  0  0  0  0  0  0  0
   19.1375   24.5493   20.9472 C   0  0  0  0  0  0  0  0  0  0  0  0
 29 31  1  0  0  0
 29 28  1  0  0  0
 43 28  1  0  0  0
 28  2  1  0  0  0
  2  1  1  0  0  0
 44 43  1  0  0  0
  5  4  2  0  0  0
 49 44  2  0  0  0
 44 45  1  0  0  0
 46 45  2  0  0  0
 47 46  1  0  0  0
 48 47  2  0  0  0
 48 49  1  0  0  0
  5  2  1  0  0  0
  7  5  1  0  0  0
 13 18  1  0  0  0
 13 15  1  0  0  0
 22 17  1  0  0  0
 19 18  1  0  0  0
 18 22  1  0  0  0
 20 19  2  0  0  0
 19 23  1  0  0  0
 21 20  1  0  0  0
 21 25  2  0  0  0
 26 22  1  0  0  0
 24 23  2  0  0  0
 23 26  1  0  0  0
 25 24  1  0  0  0
 35 42  2  0  0  0
 35 36  1  0  0  0
 31 30  2  0  0  0
 36 37  2  0  0  0
 40 34  1  0  0  0
 34 33  1  0  0  0
 37 40  1  0  0  0
 37 38  1  0  0  0
 41 39  1  0  0  0
 41 40  2  0  0  0
 42 41  1  0  0  0
 33 31  1  0  0  0
  8  6  1  0  0  0
  6  7  1  0  0  0
 12  7  1  0  0  0
 14 15  2  0  0  0
  9  8  1  0  0  0
 11  9  1  0  0  0
  9 12  1  0  0  0
  9 10  1  0  0  0
 15 12  1  0  0  0
 29 32  1  0  0  0
  1  3  1  0  0  0
 13 16  1  0  0  0
 17 27  1  0  0  0
M  END
> <minimizedAffinity>
-12.19984

$$$$
3KDB_006_B_100


 49 53  0  0  0  0  0  0  0  0999 V2000
   22.2430   27.3944   21.4304 O   0  0  0  0  0  0  0  0  0  0  0  0
   22.8926   26.5054   20.5133 C   0  0  0  0  0  0  0  0  0  0  0  0
   22.2882   27.0246   22.3260 H   0  0  0  0  0  0  0  0  0  0  0  0
   21.8228   27.2747   18.5247 O   0  0  0  0  0  0  0  0  0  0  0  0
   22.8775   26.9914   19.0848 C   0  0  0  0  0  0  0  0  0  0  0  0
   25.3372   26.4849   18.9607 C   0  0  0  0  0  0  0  0  0  0  0  0
   24.0609   27.0336   18.4655 N   0  0  0  0  0  0  0  0  0  0  0  0
   26.4945   26.6397   17.6581 S   0  0  0  0  0  0  0  0  0  0  0  0
   25.6517   27.9471   16.8252 C   0  0  0  0  0  0  0  0  0  0  0  0
   26.0012   29.2832   17.4968 C   0  0  0  0  0  0  0  0  0  0  0  0
   26.0282   27.9595   15.3491 C   0  0  0  0  0  0  0  0  0  0  0  0
   24.1788   27.6685   17.1411 C   0  0  0  0  0  0  0  0  0  0  0  0
   22.2529   27.2194   15.7555 N   0  0  0  0  0  0  0  0  0  0  0  0
   24.0623   25.8928   15.5661 O   0  0  0  0  0  0  0  0  0  0  0  0
   23.4897   26.8405   16.0758 C   0  0  0  0  0  0  0  0  0  0  0  0
   21.7883   27.8725   16.3272 H   0  0  0  0  0  0  0  0  0  0  0  0
   20.4389   28.8581   14.7064 O   0  0  0  0  0  0  0  0  0  0  0  0
   21.5753   26.6960   14.5893 C   0  0  0  0  0  0  0  0  0  0  0  0
   20.4581   25.7951   14.9371 C   0  0  0  0  0  0  0  0  0  0  0  0
   20.4066   24.7907   15.8935 C   0  0  0  0  0  0  0  0  0  0  0  0
   19.2095   24.0762   16.0323 C   0  0  0  0  0  0  0  0  0  0  0  0
   20.8426   27.8123   13.8211 C   0  0  0  0  0  0  0  0  0  0  0  0
   19.2767   26.0977   14.1198 C   0  0  0  0  0  0  0  0  0  0  0  0
   18.0920   25.3766   14.2754 C   0  0  0  0  0  0  0  0  0  0  0  0
   18.0808   24.3660   15.2466 C   0  0  0  0  0  0  0  0  0  0  0  0
   19.5801   27.2274   13.1792 C   0  0  0  0  0  0  0  0  0  0  0  0
   21.2221   29.2462   15.1269 H   0  0  0  0  0  0  0  0  0  0  0  0
   22.2261   25.1415   20.5900 C   0  0  0  0  0  0  0  0  0  0  0  0
   20.8294   25.3150   20.2193 N   0  0  0  0  0  0  0  0  0  0  0  0
   20.1583   23.7524   21.6831 O   0  0  0  0  0  0  0  0  0  0  0  0
   19.9056   24.5555   20.8132 C   0  0  0  0  0  0  0  0  0  0  0  0
   20.5702   25.9809   19.5421 H   0  0  0  0  0  0  0  0  0  0  0  0
   18.4800   24.6744   20.3392 C   0  0  0  0  0  0  0  0  0  0  0  0
   17.7186   23.4869   20.5860 O   0  0  0  0  0  0  0  0  0  0  0  0
   17.1295   21.0304   17.2295 C   0  0  0  0  0  0  0  0  0  0  0  0
   18.0963   20.6714   18.1635 C   0  0  0  0  0  0  0  0  0  0  0  0
   18.3291   21.4518   19.2904 C   0  0  0  0  0  0  0  0  0  0  0  0
   19.3784   21.0515   20.2924 C   0  0  0  0  0  0  0  0  0  0  0  0
   15.6451   24.2646   18.5565 C   0  0  0  0  0  0  0  0  0  0  0  0
   17.5290   22.6905   19.4790 C   0  0  0  0  0  0  0  0  0  0  0  0
   16.4957   23.0269   18.4536 C   0  0  0  0  0  0  0  0  0  0  0  0
   16.3498   22.1794   17.3617 C   0  0  0  0  0  0  0  0  0  0  0  0
   22.9136   24.0523   19.7605 C   0  0  0  0  0  0  0  0  0  0  0  0
   24.1824   23.6157   20.4660 C   0  0  0  0  0  0  0  0  0  0  0  0
   25.1560   22.8890   19.7650 C   0  0  0  0  0  0  0  0  0  0  0  0
   26.3239   22.4986   20.4137 C   0  0  0  0  0  0  0  0  0  0  0  0
   26.5369   22.8343   21.7576 C   0  0  0  0  0  0  0  0  0  0  0  0
   25.5725   23.5553   22.4581 C   0  0  0  0  0  0  0  0  0  0  0  0
   24.3923   23.9484   21.8173 C   0  0  0  0  0  0  0  0  0  0  0  0
 29 31  1  0  0  0
 29 28  1  0  0  0
 43 28  1  0  0  0
 28  2  1  0  0  0
  2  1  1  0  0  0
 44 43  1  0  0  0
  5  4  2  0  0  0
 49 44  2  0  0  0
 44 45  1  0  0  0
 46 45  2  0  0  0
 47 46  1  0  0  0
 48 47  2  0  0  0
 48 49  1  0  0  0
  5  2  1  0  0  0
  7  5  1  0  0  0
 13 18  1  0  0  0
 13 15  1  0  0  0
 22 17  1  0  0  0
 19 18  1  0  0  0
 18 22  1  0  0  0
 20 19  2  0  0  0
 19 23  1  0  0  0
 21 20  1  0  0  0
 21 25  2  0  0  0
 26 22  1  0  0  0
 24 23  2  0  0  0
 23 26  1  0  0  0
 25 24  1  0  0  0
 35 42  2  0  0  0
 35 36  1  0  0  0
 31 30  2  0  0  0
 36 37  2  0  0  0
 40 34  1  0  0  0
 34 33  1  0  0  0
 37 40  1  0  0  0
 37 38  1  0  0  0
 41 39  1  0  0  0
 41 40  2  0  0  0
 42 41  1  0  0  0
 33 31  1  0  0  0
  8  6  1  0  0  0
  6  7  1  0  0  0
 12  7  1  0  0  0
 14 15  2  0  0  0
  9  8  1  0  0  0
 11  9  1  0  0  0
  9 12  1  0  0  0
  9 10  1  0  0  0
 15 12  1  0  0  0
 29 32  1  0  0  0
  1  3  1  0  0  0
 13 16  1  0  0  0
 17 27  1  0  0  0
M  END
> <minimizedAffinity>
-10.20710

$$$$
