1Z9G_RRT_E_1006


 20 20  0  0  0  0  0  0  0  0999 V2000
   36.7433   42.3873   -3.4397 C   0  0  0  0  0  0  0  0  0  0  0  0
   35.5673   41.9921   -5.5867 C   0  0  0  0  0  0  0  0  0  0  0  0
   36.1057   40.8768   -5.7747 O   0  0  0  0  0  0  0  0  0  0  0  0
   35.8649   42.7560   -4.5387 N   0  0  0  0  0  0  0  0  0  0  0  0
   35.4541   43.6500   -4.5040 H   0  0  0  0  0  0  0  0  0  0  0  0
   34.5533   42.6183   -6.6157 C   0  0  0  0  0  0  0  0  0  0  0  0
   34.7650   42.1477   -8.0770 C   0  0  0  0  0  0  0  0  0  0  0  0
   35.2299   40.9672   -8.3752 O   0  0  0  0  0  0  0  0  0  0  0  0
   34.4538   42.9772   -8.9622 O   0  0  0  0  0  0  0  0  0  0  0  0
   35.4548   40.3661   -7.6925 H   0  0  0  0  0  0  0  0  0  0  0  0
   38.5750   40.4697   -3.2881 S   0  0  0  0  0  0  0  0  0  0  0  0
   38.1939   42.1309   -3.8165 C   0  0  0  0  0  0  0  0  0  0  0  0
   39.8668   40.1801   -3.5996 H   0  0  0  0  0  0  0  0  0  0  0  0
   36.7238   43.5856   -2.5113 C   0  0  0  0  0  0  0  0  0  0  0  0
   37.1930   43.2686   -1.1284 C   0  0  0  0  0  0  0  0  0  0  0  0
   36.5595   42.2195   -0.4552 C   0  0  0  0  0  0  0  0  0  0  0  0
   38.2661   43.9399   -0.5427 C   0  0  0  0  0  0  0  0  0  0  0  0
   36.9453   41.8110    0.8145 C   0  0  0  0  0  0  0  0  0  0  0  0
   38.6381   43.5769    0.7513 C   0  0  0  0  0  0  0  0  0  0  0  0
   37.9904   42.5227    1.4039 C   0  0  0  0  0  0  0  0  0  0  0  0
 11 12  1  0  0  0
 12  1  1  0  0  0
  1 14  1  0  0  0
  1  4  1  0  0  0
 14 15  1  0  0  0
 15 16  2  0  0  0
 15 17  1  0  0  0
 16 18  1  0  0  0
 17 19  2  0  0  0
 18 20  2  0  0  0
 19 20  1  0  0  0
  2  3  2  0  0  0
  2  4  1  0  0  0
  2  6  1  0  0  0
  6  7  1  0  0  0
  7  8  1  0  0  0
  7  9  2  0  0  0
 11 13  1  0  0  0
  4  5  1  0  0  0
  8 10  1  0  0  0
M  END
> <minimizedAffinity>
-6.59068

$$$$
1Z9G_RRT_E_1006


 20 20  0  0  0  0  0  0  0  0999 V2000
   36.9748   42.8520   -2.7744 C   0  0  0  0  0  0  0  0  0  0  0  0
   36.1696   42.6058   -5.1067 C   0  0  0  0  0  0  0  0  0  0  0  0
   37.3151   42.7065   -5.6034 O   0  0  0  0  0  0  0  0  0  0  0  0
   35.9515   42.7132   -3.7985 N   0  0  0  0  0  0  0  0  0  0  0  0
   35.0144   42.6974   -3.4971 H   0  0  0  0  0  0  0  0  0  0  0  0
   34.8828   42.4235   -5.9956 C   0  0  0  0  0  0  0  0  0  0  0  0
   35.1799   42.0109   -7.4596 C   0  0  0  0  0  0  0  0  0  0  0  0
   35.8455   40.9327   -7.7650 O   0  0  0  0  0  0  0  0  0  0  0  0
   34.7322   42.7814   -8.3395 O   0  0  0  0  0  0  0  0  0  0  0  0
   36.1691   40.3738   -7.0862 H   0  0  0  0  0  0  0  0  0  0  0  0
   38.1425   43.9776   -0.6709 S   0  0  0  0  0  0  0  0  0  0  0  0
   36.9183   44.1345   -1.9597 C   0  0  0  0  0  0  0  0  0  0  0  0
   38.1400   45.1007    0.0960 H   0  0  0  0  0  0  0  0  0  0  0  0
   36.7248   41.7006   -1.8205 C   0  0  0  0  0  0  0  0  0  0  0  0
   37.6436   40.5426   -2.0393 C   0  0  0  0  0  0  0  0  0  0  0  0
   37.5136   39.4435   -1.1847 C   0  0  0  0  0  0  0  0  0  0  0  0
   38.5561   40.5153   -3.0938 C   0  0  0  0  0  0  0  0  0  0  0  0
   38.2838   38.2971   -1.3263 C   0  0  0  0  0  0  0  0  0  0  0  0
   39.3728   39.3926   -3.2241 C   0  0  0  0  0  0  0  0  0  0  0  0
   39.2229   38.3045   -2.3579 C   0  0  0  0  0  0  0  0  0  0  0  0
 11 12  1  0  0  0
 12  1  1  0  0  0
  1 14  1  0  0  0
  1  4  1  0  0  0
 14 15  1  0  0  0
 15 16  2  0  0  0
 15 17  1  0  0  0
 16 18  1  0  0  0
 17 19  2  0  0  0
 18 20  2  0  0  0
 19 20  1  0  0  0
  2  3  2  0  0  0
  2  4  1  0  0  0
  2  6  1  0  0  0
  6  7  1  0  0  0
  7  8  1  0  0  0
  7  9  2  0  0  0
 11 13  1  0  0  0
  4  5  1  0  0  0
  8 10  1  0  0  0
M  END
> <minimizedAffinity>
-6.44042

$$$$
1Z9G_RRT_E_1006


 20 20  0  0  0  0  0  0  0  0999 V2000
   36.6859   42.2377   -3.9809 C   0  0  0  0  0  0  0  0  0  0  0  0
   38.3621   40.4344   -3.6861 C   0  0  0  0  0  0  0  0  0  0  0  0
   39.2823   41.2240   -3.3716 O   0  0  0  0  0  0  0  0  0  0  0  0
   37.1472   40.8591   -4.0240 N   0  0  0  0  0  0  0  0  0  0  0  0
   36.5036   40.1800   -4.3303 H   0  0  0  0  0  0  0  0  0  0  0  0
   38.5882   38.8793   -3.7849 C   0  0  0  0  0  0  0  0  0  0  0  0
   38.4779   38.3154   -5.2243 C   0  0  0  0  0  0  0  0  0  0  0  0
   39.5225   38.0309   -5.9500 O   0  0  0  0  0  0  0  0  0  0  0  0
   37.3125   38.1430   -5.6492 O   0  0  0  0  0  0  0  0  0  0  0  0
   40.3832   38.1698   -5.6069 H   0  0  0  0  0  0  0  0  0  0  0  0
   35.4695   41.2045   -6.1041 S   0  0  0  0  0  0  0  0  0  0  0  0
   35.7898   42.6663   -5.1321 C   0  0  0  0  0  0  0  0  0  0  0  0
   34.6682   41.5256   -7.1550 H   0  0  0  0  0  0  0  0  0  0  0  0
   35.8633   42.3299   -2.7108 C   0  0  0  0  0  0  0  0  0  0  0  0
   36.6754   42.6771   -1.5054 C   0  0  0  0  0  0  0  0  0  0  0  0
   36.5396   41.8618   -0.3775 C   0  0  0  0  0  0  0  0  0  0  0  0
   37.5891   43.7309   -1.5114 C   0  0  0  0  0  0  0  0  0  0  0  0
   37.2789   42.0657    0.7798 C   0  0  0  0  0  0  0  0  0  0  0  0
   38.3066   43.9820   -0.3424 C   0  0  0  0  0  0  0  0  0  0  0  0
   38.1550   43.1513    0.7729 C   0  0  0  0  0  0  0  0  0  0  0  0
 11 12  1  0  0  0
 12  1  1  0  0  0
  1 14  1  0  0  0
  1  4  1  0  0  0
 14 15  1  0  0  0
 15 16  2  0  0  0
 15 17  1  0  0  0
 16 18  1  0  0  0
 17 19  2  0  0  0
 18 20  2  0  0  0
 19 20  1  0  0  0
  2  3  2  0  0  0
  2  4  1  0  0  0
  2  6  1  0  0  0
  6  7  1  0  0  0
  7  8  1  0  0  0
  7  9  2  0  0  0
 11 13  1  0  0  0
  4  5  1  0  0  0
  8 10  1  0  0  0
M  END
> <minimizedAffinity>
-6.37145

$$$$
1Z9G_RRT_E_1006


 20 20  0  0  0  0  0  0  0  0999 V2000
   35.3484   40.3178   -6.9286 C   0  0  0  0  0  0  0  0  0  0  0  0
   36.2129   41.9448   -5.2690 C   0  0  0  0  0  0  0  0  0  0  0  0
   36.7172   42.6930   -6.1378 O   0  0  0  0  0  0  0  0  0  0  0  0
   35.6052   40.8032   -5.5818 N   0  0  0  0  0  0  0  0  0  0  0  0
   35.3025   40.2369   -4.8355 H   0  0  0  0  0  0  0  0  0  0  0  0
   36.3258   42.2527   -3.7289 C   0  0  0  0  0  0  0  0  0  0  0  0
   37.7163   42.7777   -3.2901 C   0  0  0  0  0  0  0  0  0  0  0  0
   37.8756   43.9124   -2.6691 O   0  0  0  0  0  0  0  0  0  0  0  0
   38.6861   42.0351   -3.5667 O   0  0  0  0  0  0  0  0  0  0  0  0
   37.1321   44.4485   -2.4747 H   0  0  0  0  0  0  0  0  0  0  0  0
   36.0312   38.5346   -8.7749 S   0  0  0  0  0  0  0  0  0  0  0  0
   35.4440   38.8116   -7.1128 C   0  0  0  0  0  0  0  0  0  0  0  0
   36.1380   37.1978   -9.0011 H   0  0  0  0  0  0  0  0  0  0  0  0
   33.9143   40.7170   -7.2157 C   0  0  0  0  0  0  0  0  0  0  0  0
   33.7614   41.5014   -8.4784 C   0  0  0  0  0  0  0  0  0  0  0  0
   33.2903   40.8240   -9.6073 C   0  0  0  0  0  0  0  0  0  0  0  0
   34.0105   42.8728   -8.5284 C   0  0  0  0  0  0  0  0  0  0  0  0
   33.0679   41.4644  -10.8190 C   0  0  0  0  0  0  0  0  0  0  0  0
   33.8394   43.5253   -9.7488 C   0  0  0  0  0  0  0  0  0  0  0  0
   33.3652   42.8266  -10.8641 C   0  0  0  0  0  0  0  0  0  0  0  0
 11 12  1  0  0  0
 12  1  1  0  0  0
  1 14  1  0  0  0
  1  4  1  0  0  0
 14 15  1  0  0  0
 15 16  2  0  0  0
 15 17  1  0  0  0
 16 18  1  0  0  0
 17 19  2  0  0  0
 18 20  2  0  0  0
 19 20  1  0  0  0
  2  3  2  0  0  0
  2  4  1  0  0  0
  2  6  1  0  0  0
  6  7  1  0  0  0
  7  8  1  0  0  0
  7  9  2  0  0  0
 11 13  1  0  0  0
  4  5  1  0  0  0
  8 10  1  0  0  0
M  END
> <minimizedAffinity>
-6.36625

$$$$
1Z9G_RRT_E_1006


 20 20  0  0  0  0  0  0  0  0999 V2000
   36.7738   41.9890   -4.2051 C   0  0  0  0  0  0  0  0  0  0  0  0
   38.2745   40.1502   -3.4875 C   0  0  0  0  0  0  0  0  0  0  0  0
   39.2719   40.8977   -3.3633 O   0  0  0  0  0  0  0  0  0  0  0  0
   37.0999   40.6004   -3.9211 N   0  0  0  0  0  0  0  0  0  0  0  0
   36.3886   39.9346   -4.0621 H   0  0  0  0  0  0  0  0  0  0  0  0
   38.3486   38.6007   -3.2173 C   0  0  0  0  0  0  0  0  0  0  0  0
   38.2095   38.2129   -1.7232 C   0  0  0  0  0  0  0  0  0  0  0  0
   37.0855   38.3162   -1.0716 O   0  0  0  0  0  0  0  0  0  0  0  0
   39.2520   37.7850   -1.1769 O   0  0  0  0  0  0  0  0  0  0  0  0
   36.3206   38.6397   -1.5054 H   0  0  0  0  0  0  0  0  0  0  0  0
   35.5863   40.6250   -6.1504 S   0  0  0  0  0  0  0  0  0  0  0  0
   35.9928   42.2309   -5.4870 C   0  0  0  0  0  0  0  0  0  0  0  0
   34.8830   40.7761   -7.3046 H   0  0  0  0  0  0  0  0  0  0  0  0
   35.8913   42.4220   -3.0510 C   0  0  0  0  0  0  0  0  0  0  0  0
   36.6572   42.7298   -1.8053 C   0  0  0  0  0  0  0  0  0  0  0  0
   37.4529   43.8795   -1.8029 C   0  0  0  0  0  0  0  0  0  0  0  0
   36.5410   41.9469   -0.6569 C   0  0  0  0  0  0  0  0  0  0  0  0
   38.1702   44.2843   -0.6852 C   0  0  0  0  0  0  0  0  0  0  0  0
   37.2910   42.3095    0.4614 C   0  0  0  0  0  0  0  0  0  0  0  0
   38.0786   43.4653    0.4404 C   0  0  0  0  0  0  0  0  0  0  0  0
 11 12  1  0  0  0
 12  1  1  0  0  0
  1 14  1  0  0  0
  1  4  1  0  0  0
 14 15  1  0  0  0
 15 16  2  0  0  0
 15 17  1  0  0  0
 16 18  1  0  0  0
 17 19  2  0  0  0
 18 20  2  0  0  0
 19 20  1  0  0  0
  2  3  2  0  0  0
  2  4  1  0  0  0
  2  6  1  0  0  0
  6  7  1  0  0  0
  7  8  1  0  0  0
  7  9  2  0  0  0
 11 13  1  0  0  0
  4  5  1  0  0  0
  8 10  1  0  0  0
M  END
> <minimizedAffinity>
-6.24789

$$$$
1Z9G_RRT_E_1006


 20 20  0  0  0  0  0  0  0  0999 V2000
   34.0940   41.9188   -6.9204 C   0  0  0  0  0  0  0  0  0  0  0  0
   35.8748   42.4796   -5.2885 C   0  0  0  0  0  0  0  0  0  0  0  0
   36.7708   42.5497   -6.1609 O   0  0  0  0  0  0  0  0  0  0  0  0
   34.6216   42.1438   -5.5838 N   0  0  0  0  0  0  0  0  0  0  0  0
   33.9961   42.0382   -4.8310 H   0  0  0  0  0  0  0  0  0  0  0  0
   36.1735   42.7051   -3.7591 C   0  0  0  0  0  0  0  0  0  0  0  0
   37.6703   42.9447   -3.4366 C   0  0  0  0  0  0  0  0  0  0  0  0
   38.6206   42.1841   -3.9026 O   0  0  0  0  0  0  0  0  0  0  0  0
   37.9134   43.9267   -2.6984 O   0  0  0  0  0  0  0  0  0  0  0  0
   38.4101   41.4556   -4.4530 H   0  0  0  0  0  0  0  0  0  0  0  0
   33.0662   43.3656   -8.8966 S   0  0  0  0  0  0  0  0  0  0  0  0
   34.5291   42.9234   -7.9755 C   0  0  0  0  0  0  0  0  0  0  0  0
   33.3930   44.2671   -9.8610 H   0  0  0  0  0  0  0  0  0  0  0  0
   34.6450   40.5673   -7.3303 C   0  0  0  0  0  0  0  0  0  0  0  0
   33.5809   39.5707   -7.6582 C   0  0  0  0  0  0  0  0  0  0  0  0
   33.2883   38.5976   -6.6976 C   0  0  0  0  0  0  0  0  0  0  0  0
   32.8510   39.6360   -8.8449 C   0  0  0  0  0  0  0  0  0  0  0  0
   32.2881   37.6519   -6.8788 C   0  0  0  0  0  0  0  0  0  0  0  0
   31.8744   38.6657   -9.0672 C   0  0  0  0  0  0  0  0  0  0  0  0
   31.5984   37.7032   -8.0904 C   0  0  0  0  0  0  0  0  0  0  0  0
 11 12  1  0  0  0
 12  1  1  0  0  0
  1 14  1  0  0  0
  1  4  1  0  0  0
 14 15  1  0  0  0
 15 16  2  0  0  0
 15 17  1  0  0  0
 16 18  1  0  0  0
 17 19  2  0  0  0
 18 20  2  0  0  0
 19 20  1  0  0  0
  2  3  2  0  0  0
  2  4  1  0  0  0
  2  6  1  0  0  0
  6  7  1  0  0  0
  7  8  1  0  0  0
  7  9  2  0  0  0
 11 13  1  0  0  0
  4  5  1  0  0  0
  8 10  1  0  0  0
M  END
> <minimizedAffinity>
-6.19237

$$$$
1Z9G_RRT_E_1006


 20 20  0  0  0  0  0  0  0  0999 V2000
   37.8080   39.6635   -4.0764 C   0  0  0  0  0  0  0  0  0  0  0  0
   36.2733   39.6215   -6.0235 C   0  0  0  0  0  0  0  0  0  0  0  0
   36.4979   38.4168   -6.2831 O   0  0  0  0  0  0  0  0  0  0  0  0
   36.8927   40.2618   -5.0352 N   0  0  0  0  0  0  0  0  0  0  0  0
   36.7158   41.2261   -4.9451 H   0  0  0  0  0  0  0  0  0  0  0  0
   35.2991   40.4999   -6.8946 C   0  0  0  0  0  0  0  0  0  0  0  0
   35.3171   42.0075   -6.5360 C   0  0  0  0  0  0  0  0  0  0  0  0
   34.4546   42.5468   -5.7212 O   0  0  0  0  0  0  0  0  0  0  0  0
   36.2232   42.6810   -7.0780 O   0  0  0  0  0  0  0  0  0  0  0  0
   33.7867   42.0191   -5.3295 H   0  0  0  0  0  0  0  0  0  0  0  0
   40.3247   38.8854   -3.7363 S   0  0  0  0  0  0  0  0  0  0  0  0
   38.8084   38.6743   -4.6530 C   0  0  0  0  0  0  0  0  0  0  0  0
   41.2639   38.0226   -4.2087 H   0  0  0  0  0  0  0  0  0  0  0  0
   38.5985   40.8302   -3.5175 C   0  0  0  0  0  0  0  0  0  0  0  0
   37.8209   41.6596   -2.5478 C   0  0  0  0  0  0  0  0  0  0  0  0
   37.6731   43.0203   -2.8337 C   0  0  0  0  0  0  0  0  0  0  0  0
   37.2023   41.0999   -1.4300 C   0  0  0  0  0  0  0  0  0  0  0  0
   36.9331   43.8732   -2.0259 C   0  0  0  0  0  0  0  0  0  0  0  0
   36.4945   41.9486   -0.5797 C   0  0  0  0  0  0  0  0  0  0  0  0
   36.3589   43.3064   -0.8878 C   0  0  0  0  0  0  0  0  0  0  0  0
 11 12  1  0  0  0
 12  1  1  0  0  0
  1 14  1  0  0  0
  1  4  1  0  0  0
 14 15  1  0  0  0
 15 16  2  0  0  0
 15 17  1  0  0  0
 16 18  1  0  0  0
 17 19  2  0  0  0
 18 20  2  0  0  0
 19 20  1  0  0  0
  2  3  2  0  0  0
  2  4  1  0  0  0
  2  6  1  0  0  0
  6  7  1  0  0  0
  7  8  1  0  0  0
  7  9  2  0  0  0
 11 13  1  0  0  0
  4  5  1  0  0  0
  8 10  1  0  0  0
M  END
> <minimizedAffinity>
-6.10429

$$$$
1Z9G_RRT_E_1006


 20 20  0  0  0  0  0  0  0  0999 V2000
   36.5518   41.9465   -4.0565 C   0  0  0  0  0  0  0  0  0  0  0  0
   35.9873   43.3153   -2.0675 C   0  0  0  0  0  0  0  0  0  0  0  0
   35.1916   42.4667   -1.6031 O   0  0  0  0  0  0  0  0  0  0  0  0
   36.6109   43.1417   -3.2301 N   0  0  0  0  0  0  0  0  0  0  0  0
   37.1610   43.8886   -3.5600 H   0  0  0  0  0  0  0  0  0  0  0  0
   36.2549   44.6932   -1.3539 C   0  0  0  0  0  0  0  0  0  0  0  0
   37.7569   45.0247   -1.1640 C   0  0  0  0  0  0  0  0  0  0  0  0
   38.7082   44.2156   -1.5367 O   0  0  0  0  0  0  0  0  0  0  0  0
   38.0027   46.1306   -0.6302 O   0  0  0  0  0  0  0  0  0  0  0  0
   38.4956   43.3939   -1.9338 H   0  0  0  0  0  0  0  0  0  0  0  0
   35.4727   40.6785   -6.1260 S   0  0  0  0  0  0  0  0  0  0  0  0
   36.2289   42.1784   -5.5240 C   0  0  0  0  0  0  0  0  0  0  0  0
   35.1593   40.8250   -7.4412 H   0  0  0  0  0  0  0  0  0  0  0  0
   37.9488   41.3614   -3.9893 C   0  0  0  0  0  0  0  0  0  0  0  0
   38.0143   40.0750   -3.2317 C   0  0  0  0  0  0  0  0  0  0  0  0
   38.4010   38.9297   -3.9345 C   0  0  0  0  0  0  0  0  0  0  0  0
   37.7677   40.0145   -1.8603 C   0  0  0  0  0  0  0  0  0  0  0  0
   38.5388   37.6923   -3.3202 C   0  0  0  0  0  0  0  0  0  0  0  0
   37.8538   38.7717   -1.2337 C   0  0  0  0  0  0  0  0  0  0  0  0
   38.2444   37.6402   -1.9576 C   0  0  0  0  0  0  0  0  0  0  0  0
 11 12  1  0  0  0
 12  1  1  0  0  0
  1 14  1  0  0  0
  1  4  1  0  0  0
 14 15  1  0  0  0
 15 16  2  0  0  0
 15 17  1  0  0  0
 16 18  1  0  0  0
 17 19  2  0  0  0
 18 20  2  0  0  0
 19 20  1  0  0  0
  2  3  2  0  0  0
  2  4  1  0  0  0
  2  6  1  0  0  0
  6  7  1  0  0  0
  7  8  1  0  0  0
  7  9  2  0  0  0
 11 13  1  0  0  0
  4  5  1  0  0  0
  8 10  1  0  0  0
M  END
> <minimizedAffinity>
-5.95148

$$$$
1Z9G_RRT_E_1006


 20 20  0  0  0  0  0  0  0  0999 V2000
   37.3621   42.1180   -3.1869 C   0  0  0  0  0  0  0  0  0  0  0  0
   36.3027   41.9802   -5.4246 C   0  0  0  0  0  0  0  0  0  0  0  0
   37.1031   42.7894   -5.9477 O   0  0  0  0  0  0  0  0  0  0  0  0
   36.3515   41.6694   -4.1317 N   0  0  0  0  0  0  0  0  0  0  0  0
   35.6405   41.0840   -3.7839 H   0  0  0  0  0  0  0  0  0  0  0  0
   35.1228   41.3246   -6.2353 C   0  0  0  0  0  0  0  0  0  0  0  0
   35.2301   39.7846   -6.3726 C   0  0  0  0  0  0  0  0  0  0  0  0
   34.1939   39.0239   -6.5877 O   0  0  0  0  0  0  0  0  0  0  0  0
   36.3853   39.3122   -6.2686 O   0  0  0  0  0  0  0  0  0  0  0  0
   33.3407   39.4042   -6.6612 H   0  0  0  0  0  0  0  0  0  0  0  0
   36.9586   43.4112   -0.9022 S   0  0  0  0  0  0  0  0  0  0  0  0
   37.1910   43.5365   -2.6670 C   0  0  0  0  0  0  0  0  0  0  0  0
   36.7991   44.6553   -0.3765 H   0  0  0  0  0  0  0  0  0  0  0  0
   37.2236   41.1835   -2.0012 C   0  0  0  0  0  0  0  0  0  0  0  0
   38.0539   39.9471   -2.1239 C   0  0  0  0  0  0  0  0  0  0  0  0
   39.0753   39.9463   -3.0788 C   0  0  0  0  0  0  0  0  0  0  0  0
   37.8735   38.8519   -1.2793 C   0  0  0  0  0  0  0  0  0  0  0  0
   39.9349   38.8689   -3.2462 C   0  0  0  0  0  0  0  0  0  0  0  0
   38.6955   37.7406   -1.4635 C   0  0  0  0  0  0  0  0  0  0  0  0
   39.7118   37.7640   -2.4244 C   0  0  0  0  0  0  0  0  0  0  0  0
 11 12  1  0  0  0
 12  1  1  0  0  0
  1 14  1  0  0  0
  1  4  1  0  0  0
 14 15  1  0  0  0
 15 16  2  0  0  0
 15 17  1  0  0  0
 16 18  1  0  0  0
 17 19  2  0  0  0
 18 20  2  0  0  0
 19 20  1  0  0  0
  2  3  2  0  0  0
  2  4  1  0  0  0
  2  6  1  0  0  0
  6  7  1  0  0  0
  7  8  1  0  0  0
  7  9  2  0  0  0
 11 13  1  0  0  0
  4  5  1  0  0  0
  8 10  1  0  0  0
M  END
> <minimizedAffinity>
-5.86479

$$$$
1Z9G_RRT_E_1006


 20 20  0  0  0  0  0  0  0  0999 V2000
   38.2235   38.9246   -3.1911 C   0  0  0  0  0  0  0  0  0  0  0  0
   37.9904   41.2482   -2.3575 C   0  0  0  0  0  0  0  0  0  0  0  0
   38.8275   41.7129   -3.1653 O   0  0  0  0  0  0  0  0  0  0  0  0
   37.7076   39.9495   -2.2974 N   0  0  0  0  0  0  0  0  0  0  0  0
   37.0948   39.6563   -1.5848 H   0  0  0  0  0  0  0  0  0  0  0  0
   37.2620   42.1505   -1.2924 C   0  0  0  0  0  0  0  0  0  0  0  0
   35.8632   42.6483   -1.7370 C   0  0  0  0  0  0  0  0  0  0  0  0
   34.8663   41.8384   -1.9584 O   0  0  0  0  0  0  0  0  0  0  0  0
   35.7471   43.8885   -1.8665 O   0  0  0  0  0  0  0  0  0  0  0  0
   34.9812   40.9144   -1.8538 H   0  0  0  0  0  0  0  0  0  0  0  0
   38.6334   37.7460   -5.5358 S   0  0  0  0  0  0  0  0  0  0  0  0
   38.0056   39.1771   -4.6745 C   0  0  0  0  0  0  0  0  0  0  0  0
   38.4658   37.9132   -6.8751 H   0  0  0  0  0  0  0  0  0  0  0  0
   39.7201   38.9198   -2.9497 C   0  0  0  0  0  0  0  0  0  0  0  0
   40.1818   37.7602   -2.1279 C   0  0  0  0  0  0  0  0  0  0  0  0
   41.4387   37.2211   -2.4189 C   0  0  0  0  0  0  0  0  0  0  0  0
   39.4287   37.2657   -1.0632 C   0  0  0  0  0  0  0  0  0  0  0  0
   41.9846   36.1733   -1.6896 C   0  0  0  0  0  0  0  0  0  0  0  0
   39.9379   36.1820   -0.3485 C   0  0  0  0  0  0  0  0  0  0  0  0
   41.1988   35.6608   -0.6572 C   0  0  0  0  0  0  0  0  0  0  0  0
 11 12  1  0  0  0
 12  1  1  0  0  0
  1 14  1  0  0  0
  1  4  1  0  0  0
 14 15  1  0  0  0
 15 16  2  0  0  0
 15 17  1  0  0  0
 16 18  1  0  0  0
 17 19  2  0  0  0
 18 20  2  0  0  0
 19 20  1  0  0  0
  2  3  2  0  0  0
  2  4  1  0  0  0
  2  6  1  0  0  0
  6  7  1  0  0  0
  7  8  1  0  0  0
  7  9  2  0  0  0
 11 13  1  0  0  0
  4  5  1  0  0  0
  8 10  1  0  0  0
M  END
> <minimizedAffinity>
-5.32273

$$$$
