4Z1K_4KB_A_302


 28 30  0  0  0  0  0  0  0  0999 V2000
   18.6427   10.9734   11.6390 C   0  0  0  0  0  0  0  0  0  0  0  0
   18.5189   10.0036   12.6260 C   0  0  0  0  0  0  0  0  0  0  0  0
   16.4900    7.2186   13.2553 C   0  0  0  0  0  0  0  0  0  0  0  0
   18.0322    8.6952   12.1539 C   0  0  0  0  0  0  0  0  0  0  0  0
   18.5542    7.8652   14.3934 C   0  0  0  0  0  0  0  0  0  0  0  0
   18.6873    9.2414   14.9815 C   0  0  0  0  0  0  0  0  0  0  0  0
   18.8417   10.2754   13.9539 C   0  0  0  0  0  0  0  0  0  0  0  0
   15.6308    7.3459   12.3461 O   0  0  0  0  0  0  0  0  0  0  0  0
   17.6755    7.8447   13.2921 N   0  0  0  0  0  0  0  0  0  0  0  0
   19.3172   11.5329   14.3410 C   0  0  0  0  0  0  0  0  0  0  0  0
   19.4494   12.5160   13.3530 C   0  0  0  0  0  0  0  0  0  0  0  0
   19.9299   13.7411   13.8046 O   0  0  0  0  0  0  0  0  0  0  0  0
   19.1069   12.2271   12.0164 C   0  0  0  0  0  0  0  0  0  0  0  0
   19.2386   13.2139   11.0422 O   0  0  0  0  0  0  0  0  0  0  0  0
   20.0458   14.4497   13.2026 H   0  0  0  0  0  0  0  0  0  0  0  0
   19.0122   13.0269   10.1524 H   0  0  0  0  0  0  0  0  0  0  0  0
   16.1293    6.1843   14.2652 C   0  0  0  0  0  0  0  0  0  0  0  0
   16.8834    5.0228   14.4380 C   0  0  0  0  0  0  0  0  0  0  0  0
   16.4553    4.0533   15.3570 C   0  0  0  0  0  0  0  0  0  0  0  0
   15.0097    6.3571   15.0090 C   0  0  0  0  0  0  0  0  0  0  0  0
   14.5805    5.3868   15.8840 C   0  0  0  0  0  0  0  0  0  0  0  0
   15.2937    4.1962   16.1062 C   0  0  0  0  0  0  0  0  0  0  0  0
   14.6886    3.0281   17.2128 S   0  0  0  0  0  0  0  0  0  0  0  0
   15.5955    1.7497   17.0878 N   0  0  0  0  0  0  0  0  0  0  0  0
   13.3633    2.8028   16.7968 O   0  0  0  0  0  0  0  0  0  0  0  0
   14.8276    3.5896   18.5138 O   0  0  0  0  0  0  0  0  0  0  0  0
   15.4934    1.3503   16.1549 H   0  0  0  0  0  0  0  0  0  0  0  0
   15.3112    1.0618   17.7852 H   0  0  0  0  0  0  0  0  0  0  0  0
 14 13  1  0  0  0
  1 13  2  0  0  0
  1  2  1  0  0  0
  4  2  1  0  0  0
  4  9  1  0  0  0
 13 11  1  0  0  0
  8  3  2  0  0  0
  2  7  2  0  0  0
  9  3  1  0  0  0
  9  5  1  0  0  0
  3 17  1  0  0  0
 11 12  1  0  0  0
 11 10  2  0  0  0
  7 10  1  0  0  0
  7  6  1  0  0  0
  5  6  1  0  0  0
 17 18  2  0  0  0
 17 20  1  0  0  0
 18 19  1  0  0  0
 20 21  2  0  0  0
 19 22  2  0  0  0
 21 22  1  0  0  0
 22 23  1  0  0  0
 24 23  1  0  0  0
 25 23  2  0  0  0
 23 26  2  0  0  0
 24 27  1  0  0  0
 24 28  1  0  0  0
 12 15  1  0  0  0
 14 16  1  0  0  0
M  END
> <minimizedAffinity>
-8.69891

$$$$
4Z1K_4KB_A_302


 28 30  0  0  0  0  0  0  0  0999 V2000
   18.7661   11.0954   11.9637 C   0  0  0  0  0  0  0  0  0  0  0  0
   18.5600   10.0470   12.8514 C   0  0  0  0  0  0  0  0  0  0  0  0
   16.3782    7.3235   13.1534 C   0  0  0  0  0  0  0  0  0  0  0  0
   18.0286    8.8138   12.2442 C   0  0  0  0  0  0  0  0  0  0  0  0
   18.4282    7.7567   14.4120 C   0  0  0  0  0  0  0  0  0  0  0  0
   18.6057    9.0646   15.1298 C   0  0  0  0  0  0  0  0  0  0  0  0
   18.8469   10.1791   14.2086 C   0  0  0  0  0  0  0  0  0  0  0  0
   15.5598    7.5773   12.2331 O   0  0  0  0  0  0  0  0  0  0  0  0
   17.5903    7.8821   13.2862 N   0  0  0  0  0  0  0  0  0  0  0  0
   19.3679   11.3699   14.7261 C   0  0  0  0  0  0  0  0  0  0  0  0
   19.5831   12.4313   13.8388 C   0  0  0  0  0  0  0  0  0  0  0  0
   20.1051   13.5836   14.4178 O   0  0  0  0  0  0  0  0  0  0  0  0
   19.2759   12.2839   12.4709 C   0  0  0  0  0  0  0  0  0  0  0  0
   19.4903   13.3477   11.5977 O   0  0  0  0  0  0  0  0  0  0  0  0
   20.2767   14.3375   13.8885 H   0  0  0  0  0  0  0  0  0  0  0  0
   19.2878   13.2548   10.6875 H   0  0  0  0  0  0  0  0  0  0  0  0
   15.9317    6.2209   14.0505 C   0  0  0  0  0  0  0  0  0  0  0  0
   14.9071    6.3926   14.9822 C   0  0  0  0  0  0  0  0  0  0  0  0
   14.5773    5.3382   15.8465 C   0  0  0  0  0  0  0  0  0  0  0  0
   16.5699    5.0269   13.9888 C   0  0  0  0  0  0  0  0  0  0  0  0
   16.2616    4.0099   14.8616 C   0  0  0  0  0  0  0  0  0  0  0  0
   15.2404    4.1172   15.8215 C   0  0  0  0  0  0  0  0  0  0  0  0
   14.9185    2.8027   16.8815 S   0  0  0  0  0  0  0  0  0  0  0  0
   15.4791    3.1939   18.2975 N   0  0  0  0  0  0  0  0  0  0  0  0
   15.5964    1.7123   16.3057 O   0  0  0  0  0  0  0  0  0  0  0  0
   13.5024    2.6694   16.9463 O   0  0  0  0  0  0  0  0  0  0  0  0
   16.4935    3.2885   18.2473 H   0  0  0  0  0  0  0  0  0  0  0  0
   15.2384    2.4669   18.9712 H   0  0  0  0  0  0  0  0  0  0  0  0
 14 13  1  0  0  0
  1 13  2  0  0  0
  1  2  1  0  0  0
  4  2  1  0  0  0
  4  9  1  0  0  0
 13 11  1  0  0  0
  8  3  2  0  0  0
  2  7  2  0  0  0
  9  3  1  0  0  0
  9  5  1  0  0  0
  3 17  1  0  0  0
 11 12  1  0  0  0
 11 10  2  0  0  0
  7 10  1  0  0  0
  7  6  1  0  0  0
  5  6  1  0  0  0
 17 18  2  0  0  0
 17 20  1  0  0  0
 18 19  1  0  0  0
 20 21  2  0  0  0
 19 22  2  0  0  0
 21 22  1  0  0  0
 22 23  1  0  0  0
 24 23  1  0  0  0
 25 23  2  0  0  0
 23 26  2  0  0  0
 24 27  1  0  0  0
 24 28  1  0  0  0
 12 15  1  0  0  0
 14 16  1  0  0  0
M  END
> <minimizedAffinity>
-8.60422

$$$$
4Z1K_4KB_A_302


 28 30  0  0  0  0  0  0  0  0999 V2000
   20.4079    7.6440   10.0805 C   0  0  0  0  0  0  0  0  0  0  0  0
   19.6123    6.7057   10.7259 C   0  0  0  0  0  0  0  0  0  0  0  0
   17.5306    6.5990   13.5409 C   0  0  0  0  0  0  0  0  0  0  0  0
   18.4329    7.2595   11.4145 C   0  0  0  0  0  0  0  0  0  0  0  0
   17.7351    4.9415   11.7561 C   0  0  0  0  0  0  0  0  0  0  0  0
   19.0834    4.3785   11.4059 C   0  0  0  0  0  0  0  0  0  0  0  0
   19.9285    5.3489   10.7036 C   0  0  0  0  0  0  0  0  0  0  0  0
   17.7806    7.7175   14.0581 O   0  0  0  0  0  0  0  0  0  0  0  0
   17.8281    6.2455   12.2817 N   0  0  0  0  0  0  0  0  0  0  0  0
   21.0529    4.8784   10.0169 C   0  0  0  0  0  0  0  0  0  0  0  0
   21.8591    5.8156    9.3598 C   0  0  0  0  0  0  0  0  0  0  0  0
   22.9579    5.2809    8.6947 O   0  0  0  0  0  0  0  0  0  0  0  0
   21.5307    7.1859    9.4028 C   0  0  0  0  0  0  0  0  0  0  0  0
   22.3419    8.1101    8.7488 O   0  0  0  0  0  0  0  0  0  0  0  0
   23.5451    5.8450    8.2311 H   0  0  0  0  0  0  0  0  0  0  0  0
   22.1280    9.0220    8.7743 H   0  0  0  0  0  0  0  0  0  0  0  0
   16.7369    5.7040   14.4290 C   0  0  0  0  0  0  0  0  0  0  0  0
   15.3821    5.9233   14.6821 C   0  0  0  0  0  0  0  0  0  0  0  0
   14.7045    5.0866   15.5813 C   0  0  0  0  0  0  0  0  0  0  0  0
   17.3608    4.6699   15.0438 C   0  0  0  0  0  0  0  0  0  0  0  0
   16.6965    3.8748   15.9481 C   0  0  0  0  0  0  0  0  0  0  0  0
   15.3330    4.0409   16.2464 C   0  0  0  0  0  0  0  0  0  0  0  0
   14.5746    3.0094   17.3936 S   0  0  0  0  0  0  0  0  0  0  0  0
   15.4047    1.6751   17.4455 N   0  0  0  0  0  0  0  0  0  0  0  0
   13.2719    2.8255   16.8943 O   0  0  0  0  0  0  0  0  0  0  0  0
   14.6528    3.6724   18.6513 O   0  0  0  0  0  0  0  0  0  0  0  0
   15.3463    1.2031   16.5432 H   0  0  0  0  0  0  0  0  0  0  0  0
   15.0264    1.0674   18.1722 H   0  0  0  0  0  0  0  0  0  0  0  0
 14 13  1  0  0  0
  1 13  2  0  0  0
  1  2  1  0  0  0
  4  2  1  0  0  0
  4  9  1  0  0  0
 13 11  1  0  0  0
  8  3  2  0  0  0
  2  7  2  0  0  0
  9  3  1  0  0  0
  9  5  1  0  0  0
  3 17  1  0  0  0
 11 12  1  0  0  0
 11 10  2  0  0  0
  7 10  1  0  0  0
  7  6  1  0  0  0
  5  6  1  0  0  0
 17 18  2  0  0  0
 17 20  1  0  0  0
 18 19  1  0  0  0
 20 21  2  0  0  0
 19 22  2  0  0  0
 21 22  1  0  0  0
 22 23  1  0  0  0
 24 23  1  0  0  0
 25 23  2  0  0  0
 23 26  2  0  0  0
 24 27  1  0  0  0
 24 28  1  0  0  0
 12 15  1  0  0  0
 14 16  1  0  0  0
M  END
> <minimizedAffinity>
-8.34199

$$$$
4Z1K_4KB_A_302


 28 30  0  0  0  0  0  0  0  0999 V2000
   16.5274    3.2369   15.2540 C   0  0  0  0  0  0  0  0  0  0  0  0
   16.4104    4.5701   14.8816 C   0  0  0  0  0  0  0  0  0  0  0  0
   18.5540    7.1757   13.9411 C   0  0  0  0  0  0  0  0  0  0  0  0
   17.4421    5.0460   13.9431 C   0  0  0  0  0  0  0  0  0  0  0  0
   16.1175    7.0932   13.7650 C   0  0  0  0  0  0  0  0  0  0  0  0
   15.2878    6.7811   14.9781 C   0  0  0  0  0  0  0  0  0  0  0  0
   15.3819    5.3722   15.3719 C   0  0  0  0  0  0  0  0  0  0  0  0
   19.6731    6.6553   14.1821 O   0  0  0  0  0  0  0  0  0  0  0  0
   17.3966    6.5063   13.8354 N   0  0  0  0  0  0  0  0  0  0  0  0
   14.4185    4.8599   16.2475 C   0  0  0  0  0  0  0  0  0  0  0  0
   14.5253    3.5162   16.6258 C   0  0  0  0  0  0  0  0  0  0  0  0
   13.5345    3.0706   17.4949 O   0  0  0  0  0  0  0  0  0  0  0  0
   15.5793    2.7225   16.1293 C   0  0  0  0  0  0  0  0  0  0  0  0
   15.6782    1.3878   16.5153 O   0  0  0  0  0  0  0  0  0  0  0  0
   13.5380    2.1825   17.7935 H   0  0  0  0  0  0  0  0  0  0  0  0
   16.3769    0.8561   16.1881 H   0  0  0  0  0  0  0  0  0  0  0  0
   18.6342    8.6342   13.6477 C   0  0  0  0  0  0  0  0  0  0  0  0
   18.5263    9.1359   12.3499 C   0  0  0  0  0  0  0  0  0  0  0  0
   18.6784   10.5127   12.1282 C   0  0  0  0  0  0  0  0  0  0  0  0
   18.8618    9.4964   14.6683 C   0  0  0  0  0  0  0  0  0  0  0  0
   19.0415   10.8401   14.4373 C   0  0  0  0  0  0  0  0  0  0  0  0
   18.9440   11.4095   13.1559 C   0  0  0  0  0  0  0  0  0  0  0  0
   19.1875   13.0983   12.9474 S   0  0  0  0  0  0  0  0  0  0  0  0
   20.5383   13.2843   12.1644 N   0  0  0  0  0  0  0  0  0  0  0  0
   19.2380   13.6109   14.2569 O   0  0  0  0  0  0  0  0  0  0  0  0
   18.1040   13.5709   12.1537 O   0  0  0  0  0  0  0  0  0  0  0  0
   21.3120   12.9448   12.7358 H   0  0  0  0  0  0  0  0  0  0  0  0
   20.6774   14.2732   11.9566 H   0  0  0  0  0  0  0  0  0  0  0  0
 14 13  1  0  0  0
  1 13  2  0  0  0
  1  2  1  0  0  0
  4  2  1  0  0  0
  4  9  1  0  0  0
 13 11  1  0  0  0
  8  3  2  0  0  0
  2  7  2  0  0  0
  9  3  1  0  0  0
  9  5  1  0  0  0
  3 17  1  0  0  0
 11 12  1  0  0  0
 11 10  2  0  0  0
  7 10  1  0  0  0
  7  6  1  0  0  0
  5  6  1  0  0  0
 17 18  2  0  0  0
 17 20  1  0  0  0
 18 19  1  0  0  0
 20 21  2  0  0  0
 19 22  2  0  0  0
 21 22  1  0  0  0
 22 23  1  0  0  0
 24 23  1  0  0  0
 25 23  2  0  0  0
 23 26  2  0  0  0
 24 27  1  0  0  0
 24 28  1  0  0  0
 12 15  1  0  0  0
 14 16  1  0  0  0
M  END
> <minimizedAffinity>
-8.28002

$$$$
4Z1K_4KB_A_302


 28 30  0  0  0  0  0  0  0  0999 V2000
   16.5216    3.1750   15.2333 C   0  0  0  0  0  0  0  0  0  0  0  0
   16.4495    4.5053   14.8396 C   0  0  0  0  0  0  0  0  0  0  0  0
   18.6784    7.0183   13.8467 C   0  0  0  0  0  0  0  0  0  0  0  0
   17.4924    4.9293   13.8888 C   0  0  0  0  0  0  0  0  0  0  0  0
   16.2396    7.0186   13.6831 C   0  0  0  0  0  0  0  0  0  0  0  0
   15.4056    6.7557   14.9050 C   0  0  0  0  0  0  0  0  0  0  0  0
   15.4522    5.3509   15.3214 C   0  0  0  0  0  0  0  0  0  0  0  0
   19.7797    6.4628   14.0911 O   0  0  0  0  0  0  0  0  0  0  0  0
   17.4977    6.3883   13.7574 N   0  0  0  0  0  0  0  0  0  0  0  0
   14.4760    4.8871   16.2097 C   0  0  0  0  0  0  0  0  0  0  0  0
   14.5376    3.5468   16.6095 C   0  0  0  0  0  0  0  0  0  0  0  0
   13.5361    3.1505   17.4903 O   0  0  0  0  0  0  0  0  0  0  0  0
   15.5605    2.7086   16.1213 C   0  0  0  0  0  0  0  0  0  0  0  0
   15.6145    1.3777   16.5287 O   0  0  0  0  0  0  0  0  0  0  0  0
   13.5100    2.2677   17.8034 H   0  0  0  0  0  0  0  0  0  0  0  0
   16.2924    0.8164   16.2072 H   0  0  0  0  0  0  0  0  0  0  0  0
   18.8081    8.4680   13.5290 C   0  0  0  0  0  0  0  0  0  0  0  0
   18.7155    8.9516   12.2232 C   0  0  0  0  0  0  0  0  0  0  0  0
   18.9145   10.3185   11.9785 C   0  0  0  0  0  0  0  0  0  0  0  0
   19.0669    9.3387   14.5349 C   0  0  0  0  0  0  0  0  0  0  0  0
   19.2923   10.6714   14.2815 C   0  0  0  0  0  0  0  0  0  0  0  0
   19.2123   11.2225   12.9909 C   0  0  0  0  0  0  0  0  0  0  0  0
   19.5135   12.8983   12.7541 S   0  0  0  0  0  0  0  0  0  0  0  0
   18.2637   13.6811   13.2994 N   0  0  0  0  0  0  0  0  0  0  0  0
   19.6804   13.0327   11.3633 O   0  0  0  0  0  0  0  0  0  0  0  0
   20.6595   13.2203   13.5352 O   0  0  0  0  0  0  0  0  0  0  0  0
   17.4448   13.4481   12.7376 H   0  0  0  0  0  0  0  0  0  0  0  0
   18.4399   14.6842   13.2438 H   0  0  0  0  0  0  0  0  0  0  0  0
 14 13  1  0  0  0
  1 13  2  0  0  0
  1  2  1  0  0  0
  4  2  1  0  0  0
  4  9  1  0  0  0
 13 11  1  0  0  0
  8  3  2  0  0  0
  2  7  2  0  0  0
  9  3  1  0  0  0
  9  5  1  0  0  0
  3 17  1  0  0  0
 11 12  1  0  0  0
 11 10  2  0  0  0
  7 10  1  0  0  0
  7  6  1  0  0  0
  5  6  1  0  0  0
 17 18  2  0  0  0
 17 20  1  0  0  0
 18 19  1  0  0  0
 20 21  2  0  0  0
 19 22  2  0  0  0
 21 22  1  0  0  0
 22 23  1  0  0  0
 24 23  1  0  0  0
 25 23  2  0  0  0
 23 26  2  0  0  0
 24 27  1  0  0  0
 24 28  1  0  0  0
 12 15  1  0  0  0
 14 16  1  0  0  0
M  END
> <minimizedAffinity>
-7.81477

$$$$
4Z1K_4KB_A_302


 28 30  0  0  0  0  0  0  0  0999 V2000
   19.4577   11.0598   14.6166 C   0  0  0  0  0  0  0  0  0  0  0  0
   18.8585   10.0665   13.8523 C   0  0  0  0  0  0  0  0  0  0  0  0
   18.6244    6.5720   13.9020 C   0  0  0  0  0  0  0  0  0  0  0  0
   18.4547    8.8639   14.6023 C   0  0  0  0  0  0  0  0  0  0  0  0
   17.3342    8.1480   12.5507 C   0  0  0  0  0  0  0  0  0  0  0  0
   18.0438    9.1564   11.6922 C   0  0  0  0  0  0  0  0  0  0  0  0
   18.6633   10.2249   12.4817 C   0  0  0  0  0  0  0  0  0  0  0  0
   19.4483    6.2962   14.8110 O   0  0  0  0  0  0  0  0  0  0  0  0
   18.0972    7.7848   13.6782 N   0  0  0  0  0  0  0  0  0  0  0  0
   19.0511   11.3982   11.8257 C   0  0  0  0  0  0  0  0  0  0  0  0
   19.6524   12.4070   12.5880 C   0  0  0  0  0  0  0  0  0  0  0  0
   20.0103   13.5468   11.8750 O   0  0  0  0  0  0  0  0  0  0  0  0
   19.8528   12.2249   13.9714 C   0  0  0  0  0  0  0  0  0  0  0  0
   20.4555   13.2335   14.7194 O   0  0  0  0  0  0  0  0  0  0  0  0
   20.4181   14.2662   12.3156 H   0  0  0  0  0  0  0  0  0  0  0  0
   20.5910   13.1174   15.6393 H   0  0  0  0  0  0  0  0  0  0  0  0
   18.1658    5.3763   13.1407 C   0  0  0  0  0  0  0  0  0  0  0  0
   17.0416    4.6421   13.5210 C   0  0  0  0  0  0  0  0  0  0  0  0
   16.6988    3.4856   12.8049 C   0  0  0  0  0  0  0  0  0  0  0  0
   18.8882    4.9642   12.0706 C   0  0  0  0  0  0  0  0  0  0  0  0
   18.5632    3.8115   11.3946 C   0  0  0  0  0  0  0  0  0  0  0  0
   17.4440    3.0279   11.7250 C   0  0  0  0  0  0  0  0  0  0  0  0
   17.1070    1.5961   10.8353 S   0  0  0  0  0  0  0  0  0  0  0  0
   15.8104    1.8649    9.9876 N   0  0  0  0  0  0  0  0  0  0  0  0
   16.9239    0.6060   11.8183 O   0  0  0  0  0  0  0  0  0  0  0  0
   18.2145    1.3876    9.9651 O   0  0  0  0  0  0  0  0  0  0  0  0
   15.0194    2.0138   10.6142 H   0  0  0  0  0  0  0  0  0  0  0  0
   15.6230    1.0608    9.3887 H   0  0  0  0  0  0  0  0  0  0  0  0
 14 13  1  0  0  0
  1 13  2  0  0  0
  1  2  1  0  0  0
  4  2  1  0  0  0
  4  9  1  0  0  0
 13 11  1  0  0  0
  8  3  2  0  0  0
  2  7  2  0  0  0
  9  3  1  0  0  0
  9  5  1  0  0  0
  3 17  1  0  0  0
 11 12  1  0  0  0
 11 10  2  0  0  0
  7 10  1  0  0  0
  7  6  1  0  0  0
  5  6  1  0  0  0
 17 18  2  0  0  0
 17 20  1  0  0  0
 18 19  1  0  0  0
 20 21  2  0  0  0
 19 22  2  0  0  0
 21 22  1  0  0  0
 22 23  1  0  0  0
 24 23  1  0  0  0
 25 23  2  0  0  0
 23 26  2  0  0  0
 24 27  1  0  0  0
 24 28  1  0  0  0
 12 15  1  0  0  0
 14 16  1  0  0  0
M  END
> <minimizedAffinity>
-7.41430

$$$$
4Z1K_4KB_A_302


 28 30  0  0  0  0  0  0  0  0999 V2000
   16.9612    3.2930   12.4131 C   0  0  0  0  0  0  0  0  0  0  0  0
   17.0489    4.5807   12.9267 C   0  0  0  0  0  0  0  0  0  0  0  0
   18.6973    7.5645   12.1210 C   0  0  0  0  0  0  0  0  0  0  0  0
   17.2788    5.6355   11.9236 C   0  0  0  0  0  0  0  0  0  0  0  0
   16.8936    7.2300   13.7364 C   0  0  0  0  0  0  0  0  0  0  0  0
   17.0342    6.1922   14.8138 C   0  0  0  0  0  0  0  0  0  0  0  0
   16.9214    4.8268   14.2923 C   0  0  0  0  0  0  0  0  0  0  0  0
   19.4583    7.1693   11.2013 O   0  0  0  0  0  0  0  0  0  0  0  0
   17.6301    6.8958   12.5825 N   0  0  0  0  0  0  0  0  0  0  0  0
   16.6853    3.7861   15.1969 C   0  0  0  0  0  0  0  0  0  0  0  0
   16.5911    2.4849   14.6887 C   0  0  0  0  0  0  0  0  0  0  0  0
   16.3526    1.4988   15.6408 O   0  0  0  0  0  0  0  0  0  0  0  0
   16.7345    2.2529   13.3056 C   0  0  0  0  0  0  0  0  0  0  0  0
   16.6430    0.9539   12.8113 O   0  0  0  0  0  0  0  0  0  0  0  0
   16.2768    0.6026   15.3781 H   0  0  0  0  0  0  0  0  0  0  0  0
   16.7375    0.7943   11.8928 H   0  0  0  0  0  0  0  0  0  0  0  0
   19.0107    8.9424   12.5929 C   0  0  0  0  0  0  0  0  0  0  0  0
   18.5088   10.0767   11.9534 C   0  0  0  0  0  0  0  0  0  0  0  0
   18.8943   11.3486   12.4021 C   0  0  0  0  0  0  0  0  0  0  0  0
   19.8439    9.0993   13.6502 C   0  0  0  0  0  0  0  0  0  0  0  0
   20.2417   10.3494   14.0627 C   0  0  0  0  0  0  0  0  0  0  0  0
   19.7724   11.5312   13.4636 C   0  0  0  0  0  0  0  0  0  0  0  0
   20.3214   13.0575   14.0328 S   0  0  0  0  0  0  0  0  0  0  0  0
   21.1434   12.7996   15.3481 N   0  0  0  0  0  0  0  0  0  0  0  0
   19.1434   13.7935   14.2580 O   0  0  0  0  0  0  0  0  0  0  0  0
   21.1800   13.5827   13.0257 O   0  0  0  0  0  0  0  0  0  0  0  0
   20.5253   12.4236   16.0671 H   0  0  0  0  0  0  0  0  0  0  0  0
   21.5487   13.6773   15.6733 H   0  0  0  0  0  0  0  0  0  0  0  0
 14 13  1  0  0  0
  1 13  2  0  0  0
  1  2  1  0  0  0
  4  2  1  0  0  0
  4  9  1  0  0  0
 13 11  1  0  0  0
  8  3  2  0  0  0
  2  7  2  0  0  0
  9  3  1  0  0  0
  9  5  1  0  0  0
  3 17  1  0  0  0
 11 12  1  0  0  0
 11 10  2  0  0  0
  7 10  1  0  0  0
  7  6  1  0  0  0
  5  6  1  0  0  0
 17 18  2  0  0  0
 17 20  1  0  0  0
 18 19  1  0  0  0
 20 21  2  0  0  0
 19 22  2  0  0  0
 21 22  1  0  0  0
 22 23  1  0  0  0
 24 23  1  0  0  0
 25 23  2  0  0  0
 23 26  2  0  0  0
 24 27  1  0  0  0
 24 28  1  0  0  0
 12 15  1  0  0  0
 14 16  1  0  0  0
M  END
> <minimizedAffinity>
-7.02644

$$$$
4Z1K_4KB_A_302


 28 30  0  0  0  0  0  0  0  0999 V2000
   16.8381    3.0812   12.6529 C   0  0  0  0  0  0  0  0  0  0  0  0
   17.6736    4.1874   12.7428 C   0  0  0  0  0  0  0  0  0  0  0  0
   17.4197    7.5255   13.7731 C   0  0  0  0  0  0  0  0  0  0  0  0
   17.3483    5.1248   13.8324 C   0  0  0  0  0  0  0  0  0  0  0  0
   19.4473    6.2515   13.2829 C   0  0  0  0  0  0  0  0  0  0  0  0
   19.5929    5.5524   11.9610 C   0  0  0  0  0  0  0  0  0  0  0  0
   18.7343    4.3687   11.8576 C   0  0  0  0  0  0  0  0  0  0  0  0
   16.1777    7.6231   13.9431 O   0  0  0  0  0  0  0  0  0  0  0  0
   18.0978    6.3730   13.6698 N   0  0  0  0  0  0  0  0  0  0  0  0
   19.0067    3.4344   10.8525 C   0  0  0  0  0  0  0  0  0  0  0  0
   18.1728    2.3139   10.7560 C   0  0  0  0  0  0  0  0  0  0  0  0
   18.5010    1.4240    9.7381 O   0  0  0  0  0  0  0  0  0  0  0  0
   17.0971    2.1526   11.6527 C   0  0  0  0  0  0  0  0  0  0  0  0
   16.2714    1.0359   11.5452 O   0  0  0  0  0  0  0  0  0  0  0  0
   17.9894    0.6495    9.6099 H   0  0  0  0  0  0  0  0  0  0  0  0
   15.5550    0.9241   12.1387 H   0  0  0  0  0  0  0  0  0  0  0  0
   18.1252    8.8369   13.8210 C   0  0  0  0  0  0  0  0  0  0  0  0
   18.4584    9.5417   12.6635 C   0  0  0  0  0  0  0  0  0  0  0  0
   19.1833   10.7380   12.7694 C   0  0  0  0  0  0  0  0  0  0  0  0
   18.4925    9.3398   15.0248 C   0  0  0  0  0  0  0  0  0  0  0  0
   19.2307   10.4964   15.1169 C   0  0  0  0  0  0  0  0  0  0  0  0
   19.5972   11.2543   13.9913 C   0  0  0  0  0  0  0  0  0  0  0  0
   20.5265   12.6871   14.1881 S   0  0  0  0  0  0  0  0  0  0  0  0
   21.4577   12.8190   12.9281 N   0  0  0  0  0  0  0  0  0  0  0  0
   21.2441   12.4800   15.3808 O   0  0  0  0  0  0  0  0  0  0  0  0
   19.6029   13.7704   14.2177 O   0  0  0  0  0  0  0  0  0  0  0  0
   22.1177   12.0416   12.9103 H   0  0  0  0  0  0  0  0  0  0  0  0
   21.9705   13.6995   12.9751 H   0  0  0  0  0  0  0  0  0  0  0  0
 14 13  1  0  0  0
  1 13  2  0  0  0
  1  2  1  0  0  0
  4  2  1  0  0  0
  4  9  1  0  0  0
 13 11  1  0  0  0
  8  3  2  0  0  0
  2  7  2  0  0  0
  9  3  1  0  0  0
  9  5  1  0  0  0
  3 17  1  0  0  0
 11 12  1  0  0  0
 11 10  2  0  0  0
  7 10  1  0  0  0
  7  6  1  0  0  0
  5  6  1  0  0  0
 17 18  2  0  0  0
 17 20  1  0  0  0
 18 19  1  0  0  0
 20 21  2  0  0  0
 19 22  2  0  0  0
 21 22  1  0  0  0
 22 23  1  0  0  0
 24 23  1  0  0  0
 25 23  2  0  0  0
 23 26  2  0  0  0
 24 27  1  0  0  0
 24 28  1  0  0  0
 12 15  1  0  0  0
 14 16  1  0  0  0
M  END
> <minimizedAffinity>
-6.98930

$$$$
4Z1K_4KB_A_302


 28 30  0  0  0  0  0  0  0  0999 V2000
   16.6729    3.0473   14.0387 C   0  0  0  0  0  0  0  0  0  0  0  0
   16.5320    4.4193   13.8726 C   0  0  0  0  0  0  0  0  0  0  0  0
   17.9873    6.9367   11.9197 C   0  0  0  0  0  0  0  0  0  0  0  0
   16.8346    4.9156   12.5184 C   0  0  0  0  0  0  0  0  0  0  0  0
   15.9596    7.0683   13.2782 C   0  0  0  0  0  0  0  0  0  0  0  0
   16.0036    6.6869   14.7308 C   0  0  0  0  0  0  0  0  0  0  0  0
   16.1295    5.2394   14.9247 C   0  0  0  0  0  0  0  0  0  0  0  0
   18.9417    6.3051   11.3988 O   0  0  0  0  0  0  0  0  0  0  0  0
   16.9272    6.3776   12.5218 N   0  0  0  0  0  0  0  0  0  0  0  0
   15.8376    4.7087   16.1859 C   0  0  0  0  0  0  0  0  0  0  0  0
   15.9727    3.3264   16.3624 C   0  0  0  0  0  0  0  0  0  0  0  0
   15.6640    2.8648   17.6381 O   0  0  0  0  0  0  0  0  0  0  0  0
   16.3925    2.5134   15.2901 C   0  0  0  0  0  0  0  0  0  0  0  0
   16.5273    1.1398   15.4779 O   0  0  0  0  0  0  0  0  0  0  0  0
   15.7302    1.9510   17.8344 H   0  0  0  0  0  0  0  0  0  0  0  0
   16.8061    0.5950   14.7684 H   0  0  0  0  0  0  0  0  0  0  0  0
   18.0654    8.4081   11.6995 C   0  0  0  0  0  0  0  0  0  0  0  0
   18.7674    9.2503   12.5630 C   0  0  0  0  0  0  0  0  0  0  0  0
   18.7478   10.6354   12.3423 C   0  0  0  0  0  0  0  0  0  0  0  0
   17.3981    8.9503   10.6519 C   0  0  0  0  0  0  0  0  0  0  0  0
   17.3580   10.3118   10.4621 C   0  0  0  0  0  0  0  0  0  0  0  0
   18.0439   11.2143   11.2932 C   0  0  0  0  0  0  0  0  0  0  0  0
   17.9399   12.9039   10.9942 S   0  0  0  0  0  0  0  0  0  0  0  0
   18.3147   13.6409   12.3315 N   0  0  0  0  0  0  0  0  0  0  0  0
   16.6021   13.1116   10.6102 O   0  0  0  0  0  0  0  0  0  0  0  0
   18.9096   13.2008    9.9947 O   0  0  0  0  0  0  0  0  0  0  0  0
   17.6181   13.4260   13.0449 H   0  0  0  0  0  0  0  0  0  0  0  0
   18.3367   14.6478   12.1702 H   0  0  0  0  0  0  0  0  0  0  0  0
 14 13  1  0  0  0
  1 13  2  0  0  0
  1  2  1  0  0  0
  4  2  1  0  0  0
  4  9  1  0  0  0
 13 11  1  0  0  0
  8  3  2  0  0  0
  2  7  2  0  0  0
  9  3  1  0  0  0
  9  5  1  0  0  0
  3 17  1  0  0  0
 11 12  1  0  0  0
 11 10  2  0  0  0
  7 10  1  0  0  0
  7  6  1  0  0  0
  5  6  1  0  0  0
 17 18  2  0  0  0
 17 20  1  0  0  0
 18 19  1  0  0  0
 20 21  2  0  0  0
 19 22  2  0  0  0
 21 22  1  0  0  0
 22 23  1  0  0  0
 24 23  1  0  0  0
 25 23  2  0  0  0
 23 26  2  0  0  0
 24 27  1  0  0  0
 24 28  1  0  0  0
 12 15  1  0  0  0
 14 16  1  0  0  0
M  END
> <minimizedAffinity>
-6.82765

$$$$
4Z1K_4KB_A_302


 28 30  0  0  0  0  0  0  0  0999 V2000
   16.4953    2.5147   14.6633 C   0  0  0  0  0  0  0  0  0  0  0  0
   16.6907    3.6210   13.8463 C   0  0  0  0  0  0  0  0  0  0  0  0
   19.1295    4.7675   11.6087 C   0  0  0  0  0  0  0  0  0  0  0  0
   17.4669    3.3595   12.6212 C   0  0  0  0  0  0  0  0  0  0  0  0
   16.8663    5.6293   11.9400 C   0  0  0  0  0  0  0  0  0  0  0  0
   16.4093    6.0285   13.3144 C   0  0  0  0  0  0  0  0  0  0  0  0
   16.1763    4.8713   14.1836 C   0  0  0  0  0  0  0  0  0  0  0  0
   20.0445    3.9292   11.8117 O   0  0  0  0  0  0  0  0  0  0  0  0
   17.8499    4.6212   11.9830 N   0  0  0  0  0  0  0  0  0  0  0  0
   15.4301    5.0561   15.3525 C   0  0  0  0  0  0  0  0  0  0  0  0
   15.2241    3.9463   16.1808 C   0  0  0  0  0  0  0  0  0  0  0  0
   14.4721    4.1985   17.3238 O   0  0  0  0  0  0  0  0  0  0  0  0
   15.7620    2.6914   15.8298 C   0  0  0  0  0  0  0  0  0  0  0  0
   15.5542    1.5948   16.6632 O   0  0  0  0  0  0  0  0  0  0  0  0
   14.2912    3.5056   17.9280 H   0  0  0  0  0  0  0  0  0  0  0  0
   15.9096    0.7585   16.4344 H   0  0  0  0  0  0  0  0  0  0  0  0
   19.5657    5.9255   10.7790 C   0  0  0  0  0  0  0  0  0  0  0  0
   19.4199    5.9393    9.3911 C   0  0  0  0  0  0  0  0  0  0  0  0
   19.9121    7.0286    8.6570 C   0  0  0  0  0  0  0  0  0  0  0  0
   20.1616    6.9798   11.3872 C   0  0  0  0  0  0  0  0  0  0  0  0
   20.6698    8.0282   10.6565 C   0  0  0  0  0  0  0  0  0  0  0  0
   20.5546    8.1044    9.2577 C   0  0  0  0  0  0  0  0  0  0  0  0
   21.2214    9.4457    8.4143 S   0  0  0  0  0  0  0  0  0  0  0  0
   22.3761    8.8973    7.4989 N   0  0  0  0  0  0  0  0  0  0  0  0
   21.6864   10.3032    9.4286 O   0  0  0  0  0  0  0  0  0  0  0  0
   20.1780    9.9767    7.6040 O   0  0  0  0  0  0  0  0  0  0  0  0
   23.1216    8.5179    8.0826 H   0  0  0  0  0  0  0  0  0  0  0  0
   22.7456    9.6562    6.9262 H   0  0  0  0  0  0  0  0  0  0  0  0
 14 13  1  0  0  0
  1 13  2  0  0  0
  1  2  1  0  0  0
  4  2  1  0  0  0
  4  9  1  0  0  0
 13 11  1  0  0  0
  8  3  2  0  0  0
  2  7  2  0  0  0
  9  3  1  0  0  0
  9  5  1  0  0  0
  3 17  1  0  0  0
 11 12  1  0  0  0
 11 10  2  0  0  0
  7 10  1  0  0  0
  7  6  1  0  0  0
  5  6  1  0  0  0
 17 18  2  0  0  0
 17 20  1  0  0  0
 18 19  1  0  0  0
 20 21  2  0  0  0
 19 22  2  0  0  0
 21 22  1  0  0  0
 22 23  1  0  0  0
 24 23  1  0  0  0
 25 23  2  0  0  0
 23 26  2  0  0  0
 24 27  1  0  0  0
 24 28  1  0  0  0
 12 15  1  0  0  0
 14 16  1  0  0  0
M  END
> <minimizedAffinity>
-6.70508

$$$$
