3GST_GPR_A_223


 42 44  0  0  0  0  0  0  0  0999 V2000
   17.3660   16.8999   31.3497 C   0  0  0  0  0  0  0  0  0  0  0  0
   17.2532   15.3936   29.4127 C   0  0  0  0  0  0  0  0  0  0  0  0
   18.4950   15.2351   29.3104 O   0  0  0  0  0  0  0  0  0  0  0  0
   16.6127   16.0804   30.3729 N   0  0  0  0  0  0  0  0  0  0  0  0
   15.6306   16.0385   30.4280 H   0  0  0  0  0  0  0  0  0  0  0  0
   16.4441   14.7503   28.3566 C   0  0  0  0  0  0  0  0  0  0  0  0
   16.1873   15.4931   27.0891 C   0  0  0  0  0  0  0  0  0  0  0  0
   14.0086   15.6487   28.4013 N   0  0  0  0  0  0  0  0  0  0  0  0
   14.8061   16.2335   27.2617 C   0  0  0  0  0  0  0  0  0  0  0  0
   13.1229   16.1473   28.4875 H   0  0  0  0  0  0  0  0  0  0  0  0
   14.5369   15.7415   29.2688 H   0  0  0  0  0  0  0  0  0  0  0  0
   14.1037   16.0346   25.9185 C   0  0  0  0  0  0  0  0  0  0  0  0
   13.1042   16.8776   25.6803 O   0  0  0  0  0  0  0  0  0  0  0  0
   14.4409   15.1317   25.1624 O   0  0  0  0  0  0  0  0  0  0  0  0
   15.1563   14.5715   25.3913 H   0  0  0  0  0  0  0  0  0  0  0  0
   17.1129   16.3201   32.7693 C   0  0  0  0  0  0  0  0  0  0  0  0
   17.8174   16.7259   33.6656 O   0  0  0  0  0  0  0  0  0  0  0  0
   16.2727   15.3368   32.8622 N   0  0  0  0  0  0  0  0  0  0  0  0
   15.8926   14.9195   32.0556 H   0  0  0  0  0  0  0  0  0  0  0  0
   15.8977   14.8551   34.2202 C   0  0  0  0  0  0  0  0  0  0  0  0
   16.3029   13.4336   34.3972 C   0  0  0  0  0  0  0  0  0  0  0  0
   16.1696   12.5163   33.5733 O   0  0  0  0  0  0  0  0  0  0  0  0
   16.8760   13.0441   35.5297 O   0  0  0  0  0  0  0  0  0  0  0  0
   17.0221   13.6631   36.2178 H   0  0  0  0  0  0  0  0  0  0  0  0
   17.0419   18.4086   31.3126 C   0  0  0  0  0  0  0  0  0  0  0  0
   17.2968   19.0641   29.6968 S   0  0  0  0  0  0  0  0  0  0  0  0
   18.9804   18.9964   29.9574 C   0  0  0  0  0  0  0  0  0  0  0  0
   19.3972   20.3476   30.4741 C   0  0  0  0  0  0  0  0  0  0  0  0
   19.5328   20.5293   31.8764 C   0  0  0  0  0  0  0  0  0  0  0  0
   19.9492   21.7490   32.4014 C   0  0  0  0  0  0  0  0  0  0  0  0
   20.2179   22.8064   31.5058 C   0  0  0  0  0  0  0  0  0  0  0  0
   20.1093   22.6524   30.1233 C   0  0  0  0  0  0  0  0  0  0  0  0
   19.7196   21.4105   29.5918 C   0  0  0  0  0  0  0  0  0  0  0  0
   19.5515   21.1863   28.1130 C   0  0  0  0  0  0  0  0  0  0  0  0
   19.4940   22.2949   27.2169 C   0  0  0  0  0  0  0  0  0  0  0  0
   19.3290   22.0313   25.8646 C   0  0  0  0  0  0  0  0  0  0  0  0
   19.2277   20.7318   25.3715 C   0  0  0  0  0  0  0  0  0  0  0  0
   19.3390   19.6511   26.2508 C   0  0  0  0  0  0  0  0  0  0  0  0
   19.5002   19.8952   27.6133 C   0  0  0  0  0  0  0  0  0  0  0  0
   19.5328   18.6874   28.5466 C   0  0  0  0  0  0  0  0  0  0  0  0
   20.9285   18.3729   28.7005 O   0  0  0  0  0  0  0  0  0  0  0  0
   21.3919   19.1359   29.0799 H   0  0  0  0  0  0  0  0  0  0  0  0
  8  9  1  0  0  0
  9 12  1  0  0  0
  9  7  1  0  0  0
 12 13  2  0  0  0
 12 14  1  0  0  0
  7  6  1  0  0  0
  6  2  1  0  0  0
  2  3  2  0  0  0
  2  4  1  0  0  0
  4  1  1  0  0  0
  1 16  1  0  0  0
  1 25  1  0  0  0
 16 17  2  0  0  0
 16 18  1  0  0  0
 25 26  1  0  0  0
 26 27  1  0  0  0
 18 20  1  0  0  0
 20 21  1  0  0  0
 21 22  2  0  0  0
 21 23  1  0  0  0
 27 28  1  0  0  0
 27 40  1  0  0  0
 28 29  2  0  0  0
 28 33  1  0  0  0
 29 30  1  0  0  0
 30 31  2  0  0  0
 31 32  1  0  0  0
 32 33  2  0  0  0
 33 34  1  0  0  0
 34 35  1  0  0  0
 34 39  2  0  0  0
 35 36  2  0  0  0
 36 37  1  0  0  0
 37 38  2  0  0  0
 38 39  1  0  0  0
 39 40  1  0  0  0
 40 41  1  0  0  0
  8 10  1  0  0  0
  8 11  1  0  0  0
 14 15  1  0  0  0
  4  5  1  0  0  0
 18 19  1  0  0  0
 23 24  1  0  0  0
 41 42  1  0  0  0
M  END
> <minimizedAffinity>
-9.93305

$$$$
3GST_GPR_A_223


 42 44  0  0  0  0  0  0  0  0999 V2000
   16.5174   16.2056   29.4665 C   0  0  0  0  0  0  0  0  0  0  0  0
   17.7397   15.0345   31.2464 C   0  0  0  0  0  0  0  0  0  0  0  0
   17.8119   16.0250   32.0154 O   0  0  0  0  0  0  0  0  0  0  0  0
   17.0903   14.9815   30.0719 N   0  0  0  0  0  0  0  0  0  0  0  0
   16.9940   14.1185   29.6079 H   0  0  0  0  0  0  0  0  0  0  0  0
   18.4506   13.8233   31.7063 C   0  0  0  0  0  0  0  0  0  0  0  0
   18.5797   13.5729   33.1708 C   0  0  0  0  0  0  0  0  0  0  0  0
   16.6440   12.1172   32.3794 N   0  0  0  0  0  0  0  0  0  0  0  0
   17.3684   12.6544   33.5890 C   0  0  0  0  0  0  0  0  0  0  0  0
   15.8679   11.5284   32.6816 H   0  0  0  0  0  0  0  0  0  0  0  0
   17.2891   11.5655   31.8139 H   0  0  0  0  0  0  0  0  0  0  0  0
   16.4738   13.5709   34.4240 C   0  0  0  0  0  0  0  0  0  0  0  0
   17.1129   14.5475   35.0598 O   0  0  0  0  0  0  0  0  0  0  0  0
   15.2689   13.3657   34.5061 O   0  0  0  0  0  0  0  0  0  0  0  0
   14.8807   12.6579   34.0303 H   0  0  0  0  0  0  0  0  0  0  0  0
   15.4428   15.7781   28.4282 C   0  0  0  0  0  0  0  0  0  0  0  0
   15.4913   14.6402   28.0195 O   0  0  0  0  0  0  0  0  0  0  0  0
   14.6707   16.7100   27.9628 N   0  0  0  0  0  0  0  0  0  0  0  0
   14.8283   17.6555   28.1874 H   0  0  0  0  0  0  0  0  0  0  0  0
   13.5394   16.3133   27.0798 C   0  0  0  0  0  0  0  0  0  0  0  0
   13.9780   16.2788   25.6576 C   0  0  0  0  0  0  0  0  0  0  0  0
   13.9073   17.2060   24.8370 O   0  0  0  0  0  0  0  0  0  0  0  0
   14.5131   15.1721   25.1560 O   0  0  0  0  0  0  0  0  0  0  0  0
   14.6113   14.4127   25.6960 H   0  0  0  0  0  0  0  0  0  0  0  0
   17.5522   17.1513   28.8205 C   0  0  0  0  0  0  0  0  0  0  0  0
   17.4212   18.7753   29.4920 S   0  0  0  0  0  0  0  0  0  0  0  0
   19.1059   18.7803   29.7544 C   0  0  0  0  0  0  0  0  0  0  0  0
   19.4433   20.0968   30.4020 C   0  0  0  0  0  0  0  0  0  0  0  0
   19.5681   20.1491   31.8160 C   0  0  0  0  0  0  0  0  0  0  0  0
   19.9127   21.3341   32.4591 C   0  0  0  0  0  0  0  0  0  0  0  0
   20.1194   22.4872   31.6717 C   0  0  0  0  0  0  0  0  0  0  0  0
   20.0201   22.4621   30.2802 C   0  0  0  0  0  0  0  0  0  0  0  0
   19.7033   21.2573   29.6287 C   0  0  0  0  0  0  0  0  0  0  0  0
   19.5485   21.1683   28.1341 C   0  0  0  0  0  0  0  0  0  0  0  0
   19.4267   22.3534   27.3494 C   0  0  0  0  0  0  0  0  0  0  0  0
   19.2773   22.2132   25.9770 C   0  0  0  0  0  0  0  0  0  0  0  0
   19.2519   20.9641   25.3597 C   0  0  0  0  0  0  0  0  0  0  0  0
   19.4259   19.8114   26.1308 C   0  0  0  0  0  0  0  0  0  0  0  0
   19.5725   19.9310   27.5114 C   0  0  0  0  0  0  0  0  0  0  0  0
   19.6754   18.6422   28.3234 C   0  0  0  0  0  0  0  0  0  0  0  0
   21.0871   18.3957   28.4541 O   0  0  0  0  0  0  0  0  0  0  0  0
   21.5053   19.1438   28.9083 H   0  0  0  0  0  0  0  0  0  0  0  0
  8  9  1  0  0  0
  9 12  1  0  0  0
  9  7  1  0  0  0
 12 13  2  0  0  0
 12 14  1  0  0  0
  7  6  1  0  0  0
  6  2  1  0  0  0
  2  3  2  0  0  0
  2  4  1  0  0  0
  4  1  1  0  0  0
  1 16  1  0  0  0
  1 25  1  0  0  0
 16 17  2  0  0  0
 16 18  1  0  0  0
 25 26  1  0  0  0
 26 27  1  0  0  0
 18 20  1  0  0  0
 20 21  1  0  0  0
 21 22  2  0  0  0
 21 23  1  0  0  0
 27 28  1  0  0  0
 27 40  1  0  0  0
 28 29  2  0  0  0
 28 33  1  0  0  0
 29 30  1  0  0  0
 30 31  2  0  0  0
 31 32  1  0  0  0
 32 33  2  0  0  0
 33 34  1  0  0  0
 34 35  1  0  0  0
 34 39  2  0  0  0
 35 36  2  0  0  0
 36 37  1  0  0  0
 37 38  2  0  0  0
 38 39  1  0  0  0
 39 40  1  0  0  0
 40 41  1  0  0  0
  8 10  1  0  0  0
  8 11  1  0  0  0
 14 15  1  0  0  0
  4  5  1  0  0  0
 18 19  1  0  0  0
 23 24  1  0  0  0
 41 42  1  0  0  0
M  END
> <minimizedAffinity>
-9.30518

$$$$
3GST_GPR_A_223


 42 44  0  0  0  0  0  0  0  0999 V2000
   16.8899   16.4073   29.6971 C   0  0  0  0  0  0  0  0  0  0  0  0
   17.5153   14.9129   31.5435 C   0  0  0  0  0  0  0  0  0  0  0  0
   17.4009   15.7801   32.4449 O   0  0  0  0  0  0  0  0  0  0  0  0
   17.2244   15.0714   30.2419 N   0  0  0  0  0  0  0  0  0  0  0  0
   17.2336   14.2903   29.6428 H   0  0  0  0  0  0  0  0  0  0  0  0
   18.0238   13.5992   31.9902 C   0  0  0  0  0  0  0  0  0  0  0  0
   18.5199   12.6311   30.9700 C   0  0  0  0  0  0  0  0  0  0  0  0
   17.7227   10.2109   30.9682 N   0  0  0  0  0  0  0  0  0  0  0  0
   17.3348   11.6371   30.6646 C   0  0  0  0  0  0  0  0  0  0  0  0
   16.9375    9.5936   30.7610 H   0  0  0  0  0  0  0  0  0  0  0  0
   17.9692   10.1282   31.9544 H   0  0  0  0  0  0  0  0  0  0  0  0
   17.0481   11.8414   29.1768 C   0  0  0  0  0  0  0  0  0  0  0  0
   17.7314   11.0445   28.3616 O   0  0  0  0  0  0  0  0  0  0  0  0
   16.2693   12.7094   28.8019 O   0  0  0  0  0  0  0  0  0  0  0  0
   15.8186   13.2379   29.4308 H   0  0  0  0  0  0  0  0  0  0  0  0
   16.0406   16.2096   28.4106 C   0  0  0  0  0  0  0  0  0  0  0  0
   16.4060   16.7887   27.4129 O   0  0  0  0  0  0  0  0  0  0  0  0
   14.9225   15.5652   28.5368 N   0  0  0  0  0  0  0  0  0  0  0  0
   14.5883   15.3031   29.4250 H   0  0  0  0  0  0  0  0  0  0  0  0
   14.1571   15.2320   27.3039 C   0  0  0  0  0  0  0  0  0  0  0  0
   12.9745   16.1261   27.1693 C   0  0  0  0  0  0  0  0  0  0  0  0
   12.1533   16.4080   28.0548 O   0  0  0  0  0  0  0  0  0  0  0  0
   12.7200   16.7177   26.0083 O   0  0  0  0  0  0  0  0  0  0  0  0
   13.2826   16.5696   25.2737 H   0  0  0  0  0  0  0  0  0  0  0  0
   18.1080   17.3113   29.4112 C   0  0  0  0  0  0  0  0  0  0  0  0
   17.8245   18.9482   29.9991 S   0  0  0  0  0  0  0  0  0  0  0  0
   19.5082   19.1571   30.1676 C   0  0  0  0  0  0  0  0  0  0  0  0
   19.7338   20.5946   30.5536 C   0  0  0  0  0  0  0  0  0  0  0  0
   19.9021   20.9135   31.9275 C   0  0  0  0  0  0  0  0  0  0  0  0
   20.1478   22.2221   32.3320 C   0  0  0  0  0  0  0  0  0  0  0  0
   20.2095   23.2278   31.3434 C   0  0  0  0  0  0  0  0  0  0  0  0
   20.0644   22.9420   29.9854 C   0  0  0  0  0  0  0  0  0  0  0  0
   19.8481   21.6149   29.5747 C   0  0  0  0  0  0  0  0  0  0  0  0
   19.6508   21.2428   28.1297 C   0  0  0  0  0  0  0  0  0  0  0  0
   19.3827   22.2498   27.1553 C   0  0  0  0  0  0  0  0  0  0  0  0
   19.2002   21.8501   25.8390 C   0  0  0  0  0  0  0  0  0  0  0  0
   19.2792   20.5130   25.4546 C   0  0  0  0  0  0  0  0  0  0  0  0
   19.5954   19.5402   26.4071 C   0  0  0  0  0  0  0  0  0  0  0  0
   19.7776   19.9209   27.7351 C   0  0  0  0  0  0  0  0  0  0  0  0
   20.0383   18.8157   28.7556 C   0  0  0  0  0  0  0  0  0  0  0  0
   21.4713   18.7291   28.8534 O   0  0  0  0  0  0  0  0  0  0  0  0
   21.8276   19.5827   29.1456 H   0  0  0  0  0  0  0  0  0  0  0  0
  8  9  1  0  0  0
  9 12  1  0  0  0
  9  7  1  0  0  0
 12 13  2  0  0  0
 12 14  1  0  0  0
  7  6  1  0  0  0
  6  2  1  0  0  0
  2  3  2  0  0  0
  2  4  1  0  0  0
  4  1  1  0  0  0
  1 16  1  0  0  0
  1 25  1  0  0  0
 16 17  2  0  0  0
 16 18  1  0  0  0
 25 26  1  0  0  0
 26 27  1  0  0  0
 18 20  1  0  0  0
 20 21  1  0  0  0
 21 22  2  0  0  0
 21 23  1  0  0  0
 27 28  1  0  0  0
 27 40  1  0  0  0
 28 29  2  0  0  0
 28 33  1  0  0  0
 29 30  1  0  0  0
 30 31  2  0  0  0
 31 32  1  0  0  0
 32 33  2  0  0  0
 33 34  1  0  0  0
 34 35  1  0  0  0
 34 39  2  0  0  0
 35 36  2  0  0  0
 36 37  1  0  0  0
 37 38  2  0  0  0
 38 39  1  0  0  0
 39 40  1  0  0  0
 40 41  1  0  0  0
  8 10  1  0  0  0
  8 11  1  0  0  0
 14 15  1  0  0  0
  4  5  1  0  0  0
 18 19  1  0  0  0
 23 24  1  0  0  0
 41 42  1  0  0  0
M  END
> <minimizedAffinity>
-8.86956

$$$$
3GST_GPR_A_223


 42 44  0  0  0  0  0  0  0  0999 V2000
   18.0963   16.7182   31.1514 C   0  0  0  0  0  0  0  0  0  0  0  0
   17.1396   15.0542   29.6186 C   0  0  0  0  0  0  0  0  0  0  0  0
   17.6441   14.0572   30.1923 O   0  0  0  0  0  0  0  0  0  0  0  0
   17.2161   16.3322   30.0246 N   0  0  0  0  0  0  0  0  0  0  0  0
   16.6807   17.0205   29.5678 H   0  0  0  0  0  0  0  0  0  0  0  0
   16.3958   14.7599   28.3760 C   0  0  0  0  0  0  0  0  0  0  0  0
   15.6991   15.8733   27.6695 C   0  0  0  0  0  0  0  0  0  0  0  0
   14.5930   15.2542   25.4591 N   0  0  0  0  0  0  0  0  0  0  0  0
   14.4370   15.2494   26.9599 C   0  0  0  0  0  0  0  0  0  0  0  0
   13.7629   14.8456   25.0297 H   0  0  0  0  0  0  0  0  0  0  0  0
   15.4139   14.7067   25.2008 H   0  0  0  0  0  0  0  0  0  0  0  0
   13.2765   16.1363   27.4113 C   0  0  0  0  0  0  0  0  0  0  0  0
   12.9374   17.0926   26.5529 O   0  0  0  0  0  0  0  0  0  0  0  0
   12.7494   15.9707   28.5046 O   0  0  0  0  0  0  0  0  0  0  0  0
   13.0370   15.2752   29.0629 H   0  0  0  0  0  0  0  0  0  0  0  0
   17.3480   16.4155   32.4795 C   0  0  0  0  0  0  0  0  0  0  0  0
   16.6561   17.2965   32.9370 O   0  0  0  0  0  0  0  0  0  0  0  0
   17.6379   15.3023   33.0778 N   0  0  0  0  0  0  0  0  0  0  0  0
   18.3686   14.7290   32.7513 H   0  0  0  0  0  0  0  0  0  0  0  0
   16.8372   14.9134   34.2713 C   0  0  0  0  0  0  0  0  0  0  0  0
   16.1388   13.6211   34.0296 C   0  0  0  0  0  0  0  0  0  0  0  0
   15.3170   13.0710   34.7778 O   0  0  0  0  0  0  0  0  0  0  0  0
   16.3725   12.9403   32.9140 O   0  0  0  0  0  0  0  0  0  0  0  0
   16.9790   13.2717   32.2812 H   0  0  0  0  0  0  0  0  0  0  0  0
   18.5787   18.1841   31.1207 C   0  0  0  0  0  0  0  0  0  0  0  0
   17.9446   19.0224   29.7063 S   0  0  0  0  0  0  0  0  0  0  0  0
   19.5300   19.5074   29.3086 C   0  0  0  0  0  0  0  0  0  0  0  0
   19.4307   20.3468   28.0628 C   0  0  0  0  0  0  0  0  0  0  0  0
   19.3977   21.7608   28.1940 C   0  0  0  0  0  0  0  0  0  0  0  0
   19.3416   22.5810   27.0712 C   0  0  0  0  0  0  0  0  0  0  0  0
   19.3018   21.9717   25.7986 C   0  0  0  0  0  0  0  0  0  0  0  0
   19.3494   20.5864   25.6383 C   0  0  0  0  0  0  0  0  0  0  0  0
   19.4384   19.7593   26.7717 C   0  0  0  0  0  0  0  0  0  0  0  0
   19.4605   18.2577   26.6710 C   0  0  0  0  0  0  0  0  0  0  0  0
   19.0972   17.6106   25.4526 C   0  0  0  0  0  0  0  0  0  0  0  0
   19.1265   16.2237   25.4180 C   0  0  0  0  0  0  0  0  0  0  0  0
   19.5032   15.4642   26.5239 C   0  0  0  0  0  0  0  0  0  0  0  0
   19.9088   16.1087   27.6959 C   0  0  0  0  0  0  0  0  0  0  0  0
   19.8818   17.5008   27.7522 C   0  0  0  0  0  0  0  0  0  0  0  0
   20.2525   18.1598   29.0785 C   0  0  0  0  0  0  0  0  0  0  0  0
   21.6581   18.4485   28.9712 O   0  0  0  0  0  0  0  0  0  0  0  0
   21.8099   19.0408   28.2181 H   0  0  0  0  0  0  0  0  0  0  0  0
  8  9  1  0  0  0
  9 12  1  0  0  0
  9  7  1  0  0  0
 12 13  2  0  0  0
 12 14  1  0  0  0
  7  6  1  0  0  0
  6  2  1  0  0  0
  2  3  2  0  0  0
  2  4  1  0  0  0
  4  1  1  0  0  0
  1 16  1  0  0  0
  1 25  1  0  0  0
 16 17  2  0  0  0
 16 18  1  0  0  0
 25 26  1  0  0  0
 26 27  1  0  0  0
 18 20  1  0  0  0
 20 21  1  0  0  0
 21 22  2  0  0  0
 21 23  1  0  0  0
 27 28  1  0  0  0
 27 40  1  0  0  0
 28 29  2  0  0  0
 28 33  1  0  0  0
 29 30  1  0  0  0
 30 31  2  0  0  0
 31 32  1  0  0  0
 32 33  2  0  0  0
 33 34  1  0  0  0
 34 35  1  0  0  0
 34 39  2  0  0  0
 35 36  2  0  0  0
 36 37  1  0  0  0
 37 38  2  0  0  0
 38 39  1  0  0  0
 39 40  1  0  0  0
 40 41  1  0  0  0
  8 10  1  0  0  0
  8 11  1  0  0  0
 14 15  1  0  0  0
  4  5  1  0  0  0
 18 19  1  0  0  0
 23 24  1  0  0  0
 41 42  1  0  0  0
M  END
> <minimizedAffinity>
-8.84379

$$$$
3GST_GPR_A_223


 42 44  0  0  0  0  0  0  0  0999 V2000
   19.6876   16.5146   27.9016 C   0  0  0  0  0  0  0  0  0  0  0  0
   17.3054   16.6232   27.3128 C   0  0  0  0  0  0  0  0  0  0  0  0
   17.4926   16.8957   26.1011 O   0  0  0  0  0  0  0  0  0  0  0  0
   18.2522   16.3449   28.2239 N   0  0  0  0  0  0  0  0  0  0  0  0
   17.9888   16.0243   29.1167 H   0  0  0  0  0  0  0  0  0  0  0  0
   15.8935   16.6174   27.7492 C   0  0  0  0  0  0  0  0  0  0  0  0
   15.2616   15.3231   28.1360 C   0  0  0  0  0  0  0  0  0  0  0  0
   14.6164   15.2388   25.6725 N   0  0  0  0  0  0  0  0  0  0  0  0
   14.1236   15.0341   27.0838 C   0  0  0  0  0  0  0  0  0  0  0  0
   13.8597   15.0448   25.0167 H   0  0  0  0  0  0  0  0  0  0  0  0
   15.3955   14.6065   25.4893 H   0  0  0  0  0  0  0  0  0  0  0  0
   13.0173   16.0250   27.4465 C   0  0  0  0  0  0  0  0  0  0  0  0
   12.7451   16.9264   26.5085 O   0  0  0  0  0  0  0  0  0  0  0  0
   12.4727   15.9828   28.5430 O   0  0  0  0  0  0  0  0  0  0  0  0
   12.7121   15.3193   29.1598 H   0  0  0  0  0  0  0  0  0  0  0  0
   20.2108   15.1833   27.2939 C   0  0  0  0  0  0  0  0  0  0  0  0
   20.8750   15.2597   26.2853 O   0  0  0  0  0  0  0  0  0  0  0  0
   19.7723   14.0831   27.8218 N   0  0  0  0  0  0  0  0  0  0  0  0
   19.0675   14.0985   28.5089 H   0  0  0  0  0  0  0  0  0  0  0  0
   20.3624   12.7958   27.3619 C   0  0  0  0  0  0  0  0  0  0  0  0
   19.4810   12.1530   26.3488 C   0  0  0  0  0  0  0  0  0  0  0  0
   19.1059   10.9711   26.3353 O   0  0  0  0  0  0  0  0  0  0  0  0
   19.0104   12.8659   25.3325 O   0  0  0  0  0  0  0  0  0  0  0  0
   19.2357   13.7718   25.2515 H   0  0  0  0  0  0  0  0  0  0  0  0
   20.5687   16.9531   29.0907 C   0  0  0  0  0  0  0  0  0  0  0  0
   21.0736   18.6318   28.9104 S   0  0  0  0  0  0  0  0  0  0  0  0
   19.4497   19.0683   28.6286 C   0  0  0  0  0  0  0  0  0  0  0  0
   19.4705   20.2530   27.6999 C   0  0  0  0  0  0  0  0  0  0  0  0
   19.2945   20.0316   26.3079 C   0  0  0  0  0  0  0  0  0  0  0  0
   19.2711   21.0968   25.4127 C   0  0  0  0  0  0  0  0  0  0  0  0
   19.4429   22.4023   25.9213 C   0  0  0  0  0  0  0  0  0  0  0  0
   19.6013   22.6515   27.2850 C   0  0  0  0  0  0  0  0  0  0  0  0
   19.5928   21.5777   28.1923 C   0  0  0  0  0  0  0  0  0  0  0  0
   19.7911   21.7737   29.6715 C   0  0  0  0  0  0  0  0  0  0  0  0
   20.2864   23.0131   30.1752 C   0  0  0  0  0  0  0  0  0  0  0  0
   20.4587   23.1365   31.5466 C   0  0  0  0  0  0  0  0  0  0  0  0
   20.1570   22.0985   32.4260 C   0  0  0  0  0  0  0  0  0  0  0  0
   19.6219   20.9074   31.9276 C   0  0  0  0  0  0  0  0  0  0  0  0
   19.4458   20.7623   30.5529 C   0  0  0  0  0  0  0  0  0  0  0  0
   18.9377   19.4148   30.0459 C   0  0  0  0  0  0  0  0  0  0  0  0
   17.5098   19.5662   29.9524 O   0  0  0  0  0  0  0  0  0  0  0  0
   17.3006   20.2864   29.3373 H   0  0  0  0  0  0  0  0  0  0  0  0
  8  9  1  0  0  0
  9 12  1  0  0  0
  9  7  1  0  0  0
 12 13  2  0  0  0
 12 14  1  0  0  0
  7  6  1  0  0  0
  6  2  1  0  0  0
  2  3  2  0  0  0
  2  4  1  0  0  0
  4  1  1  0  0  0
  1 16  1  0  0  0
  1 25  1  0  0  0
 16 17  2  0  0  0
 16 18  1  0  0  0
 25 26  1  0  0  0
 26 27  1  0  0  0
 18 20  1  0  0  0
 20 21  1  0  0  0
 21 22  2  0  0  0
 21 23  1  0  0  0
 27 28  1  0  0  0
 27 40  1  0  0  0
 28 29  2  0  0  0
 28 33  1  0  0  0
 29 30  1  0  0  0
 30 31  2  0  0  0
 31 32  1  0  0  0
 32 33  2  0  0  0
 33 34  1  0  0  0
 34 35  1  0  0  0
 34 39  2  0  0  0
 35 36  2  0  0  0
 36 37  1  0  0  0
 37 38  2  0  0  0
 38 39  1  0  0  0
 39 40  1  0  0  0
 40 41  1  0  0  0
  8 10  1  0  0  0
  8 11  1  0  0  0
 14 15  1  0  0  0
  4  5  1  0  0  0
 18 19  1  0  0  0
 23 24  1  0  0  0
 41 42  1  0  0  0
M  END
> <minimizedAffinity>
-8.66723

$$$$
3GST_GPR_A_223


 42 44  0  0  0  0  0  0  0  0999 V2000
   16.7014   16.4550   29.8483 C   0  0  0  0  0  0  0  0  0  0  0  0
   17.1034   15.5018   32.0762 C   0  0  0  0  0  0  0  0  0  0  0  0
   16.2653   16.2247   32.6700 O   0  0  0  0  0  0  0  0  0  0  0  0
   17.3314   15.4661   30.7530 N   0  0  0  0  0  0  0  0  0  0  0  0
   17.9244   14.7743   30.3801 H   0  0  0  0  0  0  0  0  0  0  0  0
   17.9032   14.6149   32.9465 C   0  0  0  0  0  0  0  0  0  0  0  0
   19.3513   14.9111   33.1452 C   0  0  0  0  0  0  0  0  0  0  0  0
   19.0365   17.4388   33.0792 N   0  0  0  0  0  0  0  0  0  0  0  0
   19.4379   16.2684   33.9427 C   0  0  0  0  0  0  0  0  0  0  0  0
   19.1027   18.3000   33.6216 H   0  0  0  0  0  0  0  0  0  0  0  0
   18.0764   17.3116   32.7590 H   0  0  0  0  0  0  0  0  0  0  0  0
   20.9024   16.3579   34.3724 C   0  0  0  0  0  0  0  0  0  0  0  0
   21.7086   15.4713   33.7975 O   0  0  0  0  0  0  0  0  0  0  0  0
   21.2603   17.1736   35.2133 O   0  0  0  0  0  0  0  0  0  0  0  0
   20.6392   17.7721   35.5795 H   0  0  0  0  0  0  0  0  0  0  0  0
   15.8126   15.6867   28.8307 C   0  0  0  0  0  0  0  0  0  0  0  0
   16.3279   14.7743   28.2256 O   0  0  0  0  0  0  0  0  0  0  0  0
   14.6344   16.1735   28.5934 N   0  0  0  0  0  0  0  0  0  0  0  0
   14.3617   17.0416   28.9693 H   0  0  0  0  0  0  0  0  0  0  0  0
   13.7048   15.3858   27.7379 C   0  0  0  0  0  0  0  0  0  0  0  0
   13.8002   15.8309   26.3205 C   0  0  0  0  0  0  0  0  0  0  0  0
   13.1797   16.7664   25.7936 O   0  0  0  0  0  0  0  0  0  0  0  0
   14.6202   15.2062   25.4837 O   0  0  0  0  0  0  0  0  0  0  0  0
   15.1355   14.4838   25.7846 H   0  0  0  0  0  0  0  0  0  0  0  0
   17.6935   17.3812   29.1132 C   0  0  0  0  0  0  0  0  0  0  0  0
   17.5414   19.0412   29.6849 S   0  0  0  0  0  0  0  0  0  0  0  0
   19.2296   19.0942   29.9168 C   0  0  0  0  0  0  0  0  0  0  0  0
   19.5560   20.4678   30.4394 C   0  0  0  0  0  0  0  0  0  0  0  0
   19.7023   20.6474   31.8408 C   0  0  0  0  0  0  0  0  0  0  0  0
   20.0379   21.8897   32.3704 C   0  0  0  0  0  0  0  0  0  0  0  0
   20.2135   22.9713   31.4805 C   0  0  0  0  0  0  0  0  0  0  0  0
   20.0926   22.8211   30.0986 C   0  0  0  0  0  0  0  0  0  0  0  0
   19.7850   21.5587   29.5619 C   0  0  0  0  0  0  0  0  0  0  0  0
   19.6080   21.3350   28.0840 C   0  0  0  0  0  0  0  0  0  0  0  0
   19.4547   22.4438   27.1996 C   0  0  0  0  0  0  0  0  0  0  0  0
   19.2859   22.1800   25.8477 C   0  0  0  0  0  0  0  0  0  0  0  0
   19.2709   20.8807   25.3441 C   0  0  0  0  0  0  0  0  0  0  0  0
   19.4756   19.8038   26.2112 C   0  0  0  0  0  0  0  0  0  0  0  0
   19.6421   20.0478   27.5731 C   0  0  0  0  0  0  0  0  0  0  0  0
   19.7786   18.8379   28.4942 C   0  0  0  0  0  0  0  0  0  0  0  0
   21.1959   18.6246   28.6218 O   0  0  0  0  0  0  0  0  0  0  0  0
   21.6092   19.4162   29.0008 H   0  0  0  0  0  0  0  0  0  0  0  0
  8  9  1  0  0  0
  9 12  1  0  0  0
  9  7  1  0  0  0
 12 13  2  0  0  0
 12 14  1  0  0  0
  7  6  1  0  0  0
  6  2  1  0  0  0
  2  3  2  0  0  0
  2  4  1  0  0  0
  4  1  1  0  0  0
  1 16  1  0  0  0
  1 25  1  0  0  0
 16 17  2  0  0  0
 16 18  1  0  0  0
 25 26  1  0  0  0
 26 27  1  0  0  0
 18 20  1  0  0  0
 20 21  1  0  0  0
 21 22  2  0  0  0
 21 23  1  0  0  0
 27 28  1  0  0  0
 27 40  1  0  0  0
 28 29  2  0  0  0
 28 33  1  0  0  0
 29 30  1  0  0  0
 30 31  2  0  0  0
 31 32  1  0  0  0
 32 33  2  0  0  0
 33 34  1  0  0  0
 34 35  1  0  0  0
 34 39  2  0  0  0
 35 36  2  0  0  0
 36 37  1  0  0  0
 37 38  2  0  0  0
 38 39  1  0  0  0
 39 40  1  0  0  0
 40 41  1  0  0  0
  8 10  1  0  0  0
  8 11  1  0  0  0
 14 15  1  0  0  0
  4  5  1  0  0  0
 18 19  1  0  0  0
 23 24  1  0  0  0
 41 42  1  0  0  0
M  END
> <minimizedAffinity>
-8.65431

$$$$
3GST_GPR_A_223


 42 44  0  0  0  0  0  0  0  0999 V2000
   21.1903   17.9905   32.3787 C   0  0  0  0  0  0  0  0  0  0  0  0
   19.6889   16.7519   33.8771 C   0  0  0  0  0  0  0  0  0  0  0  0
   20.6008   16.2887   34.6061 O   0  0  0  0  0  0  0  0  0  0  0  0
   19.8409   17.6191   32.8627 N   0  0  0  0  0  0  0  0  0  0  0  0
   19.0457   18.0126   32.4360 H   0  0  0  0  0  0  0  0  0  0  0  0
   18.3254   16.2758   34.1900 C   0  0  0  0  0  0  0  0  0  0  0  0
   17.4848   15.7170   33.0920 C   0  0  0  0  0  0  0  0  0  0  0  0
   17.1165   13.4619   31.9646 N   0  0  0  0  0  0  0  0  0  0  0  0
   17.5035   14.1486   33.2511 C   0  0  0  0  0  0  0  0  0  0  0  0
   17.1377   12.4510   32.0990 H   0  0  0  0  0  0  0  0  0  0  0  0
   17.7745   13.7210   31.2296 H   0  0  0  0  0  0  0  0  0  0  0  0
   16.4941   13.8729   34.3659 C   0  0  0  0  0  0  0  0  0  0  0  0
   15.3389   14.5191   34.2460 O   0  0  0  0  0  0  0  0  0  0  0  0
   16.7793   13.1353   35.3015 O   0  0  0  0  0  0  0  0  0  0  0  0
   17.6135   12.7091   35.3246 H   0  0  0  0  0  0  0  0  0  0  0  0
   21.4023   19.5071   32.6443 C   0  0  0  0  0  0  0  0  0  0  0  0
   22.5437   19.9073   32.6814 O   0  0  0  0  0  0  0  0  0  0  0  0
   20.3533   20.2021   32.9572 N   0  0  0  0  0  0  0  0  0  0  0  0
   19.4854   19.7641   33.1128 H   0  0  0  0  0  0  0  0  0  0  0  0
   20.4951   21.6795   33.0751 C   0  0  0  0  0  0  0  0  0  0  0  0
   20.2636   22.3303   31.7563 C   0  0  0  0  0  0  0  0  0  0  0  0
   19.1664   22.5833   31.2367 O   0  0  0  0  0  0  0  0  0  0  0  0
   21.2971   22.7072   31.0130 O   0  0  0  0  0  0  0  0  0  0  0  0
   22.1711   22.5605   31.3171 H   0  0  0  0  0  0  0  0  0  0  0  0
   21.4593   17.6551   30.8963 C   0  0  0  0  0  0  0  0  0  0  0  0
   21.1391   19.0516   29.8702 S   0  0  0  0  0  0  0  0  0  0  0  0
   19.5287   18.5223   29.6877 C   0  0  0  0  0  0  0  0  0  0  0  0
   19.5065   17.5901   28.5057 C   0  0  0  0  0  0  0  0  0  0  0  0
   19.5789   16.1908   28.7393 C   0  0  0  0  0  0  0  0  0  0  0  0
   19.5269   15.2868   27.6826 C   0  0  0  0  0  0  0  0  0  0  0  0
   19.4166   15.7963   26.3709 C   0  0  0  0  0  0  0  0  0  0  0  0
   19.3269   17.1644   26.1123 C   0  0  0  0  0  0  0  0  0  0  0  0
   19.3473   18.0758   27.1825 C   0  0  0  0  0  0  0  0  0  0  0  0
   19.2874   19.5649   26.9714 C   0  0  0  0  0  0  0  0  0  0  0  0
   19.5039   20.1192   25.6748 C   0  0  0  0  0  0  0  0  0  0  0  0
   19.4461   21.4990   25.5385 C   0  0  0  0  0  0  0  0  0  0  0  0
   19.1788   22.3381   26.6185 C   0  0  0  0  0  0  0  0  0  0  0  0
   18.9152   21.7823   27.8735 C   0  0  0  0  0  0  0  0  0  0  0  0
   18.9732   20.3991   28.0318 C   0  0  0  0  0  0  0  0  0  0  0  0
   18.7614   19.8411   29.4371 C   0  0  0  0  0  0  0  0  0  0  0  0
   17.3579   19.5316   29.5075 O   0  0  0  0  0  0  0  0  0  0  0  0
   17.1354   18.8815   28.8229 H   0  0  0  0  0  0  0  0  0  0  0  0
  8  9  1  0  0  0
  9 12  1  0  0  0
  9  7  1  0  0  0
 12 13  2  0  0  0
 12 14  1  0  0  0
  7  6  1  0  0  0
  6  2  1  0  0  0
  2  3  2  0  0  0
  2  4  1  0  0  0
  4  1  1  0  0  0
  1 16  1  0  0  0
  1 25  1  0  0  0
 16 17  2  0  0  0
 16 18  1  0  0  0
 25 26  1  0  0  0
 26 27  1  0  0  0
 18 20  1  0  0  0
 20 21  1  0  0  0
 21 22  2  0  0  0
 21 23  1  0  0  0
 27 28  1  0  0  0
 27 40  1  0  0  0
 28 29  2  0  0  0
 28 33  1  0  0  0
 29 30  1  0  0  0
 30 31  2  0  0  0
 31 32  1  0  0  0
 32 33  2  0  0  0
 33 34  1  0  0  0
 34 35  1  0  0  0
 34 39  2  0  0  0
 35 36  2  0  0  0
 36 37  1  0  0  0
 37 38  2  0  0  0
 38 39  1  0  0  0
 39 40  1  0  0  0
 40 41  1  0  0  0
  8 10  1  0  0  0
  8 11  1  0  0  0
 14 15  1  0  0  0
  4  5  1  0  0  0
 18 19  1  0  0  0
 23 24  1  0  0  0
 41 42  1  0  0  0
M  END
> <minimizedAffinity>
-8.54787

$$$$
3GST_GPR_A_223


 42 44  0  0  0  0  0  0  0  0999 V2000
   21.3043   16.0140   29.6670 C   0  0  0  0  0  0  0  0  0  0  0  0
   19.1416   15.1209   30.4146 C   0  0  0  0  0  0  0  0  0  0  0  0
   18.9787   14.3585   29.4298 O   0  0  0  0  0  0  0  0  0  0  0  0
   20.2230   15.8756   30.6694 N   0  0  0  0  0  0  0  0  0  0  0  0
   20.2978   16.3424   31.5330 H   0  0  0  0  0  0  0  0  0  0  0  0
   18.0141   15.1721   31.3685 C   0  0  0  0  0  0  0  0  0  0  0  0
   18.2821   14.9434   32.8177 C   0  0  0  0  0  0  0  0  0  0  0  0
   17.3562   17.3113   32.6493 N   0  0  0  0  0  0  0  0  0  0  0  0
   18.0474   16.3189   33.5515 C   0  0  0  0  0  0  0  0  0  0  0  0
   17.2188   18.1887   33.1510 H   0  0  0  0  0  0  0  0  0  0  0  0
   16.4512   16.9378   32.3632 H   0  0  0  0  0  0  0  0  0  0  0  0
   19.4526   16.7844   33.9338 C   0  0  0  0  0  0  0  0  0  0  0  0
   20.0097   17.6380   33.0809 O   0  0  0  0  0  0  0  0  0  0  0  0
   20.0046   16.3520   34.9382 O   0  0  0  0  0  0  0  0  0  0  0  0
   19.5541   15.7511   35.4985 H   0  0  0  0  0  0  0  0  0  0  0  0
   22.5976   16.4600   30.4044 C   0  0  0  0  0  0  0  0  0  0  0  0
   23.6539   16.1945   29.8770 O   0  0  0  0  0  0  0  0  0  0  0  0
   22.4565   16.9455   31.5984 N   0  0  0  0  0  0  0  0  0  0  0  0
   21.5799   16.9375   32.0465 H   0  0  0  0  0  0  0  0  0  0  0  0
   23.6544   17.5156   32.2744 C   0  0  0  0  0  0  0  0  0  0  0  0
   23.3570   18.8775   32.7968 C   0  0  0  0  0  0  0  0  0  0  0  0
   22.8809   19.8287   32.1592 O   0  0  0  0  0  0  0  0  0  0  0  0
   23.5991   19.1662   34.0698 O   0  0  0  0  0  0  0  0  0  0  0  0
   23.9600   18.5141   34.6377 H   0  0  0  0  0  0  0  0  0  0  0  0
   20.9846   16.9734   28.5009 C   0  0  0  0  0  0  0  0  0  0  0  0
   21.2497   18.6490   28.9782 S   0  0  0  0  0  0  0  0  0  0  0  0
   19.5985   18.9684   28.6983 C   0  0  0  0  0  0  0  0  0  0  0  0
   19.5341   20.1180   27.7285 C   0  0  0  0  0  0  0  0  0  0  0  0
   19.3615   19.8360   26.3470 C   0  0  0  0  0  0  0  0  0  0  0  0
   19.2611   20.8647   25.4153 C   0  0  0  0  0  0  0  0  0  0  0  0
   19.3512   22.1960   25.8758 C   0  0  0  0  0  0  0  0  0  0  0  0
   19.5041   22.5036   27.2282 C   0  0  0  0  0  0  0  0  0  0  0  0
   19.5734   21.4646   28.1727 C   0  0  0  0  0  0  0  0  0  0  0  0
   19.7705   21.7258   29.6419 C   0  0  0  0  0  0  0  0  0  0  0  0
   20.1877   23.0121   30.0965 C   0  0  0  0  0  0  0  0  0  0  0  0
   20.3628   23.1953   31.4609 C   0  0  0  0  0  0  0  0  0  0  0  0
   20.1370   22.1720   32.3794 C   0  0  0  0  0  0  0  0  0  0  0  0
   19.6769   20.9315   31.9288 C   0  0  0  0  0  0  0  0  0  0  0  0
   19.4995   20.7262   30.5619 C   0  0  0  0  0  0  0  0  0  0  0  0
   19.0765   19.3312   30.1079 C   0  0  0  0  0  0  0  0  0  0  0  0
   17.6411   19.3858   30.0242 O   0  0  0  0  0  0  0  0  0  0  0  0
   17.3801   20.0684   29.3864 H   0  0  0  0  0  0  0  0  0  0  0  0
  8  9  1  0  0  0
  9 12  1  0  0  0
  9  7  1  0  0  0
 12 13  2  0  0  0
 12 14  1  0  0  0
  7  6  1  0  0  0
  6  2  1  0  0  0
  2  3  2  0  0  0
  2  4  1  0  0  0
  4  1  1  0  0  0
  1 16  1  0  0  0
  1 25  1  0  0  0
 16 17  2  0  0  0
 16 18  1  0  0  0
 25 26  1  0  0  0
 26 27  1  0  0  0
 18 20  1  0  0  0
 20 21  1  0  0  0
 21 22  2  0  0  0
 21 23  1  0  0  0
 27 28  1  0  0  0
 27 40  1  0  0  0
 28 29  2  0  0  0
 28 33  1  0  0  0
 29 30  1  0  0  0
 30 31  2  0  0  0
 31 32  1  0  0  0
 32 33  2  0  0  0
 33 34  1  0  0  0
 34 35  1  0  0  0
 34 39  2  0  0  0
 35 36  2  0  0  0
 36 37  1  0  0  0
 37 38  2  0  0  0
 38 39  1  0  0  0
 39 40  1  0  0  0
 40 41  1  0  0  0
  8 10  1  0  0  0
  8 11  1  0  0  0
 14 15  1  0  0  0
  4  5  1  0  0  0
 18 19  1  0  0  0
 23 24  1  0  0  0
 41 42  1  0  0  0
M  END
> <minimizedAffinity>
-8.47734

$$$$
3GST_GPR_A_223


 42 44  0  0  0  0  0  0  0  0999 V2000
   20.0790   15.8301   28.8539 C   0  0  0  0  0  0  0  0  0  0  0  0
   17.7734   15.1995   28.2880 C   0  0  0  0  0  0  0  0  0  0  0  0
   18.0683   14.6100   27.2188 O   0  0  0  0  0  0  0  0  0  0  0  0
   18.6353   15.7328   29.1693 N   0  0  0  0  0  0  0  0  0  0  0  0
   18.3034   16.0631   30.0353 H   0  0  0  0  0  0  0  0  0  0  0  0
   16.3277   15.3015   28.5764 C   0  0  0  0  0  0  0  0  0  0  0  0
   15.5034   16.2757   27.8044 C   0  0  0  0  0  0  0  0  0  0  0  0
   14.5438   15.0943   25.7610 N   0  0  0  0  0  0  0  0  0  0  0  0
   14.2891   15.4729   27.1992 C   0  0  0  0  0  0  0  0  0  0  0  0
   13.7426   14.5775   25.3984 H   0  0  0  0  0  0  0  0  0  0  0  0
   15.3783   14.5104   25.7058 H   0  0  0  0  0  0  0  0  0  0  0  0
   13.1040   16.4297   27.3313 C   0  0  0  0  0  0  0  0  0  0  0  0
   12.1200   15.9958   28.1124 O   0  0  0  0  0  0  0  0  0  0  0  0
   13.0830   17.4901   26.7184 O   0  0  0  0  0  0  0  0  0  0  0  0
   13.8120   17.7367   26.1838 H   0  0  0  0  0  0  0  0  0  0  0  0
   20.8584   15.9990   30.1880 C   0  0  0  0  0  0  0  0  0  0  0  0
   21.9921   15.5773   30.2227 O   0  0  0  0  0  0  0  0  0  0  0  0
   20.1900   16.4387   31.2084 N   0  0  0  0  0  0  0  0  0  0  0  0
   19.2148   16.5637   31.1574 H   0  0  0  0  0  0  0  0  0  0  0  0
   20.9355   16.7498   32.4591 C   0  0  0  0  0  0  0  0  0  0  0  0
   20.0155   16.7345   33.6294 C   0  0  0  0  0  0  0  0  0  0  0  0
   20.1626   16.0922   34.6800 O   0  0  0  0  0  0  0  0  0  0  0  0
   18.9081   17.4667   33.6112 O   0  0  0  0  0  0  0  0  0  0  0  0
   18.7046   17.9897   32.8608 H   0  0  0  0  0  0  0  0  0  0  0  0
   20.4488   16.9533   27.8619 C   0  0  0  0  0  0  0  0  0  0  0  0
   20.8327   18.4444   28.7191 S   0  0  0  0  0  0  0  0  0  0  0  0
   19.2449   18.9945   28.4309 C   0  0  0  0  0  0  0  0  0  0  0  0
   19.3594   20.2403   27.5935 C   0  0  0  0  0  0  0  0  0  0  0  0
   19.2111   20.1314   26.1850 C   0  0  0  0  0  0  0  0  0  0  0  0
   19.2737   21.2584   25.3711 C   0  0  0  0  0  0  0  0  0  0  0  0
   19.5045   22.5111   25.9792 C   0  0  0  0  0  0  0  0  0  0  0  0
   19.6376   22.6509   27.3611 C   0  0  0  0  0  0  0  0  0  0  0  0
   19.5423   21.5163   28.1858 C   0  0  0  0  0  0  0  0  0  0  0  0
   19.7089   21.5923   29.6798 C   0  0  0  0  0  0  0  0  0  0  0  0
   20.2589   22.7607   30.2860 C   0  0  0  0  0  0  0  0  0  0  0  0
   20.3985   22.7737   31.6666 C   0  0  0  0  0  0  0  0  0  0  0  0
   20.0135   21.6940   32.4590 C   0  0  0  0  0  0  0  0  0  0  0  0
   19.4262   20.5757   31.8606 C   0  0  0  0  0  0  0  0  0  0  0  0
   19.2818   20.5415   30.4750 C   0  0  0  0  0  0  0  0  0  0  0  0
   18.7129   19.2665   29.8571 C   0  0  0  0  0  0  0  0  0  0  0  0
   17.2991   19.5076   29.7403 O   0  0  0  0  0  0  0  0  0  0  0  0
   17.1487   20.2817   29.1754 H   0  0  0  0  0  0  0  0  0  0  0  0
  8  9  1  0  0  0
  9 12  1  0  0  0
  9  7  1  0  0  0
 12 13  2  0  0  0
 12 14  1  0  0  0
  7  6  1  0  0  0
  6  2  1  0  0  0
  2  3  2  0  0  0
  2  4  1  0  0  0
  4  1  1  0  0  0
  1 16  1  0  0  0
  1 25  1  0  0  0
 16 17  2  0  0  0
 16 18  1  0  0  0
 25 26  1  0  0  0
 26 27  1  0  0  0
 18 20  1  0  0  0
 20 21  1  0  0  0
 21 22  2  0  0  0
 21 23  1  0  0  0
 27 28  1  0  0  0
 27 40  1  0  0  0
 28 29  2  0  0  0
 28 33  1  0  0  0
 29 30  1  0  0  0
 30 31  2  0  0  0
 31 32  1  0  0  0
 32 33  2  0  0  0
 33 34  1  0  0  0
 34 35  1  0  0  0
 34 39  2  0  0  0
 35 36  2  0  0  0
 36 37  1  0  0  0
 37 38  2  0  0  0
 38 39  1  0  0  0
 39 40  1  0  0  0
 40 41  1  0  0  0
  8 10  1  0  0  0
  8 11  1  0  0  0
 14 15  1  0  0  0
  4  5  1  0  0  0
 18 19  1  0  0  0
 23 24  1  0  0  0
 41 42  1  0  0  0
M  END
> <minimizedAffinity>
-8.43543

$$$$
3GST_GPR_A_223


 42 44  0  0  0  0  0  0  0  0999 V2000
   16.8553   16.0629   29.4424 C   0  0  0  0  0  0  0  0  0  0  0  0
   17.5642   13.8260   28.7163 C   0  0  0  0  0  0  0  0  0  0  0  0
   16.4046   13.3484   28.6464 O   0  0  0  0  0  0  0  0  0  0  0  0
   17.8875   15.0991   28.9966 N   0  0  0  0  0  0  0  0  0  0  0  0
   18.8220   15.3951   28.9047 H   0  0  0  0  0  0  0  0  0  0  0  0
   18.6596   12.8674   28.4614 C   0  0  0  0  0  0  0  0  0  0  0  0
   18.7729   12.2409   27.1127 C   0  0  0  0  0  0  0  0  0  0  0  0
   17.9292   14.2674   25.8188 N   0  0  0  0  0  0  0  0  0  0  0  0
   19.1277   13.3943   26.0980 C   0  0  0  0  0  0  0  0  0  0  0  0
   18.1897   15.0021   25.1610 H   0  0  0  0  0  0  0  0  0  0  0  0
   17.6058   14.6894   26.6893 H   0  0  0  0  0  0  0  0  0  0  0  0
   19.5966   12.6582   24.8428 C   0  0  0  0  0  0  0  0  0  0  0  0
   20.7422   11.9979   24.9774 O   0  0  0  0  0  0  0  0  0  0  0  0
   18.9570   12.7264   23.8003 O   0  0  0  0  0  0  0  0  0  0  0  0
   18.1547   13.2098   23.7737 H   0  0  0  0  0  0  0  0  0  0  0  0
   16.1797   16.6705   28.1814 C   0  0  0  0  0  0  0  0  0  0  0  0
   16.8755   16.8294   27.2042 O   0  0  0  0  0  0  0  0  0  0  0  0
   14.9646   17.1026   28.3153 N   0  0  0  0  0  0  0  0  0  0  0  0
   14.5331   17.1306   29.1998 H   0  0  0  0  0  0  0  0  0  0  0  0
   14.2386   17.5555   27.0968 C   0  0  0  0  0  0  0  0  0  0  0  0
   13.1010   16.6420   26.8005 C   0  0  0  0  0  0  0  0  0  0  0  0
   12.4258   16.0070   27.6244 O   0  0  0  0  0  0  0  0  0  0  0  0
   12.7170   16.4480   25.5445 O   0  0  0  0  0  0  0  0  0  0  0  0
   13.1639   16.8833   24.8454 H   0  0  0  0  0  0  0  0  0  0  0  0
   17.3738   17.1797   30.3731 C   0  0  0  0  0  0  0  0  0  0  0  0
   17.4459   18.7211   29.5219 S   0  0  0  0  0  0  0  0  0  0  0  0
   19.1283   18.7691   29.7938 C   0  0  0  0  0  0  0  0  0  0  0  0
   19.4357   20.1150   30.3941 C   0  0  0  0  0  0  0  0  0  0  0  0
   19.5500   20.2220   31.8059 C   0  0  0  0  0  0  0  0  0  0  0  0
   19.8672   21.4365   32.4067 C   0  0  0  0  0  0  0  0  0  0  0  0
   20.0565   22.5636   31.5783 C   0  0  0  0  0  0  0  0  0  0  0  0
   19.9669   22.4851   30.1881 C   0  0  0  0  0  0  0  0  0  0  0  0
   19.6780   21.2510   29.5798 C   0  0  0  0  0  0  0  0  0  0  0  0
   19.5349   21.1038   28.0887 C   0  0  0  0  0  0  0  0  0  0  0  0
   19.3951   22.2565   27.2599 C   0  0  0  0  0  0  0  0  0  0  0  0
   19.2576   22.0627   25.8927 C   0  0  0  0  0  0  0  0  0  0  0  0
   19.2607   20.7914   25.3221 C   0  0  0  0  0  0  0  0  0  0  0  0
   19.4521   19.6716   26.1364 C   0  0  0  0  0  0  0  0  0  0  0  0
   19.5872   19.8451   27.5125 C   0  0  0  0  0  0  0  0  0  0  0  0
   19.7099   18.5895   28.3723 C   0  0  0  0  0  0  0  0  0  0  0  0
   21.1252   18.3759   28.5203 O   0  0  0  0  0  0  0  0  0  0  0  0
   21.5257   19.1484   28.9489 H   0  0  0  0  0  0  0  0  0  0  0  0
  8  9  1  0  0  0
  9 12  1  0  0  0
  9  7  1  0  0  0
 12 13  2  0  0  0
 12 14  1  0  0  0
  7  6  1  0  0  0
  6  2  1  0  0  0
  2  3  2  0  0  0
  2  4  1  0  0  0
  4  1  1  0  0  0
  1 16  1  0  0  0
  1 25  1  0  0  0
 16 17  2  0  0  0
 16 18  1  0  0  0
 25 26  1  0  0  0
 26 27  1  0  0  0
 18 20  1  0  0  0
 20 21  1  0  0  0
 21 22  2  0  0  0
 21 23  1  0  0  0
 27 28  1  0  0  0
 27 40  1  0  0  0
 28 29  2  0  0  0
 28 33  1  0  0  0
 29 30  1  0  0  0
 30 31  2  0  0  0
 31 32  1  0  0  0
 32 33  2  0  0  0
 33 34  1  0  0  0
 34 35  1  0  0  0
 34 39  2  0  0  0
 35 36  2  0  0  0
 36 37  1  0  0  0
 37 38  2  0  0  0
 38 39  1  0  0  0
 39 40  1  0  0  0
 40 41  1  0  0  0
  8 10  1  0  0  0
  8 11  1  0  0  0
 14 15  1  0  0  0
  4  5  1  0  0  0
 18 19  1  0  0  0
 23 24  1  0  0  0
 41 42  1  0  0  0
M  END
> <minimizedAffinity>
-8.40026

$$$$
