4E4N_0NL_A_1201


 27 30  0  0  0  0  0  0  0  0999 V2000
    6.7155   53.5297    1.9691 C   0  0  0  0  0  0  0  0  0  0  0  0
    6.5577   54.5003    3.1637 C   0  0  0  0  0  0  0  0  0  0  0  0
    6.8888   55.8972    2.5916 C   0  0  0  0  0  0  0  0  0  0  0  0
    6.5350   55.7999    1.0889 C   0  0  0  0  0  0  0  0  0  0  0  0
    6.9403   54.3705    0.6916 C   0  0  0  0  0  0  0  0  0  0  0  0
    7.2922   56.8977    0.4634 N   0  0  0  0  0  0  0  0  0  0  0  0
    8.5110   56.8604   -0.1720 C   0  0  0  0  0  0  0  0  0  0  0  0
    8.8434   58.0732   -0.5488 N   0  0  0  0  0  0  0  0  0  0  0  0
    7.8768   58.9468   -0.1629 C   0  0  0  0  0  0  0  0  0  0  0  0
    6.8748   58.1969    0.4977 C   0  0  0  0  0  0  0  0  0  0  0  0
    5.7411   58.8641    1.0058 C   0  0  0  0  0  0  0  0  0  0  0  0
    4.5239   58.4492    1.7309 C   0  0  0  0  0  0  0  0  0  0  0  0
    3.8132   59.5665    1.9331 C   0  0  0  0  0  0  0  0  0  0  0  0
    4.4766   60.6566    1.4087 N   0  0  0  0  0  0  0  0  0  0  0  0
    5.6532   60.2591    0.8277 C   0  0  0  0  0  0  0  0  0  0  0  0
    6.6357   60.9343    0.2023 N   0  0  0  0  0  0  0  0  0  0  0  0
    7.7038   60.3364   -0.2792 C   0  0  0  0  0  0  0  0  0  0  0  0
    4.1521   61.5854    1.4462 H   0  0  0  0  0  0  0  0  0  0  0  0
    5.6081   51.3331    1.9844 C   0  0  0  0  0  0  0  0  0  0  0  0
    6.6996   50.7800    1.9911 O   0  0  0  0  0  0  0  0  0  0  0  0
    5.5134   52.6832    1.9395 N   0  0  0  0  0  0  0  0  0  0  0  0
    4.6253   53.1048    1.8863 H   0  0  0  0  0  0  0  0  0  0  0  0
    4.4429   50.6553    1.9925 O   0  0  0  0  0  0  0  0  0  0  0  0
    4.1655   50.1822   -0.3755 C   0  0  0  0  0  0  0  0  0  0  0  0
    4.0397   49.6290    1.0367 C   0  0  0  0  0  0  0  0  0  0  0  0
    2.5588   49.3354    1.2769 C   0  0  0  0  0  0  0  0  0  0  0  0
    4.8392   48.3301    1.2084 C   0  0  0  0  0  0  0  0  0  0  0  0
 24 25  1  0  0  0
 25 26  1  0  0  0
 25 27  1  0  0  0
 25 23  1  0  0  0
 23 19  1  0  0  0
 19 20  2  0  0  0
 19 21  1  0  0  0
 21  1  1  0  0  0
  1  2  1  0  0  0
  1  5  1  0  0  0
  2  3  1  0  0  0
  3  4  1  0  0  0
  4  5  1  0  0  0
  4  6  1  0  0  0
  6  7  1  0  0  0
  6 10  1  0  0  0
  7  8  2  0  0  0
  8  9  1  0  0  0
  9 10  2  0  0  0
  9 17  1  0  0  0
 10 11  1  0  0  0
 11 12  1  0  0  0
 11 15  2  0  0  0
 12 13  2  0  0  0
 13 14  1  0  0  0
 14 15  1  0  0  0
 15 16  1  0  0  0
 16 17  2  0  0  0
 21 22  1  0  0  0
 14 18  1  0  0  0
M  END
> <minimizedAffinity>
-9.33944

$$$$
4E4N_0NL_A_1201


 27 30  0  0  0  0  0  0  0  0999 V2000
    7.5954   54.2134    2.3273 C   0  0  0  0  0  0  0  0  0  0  0  0
    6.1750   53.6882    2.0100 C   0  0  0  0  0  0  0  0  0  0  0  0
    5.3460   54.9496    1.6786 C   0  0  0  0  0  0  0  0  0  0  0  0
    6.3794   55.9693    1.1445 C   0  0  0  0  0  0  0  0  0  0  0  0
    7.6363   55.7226    1.9957 C   0  0  0  0  0  0  0  0  0  0  0  0
    5.7199   57.2765    1.3061 N   0  0  0  0  0  0  0  0  0  0  0  0
    4.5155   57.5743    1.8989 C   0  0  0  0  0  0  0  0  0  0  0  0
    4.2829   58.8618    1.7905 N   0  0  0  0  0  0  0  0  0  0  0  0
    5.3038   59.4497    1.1132 C   0  0  0  0  0  0  0  0  0  0  0  0
    6.2325   58.4318    0.7906 C   0  0  0  0  0  0  0  0  0  0  0  0
    7.4020   58.7703    0.0788 C   0  0  0  0  0  0  0  0  0  0  0  0
    8.5690   58.0211   -0.4275 C   0  0  0  0  0  0  0  0  0  0  0  0
    9.3569   58.9228   -1.0280 C   0  0  0  0  0  0  0  0  0  0  0  0
    8.7883   60.1777   -0.9564 N   0  0  0  0  0  0  0  0  0  0  0  0
    7.5977   60.1191   -0.2786 C   0  0  0  0  0  0  0  0  0  0  0  0
    6.6821   61.0532    0.0396 N   0  0  0  0  0  0  0  0  0  0  0  0
    5.5827   60.7638    0.7012 C   0  0  0  0  0  0  0  0  0  0  0  0
    9.1804   60.9967   -1.3368 H   0  0  0  0  0  0  0  0  0  0  0  0
    9.0857   52.2712    2.0847 C   0  0  0  0  0  0  0  0  0  0  0  0
    8.8508   51.9435    3.2401 O   0  0  0  0  0  0  0  0  0  0  0  0
    8.5409   53.3926    1.5561 N   0  0  0  0  0  0  0  0  0  0  0  0
    8.7818   53.6628    0.6405 H   0  0  0  0  0  0  0  0  0  0  0  0
    9.9083   51.5723    1.2774 O   0  0  0  0  0  0  0  0  0  0  0  0
   11.6794   51.8184   -0.3690 C   0  0  0  0  0  0  0  0  0  0  0  0
   11.3419   51.7909    1.1147 C   0  0  0  0  0  0  0  0  0  0  0  0
   12.0610   50.5851    1.7196 C   0  0  0  0  0  0  0  0  0  0  0  0
   11.8190   53.0641    1.8268 C   0  0  0  0  0  0  0  0  0  0  0  0
 24 25  1  0  0  0
 25 26  1  0  0  0
 25 27  1  0  0  0
 25 23  1  0  0  0
 23 19  1  0  0  0
 19 20  2  0  0  0
 19 21  1  0  0  0
 21  1  1  0  0  0
  1  2  1  0  0  0
  1  5  1  0  0  0
  2  3  1  0  0  0
  3  4  1  0  0  0
  4  5  1  0  0  0
  4  6  1  0  0  0
  6  7  1  0  0  0
  6 10  1  0  0  0
  7  8  2  0  0  0
  8  9  1  0  0  0
  9 10  2  0  0  0
  9 17  1  0  0  0
 10 11  1  0  0  0
 11 12  1  0  0  0
 11 15  2  0  0  0
 12 13  2  0  0  0
 13 14  1  0  0  0
 14 15  1  0  0  0
 15 16  1  0  0  0
 16 17  2  0  0  0
 21 22  1  0  0  0
 14 18  1  0  0  0
M  END
> <minimizedAffinity>
-8.78970

$$$$
4E4N_0NL_A_1201


 27 30  0  0  0  0  0  0  0  0999 V2000
    7.0854   54.4603    2.8185 C   0  0  0  0  0  0  0  0  0  0  0  0
    5.7564   53.9775    2.1903 C   0  0  0  0  0  0  0  0  0  0  0  0
    5.0600   55.2625    1.6886 C   0  0  0  0  0  0  0  0  0  0  0  0
    6.2163   56.2495    1.4028 C   0  0  0  0  0  0  0  0  0  0  0  0
    7.2441   55.9669    2.5114 C   0  0  0  0  0  0  0  0  0  0  0  0
    5.5767   57.5764    1.4196 N   0  0  0  0  0  0  0  0  0  0  0  0
    4.3538   57.9446    1.9290 C   0  0  0  0  0  0  0  0  0  0  0  0
    4.1519   59.2211    1.6981 N   0  0  0  0  0  0  0  0  0  0  0  0
    5.2130   59.7305    1.0190 C   0  0  0  0  0  0  0  0  0  0  0  0
    6.1344   58.6733    0.8289 C   0  0  0  0  0  0  0  0  0  0  0  0
    7.3404   58.9289    0.1440 C   0  0  0  0  0  0  0  0  0  0  0  0
    8.5131   58.1193   -0.2416 C   0  0  0  0  0  0  0  0  0  0  0  0
    9.3445   58.9517   -0.8823 C   0  0  0  0  0  0  0  0  0  0  0  0
    8.7984   60.2171   -0.9463 N   0  0  0  0  0  0  0  0  0  0  0  0
    7.5785   60.2376   -0.3207 C   0  0  0  0  0  0  0  0  0  0  0  0
    6.6687   61.2107   -0.1270 N   0  0  0  0  0  0  0  0  0  0  0  0
    5.5359   60.9985    0.5069 C   0  0  0  0  0  0  0  0  0  0  0  0
    9.2232   60.9930   -1.3786 H   0  0  0  0  0  0  0  0  0  0  0  0
    8.1814   52.2784    2.5187 C   0  0  0  0  0  0  0  0  0  0  0  0
    7.3498   51.7574    3.2499 O   0  0  0  0  0  0  0  0  0  0  0  0
    8.1541   53.6098    2.2734 N   0  0  0  0  0  0  0  0  0  0  0  0
    8.8612   54.0150    1.7211 H   0  0  0  0  0  0  0  0  0  0  0  0
    9.1821   51.5870    1.9377 O   0  0  0  0  0  0  0  0  0  0  0  0
    9.4687   49.1831    2.1546 C   0  0  0  0  0  0  0  0  0  0  0  0
    9.0512   50.3176    1.2300 C   0  0  0  0  0  0  0  0  0  0  0  0
   10.0404   50.3382    0.0647 C   0  0  0  0  0  0  0  0  0  0  0  0
    7.6352   50.1047    0.6776 C   0  0  0  0  0  0  0  0  0  0  0  0
 24 25  1  0  0  0
 25 26  1  0  0  0
 25 27  1  0  0  0
 25 23  1  0  0  0
 23 19  1  0  0  0
 19 20  2  0  0  0
 19 21  1  0  0  0
 21  1  1  0  0  0
  1  2  1  0  0  0
  1  5  1  0  0  0
  2  3  1  0  0  0
  3  4  1  0  0  0
  4  5  1  0  0  0
  4  6  1  0  0  0
  6  7  1  0  0  0
  6 10  1  0  0  0
  7  8  2  0  0  0
  8  9  1  0  0  0
  9 10  2  0  0  0
  9 17  1  0  0  0
 10 11  1  0  0  0
 11 12  1  0  0  0
 11 15  2  0  0  0
 12 13  2  0  0  0
 13 14  1  0  0  0
 14 15  1  0  0  0
 15 16  1  0  0  0
 16 17  2  0  0  0
 21 22  1  0  0  0
 14 18  1  0  0  0
M  END
> <minimizedAffinity>
-8.07125

$$$$
4E4N_0NL_A_1201


 27 30  0  0  0  0  0  0  0  0999 V2000
    4.9254   49.8741    1.5013 C   0  0  0  0  0  0  0  0  0  0  0  0
    5.1260   50.3958    2.9440 C   0  0  0  0  0  0  0  0  0  0  0  0
    6.2299   51.4714    2.8315 C   0  0  0  0  0  0  0  0  0  0  0  0
    6.1126   52.0043    1.3841 C   0  0  0  0  0  0  0  0  0  0  0  0
    5.7536   50.7649    0.5473 C   0  0  0  0  0  0  0  0  0  0  0  0
    7.4216   52.6243    1.1157 N   0  0  0  0  0  0  0  0  0  0  0  0
    8.6273   52.0232    0.8409 C   0  0  0  0  0  0  0  0  0  0  0  0
    9.5528   52.9444    0.7055 N   0  0  0  0  0  0  0  0  0  0  0  0
    9.0016   54.1707    0.9030 C   0  0  0  0  0  0  0  0  0  0  0  0
    7.6271   53.9725    1.1755 C   0  0  0  0  0  0  0  0  0  0  0  0
    6.8075   55.0935    1.4211 C   0  0  0  0  0  0  0  0  0  0  0  0
    5.3783   55.2929    1.7325 C   0  0  0  0  0  0  0  0  0  0  0  0
    5.2054   56.6160    1.8518 C   0  0  0  0  0  0  0  0  0  0  0  0
    6.4015   57.2742    1.6533 N   0  0  0  0  0  0  0  0  0  0  0  0
    7.3974   56.3724    1.3795 C   0  0  0  0  0  0  0  0  0  0  0  0
    8.7122   56.5137    1.1271 N   0  0  0  0  0  0  0  0  0  0  0  0
    9.4987   55.4849    0.8964 C   0  0  0  0  0  0  0  0  0  0  0  0
    6.5225   58.2501    1.7013 H   0  0  0  0  0  0  0  0  0  0  0  0
    2.8719   48.8187    0.6522 C   0  0  0  0  0  0  0  0  0  0  0  0
    3.5220   47.8543    0.2716 O   0  0  0  0  0  0  0  0  0  0  0  0
    3.4785   49.8779    1.2386 N   0  0  0  0  0  0  0  0  0  0  0  0
    2.9422   50.6632    1.4932 H   0  0  0  0  0  0  0  0  0  0  0  0
    1.5363   48.9106    0.4948 O   0  0  0  0  0  0  0  0  0  0  0  0
    0.3713   46.8463    1.0331 C   0  0  0  0  0  0  0  0  0  0  0  0
    0.5261   48.3227    1.3685 C   0  0  0  0  0  0  0  0  0  0  0  0
   -0.8064   49.0008    1.0495 C   0  0  0  0  0  0  0  0  0  0  0  0
    0.8496   48.5341    2.8538 C   0  0  0  0  0  0  0  0  0  0  0  0
 24 25  1  0  0  0
 25 26  1  0  0  0
 25 27  1  0  0  0
 25 23  1  0  0  0
 23 19  1  0  0  0
 19 20  2  0  0  0
 19 21  1  0  0  0
 21  1  1  0  0  0
  1  2  1  0  0  0
  1  5  1  0  0  0
  2  3  1  0  0  0
  3  4  1  0  0  0
  4  5  1  0  0  0
  4  6  1  0  0  0
  6  7  1  0  0  0
  6 10  1  0  0  0
  7  8  2  0  0  0
  8  9  1  0  0  0
  9 10  2  0  0  0
  9 17  1  0  0  0
 10 11  1  0  0  0
 11 12  1  0  0  0
 11 15  2  0  0  0
 12 13  2  0  0  0
 13 14  1  0  0  0
 14 15  1  0  0  0
 15 16  1  0  0  0
 16 17  2  0  0  0
 21 22  1  0  0  0
 14 18  1  0  0  0
M  END
> <minimizedAffinity>
-8.02272

$$$$
4E4N_0NL_A_1201


 27 30  0  0  0  0  0  0  0  0999 V2000
    6.4585   51.0749    2.1722 C   0  0  0  0  0  0  0  0  0  0  0  0
    7.7270   50.9412    3.0481 C   0  0  0  0  0  0  0  0  0  0  0  0
    8.5443   52.2225    2.7682 C   0  0  0  0  0  0  0  0  0  0  0  0
    7.4903   53.2795    2.3622 C   0  0  0  0  0  0  0  0  0  0  0  0
    6.4490   52.4903    1.5510 C   0  0  0  0  0  0  0  0  0  0  0  0
    8.2598   54.3006    1.6307 N   0  0  0  0  0  0  0  0  0  0  0  0
    9.5786   54.2814    1.2422 C   0  0  0  0  0  0  0  0  0  0  0  0
    9.8745   55.4138    0.6476 N   0  0  0  0  0  0  0  0  0  0  0  0
    8.7799   56.2191    0.6399 C   0  0  0  0  0  0  0  0  0  0  0  0
    7.7349   55.5106    1.2791 C   0  0  0  0  0  0  0  0  0  0  0  0
    6.4706   56.1218    1.4091 C   0  0  0  0  0  0  0  0  0  0  0  0
    5.1742   55.7238    1.9923 C   0  0  0  0  0  0  0  0  0  0  0  0
    4.3451   56.7572    1.7944 C   0  0  0  0  0  0  0  0  0  0  0  0
    5.0037   57.7810    1.1452 N   0  0  0  0  0  0  0  0  0  0  0  0
    6.3013   57.4201    0.8882 C   0  0  0  0  0  0  0  0  0  0  0  0
    7.3267   58.0615    0.2972 N   0  0  0  0  0  0  0  0  0  0  0  0
    8.5157   57.5148    0.1647 C   0  0  0  0  0  0  0  0  0  0  0  0
    4.6004   58.6455    0.9018 H   0  0  0  0  0  0  0  0  0  0  0  0
    4.1800   50.2195    2.5306 C   0  0  0  0  0  0  0  0  0  0  0  0
    4.0710   50.0003    1.3316 O   0  0  0  0  0  0  0  0  0  0  0  0
    5.3053   50.7787    3.0353 N   0  0  0  0  0  0  0  0  0  0  0  0
    5.3521   50.9905    3.9956 H   0  0  0  0  0  0  0  0  0  0  0  0
    3.1995   49.9534    3.4165 O   0  0  0  0  0  0  0  0  0  0  0  0
    1.3883   48.3677    3.0798 C   0  0  0  0  0  0  0  0  0  0  0  0
    2.7114   48.6285    3.7851 C   0  0  0  0  0  0  0  0  0  0  0  0
    2.4272   48.6462    5.2870 C   0  0  0  0  0  0  0  0  0  0  0  0
    3.7383   47.5279    3.4854 C   0  0  0  0  0  0  0  0  0  0  0  0
 24 25  1  0  0  0
 25 26  1  0  0  0
 25 27  1  0  0  0
 25 23  1  0  0  0
 23 19  1  0  0  0
 19 20  2  0  0  0
 19 21  1  0  0  0
 21  1  1  0  0  0
  1  2  1  0  0  0
  1  5  1  0  0  0
  2  3  1  0  0  0
  3  4  1  0  0  0
  4  5  1  0  0  0
  4  6  1  0  0  0
  6  7  1  0  0  0
  6 10  1  0  0  0
  7  8  2  0  0  0
  8  9  1  0  0  0
  9 10  2  0  0  0
  9 17  1  0  0  0
 10 11  1  0  0  0
 11 12  1  0  0  0
 11 15  2  0  0  0
 12 13  2  0  0  0
 13 14  1  0  0  0
 14 15  1  0  0  0
 15 16  1  0  0  0
 16 17  2  0  0  0
 21 22  1  0  0  0
 14 18  1  0  0  0
M  END
> <minimizedAffinity>
-7.94805

$$$$
4E4N_0NL_A_1201


 27 30  0  0  0  0  0  0  0  0999 V2000
    5.8721   50.9794    2.2086 C   0  0  0  0  0  0  0  0  0  0  0  0
    5.5885   50.3834    0.8093 C   0  0  0  0  0  0  0  0  0  0  0  0
    4.7726   49.0989    1.0785 C   0  0  0  0  0  0  0  0  0  0  0  0
    4.0524   49.3656    2.4213 C   0  0  0  0  0  0  0  0  0  0  0  0
    5.0715   50.1651    3.2505 C   0  0  0  0  0  0  0  0  0  0  0  0
    3.7030   48.0247    2.9211 N   0  0  0  0  0  0  0  0  0  0  0  0
    4.4392   47.1729    3.7104 C   0  0  0  0  0  0  0  0  0  0  0  0
    3.7709   46.0572    3.8891 N   0  0  0  0  0  0  0  0  0  0  0  0
    2.5922   46.1241    3.2162 C   0  0  0  0  0  0  0  0  0  0  0  0
    2.5437   47.3886    2.5826 C   0  0  0  0  0  0  0  0  0  0  0  0
    1.4144   47.7251    1.8078 C   0  0  0  0  0  0  0  0  0  0  0  0
    1.0040   48.9030    1.0182 C   0  0  0  0  0  0  0  0  0  0  0  0
   -0.2008   48.6091    0.5116 C   0  0  0  0  0  0  0  0  0  0  0  0
   -0.5877   47.3437    0.9020 N   0  0  0  0  0  0  0  0  0  0  0  0
    0.3736   46.7812    1.7017 C   0  0  0  0  0  0  0  0  0  0  0  0
    0.4668   45.5853    2.3128 N   0  0  0  0  0  0  0  0  0  0  0  0
    1.5094   45.2462    3.0396 C   0  0  0  0  0  0  0  0  0  0  0  0
   -1.4318   46.9077    0.6438 H   0  0  0  0  0  0  0  0  0  0  0  0
    6.4246   53.3617    2.4751 C   0  0  0  0  0  0  0  0  0  0  0  0
    7.5373   53.0604    2.8856 O   0  0  0  0  0  0  0  0  0  0  0  0
    5.5221   52.4064    2.1486 N   0  0  0  0  0  0  0  0  0  0  0  0
    4.6169   52.6716    1.8665 H   0  0  0  0  0  0  0  0  0  0  0  0
    6.0118   54.6385    2.3463 O   0  0  0  0  0  0  0  0  0  0  0  0
    7.8366   56.2224    2.0825 C   0  0  0  0  0  0  0  0  0  0  0  0
    6.5814   55.6390    1.4497 C   0  0  0  0  0  0  0  0  0  0  0  0
    5.5667   56.7758    1.3275 C   0  0  0  0  0  0  0  0  0  0  0  0
    6.8643   55.0715    0.0520 C   0  0  0  0  0  0  0  0  0  0  0  0
 24 25  1  0  0  0
 25 26  1  0  0  0
 25 27  1  0  0  0
 25 23  1  0  0  0
 23 19  1  0  0  0
 19 20  2  0  0  0
 19 21  1  0  0  0
 21  1  1  0  0  0
  1  2  1  0  0  0
  1  5  1  0  0  0
  2  3  1  0  0  0
  3  4  1  0  0  0
  4  5  1  0  0  0
  4  6  1  0  0  0
  6  7  1  0  0  0
  6 10  1  0  0  0
  7  8  2  0  0  0
  8  9  1  0  0  0
  9 10  2  0  0  0
  9 17  1  0  0  0
 10 11  1  0  0  0
 11 12  1  0  0  0
 11 15  2  0  0  0
 12 13  2  0  0  0
 13 14  1  0  0  0
 14 15  1  0  0  0
 15 16  1  0  0  0
 16 17  2  0  0  0
 21 22  1  0  0  0
 14 18  1  0  0  0
M  END
> <minimizedAffinity>
-7.61750

$$$$
4E4N_0NL_A_1201


 27 30  0  0  0  0  0  0  0  0999 V2000
    5.3617   50.0804    2.4954 C   0  0  0  0  0  0  0  0  0  0  0  0
    5.8770   49.8401    1.0564 C   0  0  0  0  0  0  0  0  0  0  0  0
    6.4534   51.2009    0.6046 C   0  0  0  0  0  0  0  0  0  0  0  0
    6.8828   51.9001    1.9159 C   0  0  0  0  0  0  0  0  0  0  0  0
    5.8072   51.4931    2.9371 C   0  0  0  0  0  0  0  0  0  0  0  0
    6.9498   53.3288    1.5631 N   0  0  0  0  0  0  0  0  0  0  0  0
    5.9252   54.2085    1.3046 C   0  0  0  0  0  0  0  0  0  0  0  0
    6.4260   55.3804    0.9892 N   0  0  0  0  0  0  0  0  0  0  0  0
    7.7830   55.3117    1.0091 C   0  0  0  0  0  0  0  0  0  0  0  0
    8.1294   53.9884    1.3718 C   0  0  0  0  0  0  0  0  0  0  0  0
    9.4920   53.6379    1.4695 C   0  0  0  0  0  0  0  0  0  0  0  0
   10.2307   52.4051    1.8071 C   0  0  0  0  0  0  0  0  0  0  0  0
   11.5308   52.7181    1.7285 C   0  0  0  0  0  0  0  0  0  0  0  0
   11.6832   54.0392    1.3610 N   0  0  0  0  0  0  0  0  0  0  0  0
   10.4561   54.6305    1.2038 C   0  0  0  0  0  0  0  0  0  0  0  0
   10.0812   55.8744    0.8512 N   0  0  0  0  0  0  0  0  0  0  0  0
    8.8178   56.2265    0.7513 C   0  0  0  0  0  0  0  0  0  0  0  0
   12.5477   54.4917    1.2304 H   0  0  0  0  0  0  0  0  0  0  0  0
    5.4312   48.7920    4.5899 C   0  0  0  0  0  0  0  0  0  0  0  0
    4.6181   49.5573    5.0905 O   0  0  0  0  0  0  0  0  0  0  0  0
    5.8838   48.9869    3.3286 N   0  0  0  0  0  0  0  0  0  0  0  0
    6.5736   48.3867    2.9635 H   0  0  0  0  0  0  0  0  0  0  0  0
    5.9479   47.7368    5.2506 O   0  0  0  0  0  0  0  0  0  0  0  0
    3.8580   46.4957    5.2406 C   0  0  0  0  0  0  0  0  0  0  0  0
    5.3750   46.3959    5.3096 C   0  0  0  0  0  0  0  0  0  0  0  0
    5.7276   45.8065    6.6753 C   0  0  0  0  0  0  0  0  0  0  0  0
    5.9317   45.4784    4.2124 C   0  0  0  0  0  0  0  0  0  0  0  0
 24 25  1  0  0  0
 25 26  1  0  0  0
 25 27  1  0  0  0
 25 23  1  0  0  0
 23 19  1  0  0  0
 19 20  2  0  0  0
 19 21  1  0  0  0
 21  1  1  0  0  0
  1  2  1  0  0  0
  1  5  1  0  0  0
  2  3  1  0  0  0
  3  4  1  0  0  0
  4  5  1  0  0  0
  4  6  1  0  0  0
  6  7  1  0  0  0
  6 10  1  0  0  0
  7  8  2  0  0  0
  8  9  1  0  0  0
  9 10  2  0  0  0
  9 17  1  0  0  0
 10 11  1  0  0  0
 11 12  1  0  0  0
 11 15  2  0  0  0
 12 13  2  0  0  0
 13 14  1  0  0  0
 14 15  1  0  0  0
 15 16  1  0  0  0
 16 17  2  0  0  0
 21 22  1  0  0  0
 14 18  1  0  0  0
M  END
> <minimizedAffinity>
-7.30062

$$$$
4E4N_0NL_A_1201


 27 30  0  0  0  0  0  0  0  0999 V2000
    6.6552   51.6568    1.7386 C   0  0  0  0  0  0  0  0  0  0  0  0
    6.4178   50.6990    0.5469 C   0  0  0  0  0  0  0  0  0  0  0  0
    5.7504   49.4491    1.1640 C   0  0  0  0  0  0  0  0  0  0  0  0
    5.0251   49.9740    2.4254 C   0  0  0  0  0  0  0  0  0  0  0  0
    5.9631   51.0572    2.9840 C   0  0  0  0  0  0  0  0  0  0  0  0
    4.8308   48.7759    3.2602 N   0  0  0  0  0  0  0  0  0  0  0  0
    5.6565   48.2450    4.2230 C   0  0  0  0  0  0  0  0  0  0  0  0
    5.1212   47.1443    4.6977 N   0  0  0  0  0  0  0  0  0  0  0  0
    3.9465   46.9017    4.0590 C   0  0  0  0  0  0  0  0  0  0  0  0
    3.7551   47.9467    3.1242 C   0  0  0  0  0  0  0  0  0  0  0  0
    2.5988   47.9422    2.3169 C   0  0  0  0  0  0  0  0  0  0  0  0
    2.0589   48.8230    1.2624 C   0  0  0  0  0  0  0  0  0  0  0  0
    0.8993   48.2739    0.8776 C   0  0  0  0  0  0  0  0  0  0  0  0
    0.6596   47.1158    1.5882 N   0  0  0  0  0  0  0  0  0  0  0  0
    1.6752   46.8908    2.4815 C   0  0  0  0  0  0  0  0  0  0  0  0
    1.9032   45.9109    3.3759 N   0  0  0  0  0  0  0  0  0  0  0  0
    2.9740   45.8907    4.1395 C   0  0  0  0  0  0  0  0  0  0  0  0
   -0.1267   46.5352    1.4709 H   0  0  0  0  0  0  0  0  0  0  0  0
    6.9718   53.8987    0.7766 C   0  0  0  0  0  0  0  0  0  0  0  0
    8.1678   53.6759    0.6447 O   0  0  0  0  0  0  0  0  0  0  0  0
    6.1512   52.9785    1.3365 N   0  0  0  0  0  0  0  0  0  0  0  0
    5.2018   53.1979    1.4767 H   0  0  0  0  0  0  0  0  0  0  0  0
    6.3980   55.0617    0.4090 O   0  0  0  0  0  0  0  0  0  0  0  0
    7.1590   56.1335    2.4535 C   0  0  0  0  0  0  0  0  0  0  0  0
    6.2320   56.2417    1.2514 C   0  0  0  0  0  0  0  0  0  0  0  0
    4.7988   56.2274    1.7831 C   0  0  0  0  0  0  0  0  0  0  0  0
    6.4624   57.5456    0.4753 C   0  0  0  0  0  0  0  0  0  0  0  0
 24 25  1  0  0  0
 25 26  1  0  0  0
 25 27  1  0  0  0
 25 23  1  0  0  0
 23 19  1  0  0  0
 19 20  2  0  0  0
 19 21  1  0  0  0
 21  1  1  0  0  0
  1  2  1  0  0  0
  1  5  1  0  0  0
  2  3  1  0  0  0
  3  4  1  0  0  0
  4  5  1  0  0  0
  4  6  1  0  0  0
  6  7  1  0  0  0
  6 10  1  0  0  0
  7  8  2  0  0  0
  8  9  1  0  0  0
  9 10  2  0  0  0
  9 17  1  0  0  0
 10 11  1  0  0  0
 11 12  1  0  0  0
 11 15  2  0  0  0
 12 13  2  0  0  0
 13 14  1  0  0  0
 14 15  1  0  0  0
 15 16  1  0  0  0
 16 17  2  0  0  0
 21 22  1  0  0  0
 14 18  1  0  0  0
M  END
> <minimizedAffinity>
-7.17989

$$$$
4E4N_0NL_A_1201


 27 30  0  0  0  0  0  0  0  0999 V2000
    4.5275   49.1052    2.7374 C   0  0  0  0  0  0  0  0  0  0  0  0
    5.1375   49.7620    3.9985 C   0  0  0  0  0  0  0  0  0  0  0  0
    6.3638   50.5507    3.4864 C   0  0  0  0  0  0  0  0  0  0  0  0
    6.0230   50.8958    2.0175 C   0  0  0  0  0  0  0  0  0  0  0  0
    5.2676   49.6605    1.4991 C   0  0  0  0  0  0  0  0  0  0  0  0
    7.3284   51.1788    1.3964 N   0  0  0  0  0  0  0  0  0  0  0  0
    8.1451   50.3427    0.6721 C   0  0  0  0  0  0  0  0  0  0  0  0
    9.2391   50.9858    0.3359 N   0  0  0  0  0  0  0  0  0  0  0  0
    9.1929   52.2482    0.8368 C   0  0  0  0  0  0  0  0  0  0  0  0
    7.9655   52.3787    1.5291 C   0  0  0  0  0  0  0  0  0  0  0  0
    7.6566   53.6050    2.1532 C   0  0  0  0  0  0  0  0  0  0  0  0
    6.5191   54.1165    2.9430 C   0  0  0  0  0  0  0  0  0  0  0  0
    6.8233   55.3832    3.2550 C   0  0  0  0  0  0  0  0  0  0  0  0
    8.0590   55.7185    2.7410 N   0  0  0  0  0  0  0  0  0  0  0  0
    8.5897   54.6563    2.0552 C   0  0  0  0  0  0  0  0  0  0  0  0
    9.7505   54.4844    1.3956 N   0  0  0  0  0  0  0  0  0  0  0  0
   10.0634   53.3507    0.8064 C   0  0  0  0  0  0  0  0  0  0  0  0
    8.4964   56.5937    2.8507 H   0  0  0  0  0  0  0  0  0  0  0  0
    2.2008   48.4566    3.2037 C   0  0  0  0  0  0  0  0  0  0  0  0
    2.5762   47.3412    3.5389 O   0  0  0  0  0  0  0  0  0  0  0  0
    3.0837   49.3834    2.7618 N   0  0  0  0  0  0  0  0  0  0  0  0
    2.7536   50.2576    2.4519 H   0  0  0  0  0  0  0  0  0  0  0  0
    0.9057   48.8301    3.2214 O   0  0  0  0  0  0  0  0  0  0  0  0
   -0.6539   46.9813    2.9811 C   0  0  0  0  0  0  0  0  0  0  0  0
   -0.1562   48.2879    2.3800 C   0  0  0  0  0  0  0  0  0  0  0  0
    0.4605   47.9545    1.0216 C   0  0  0  0  0  0  0  0  0  0  0  0
   -1.3018   49.2884    2.1749 C   0  0  0  0  0  0  0  0  0  0  0  0
 24 25  1  0  0  0
 25 26  1  0  0  0
 25 27  1  0  0  0
 25 23  1  0  0  0
 23 19  1  0  0  0
 19 20  2  0  0  0
 19 21  1  0  0  0
 21  1  1  0  0  0
  1  2  1  0  0  0
  1  5  1  0  0  0
  2  3  1  0  0  0
  3  4  1  0  0  0
  4  5  1  0  0  0
  4  6  1  0  0  0
  6  7  1  0  0  0
  6 10  1  0  0  0
  7  8  2  0  0  0
  8  9  1  0  0  0
  9 10  2  0  0  0
  9 17  1  0  0  0
 10 11  1  0  0  0
 11 12  1  0  0  0
 11 15  2  0  0  0
 12 13  2  0  0  0
 13 14  1  0  0  0
 14 15  1  0  0  0
 15 16  1  0  0  0
 16 17  2  0  0  0
 21 22  1  0  0  0
 14 18  1  0  0  0
M  END
> <minimizedAffinity>
-7.15400

$$$$
4E4N_0NL_A_1201


 27 30  0  0  0  0  0  0  0  0999 V2000
   10.2075   54.6872    0.7481 C   0  0  0  0  0  0  0  0  0  0  0  0
    9.2802   54.8902    1.9699 C   0  0  0  0  0  0  0  0  0  0  0  0
    8.5647   56.2353    1.7111 C   0  0  0  0  0  0  0  0  0  0  0  0
    8.5445   56.3790    0.1710 C   0  0  0  0  0  0  0  0  0  0  0  0
    9.8899   55.7910   -0.2864 C   0  0  0  0  0  0  0  0  0  0  0  0
    8.3427   57.8200   -0.0588 N   0  0  0  0  0  0  0  0  0  0  0  0
    9.2092   58.7439   -0.5938 C   0  0  0  0  0  0  0  0  0  0  0  0
    8.6447   59.9290   -0.5818 N   0  0  0  0  0  0  0  0  0  0  0  0
    7.4077   59.8344   -0.0272 C   0  0  0  0  0  0  0  0  0  0  0  0
    7.2077   58.4771    0.3198 C   0  0  0  0  0  0  0  0  0  0  0  0
    5.9905   58.0944    0.9204 C   0  0  0  0  0  0  0  0  0  0  0  0
    5.4234   56.8227    1.4109 C   0  0  0  0  0  0  0  0  0  0  0  0
    4.2025   57.1161    1.8775 C   0  0  0  0  0  0  0  0  0  0  0  0
    3.9478   58.4646    1.7357 N   0  0  0  0  0  0  0  0  0  0  0  0
    5.0173   59.0881    1.1461 C   0  0  0  0  0  0  0  0  0  0  0  0
    5.2545   60.3698    0.8099 N   0  0  0  0  0  0  0  0  0  0  0  0
    6.3815   60.7532    0.2503 C   0  0  0  0  0  0  0  0  0  0  0  0
    3.1183   58.9142    2.0170 H   0  0  0  0  0  0  0  0  0  0  0  0
   11.0168   52.5683   -0.2045 C   0  0  0  0  0  0  0  0  0  0  0  0
   12.1441   53.0359   -0.2931 O   0  0  0  0  0  0  0  0  0  0  0  0
    9.9894   53.3156    0.2644 N   0  0  0  0  0  0  0  0  0  0  0  0
    9.0819   52.9346    0.2818 H   0  0  0  0  0  0  0  0  0  0  0  0
   10.7126   51.3114   -0.5847 O   0  0  0  0  0  0  0  0  0  0  0  0
   10.9844   48.9077   -0.3471 C   0  0  0  0  0  0  0  0  0  0  0  0
   10.4651   50.1812    0.3046 C   0  0  0  0  0  0  0  0  0  0  0  0
    8.9502   50.0316    0.4451 C   0  0  0  0  0  0  0  0  0  0  0  0
   11.0758   50.3936    1.6965 C   0  0  0  0  0  0  0  0  0  0  0  0
 24 25  1  0  0  0
 25 26  1  0  0  0
 25 27  1  0  0  0
 25 23  1  0  0  0
 23 19  1  0  0  0
 19 20  2  0  0  0
 19 21  1  0  0  0
 21  1  1  0  0  0
  1  2  1  0  0  0
  1  5  1  0  0  0
  2  3  1  0  0  0
  3  4  1  0  0  0
  4  5  1  0  0  0
  4  6  1  0  0  0
  6  7  1  0  0  0
  6 10  1  0  0  0
  7  8  2  0  0  0
  8  9  1  0  0  0
  9 10  2  0  0  0
  9 17  1  0  0  0
 10 11  1  0  0  0
 11 12  1  0  0  0
 11 15  2  0  0  0
 12 13  2  0  0  0
 13 14  1  0  0  0
 14 15  1  0  0  0
 15 16  1  0  0  0
 16 17  2  0  0  0
 21 22  1  0  0  0
 14 18  1  0  0  0
M  END
> <minimizedAffinity>
-7.02769

$$$$
