5FE9_5WS_A_901


 19 20  0  0  0  0  0  0  0  0999 V2000
  -11.8634   17.9872   76.1532 C   0  0  0  0  0  0  0  0  0  0  0  0
  -10.7998   18.6622   76.7827 C   0  0  0  0  0  0  0  0  0  0  0  0
  -10.0117   19.4809   75.9888 C   0  0  0  0  0  0  0  0  0  0  0  0
   -8.9494   20.1981   76.5229 C   0  0  0  0  0  0  0  0  0  0  0  0
   -8.2907   20.9075   75.7702 O   0  0  0  0  0  0  0  0  0  0  0  0
   -8.6526   20.1261   77.8323 N   0  0  0  0  0  0  0  0  0  0  0  0
   -7.4802   20.9339   78.3282 C   0  0  0  0  0  0  0  0  0  0  0  0
   -9.4074   19.3301   78.6650 C   0  0  0  0  0  0  0  0  0  0  0  0
   -9.1209   19.2267   80.0412 C   0  0  0  0  0  0  0  0  0  0  0  0
  -10.4990   18.5784   78.1567 C   0  0  0  0  0  0  0  0  0  0  0  0
  -11.2543   17.7730   79.0342 C   0  0  0  0  0  0  0  0  0  0  0  0
  -10.9444   17.6964   80.3833 C   0  0  0  0  0  0  0  0  0  0  0  0
   -9.8743   18.4177   80.8868 C   0  0  0  0  0  0  0  0  0  0  0  0
   -9.5731   18.3479   82.1845 N   0  0  0  0  0  0  0  0  0  0  0  0
   -9.9234   19.0174   82.8156 H   0  0  0  0  0  0  0  0  0  0  0  0
   -8.5727   17.0825   82.7328 S   0  0  0  0  0  0  0  0  0  0  0  0
   -9.4311   15.8881   83.1538 O   0  0  0  0  0  0  0  0  0  0  0  0
   -7.5881   16.6380   81.6460 O   0  0  0  0  0  0  0  0  0  0  0  0
   -7.6289   17.7479   84.0928 C   0  0  0  0  0  0  0  0  0  0  0  0
 19 16  1  0  0  0
 18 16  2  0  0  0
 16 17  2  0  0  0
 16 14  1  0  0  0
 14 13  1  0  0  0
 13  9  2  0  0  0
 13 12  1  0  0  0
  9  8  1  0  0  0
 12 11  2  0  0  0
  7  6  1  0  0  0
  8  6  1  0  0  0
  8 10  2  0  0  0
 11 10  1  0  0  0
  6  4  1  0  0  0
 10  2  1  0  0  0
  4  5  2  0  0  0
  4  3  1  0  0  0
  2  3  2  0  0  0
  2  1  1  0  0  0
 14 15  1  0  0  0
M  END
> <minimizedAffinity>
-7.61817

$$$$
5FE9_5WS_A_901


 19 20  0  0  0  0  0  0  0  0999 V2000
  -12.0090   16.6102   77.7252 C   0  0  0  0  0  0  0  0  0  0  0  0
  -11.0701   17.5956   78.0864 C   0  0  0  0  0  0  0  0  0  0  0  0
  -11.0794   18.7755   77.3586 C   0  0  0  0  0  0  0  0  0  0  0  0
  -10.2009   19.8104   77.6507 C   0  0  0  0  0  0  0  0  0  0  0  0
  -10.2594   20.8306   76.9728 O   0  0  0  0  0  0  0  0  0  0  0  0
   -9.3136   19.7042   78.6552 N   0  0  0  0  0  0  0  0  0  0  0  0
   -8.3939   20.8733   78.9014 C   0  0  0  0  0  0  0  0  0  0  0  0
   -9.2663   18.5541   79.4115 C   0  0  0  0  0  0  0  0  0  0  0  0
   -8.3451   18.4067   80.4680 C   0  0  0  0  0  0  0  0  0  0  0  0
  -10.1448   17.4721   79.1419 C   0  0  0  0  0  0  0  0  0  0  0  0
  -10.0736   16.3077   79.9343 C   0  0  0  0  0  0  0  0  0  0  0  0
   -9.1552   16.1979   80.9669 C   0  0  0  0  0  0  0  0  0  0  0  0
   -8.2863   17.2440   81.2307 C   0  0  0  0  0  0  0  0  0  0  0  0
   -7.4017   17.1433   82.2241 N   0  0  0  0  0  0  0  0  0  0  0  0
   -6.4877   16.8220   82.0489 H   0  0  0  0  0  0  0  0  0  0  0  0
   -7.8778   17.5792   83.8009 S   0  0  0  0  0  0  0  0  0  0  0  0
   -6.7400   18.3279   84.4978 O   0  0  0  0  0  0  0  0  0  0  0  0
   -9.1277   18.4656   83.7818 O   0  0  0  0  0  0  0  0  0  0  0  0
   -8.2939   16.0574   84.6337 C   0  0  0  0  0  0  0  0  0  0  0  0
 19 16  1  0  0  0
 18 16  2  0  0  0
 16 17  2  0  0  0
 16 14  1  0  0  0
 14 13  1  0  0  0
 13  9  2  0  0  0
 13 12  1  0  0  0
  9  8  1  0  0  0
 12 11  2  0  0  0
  7  6  1  0  0  0
  8  6  1  0  0  0
  8 10  2  0  0  0
 11 10  1  0  0  0
  6  4  1  0  0  0
 10  2  1  0  0  0
  4  5  2  0  0  0
  4  3  1  0  0  0
  2  3  2  0  0  0
  2  1  1  0  0  0
 14 15  1  0  0  0
M  END
> <minimizedAffinity>
-7.52999

$$$$
5FE9_5WS_A_901


 19 20  0  0  0  0  0  0  0  0999 V2000
   -9.1892   21.1838   78.0515 C   0  0  0  0  0  0  0  0  0  0  0  0
   -9.8286   20.0648   78.6189 C   0  0  0  0  0  0  0  0  0  0  0  0
   -9.5702   19.7980   79.9545 C   0  0  0  0  0  0  0  0  0  0  0  0
  -10.1658   18.7253   80.6045 C   0  0  0  0  0  0  0  0  0  0  0  0
   -9.8996   18.5424   81.7875 O   0  0  0  0  0  0  0  0  0  0  0  0
  -11.0194   17.9108   79.9596 N   0  0  0  0  0  0  0  0  0  0  0  0
  -11.6178   16.7675   80.7392 C   0  0  0  0  0  0  0  0  0  0  0  0
  -11.3129   18.1349   78.6327 C   0  0  0  0  0  0  0  0  0  0  0  0
  -12.1986   17.2977   77.9246 C   0  0  0  0  0  0  0  0  0  0  0  0
  -10.7216   19.2185   77.9320 C   0  0  0  0  0  0  0  0  0  0  0  0
  -11.0426   19.4233   76.5740 C   0  0  0  0  0  0  0  0  0  0  0  0
  -11.9194   18.5801   75.9092 C   0  0  0  0  0  0  0  0  0  0  0  0
  -12.4932   17.5134   76.5815 C   0  0  0  0  0  0  0  0  0  0  0  0
  -13.3384   16.7001   75.9462 N   0  0  0  0  0  0  0  0  0  0  0  0
  -13.0769   15.7753   75.7327 H   0  0  0  0  0  0  0  0  0  0  0  0
  -14.8774   17.2864   75.5098 S   0  0  0  0  0  0  0  0  0  0  0  0
  -15.3547   18.3090   76.5428 O   0  0  0  0  0  0  0  0  0  0  0  0
  -14.8532   17.9419   74.1249 O   0  0  0  0  0  0  0  0  0  0  0  0
  -15.9476   15.8614   75.4266 C   0  0  0  0  0  0  0  0  0  0  0  0
 19 16  1  0  0  0
 18 16  2  0  0  0
 16 17  2  0  0  0
 16 14  1  0  0  0
 14 13  1  0  0  0
 13  9  2  0  0  0
 13 12  1  0  0  0
  9  8  1  0  0  0
 12 11  2  0  0  0
  7  6  1  0  0  0
  8  6  1  0  0  0
  8 10  2  0  0  0
 11 10  1  0  0  0
  6  4  1  0  0  0
 10  2  1  0  0  0
  4  5  2  0  0  0
  4  3  1  0  0  0
  2  3  2  0  0  0
  2  1  1  0  0  0
 14 15  1  0  0  0
M  END
> <minimizedAffinity>
-7.06369

$$$$
5FE9_5WS_A_901


 19 20  0  0  0  0  0  0  0  0999 V2000
  -12.6248   17.8623   75.8754 C   0  0  0  0  0  0  0  0  0  0  0  0
  -11.5691   18.3184   76.6882 C   0  0  0  0  0  0  0  0  0  0  0  0
  -10.7370   19.2918   76.1575 C   0  0  0  0  0  0  0  0  0  0  0  0
   -9.6785   19.8135   76.8893 C   0  0  0  0  0  0  0  0  0  0  0  0
   -8.9793   20.6745   76.3663 O   0  0  0  0  0  0  0  0  0  0  0  0
   -9.4283   19.3944   78.1422 N   0  0  0  0  0  0  0  0  0  0  0  0
   -8.2565   20.0102   78.8638 C   0  0  0  0  0  0  0  0  0  0  0  0
  -10.2280   18.4318   78.7172 C   0  0  0  0  0  0  0  0  0  0  0  0
   -9.9910   17.9654   80.0259 C   0  0  0  0  0  0  0  0  0  0  0  0
  -11.3174   17.8709   78.0004 C   0  0  0  0  0  0  0  0  0  0  0  0
  -12.1194   16.8877   78.6162 C   0  0  0  0  0  0  0  0  0  0  0  0
  -11.8575   16.4535   79.9064 C   0  0  0  0  0  0  0  0  0  0  0  0
  -10.7901   16.9868   80.6100 C   0  0  0  0  0  0  0  0  0  0  0  0
  -10.5351   16.5728   81.8522 N   0  0  0  0  0  0  0  0  0  0  0  0
  -10.0305   15.7420   82.0085 H   0  0  0  0  0  0  0  0  0  0  0  0
  -11.0959   17.5040   83.1642 S   0  0  0  0  0  0  0  0  0  0  0  0
  -12.2301   18.4209   82.7019 O   0  0  0  0  0  0  0  0  0  0  0  0
  -11.5999   16.6142   84.3054 O   0  0  0  0  0  0  0  0  0  0  0  0
   -9.6873   18.4215   83.7614 C   0  0  0  0  0  0  0  0  0  0  0  0
 19 16  1  0  0  0
 18 16  2  0  0  0
 16 17  2  0  0  0
 16 14  1  0  0  0
 14 13  1  0  0  0
 13  9  2  0  0  0
 13 12  1  0  0  0
  9  8  1  0  0  0
 12 11  2  0  0  0
  7  6  1  0  0  0
  8  6  1  0  0  0
  8 10  2  0  0  0
 11 10  1  0  0  0
  6  4  1  0  0  0
 10  2  1  0  0  0
  4  5  2  0  0  0
  4  3  1  0  0  0
  2  3  2  0  0  0
  2  1  1  0  0  0
 14 15  1  0  0  0
M  END
> <minimizedAffinity>
-7.02812

$$$$
5FE9_5WS_A_901


 19 20  0  0  0  0  0  0  0  0999 V2000
  -11.6580   17.9887   75.8315 C   0  0  0  0  0  0  0  0  0  0  0  0
  -11.1178   18.2430   77.1069 C   0  0  0  0  0  0  0  0  0  0  0  0
  -11.7188   17.6132   78.1858 C   0  0  0  0  0  0  0  0  0  0  0  0
  -11.2473   17.7912   79.4796 C   0  0  0  0  0  0  0  0  0  0  0  0
  -11.8195   17.2050   80.3922 O   0  0  0  0  0  0  0  0  0  0  0  0
  -10.1860   18.5783   79.7289 N   0  0  0  0  0  0  0  0  0  0  0  0
   -9.7427   18.7197   81.1629 C   0  0  0  0  0  0  0  0  0  0  0  0
   -9.5505   19.2236   78.6912 C   0  0  0  0  0  0  0  0  0  0  0  0
   -8.4390   20.0603   78.9171 C   0  0  0  0  0  0  0  0  0  0  0  0
  -10.0045   19.0704   77.3551 C   0  0  0  0  0  0  0  0  0  0  0  0
   -9.3326   19.7430   76.3134 C   0  0  0  0  0  0  0  0  0  0  0  0
   -8.2412   20.5576   76.5724 C   0  0  0  0  0  0  0  0  0  0  0  0
   -7.7973   20.7221   77.8743 C   0  0  0  0  0  0  0  0  0  0  0  0
   -6.7467   21.5040   78.1281 N   0  0  0  0  0  0  0  0  0  0  0  0
   -6.8660   22.4709   78.2699 H   0  0  0  0  0  0  0  0  0  0  0  0
   -5.1954   20.8037   78.2032 S   0  0  0  0  0  0  0  0  0  0  0  0
   -5.0201   19.8075   77.0554 O   0  0  0  0  0  0  0  0  0  0  0  0
   -4.0971   21.8690   78.1188 O   0  0  0  0  0  0  0  0  0  0  0  0
   -5.0805   20.0190   79.8013 C   0  0  0  0  0  0  0  0  0  0  0  0
 19 16  1  0  0  0
 18 16  2  0  0  0
 16 17  2  0  0  0
 16 14  1  0  0  0
 14 13  1  0  0  0
 13  9  2  0  0  0
 13 12  1  0  0  0
  9  8  1  0  0  0
 12 11  2  0  0  0
  7  6  1  0  0  0
  8  6  1  0  0  0
  8 10  2  0  0  0
 11 10  1  0  0  0
  6  4  1  0  0  0
 10  2  1  0  0  0
  4  5  2  0  0  0
  4  3  1  0  0  0
  2  3  2  0  0  0
  2  1  1  0  0  0
 14 15  1  0  0  0
M  END
> <minimizedAffinity>
-6.84511

$$$$
5FE9_5WS_A_901


 19 20  0  0  0  0  0  0  0  0999 V2000
   -9.6275   19.5475   76.2059 C   0  0  0  0  0  0  0  0  0  0  0  0
  -10.5967   18.8052   76.9077 C   0  0  0  0  0  0  0  0  0  0  0  0
  -11.7553   18.4709   76.2239 C   0  0  0  0  0  0  0  0  0  0  0  0
  -12.7611   17.7283   76.8280 C   0  0  0  0  0  0  0  0  0  0  0  0
  -13.7612   17.4618   76.1705 O   0  0  0  0  0  0  0  0  0  0  0  0
  -12.6418   17.3032   78.0981 N   0  0  0  0  0  0  0  0  0  0  0  0
  -13.7827   16.5064   78.6780 C   0  0  0  0  0  0  0  0  0  0  0  0
  -11.5084   17.6052   78.8200 C   0  0  0  0  0  0  0  0  0  0  0  0
  -11.3528   17.1807   80.1550 C   0  0  0  0  0  0  0  0  0  0  0  0
  -10.4597   18.3655   78.2394 C   0  0  0  0  0  0  0  0  0  0  0  0
   -9.3107   18.6579   79.0032 C   0  0  0  0  0  0  0  0  0  0  0  0
   -9.1911   18.2227   80.3140 C   0  0  0  0  0  0  0  0  0  0  0  0
  -10.2139   17.4895   80.8930 C   0  0  0  0  0  0  0  0  0  0  0  0
  -10.1026   17.0676   82.1537 N   0  0  0  0  0  0  0  0  0  0  0  0
  -10.6169   17.5007   82.8729 H   0  0  0  0  0  0  0  0  0  0  0  0
   -9.0568   15.7679   82.4999 S   0  0  0  0  0  0  0  0  0  0  0  0
   -9.6440   14.9159   83.6268 O   0  0  0  0  0  0  0  0  0  0  0  0
   -8.8329   14.8873   81.2660 O   0  0  0  0  0  0  0  0  0  0  0  0
   -7.4911   16.4953   82.9496 C   0  0  0  0  0  0  0  0  0  0  0  0
 19 16  1  0  0  0
 18 16  2  0  0  0
 16 17  2  0  0  0
 16 14  1  0  0  0
 14 13  1  0  0  0
 13  9  2  0  0  0
 13 12  1  0  0  0
  9  8  1  0  0  0
 12 11  2  0  0  0
  7  6  1  0  0  0
  8  6  1  0  0  0
  8 10  2  0  0  0
 11 10  1  0  0  0
  6  4  1  0  0  0
 10  2  1  0  0  0
  4  5  2  0  0  0
  4  3  1  0  0  0
  2  3  2  0  0  0
  2  1  1  0  0  0
 14 15  1  0  0  0
M  END
> <minimizedAffinity>
-6.67482

$$$$
5FE9_5WS_A_901


 19 20  0  0  0  0  0  0  0  0999 V2000
   -8.8773   20.0385   76.8613 C   0  0  0  0  0  0  0  0  0  0  0  0
  -10.0117   19.2730   77.1933 C   0  0  0  0  0  0  0  0  0  0  0  0
  -11.0078   19.1692   76.2348 C   0  0  0  0  0  0  0  0  0  0  0  0
  -12.1564   18.4239   76.4656 C   0  0  0  0  0  0  0  0  0  0  0  0
  -13.0006   18.3679   75.5779 O   0  0  0  0  0  0  0  0  0  0  0  0
  -12.3385   17.7721   77.6275 N   0  0  0  0  0  0  0  0  0  0  0  0
  -13.6162   16.9900   77.7968 C   0  0  0  0  0  0  0  0  0  0  0  0
  -11.3769   17.8398   78.6111 C   0  0  0  0  0  0  0  0  0  0  0  0
  -11.5377   17.1738   79.8429 C   0  0  0  0  0  0  0  0  0  0  0  0
  -10.1906   18.5944   78.4152 C   0  0  0  0  0  0  0  0  0  0  0  0
   -9.2234   18.6438   79.4404 C   0  0  0  0  0  0  0  0  0  0  0  0
   -9.4145   17.9749   80.6395 C   0  0  0  0  0  0  0  0  0  0  0  0
  -10.5738   17.2448   80.8444 C   0  0  0  0  0  0  0  0  0  0  0  0
  -10.7615   16.5985   81.9963 N   0  0  0  0  0  0  0  0  0  0  0  0
  -10.6075   15.6280   82.0557 H   0  0  0  0  0  0  0  0  0  0  0  0
  -11.2718   17.4786   83.3630 S   0  0  0  0  0  0  0  0  0  0  0  0
  -10.0645   18.1286   84.0416 O   0  0  0  0  0  0  0  0  0  0  0  0
  -12.2821   18.5658   82.9818 O   0  0  0  0  0  0  0  0  0  0  0  0
  -12.0963   16.3091   84.4285 C   0  0  0  0  0  0  0  0  0  0  0  0
 19 16  1  0  0  0
 18 16  2  0  0  0
 16 17  2  0  0  0
 16 14  1  0  0  0
 14 13  1  0  0  0
 13  9  2  0  0  0
 13 12  1  0  0  0
  9  8  1  0  0  0
 12 11  2  0  0  0
  7  6  1  0  0  0
  8  6  1  0  0  0
  8 10  2  0  0  0
 11 10  1  0  0  0
  6  4  1  0  0  0
 10  2  1  0  0  0
  4  5  2  0  0  0
  4  3  1  0  0  0
  2  3  2  0  0  0
  2  1  1  0  0  0
 14 15  1  0  0  0
M  END
> <minimizedAffinity>
-6.59609

$$$$
5FE9_5WS_A_901


 19 20  0  0  0  0  0  0  0  0999 V2000
   -9.2648   21.3445   78.7883 C   0  0  0  0  0  0  0  0  0  0  0  0
   -9.7754   20.0432   78.6181 C   0  0  0  0  0  0  0  0  0  0  0  0
   -9.9297   19.5891   77.3175 C   0  0  0  0  0  0  0  0  0  0  0  0
  -10.4120   18.3146   77.0505 C   0  0  0  0  0  0  0  0  0  0  0  0
  -10.5237   17.9694   75.8792 O   0  0  0  0  0  0  0  0  0  0  0  0
  -10.7409   17.4746   78.0476 N   0  0  0  0  0  0  0  0  0  0  0  0
  -11.2607   16.1110   77.6692 C   0  0  0  0  0  0  0  0  0  0  0  0
  -10.6023   17.8759   79.3578 C   0  0  0  0  0  0  0  0  0  0  0  0
  -10.9429   17.0234   80.4273 C   0  0  0  0  0  0  0  0  0  0  0  0
  -10.1165   19.1722   79.6719 C   0  0  0  0  0  0  0  0  0  0  0  0
   -9.9842   19.5541   81.0231 C   0  0  0  0  0  0  0  0  0  0  0  0
  -10.3280   18.6886   82.0500 C   0  0  0  0  0  0  0  0  0  0  0  0
  -10.8133   17.4254   81.7535 C   0  0  0  0  0  0  0  0  0  0  0  0
  -11.1442   16.5887   82.7384 N   0  0  0  0  0  0  0  0  0  0  0  0
  -12.0748   16.2859   82.8454 H   0  0  0  0  0  0  0  0  0  0  0  0
   -9.9315   16.0523   83.8082 S   0  0  0  0  0  0  0  0  0  0  0  0
   -9.5987   17.1583   84.8114 O   0  0  0  0  0  0  0  0  0  0  0  0
  -10.3731   14.7974   84.5688 O   0  0  0  0  0  0  0  0  0  0  0  0
   -8.5299   15.6173   82.7937 C   0  0  0  0  0  0  0  0  0  0  0  0
 19 16  1  0  0  0
 18 16  2  0  0  0
 16 17  2  0  0  0
 16 14  1  0  0  0
 14 13  1  0  0  0
 13  9  2  0  0  0
 13 12  1  0  0  0
  9  8  1  0  0  0
 12 11  2  0  0  0
  7  6  1  0  0  0
  8  6  1  0  0  0
  8 10  2  0  0  0
 11 10  1  0  0  0
  6  4  1  0  0  0
 10  2  1  0  0  0
  4  5  2  0  0  0
  4  3  1  0  0  0
  2  3  2  0  0  0
  2  1  1  0  0  0
 14 15  1  0  0  0
M  END
> <minimizedAffinity>
-6.52894

$$$$
5FE9_5WS_A_901


 19 20  0  0  0  0  0  0  0  0999 V2000
  -12.5769   17.0355   78.1814 C   0  0  0  0  0  0  0  0  0  0  0  0
  -11.3626   17.1588   78.8837 C   0  0  0  0  0  0  0  0  0  0  0  0
  -11.0119   16.1175   79.7291 C   0  0  0  0  0  0  0  0  0  0  0  0
   -9.8266   16.1427   80.4518 C   0  0  0  0  0  0  0  0  0  0  0  0
   -9.5705   15.1906   81.1810 O   0  0  0  0  0  0  0  0  0  0  0  0
   -8.9748   17.1782   80.3512 N   0  0  0  0  0  0  0  0  0  0  0  0
   -7.7127   17.1270   81.1742 C   0  0  0  0  0  0  0  0  0  0  0  0
   -9.2745   18.2362   79.5219 C   0  0  0  0  0  0  0  0  0  0  0  0
   -8.4074   19.3403   79.3968 C   0  0  0  0  0  0  0  0  0  0  0  0
  -10.4782   18.2498   78.7695 C   0  0  0  0  0  0  0  0  0  0  0  0
  -10.7570   19.3465   77.9278 C   0  0  0  0  0  0  0  0  0  0  0  0
   -9.8800   20.4155   77.8285 C   0  0  0  0  0  0  0  0  0  0  0  0
   -8.7080   20.4165   78.5670 C   0  0  0  0  0  0  0  0  0  0  0  0
   -7.8605   21.4425   78.4737 N   0  0  0  0  0  0  0  0  0  0  0  0
   -8.0533   22.2932   78.9302 H   0  0  0  0  0  0  0  0  0  0  0  0
   -6.4393   21.2580   77.5523 S   0  0  0  0  0  0  0  0  0  0  0  0
   -6.7326   20.4149   76.3099 O   0  0  0  0  0  0  0  0  0  0  0  0
   -5.8745   22.6151   77.1193 O   0  0  0  0  0  0  0  0  0  0  0  0
   -5.2461   20.4823   78.6281 C   0  0  0  0  0  0  0  0  0  0  0  0
 19 16  1  0  0  0
 18 16  2  0  0  0
 16 17  2  0  0  0
 16 14  1  0  0  0
 14 13  1  0  0  0
 13  9  2  0  0  0
 13 12  1  0  0  0
  9  8  1  0  0  0
 12 11  2  0  0  0
  7  6  1  0  0  0
  8  6  1  0  0  0
  8 10  2  0  0  0
 11 10  1  0  0  0
  6  4  1  0  0  0
 10  2  1  0  0  0
  4  5  2  0  0  0
  4  3  1  0  0  0
  2  3  2  0  0  0
  2  1  1  0  0  0
 14 15  1  0  0  0
M  END
> <minimizedAffinity>
-6.51058

$$$$
5FE9_5WS_A_901


 19 20  0  0  0  0  0  0  0  0999 V2000
  -14.5083   17.4065   75.9711 C   0  0  0  0  0  0  0  0  0  0  0  0
  -13.6179   17.3273   77.0592 C   0  0  0  0  0  0  0  0  0  0  0  0
  -14.0733   16.6933   78.2048 C   0  0  0  0  0  0  0  0  0  0  0  0
  -13.2623   16.5538   79.3232 C   0  0  0  0  0  0  0  0  0  0  0  0
  -13.7211   15.9809   80.3056 O   0  0  0  0  0  0  0  0  0  0  0  0
  -12.0033   17.0256   79.3301 N   0  0  0  0  0  0  0  0  0  0  0  0
  -11.1930   16.8356   80.5873 C   0  0  0  0  0  0  0  0  0  0  0  0
  -11.5012   17.6601   78.2155 C   0  0  0  0  0  0  0  0  0  0  0  0
  -10.1881   18.1717   78.1903 C   0  0  0  0  0  0  0  0  0  0  0  0
  -12.3000   17.8260   77.0539 C   0  0  0  0  0  0  0  0  0  0  0  0
  -11.7578   18.4789   75.9275 C   0  0  0  0  0  0  0  0  0  0  0  0
  -10.4610   18.9687   75.9377 C   0  0  0  0  0  0  0  0  0  0  0  0
   -9.6773   18.8213   77.0704 C   0  0  0  0  0  0  0  0  0  0  0  0
   -8.4284   19.2900   77.0843 N   0  0  0  0  0  0  0  0  0  0  0  0
   -7.6692   18.6848   77.2473 H   0  0  0  0  0  0  0  0  0  0  0  0
   -8.1674   20.9521   76.8158 S   0  0  0  0  0  0  0  0  0  0  0  0
   -8.1406   21.2366   75.3128 O   0  0  0  0  0  0  0  0  0  0  0  0
   -9.2614   21.8021   77.4707 O   0  0  0  0  0  0  0  0  0  0  0  0
   -6.6167   21.3462   77.6049 C   0  0  0  0  0  0  0  0  0  0  0  0
 19 16  1  0  0  0
 18 16  2  0  0  0
 16 17  2  0  0  0
 16 14  1  0  0  0
 14 13  1  0  0  0
 13  9  2  0  0  0
 13 12  1  0  0  0
  9  8  1  0  0  0
 12 11  2  0  0  0
  7  6  1  0  0  0
  8  6  1  0  0  0
  8 10  2  0  0  0
 11 10  1  0  0  0
  6  4  1  0  0  0
 10  2  1  0  0  0
  4  5  2  0  0  0
  4  3  1  0  0  0
  2  3  2  0  0  0
  2  1  1  0  0  0
 14 15  1  0  0  0
M  END
> <minimizedAffinity>
-6.39479

$$$$
