5L9O_GOP_A_301


 30 29  0  0  0  0  0  0  0  0999 V2000
   41.4780  -66.1303   32.7234 C   0  0  0  0  0  0  0  0  0  0  0  0
   40.6774  -66.3720   33.8962 O   0  0  0  0  0  0  0  0  0  0  0  0
   39.7387  -66.2721   33.6731 H   0  0  0  0  0  0  0  0  0  0  0  0
   41.3594  -64.6775   32.2206 C   0  0  0  0  0  0  0  0  0  0  0  0
   40.1639  -64.0972   32.8075 O   0  0  0  0  0  0  0  0  0  0  0  0
   40.2358  -64.1176   33.7746 H   0  0  0  0  0  0  0  0  0  0  0  0
   42.6354  -63.8721   32.5745 C   0  0  0  0  0  0  0  0  0  0  0  0
   43.7186  -64.2621   31.7325 O   0  0  0  0  0  0  0  0  0  0  0  0
   43.9969  -65.1630   31.9603 H   0  0  0  0  0  0  0  0  0  0  0  0
   43.1901  -63.7539   34.0276 C   0  0  0  0  0  0  0  0  0  0  0  0
   42.2112  -63.2754   34.9691 O   0  0  0  0  0  0  0  0  0  0  0  0
   42.0124  -62.3443   34.7837 H   0  0  0  0  0  0  0  0  0  0  0  0
   45.2198  -62.5067   33.1224 O   0  0  0  0  0  0  0  0  0  0  0  0
   44.4870  -62.9484   34.2741 C   0  0  0  0  0  0  0  0  0  0  0  0
   46.0067  -62.0167   33.4082 H   0  0  0  0  0  0  0  0  0  0  0  0
   41.1914  -67.1693   31.6442 C   0  0  0  0  0  0  0  0  0  0  0  0
   41.9561  -68.3898   31.9294 N   0  0  0  0  0  0  0  0  0  0  0  0
   42.9384  -68.1412   32.0461 H   0  0  0  0  0  0  0  0  0  0  0  0
   41.8453  -69.3823   30.8543 C   0  0  0  0  0  0  0  0  0  0  0  0
   40.5993  -70.2304   31.0896 C   0  0  0  0  0  0  0  0  0  0  0  0
   40.2383  -70.8758   30.0890 O   0  0  0  0  0  0  0  0  0  0  0  0
   40.0774  -70.2470   32.2418 O   0  0  0  0  0  0  0  0  0  0  0  0
   40.4351  -69.7159   32.9258 H   0  0  0  0  0  0  0  0  0  0  0  0
   43.0986  -70.2555   30.7658 C   0  0  0  0  0  0  0  0  0  0  0  0
   43.2152  -71.2229   31.9459 C   0  0  0  0  0  0  0  0  0  0  0  0
   44.6739  -71.5821   32.2760 C   0  0  0  0  0  0  0  0  0  0  0  0
   45.2262  -72.4387   31.5806 O   0  0  0  0  0  0  0  0  0  0  0  0
   45.2968  -70.9418   33.2809 N   0  0  0  0  0  0  0  0  0  0  0  0
   44.8134  -70.2653   33.8080 H   0  0  0  0  0  0  0  0  0  0  0  0
   46.2362  -71.1496   33.4895 H   0  0  0  0  0  0  0  0  0  0  0  0
 21 20  2  0  0  0
 24 19  1  0  0  0
 24 25  1  0  0  0
 19 20  1  0  0  0
 19 17  1  0  0  0
 20 22  1  0  0  0
 28 26  1  0  0  0
 16 17  1  0  0  0
 16  1  1  0  0  0
 25 26  1  0  0  0
 26 27  2  0  0  0
  5  4  1  0  0  0
  4  1  1  0  0  0
  4  7  1  0  0  0
  1  2  1  0  0  0
  8  7  1  0  0  0
  7 10  1  0  0  0
 11 10  1  0  0  0
 10 14  1  0  0  0
 14 13  1  0  0  0
 13 15  1  0  0  0
 11 12  1  0  0  0
  8  9  1  0  0  0
  5  6  1  0  0  0
  2  3  1  0  0  0
 17 18  1  0  0  0
 28 29  1  0  0  0
 28 30  1  0  0  0
 22 23  1  0  0  0
M  END
> <minimizedAffinity>
-9.08633

$$$$
5L9O_GOP_A_301


 30 29  0  0  0  0  0  0  0  0999 V2000
   40.8018  -66.4054   32.3210 C   0  0  0  0  0  0  0  0  0  0  0  0
   40.2715  -65.2220   31.6938 O   0  0  0  0  0  0  0  0  0  0  0  0
   40.9381  -64.8455   31.0982 H   0  0  0  0  0  0  0  0  0  0  0  0
   42.0009  -66.0959   33.2397 C   0  0  0  0  0  0  0  0  0  0  0  0
   42.9939  -65.3834   32.4544 O   0  0  0  0  0  0  0  0  0  0  0  0
   42.6071  -64.5625   32.1119 H   0  0  0  0  0  0  0  0  0  0  0  0
   41.5434  -65.2857   34.4792 C   0  0  0  0  0  0  0  0  0  0  0  0
   40.1529  -65.4909   34.7213 O   0  0  0  0  0  0  0  0  0  0  0  0
   39.6362  -65.0658   34.0190 H   0  0  0  0  0  0  0  0  0  0  0  0
   41.8295  -63.7620   34.6514 C   0  0  0  0  0  0  0  0  0  0  0  0
   41.5555  -62.9975   33.4624 O   0  0  0  0  0  0  0  0  0  0  0  0
   42.2065  -63.2192   32.7783 H   0  0  0  0  0  0  0  0  0  0  0  0
   44.3681  -63.9853   34.6479 O   0  0  0  0  0  0  0  0  0  0  0  0
   43.2146  -63.3110   35.1707 C   0  0  0  0  0  0  0  0  0  0  0  0
   45.1693  -63.6137   35.0490 H   0  0  0  0  0  0  0  0  0  0  0  0
   41.0960  -67.4859   31.2855 C   0  0  0  0  0  0  0  0  0  0  0  0
   42.0487  -68.4512   31.8477 N   0  0  0  0  0  0  0  0  0  0  0  0
   42.9806  -68.0369   31.8358 H   0  0  0  0  0  0  0  0  0  0  0  0
   42.0819  -69.7084   31.0916 C   0  0  0  0  0  0  0  0  0  0  0  0
   40.6959  -70.3447   31.1274 C   0  0  0  0  0  0  0  0  0  0  0  0
   40.3220  -70.7895   30.0273 O   0  0  0  0  0  0  0  0  0  0  0  0
   40.0788  -70.4086   32.2299 O   0  0  0  0  0  0  0  0  0  0  0  0
   40.4583  -70.0363   33.0015 H   0  0  0  0  0  0  0  0  0  0  0  0
   43.1427  -70.6649   31.6399 C   0  0  0  0  0  0  0  0  0  0  0  0
   44.2624  -70.9282   30.6304 C   0  0  0  0  0  0  0  0  0  0  0  0
   45.6246  -71.1650   31.3044 C   0  0  0  0  0  0  0  0  0  0  0  0
   45.7588  -70.7956   32.4741 O   0  0  0  0  0  0  0  0  0  0  0  0
   46.6009  -71.7799   30.6143 N   0  0  0  0  0  0  0  0  0  0  0  0
   46.4459  -72.0562   29.6822 H   0  0  0  0  0  0  0  0  0  0  0  0
   47.4708  -71.9539   31.0411 H   0  0  0  0  0  0  0  0  0  0  0  0
 21 20  2  0  0  0
 24 19  1  0  0  0
 24 25  1  0  0  0
 19 20  1  0  0  0
 19 17  1  0  0  0
 20 22  1  0  0  0
 28 26  1  0  0  0
 16 17  1  0  0  0
 16  1  1  0  0  0
 25 26  1  0  0  0
 26 27  2  0  0  0
  5  4  1  0  0  0
  4  1  1  0  0  0
  4  7  1  0  0  0
  1  2  1  0  0  0
  8  7  1  0  0  0
  7 10  1  0  0  0
 11 10  1  0  0  0
 10 14  1  0  0  0
 14 13  1  0  0  0
 13 15  1  0  0  0
 11 12  1  0  0  0
  8  9  1  0  0  0
  5  6  1  0  0  0
  2  3  1  0  0  0
 17 18  1  0  0  0
 28 29  1  0  0  0
 28 30  1  0  0  0
 22 23  1  0  0  0
M  END
> <minimizedAffinity>
-8.71798

$$$$
5L9O_GOP_A_301


 30 29  0  0  0  0  0  0  0  0999 V2000
   42.5323  -70.1324   31.4906 C   0  0  0  0  0  0  0  0  0  0  0  0
   42.6102  -70.9098   32.7009 O   0  0  0  0  0  0  0  0  0  0  0  0
   42.1259  -71.7418   32.5824 H   0  0  0  0  0  0  0  0  0  0  0  0
   41.0906  -69.6904   31.1685 C   0  0  0  0  0  0  0  0  0  0  0  0
   40.2421  -70.0881   32.2786 O   0  0  0  0  0  0  0  0  0  0  0  0
   40.5543  -69.6629   33.0926 H   0  0  0  0  0  0  0  0  0  0  0  0
   41.0339  -68.1639   30.9059 C   0  0  0  0  0  0  0  0  0  0  0  0
   41.8586  -67.8201   29.7942 O   0  0  0  0  0  0  0  0  0  0  0  0
   42.7911  -67.9338   30.0360 H   0  0  0  0  0  0  0  0  0  0  0  0
   41.2810  -67.1003   32.0198 C   0  0  0  0  0  0  0  0  0  0  0  0
   40.5034  -67.3357   33.2086 O   0  0  0  0  0  0  0  0  0  0  0  0
   39.5661  -67.1731   33.0194 H   0  0  0  0  0  0  0  0  0  0  0  0
   39.9480  -64.9306   32.1212 O   0  0  0  0  0  0  0  0  0  0  0  0
   41.1350  -65.6004   31.6727 C   0  0  0  0  0  0  0  0  0  0  0  0
   39.9760  -64.0019   31.8427 H   0  0  0  0  0  0  0  0  0  0  0  0
   43.2165  -70.8540   30.3343 C   0  0  0  0  0  0  0  0  0  0  0  0
   44.2719  -69.9956   29.7822 N   0  0  0  0  0  0  0  0  0  0  0  0
   43.9923  -69.6911   28.8497 H   0  0  0  0  0  0  0  0  0  0  0  0
   45.5617  -70.6885   29.6849 C   0  0  0  0  0  0  0  0  0  0  0  0
   45.8692  -70.9587   28.2154 C   0  0  0  0  0  0  0  0  0  0  0  0
   46.9544  -71.5387   28.0307 O   0  0  0  0  0  0  0  0  0  0  0  0
   45.0181  -70.6280   27.3399 O   0  0  0  0  0  0  0  0  0  0  0  0
   44.2291  -70.1916   27.5949 H   0  0  0  0  0  0  0  0  0  0  0  0
   45.5644  -71.9854   30.4969 C   0  0  0  0  0  0  0  0  0  0  0  0
   46.6273  -71.9771   31.5979 C   0  0  0  0  0  0  0  0  0  0  0  0
   46.4139  -70.8473   32.6194 C   0  0  0  0  0  0  0  0  0  0  0  0
   47.1900  -69.8886   32.5864 O   0  0  0  0  0  0  0  0  0  0  0  0
   45.3885  -70.9295   33.4851 N   0  0  0  0  0  0  0  0  0  0  0  0
   44.7958  -71.7155   33.4729 H   0  0  0  0  0  0  0  0  0  0  0  0
   45.2303  -70.2037   34.1312 H   0  0  0  0  0  0  0  0  0  0  0  0
 21 20  2  0  0  0
 24 19  1  0  0  0
 24 25  1  0  0  0
 19 20  1  0  0  0
 19 17  1  0  0  0
 20 22  1  0  0  0
 28 26  1  0  0  0
 16 17  1  0  0  0
 16  1  1  0  0  0
 25 26  1  0  0  0
 26 27  2  0  0  0
  5  4  1  0  0  0
  4  1  1  0  0  0
  4  7  1  0  0  0
  1  2  1  0  0  0
  8  7  1  0  0  0
  7 10  1  0  0  0
 11 10  1  0  0  0
 10 14  1  0  0  0
 14 13  1  0  0  0
 13 15  1  0  0  0
 11 12  1  0  0  0
  8  9  1  0  0  0
  5  6  1  0  0  0
  2  3  1  0  0  0
 17 18  1  0  0  0
 28 29  1  0  0  0
 28 30  1  0  0  0
 22 23  1  0  0  0
M  END
> <minimizedAffinity>
-8.38195

$$$$
5L9O_GOP_A_301


 30 29  0  0  0  0  0  0  0  0999 V2000
   43.9447  -71.4793   31.9303 C   0  0  0  0  0  0  0  0  0  0  0  0
   43.4690  -70.8372   33.1289 O   0  0  0  0  0  0  0  0  0  0  0  0
   43.4554  -69.8763   32.9973 H   0  0  0  0  0  0  0  0  0  0  0  0
   45.4097  -71.1183   31.6127 C   0  0  0  0  0  0  0  0  0  0  0  0
   46.2402  -71.6308   32.6888 O   0  0  0  0  0  0  0  0  0  0  0  0
   46.1326  -72.5928   32.7502 H   0  0  0  0  0  0  0  0  0  0  0  0
   45.8244  -71.6869   30.2317 C   0  0  0  0  0  0  0  0  0  0  0  0
   46.8623  -72.6532   30.3837 O   0  0  0  0  0  0  0  0  0  0  0  0
   47.6804  -72.2089   30.6562 H   0  0  0  0  0  0  0  0  0  0  0  0
   46.2003  -70.7818   29.0181 C   0  0  0  0  0  0  0  0  0  0  0  0
   45.4479  -69.5550   28.9735 O   0  0  0  0  0  0  0  0  0  0  0  0
   44.5217  -69.7512   28.7624 H   0  0  0  0  0  0  0  0  0  0  0  0
   45.2213  -70.8387   26.6658 O   0  0  0  0  0  0  0  0  0  0  0  0
   46.1704  -71.3835   27.5938 C   0  0  0  0  0  0  0  0  0  0  0  0
   45.3016  -71.2971   25.8148 H   0  0  0  0  0  0  0  0  0  0  0  0
   42.9937  -71.2300   30.7643 C   0  0  0  0  0  0  0  0  0  0  0  0
   42.8815  -69.7851   30.5292 N   0  0  0  0  0  0  0  0  0  0  0  0
   43.7540  -69.3385   30.8112 H   0  0  0  0  0  0  0  0  0  0  0  0
   41.7772  -69.1805   31.2831 C   0  0  0  0  0  0  0  0  0  0  0  0
   40.6089  -70.1606   31.3219 C   0  0  0  0  0  0  0  0  0  0  0  0
   40.1709  -70.4602   30.1965 O   0  0  0  0  0  0  0  0  0  0  0  0
   40.2203  -70.6076   32.4396 O   0  0  0  0  0  0  0  0  0  0  0  0
   40.6253  -70.3091   33.2301 H   0  0  0  0  0  0  0  0  0  0  0  0
   41.3534  -67.8401   30.6793 C   0  0  0  0  0  0  0  0  0  0  0  0
   40.6841  -66.9268   31.7089 C   0  0  0  0  0  0  0  0  0  0  0  0
   41.6928  -66.0429   32.4618 C   0  0  0  0  0  0  0  0  0  0  0  0
   41.9285  -64.9217   32.0035 O   0  0  0  0  0  0  0  0  0  0  0  0
   42.2569  -66.5055   33.5911 N   0  0  0  0  0  0  0  0  0  0  0  0
   42.0371  -67.4080   33.9172 H   0  0  0  0  0  0  0  0  0  0  0  0
   42.8897  -65.9417   34.0920 H   0  0  0  0  0  0  0  0  0  0  0  0
 21 20  2  0  0  0
 24 19  1  0  0  0
 24 25  1  0  0  0
 19 20  1  0  0  0
 19 17  1  0  0  0
 20 22  1  0  0  0
 28 26  1  0  0  0
 16 17  1  0  0  0
 16  1  1  0  0  0
 25 26  1  0  0  0
 26 27  2  0  0  0
  5  4  1  0  0  0
  4  1  1  0  0  0
  4  7  1  0  0  0
  1  2  1  0  0  0
  8  7  1  0  0  0
  7 10  1  0  0  0
 11 10  1  0  0  0
 10 14  1  0  0  0
 14 13  1  0  0  0
 13 15  1  0  0  0
 11 12  1  0  0  0
  8  9  1  0  0  0
  5  6  1  0  0  0
  2  3  1  0  0  0
 17 18  1  0  0  0
 28 29  1  0  0  0
 28 30  1  0  0  0
 22 23  1  0  0  0
M  END
> <minimizedAffinity>
-8.34951

$$$$
5L9O_GOP_A_301


 30 29  0  0  0  0  0  0  0  0999 V2000
   42.0025  -63.9275   34.5297 C   0  0  0  0  0  0  0  0  0  0  0  0
   40.8075  -64.4452   35.1452 O   0  0  0  0  0  0  0  0  0  0  0  0
   40.9907  -65.3201   35.5217 H   0  0  0  0  0  0  0  0  0  0  0  0
   42.4551  -64.7735   33.3227 C   0  0  0  0  0  0  0  0  0  0  0  0
   43.0745  -65.9847   33.8324 O   0  0  0  0  0  0  0  0  0  0  0  0
   42.4324  -66.4748   34.3696 H   0  0  0  0  0  0  0  0  0  0  0  0
   41.2557  -65.0775   32.3893 C   0  0  0  0  0  0  0  0  0  0  0  0
   40.2644  -64.0587   32.5064 O   0  0  0  0  0  0  0  0  0  0  0  0
   39.8425  -64.1167   33.3779 H   0  0  0  0  0  0  0  0  0  0  0  0
   40.5168  -66.4512   32.3750 C   0  0  0  0  0  0  0  0  0  0  0  0
   40.4148  -67.0518   33.6797 O   0  0  0  0  0  0  0  0  0  0  0  0
   41.2948  -67.3320   33.9764 H   0  0  0  0  0  0  0  0  0  0  0  0
   42.0656  -68.4058   31.8500 O   0  0  0  0  0  0  0  0  0  0  0  0
   40.9998  -67.5546   31.4050 C   0  0  0  0  0  0  0  0  0  0  0  0
   42.2750  -69.0511   31.1568 H   0  0  0  0  0  0  0  0  0  0  0  0
   43.1013  -63.7153   35.5659 C   0  0  0  0  0  0  0  0  0  0  0  0
   44.4095  -63.7445   34.9000 N   0  0  0  0  0  0  0  0  0  0  0  0
   45.0838  -64.1907   35.5217 H   0  0  0  0  0  0  0  0  0  0  0  0
   44.8952  -62.4012   34.5638 C   0  0  0  0  0  0  0  0  0  0  0  0
   45.6143  -62.4565   33.2197 C   0  0  0  0  0  0  0  0  0  0  0  0
   46.2950  -61.4440   32.9755 O   0  0  0  0  0  0  0  0  0  0  0  0
   45.5049  -63.4966   32.5080 O   0  0  0  0  0  0  0  0  0  0  0  0
   44.9597  -64.2036   32.7924 H   0  0  0  0  0  0  0  0  0  0  0  0
   45.8103  -61.8458   35.6570 C   0  0  0  0  0  0  0  0  0  0  0  0
   45.4960  -60.3852   35.9888 C   0  0  0  0  0  0  0  0  0  0  0  0
   46.0715  -59.9487   37.3467 C   0  0  0  0  0  0  0  0  0  0  0  0
   45.5039  -59.0292   37.9425 O   0  0  0  0  0  0  0  0  0  0  0  0
   47.1431  -60.5912   37.8431 N   0  0  0  0  0  0  0  0  0  0  0  0
   47.5619  -61.3194   37.3297 H   0  0  0  0  0  0  0  0  0  0  0  0
   47.5091  -60.3335   38.7199 H   0  0  0  0  0  0  0  0  0  0  0  0
 21 20  2  0  0  0
 24 19  1  0  0  0
 24 25  1  0  0  0
 19 20  1  0  0  0
 19 17  1  0  0  0
 20 22  1  0  0  0
 28 26  1  0  0  0
 16 17  1  0  0  0
 16  1  1  0  0  0
 25 26  1  0  0  0
 26 27  2  0  0  0
  5  4  1  0  0  0
  4  1  1  0  0  0
  4  7  1  0  0  0
  1  2  1  0  0  0
  8  7  1  0  0  0
  7 10  1  0  0  0
 11 10  1  0  0  0
 10 14  1  0  0  0
 14 13  1  0  0  0
 13 15  1  0  0  0
 11 12  1  0  0  0
  8  9  1  0  0  0
  5  6  1  0  0  0
  2  3  1  0  0  0
 17 18  1  0  0  0
 28 29  1  0  0  0
 28 30  1  0  0  0
 22 23  1  0  0  0
M  END
> <minimizedAffinity>
-8.32192

$$$$
5L9O_GOP_A_301


 30 29  0  0  0  0  0  0  0  0999 V2000
   41.0765  -69.9111   31.0955 C   0  0  0  0  0  0  0  0  0  0  0  0
   40.6470  -70.3993   32.3809 O   0  0  0  0  0  0  0  0  0  0  0  0
   41.2776  -70.1163   33.0615 H   0  0  0  0  0  0  0  0  0  0  0  0
   42.4177  -70.5285   30.6512 C   0  0  0  0  0  0  0  0  0  0  0  0
   43.2327  -69.4676   30.0846 O   0  0  0  0  0  0  0  0  0  0  0  0
   43.3795  -68.7805   30.7533 H   0  0  0  0  0  0  0  0  0  0  0  0
   43.1166  -71.2302   31.8434 C   0  0  0  0  0  0  0  0  0  0  0  0
   43.4335  -70.2827   32.8612 O   0  0  0  0  0  0  0  0  0  0  0  0
   44.1405  -69.6967   32.5487 H   0  0  0  0  0  0  0  0  0  0  0  0
   44.3528  -72.1661   31.6727 C   0  0  0  0  0  0  0  0  0  0  0  0
   44.9155  -72.5938   32.9272 O   0  0  0  0  0  0  0  0  0  0  0  0
   45.3312  -71.8373   33.3698 H   0  0  0  0  0  0  0  0  0  0  0  0
   45.8644  -70.3074   30.8038 O   0  0  0  0  0  0  0  0  0  0  0  0
   45.5297  -71.7024   30.7831 C   0  0  0  0  0  0  0  0  0  0  0  0
   46.6132  -70.1456   30.2089 H   0  0  0  0  0  0  0  0  0  0  0  0
   41.0718  -68.3863   31.0624 C   0  0  0  0  0  0  0  0  0  0  0  0
   41.8476  -67.8732   32.1984 N   0  0  0  0  0  0  0  0  0  0  0  0
   41.9425  -68.6149   32.8921 H   0  0  0  0  0  0  0  0  0  0  0  0
   41.2096  -66.7136   32.8322 C   0  0  0  0  0  0  0  0  0  0  0  0
   41.0998  -65.5878   31.8088 C   0  0  0  0  0  0  0  0  0  0  0  0
   39.9294  -65.3273   31.4765 O   0  0  0  0  0  0  0  0  0  0  0  0
   42.1537  -65.0019   31.4262 O   0  0  0  0  0  0  0  0  0  0  0  0
   42.9886  -65.2847   31.7439 H   0  0  0  0  0  0  0  0  0  0  0  0
   41.9800  -66.2582   34.0732 C   0  0  0  0  0  0  0  0  0  0  0  0
   41.2337  -65.1727   34.8522 C   0  0  0  0  0  0  0  0  0  0  0  0
   41.8925  -63.7891   34.7198 C   0  0  0  0  0  0  0  0  0  0  0  0
   41.4879  -63.0435   33.8238 O   0  0  0  0  0  0  0  0  0  0  0  0
   42.8560  -63.4346   35.5878 N   0  0  0  0  0  0  0  0  0  0  0  0
   43.1455  -64.0650   36.2864 H   0  0  0  0  0  0  0  0  0  0  0  0
   43.2721  -62.5445   35.5249 H   0  0  0  0  0  0  0  0  0  0  0  0
 21 20  2  0  0  0
 24 19  1  0  0  0
 24 25  1  0  0  0
 19 20  1  0  0  0
 19 17  1  0  0  0
 20 22  1  0  0  0
 28 26  1  0  0  0
 16 17  1  0  0  0
 16  1  1  0  0  0
 25 26  1  0  0  0
 26 27  2  0  0  0
  5  4  1  0  0  0
  4  1  1  0  0  0
  4  7  1  0  0  0
  1  2  1  0  0  0
  8  7  1  0  0  0
  7 10  1  0  0  0
 11 10  1  0  0  0
 10 14  1  0  0  0
 14 13  1  0  0  0
 13 15  1  0  0  0
 11 12  1  0  0  0
  8  9  1  0  0  0
  5  6  1  0  0  0
  2  3  1  0  0  0
 17 18  1  0  0  0
 28 29  1  0  0  0
 28 30  1  0  0  0
 22 23  1  0  0  0
M  END
> <minimizedAffinity>
-8.29781

$$$$
5L9O_GOP_A_301


 30 29  0  0  0  0  0  0  0  0999 V2000
   42.2531  -65.8895   35.0233 C   0  0  0  0  0  0  0  0  0  0  0  0
   43.2359  -66.4673   34.1428 O   0  0  0  0  0  0  0  0  0  0  0  0
   43.4067  -65.8600   33.4060 H   0  0  0  0  0  0  0  0  0  0  0  0
   40.8800  -65.7229   34.3418 C   0  0  0  0  0  0  0  0  0  0  0  0
   40.3214  -64.4507   34.7660 O   0  0  0  0  0  0  0  0  0  0  0  0
   40.9193  -63.7324   34.5064 H   0  0  0  0  0  0  0  0  0  0  0  0
   41.0209  -65.8157   32.8011 C   0  0  0  0  0  0  0  0  0  0  0  0
   40.1324  -64.8992   32.1648 O   0  0  0  0  0  0  0  0  0  0  0  0
   39.2177  -65.1979   32.2872 H   0  0  0  0  0  0  0  0  0  0  0  0
   40.9424  -67.1637   32.0202 C   0  0  0  0  0  0  0  0  0  0  0  0
   41.9721  -68.0967   32.3980 O   0  0  0  0  0  0  0  0  0  0  0  0
   42.8327  -67.7697   32.0923 H   0  0  0  0  0  0  0  0  0  0  0  0
   41.7420  -68.0641   29.7741 O   0  0  0  0  0  0  0  0  0  0  0  0
   40.9015  -67.1359   30.4745 C   0  0  0  0  0  0  0  0  0  0  0  0
   41.6260  -67.9476   28.8182 H   0  0  0  0  0  0  0  0  0  0  0  0
   42.7756  -64.6029   35.6539 C   0  0  0  0  0  0  0  0  0  0  0  0
   44.0638  -64.2510   35.0438 N   0  0  0  0  0  0  0  0  0  0  0  0
   44.7468  -64.0976   35.7856 H   0  0  0  0  0  0  0  0  0  0  0  0
   43.9800  -63.0381   34.2221 C   0  0  0  0  0  0  0  0  0  0  0  0
   43.4152  -63.4052   32.8533 C   0  0  0  0  0  0  0  0  0  0  0  0
   42.2930  -62.9172   32.6289 O   0  0  0  0  0  0  0  0  0  0  0  0
   44.1160  -64.1084   32.0694 O   0  0  0  0  0  0  0  0  0  0  0  0
   44.9533  -64.4253   32.3461 H   0  0  0  0  0  0  0  0  0  0  0  0
   45.3421  -62.3536   34.0916 C   0  0  0  0  0  0  0  0  0  0  0  0
   45.9253  -61.9604   35.4508 C   0  0  0  0  0  0  0  0  0  0  0  0
   46.1157  -60.4411   35.5969 C   0  0  0  0  0  0  0  0  0  0  0  0
   46.9351  -59.8909   34.8563 O   0  0  0  0  0  0  0  0  0  0  0  0
   45.3756  -59.7699   36.4965 N   0  0  0  0  0  0  0  0  0  0  0  0
   44.7344  -60.2537   37.0657 H   0  0  0  0  0  0  0  0  0  0  0  0
   45.4750  -58.7945   36.5862 H   0  0  0  0  0  0  0  0  0  0  0  0
 21 20  2  0  0  0
 24 19  1  0  0  0
 24 25  1  0  0  0
 19 20  1  0  0  0
 19 17  1  0  0  0
 20 22  1  0  0  0
 28 26  1  0  0  0
 16 17  1  0  0  0
 16  1  1  0  0  0
 25 26  1  0  0  0
 26 27  2  0  0  0
  5  4  1  0  0  0
  4  1  1  0  0  0
  4  7  1  0  0  0
  1  2  1  0  0  0
  8  7  1  0  0  0
  7 10  1  0  0  0
 11 10  1  0  0  0
 10 14  1  0  0  0
 14 13  1  0  0  0
 13 15  1  0  0  0
 11 12  1  0  0  0
  8  9  1  0  0  0
  5  6  1  0  0  0
  2  3  1  0  0  0
 17 18  1  0  0  0
 28 29  1  0  0  0
 28 30  1  0  0  0
 22 23  1  0  0  0
M  END
> <minimizedAffinity>
-8.26240

$$$$
5L9O_GOP_A_301


 30 29  0  0  0  0  0  0  0  0999 V2000
   41.3932  -67.4054   31.2914 C   0  0  0  0  0  0  0  0  0  0  0  0
   41.2960  -67.2581   29.8617 O   0  0  0  0  0  0  0  0  0  0  0  0
   40.4362  -67.5908   29.5601 H   0  0  0  0  0  0  0  0  0  0  0  0
   41.3818  -68.8832   31.7315 C   0  0  0  0  0  0  0  0  0  0  0  0
   39.9964  -69.3009   31.8607 O   0  0  0  0  0  0  0  0  0  0  0  0
   39.5464  -69.1966   31.0078 H   0  0  0  0  0  0  0  0  0  0  0  0
   42.1655  -69.7591   30.7212 C   0  0  0  0  0  0  0  0  0  0  0  0
   41.2686  -70.3836   29.8048 O   0  0  0  0  0  0  0  0  0  0  0  0
   40.7471  -71.0562   30.2702 H   0  0  0  0  0  0  0  0  0  0  0  0
   43.2113  -70.8310   31.1578 C   0  0  0  0  0  0  0  0  0  0  0  0
   43.4303  -70.8602   32.5807 O   0  0  0  0  0  0  0  0  0  0  0  0
   43.8886  -70.0501   32.8540 H   0  0  0  0  0  0  0  0  0  0  0  0
   44.9470  -69.7183   29.6599 O   0  0  0  0  0  0  0  0  0  0  0  0
   44.6037  -70.8407   30.4850 C   0  0  0  0  0  0  0  0  0  0  0  0
   45.8385  -69.8433   29.2986 H   0  0  0  0  0  0  0  0  0  0  0  0
   40.3435  -66.5552   31.9995 C   0  0  0  0  0  0  0  0  0  0  0  0
   40.8014  -65.1611   32.0510 N   0  0  0  0  0  0  0  0  0  0  0  0
   41.1129  -64.8839   31.1201 H   0  0  0  0  0  0  0  0  0  0  0  0
   41.9090  -64.9715   32.9947 C   0  0  0  0  0  0  0  0  0  0  0  0
   41.3768  -65.1107   34.4175 C   0  0  0  0  0  0  0  0  0  0  0  0
   41.9296  -66.0134   35.0714 O   0  0  0  0  0  0  0  0  0  0  0  0
   40.4866  -64.3074   34.8206 O   0  0  0  0  0  0  0  0  0  0  0  0
   40.1387  -63.6623   34.2368 H   0  0  0  0  0  0  0  0  0  0  0  0
   42.5937  -63.6184   32.7914 C   0  0  0  0  0  0  0  0  0  0  0  0
   44.0933  -63.6772   33.0914 C   0  0  0  0  0  0  0  0  0  0  0  0
   44.4812  -62.8608   34.3359 C   0  0  0  0  0  0  0  0  0  0  0  0
   43.6413  -62.7461   35.2326 O   0  0  0  0  0  0  0  0  0  0  0  0
   45.7132  -62.3284   34.4144 N   0  0  0  0  0  0  0  0  0  0  0  0
   46.3490  -62.4471   33.6721 H   0  0  0  0  0  0  0  0  0  0  0  0
   45.9796  -61.8197   35.2141 H   0  0  0  0  0  0  0  0  0  0  0  0
 21 20  2  0  0  0
 24 19  1  0  0  0
 24 25  1  0  0  0
 19 20  1  0  0  0
 19 17  1  0  0  0
 20 22  1  0  0  0
 28 26  1  0  0  0
 16 17  1  0  0  0
 16  1  1  0  0  0
 25 26  1  0  0  0
 26 27  2  0  0  0
  5  4  1  0  0  0
  4  1  1  0  0  0
  4  7  1  0  0  0
  1  2  1  0  0  0
  8  7  1  0  0  0
  7 10  1  0  0  0
 11 10  1  0  0  0
 10 14  1  0  0  0
 14 13  1  0  0  0
 13 15  1  0  0  0
 11 12  1  0  0  0
  8  9  1  0  0  0
  5  6  1  0  0  0
  2  3  1  0  0  0
 17 18  1  0  0  0
 28 29  1  0  0  0
 28 30  1  0  0  0
 22 23  1  0  0  0
M  END
> <minimizedAffinity>
-8.15833

$$$$
5L9O_GOP_A_301


 30 29  0  0  0  0  0  0  0  0999 V2000
   42.8386  -64.4907   35.5811 C   0  0  0  0  0  0  0  0  0  0  0  0
   41.9379  -63.4163   35.2503 O   0  0  0  0  0  0  0  0  0  0  0  0
   41.7588  -63.4264   34.2971 H   0  0  0  0  0  0  0  0  0  0  0  0
   44.2260  -64.3148   34.9317 C   0  0  0  0  0  0  0  0  0  0  0  0
   44.3134  -65.2312   33.8079 O   0  0  0  0  0  0  0  0  0  0  0  0
   43.6112  -65.0285   33.1701 H   0  0  0  0  0  0  0  0  0  0  0  0
   44.4449  -62.8412   34.5039 C   0  0  0  0  0  0  0  0  0  0  0  0
   44.6300  -62.7561   33.0923 O   0  0  0  0  0  0  0  0  0  0  0  0
   45.4843  -63.1489   32.8539 H   0  0  0  0  0  0  0  0  0  0  0  0
   45.5031  -61.9104   35.1726 C   0  0  0  0  0  0  0  0  0  0  0  0
   44.9141  -60.8165   35.9004 O   0  0  0  0  0  0  0  0  0  0  0  0
   44.5069  -60.1952   35.2767 H   0  0  0  0  0  0  0  0  0  0  0  0
   46.3247  -60.1765   33.4954 O   0  0  0  0  0  0  0  0  0  0  0  0
   46.6385  -61.3183   34.3055 C   0  0  0  0  0  0  0  0  0  0  0  0
   47.1144  -59.9025   33.0032 H   0  0  0  0  0  0  0  0  0  0  0  0
   42.2014  -65.8454   35.2893 C   0  0  0  0  0  0  0  0  0  0  0  0
   41.0273  -65.6548   34.4286 N   0  0  0  0  0  0  0  0  0  0  0  0
   40.3421  -66.3790   34.6439 H   0  0  0  0  0  0  0  0  0  0  0  0
   41.3621  -65.7318   33.0020 C   0  0  0  0  0  0  0  0  0  0  0  0
   41.3402  -64.3255   32.4114 C   0  0  0  0  0  0  0  0  0  0  0  0
   42.3455  -64.0540   31.7305 O   0  0  0  0  0  0  0  0  0  0  0  0
   40.3295  -63.5917   32.6124 O   0  0  0  0  0  0  0  0  0  0  0  0
   39.6248  -63.9010   33.1469 H   0  0  0  0  0  0  0  0  0  0  0  0
   40.4062  -66.6608   32.2508 C   0  0  0  0  0  0  0  0  0  0  0  0
   41.1242  -67.4915   31.1848 C   0  0  0  0  0  0  0  0  0  0  0  0
   41.1199  -68.9963   31.5035 C   0  0  0  0  0  0  0  0  0  0  0  0
   40.0279  -69.5428   31.6809 O   0  0  0  0  0  0  0  0  0  0  0  0
   42.2877  -69.6607   31.5526 N   0  0  0  0  0  0  0  0  0  0  0  0
   43.1340  -69.1801   31.4042 H   0  0  0  0  0  0  0  0  0  0  0  0
   42.2964  -70.6277   31.7371 H   0  0  0  0  0  0  0  0  0  0  0  0
 21 20  2  0  0  0
 24 19  1  0  0  0
 24 25  1  0  0  0
 19 20  1  0  0  0
 19 17  1  0  0  0
 20 22  1  0  0  0
 28 26  1  0  0  0
 16 17  1  0  0  0
 16  1  1  0  0  0
 25 26  1  0  0  0
 26 27  2  0  0  0
  5  4  1  0  0  0
  4  1  1  0  0  0
  4  7  1  0  0  0
  1  2  1  0  0  0
  8  7  1  0  0  0
  7 10  1  0  0  0
 11 10  1  0  0  0
 10 14  1  0  0  0
 14 13  1  0  0  0
 13 15  1  0  0  0
 11 12  1  0  0  0
  8  9  1  0  0  0
  5  6  1  0  0  0
  2  3  1  0  0  0
 17 18  1  0  0  0
 28 29  1  0  0  0
 28 30  1  0  0  0
 22 23  1  0  0  0
M  END
> <minimizedAffinity>
-8.15770

$$$$
5L9O_GOP_A_301


 30 29  0  0  0  0  0  0  0  0999 V2000
   41.1197  -65.7743   31.5917 C   0  0  0  0  0  0  0  0  0  0  0  0
   39.7910  -65.2498   31.7776 O   0  0  0  0  0  0  0  0  0  0  0  0
   39.6506  -65.0504   32.7164 H   0  0  0  0  0  0  0  0  0  0  0  0
   41.3214  -67.1278   32.3022 C   0  0  0  0  0  0  0  0  0  0  0  0
   40.5738  -67.0953   33.5474 O   0  0  0  0  0  0  0  0  0  0  0  0
   39.6342  -66.9480   33.3567 H   0  0  0  0  0  0  0  0  0  0  0  0
   40.8799  -68.2965   31.3848 C   0  0  0  0  0  0  0  0  0  0  0  0
   39.9636  -69.1476   32.0707 O   0  0  0  0  0  0  0  0  0  0  0  0
   40.4311  -69.6271   32.7724 H   0  0  0  0  0  0  0  0  0  0  0  0
   41.8912  -69.2104   30.6265 C   0  0  0  0  0  0  0  0  0  0  0  0
   41.3281  -69.8233   29.4515 O   0  0  0  0  0  0  0  0  0  0  0  0
   40.6656  -70.4807   29.7157 H   0  0  0  0  0  0  0  0  0  0  0  0
   43.9703  -70.6367   30.9982 O   0  0  0  0  0  0  0  0  0  0  0  0
   42.6313  -70.3218   31.4066 C   0  0  0  0  0  0  0  0  0  0  0  0
   44.3221  -71.3440   31.5611 H   0  0  0  0  0  0  0  0  0  0  0  0
   42.1727  -64.7345   31.9607 C   0  0  0  0  0  0  0  0  0  0  0  0
   43.0510  -65.2810   33.0026 N   0  0  0  0  0  0  0  0  0  0  0  0
   42.6804  -66.1821   33.3043 H   0  0  0  0  0  0  0  0  0  0  0  0
   43.1499  -64.3972   34.1699 C   0  0  0  0  0  0  0  0  0  0  0  0
   41.7440  -64.0220   34.6276 C   0  0  0  0  0  0  0  0  0  0  0  0
   41.3419  -62.9379   34.1682 O   0  0  0  0  0  0  0  0  0  0  0  0
   41.1060  -64.8240   35.3692 O   0  0  0  0  0  0  0  0  0  0  0  0
   41.5111  -65.6180   35.6582 H   0  0  0  0  0  0  0  0  0  0  0  0
   43.9809  -63.1503   33.8606 C   0  0  0  0  0  0  0  0  0  0  0  0
   44.8553  -62.7288   35.0438 C   0  0  0  0  0  0  0  0  0  0  0  0
   45.8970  -61.6637   34.6612 C   0  0  0  0  0  0  0  0  0  0  0  0
   46.1271  -61.4900   33.4615 O   0  0  0  0  0  0  0  0  0  0  0  0
   46.4947  -60.9511   35.6320 N   0  0  0  0  0  0  0  0  0  0  0  0
   46.2779  -61.1267   36.5761 H   0  0  0  0  0  0  0  0  0  0  0  0
   47.1492  -60.2536   35.3987 H   0  0  0  0  0  0  0  0  0  0  0  0
 21 20  2  0  0  0
 24 19  1  0  0  0
 24 25  1  0  0  0
 19 20  1  0  0  0
 19 17  1  0  0  0
 20 22  1  0  0  0
 28 26  1  0  0  0
 16 17  1  0  0  0
 16  1  1  0  0  0
 25 26  1  0  0  0
 26 27  2  0  0  0
  5  4  1  0  0  0
  4  1  1  0  0  0
  4  7  1  0  0  0
  1  2  1  0  0  0
  8  7  1  0  0  0
  7 10  1  0  0  0
 11 10  1  0  0  0
 10 14  1  0  0  0
 14 13  1  0  0  0
 13 15  1  0  0  0
 11 12  1  0  0  0
  8  9  1  0  0  0
  5  6  1  0  0  0
  2  3  1  0  0  0
 17 18  1  0  0  0
 28 29  1  0  0  0
 28 30  1  0  0  0
 22 23  1  0  0  0
M  END
> <minimizedAffinity>
-7.85785

$$$$
