3DYO_IPT_A_2001


 19 19  0  0  0  0  0  0  0  0999 V2000
  -15.0521  -27.7469  -26.4712 C   0  0  0  0  0  0  0  0  0  0  0  0
  -13.9251  -27.5890  -25.4317 C   0  0  0  0  0  0  0  0  0  0  0  0
  -14.3203  -26.5817  -24.5179 O   0  0  0  0  0  0  0  0  0  0  0  0
  -12.6538  -27.1089  -26.1293 C   0  0  0  0  0  0  0  0  0  0  0  0
  -11.5586  -27.0170  -25.1832 O   0  0  0  0  0  0  0  0  0  0  0  0
  -12.2680  -28.0978  -27.2684 C   0  0  0  0  0  0  0  0  0  0  0  0
  -11.8795  -29.4086  -26.7635 O   0  0  0  0  0  0  0  0  0  0  0  0
  -13.4602  -28.2196  -28.2131 C   0  0  0  0  0  0  0  0  0  0  0  0
  -14.6197  -28.6300  -27.4796 O   0  0  0  0  0  0  0  0  0  0  0  0
  -14.4742  -25.7526  -24.9972 H   0  0  0  0  0  0  0  0  0  0  0  0
  -11.3839  -27.8928  -24.8048 H   0  0  0  0  0  0  0  0  0  0  0  0
  -12.6246  -29.8047  -26.2853 H   0  0  0  0  0  0  0  0  0  0  0  0
  -13.3419  -29.2871  -29.3003 C   0  0  0  0  0  0  0  0  0  0  0  0
  -11.9944  -29.2433  -29.7820 O   0  0  0  0  0  0  0  0  0  0  0  0
  -11.8032  -28.3574  -30.1276 H   0  0  0  0  0  0  0  0  0  0  0  0
  -16.5024  -28.6218  -25.8017 S   0  0  0  0  0  0  0  0  0  0  0  0
  -17.8811  -28.1555  -26.9558 C   0  0  0  0  0  0  0  0  0  0  0  0
  -19.1815  -28.0683  -26.2093 C   0  0  0  0  0  0  0  0  0  0  0  0
  -17.9722  -29.0403  -28.2091 C   0  0  0  0  0  0  0  0  0  0  0  0
  1  2  1  0  0  0
  1  9  1  0  0  0
  1 16  1  0  0  0
  2  3  1  0  0  0
  2  4  1  0  0  0
  4  5  1  0  0  0
  4  6  1  0  0  0
  6  7  1  0  0  0
  6  8  1  0  0  0
  8  9  1  0  0  0
  8 13  1  0  0  0
 13 14  1  0  0  0
 16 17  1  0  0  0
 17 18  1  0  0  0
 17 19  1  0  0  0
  3 10  1  0  0  0
  5 11  1  0  0  0
  7 12  1  0  0  0
 14 15  1  0  0  0
M  END
> <minimizedAffinity>
-7.16511

$$$$
3DYO_IPT_A_2001


 19 19  0  0  0  0  0  0  0  0999 V2000
  -13.9462  -28.9596  -25.5427 C   0  0  0  0  0  0  0  0  0  0  0  0
  -14.3296  -28.3940  -26.9242 C   0  0  0  0  0  0  0  0  0  0  0  0
  -15.5852  -28.9436  -27.2810 O   0  0  0  0  0  0  0  0  0  0  0  0
  -13.3096  -28.8557  -27.9634 C   0  0  0  0  0  0  0  0  0  0  0  0
  -13.6100  -28.2814  -29.2606 O   0  0  0  0  0  0  0  0  0  0  0  0
  -11.8777  -28.4250  -27.5291 C   0  0  0  0  0  0  0  0  0  0  0  0
  -11.7039  -26.9780  -27.5320 O   0  0  0  0  0  0  0  0  0  0  0  0
  -11.6144  -28.9932  -26.1375 C   0  0  0  0  0  0  0  0  0  0  0  0
  -12.6338  -28.5525  -25.2334 O   0  0  0  0  0  0  0  0  0  0  0  0
  -15.5200  -29.9111  -27.3037 H   0  0  0  0  0  0  0  0  0  0  0  0
  -13.5674  -27.3140  -29.2036 H   0  0  0  0  0  0  0  0  0  0  0  0
  -12.3232  -26.5767  -26.9025 H   0  0  0  0  0  0  0  0  0  0  0  0
  -10.3258  -28.5272  -25.4609 C   0  0  0  0  0  0  0  0  0  0  0  0
  -10.6281  -27.2988  -24.7905 O   0  0  0  0  0  0  0  0  0  0  0  0
  -10.9493  -26.6492  -25.4353 H   0  0  0  0  0  0  0  0  0  0  0  0
  -14.9029  -28.2051  -24.1890 S   0  0  0  0  0  0  0  0  0  0  0  0
  -15.5595  -26.6313  -24.9253 C   0  0  0  0  0  0  0  0  0  0  0  0
  -14.8271  -25.4458  -24.3646 C   0  0  0  0  0  0  0  0  0  0  0  0
  -17.0866  -26.4872  -24.8302 C   0  0  0  0  0  0  0  0  0  0  0  0
  1  2  1  0  0  0
  1  9  1  0  0  0
  1 16  1  0  0  0
  2  3  1  0  0  0
  2  4  1  0  0  0
  4  5  1  0  0  0
  4  6  1  0  0  0
  6  7  1  0  0  0
  6  8  1  0  0  0
  8  9  1  0  0  0
  8 13  1  0  0  0
 13 14  1  0  0  0
 16 17  1  0  0  0
 17 18  1  0  0  0
 17 19  1  0  0  0
  3 10  1  0  0  0
  5 11  1  0  0  0
  7 12  1  0  0  0
 14 15  1  0  0  0
M  END
> <minimizedAffinity>
-6.62875

$$$$
3DYO_IPT_A_2001


 19 19  0  0  0  0  0  0  0  0999 V2000
  -14.7490  -27.3435  -25.0677 C   0  0  0  0  0  0  0  0  0  0  0  0
  -14.5924  -28.8057  -24.6061 C   0  0  0  0  0  0  0  0  0  0  0  0
  -14.8818  -28.8530  -23.2204 O   0  0  0  0  0  0  0  0  0  0  0  0
  -13.1411  -29.2447  -24.7915 C   0  0  0  0  0  0  0  0  0  0  0  0
  -12.9813  -30.6392  -24.4273 O   0  0  0  0  0  0  0  0  0  0  0  0
  -12.7129  -29.0482  -26.2756 C   0  0  0  0  0  0  0  0  0  0  0  0
  -13.4320  -29.9297  -27.1866 O   0  0  0  0  0  0  0  0  0  0  0  0
  -12.9489  -27.5869  -26.6466 C   0  0  0  0  0  0  0  0  0  0  0  0
  -14.3172  -27.2404  -26.4044 O   0  0  0  0  0  0  0  0  0  0  0  0
  -14.2737  -28.2672  -22.7429 H   0  0  0  0  0  0  0  0  0  0  0  0
  -13.5393  -31.1888  -24.9996 H   0  0  0  0  0  0  0  0  0  0  0  0
  -14.3819  -29.7391  -27.1385 H   0  0  0  0  0  0  0  0  0  0  0  0
  -12.7580  -27.2352  -28.1215 C   0  0  0  0  0  0  0  0  0  0  0  0
  -11.3628  -27.3816  -28.4073 O   0  0  0  0  0  0  0  0  0  0  0  0
  -10.8511  -26.7938  -27.8297 H   0  0  0  0  0  0  0  0  0  0  0  0
  -16.4929  -26.8342  -25.1955 S   0  0  0  0  0  0  0  0  0  0  0  0
  -17.3830  -28.3936  -25.6713 C   0  0  0  0  0  0  0  0  0  0  0  0
  -17.8277  -28.3257  -27.1043 C   0  0  0  0  0  0  0  0  0  0  0  0
  -18.5201  -28.7806  -24.7126 C   0  0  0  0  0  0  0  0  0  0  0  0
  1  2  1  0  0  0
  1  9  1  0  0  0
  1 16  1  0  0  0
  2  3  1  0  0  0
  2  4  1  0  0  0
  4  5  1  0  0  0
  4  6  1  0  0  0
  6  7  1  0  0  0
  6  8  1  0  0  0
  8  9  1  0  0  0
  8 13  1  0  0  0
 13 14  1  0  0  0
 16 17  1  0  0  0
 17 18  1  0  0  0
 17 19  1  0  0  0
  3 10  1  0  0  0
  5 11  1  0  0  0
  7 12  1  0  0  0
 14 15  1  0  0  0
M  END
> <minimizedAffinity>
-6.48140

$$$$
3DYO_IPT_A_2001


 19 19  0  0  0  0  0  0  0  0999 V2000
  -14.6380  -27.2999  -25.0574 C   0  0  0  0  0  0  0  0  0  0  0  0
  -14.5186  -28.7731  -24.6204 C   0  0  0  0  0  0  0  0  0  0  0  0
  -14.8090  -28.8364  -23.2357 O   0  0  0  0  0  0  0  0  0  0  0  0
  -13.0789  -29.2456  -24.8140 C   0  0  0  0  0  0  0  0  0  0  0  0
  -12.9545  -30.6497  -24.4734 O   0  0  0  0  0  0  0  0  0  0  0  0
  -12.6460  -29.0351  -26.2948 C   0  0  0  0  0  0  0  0  0  0  0  0
  -13.3873  -29.8826  -27.2201 O   0  0  0  0  0  0  0  0  0  0  0  0
  -12.8449  -27.5623  -26.6410 C   0  0  0  0  0  0  0  0  0  0  0  0
  -14.2039  -27.1853  -26.3924 O   0  0  0  0  0  0  0  0  0  0  0  0
  -14.1862  -28.2743  -22.7487 H   0  0  0  0  0  0  0  0  0  0  0  0
  -13.5263  -31.1752  -25.0545 H   0  0  0  0  0  0  0  0  0  0  0  0
  -14.3320  -29.6688  -27.1684 H   0  0  0  0  0  0  0  0  0  0  0  0
  -12.6452  -27.1908  -28.1099 C   0  0  0  0  0  0  0  0  0  0  0  0
  -11.5233  -27.9450  -28.5814 O   0  0  0  0  0  0  0  0  0  0  0  0
  -10.7421  -27.7301  -28.0481 H   0  0  0  0  0  0  0  0  0  0  0  0
  -16.3684  -26.7445  -25.1757 S   0  0  0  0  0  0  0  0  0  0  0  0
  -16.5118  -25.4373  -23.8638 C   0  0  0  0  0  0  0  0  0  0  0  0
  -17.9432  -25.0113  -23.7036 C   0  0  0  0  0  0  0  0  0  0  0  0
  -15.5555  -24.2500  -24.0585 C   0  0  0  0  0  0  0  0  0  0  0  0
  1  2  1  0  0  0
  1  9  1  0  0  0
  1 16  1  0  0  0
  2  3  1  0  0  0
  2  4  1  0  0  0
  4  5  1  0  0  0
  4  6  1  0  0  0
  6  7  1  0  0  0
  6  8  1  0  0  0
  8  9  1  0  0  0
  8 13  1  0  0  0
 13 14  1  0  0  0
 16 17  1  0  0  0
 17 18  1  0  0  0
 17 19  1  0  0  0
  3 10  1  0  0  0
  5 11  1  0  0  0
  7 12  1  0  0  0
 14 15  1  0  0  0
M  END
> <minimizedAffinity>
-6.46388

$$$$
3DYO_IPT_A_2001


 19 19  0  0  0  0  0  0  0  0999 V2000
  -14.0969  -27.9011  -25.9104 C   0  0  0  0  0  0  0  0  0  0  0  0
  -15.2841  -28.5650  -26.6352 C   0  0  0  0  0  0  0  0  0  0  0  0
  -14.9368  -28.6927  -28.0024 O   0  0  0  0  0  0  0  0  0  0  0  0
  -16.5060  -27.6522  -26.5508 C   0  0  0  0  0  0  0  0  0  0  0  0
  -17.6562  -28.2843  -27.1675 O   0  0  0  0  0  0  0  0  0  0  0  0
  -16.8299  -27.3358  -25.0611 C   0  0  0  0  0  0  0  0  0  0  0  0
  -17.2601  -28.5145  -24.3197 O   0  0  0  0  0  0  0  0  0  0  0  0
  -15.5831  -26.7283  -24.4245 C   0  0  0  0  0  0  0  0  0  0  0  0
  -14.4745  -27.6208  -24.5827 O   0  0  0  0  0  0  0  0  0  0  0  0
  -14.7466  -27.8159  -28.3709 H   0  0  0  0  0  0  0  0  0  0  0  0
  -17.8615  -29.1089  -26.6998 H   0  0  0  0  0  0  0  0  0  0  0  0
  -16.5492  -29.1743  -24.3207 H   0  0  0  0  0  0  0  0  0  0  0  0
  -15.6439  -26.5154  -22.9125 C   0  0  0  0  0  0  0  0  0  0  0  0
  -15.2575  -27.7514  -22.3021 O   0  0  0  0  0  0  0  0  0  0  0  0
  -15.8594  -28.4559  -22.5891 H   0  0  0  0  0  0  0  0  0  0  0  0
  -12.6981  -29.0425  -25.6705 S   0  0  0  0  0  0  0  0  0  0  0  0
  -11.2529  -28.1457  -26.4170 C   0  0  0  0  0  0  0  0  0  0  0  0
  -11.4262  -28.0200  -27.9037 C   0  0  0  0  0  0  0  0  0  0  0  0
   -9.8861  -28.7283  -26.0241 C   0  0  0  0  0  0  0  0  0  0  0  0
  1  2  1  0  0  0
  1  9  1  0  0  0
  1 16  1  0  0  0
  2  3  1  0  0  0
  2  4  1  0  0  0
  4  5  1  0  0  0
  4  6  1  0  0  0
  6  7  1  0  0  0
  6  8  1  0  0  0
  8  9  1  0  0  0
  8 13  1  0  0  0
 13 14  1  0  0  0
 16 17  1  0  0  0
 17 18  1  0  0  0
 17 19  1  0  0  0
  3 10  1  0  0  0
  5 11  1  0  0  0
  7 12  1  0  0  0
 14 15  1  0  0  0
M  END
> <minimizedAffinity>
-6.03375

$$$$
3DYO_IPT_A_2001


 19 19  0  0  0  0  0  0  0  0999 V2000
  -14.0651  -28.3727  -26.4247 C   0  0  0  0  0  0  0  0  0  0  0  0
  -12.7884  -28.8422  -27.1493 C   0  0  0  0  0  0  0  0  0  0  0  0
  -11.6898  -28.1607  -26.5708 O   0  0  0  0  0  0  0  0  0  0  0  0
  -12.8614  -28.4386  -28.6207 C   0  0  0  0  0  0  0  0  0  0  0  0
  -11.7014  -28.9282  -29.3403 O   0  0  0  0  0  0  0  0  0  0  0  0
  -14.1520  -29.0219  -29.2675 C   0  0  0  0  0  0  0  0  0  0  0  0
  -14.1344  -30.4776  -29.3362 O   0  0  0  0  0  0  0  0  0  0  0  0
  -15.3490  -28.5387  -28.4536 C   0  0  0  0  0  0  0  0  0  0  0  0
  -15.1863  -28.9161  -27.0817 O   0  0  0  0  0  0  0  0  0  0  0  0
  -11.8160  -27.2038  -26.6669 H   0  0  0  0  0  0  0  0  0  0  0  0
  -11.6767  -29.8967  -29.2930 H   0  0  0  0  0  0  0  0  0  0  0  0
  -14.0772  -30.8430  -28.4395 H   0  0  0  0  0  0  0  0  0  0  0  0
  -16.6982  -29.1532  -28.8245 C   0  0  0  0  0  0  0  0  0  0  0  0
  -17.4359  -29.3041  -27.6068 O   0  0  0  0  0  0  0  0  0  0  0  0
  -16.9396  -29.8715  -26.9963 H   0  0  0  0  0  0  0  0  0  0  0  0
  -14.2243  -29.0865  -24.7567 S   0  0  0  0  0  0  0  0  0  0  0  0
  -15.5703  -28.0814  -23.9641 C   0  0  0  0  0  0  0  0  0  0  0  0
  -15.3515  -26.6179  -24.2218 C   0  0  0  0  0  0  0  0  0  0  0  0
  -15.7917  -28.3974  -22.4765 C   0  0  0  0  0  0  0  0  0  0  0  0
  1  2  1  0  0  0
  1  9  1  0  0  0
  1 16  1  0  0  0
  2  3  1  0  0  0
  2  4  1  0  0  0
  4  5  1  0  0  0
  4  6  1  0  0  0
  6  7  1  0  0  0
  6  8  1  0  0  0
  8  9  1  0  0  0
  8 13  1  0  0  0
 13 14  1  0  0  0
 16 17  1  0  0  0
 17 18  1  0  0  0
 17 19  1  0  0  0
  3 10  1  0  0  0
  5 11  1  0  0  0
  7 12  1  0  0  0
 14 15  1  0  0  0
M  END
> <minimizedAffinity>
-5.84547

$$$$
3DYO_IPT_A_2001


 19 19  0  0  0  0  0  0  0  0999 V2000
  -15.0767  -27.0708  -26.3382 C   0  0  0  0  0  0  0  0  0  0  0  0
  -14.0157  -27.4657  -25.2922 C   0  0  0  0  0  0  0  0  0  0  0  0
  -13.9022  -26.3972  -24.3696 O   0  0  0  0  0  0  0  0  0  0  0  0
  -12.6614  -27.6307  -25.9792 C   0  0  0  0  0  0  0  0  0  0  0  0
  -11.6586  -28.0682  -25.0276 O   0  0  0  0  0  0  0  0  0  0  0  0
  -12.7727  -28.6768  -27.1271 C   0  0  0  0  0  0  0  0  0  0  0  0
  -13.0464  -30.0208  -26.6343 O   0  0  0  0  0  0  0  0  0  0  0  0
  -13.8753  -28.2203  -28.0781 C   0  0  0  0  0  0  0  0  0  0  0  0
  -15.0985  -28.0463  -27.3539 O   0  0  0  0  0  0  0  0  0  0  0  0
  -13.6464  -25.5889  -24.8409 H   0  0  0  0  0  0  0  0  0  0  0  0
  -11.9169  -28.9269  -24.6576 H   0  0  0  0  0  0  0  0  0  0  0  0
  -13.8945  -30.0261  -26.1634 H   0  0  0  0  0  0  0  0  0  0  0  0
  -14.2603  -29.2113  -29.1759 C   0  0  0  0  0  0  0  0  0  0  0  0
  -13.0505  -29.5802  -29.8468 O   0  0  0  0  0  0  0  0  0  0  0  0
  -12.6286  -28.7868  -30.2123 H   0  0  0  0  0  0  0  0  0  0  0  0
  -16.7735  -27.1710  -25.6842 S   0  0  0  0  0  0  0  0  0  0  0  0
  -16.7933  -28.7629  -24.7272 C   0  0  0  0  0  0  0  0  0  0  0  0
  -17.9193  -29.6404  -25.1944 C   0  0  0  0  0  0  0  0  0  0  0  0
  -16.7785  -28.5746  -23.2020 C   0  0  0  0  0  0  0  0  0  0  0  0
  1  2  1  0  0  0
  1  9  1  0  0  0
  1 16  1  0  0  0
  2  3  1  0  0  0
  2  4  1  0  0  0
  4  5  1  0  0  0
  4  6  1  0  0  0
  6  7  1  0  0  0
  6  8  1  0  0  0
  8  9  1  0  0  0
  8 13  1  0  0  0
 13 14  1  0  0  0
 16 17  1  0  0  0
 17 18  1  0  0  0
 17 19  1  0  0  0
  3 10  1  0  0  0
  5 11  1  0  0  0
  7 12  1  0  0  0
 14 15  1  0  0  0
M  END
> <minimizedAffinity>
-5.68318

$$$$
3DYO_IPT_A_2001


 19 19  0  0  0  0  0  0  0  0999 V2000
  -14.3044  -27.2859  -25.4030 C   0  0  0  0  0  0  0  0  0  0  0  0
  -14.4065  -28.2709  -24.2219 C   0  0  0  0  0  0  0  0  0  0  0  0
  -14.3525  -29.5838  -24.7504 O   0  0  0  0  0  0  0  0  0  0  0  0
  -15.7608  -28.1030  -23.5356 C   0  0  0  0  0  0  0  0  0  0  0  0
  -15.8556  -28.9721  -22.3786 O   0  0  0  0  0  0  0  0  0  0  0  0
  -15.9476  -26.6244  -23.0852 C   0  0  0  0  0  0  0  0  0  0  0  0
  -15.0096  -26.2354  -22.0398 O   0  0  0  0  0  0  0  0  0  0  0  0
  -15.7828  -25.7316  -24.3118 C   0  0  0  0  0  0  0  0  0  0  0  0
  -14.5113  -25.9780  -24.9230 O   0  0  0  0  0  0  0  0  0  0  0  0
  -15.0820  -29.7105  -25.3770 H   0  0  0  0  0  0  0  0  0  0  0  0
  -15.1624  -28.7389  -21.7414 H   0  0  0  0  0  0  0  0  0  0  0  0
  -14.1022  -26.3173  -22.3727 H   0  0  0  0  0  0  0  0  0  0  0  0
  -15.7520  -24.2278  -24.0416 C   0  0  0  0  0  0  0  0  0  0  0  0
  -17.0926  -23.7495  -24.1960 O   0  0  0  0  0  0  0  0  0  0  0  0
  -17.4046  -23.9459  -25.0932 H   0  0  0  0  0  0  0  0  0  0  0  0
  -12.6161  -27.1763  -26.0772 S   0  0  0  0  0  0  0  0  0  0  0  0
  -12.8071  -27.6867  -27.8530 C   0  0  0  0  0  0  0  0  0  0  0  0
  -14.0421  -28.5236  -28.0270 C   0  0  0  0  0  0  0  0  0  0  0  0
  -11.5534  -28.3435  -28.4520 C   0  0  0  0  0  0  0  0  0  0  0  0
  1  2  1  0  0  0
  1  9  1  0  0  0
  1 16  1  0  0  0
  2  3  1  0  0  0
  2  4  1  0  0  0
  4  5  1  0  0  0
  4  6  1  0  0  0
  6  7  1  0  0  0
  6  8  1  0  0  0
  8  9  1  0  0  0
  8 13  1  0  0  0
 13 14  1  0  0  0
 16 17  1  0  0  0
 17 18  1  0  0  0
 17 19  1  0  0  0
  3 10  1  0  0  0
  5 11  1  0  0  0
  7 12  1  0  0  0
 14 15  1  0  0  0
M  END
> <minimizedAffinity>
-5.55827

$$$$
3DYO_IPT_A_2001


 19 19  0  0  0  0  0  0  0  0999 V2000
  -15.2798  -29.2590  -24.8015 C   0  0  0  0  0  0  0  0  0  0  0  0
  -15.5936  -28.2527  -23.6770 C   0  0  0  0  0  0  0  0  0  0  0  0
  -15.0332  -28.7580  -22.4784 O   0  0  0  0  0  0  0  0  0  0  0  0
  -17.1059  -28.1651  -23.4806 C   0  0  0  0  0  0  0  0  0  0  0  0
  -17.4311  -27.1740  -22.4733 O   0  0  0  0  0  0  0  0  0  0  0  0
  -17.7937  -27.7791  -24.8231 C   0  0  0  0  0  0  0  0  0  0  0  0
  -17.4500  -26.4320  -25.2606 O   0  0  0  0  0  0  0  0  0  0  0  0
  -17.3847  -28.8049  -25.8764 C   0  0  0  0  0  0  0  0  0  0  0  0
  -15.9568  -28.8598  -25.9703 O   0  0  0  0  0  0  0  0  0  0  0  0
  -15.4137  -29.6293  -22.2858 H   0  0  0  0  0  0  0  0  0  0  0  0
  -17.1124  -26.3041  -22.7607 H   0  0  0  0  0  0  0  0  0  0  0  0
  -16.4928  -26.3737  -25.4061 H   0  0  0  0  0  0  0  0  0  0  0  0
  -17.8149  -28.4952  -27.3097 C   0  0  0  0  0  0  0  0  0  0  0  0
  -16.6937  -28.7830  -28.1523 O   0  0  0  0  0  0  0  0  0  0  0  0
  -15.9371  -28.2403  -27.8802 H   0  0  0  0  0  0  0  0  0  0  0  0
  -13.5393  -29.1917  -25.3335 S   0  0  0  0  0  0  0  0  0  0  0  0
  -13.5272  -27.9022  -26.6703 C   0  0  0  0  0  0  0  0  0  0  0  0
  -13.1897  -28.5247  -27.9949 C   0  0  0  0  0  0  0  0  0  0  0  0
  -12.6560  -26.6777  -26.3486 C   0  0  0  0  0  0  0  0  0  0  0  0
  1  2  1  0  0  0
  1  9  1  0  0  0
  1 16  1  0  0  0
  2  3  1  0  0  0
  2  4  1  0  0  0
  4  5  1  0  0  0
  4  6  1  0  0  0
  6  7  1  0  0  0
  6  8  1  0  0  0
  8  9  1  0  0  0
  8 13  1  0  0  0
 13 14  1  0  0  0
 16 17  1  0  0  0
 17 18  1  0  0  0
 17 19  1  0  0  0
  3 10  1  0  0  0
  5 11  1  0  0  0
  7 12  1  0  0  0
 14 15  1  0  0  0
M  END
> <minimizedAffinity>
-5.48755

$$$$
3DYO_IPT_A_2001


 19 19  0  0  0  0  0  0  0  0999 V2000
  -16.7506  -26.5178  -24.6304 C   0  0  0  0  0  0  0  0  0  0  0  0
  -15.3228  -26.8942  -24.1885 C   0  0  0  0  0  0  0  0  0  0  0  0
  -14.8075  -25.8138  -23.4315 O   0  0  0  0  0  0  0  0  0  0  0  0
  -14.4363  -27.0606  -25.4214 C   0  0  0  0  0  0  0  0  0  0  0  0
  -13.1032  -27.4812  -25.0358 O   0  0  0  0  0  0  0  0  0  0  0  0
  -15.0536  -28.1215  -26.3794 C   0  0  0  0  0  0  0  0  0  0  0  0
  -15.0554  -29.4607  -25.8043 O   0  0  0  0  0  0  0  0  0  0  0  0
  -16.4753  -27.6825  -26.7184 C   0  0  0  0  0  0  0  0  0  0  0  0
  -17.2283  -27.5059  -25.5132 O   0  0  0  0  0  0  0  0  0  0  0  0
  -14.8063  -25.0100  -23.9745 H   0  0  0  0  0  0  0  0  0  0  0  0
  -13.1528  -28.3365  -24.5811 H   0  0  0  0  0  0  0  0  0  0  0  0
  -15.5906  -29.4645  -24.9953 H   0  0  0  0  0  0  0  0  0  0  0  0
  -17.3129  -28.6890  -27.5063 C   0  0  0  0  0  0  0  0  0  0  0  0
  -16.4706  -29.2149  -28.5377 O   0  0  0  0  0  0  0  0  0  0  0  0
  -16.1584  -28.4898  -29.1012 H   0  0  0  0  0  0  0  0  0  0  0  0
  -17.9534  -26.6187  -23.2666 S   0  0  0  0  0  0  0  0  0  0  0  0
  -17.3257  -28.0160  -22.2160 C   0  0  0  0  0  0  0  0  0  0  0  0
  -18.3322  -29.1299  -22.1709 C   0  0  0  0  0  0  0  0  0  0  0  0
  -16.8536  -27.5832  -20.8189 C   0  0  0  0  0  0  0  0  0  0  0  0
  1  2  1  0  0  0
  1  9  1  0  0  0
  1 16  1  0  0  0
  2  3  1  0  0  0
  2  4  1  0  0  0
  4  5  1  0  0  0
  4  6  1  0  0  0
  6  7  1  0  0  0
  6  8  1  0  0  0
  8  9  1  0  0  0
  8 13  1  0  0  0
 13 14  1  0  0  0
 16 17  1  0  0  0
 17 18  1  0  0  0
 17 19  1  0  0  0
  3 10  1  0  0  0
  5 11  1  0  0  0
  7 12  1  0  0  0
 14 15  1  0  0  0
M  END
> <minimizedAffinity>
-5.37859

$$$$
