3C2R_PHT_A_300


 14 14  0  0  0  0  0  0  0  0999 V2000
  -24.7952  -15.6250   22.3594 C   0  0  0  0  0  0  0  0  0  0  0  0
  -23.4807  -15.6174   22.8167 C   0  0  0  0  0  0  0  0  0  0  0  0
  -23.0463  -16.6167   23.6874 C   0  0  0  0  0  0  0  0  0  0  0  0
  -23.9328  -17.6082   24.0980 C   0  0  0  0  0  0  0  0  0  0  0  0
  -25.2489  -17.6130   23.6416 C   0  0  0  0  0  0  0  0  0  0  0  0
  -25.6802  -16.6194   22.7692 C   0  0  0  0  0  0  0  0  0  0  0  0
  -21.3521  -16.6730   25.3703 O   0  0  0  0  0  0  0  0  0  0  0  0
  -20.7016  -16.8230   23.2686 O   0  0  0  0  0  0  0  0  0  0  0  0
  -21.5868  -16.7037   24.1426 C   0  0  0  0  0  0  0  0  0  0  0  0
  -20.9377  -16.8399   22.3620 H   0  0  0  0  0  0  0  0  0  0  0  0
  -22.5666  -14.4560   22.4128 C   0  0  0  0  0  0  0  0  0  0  0  0
  -21.7541  -14.6392   21.4802 O   0  0  0  0  0  0  0  0  0  0  0  0
  -22.7100  -13.3671   23.0081 O   0  0  0  0  0  0  0  0  0  0  0  0
  -23.3364  -13.2907   23.7008 H   0  0  0  0  0  0  0  0  0  0  0  0
  7  9  2  0  0  0
  8  9  1  0  0  0
 11 12  2  0  0  0
 11 13  1  0  0  0
 11  2  1  0  0  0
  9  3  1  0  0  0
  1  2  2  0  0  0
  1  6  1  0  0  0
  2  3  1  0  0  0
  3  4  2  0  0  0
  4  5  1  0  0  0
  5  6  2  0  0  0
  8 10  1  0  0  0
 13 14  1  0  0  0
M  END
> <minimizedAffinity>
-6.62919

$$$$
3C2R_PHT_A_300


 14 14  0  0  0  0  0  0  0  0999 V2000
  -23.9567  -17.5999   24.0537 C   0  0  0  0  0  0  0  0  0  0  0  0
  -23.0640  -16.6064   23.6623 C   0  0  0  0  0  0  0  0  0  0  0  0
  -23.4906  -15.5934   22.8039 C   0  0  0  0  0  0  0  0  0  0  0  0
  -24.8028  -15.5886   22.3394 C   0  0  0  0  0  0  0  0  0  0  0  0
  -25.6945  -16.5851   22.7299 C   0  0  0  0  0  0  0  0  0  0  0  0
  -25.2701  -17.5922   23.5902 C   0  0  0  0  0  0  0  0  0  0  0  0
  -21.7442  -14.6120   21.5028 O   0  0  0  0  0  0  0  0  0  0  0  0
  -22.7098  -13.3449   23.0275 O   0  0  0  0  0  0  0  0  0  0  0  0
  -22.5730  -14.4287   22.4208 C   0  0  0  0  0  0  0  0  0  0  0  0
  -23.3489  -13.2664   23.7082 H   0  0  0  0  0  0  0  0  0  0  0  0
  -21.6059  -16.7027   24.1232 C   0  0  0  0  0  0  0  0  0  0  0  0
  -21.3711  -16.6861   25.3511 O   0  0  0  0  0  0  0  0  0  0  0  0
  -20.7254  -16.8377   23.2472 O   0  0  0  0  0  0  0  0  0  0  0  0
  -20.9630  -16.8423   22.3409 H   0  0  0  0  0  0  0  0  0  0  0  0
  7  9  2  0  0  0
  8  9  1  0  0  0
 11 12  2  0  0  0
 11 13  1  0  0  0
 11  2  1  0  0  0
  9  3  1  0  0  0
  1  2  2  0  0  0
  1  6  1  0  0  0
  2  3  1  0  0  0
  3  4  2  0  0  0
  4  5  1  0  0  0
  5  6  2  0  0  0
  8 10  1  0  0  0
 13 14  1  0  0  0
M  END
> <minimizedAffinity>
-6.61916

$$$$
3C2R_PHT_A_300


 14 14  0  0  0  0  0  0  0  0999 V2000
  -23.2542  -17.6421   24.8990 C   0  0  0  0  0  0  0  0  0  0  0  0
  -24.0003  -17.6791   23.7246 C   0  0  0  0  0  0  0  0  0  0  0  0
  -23.4445  -17.2022   22.5377 C   0  0  0  0  0  0  0  0  0  0  0  0
  -22.1518  -16.6860   22.5389 C   0  0  0  0  0  0  0  0  0  0  0  0
  -21.4072  -16.6472   23.7155 C   0  0  0  0  0  0  0  0  0  0  0  0
  -21.9598  -17.1277   24.8979 C   0  0  0  0  0  0  0  0  0  0  0  0
  -23.8791  -18.2393   20.4302 O   0  0  0  0  0  0  0  0  0  0  0  0
  -25.0887  -16.4739   20.9624 O   0  0  0  0  0  0  0  0  0  0  0  0
  -24.1905  -17.3082   21.2045 C   0  0  0  0  0  0  0  0  0  0  0  0
  -25.2783  -15.7966   21.5815 H   0  0  0  0  0  0  0  0  0  0  0  0
  -25.4506  -18.1694   23.7881 C   0  0  0  0  0  0  0  0  0  0  0  0
  -26.3638  -17.3155   23.8027 O   0  0  0  0  0  0  0  0  0  0  0  0
  -25.6500  -19.4027   23.7774 O   0  0  0  0  0  0  0  0  0  0  0  0
  -24.9237  -19.9946   23.7666 H   0  0  0  0  0  0  0  0  0  0  0  0
  7  9  2  0  0  0
  8  9  1  0  0  0
 11 12  2  0  0  0
 11 13  1  0  0  0
 11  2  1  0  0  0
  9  3  1  0  0  0
  1  2  2  0  0  0
  1  6  1  0  0  0
  2  3  1  0  0  0
  3  4  2  0  0  0
  4  5  1  0  0  0
  5  6  2  0  0  0
  8 10  1  0  0  0
 13 14  1  0  0  0
M  END
> <minimizedAffinity>
-6.12855

$$$$
3C2R_PHT_A_300


 14 14  0  0  0  0  0  0  0  0999 V2000
  -24.8357  -17.4208   22.9969 C   0  0  0  0  0  0  0  0  0  0  0  0
  -23.8383  -16.7743   22.2727 C   0  0  0  0  0  0  0  0  0  0  0  0
  -22.6103  -16.5051   22.8766 C   0  0  0  0  0  0  0  0  0  0  0  0
  -22.3951  -16.8779   24.2004 C   0  0  0  0  0  0  0  0  0  0  0  0
  -23.3952  -17.5225   24.9247 C   0  0  0  0  0  0  0  0  0  0  0  0
  -24.6178  -17.7955   24.3206 C   0  0  0  0  0  0  0  0  0  0  0  0
  -20.5654  -16.6437   21.6498 O   0  0  0  0  0  0  0  0  0  0  0  0
  -21.4576  -14.6446   21.9147 O   0  0  0  0  0  0  0  0  0  0  0  0
  -21.4518  -15.8814   22.0930 C   0  0  0  0  0  0  0  0  0  0  0  0
  -22.1495  -14.1231   22.2714 H   0  0  0  0  0  0  0  0  0  0  0  0
  -24.1507  -16.2996   20.8498 C   0  0  0  0  0  0  0  0  0  0  0  0
  -24.3794  -15.0839   20.6683 O   0  0  0  0  0  0  0  0  0  0  0  0
  -24.1177  -17.1469   19.9323 O   0  0  0  0  0  0  0  0  0  0  0  0
  -23.9409  -18.0455   20.1305 H   0  0  0  0  0  0  0  0  0  0  0  0
  7  9  2  0  0  0
  8  9  1  0  0  0
 11 12  2  0  0  0
 11 13  1  0  0  0
 11  2  1  0  0  0
  9  3  1  0  0  0
  1  2  2  0  0  0
  1  6  1  0  0  0
  2  3  1  0  0  0
  3  4  2  0  0  0
  4  5  1  0  0  0
  5  6  2  0  0  0
  8 10  1  0  0  0
 13 14  1  0  0  0
M  END
> <minimizedAffinity>
-5.88135

$$$$
3C2R_PHT_A_300


 14 14  0  0  0  0  0  0  0  0999 V2000
  -22.6046  -17.2289   24.1924 C   0  0  0  0  0  0  0  0  0  0  0  0
  -23.9418  -17.1595   23.8124 C   0  0  0  0  0  0  0  0  0  0  0  0
  -24.3401  -16.2279   22.8540 C   0  0  0  0  0  0  0  0  0  0  0  0
  -23.3991  -15.3701   22.2915 C   0  0  0  0  0  0  0  0  0  0  0  0
  -22.0616  -15.4390   22.6748 C   0  0  0  0  0  0  0  0  0  0  0  0
  -21.6638  -16.3717   23.6267 C   0  0  0  0  0  0  0  0  0  0  0  0
  -26.5171  -15.2514   22.7403 O   0  0  0  0  0  0  0  0  0  0  0  0
  -26.1451  -17.0493   21.5188 O   0  0  0  0  0  0  0  0  0  0  0  0
  -25.7804  -16.1773   22.3361 C   0  0  0  0  0  0  0  0  0  0  0  0
  -25.5480  -17.7203   21.2520 H   0  0  0  0  0  0  0  0  0  0  0  0
  -24.9578  -18.0587   24.5243 C   0  0  0  0  0  0  0  0  0  0  0  0
  -25.6608  -18.8235   23.8285 O   0  0  0  0  0  0  0  0  0  0  0  0
  -25.0021  -18.0142   25.7721 O   0  0  0  0  0  0  0  0  0  0  0  0
  -24.4497  -17.4189   26.2395 H   0  0  0  0  0  0  0  0  0  0  0  0
  7  9  2  0  0  0
  8  9  1  0  0  0
 11 12  2  0  0  0
 11 13  1  0  0  0
 11  2  1  0  0  0
  9  3  1  0  0  0
  1  2  2  0  0  0
  1  6  1  0  0  0
  2  3  1  0  0  0
  3  4  2  0  0  0
  4  5  1  0  0  0
  5  6  2  0  0  0
  8 10  1  0  0  0
 13 14  1  0  0  0
M  END
> <minimizedAffinity>
-5.80252

$$$$
3C2R_PHT_A_300


 14 14  0  0  0  0  0  0  0  0999 V2000
  -23.3253  -15.4334   22.1768 C   0  0  0  0  0  0  0  0  0  0  0  0
  -24.2642  -16.2453   22.8065 C   0  0  0  0  0  0  0  0  0  0  0  0
  -23.8553  -17.1254   23.8082 C   0  0  0  0  0  0  0  0  0  0  0  0
  -22.5112  -17.1902   24.1643 C   0  0  0  0  0  0  0  0  0  0  0  0
  -21.5723  -16.3789   23.5313 C   0  0  0  0  0  0  0  0  0  0  0  0
  -21.9812  -15.4976   22.5361 C   0  0  0  0  0  0  0  0  0  0  0  0
  -25.6654  -18.6779   23.9467 O   0  0  0  0  0  0  0  0  0  0  0  0
  -24.8232  -17.9277   25.8417 O   0  0  0  0  0  0  0  0  0  0  0  0
  -24.8633  -17.9695   24.5934 C   0  0  0  0  0  0  0  0  0  0  0  0
  -24.1993  -17.3770   26.2722 H   0  0  0  0  0  0  0  0  0  0  0  0
  -25.7163  -16.2077   22.3190 C   0  0  0  0  0  0  0  0  0  0  0  0
  -26.4487  -15.2741   22.7132 O   0  0  0  0  0  0  0  0  0  0  0  0
  -26.0842  -17.0899   21.5146 O   0  0  0  0  0  0  0  0  0  0  0  0
  -25.4889  -17.7657   21.2558 H   0  0  0  0  0  0  0  0  0  0  0  0
  7  9  2  0  0  0
  8  9  1  0  0  0
 11 12  2  0  0  0
 11 13  1  0  0  0
 11  2  1  0  0  0
  9  3  1  0  0  0
  1  2  2  0  0  0
  1  6  1  0  0  0
  2  3  1  0  0  0
  3  4  2  0  0  0
  4  5  1  0  0  0
  5  6  2  0  0  0
  8 10  1  0  0  0
 13 14  1  0  0  0
M  END
> <minimizedAffinity>
-5.75980

$$$$
3C2R_PHT_A_300


 14 14  0  0  0  0  0  0  0  0999 V2000
  -24.2655  -16.2015   21.1683 C   0  0  0  0  0  0  0  0  0  0  0  0
  -23.0509  -16.1670   21.8470 C   0  0  0  0  0  0  0  0  0  0  0  0
  -22.9737  -16.6565   23.1507 C   0  0  0  0  0  0  0  0  0  0  0  0
  -24.1134  -17.1679   23.7650 C   0  0  0  0  0  0  0  0  0  0  0  0
  -25.3290  -17.1993   23.0854 C   0  0  0  0  0  0  0  0  0  0  0  0
  -25.4043  -16.7159   21.7835 C   0  0  0  0  0  0  0  0  0  0  0  0
  -21.6686  -16.6625   25.1512 O   0  0  0  0  0  0  0  0  0  0  0  0
  -20.5936  -16.8643   23.2364 O   0  0  0  0  0  0  0  0  0  0  0  0
  -21.6416  -16.7260   23.9028 C   0  0  0  0  0  0  0  0  0  0  0  0
  -20.6351  -16.9056   22.3013 H   0  0  0  0  0  0  0  0  0  0  0  0
  -21.8448  -15.5111   21.1665 C   0  0  0  0  0  0  0  0  0  0  0  0
  -21.5134  -14.3615   21.5296 O   0  0  0  0  0  0  0  0  0  0  0  0
  -21.2244  -16.1777   20.3112 O   0  0  0  0  0  0  0  0  0  0  0  0
  -21.5216  -17.0356   20.0798 H   0  0  0  0  0  0  0  0  0  0  0  0
  7  9  2  0  0  0
  8  9  1  0  0  0
 11 12  2  0  0  0
 11 13  1  0  0  0
 11  2  1  0  0  0
  9  3  1  0  0  0
  1  2  2  0  0  0
  1  6  1  0  0  0
  2  3  1  0  0  0
  3  4  2  0  0  0
  4  5  1  0  0  0
  5  6  2  0  0  0
  8 10  1  0  0  0
 13 14  1  0  0  0
M  END
> <minimizedAffinity>
-5.61502

$$$$
3C2R_PHT_A_300


 14 14  0  0  0  0  0  0  0  0999 V2000
  -23.4262  -17.1909   21.1297 C   0  0  0  0  0  0  0  0  0  0  0  0
  -23.1323  -17.0471   22.4825 C   0  0  0  0  0  0  0  0  0  0  0  0
  -23.9132  -17.7044   23.4329 C   0  0  0  0  0  0  0  0  0  0  0  0
  -24.9847  -18.4920   23.0213 C   0  0  0  0  0  0  0  0  0  0  0  0
  -25.2793  -18.6328   21.6671 C   0  0  0  0  0  0  0  0  0  0  0  0
  -24.4970  -17.9815   20.7194 C   0  0  0  0  0  0  0  0  0  0  0  0
  -22.3807  -17.4539   25.2479 O   0  0  0  0  0  0  0  0  0  0  0  0
  -24.5021  -17.7884   25.7484 O   0  0  0  0  0  0  0  0  0  0  0  0
  -23.5721  -17.6522   24.9249 C   0  0  0  0  0  0  0  0  0  0  0  0
  -25.3771  -17.9351   25.4470 H   0  0  0  0  0  0  0  0  0  0  0  0
  -22.0026  -16.0974   22.8943 C   0  0  0  0  0  0  0  0  0  0  0  0
  -20.8223  -16.4693   22.7157 O   0  0  0  0  0  0  0  0  0  0  0  0
  -22.3190  -14.9774   23.3486 O   0  0  0  0  0  0  0  0  0  0  0  0
  -23.2224  -14.7554   23.4603 H   0  0  0  0  0  0  0  0  0  0  0  0
  7  9  2  0  0  0
  8  9  1  0  0  0
 11 12  2  0  0  0
 11 13  1  0  0  0
 11  2  1  0  0  0
  9  3  1  0  0  0
  1  2  2  0  0  0
  1  6  1  0  0  0
  2  3  1  0  0  0
  3  4  2  0  0  0
  4  5  1  0  0  0
  5  6  2  0  0  0
  8 10  1  0  0  0
 13 14  1  0  0  0
M  END
> <minimizedAffinity>
-5.20295

$$$$
3C2R_PHT_A_300


 14 14  0  0  0  0  0  0  0  0999 V2000
  -24.5090  -16.5910   19.8638 C   0  0  0  0  0  0  0  0  0  0  0  0
  -23.5433  -15.9866   20.6634 C   0  0  0  0  0  0  0  0  0  0  0  0
  -23.9185  -15.3849   21.8643 C   0  0  0  0  0  0  0  0  0  0  0  0
  -25.2562  -15.3868   22.2495 C   0  0  0  0  0  0  0  0  0  0  0  0
  -26.2220  -15.9898   21.4469 C   0  0  0  0  0  0  0  0  0  0  0  0
  -25.8467  -16.5943   20.2520 C   0  0  0  0  0  0  0  0  0  0  0  0
  -22.3558  -15.5511   23.6632 O   0  0  0  0  0  0  0  0  0  0  0  0
  -22.5921  -13.5808   22.7017 O   0  0  0  0  0  0  0  0  0  0  0  0
  -22.8809  -14.7906   22.8211 C   0  0  0  0  0  0  0  0  0  0  0  0
  -23.0194  -13.0591   22.0511 H   0  0  0  0  0  0  0  0  0  0  0  0
  -22.0987  -15.9269   20.1563 C   0  0  0  0  0  0  0  0  0  0  0  0
  -21.5775  -14.8034   19.9853 O   0  0  0  0  0  0  0  0  0  0  0  0
  -21.4975  -17.0079   19.9806 O   0  0  0  0  0  0  0  0  0  0  0  0
  -21.9419  -17.8200   20.1251 H   0  0  0  0  0  0  0  0  0  0  0  0
  7  9  2  0  0  0
  8  9  1  0  0  0
 11 12  2  0  0  0
 11 13  1  0  0  0
 11  2  1  0  0  0
  9  3  1  0  0  0
  1  2  2  0  0  0
  1  6  1  0  0  0
  2  3  1  0  0  0
  3  4  2  0  0  0
  4  5  1  0  0  0
  5  6  2  0  0  0
  8 10  1  0  0  0
 13 14  1  0  0  0
M  END
> <minimizedAffinity>
-5.14015

$$$$
3C2R_PHT_A_300


 14 14  0  0  0  0  0  0  0  0999 V2000
  -24.1238  -15.9451   22.4971 C   0  0  0  0  0  0  0  0  0  0  0  0
  -23.0724  -15.8306   21.5923 C   0  0  0  0  0  0  0  0  0  0  0  0
  -23.2815  -16.1366   20.2478 C   0  0  0  0  0  0  0  0  0  0  0  0
  -24.5374  -16.5614   19.8234 C   0  0  0  0  0  0  0  0  0  0  0  0
  -25.5880  -16.6781   20.7305 C   0  0  0  0  0  0  0  0  0  0  0  0
  -25.3804  -16.3678   22.0703 C   0  0  0  0  0  0  0  0  0  0  0  0
  -21.3086  -16.8237   19.0897 O   0  0  0  0  0  0  0  0  0  0  0  0
  -22.2225  -14.9080   18.4915 O   0  0  0  0  0  0  0  0  0  0  0  0
  -22.1826  -15.9363   19.2003 C   0  0  0  0  0  0  0  0  0  0  0  0
  -22.9026  -14.2764   18.6202 H   0  0  0  0  0  0  0  0  0  0  0  0
  -21.6851  -15.4492   22.1191 C   0  0  0  0  0  0  0  0  0  0  0  0
  -20.9487  -16.3586   22.5595 O   0  0  0  0  0  0  0  0  0  0  0  0
  -21.3412  -14.2506   22.0412 O   0  0  0  0  0  0  0  0  0  0  0  0
  -21.9381  -13.6131   21.7017 H   0  0  0  0  0  0  0  0  0  0  0  0
  7  9  2  0  0  0
  8  9  1  0  0  0
 11 12  2  0  0  0
 11 13  1  0  0  0
 11  2  1  0  0  0
  9  3  1  0  0  0
  1  2  2  0  0  0
  1  6  1  0  0  0
  2  3  1  0  0  0
  3  4  2  0  0  0
  4  5  1  0  0  0
  5  6  2  0  0  0
  8 10  1  0  0  0
 13 14  1  0  0  0
M  END
> <minimizedAffinity>
-5.10168

$$$$
