4BUP_SAM_A_500


 33 35  0  0  0  0  0  0  0  0999 V2000
    6.5772   49.0386    6.4606 C   0  0  0  0  0  0  0  0  0  0  0  0
    7.6241   49.3906    7.3482 O   0  0  0  0  0  0  0  0  0  0  0  0
    7.1319   49.2598    5.0559 C   0  0  0  0  0  0  0  0  0  0  0  0
    6.1623   49.6480    4.1285 O   0  0  0  0  0  0  0  0  0  0  0  0
    8.0735   50.4046    5.2969 C   0  0  0  0  0  0  0  0  0  0  0  0
    7.3421   51.5777    5.5172 O   0  0  0  0  0  0  0  0  0  0  0  0
    8.6785   49.9787    6.6162 C   0  0  0  0  0  0  0  0  0  0  0  0
    5.7252   50.4571    4.4373 H   0  0  0  0  0  0  0  0  0  0  0  0
    6.7089   51.4334    6.2378 H   0  0  0  0  0  0  0  0  0  0  0  0
    9.6463   48.9058    6.3462 N   0  0  0  0  0  0  0  0  0  0  0  0
    9.6449   47.6537    6.9071 C   0  0  0  0  0  0  0  0  0  0  0  0
   10.6840   46.9357    6.3985 N   0  0  0  0  0  0  0  0  0  0  0  0
   11.3422   47.7100    5.5082 C   0  0  0  0  0  0  0  0  0  0  0  0
   12.4558   47.4898    4.7077 C   0  0  0  0  0  0  0  0  0  0  0  0
   13.1160   46.3398    4.7105 N   0  0  0  0  0  0  0  0  0  0  0  0
   12.8863   48.4936    3.8739 N   0  0  0  0  0  0  0  0  0  0  0  0
   12.2353   49.7122    3.8397 C   0  0  0  0  0  0  0  0  0  0  0  0
   11.1401   49.9245    4.6319 N   0  0  0  0  0  0  0  0  0  0  0  0
   10.6932   48.9512    5.4575 C   0  0  0  0  0  0  0  0  0  0  0  0
   12.8253   45.6067    5.2999 H   0  0  0  0  0  0  0  0  0  0  0  0
   13.8969   46.2190    4.1232 H   0  0  0  0  0  0  0  0  0  0  0  0
    6.1017   47.6100    6.7261 C   0  0  0  0  0  0  0  0  0  0  0  0
    4.8520   47.4845    8.0408 S   0  0  0  0  0  0  0  0  0  0  0  0
    4.0485   45.9459    7.4867 C   0  0  0  0  0  0  0  0  0  0  0  0
    5.8918   46.9147    9.4172 C   0  0  0  0  0  0  0  0  0  0  0  0
    5.7302   47.8193   10.6392 C   0  0  0  0  0  0  0  0  0  0  0  0
    7.5869   49.4393   10.6516 N   0  0  0  0  0  0  0  0  0  0  0  0
    6.1545   49.2657   10.4127 C   0  0  0  0  0  0  0  0  0  0  0  0
    7.8423   50.4140   10.4932 H   0  0  0  0  0  0  0  0  0  0  0  0
    8.1128   48.8419   10.0137 H   0  0  0  0  0  0  0  0  0  0  0  0
    5.4055   50.1732   11.3743 C   0  0  0  0  0  0  0  0  0  0  0  0
    4.6524   51.0437   10.9256 O   0  0  0  0  0  0  0  0  0  0  0  0
    5.5492   50.0586   12.5976 O   0  0  0  0  0  0  0  0  0  0  0  0
 27 28  1  0  0  0
 28 31  1  0  0  0
 28 26  1  0  0  0
 31 32  2  0  0  0
 31 33  1  0  0  0
 26 25  1  0  0  0
 25 23  1  0  0  0
 23 24  1  0  0  0
 23 22  1  0  0  0
 22  1  1  0  0  0
  1  2  1  0  0  0
  1  3  1  0  0  0
  2  7  1  0  0  0
  3  4  1  0  0  0
  3  5  1  0  0  0
  5  6  1  0  0  0
  5  7  1  0  0  0
  7 10  1  0  0  0
 10 11  1  0  0  0
 10 19  1  0  0  0
 11 12  2  0  0  0
 12 13  1  0  0  0
 13 14  1  0  0  0
 13 19  2  0  0  0
 14 15  1  0  0  0
 14 16  2  0  0  0
 16 17  1  0  0  0
 17 18  2  0  0  0
 18 19  1  0  0  0
 27 29  1  0  0  0
 27 30  1  0  0  0
  4  8  1  0  0  0
  6  9  1  0  0  0
 15 20  1  0  0  0
 15 21  1  0  0  0
M  CHG 1  23   1
M  CHG 1  33  -1
M  END
> <minimizedAffinity>
-9.82686

$$$$
4BUP_SAM_A_500


 33 35  0  0  0  0  0  0  0  0999 V2000
    6.5871   48.9419    6.6056 C   0  0  0  0  0  0  0  0  0  0  0  0
    7.6664   49.3733    7.4160 O   0  0  0  0  0  0  0  0  0  0  0  0
    7.0600   49.1040    5.1635 C   0  0  0  0  0  0  0  0  0  0  0  0
    6.0309   49.4117    4.2707 O   0  0  0  0  0  0  0  0  0  0  0  0
    7.9740   50.2885    5.2933 C   0  0  0  0  0  0  0  0  0  0  0  0
    7.2161   51.4487    5.4911 O   0  0  0  0  0  0  0  0  0  0  0  0
    8.6609   49.9532    6.5985 C   0  0  0  0  0  0  0  0  0  0  0  0
    5.5836   50.2223    4.5598 H   0  0  0  0  0  0  0  0  0  0  0  0
    6.6265   51.3241    6.2513 H   0  0  0  0  0  0  0  0  0  0  0  0
    9.6488   48.8976    6.3333 N   0  0  0  0  0  0  0  0  0  0  0  0
    9.6744   47.6503    6.9043 C   0  0  0  0  0  0  0  0  0  0  0  0
   10.7256   46.9490    6.3972 N   0  0  0  0  0  0  0  0  0  0  0  0
   11.3648   47.7289    5.4980 C   0  0  0  0  0  0  0  0  0  0  0  0
   12.4794   47.5244    4.6947 C   0  0  0  0  0  0  0  0  0  0  0  0
   13.1624   46.3877    4.7041 N   0  0  0  0  0  0  0  0  0  0  0  0
   12.8865   48.5297    3.8511 N   0  0  0  0  0  0  0  0  0  0  0  0
   12.2113   49.7348    3.8097 C   0  0  0  0  0  0  0  0  0  0  0  0
   11.1153   49.9318    4.6047 N   0  0  0  0  0  0  0  0  0  0  0  0
   10.6910   48.9565    5.4400 C   0  0  0  0  0  0  0  0  0  0  0  0
   12.8886   45.6539    5.3005 H   0  0  0  0  0  0  0  0  0  0  0  0
   13.9431   46.2777    4.1146 H   0  0  0  0  0  0  0  0  0  0  0  0
    6.1743   47.5158    6.9706 C   0  0  0  0  0  0  0  0  0  0  0  0
    5.0351   47.4202    8.3845 S   0  0  0  0  0  0  0  0  0  0  0  0
    4.4966   49.1607    8.3999 C   0  0  0  0  0  0  0  0  0  0  0  0
    3.6275   46.5770    7.6047 C   0  0  0  0  0  0  0  0  0  0  0  0
    4.0678   45.2721    6.9406 C   0  0  0  0  0  0  0  0  0  0  0  0
    4.4638   43.4048    8.4989 N   0  0  0  0  0  0  0  0  0  0  0  0
    3.4979   44.0137    7.5850 C   0  0  0  0  0  0  0  0  0  0  0  0
    4.0570   42.5670    8.9147 H   0  0  0  0  0  0  0  0  0  0  0  0
    4.7005   44.0694    9.2356 H   0  0  0  0  0  0  0  0  0  0  0  0
    3.1654   42.9950    6.5075 C   0  0  0  0  0  0  0  0  0  0  0  0
    2.0216   42.9547    6.0424 O   0  0  0  0  0  0  0  0  0  0  0  0
    4.0209   42.2000    6.0998 O   0  0  0  0  0  0  0  0  0  0  0  0
 27 28  1  0  0  0
 28 31  1  0  0  0
 28 26  1  0  0  0
 31 32  2  0  0  0
 31 33  1  0  0  0
 26 25  1  0  0  0
 25 23  1  0  0  0
 23 24  1  0  0  0
 23 22  1  0  0  0
 22  1  1  0  0  0
  1  2  1  0  0  0
  1  3  1  0  0  0
  2  7  1  0  0  0
  3  4  1  0  0  0
  3  5  1  0  0  0
  5  6  1  0  0  0
  5  7  1  0  0  0
  7 10  1  0  0  0
 10 11  1  0  0  0
 10 19  1  0  0  0
 11 12  2  0  0  0
 12 13  1  0  0  0
 13 14  1  0  0  0
 13 19  2  0  0  0
 14 15  1  0  0  0
 14 16  2  0  0  0
 16 17  1  0  0  0
 17 18  2  0  0  0
 18 19  1  0  0  0
 27 29  1  0  0  0
 27 30  1  0  0  0
  4  8  1  0  0  0
  6  9  1  0  0  0
 15 20  1  0  0  0
 15 21  1  0  0  0
M  CHG 1  23   1
M  CHG 1  33  -1
M  END
> <minimizedAffinity>
-9.23847

$$$$
4BUP_SAM_A_500


 33 35  0  0  0  0  0  0  0  0999 V2000
    6.8590   49.2796    7.2319 C   0  0  0  0  0  0  0  0  0  0  0  0
    8.0886   49.8435    7.6537 O   0  0  0  0  0  0  0  0  0  0  0  0
    6.9829   49.0959    5.7217 C   0  0  0  0  0  0  0  0  0  0  0  0
    5.7701   49.2312    5.0424 O   0  0  0  0  0  0  0  0  0  0  0  0
    7.8810   50.2457    5.3661 C   0  0  0  0  0  0  0  0  0  0  0  0
    7.1689   51.4470    5.4632 O   0  0  0  0  0  0  0  0  0  0  0  0
    8.8568   50.1886    6.5204 C   0  0  0  0  0  0  0  0  0  0  0  0
    5.3874   50.1016    5.2342 H   0  0  0  0  0  0  0  0  0  0  0  0
    6.7733   51.5179    6.3460 H   0  0  0  0  0  0  0  0  0  0  0  0
    9.7752   49.0657    6.2830 N   0  0  0  0  0  0  0  0  0  0  0  0
    9.7361   47.8423    6.9029 C   0  0  0  0  0  0  0  0  0  0  0  0
   10.7346   47.0596    6.4089 N   0  0  0  0  0  0  0  0  0  0  0  0
   11.4038   47.7638    5.4699 C   0  0  0  0  0  0  0  0  0  0  0  0
   12.4902   47.4613    4.6590 C   0  0  0  0  0  0  0  0  0  0  0  0
   13.1041   46.2867    4.7037 N   0  0  0  0  0  0  0  0  0  0  0  0
   12.9421   48.4065    3.7700 N   0  0  0  0  0  0  0  0  0  0  0  0
   12.3395   49.6476    3.6904 C   0  0  0  0  0  0  0  0  0  0  0  0
   11.2710   49.9412    4.4930 N   0  0  0  0  0  0  0  0  0  0  0  0
   10.8036   49.0267    5.3727 C   0  0  0  0  0  0  0  0  0  0  0  0
   12.7973   45.5945    5.3330 H   0  0  0  0  0  0  0  0  0  0  0  0
   13.8668   46.1068    4.1077 H   0  0  0  0  0  0  0  0  0  0  0  0
    6.5670   47.9879    7.9959 C   0  0  0  0  0  0  0  0  0  0  0  0
    5.2961   48.1678    9.2837 S   0  0  0  0  0  0  0  0  0  0  0  0
    6.2851   49.1058   10.4928 C   0  0  0  0  0  0  0  0  0  0  0  0
    4.2606   49.4581    8.5331 C   0  0  0  0  0  0  0  0  0  0  0  0
    4.3076   50.7472    9.3540 C   0  0  0  0  0  0  0  0  0  0  0  0
    4.7268   52.2294    7.4307 N   0  0  0  0  0  0  0  0  0  0  0  0
    3.8718   51.9944    8.5937 C   0  0  0  0  0  0  0  0  0  0  0  0
    4.4131   53.0680    6.9420 H   0  0  0  0  0  0  0  0  0  0  0  0
    4.6723   51.4287    6.8013 H   0  0  0  0  0  0  0  0  0  0  0  0
    3.9737   53.2075    9.5033 C   0  0  0  0  0  0  0  0  0  0  0  0
    3.7786   54.3345    9.0363 O   0  0  0  0  0  0  0  0  0  0  0  0
    4.2602   53.0813   10.7000 O   0  0  0  0  0  0  0  0  0  0  0  0
 27 28  1  0  0  0
 28 31  1  0  0  0
 28 26  1  0  0  0
 31 32  2  0  0  0
 31 33  1  0  0  0
 26 25  1  0  0  0
 25 23  1  0  0  0
 23 24  1  0  0  0
 23 22  1  0  0  0
 22  1  1  0  0  0
  1  2  1  0  0  0
  1  3  1  0  0  0
  2  7  1  0  0  0
  3  4  1  0  0  0
  3  5  1  0  0  0
  5  6  1  0  0  0
  5  7  1  0  0  0
  7 10  1  0  0  0
 10 11  1  0  0  0
 10 19  1  0  0  0
 11 12  2  0  0  0
 12 13  1  0  0  0
 13 14  1  0  0  0
 13 19  2  0  0  0
 14 15  1  0  0  0
 14 16  2  0  0  0
 16 17  1  0  0  0
 17 18  2  0  0  0
 18 19  1  0  0  0
 27 29  1  0  0  0
 27 30  1  0  0  0
  4  8  1  0  0  0
  6  9  1  0  0  0
 15 20  1  0  0  0
 15 21  1  0  0  0
M  CHG 1  23   1
M  CHG 1  33  -1
M  END
> <minimizedAffinity>
-8.51612

$$$$
4BUP_SAM_A_500


 33 35  0  0  0  0  0  0  0  0999 V2000
    7.4696   48.2153    6.3096 C   0  0  0  0  0  0  0  0  0  0  0  0
    7.5755   48.4863    4.9228 O   0  0  0  0  0  0  0  0  0  0  0  0
    7.7772   49.5336    7.0149 C   0  0  0  0  0  0  0  0  0  0  0  0
    8.3945   49.3703    8.2570 O   0  0  0  0  0  0  0  0  0  0  0  0
    8.7523   50.1515    6.0543 C   0  0  0  0  0  0  0  0  0  0  0  0
    9.9780   49.4795    6.1300 O   0  0  0  0  0  0  0  0  0  0  0  0
    8.1005   49.7842    4.7398 C   0  0  0  0  0  0  0  0  0  0  0  0
    9.2128   48.8612    8.1470 H   0  0  0  0  0  0  0  0  0  0  0  0
    9.8358   48.5306    5.9871 H   0  0  0  0  0  0  0  0  0  0  0  0
    6.9481   50.6746    4.5403 N   0  0  0  0  0  0  0  0  0  0  0  0
    6.4787   51.6042    5.4335 C   0  0  0  0  0  0  0  0  0  0  0  0
    5.4096   52.2471    4.8879 N   0  0  0  0  0  0  0  0  0  0  0  0
    5.1981   51.7486    3.6501 C   0  0  0  0  0  0  0  0  0  0  0  0
    4.2610   52.0333    2.6652 C   0  0  0  0  0  0  0  0  0  0  0  0
    3.3176   52.9513    2.8270 N   0  0  0  0  0  0  0  0  0  0  0  0
    4.3157   51.3488    1.4751 N   0  0  0  0  0  0  0  0  0  0  0  0
    5.2763   50.3785    1.2611 C   0  0  0  0  0  0  0  0  0  0  0  0
    6.1957   50.1004    2.2354 N   0  0  0  0  0  0  0  0  0  0  0  0
    6.1667   50.7635    3.4137 C   0  0  0  0  0  0  0  0  0  0  0  0
    3.2596   53.4539    3.6715 H   0  0  0  0  0  0  0  0  0  0  0  0
    2.6753   53.1300    2.1026 H   0  0  0  0  0  0  0  0  0  0  0  0
    6.0951   47.6350    6.6429 C   0  0  0  0  0  0  0  0  0  0  0  0
    5.3132   48.3898    8.1007 S   0  0  0  0  0  0  0  0  0  0  0  0
    3.6244   47.7557    7.8448 C   0  0  0  0  0  0  0  0  0  0  0  0
    5.9517   47.2999    9.4064 C   0  0  0  0  0  0  0  0  0  0  0  0
    5.9526   48.0079   10.7616 C   0  0  0  0  0  0  0  0  0  0  0  0
    7.6708   49.7052   11.2502 N   0  0  0  0  0  0  0  0  0  0  0  0
    6.3334   49.4826   10.7017 C   0  0  0  0  0  0  0  0  0  0  0  0
    7.8990   50.6979   11.1976 H   0  0  0  0  0  0  0  0  0  0  0  0
    8.3524   49.1706   10.7117 H   0  0  0  0  0  0  0  0  0  0  0  0
    5.3483   50.2973   11.5233 C   0  0  0  0  0  0  0  0  0  0  0  0
    4.5547   51.0497   10.9484 O   0  0  0  0  0  0  0  0  0  0  0  0
    5.3391   50.2251   12.7581 O   0  0  0  0  0  0  0  0  0  0  0  0
 27 28  1  0  0  0
 28 31  1  0  0  0
 28 26  1  0  0  0
 31 32  2  0  0  0
 31 33  1  0  0  0
 26 25  1  0  0  0
 25 23  1  0  0  0
 23 24  1  0  0  0
 23 22  1  0  0  0
 22  1  1  0  0  0
  1  2  1  0  0  0
  1  3  1  0  0  0
  2  7  1  0  0  0
  3  4  1  0  0  0
  3  5  1  0  0  0
  5  6  1  0  0  0
  5  7  1  0  0  0
  7 10  1  0  0  0
 10 11  1  0  0  0
 10 19  1  0  0  0
 11 12  2  0  0  0
 12 13  1  0  0  0
 13 14  1  0  0  0
 13 19  2  0  0  0
 14 15  1  0  0  0
 14 16  2  0  0  0
 16 17  1  0  0  0
 17 18  2  0  0  0
 18 19  1  0  0  0
 27 29  1  0  0  0
 27 30  1  0  0  0
  4  8  1  0  0  0
  6  9  1  0  0  0
 15 20  1  0  0  0
 15 21  1  0  0  0
M  CHG 1  23   1
M  CHG 1  33  -1
M  END
> <minimizedAffinity>
-8.26776

$$$$
4BUP_SAM_A_500


 33 35  0  0  0  0  0  0  0  0999 V2000
    7.4535   48.4004    5.9982 C   0  0  0  0  0  0  0  0  0  0  0  0
    7.3347   48.8293    4.6529 O   0  0  0  0  0  0  0  0  0  0  0  0
    7.9834   49.6043    6.7725 C   0  0  0  0  0  0  0  0  0  0  0  0
    8.7949   49.2575    7.8551 O   0  0  0  0  0  0  0  0  0  0  0  0
    8.8198   50.2754    5.7212 C   0  0  0  0  0  0  0  0  0  0  0  0
    9.9828   49.5290    5.4974 O   0  0  0  0  0  0  0  0  0  0  0  0
    7.9199   50.1071    4.5172 C   0  0  0  0  0  0  0  0  0  0  0  0
    9.5383   48.7186    7.5423 H   0  0  0  0  0  0  0  0  0  0  0  0
    9.7434   48.6141    5.2818 H   0  0  0  0  0  0  0  0  0  0  0  0
    6.8243   51.0804    4.6300 N   0  0  0  0  0  0  0  0  0  0  0  0
    6.6023   51.9316    5.6829 C   0  0  0  0  0  0  0  0  0  0  0  0
    5.5050   52.6928    5.4176 N   0  0  0  0  0  0  0  0  0  0  0  0
    5.0303   52.3476    4.2007 C   0  0  0  0  0  0  0  0  0  0  0  0
    3.9530   52.7943    3.4462 C   0  0  0  0  0  0  0  0  0  0  0  0
    3.1310   53.7427    3.8745 N   0  0  0  0  0  0  0  0  0  0  0  0
    3.7333   52.2436    2.2067 N   0  0  0  0  0  0  0  0  0  0  0  0
    4.5585   51.2480    1.7190 C   0  0  0  0  0  0  0  0  0  0  0  0
    5.6170   50.8101    2.4673 N   0  0  0  0  0  0  0  0  0  0  0  0
    5.8581   51.3394    3.6881 C   0  0  0  0  0  0  0  0  0  0  0  0
    3.2694   54.1514    4.7594 H   0  0  0  0  0  0  0  0  0  0  0  0
    2.3823   54.0380    3.3075 H   0  0  0  0  0  0  0  0  0  0  0  0
    6.1176   47.8651    6.5142 C   0  0  0  0  0  0  0  0  0  0  0  0
    5.9394   47.9551    8.3215 S   0  0  0  0  0  0  0  0  0  0  0  0
    4.5321   49.1106    8.3846 C   0  0  0  0  0  0  0  0  0  0  0  0
    5.1497   46.3514    8.6453 C   0  0  0  0  0  0  0  0  0  0  0  0
    4.2429   45.9410    7.4846 C   0  0  0  0  0  0  0  0  0  0  0  0
    4.5080   43.6753    8.4164 N   0  0  0  0  0  0  0  0  0  0  0  0
    3.6473   44.5439    7.6140 C   0  0  0  0  0  0  0  0  0  0  0  0
    4.0861   42.7493    8.4862 H   0  0  0  0  0  0  0  0  0  0  0  0
    4.6150   44.0715    9.3502 H   0  0  0  0  0  0  0  0  0  0  0  0
    3.5064   43.9201    6.2355 C   0  0  0  0  0  0  0  0  0  0  0  0
    2.9618   42.8171    6.1210 O   0  0  0  0  0  0  0  0  0  0  0  0
    3.9396   44.4967    5.2305 O   0  0  0  0  0  0  0  0  0  0  0  0
 27 28  1  0  0  0
 28 31  1  0  0  0
 28 26  1  0  0  0
 31 32  2  0  0  0
 31 33  1  0  0  0
 26 25  1  0  0  0
 25 23  1  0  0  0
 23 24  1  0  0  0
 23 22  1  0  0  0
 22  1  1  0  0  0
  1  2  1  0  0  0
  1  3  1  0  0  0
  2  7  1  0  0  0
  3  4  1  0  0  0
  3  5  1  0  0  0
  5  6  1  0  0  0
  5  7  1  0  0  0
  7 10  1  0  0  0
 10 11  1  0  0  0
 10 19  1  0  0  0
 11 12  2  0  0  0
 12 13  1  0  0  0
 13 14  1  0  0  0
 13 19  2  0  0  0
 14 15  1  0  0  0
 14 16  2  0  0  0
 16 17  1  0  0  0
 17 18  2  0  0  0
 18 19  1  0  0  0
 27 29  1  0  0  0
 27 30  1  0  0  0
  4  8  1  0  0  0
  6  9  1  0  0  0
 15 20  1  0  0  0
 15 21  1  0  0  0
M  CHG 1  23   1
M  CHG 1  33  -1
M  END
> <minimizedAffinity>
-7.53086

$$$$
4BUP_SAM_A_500


 33 35  0  0  0  0  0  0  0  0999 V2000
    4.7707   48.5631    9.1598 C   0  0  0  0  0  0  0  0  0  0  0  0
    4.4282   48.4905    7.7867 O   0  0  0  0  0  0  0  0  0  0  0  0
    6.1441   47.9082    9.2803 C   0  0  0  0  0  0  0  0  0  0  0  0
    6.3491   47.2640   10.5025 O   0  0  0  0  0  0  0  0  0  0  0  0
    6.0693   46.8826    8.1859 C   0  0  0  0  0  0  0  0  0  0  0  0
    5.2099   45.8463    8.5696 O   0  0  0  0  0  0  0  0  0  0  0  0
    5.3748   47.6895    7.1115 C   0  0  0  0  0  0  0  0  0  0  0  0
    5.6575   46.5972   10.6365 H   0  0  0  0  0  0  0  0  0  0  0  0
    4.3485   46.2162    8.8188 H   0  0  0  0  0  0  0  0  0  0  0  0
    6.3598   48.6119    6.5288 N   0  0  0  0  0  0  0  0  0  0  0  0
    6.1122   49.8858    6.0836 C   0  0  0  0  0  0  0  0  0  0  0  0
    7.2731   50.4331    5.6291 N   0  0  0  0  0  0  0  0  0  0  0  0
    8.2634   49.5285    5.7911 C   0  0  0  0  0  0  0  0  0  0  0  0
    9.6227   49.5558    5.5062 C   0  0  0  0  0  0  0  0  0  0  0  0
   10.2125   50.6104    4.9598 N   0  0  0  0  0  0  0  0  0  0  0  0
   10.3893   48.4564    5.8089 N   0  0  0  0  0  0  0  0  0  0  0  0
    9.8197   47.3309    6.3734 C   0  0  0  0  0  0  0  0  0  0  0  0
    8.4799   47.3086    6.6500 N   0  0  0  0  0  0  0  0  0  0  0  0
    7.7042   48.3794    6.3665 C   0  0  0  0  0  0  0  0  0  0  0  0
    9.6827   51.4090    4.7346 H   0  0  0  0  0  0  0  0  0  0  0  0
   11.1802   50.5946    4.7794 H   0  0  0  0  0  0  0  0  0  0  0  0
    4.7235   50.0097    9.6523 C   0  0  0  0  0  0  0  0  0  0  0  0
    4.7787   50.1712   11.4625 S   0  0  0  0  0  0  0  0  0  0  0  0
    6.5826   50.0336   11.6788 C   0  0  0  0  0  0  0  0  0  0  0  0
    4.4946   51.9575   11.6330 C   0  0  0  0  0  0  0  0  0  0  0  0
    4.1690   52.5937   10.2813 C   0  0  0  0  0  0  0  0  0  0  0  0
    3.5704   54.5820   11.6079 N   0  0  0  0  0  0  0  0  0  0  0  0
    4.0576   54.1136   10.3109 C   0  0  0  0  0  0  0  0  0  0  0  0
    3.5058   55.5999   11.5994 H   0  0  0  0  0  0  0  0  0  0  0  0
    4.2170   54.2885   12.3402 H   0  0  0  0  0  0  0  0  0  0  0  0
    3.0747   54.5735    9.2471 C   0  0  0  0  0  0  0  0  0  0  0  0
    3.2067   54.1742    8.0854 O   0  0  0  0  0  0  0  0  0  0  0  0
    2.1535   55.3500    9.5271 O   0  0  0  0  0  0  0  0  0  0  0  0
 27 28  1  0  0  0
 28 31  1  0  0  0
 28 26  1  0  0  0
 31 32  2  0  0  0
 31 33  1  0  0  0
 26 25  1  0  0  0
 25 23  1  0  0  0
 23 24  1  0  0  0
 23 22  1  0  0  0
 22  1  1  0  0  0
  1  2  1  0  0  0
  1  3  1  0  0  0
  2  7  1  0  0  0
  3  4  1  0  0  0
  3  5  1  0  0  0
  5  6  1  0  0  0
  5  7  1  0  0  0
  7 10  1  0  0  0
 10 11  1  0  0  0
 10 19  1  0  0  0
 11 12  2  0  0  0
 12 13  1  0  0  0
 13 14  1  0  0  0
 13 19  2  0  0  0
 14 15  1  0  0  0
 14 16  2  0  0  0
 16 17  1  0  0  0
 17 18  2  0  0  0
 18 19  1  0  0  0
 27 29  1  0  0  0
 27 30  1  0  0  0
  4  8  1  0  0  0
  6  9  1  0  0  0
 15 20  1  0  0  0
 15 21  1  0  0  0
M  CHG 1  23   1
M  CHG 1  33  -1
M  END
> <minimizedAffinity>
-7.38926

$$$$
4BUP_SAM_A_500


 33 35  0  0  0  0  0  0  0  0999 V2000
    5.7236   52.5828    1.9654 C   0  0  0  0  0  0  0  0  0  0  0  0
    7.0159   52.0133    2.0815 O   0  0  0  0  0  0  0  0  0  0  0  0
    4.7515   51.4061    1.9457 C   0  0  0  0  0  0  0  0  0  0  0  0
    3.6073   51.6412    1.1801 O   0  0  0  0  0  0  0  0  0  0  0  0
    5.5885   50.3545    1.2758 C   0  0  0  0  0  0  0  0  0  0  0  0
    5.7214   50.6547   -0.0850 O   0  0  0  0  0  0  0  0  0  0  0  0
    6.9222   50.6114    1.9414 C   0  0  0  0  0  0  0  0  0  0  0  0
    3.8659   51.8653    0.2725 H   0  0  0  0  0  0  0  0  0  0  0  0
    6.0697   51.5545   -0.1852 H   0  0  0  0  0  0  0  0  0  0  0  0
    6.8634   50.0605    3.3030 N   0  0  0  0  0  0  0  0  0  0  0  0
    5.7920   49.4192    3.8716 C   0  0  0  0  0  0  0  0  0  0  0  0
    6.1208   49.0369    5.1364 N   0  0  0  0  0  0  0  0  0  0  0  0
    7.3952   49.4145    5.3785 C   0  0  0  0  0  0  0  0  0  0  0  0
    8.2254   49.2810    6.4842 C   0  0  0  0  0  0  0  0  0  0  0  0
    7.8279   48.6910    7.6033 N   0  0  0  0  0  0  0  0  0  0  0  0
    9.5087   49.7674    6.4167 N   0  0  0  0  0  0  0  0  0  0  0  0
    9.9675   50.3959    5.2747 C   0  0  0  0  0  0  0  0  0  0  0  0
    9.1449   50.5266    4.1891 N   0  0  0  0  0  0  0  0  0  0  0  0
    7.8792   50.0520    4.2280 C   0  0  0  0  0  0  0  0  0  0  0  0
    6.9127   48.3352    7.6739 H   0  0  0  0  0  0  0  0  0  0  0  0
    8.4480   48.6089    8.3636 H   0  0  0  0  0  0  0  0  0  0  0  0
    5.4707   53.5825    3.0941 C   0  0  0  0  0  0  0  0  0  0  0  0
    4.4622   52.9165    4.4526 S   0  0  0  0  0  0  0  0  0  0  0  0
    5.7924   52.6988    5.6785 C   0  0  0  0  0  0  0  0  0  0  0  0
    3.6457   54.4370    5.0200 C   0  0  0  0  0  0  0  0  0  0  0  0
    3.9125   54.6826    6.5054 C   0  0  0  0  0  0  0  0  0  0  0  0
    2.0438   55.0859    8.0601 N   0  0  0  0  0  0  0  0  0  0  0  0
    2.8831   54.0602    7.4416 C   0  0  0  0  0  0  0  0  0  0  0  0
    1.3659   54.6423    8.6799 H   0  0  0  0  0  0  0  0  0  0  0  0
    1.5513   55.6057    7.3338 H   0  0  0  0  0  0  0  0  0  0  0  0
    3.5946   53.3046    8.5516 C   0  0  0  0  0  0  0  0  0  0  0  0
    4.1328   53.9356    9.4672 O   0  0  0  0  0  0  0  0  0  0  0  0
    3.6512   52.0690    8.5432 O   0  0  0  0  0  0  0  0  0  0  0  0
 27 28  1  0  0  0
 28 31  1  0  0  0
 28 26  1  0  0  0
 31 32  2  0  0  0
 31 33  1  0  0  0
 26 25  1  0  0  0
 25 23  1  0  0  0
 23 24  1  0  0  0
 23 22  1  0  0  0
 22  1  1  0  0  0
  1  2  1  0  0  0
  1  3  1  0  0  0
  2  7  1  0  0  0
  3  4  1  0  0  0
  3  5  1  0  0  0
  5  6  1  0  0  0
  5  7  1  0  0  0
  7 10  1  0  0  0
 10 11  1  0  0  0
 10 19  1  0  0  0
 11 12  2  0  0  0
 12 13  1  0  0  0
 13 14  1  0  0  0
 13 19  2  0  0  0
 14 15  1  0  0  0
 14 16  2  0  0  0
 16 17  1  0  0  0
 17 18  2  0  0  0
 18 19  1  0  0  0
 27 29  1  0  0  0
 27 30  1  0  0  0
  4  8  1  0  0  0
  6  9  1  0  0  0
 15 20  1  0  0  0
 15 21  1  0  0  0
M  CHG 1  23   1
M  CHG 1  33  -1
M  END
> <minimizedAffinity>
-7.34297

$$$$
4BUP_SAM_A_500


 33 35  0  0  0  0  0  0  0  0999 V2000
    6.2790   48.4867    7.4841 C   0  0  0  0  0  0  0  0  0  0  0  0
    6.0536   48.2458    6.1060 O   0  0  0  0  0  0  0  0  0  0  0  0
    7.4388   49.4769    7.5481 C   0  0  0  0  0  0  0  0  0  0  0  0
    8.2439   49.3199    8.6786 O   0  0  0  0  0  0  0  0  0  0  0  0
    8.2185   49.0842    6.3262 C   0  0  0  0  0  0  0  0  0  0  0  0
    8.8589   47.8596    6.5496 O   0  0  0  0  0  0  0  0  0  0  0  0
    7.0857   48.8462    5.3525 C   0  0  0  0  0  0  0  0  0  0  0  0
    8.5877   48.4134    8.7074 H   0  0  0  0  0  0  0  0  0  0  0  0
    8.2050   47.1984    6.8258 H   0  0  0  0  0  0  0  0  0  0  0  0
    6.5769   50.1555    4.9196 N   0  0  0  0  0  0  0  0  0  0  0  0
    6.7915   51.3560    5.5482 C   0  0  0  0  0  0  0  0  0  0  0  0
    6.1777   52.3453    4.8422 N   0  0  0  0  0  0  0  0  0  0  0  0
    5.5842   51.7930    3.7614 C   0  0  0  0  0  0  0  0  0  0  0  0
    4.8353   52.3262    2.7201 C   0  0  0  0  0  0  0  0  0  0  0  0
    4.5595   53.6205    2.6343 N   0  0  0  0  0  0  0  0  0  0  0  0
    4.3701   51.4876    1.7361 N   0  0  0  0  0  0  0  0  0  0  0  0
    4.6259   50.1304    1.7845 C   0  0  0  0  0  0  0  0  0  0  0  0
    5.3623   49.6100    2.8136 N   0  0  0  0  0  0  0  0  0  0  0  0
    5.8360   50.4145    3.7919 C   0  0  0  0  0  0  0  0  0  0  0  0
    4.8827   54.2398    3.3280 H   0  0  0  0  0  0  0  0  0  0  0  0
    4.0315   53.9621    1.8768 H   0  0  0  0  0  0  0  0  0  0  0  0
    5.0002   48.9784    8.1625 C   0  0  0  0  0  0  0  0  0  0  0  0
    4.7501   48.3058    9.8332 S   0  0  0  0  0  0  0  0  0  0  0  0
    6.1775   47.1741    9.8718 C   0  0  0  0  0  0  0  0  0  0  0  0
    5.3294   49.7080   10.8325 C   0  0  0  0  0  0  0  0  0  0  0  0
    4.6937   51.0171   10.3633 C   0  0  0  0  0  0  0  0  0  0  0  0
    3.9349   51.7565   12.5880 N   0  0  0  0  0  0  0  0  0  0  0  0
    4.7059   52.1315   11.4031 C   0  0  0  0  0  0  0  0  0  0  0  0
    3.9602   52.5187   13.2653 H   0  0  0  0  0  0  0  0  0  0  0  0
    4.3386   50.9176   13.0048 H   0  0  0  0  0  0  0  0  0  0  0  0
    4.0805   53.3850   10.8143 C   0  0  0  0  0  0  0  0  0  0  0  0
    3.5837   54.2276   11.5689 O   0  0  0  0  0  0  0  0  0  0  0  0
    4.0526   53.5660    9.5909 O   0  0  0  0  0  0  0  0  0  0  0  0
 27 28  1  0  0  0
 28 31  1  0  0  0
 28 26  1  0  0  0
 31 32  2  0  0  0
 31 33  1  0  0  0
 26 25  1  0  0  0
 25 23  1  0  0  0
 23 24  1  0  0  0
 23 22  1  0  0  0
 22  1  1  0  0  0
  1  2  1  0  0  0
  1  3  1  0  0  0
  2  7  1  0  0  0
  3  4  1  0  0  0
  3  5  1  0  0  0
  5  6  1  0  0  0
  5  7  1  0  0  0
  7 10  1  0  0  0
 10 11  1  0  0  0
 10 19  1  0  0  0
 11 12  2  0  0  0
 12 13  1  0  0  0
 13 14  1  0  0  0
 13 19  2  0  0  0
 14 15  1  0  0  0
 14 16  2  0  0  0
 16 17  1  0  0  0
 17 18  2  0  0  0
 18 19  1  0  0  0
 27 29  1  0  0  0
 27 30  1  0  0  0
  4  8  1  0  0  0
  6  9  1  0  0  0
 15 20  1  0  0  0
 15 21  1  0  0  0
M  CHG 1  23   1
M  CHG 1  33  -1
M  END
> <minimizedAffinity>
-7.20360

$$$$
4BUP_SAM_A_500


 33 35  0  0  0  0  0  0  0  0999 V2000
    7.2516   48.1999    7.3850 C   0  0  0  0  0  0  0  0  0  0  0  0
    7.0940   47.3684    8.5216 O   0  0  0  0  0  0  0  0  0  0  0  0
    5.9019   48.8826    7.1798 C   0  0  0  0  0  0  0  0  0  0  0  0
    5.6122   49.1534    5.8406 O   0  0  0  0  0  0  0  0  0  0  0  0
    4.9653   47.8232    7.6851 C   0  0  0  0  0  0  0  0  0  0  0  0
    4.9086   46.7679    6.7670 O   0  0  0  0  0  0  0  0  0  0  0  0
    5.7332   47.3447    8.8972 C   0  0  0  0  0  0  0  0  0  0  0  0
    5.6409   48.3289    5.3305 H   0  0  0  0  0  0  0  0  0  0  0  0
    5.8059   46.4448    6.5899 H   0  0  0  0  0  0  0  0  0  0  0  0
    5.5772   48.3493    9.9588 N   0  0  0  0  0  0  0  0  0  0  0  0
    6.0380   48.2448   11.2469 C   0  0  0  0  0  0  0  0  0  0  0  0
    5.7188   49.3795   11.9284 N   0  0  0  0  0  0  0  0  0  0  0  0
    5.0708   50.2146   11.0869 C   0  0  0  0  0  0  0  0  0  0  0  0
    4.5299   51.4839   11.2475 C   0  0  0  0  0  0  0  0  0  0  0  0
    4.5771   52.1348   12.4019 N   0  0  0  0  0  0  0  0  0  0  0  0
    3.9324   52.0948   10.1715 N   0  0  0  0  0  0  0  0  0  0  0  0
    3.8528   51.4547    8.9494 C   0  0  0  0  0  0  0  0  0  0  0  0
    4.3853   50.2035    8.7972 N   0  0  0  0  0  0  0  0  0  0  0  0
    4.9832   49.5824    9.8390 C   0  0  0  0  0  0  0  0  0  0  0  0
    5.0004   51.7163   13.1860 H   0  0  0  0  0  0  0  0  0  0  0  0
    4.1889   53.0366   12.4747 H   0  0  0  0  0  0  0  0  0  0  0  0
    8.4177   49.1687    7.5822 C   0  0  0  0  0  0  0  0  0  0  0  0
    9.6895   49.0601    6.2873 S   0  0  0  0  0  0  0  0  0  0  0  0
    9.3997   47.3327    5.7855 C   0  0  0  0  0  0  0  0  0  0  0  0
    8.8770   49.9993    4.9614 C   0  0  0  0  0  0  0  0  0  0  0  0
    9.8594   50.3221    3.8351 C   0  0  0  0  0  0  0  0  0  0  0  0
   11.5709   52.0841    4.0296 N   0  0  0  0  0  0  0  0  0  0  0  0
   11.2634   50.6816    4.3075 C   0  0  0  0  0  0  0  0  0  0  0  0
   12.5139   52.2964    4.3553 H   0  0  0  0  0  0  0  0  0  0  0  0
   10.9012   52.6815    4.5143 H   0  0  0  0  0  0  0  0  0  0  0  0
   12.2825   49.8242    3.5757 C   0  0  0  0  0  0  0  0  0  0  0  0
   12.6395   50.1444    2.4371 O   0  0  0  0  0  0  0  0  0  0  0  0
   12.7492   48.8059    4.1004 O   0  0  0  0  0  0  0  0  0  0  0  0
 27 28  1  0  0  0
 28 31  1  0  0  0
 28 26  1  0  0  0
 31 32  2  0  0  0
 31 33  1  0  0  0
 26 25  1  0  0  0
 25 23  1  0  0  0
 23 24  1  0  0  0
 23 22  1  0  0  0
 22  1  1  0  0  0
  1  2  1  0  0  0
  1  3  1  0  0  0
  2  7  1  0  0  0
  3  4  1  0  0  0
  3  5  1  0  0  0
  5  6  1  0  0  0
  5  7  1  0  0  0
  7 10  1  0  0  0
 10 11  1  0  0  0
 10 19  1  0  0  0
 11 12  2  0  0  0
 12 13  1  0  0  0
 13 14  1  0  0  0
 13 19  2  0  0  0
 14 15  1  0  0  0
 14 16  2  0  0  0
 16 17  1  0  0  0
 17 18  2  0  0  0
 18 19  1  0  0  0
 27 29  1  0  0  0
 27 30  1  0  0  0
  4  8  1  0  0  0
  6  9  1  0  0  0
 15 20  1  0  0  0
 15 21  1  0  0  0
M  CHG 1  23   1
M  CHG 1  33  -1
M  END
> <minimizedAffinity>
-7.12308

$$$$
4BUP_SAM_A_500


 33 35  0  0  0  0  0  0  0  0999 V2000
    7.1602   48.2704    7.4110 C   0  0  0  0  0  0  0  0  0  0  0  0
    6.6113   47.9567    8.6792 O   0  0  0  0  0  0  0  0  0  0  0  0
    5.9886   48.7512    6.5589 C   0  0  0  0  0  0  0  0  0  0  0  0
    6.1258   48.4501    5.2020 O   0  0  0  0  0  0  0  0  0  0  0  0
    4.8637   47.9404    7.1353 C   0  0  0  0  0  0  0  0  0  0  0  0
    4.9939   46.6046    6.7372 O   0  0  0  0  0  0  0  0  0  0  0  0
    5.2027   48.0225    8.6070 C   0  0  0  0  0  0  0  0  0  0  0  0
    6.2365   47.4926    5.0929 H   0  0  0  0  0  0  0  0  0  0  0  0
    5.8749   46.2794    6.9798 H   0  0  0  0  0  0  0  0  0  0  0  0
    4.8238   49.3596    9.0860 N   0  0  0  0  0  0  0  0  0  0  0  0
    4.2386   50.3514    8.3401 C   0  0  0  0  0  0  0  0  0  0  0  0
    4.0221   51.4370    9.1328 N   0  0  0  0  0  0  0  0  0  0  0  0
    4.4500   51.1461   10.3809 C   0  0  0  0  0  0  0  0  0  0  0  0
    4.4697   51.8719   11.5651 C   0  0  0  0  0  0  0  0  0  0  0  0
    4.0159   53.1155   11.6432 N   0  0  0  0  0  0  0  0  0  0  0  0
    4.9673   51.2804   12.7011 N   0  0  0  0  0  0  0  0  0  0  0  0
    5.4575   49.9887   12.6690 C   0  0  0  0  0  0  0  0  0  0  0  0
    5.4377   49.2790   11.4994 N   0  0  0  0  0  0  0  0  0  0  0  0
    4.9486   49.8363   10.3685 C   0  0  0  0  0  0  0  0  0  0  0  0
    3.6549   53.5590   10.8419 H   0  0  0  0  0  0  0  0  0  0  0  0
    4.0400   53.5952   12.5026 H   0  0  0  0  0  0  0  0  0  0  0  0
    8.2911   49.2899    7.5495 C   0  0  0  0  0  0  0  0  0  0  0  0
    9.5992   49.1096    6.2994 S   0  0  0  0  0  0  0  0  0  0  0  0
    9.2627   47.3840    5.8211 C   0  0  0  0  0  0  0  0  0  0  0  0
    8.8647   50.0506    4.9299 C   0  0  0  0  0  0  0  0  0  0  0  0
    9.8855   50.2885    3.8168 C   0  0  0  0  0  0  0  0  0  0  0  0
   11.6041   52.0391    4.0481 N   0  0  0  0  0  0  0  0  0  0  0  0
   11.2855   50.6360    4.3097 C   0  0  0  0  0  0  0  0  0  0  0  0
   12.5442   52.2433    4.3873 H   0  0  0  0  0  0  0  0  0  0  0  0
   10.9317   52.6360    4.5297 H   0  0  0  0  0  0  0  0  0  0  0  0
   12.3090   49.7794    3.5831 C   0  0  0  0  0  0  0  0  0  0  0  0
   12.6649   50.0949    2.4429 O   0  0  0  0  0  0  0  0  0  0  0  0
   12.7802   48.7662    4.1136 O   0  0  0  0  0  0  0  0  0  0  0  0
 27 28  1  0  0  0
 28 31  1  0  0  0
 28 26  1  0  0  0
 31 32  2  0  0  0
 31 33  1  0  0  0
 26 25  1  0  0  0
 25 23  1  0  0  0
 23 24  1  0  0  0
 23 22  1  0  0  0
 22  1  1  0  0  0
  1  2  1  0  0  0
  1  3  1  0  0  0
  2  7  1  0  0  0
  3  4  1  0  0  0
  3  5  1  0  0  0
  5  6  1  0  0  0
  5  7  1  0  0  0
  7 10  1  0  0  0
 10 11  1  0  0  0
 10 19  1  0  0  0
 11 12  2  0  0  0
 12 13  1  0  0  0
 13 14  1  0  0  0
 13 19  2  0  0  0
 14 15  1  0  0  0
 14 16  2  0  0  0
 16 17  1  0  0  0
 17 18  2  0  0  0
 18 19  1  0  0  0
 27 29  1  0  0  0
 27 30  1  0  0  0
  4  8  1  0  0  0
  6  9  1  0  0  0
 15 20  1  0  0  0
 15 21  1  0  0  0
M  CHG 1  23   1
M  CHG 1  33  -1
M  END
> <minimizedAffinity>
-7.08873

$$$$
