1XKA_4PP_C_500


 34 36  0  0  0  0  0  0  0  0999 V2000
   -1.6490   20.5426   20.4873 C   0  0  0  0  0  0  0  0  0  0  0  0
   -1.0416   19.3255   20.9019 C   0  0  0  0  0  0  0  0  0  0  0  0
    0.0258   18.7743   20.1466 C   0  0  0  0  0  0  0  0  0  0  0  0
    0.4934   19.4327   18.9717 C   0  0  0  0  0  0  0  0  0  0  0  0
   -0.1159   20.6587   18.5476 C   0  0  0  0  0  0  0  0  0  0  0  0
   -1.1896   21.2177   19.3059 C   0  0  0  0  0  0  0  0  0  0  0  0
   -1.7835   24.7213   17.6796 C   0  0  0  0  0  0  0  0  0  0  0  0
   -1.1442   23.5075   18.0669 C   0  0  0  0  0  0  0  0  0  0  0  0
   -1.8531   22.5504   18.8612 C   0  0  0  0  0  0  0  0  0  0  0  0
   -3.1892   22.8217   19.2563 C   0  0  0  0  0  0  0  0  0  0  0  0
   -3.8293   24.0256   18.8717 C   0  0  0  0  0  0  0  0  0  0  0  0
   -3.1280   24.9804   18.0829 C   0  0  0  0  0  0  0  0  0  0  0  0
   -6.0894   23.2625   19.5807 N   0  0  0  0  0  0  0  0  0  0  0  0
   -5.7146   25.5129   19.4414 N   0  0  0  0  0  0  0  0  0  0  0  0
   -5.2813   24.2739   19.3222 C   0  0  0  0  0  0  0  0  0  0  0  0
   -7.0155   23.4332   19.8680 H   0  0  0  0  0  0  0  0  0  0  0  0
   -6.6405   25.6852   19.7284 H   0  0  0  0  0  0  0  0  0  0  0  0
   -5.1125   26.2662   19.2432 H   0  0  0  0  0  0  0  0  0  0  0  0
    1.6503   18.8028   18.1792 C   0  0  0  0  0  0  0  0  0  0  0  0
    2.9703   18.9947   18.9528 C   0  0  0  0  0  0  0  0  0  0  0  0
    2.9769   18.8334   20.1811 O   0  0  0  0  0  0  0  0  0  0  0  0
    4.1231   19.3291   18.2952 O   0  0  0  0  0  0  0  0  0  0  0  0
    4.1142   19.4503   17.3661 H   0  0  0  0  0  0  0  0  0  0  0  0
    1.3877   17.3205   17.9016 C   0  0  0  0  0  0  0  0  0  0  0  0
    0.8159   17.2153   16.4912 C   0  0  0  0  0  0  0  0  0  0  0  0
    1.4142   18.3082   15.6127 C   0  0  0  0  0  0  0  0  0  0  0  0
    1.8222   17.7051   14.3252 N   0  0  0  0  0  0  0  0  0  0  0  0
    1.2789   17.0457   13.8359 H   0  0  0  0  0  0  0  0  0  0  0  0
    5.6033   19.1522   12.8651 N   0  0  0  0  0  0  0  0  0  0  0  0
    4.4860   19.0884   12.0094 C   0  0  0  0  0  0  0  0  0  0  0  0
    3.2544   18.6126   12.5050 C   0  0  0  0  0  0  0  0  0  0  0  0
    3.1405   18.2012   13.8489 C   0  0  0  0  0  0  0  0  0  0  0  0
    4.2717   18.2694   14.7099 C   0  0  0  0  0  0  0  0  0  0  0  0
    5.4943   18.7439   14.2136 C   0  0  0  0  0  0  0  0  0  0  0  0
 20 21  2  0  0  0
 20 22  1  0  0  0
 20 19  1  0  0  0
 29 30  2  0  0  0
 29 34  1  0  0  0
 30 31  1  0  0  0
 31 32  2  0  0  0
 32 33  1  0  0  0
 32 27  1  0  0  0
 33 34  2  0  0  0
 27 26  1  0  0  0
 19 24  1  0  0  0
 19  4  1  0  0  0
 24 25  1  0  0  0
 25 26  1  0  0  0
 13 15  2  0  0  0
 14 15  1  0  0  0
 15 11  1  0  0  0
  1  2  2  0  0  0
  1  6  1  0  0  0
  2  3  1  0  0  0
  3  4  2  0  0  0
  4  5  1  0  0  0
  5  6  2  0  0  0
  6  9  1  0  0  0
  7  8  2  0  0  0
  7 12  1  0  0  0
  8  9  1  0  0  0
  9 10  2  0  0  0
 10 11  1  0  0  0
 11 12  2  0  0  0
 22 23  1  0  0  0
 27 28  1  0  0  0
 13 16  1  0  0  0
 14 17  1  0  0  0
 14 18  1  0  0  0
M  END
> <minimizedAffinity>
-9.38171

$$$$
1XKA_4PP_C_500


 34 36  0  0  0  0  0  0  0  0999 V2000
   -4.9438   21.6115   18.2864 C   0  0  0  0  0  0  0  0  0  0  0  0
   -5.8325   20.5283   18.0435 C   0  0  0  0  0  0  0  0  0  0  0  0
   -5.4716   19.5097   17.1238 C   0  0  0  0  0  0  0  0  0  0  0  0
   -4.2223   19.5657   16.4391 C   0  0  0  0  0  0  0  0  0  0  0  0
   -3.3231   20.6557   16.6782 C   0  0  0  0  0  0  0  0  0  0  0  0
   -3.6820   21.6824   17.6043 C   0  0  0  0  0  0  0  0  0  0  0  0
   -0.4927   23.7495   18.5143 C   0  0  0  0  0  0  0  0  0  0  0  0
   -1.3534   22.6402   18.2680 C   0  0  0  0  0  0  0  0  0  0  0  0
   -2.7124   22.8651   17.8783 C   0  0  0  0  0  0  0  0  0  0  0  0
   -3.1899   24.1949   17.7416 C   0  0  0  0  0  0  0  0  0  0  0  0
   -2.3374   25.3003   17.9830 C   0  0  0  0  0  0  0  0  0  0  0  0
   -0.9859   25.0814   18.3716 C   0  0  0  0  0  0  0  0  0  0  0  0
   -2.2168   27.6494   17.1702 N   0  0  0  0  0  0  0  0  0  0  0  0
   -4.0751   27.0161   18.3408 N   0  0  0  0  0  0  0  0  0  0  0  0
   -2.9004   26.7248   17.8187 C   0  0  0  0  0  0  0  0  0  0  0  0
   -2.5866   28.5564   17.0715 H   0  0  0  0  0  0  0  0  0  0  0  0
   -4.4461   27.9228   18.2429 H   0  0  0  0  0  0  0  0  0  0  0  0
   -4.5815   26.3271   18.8287 H   0  0  0  0  0  0  0  0  0  0  0  0
   -3.8686   18.4443   15.4487 C   0  0  0  0  0  0  0  0  0  0  0  0
   -4.6308   18.6643   14.1265 C   0  0  0  0  0  0  0  0  0  0  0  0
   -4.6099   17.7747   13.2646 O   0  0  0  0  0  0  0  0  0  0  0  0
   -5.3303   19.8201   13.9074 O   0  0  0  0  0  0  0  0  0  0  0  0
   -5.3438   20.4907   14.5617 H   0  0  0  0  0  0  0  0  0  0  0  0
   -2.3586   18.3766   15.2066 C   0  0  0  0  0  0  0  0  0  0  0  0
   -1.9702   16.9020   15.1608 C   0  0  0  0  0  0  0  0  0  0  0  0
   -0.5315   16.7358   15.6372 C   0  0  0  0  0  0  0  0  0  0  0  0
    0.3735   16.9845   14.4940 N   0  0  0  0  0  0  0  0  0  0  0  0
    0.1166   16.8410   13.5544 H   0  0  0  0  0  0  0  0  0  0  0  0
    4.2774   18.3960   15.6295 N   0  0  0  0  0  0  0  0  0  0  0  0
    3.9899   18.1021   14.2821 C   0  0  0  0  0  0  0  0  0  0  0  0
    2.7049   17.6417   13.9277 C   0  0  0  0  0  0  0  0  0  0  0  0
    1.7126   17.4743   14.9155 C   0  0  0  0  0  0  0  0  0  0  0  0
    2.0075   17.7744   16.2752 C   0  0  0  0  0  0  0  0  0  0  0  0
    3.2861   18.2329   16.6234 C   0  0  0  0  0  0  0  0  0  0  0  0
 20 21  2  0  0  0
 20 22  1  0  0  0
 20 19  1  0  0  0
 29 30  2  0  0  0
 29 34  1  0  0  0
 30 31  1  0  0  0
 31 32  2  0  0  0
 32 33  1  0  0  0
 32 27  1  0  0  0
 33 34  2  0  0  0
 27 26  1  0  0  0
 19 24  1  0  0  0
 19  4  1  0  0  0
 24 25  1  0  0  0
 25 26  1  0  0  0
 13 15  2  0  0  0
 14 15  1  0  0  0
 15 11  1  0  0  0
  1  2  2  0  0  0
  1  6  1  0  0  0
  2  3  1  0  0  0
  3  4  2  0  0  0
  4  5  1  0  0  0
  5  6  2  0  0  0
  6  9  1  0  0  0
  7  8  2  0  0  0
  7 12  1  0  0  0
  8  9  1  0  0  0
  9 10  2  0  0  0
 10 11  1  0  0  0
 11 12  2  0  0  0
 22 23  1  0  0  0
 27 28  1  0  0  0
 13 16  1  0  0  0
 14 17  1  0  0  0
 14 18  1  0  0  0
M  END
> <minimizedAffinity>
-9.35094

$$$$
1XKA_4PP_C_500


 34 36  0  0  0  0  0  0  0  0999 V2000
   -2.8160   19.7298   16.5005 C   0  0  0  0  0  0  0  0  0  0  0  0
   -2.1275   18.5590   16.0797 C   0  0  0  0  0  0  0  0  0  0  0  0
   -0.7547   18.3926   16.3980 C   0  0  0  0  0  0  0  0  0  0  0  0
   -0.0591   19.3939   17.1369 C   0  0  0  0  0  0  0  0  0  0  0  0
   -0.7469   20.5771   17.5623 C   0  0  0  0  0  0  0  0  0  0  0  0
   -2.1292   20.7478   17.2452 C   0  0  0  0  0  0  0  0  0  0  0  0
   -4.8815   23.1379   18.6542 C   0  0  0  0  0  0  0  0  0  0  0  0
   -4.2139   21.9474   18.2427 C   0  0  0  0  0  0  0  0  0  0  0  0
   -2.8883   22.0222   17.7076 C   0  0  0  0  0  0  0  0  0  0  0  0
   -2.2510   23.2853   17.5916 C   0  0  0  0  0  0  0  0  0  0  0  0
   -2.9097   24.4707   18.0016 C   0  0  0  0  0  0  0  0  0  0  0  0
   -4.2281   24.4011   18.5332 C   0  0  0  0  0  0  0  0  0  0  0  0
   -0.8642   25.8880   17.9881 N   0  0  0  0  0  0  0  0  0  0  0  0
   -2.8751   26.9076   17.6123 N   0  0  0  0  0  0  0  0  0  0  0  0
   -2.1761   25.8177   17.8590 C   0  0  0  0  0  0  0  0  0  0  0  0
   -0.4061   26.7545   17.8949 H   0  0  0  0  0  0  0  0  0  0  0  0
   -2.4184   27.7747   17.5190 H   0  0  0  0  0  0  0  0  0  0  0  0
   -3.8540   26.8545   17.5214 H   0  0  0  0  0  0  0  0  0  0  0  0
    1.4283   19.1780   17.4601 C   0  0  0  0  0  0  0  0  0  0  0  0
    1.5751   18.6981   18.9181 C   0  0  0  0  0  0  0  0  0  0  0  0
    0.7509   17.8923   19.3724 O   0  0  0  0  0  0  0  0  0  0  0  0
    2.6051   19.1454   19.7005 O   0  0  0  0  0  0  0  0  0  0  0  0
    3.2266   19.7548   19.3535 H   0  0  0  0  0  0  0  0  0  0  0  0
    2.0665   18.1826   16.4880 C   0  0  0  0  0  0  0  0  0  0  0  0
    3.5618   18.4818   16.4457 C   0  0  0  0  0  0  0  0  0  0  0  0
    4.1905   17.7841   15.2449 C   0  0  0  0  0  0  0  0  0  0  0  0
    5.2080   18.6834   14.6587 N   0  0  0  0  0  0  0  0  0  0  0  0
    6.0151   18.9792   15.1386 H   0  0  0  0  0  0  0  0  0  0  0  0
    4.3369   19.9188   10.6291 N   0  0  0  0  0  0  0  0  0  0  0  0
    5.5059   20.3669   11.2749 C   0  0  0  0  0  0  0  0  0  0  0  0
    5.7762   19.9511   12.5951 C   0  0  0  0  0  0  0  0  0  0  0  0
    4.8815   19.0930   13.2671 C   0  0  0  0  0  0  0  0  0  0  0  0
    3.7027   18.6416   12.6095 C   0  0  0  0  0  0  0  0  0  0  0  0
    3.4380   19.0564   11.2965 C   0  0  0  0  0  0  0  0  0  0  0  0
 20 21  2  0  0  0
 20 22  1  0  0  0
 20 19  1  0  0  0
 29 30  2  0  0  0
 29 34  1  0  0  0
 30 31  1  0  0  0
 31 32  2  0  0  0
 32 33  1  0  0  0
 32 27  1  0  0  0
 33 34  2  0  0  0
 27 26  1  0  0  0
 19 24  1  0  0  0
 19  4  1  0  0  0
 24 25  1  0  0  0
 25 26  1  0  0  0
 13 15  2  0  0  0
 14 15  1  0  0  0
 15 11  1  0  0  0
  1  2  2  0  0  0
  1  6  1  0  0  0
  2  3  1  0  0  0
  3  4  2  0  0  0
  4  5  1  0  0  0
  5  6  2  0  0  0
  6  9  1  0  0  0
  7  8  2  0  0  0
  7 12  1  0  0  0
  8  9  1  0  0  0
  9 10  2  0  0  0
 10 11  1  0  0  0
 11 12  2  0  0  0
 22 23  1  0  0  0
 27 28  1  0  0  0
 13 16  1  0  0  0
 14 17  1  0  0  0
 14 18  1  0  0  0
M  END
> <minimizedAffinity>
-9.26427

$$$$
1XKA_4PP_C_500


 34 36  0  0  0  0  0  0  0  0999 V2000
   -4.0473   20.0760   15.7355 C   0  0  0  0  0  0  0  0  0  0  0  0
   -3.7291   18.8703   15.0521 C   0  0  0  0  0  0  0  0  0  0  0  0
   -2.5275   18.1799   15.3576 C   0  0  0  0  0  0  0  0  0  0  0  0
   -1.6346   18.6886   16.3457 C   0  0  0  0  0  0  0  0  0  0  0  0
   -1.9487   19.9043   17.0366 C   0  0  0  0  0  0  0  0  0  0  0  0
   -3.1579   20.6015   16.7332 C   0  0  0  0  0  0  0  0  0  0  0  0
   -4.9894   23.2428   18.9564 C   0  0  0  0  0  0  0  0  0  0  0  0
   -4.6925   22.0197   18.2870 C   0  0  0  0  0  0  0  0  0  0  0  0
   -3.5139   21.9162   17.4810 C   0  0  0  0  0  0  0  0  0  0  0  0
   -2.6511   23.0364   17.3563 C   0  0  0  0  0  0  0  0  0  0  0  0
   -2.9409   24.2530   18.0218 C   0  0  0  0  0  0  0  0  0  0  0  0
   -4.1121   24.3608   18.8233 C   0  0  0  0  0  0  0  0  0  0  0  0
   -0.7166   25.3449   18.2525 N   0  0  0  0  0  0  0  0  0  0  0  0
   -2.4148   26.5615   17.3249 N   0  0  0  0  0  0  0  0  0  0  0  0
   -1.9729   25.4402   17.8584 C   0  0  0  0  0  0  0  0  0  0  0  0
   -0.1070   26.1102   18.1431 H   0  0  0  0  0  0  0  0  0  0  0  0
   -1.8063   27.3276   17.2149 H   0  0  0  0  0  0  0  0  0  0  0  0
   -3.3533   26.6329   17.0362 H   0  0  0  0  0  0  0  0  0  0  0  0
   -0.3417   17.9131   16.6467 C   0  0  0  0  0  0  0  0  0  0  0  0
   -0.2867   16.6434   15.7735 C   0  0  0  0  0  0  0  0  0  0  0  0
    0.3654   16.6649   14.7204 O   0  0  0  0  0  0  0  0  0  0  0  0
   -0.9393   15.5030   16.1570 O   0  0  0  0  0  0  0  0  0  0  0  0
   -1.4315   15.4905   16.9542 H   0  0  0  0  0  0  0  0  0  0  0  0
    0.8935   18.7885   16.4203 C   0  0  0  0  0  0  0  0  0  0  0  0
    1.9905   18.2773   17.3491 C   0  0  0  0  0  0  0  0  0  0  0  0
    3.3292   18.2953   16.6197 C   0  0  0  0  0  0  0  0  0  0  0  0
    3.2005   17.4956   15.3821 N   0  0  0  0  0  0  0  0  0  0  0  0
    2.7930   16.5999   15.3520 H   0  0  0  0  0  0  0  0  0  0  0  0
    4.8682   19.5287   11.9750 N   0  0  0  0  0  0  0  0  0  0  0  0
    5.5617   19.5057   13.2010 C   0  0  0  0  0  0  0  0  0  0  0  0
    5.0009   18.8337   14.3069 C   0  0  0  0  0  0  0  0  0  0  0  0
    3.7523   18.1893   14.1882 C   0  0  0  0  0  0  0  0  0  0  0  0
    3.0565   18.2137   12.9468 C   0  0  0  0  0  0  0  0  0  0  0  0
    3.6179   18.8821   11.8494 C   0  0  0  0  0  0  0  0  0  0  0  0
 20 21  2  0  0  0
 20 22  1  0  0  0
 20 19  1  0  0  0
 29 30  2  0  0  0
 29 34  1  0  0  0
 30 31  1  0  0  0
 31 32  2  0  0  0
 32 33  1  0  0  0
 32 27  1  0  0  0
 33 34  2  0  0  0
 27 26  1  0  0  0
 19 24  1  0  0  0
 19  4  1  0  0  0
 24 25  1  0  0  0
 25 26  1  0  0  0
 13 15  2  0  0  0
 14 15  1  0  0  0
 15 11  1  0  0  0
  1  2  2  0  0  0
  1  6  1  0  0  0
  2  3  1  0  0  0
  3  4  2  0  0  0
  4  5  1  0  0  0
  5  6  2  0  0  0
  6  9  1  0  0  0
  7  8  2  0  0  0
  7 12  1  0  0  0
  8  9  1  0  0  0
  9 10  2  0  0  0
 10 11  1  0  0  0
 11 12  2  0  0  0
 22 23  1  0  0  0
 27 28  1  0  0  0
 13 16  1  0  0  0
 14 17  1  0  0  0
 14 18  1  0  0  0
M  END
> <minimizedAffinity>
-9.20411

$$$$
1XKA_4PP_C_500


 34 36  0  0  0  0  0  0  0  0999 V2000
    0.7321   16.9594   14.3281 C   0  0  0  0  0  0  0  0  0  0  0  0
   -0.4578   16.4902   14.9494 C   0  0  0  0  0  0  0  0  0  0  0  0
   -0.6149   16.6055   16.3550 C   0  0  0  0  0  0  0  0  0  0  0  0
    0.4148   17.1884   17.1504 C   0  0  0  0  0  0  0  0  0  0  0  0
    1.6172   17.6615   16.5304 C   0  0  0  0  0  0  0  0  0  0  0  0
    1.7786   17.5486   15.1156 C   0  0  0  0  0  0  0  0  0  0  0  0
    5.4935   18.5735   14.4656 C   0  0  0  0  0  0  0  0  0  0  0  0
    4.3256   18.0900   15.1248 C   0  0  0  0  0  0  0  0  0  0  0  0
    3.0739   18.0651   14.4304 C   0  0  0  0  0  0  0  0  0  0  0  0
    3.0091   18.5242   13.0887 C   0  0  0  0  0  0  0  0  0  0  0  0
    4.1676   19.0032   12.4290 C   0  0  0  0  0  0  0  0  0  0  0  0
    5.4139   19.0307   13.1158 C   0  0  0  0  0  0  0  0  0  0  0  0
    5.1032   19.9479   10.3253 N   0  0  0  0  0  0  0  0  0  0  0  0
    2.8738   19.4461   10.3745 N   0  0  0  0  0  0  0  0  0  0  0  0
    4.0480   19.4881   10.9718 C   0  0  0  0  0  0  0  0  0  0  0  0
    5.0148   20.2551    9.3942 H   0  0  0  0  0  0  0  0  0  0  0  0
    2.7839   19.7530    9.4434 H   0  0  0  0  0  0  0  0  0  0  0  0
    2.0866   19.1078   10.8595 H   0  0  0  0  0  0  0  0  0  0  0  0
    0.2081   17.2935   18.6701 C   0  0  0  0  0  0  0  0  0  0  0  0
    1.1520   16.3083   19.3885 C   0  0  0  0  0  0  0  0  0  0  0  0
    2.1808   16.7429   19.9247 O   0  0  0  0  0  0  0  0  0  0  0  0
    0.8571   14.9729   19.4441 O   0  0  0  0  0  0  0  0  0  0  0  0
    0.0781   14.6479   19.0373 H   0  0  0  0  0  0  0  0  0  0  0  0
    0.4335   18.7258   19.1610 C   0  0  0  0  0  0  0  0  0  0  0  0
   -0.6367   19.6018   18.5170 C   0  0  0  0  0  0  0  0  0  0  0  0
   -1.1552   20.6102   19.5361 C   0  0  0  0  0  0  0  0  0  0  0  0
   -2.3527   21.2723   18.9743 N   0  0  0  0  0  0  0  0  0  0  0  0
   -3.2199   20.8214   18.8568 H   0  0  0  0  0  0  0  0  0  0  0  0
   -1.7196   25.3831   17.8682 N   0  0  0  0  0  0  0  0  0  0  0  0
   -2.9220   24.7313   17.5308 C   0  0  0  0  0  0  0  0  0  0  0  0
   -3.1130   23.3843   17.9022 C   0  0  0  0  0  0  0  0  0  0  0  0
   -2.1064   22.6917   18.6061 C   0  0  0  0  0  0  0  0  0  0  0  0
   -0.8942   23.3553   18.9464 C   0  0  0  0  0  0  0  0  0  0  0  0
   -0.7084   24.6949   18.5761 C   0  0  0  0  0  0  0  0  0  0  0  0
 20 21  2  0  0  0
 20 22  1  0  0  0
 20 19  1  0  0  0
 29 30  2  0  0  0
 29 34  1  0  0  0
 30 31  1  0  0  0
 31 32  2  0  0  0
 32 33  1  0  0  0
 32 27  1  0  0  0
 33 34  2  0  0  0
 27 26  1  0  0  0
 19 24  1  0  0  0
 19  4  1  0  0  0
 24 25  1  0  0  0
 25 26  1  0  0  0
 13 15  2  0  0  0
 14 15  1  0  0  0
 15 11  1  0  0  0
  1  2  2  0  0  0
  1  6  1  0  0  0
  2  3  1  0  0  0
  3  4  2  0  0  0
  4  5  1  0  0  0
  5  6  2  0  0  0
  6  9  1  0  0  0
  7  8  2  0  0  0
  7 12  1  0  0  0
  8  9  1  0  0  0
  9 10  2  0  0  0
 10 11  1  0  0  0
 11 12  2  0  0  0
 22 23  1  0  0  0
 27 28  1  0  0  0
 13 16  1  0  0  0
 14 17  1  0  0  0
 14 18  1  0  0  0
M  END
> <minimizedAffinity>
-9.18782

$$$$
1XKA_4PP_C_500


 34 36  0  0  0  0  0  0  0  0999 V2000
    2.0193   17.7640   16.8269 C   0  0  0  0  0  0  0  0  0  0  0  0
    0.8756   17.3450   17.5607 C   0  0  0  0  0  0  0  0  0  0  0  0
   -0.2574   16.8356   16.8748 C   0  0  0  0  0  0  0  0  0  0  0  0
   -0.2576   16.7421   15.4522 C   0  0  0  0  0  0  0  0  0  0  0  0
    0.8913   17.1646   14.7069 C   0  0  0  0  0  0  0  0  0  0  0  0
    2.0344   17.6766   15.3935 C   0  0  0  0  0  0  0  0  0  0  0  0
    5.7081   18.6232   14.4548 C   0  0  0  0  0  0  0  0  0  0  0  0
    4.5790   18.1996   15.2150 C   0  0  0  0  0  0  0  0  0  0  0  0
    3.2893   18.1302   14.5975 C   0  0  0  0  0  0  0  0  0  0  0  0
    3.1482   18.4857   13.2305 C   0  0  0  0  0  0  0  0  0  0  0  0
    4.2680   18.9049   12.4706 C   0  0  0  0  0  0  0  0  0  0  0  0
    5.5518   18.9763   13.0806 C   0  0  0  0  0  0  0  0  0  0  0  0
    4.9516   20.0222   10.3546 N   0  0  0  0  0  0  0  0  0  0  0  0
    2.9897   18.8495   10.3601 N   0  0  0  0  0  0  0  0  0  0  0  0
    4.0656   19.2776   10.9896 C   0  0  0  0  0  0  0  0  0  0  0  0
    4.8118   20.2541    9.4081 H   0  0  0  0  0  0  0  0  0  0  0  0
    2.8485   19.0807    9.4136 H   0  0  0  0  0  0  0  0  0  0  0  0
    2.3272   18.2986   10.8363 H   0  0  0  0  0  0  0  0  0  0  0  0
   -1.5050   16.1870   14.7456 C   0  0  0  0  0  0  0  0  0  0  0  0
   -1.3991   14.6521   14.6423 C   0  0  0  0  0  0  0  0  0  0  0  0
   -0.9754   14.1473   13.5933 O   0  0  0  0  0  0  0  0  0  0  0  0
   -1.7579   13.8547   15.6952 O   0  0  0  0  0  0  0  0  0  0  0  0
   -2.0780   14.2401   16.4870 H   0  0  0  0  0  0  0  0  0  0  0  0
   -2.7846   16.6006   15.4768 C   0  0  0  0  0  0  0  0  0  0  0  0
   -3.2782   17.8938   14.8354 C   0  0  0  0  0  0  0  0  0  0  0  0
   -3.1876   19.0333   15.8441 C   0  0  0  0  0  0  0  0  0  0  0  0
   -1.9547   19.8040   15.5725 N   0  0  0  0  0  0  0  0  0  0  0  0
   -1.3530   19.6205   14.8151 H   0  0  0  0  0  0  0  0  0  0  0  0
   -1.2137   22.8855   18.4842 N   0  0  0  0  0  0  0  0  0  0  0  0
   -0.4363   21.7107   18.4762 C   0  0  0  0  0  0  0  0  0  0  0  0
   -0.6921   20.7118   17.5142 C   0  0  0  0  0  0  0  0  0  0  0  0
   -1.7211   20.8856   16.5658 C   0  0  0  0  0  0  0  0  0  0  0  0
   -2.5024   22.0752   16.5768 C   0  0  0  0  0  0  0  0  0  0  0  0
   -2.2443   23.0665   17.5344 C   0  0  0  0  0  0  0  0  0  0  0  0
 20 21  2  0  0  0
 20 22  1  0  0  0
 20 19  1  0  0  0
 29 30  2  0  0  0
 29 34  1  0  0  0
 30 31  1  0  0  0
 31 32  2  0  0  0
 32 33  1  0  0  0
 32 27  1  0  0  0
 33 34  2  0  0  0
 27 26  1  0  0  0
 19 24  1  0  0  0
 19  4  1  0  0  0
 24 25  1  0  0  0
 25 26  1  0  0  0
 13 15  2  0  0  0
 14 15  1  0  0  0
 15 11  1  0  0  0
  1  2  2  0  0  0
  1  6  1  0  0  0
  2  3  1  0  0  0
  3  4  2  0  0  0
  4  5  1  0  0  0
  5  6  2  0  0  0
  6  9  1  0  0  0
  7  8  2  0  0  0
  7 12  1  0  0  0
  8  9  1  0  0  0
  9 10  2  0  0  0
 10 11  1  0  0  0
 11 12  2  0  0  0
 22 23  1  0  0  0
 27 28  1  0  0  0
 13 16  1  0  0  0
 14 17  1  0  0  0
 14 18  1  0  0  0
M  END
> <minimizedAffinity>
-9.03232

$$$$
1XKA_4PP_C_500


 34 36  0  0  0  0  0  0  0  0999 V2000
   -1.1155   20.2554   20.1804 C   0  0  0  0  0  0  0  0  0  0  0  0
   -0.4931   19.0031   20.4380 C   0  0  0  0  0  0  0  0  0  0  0  0
    0.1276   18.2905   19.3794 C   0  0  0  0  0  0  0  0  0  0  0  0
    0.1301   18.8217   18.0564 C   0  0  0  0  0  0  0  0  0  0  0  0
   -0.4971   20.0825   17.7900 C   0  0  0  0  0  0  0  0  0  0  0  0
   -1.1217   20.8038   18.8530 C   0  0  0  0  0  0  0  0  0  0  0  0
   -1.7479   24.4799   17.6839 C   0  0  0  0  0  0  0  0  0  0  0  0
   -1.0969   23.2332   17.9162 C   0  0  0  0  0  0  0  0  0  0  0  0
   -1.7980   22.1754   18.5788 C   0  0  0  0  0  0  0  0  0  0  0  0
   -3.1383   22.3805   18.9992 C   0  0  0  0  0  0  0  0  0  0  0  0
   -3.7899   23.6170   18.7683 C   0  0  0  0  0  0  0  0  0  0  0  0
   -3.0964   24.6716   18.1108 C   0  0  0  0  0  0  0  0  0  0  0  0
   -6.0362   22.7439   19.3892 N   0  0  0  0  0  0  0  0  0  0  0  0
   -5.7009   25.0027   19.4888 N   0  0  0  0  0  0  0  0  0  0  0  0
   -5.2460   23.7909   19.2402 C   0  0  0  0  0  0  0  0  0  0  0  0
   -6.9650   22.8672   19.6914 H   0  0  0  0  0  0  0  0  0  0  0  0
   -6.6295   25.1276   19.7909 H   0  0  0  0  0  0  0  0  0  0  0  0
   -5.1121   25.7831   19.3722 H   0  0  0  0  0  0  0  0  0  0  0  0
    0.8109   18.0187   16.9361 C   0  0  0  0  0  0  0  0  0  0  0  0
   -0.2616   17.3102   16.0843 C   0  0  0  0  0  0  0  0  0  0  0  0
   -1.2271   16.7800   16.6514 O   0  0  0  0  0  0  0  0  0  0  0  0
   -0.1579   17.2730   14.7201 O   0  0  0  0  0  0  0  0  0  0  0  0
    0.5737   17.6750   14.2947 H   0  0  0  0  0  0  0  0  0  0  0  0
    1.6937   18.9192   16.0683 C   0  0  0  0  0  0  0  0  0  0  0  0
    3.1459   18.5792   16.3892 C   0  0  0  0  0  0  0  0  0  0  0  0
    3.7291   17.7182   15.2744 C   0  0  0  0  0  0  0  0  0  0  0  0
    4.9448   18.3819   14.7555 N   0  0  0  0  0  0  0  0  0  0  0  0
    5.7811   18.4654   15.2683 H   0  0  0  0  0  0  0  0  0  0  0  0
    4.3614   19.8596   10.7556 N   0  0  0  0  0  0  0  0  0  0  0  0
    3.4357   18.9644   11.3268 C   0  0  0  0  0  0  0  0  0  0  0  0
    3.6419   18.4911   12.6392 C   0  0  0  0  0  0  0  0  0  0  0  0
    4.7689   18.9094   13.3764 C   0  0  0  0  0  0  0  0  0  0  0  0
    5.7001   19.8155   12.7956 C   0  0  0  0  0  0  0  0  0  0  0  0
    5.4910   20.2845   11.4908 C   0  0  0  0  0  0  0  0  0  0  0  0
 20 21  2  0  0  0
 20 22  1  0  0  0
 20 19  1  0  0  0
 29 30  2  0  0  0
 29 34  1  0  0  0
 30 31  1  0  0  0
 31 32  2  0  0  0
 32 33  1  0  0  0
 32 27  1  0  0  0
 33 34  2  0  0  0
 27 26  1  0  0  0
 19 24  1  0  0  0
 19  4  1  0  0  0
 24 25  1  0  0  0
 25 26  1  0  0  0
 13 15  2  0  0  0
 14 15  1  0  0  0
 15 11  1  0  0  0
  1  2  2  0  0  0
  1  6  1  0  0  0
  2  3  1  0  0  0
  3  4  2  0  0  0
  4  5  1  0  0  0
  5  6  2  0  0  0
  6  9  1  0  0  0
  7  8  2  0  0  0
  7 12  1  0  0  0
  8  9  1  0  0  0
  9 10  2  0  0  0
 10 11  1  0  0  0
 11 12  2  0  0  0
 22 23  1  0  0  0
 27 28  1  0  0  0
 13 16  1  0  0  0
 14 17  1  0  0  0
 14 18  1  0  0  0
M  END
> <minimizedAffinity>
-8.94719

$$$$
1XKA_4PP_C_500


 34 36  0  0  0  0  0  0  0  0999 V2000
   -1.0450   20.2342   16.6912 C   0  0  0  0  0  0  0  0  0  0  0  0
   -1.8527   21.1305   15.9385 C   0  0  0  0  0  0  0  0  0  0  0  0
   -2.3472   22.3151   16.5431 C   0  0  0  0  0  0  0  0  0  0  0  0
   -2.0407   22.6129   17.9032 C   0  0  0  0  0  0  0  0  0  0  0  0
   -1.2288   21.7128   18.6677 C   0  0  0  0  0  0  0  0  0  0  0  0
   -0.7277   20.5199   18.0624 C   0  0  0  0  0  0  0  0  0  0  0  0
    0.4643   17.8720   20.6779 C   0  0  0  0  0  0  0  0  0  0  0  0
   -0.3808   18.7589   19.9489 C   0  0  0  0  0  0  0  0  0  0  0  0
    0.1603   19.5399   18.8780 C   0  0  0  0  0  0  0  0  0  0  0  0
    1.5371   19.4227   18.5530 C   0  0  0  0  0  0  0  0  0  0  0  0
    2.3800   18.5408   19.2732 C   0  0  0  0  0  0  0  0  0  0  0  0
    1.8466   17.7632   20.3393 C   0  0  0  0  0  0  0  0  0  0  0  0
    4.6833   17.6330   19.5263 N   0  0  0  0  0  0  0  0  0  0  0  0
    4.3211   19.1932   17.8957 N   0  0  0  0  0  0  0  0  0  0  0  0
    3.8669   18.4458   18.8817 C   0  0  0  0  0  0  0  0  0  0  0  0
    5.6316   17.5806   19.2672 H   0  0  0  0  0  0  0  0  0  0  0  0
    5.2692   19.1420   17.6356 H   0  0  0  0  0  0  0  0  0  0  0  0
    3.7123   19.8028   17.4192 H   0  0  0  0  0  0  0  0  0  0  0  0
   -2.5971   23.9051   18.5231 C   0  0  0  0  0  0  0  0  0  0  0  0
   -1.8165   25.1173   17.9763 C   0  0  0  0  0  0  0  0  0  0  0  0
   -2.3913   25.9113   17.2187 O   0  0  0  0  0  0  0  0  0  0  0  0
   -0.5098   25.3229   18.3276 O   0  0  0  0  0  0  0  0  0  0  0  0
   -0.0783   24.7203   18.9008 H   0  0  0  0  0  0  0  0  0  0  0  0
   -4.0962   24.0489   18.2489 C   0  0  0  0  0  0  0  0  0  0  0  0
   -4.8345   23.5981   19.5055 C   0  0  0  0  0  0  0  0  0  0  0  0
   -5.6257   22.3294   19.2078 C   0  0  0  0  0  0  0  0  0  0  0  0
   -4.8642   21.1698   19.7209 N   0  0  0  0  0  0  0  0  0  0  0  0
   -4.5258   21.1050   20.6432 H   0  0  0  0  0  0  0  0  0  0  0  0
   -4.2366   18.0630   16.8094 N   0  0  0  0  0  0  0  0  0  0  0  0
   -3.6949   17.9460   18.1045 C   0  0  0  0  0  0  0  0  0  0  0  0
   -3.9114   18.9731   19.0464 C   0  0  0  0  0  0  0  0  0  0  0  0
   -4.6644   20.1124   18.6948 C   0  0  0  0  0  0  0  0  0  0  0  0
   -5.2113   20.2249   17.3856 C   0  0  0  0  0  0  0  0  0  0  0  0
   -4.9945   19.2011   16.4523 C   0  0  0  0  0  0  0  0  0  0  0  0
 20 21  2  0  0  0
 20 22  1  0  0  0
 20 19  1  0  0  0
 29 30  2  0  0  0
 29 34  1  0  0  0
 30 31  1  0  0  0
 31 32  2  0  0  0
 32 33  1  0  0  0
 32 27  1  0  0  0
 33 34  2  0  0  0
 27 26  1  0  0  0
 19 24  1  0  0  0
 19  4  1  0  0  0
 24 25  1  0  0  0
 25 26  1  0  0  0
 13 15  2  0  0  0
 14 15  1  0  0  0
 15 11  1  0  0  0
  1  2  2  0  0  0
  1  6  1  0  0  0
  2  3  1  0  0  0
  3  4  2  0  0  0
  4  5  1  0  0  0
  5  6  2  0  0  0
  6  9  1  0  0  0
  7  8  2  0  0  0
  7 12  1  0  0  0
  8  9  1  0  0  0
  9 10  2  0  0  0
 10 11  1  0  0  0
 11 12  2  0  0  0
 22 23  1  0  0  0
 27 28  1  0  0  0
 13 16  1  0  0  0
 14 17  1  0  0  0
 14 18  1  0  0  0
M  END
> <minimizedAffinity>
-8.94269

$$$$
1XKA_4PP_C_500


 34 36  0  0  0  0  0  0  0  0999 V2000
   -1.0867   20.2105   16.1347 C   0  0  0  0  0  0  0  0  0  0  0  0
   -2.2072   21.0851   16.1736 C   0  0  0  0  0  0  0  0  0  0  0  0
   -2.3073   22.0617   17.1982 C   0  0  0  0  0  0  0  0  0  0  0  0
   -1.2909   22.1712   18.1920 C   0  0  0  0  0  0  0  0  0  0  0  0
   -0.1601   21.2915   18.1594 C   0  0  0  0  0  0  0  0  0  0  0  0
   -0.0547   20.3080   17.1288 C   0  0  0  0  0  0  0  0  0  0  0  0
    2.7130   17.8662   15.8443 C   0  0  0  0  0  0  0  0  0  0  0  0
    1.5860   18.7390   15.8534 C   0  0  0  0  0  0  0  0  0  0  0  0
    1.1703   19.3537   17.0777 C   0  0  0  0  0  0  0  0  0  0  0  0
    1.8870   19.0860   18.2734 C   0  0  0  0  0  0  0  0  0  0  0  0
    3.0090   18.2211   18.2685 C   0  0  0  0  0  0  0  0  0  0  0  0
    3.4252   17.6071   17.0539 C   0  0  0  0  0  0  0  0  0  0  0  0
    4.9514   17.4021   19.5914 N   0  0  0  0  0  0  0  0  0  0  0  0
    3.1860   18.3045   20.7288 N   0  0  0  0  0  0  0  0  0  0  0  0
    3.7566   17.9636   19.5906 C   0  0  0  0  0  0  0  0  0  0  0  0
    5.4197   17.2424   20.4425 H   0  0  0  0  0  0  0  0  0  0  0  0
    3.6532   18.1453   21.5807 H   0  0  0  0  0  0  0  0  0  0  0  0
    2.2928   18.7184   20.7271 H   0  0  0  0  0  0  0  0  0  0  0  0
   -1.4366   23.2404   19.2870 C   0  0  0  0  0  0  0  0  0  0  0  0
   -1.5914   24.6291   18.6348 C   0  0  0  0  0  0  0  0  0  0  0  0
   -0.5799   25.2232   18.2368 O   0  0  0  0  0  0  0  0  0  0  0  0
   -2.8277   25.1973   18.4867 O   0  0  0  0  0  0  0  0  0  0  0  0
   -3.5905   24.7449   18.7890 H   0  0  0  0  0  0  0  0  0  0  0  0
   -2.6201   22.9316   20.2073 C   0  0  0  0  0  0  0  0  0  0  0  0
   -2.0503   22.4136   21.5242 C   0  0  0  0  0  0  0  0  0  0  0  0
   -2.0172   20.8895   21.5042 C   0  0  0  0  0  0  0  0  0  0  0  0
   -3.2096   20.4034   20.7766 N   0  0  0  0  0  0  0  0  0  0  0  0
   -4.1128   20.7749   20.9009 H   0  0  0  0  0  0  0  0  0  0  0  0
   -2.2323   17.1762   18.1021 N   0  0  0  0  0  0  0  0  0  0  0  0
   -1.3743   17.5004   19.1713 C   0  0  0  0  0  0  0  0  0  0  0  0
   -1.7108   18.5603   20.0386 C   0  0  0  0  0  0  0  0  0  0  0  0
   -2.8983   19.2935   19.8373 C   0  0  0  0  0  0  0  0  0  0  0  0
   -3.7629   18.9607   18.7568 C   0  0  0  0  0  0  0  0  0  0  0  0
   -3.4253   17.9057   17.8971 C   0  0  0  0  0  0  0  0  0  0  0  0
 20 21  2  0  0  0
 20 22  1  0  0  0
 20 19  1  0  0  0
 29 30  2  0  0  0
 29 34  1  0  0  0
 30 31  1  0  0  0
 31 32  2  0  0  0
 32 33  1  0  0  0
 32 27  1  0  0  0
 33 34  2  0  0  0
 27 26  1  0  0  0
 19 24  1  0  0  0
 19  4  1  0  0  0
 24 25  1  0  0  0
 25 26  1  0  0  0
 13 15  2  0  0  0
 14 15  1  0  0  0
 15 11  1  0  0  0
  1  2  2  0  0  0
  1  6  1  0  0  0
  2  3  1  0  0  0
  3  4  2  0  0  0
  4  5  1  0  0  0
  5  6  2  0  0  0
  6  9  1  0  0  0
  7  8  2  0  0  0
  7 12  1  0  0  0
  8  9  1  0  0  0
  9 10  2  0  0  0
 10 11  1  0  0  0
 11 12  2  0  0  0
 22 23  1  0  0  0
 27 28  1  0  0  0
 13 16  1  0  0  0
 14 17  1  0  0  0
 14 18  1  0  0  0
M  END
> <minimizedAffinity>
-8.47831

$$$$
1XKA_4PP_C_500


 34 36  0  0  0  0  0  0  0  0999 V2000
    0.3816   19.7407   16.7502 C   0  0  0  0  0  0  0  0  0  0  0  0
    1.1062   18.7044   16.0996 C   0  0  0  0  0  0  0  0  0  0  0  0
    1.7721   17.7158   16.8696 C   0  0  0  0  0  0  0  0  0  0  0  0
    1.7209   17.7552   18.2938 C   0  0  0  0  0  0  0  0  0  0  0  0
    0.9939   18.7981   18.9554 C   0  0  0  0  0  0  0  0  0  0  0  0
    0.3209   19.7943   18.1841 C   0  0  0  0  0  0  0  0  0  0  0  0
   -1.7795   21.7950   20.8030 C   0  0  0  0  0  0  0  0  0  0  0  0
   -1.0506   20.7358   20.1873 C   0  0  0  0  0  0  0  0  0  0  0  0
   -0.4774   20.9255   18.8892 C   0  0  0  0  0  0  0  0  0  0  0  0
   -0.6421   22.1702   18.2269 C   0  0  0  0  0  0  0  0  0  0  0  0
   -1.3637   23.2262   18.8360 C   0  0  0  0  0  0  0  0  0  0  0  0
   -1.9361   23.0418   20.1259 C   0  0  0  0  0  0  0  0  0  0  0  0
   -0.6841   25.5613   18.3078 N   0  0  0  0  0  0  0  0  0  0  0  0
   -2.4865   24.6949   17.2010 N   0  0  0  0  0  0  0  0  0  0  0  0
   -1.5131   24.5596   18.0792 C   0  0  0  0  0  0  0  0  0  0  0  0
   -0.7893   26.4089   17.8181 H   0  0  0  0  0  0  0  0  0  0  0  0
   -2.5930   25.5420   16.7106 H   0  0  0  0  0  0  0  0  0  0  0  0
   -3.1072   23.9489   17.0353 H   0  0  0  0  0  0  0  0  0  0  0  0
    2.4571   16.6675   19.0927 C   0  0  0  0  0  0  0  0  0  0  0  0
    3.8927   17.1374   19.4022 C   0  0  0  0  0  0  0  0  0  0  0  0
    4.8280   16.7102   18.7112 O   0  0  0  0  0  0  0  0  0  0  0  0
    4.1346   18.0213   20.4188 O   0  0  0  0  0  0  0  0  0  0  0  0
    3.4247   18.3423   20.9393 H   0  0  0  0  0  0  0  0  0  0  0  0
    1.7038   16.3214   20.3796 C   0  0  0  0  0  0  0  0  0  0  0  0
    0.9245   15.0359   20.1197 C   0  0  0  0  0  0  0  0  0  0  0  0
   -0.5339   15.3707   19.8280 C   0  0  0  0  0  0  0  0  0  0  0  0
   -0.8467   14.9436   18.4468 N   0  0  0  0  0  0  0  0  0  0  0  0
   -0.6331   14.0508   18.0910 H   0  0  0  0  0  0  0  0  0  0  0  0
   -2.7605   17.9825   16.0751 N   0  0  0  0  0  0  0  0  0  0  0  0
   -2.0591   16.9303   15.4543 C   0  0  0  0  0  0  0  0  0  0  0  0
   -1.4389   15.9424   16.2469 C   0  0  0  0  0  0  0  0  0  0  0  0
   -1.5181   16.0068   17.6533 C   0  0  0  0  0  0  0  0  0  0  0  0
   -2.2296   17.0708   18.2757 C   0  0  0  0  0  0  0  0  0  0  0  0
   -2.8456   18.0506   17.4841 C   0  0  0  0  0  0  0  0  0  0  0  0
 20 21  2  0  0  0
 20 22  1  0  0  0
 20 19  1  0  0  0
 29 30  2  0  0  0
 29 34  1  0  0  0
 30 31  1  0  0  0
 31 32  2  0  0  0
 32 33  1  0  0  0
 32 27  1  0  0  0
 33 34  2  0  0  0
 27 26  1  0  0  0
 19 24  1  0  0  0
 19  4  1  0  0  0
 24 25  1  0  0  0
 25 26  1  0  0  0
 13 15  2  0  0  0
 14 15  1  0  0  0
 15 11  1  0  0  0
  1  2  2  0  0  0
  1  6  1  0  0  0
  2  3  1  0  0  0
  3  4  2  0  0  0
  4  5  1  0  0  0
  5  6  2  0  0  0
  6  9  1  0  0  0
  7  8  2  0  0  0
  7 12  1  0  0  0
  8  9  1  0  0  0
  9 10  2  0  0  0
 10 11  1  0  0  0
 11 12  2  0  0  0
 22 23  1  0  0  0
 27 28  1  0  0  0
 13 16  1  0  0  0
 14 17  1  0  0  0
 14 18  1  0  0  0
M  END
> <minimizedAffinity>
-8.44109

$$$$
