5NAP_DZ7_A_611


 28 31  0  0  0  0  0  0  0  0999 V2000
  167.4303   26.4748  184.0109 O   0  0  0  0  0  0  0  0  0  0  0  0
  167.3373   27.7098  184.0732 C   0  0  0  0  0  0  0  0  0  0  0  0
  166.2994   28.4318  184.6180 C   0  0  0  0  0  0  0  0  0  0  0  0
  165.1920   27.9501  185.1886 C   0  0  0  0  0  0  0  0  0  0  0  0
  164.2167   28.7994  185.6964 C   0  0  0  0  0  0  0  0  0  0  0  0
  164.4716   30.1342  185.6184 C   0  0  0  0  0  0  0  0  0  0  0  0
  165.6659   30.6191  184.9898 C   0  0  0  0  0  0  0  0  0  0  0  0
  166.5739   29.7645  184.4700 C   0  0  0  0  0  0  0  0  0  0  0  0
  167.8129   29.8728  183.8619 C   0  0  0  0  0  0  0  0  0  0  0  0
  168.2738   28.5656  183.6253 C   0  0  0  0  0  0  0  0  0  0  0  0
  169.4688   28.2104  183.0568 C   0  0  0  0  0  0  0  0  0  0  0  0
  170.6862   28.9522  182.4550 C   0  0  0  0  0  0  0  0  0  0  0  0
  170.5963   28.7259  180.9224 C   0  0  0  0  0  0  0  0  0  0  0  0
  171.8697   29.1069  180.2810 C   0  0  0  0  0  0  0  0  0  0  0  0
  170.8498   30.3867  182.7713 C   0  0  0  0  0  0  0  0  0  0  0  0
  172.1504   30.7920  182.0402 C   0  0  0  0  0  0  0  0  0  0  0  0
  172.0806   30.5535  180.5566 N   0  0  0  0  0  0  0  0  0  0  0  0
  173.2535   31.1505  179.8172 C   0  0  0  0  0  0  0  0  0  0  0  0
  173.1259   31.0201  178.3786 C   0  0  0  0  0  0  0  0  0  0  0  0
  173.9949   30.1317  177.6984 C   0  0  0  0  0  0  0  0  0  0  0  0
  173.9549   29.9680  176.3039 C   0  0  0  0  0  0  0  0  0  0  0  0
  173.0369   30.7348  175.5829 C   0  0  0  0  0  0  0  0  0  0  0  0
  172.1519   31.5936  176.2633 C   0  0  0  0  0  0  0  0  0  0  0  0
  172.1889   31.7492  177.6501 C   0  0  0  0  0  0  0  0  0  0  0  0
  163.0229   28.4505  186.3052 O   0  0  0  0  0  0  0  0  0  0  0  0
  162.3306   27.2876  185.7845 C   0  0  0  0  0  0  0  0  0  0  0  0
  163.4384   30.8170  186.1289 O   0  0  0  0  0  0  0  0  0  0  0  0
  163.7328   32.1702  186.4942 C   0  0  0  0  0  0  0  0  0  0  0  0
 22 21  2  0  0  0
 22 23  1  0  0  0
 21 20  1  0  0  0
 23 24  2  0  0  0
 20 19  2  0  0  0
 24 19  1  0  0  0
 19 18  1  0  0  0
 18 17  1  0  0  0
 14 17  1  0  0  0
 14 13  1  0  0  0
 17 16  1  0  0  0
 13 12  1  0  0  0
 16 15  1  0  0  0
 12 15  1  0  0  0
 12 11  1  0  0  0
 11 10  2  0  0  0
 10  9  1  0  0  0
 10  2  1  0  0  0
  1  2  2  0  0  0
  9  8  1  0  0  0
  2  3  1  0  0  0
  8  3  2  0  0  0
  8  7  1  0  0  0
  3  4  1  0  0  0
  7  6  2  0  0  0
  4  5  2  0  0  0
  6  5  1  0  0  0
  6 27  1  0  0  0
  5 25  1  0  0  0
 26 25  1  0  0  0
 27 28  1  0  0  0
M  END
> <minimizedAffinity>
-11.83591

$$$$
5NAP_DZ7_A_611


 28 31  0  0  0  0  0  0  0  0999 V2000
  166.3404   26.4130  183.0939 O   0  0  0  0  0  0  0  0  0  0  0  0
  166.2677   27.6014  183.4404 C   0  0  0  0  0  0  0  0  0  0  0  0
  165.3705   28.1469  184.3309 C   0  0  0  0  0  0  0  0  0  0  0  0
  164.4059   27.5090  184.9992 C   0  0  0  0  0  0  0  0  0  0  0  0
  163.5627   28.1893  185.8690 C   0  0  0  0  0  0  0  0  0  0  0  0
  163.8010   29.5195  186.0316 C   0  0  0  0  0  0  0  0  0  0  0  0
  164.8384   30.1765  185.2908 C   0  0  0  0  0  0  0  0  0  0  0  0
  165.6132   29.4908  184.4222 C   0  0  0  0  0  0  0  0  0  0  0  0
  166.6970   29.7778  183.6100 C   0  0  0  0  0  0  0  0  0  0  0  0
  167.0925   28.5713  183.0057 C   0  0  0  0  0  0  0  0  0  0  0  0
  168.1397   28.3955  182.1398 C   0  0  0  0  0  0  0  0  0  0  0  0
  169.2064   29.2985  181.4755 C   0  0  0  0  0  0  0  0  0  0  0  0
  170.5321   28.9976  182.2240 C   0  0  0  0  0  0  0  0  0  0  0  0
  171.5389   30.0267  181.8995 C   0  0  0  0  0  0  0  0  0  0  0  0
  169.3877   29.1960  180.0122 C   0  0  0  0  0  0  0  0  0  0  0  0
  170.4912   30.2304  179.6917 C   0  0  0  0  0  0  0  0  0  0  0  0
  171.7726   29.9599  180.4317 N   0  0  0  0  0  0  0  0  0  0  0  0
  172.9120   30.8282  179.9555 C   0  0  0  0  0  0  0  0  0  0  0  0
  173.1394   30.7101  178.5282 C   0  0  0  0  0  0  0  0  0  0  0  0
  172.4374   31.5777  177.6555 C   0  0  0  0  0  0  0  0  0  0  0  0
  172.5798   31.5101  176.2598 C   0  0  0  0  0  0  0  0  0  0  0  0
  173.4281   30.5314  175.7371 C   0  0  0  0  0  0  0  0  0  0  0  0
  174.1500   29.6909  176.6068 C   0  0  0  0  0  0  0  0  0  0  0  0
  174.0120   29.7649  177.9939 C   0  0  0  0  0  0  0  0  0  0  0  0
  162.5222   27.6693  186.6204 O   0  0  0  0  0  0  0  0  0  0  0  0
  161.4458   27.0194  185.8979 C   0  0  0  0  0  0  0  0  0  0  0  0
  162.9011   30.0342  186.8799 O   0  0  0  0  0  0  0  0  0  0  0  0
  163.4315   30.9706  187.8249 C   0  0  0  0  0  0  0  0  0  0  0  0
 22 21  2  0  0  0
 22 23  1  0  0  0
 21 20  1  0  0  0
 23 24  2  0  0  0
 20 19  2  0  0  0
 24 19  1  0  0  0
 19 18  1  0  0  0
 18 17  1  0  0  0
 14 17  1  0  0  0
 14 13  1  0  0  0
 17 16  1  0  0  0
 13 12  1  0  0  0
 16 15  1  0  0  0
 12 15  1  0  0  0
 12 11  1  0  0  0
 11 10  2  0  0  0
 10  9  1  0  0  0
 10  2  1  0  0  0
  1  2  2  0  0  0
  9  8  1  0  0  0
  2  3  1  0  0  0
  8  3  2  0  0  0
  8  7  1  0  0  0
  3  4  1  0  0  0
  7  6  2  0  0  0
  4  5  2  0  0  0
  6  5  1  0  0  0
  6 27  1  0  0  0
  5 25  1  0  0  0
 26 25  1  0  0  0
 27 28  1  0  0  0
M  END
> <minimizedAffinity>
-10.90511

$$$$
5NAP_DZ7_A_611


 28 31  0  0  0  0  0  0  0  0999 V2000
  167.2112   32.2367  184.9958 O   0  0  0  0  0  0  0  0  0  0  0  0
  167.3361   31.0869  184.5489 C   0  0  0  0  0  0  0  0  0  0  0  0
  166.4475   30.0452  184.6935 C   0  0  0  0  0  0  0  0  0  0  0  0
  165.2777   30.0646  185.3377 C   0  0  0  0  0  0  0  0  0  0  0  0
  164.4776   28.9311  185.4101 C   0  0  0  0  0  0  0  0  0  0  0  0
  164.9290   27.8249  184.7578 C   0  0  0  0  0  0  0  0  0  0  0  0
  166.1950   27.8342  184.0842 C   0  0  0  0  0  0  0  0  0  0  0  0
  166.9662   28.9432  184.0691 C   0  0  0  0  0  0  0  0  0  0  0  0
  168.1714   29.3133  183.4970 C   0  0  0  0  0  0  0  0  0  0  0  0
  168.3800   30.6681  183.8107 C   0  0  0  0  0  0  0  0  0  0  0  0
  169.4432   31.4420  183.4260 C   0  0  0  0  0  0  0  0  0  0  0  0
  170.7477   31.2310  182.6210 C   0  0  0  0  0  0  0  0  0  0  0  0
  170.3169   30.5302  181.3051 C   0  0  0  0  0  0  0  0  0  0  0  0
  171.5017   29.9900  180.6104 C   0  0  0  0  0  0  0  0  0  0  0  0
  171.5892   32.4137  182.3419 C   0  0  0  0  0  0  0  0  0  0  0  0
  172.7942   31.8470  181.5562 C   0  0  0  0  0  0  0  0  0  0  0  0
  172.3835   31.1448  180.2908 N   0  0  0  0  0  0  0  0  0  0  0  0
  173.5613   30.7891  179.4162 C   0  0  0  0  0  0  0  0  0  0  0  0
  173.2601   30.9147  178.0033 C   0  0  0  0  0  0  0  0  0  0  0  0
  173.9815   30.1157  177.0823 C   0  0  0  0  0  0  0  0  0  0  0  0
  173.7699   30.1967  175.6961 C   0  0  0  0  0  0  0  0  0  0  0  0
  172.8300   31.1198  175.2323 C   0  0  0  0  0  0  0  0  0  0  0  0
  172.0906   31.8903  176.1506 C   0  0  0  0  0  0  0  0  0  0  0  0
  172.2978   31.8028  177.5283 C   0  0  0  0  0  0  0  0  0  0  0  0
  163.2529   28.7974  186.0424 O   0  0  0  0  0  0  0  0  0  0  0  0
  162.8880   29.8235  186.9999 C   0  0  0  0  0  0  0  0  0  0  0  0
  164.0636   26.8178  184.9343 O   0  0  0  0  0  0  0  0  0  0  0  0
  164.5748   25.7093  185.6835 C   0  0  0  0  0  0  0  0  0  0  0  0
 22 21  2  0  0  0
 22 23  1  0  0  0
 21 20  1  0  0  0
 23 24  2  0  0  0
 20 19  2  0  0  0
 24 19  1  0  0  0
 19 18  1  0  0  0
 18 17  1  0  0  0
 14 17  1  0  0  0
 14 13  1  0  0  0
 17 16  1  0  0  0
 13 12  1  0  0  0
 16 15  1  0  0  0
 12 15  1  0  0  0
 12 11  1  0  0  0
 11 10  2  0  0  0
 10  9  1  0  0  0
 10  2  1  0  0  0
  1  2  2  0  0  0
  9  8  1  0  0  0
  2  3  1  0  0  0
  8  3  2  0  0  0
  8  7  1  0  0  0
  3  4  1  0  0  0
  7  6  2  0  0  0
  4  5  2  0  0  0
  6  5  1  0  0  0
  6 27  1  0  0  0
  5 25  1  0  0  0
 26 25  1  0  0  0
 27 28  1  0  0  0
M  END
> <minimizedAffinity>
-10.90320

$$$$
5NAP_DZ7_A_611


 28 31  0  0  0  0  0  0  0  0999 V2000
  167.7825   26.4848  184.3519 O   0  0  0  0  0  0  0  0  0  0  0  0
  167.5947   27.6922  184.1414 C   0  0  0  0  0  0  0  0  0  0  0  0
  166.5608   28.4621  184.6251 C   0  0  0  0  0  0  0  0  0  0  0  0
  165.5602   28.0664  185.4163 C   0  0  0  0  0  0  0  0  0  0  0  0
  164.5742   28.9546  185.8278 C   0  0  0  0  0  0  0  0  0  0  0  0
  164.7089   30.2457  185.4182 C   0  0  0  0  0  0  0  0  0  0  0  0
  165.7896   30.6358  184.5600 C   0  0  0  0  0  0  0  0  0  0  0  0
  166.7080   29.7357  184.1460 C   0  0  0  0  0  0  0  0  0  0  0  0
  167.8662   29.7679  183.3882 C   0  0  0  0  0  0  0  0  0  0  0  0
  168.4074   28.4701  183.4036 C   0  0  0  0  0  0  0  0  0  0  0  0
  169.5641   28.0595  182.7950 C   0  0  0  0  0  0  0  0  0  0  0  0
  170.6493   28.7065  181.9014 C   0  0  0  0  0  0  0  0  0  0  0  0
  170.0299   28.7796  180.4804 C   0  0  0  0  0  0  0  0  0  0  0  0
  171.0808   29.0748  179.4871 C   0  0  0  0  0  0  0  0  0  0  0  0
  171.1938   30.0179  182.3116 C   0  0  0  0  0  0  0  0  0  0  0  0
  172.2461   30.3490  181.2282 C   0  0  0  0  0  0  0  0  0  0  0  0
  171.6586   30.3983  179.8444 N   0  0  0  0  0  0  0  0  0  0  0  0
  172.6290   30.9364  178.8209 C   0  0  0  0  0  0  0  0  0  0  0  0
  172.0488   31.9859  178.0054 C   0  0  0  0  0  0  0  0  0  0  0  0
  171.1839   32.9236  178.6216 C   0  0  0  0  0  0  0  0  0  0  0  0
  170.5599   33.9531  177.8979 C   0  0  0  0  0  0  0  0  0  0  0  0
  170.7954   34.0197  176.5229 C   0  0  0  0  0  0  0  0  0  0  0  0
  171.6806   33.1067  175.9174 C   0  0  0  0  0  0  0  0  0  0  0  0
  172.3051   32.0888  176.6402 C   0  0  0  0  0  0  0  0  0  0  0  0
  163.4808   28.6918  186.6358 O   0  0  0  0  0  0  0  0  0  0  0  0
  163.7021   27.8461  187.7928 C   0  0  0  0  0  0  0  0  0  0  0  0
  163.6795   30.9697  185.8771 O   0  0  0  0  0  0  0  0  0  0  0  0
  164.0481   32.1129  186.6570 C   0  0  0  0  0  0  0  0  0  0  0  0
 22 21  2  0  0  0
 22 23  1  0  0  0
 21 20  1  0  0  0
 23 24  2  0  0  0
 20 19  2  0  0  0
 24 19  1  0  0  0
 19 18  1  0  0  0
 18 17  1  0  0  0
 14 17  1  0  0  0
 14 13  1  0  0  0
 17 16  1  0  0  0
 13 12  1  0  0  0
 16 15  1  0  0  0
 12 15  1  0  0  0
 12 11  1  0  0  0
 11 10  2  0  0  0
 10  9  1  0  0  0
 10  2  1  0  0  0
  1  2  2  0  0  0
  9  8  1  0  0  0
  2  3  1  0  0  0
  8  3  2  0  0  0
  8  7  1  0  0  0
  3  4  1  0  0  0
  7  6  2  0  0  0
  4  5  2  0  0  0
  6  5  1  0  0  0
  6 27  1  0  0  0
  5 25  1  0  0  0
 26 25  1  0  0  0
 27 28  1  0  0  0
M  END
> <minimizedAffinity>
-10.69563

$$$$
5NAP_DZ7_A_611


 28 31  0  0  0  0  0  0  0  0999 V2000
  171.2396   29.1363  182.7037 O   0  0  0  0  0  0  0  0  0  0  0  0
  170.4969   29.1119  181.7111 C   0  0  0  0  0  0  0  0  0  0  0  0
  170.8263   29.4802  180.4260 C   0  0  0  0  0  0  0  0  0  0  0  0
  172.0059   29.9321  179.9921 C   0  0  0  0  0  0  0  0  0  0  0  0
  172.1991   30.2740  178.6594 C   0  0  0  0  0  0  0  0  0  0  0  0
  171.1423   30.0834  177.8230 C   0  0  0  0  0  0  0  0  0  0  0  0
  169.8857   29.6065  178.3229 C   0  0  0  0  0  0  0  0  0  0  0  0
  169.7216   29.3226  179.6334 C   0  0  0  0  0  0  0  0  0  0  0  0
  168.7060   28.8144  180.4252 C   0  0  0  0  0  0  0  0  0  0  0  0
  169.2202   28.6879  181.7278 C   0  0  0  0  0  0  0  0  0  0  0  0
  168.5573   28.2045  182.8251 C   0  0  0  0  0  0  0  0  0  0  0  0
  167.1335   27.6819  183.1321 C   0  0  0  0  0  0  0  0  0  0  0  0
  167.2180   27.0478  184.5460 C   0  0  0  0  0  0  0  0  0  0  0  0
  166.0143   26.2347  184.8066 C   0  0  0  0  0  0  0  0  0  0  0  0
  166.0101   28.6385  183.0454 C   0  0  0  0  0  0  0  0  0  0  0  0
  164.7618   27.7918  183.3853 C   0  0  0  0  0  0  0  0  0  0  0  0
  164.8461   27.1537  184.7449 N   0  0  0  0  0  0  0  0  0  0  0  0
  163.5451   26.5155  185.1680 C   0  0  0  0  0  0  0  0  0  0  0  0
  162.6934   27.4294  185.9043 C   0  0  0  0  0  0  0  0  0  0  0  0
  161.3231   27.1043  186.0586 C   0  0  0  0  0  0  0  0  0  0  0  0
  160.4259   27.9482  186.7336 C   0  0  0  0  0  0  0  0  0  0  0  0
  160.9183   29.1533  187.2395 C   0  0  0  0  0  0  0  0  0  0  0  0
  162.2872   29.4603  187.1136 C   0  0  0  0  0  0  0  0  0  0  0  0
  163.1783   28.6165  186.4484 C   0  0  0  0  0  0  0  0  0  0  0  0
  173.3536   30.7583  178.0678 O   0  0  0  0  0  0  0  0  0  0  0  0
  174.4130   29.8032  177.8064 C   0  0  0  0  0  0  0  0  0  0  0  0
  171.4760   30.4731  176.5855 O   0  0  0  0  0  0  0  0  0  0  0  0
  171.4387   29.4368  175.5976 C   0  0  0  0  0  0  0  0  0  0  0  0
 22 21  2  0  0  0
 22 23  1  0  0  0
 21 20  1  0  0  0
 23 24  2  0  0  0
 20 19  2  0  0  0
 24 19  1  0  0  0
 19 18  1  0  0  0
 18 17  1  0  0  0
 14 17  1  0  0  0
 14 13  1  0  0  0
 17 16  1  0  0  0
 13 12  1  0  0  0
 16 15  1  0  0  0
 12 15  1  0  0  0
 12 11  1  0  0  0
 11 10  2  0  0  0
 10  9  1  0  0  0
 10  2  1  0  0  0
  1  2  2  0  0  0
  9  8  1  0  0  0
  2  3  1  0  0  0
  8  3  2  0  0  0
  8  7  1  0  0  0
  3  4  1  0  0  0
  7  6  2  0  0  0
  4  5  2  0  0  0
  6  5  1  0  0  0
  6 27  1  0  0  0
  5 25  1  0  0  0
 26 25  1  0  0  0
 27 28  1  0  0  0
M  END
> <minimizedAffinity>
-10.63219

$$$$
5NAP_DZ7_A_611


 28 31  0  0  0  0  0  0  0  0999 V2000
  164.7296   26.0682  183.5567 O   0  0  0  0  0  0  0  0  0  0  0  0
  164.8678   27.1869  184.0734 C   0  0  0  0  0  0  0  0  0  0  0  0
  164.0129   27.7940  184.9656 C   0  0  0  0  0  0  0  0  0  0  0  0
  162.8713   27.3016  185.4537 C   0  0  0  0  0  0  0  0  0  0  0  0
  162.0989   28.0298  186.3501 C   0  0  0  0  0  0  0  0  0  0  0  0
  162.5886   29.2414  186.7309 C   0  0  0  0  0  0  0  0  0  0  0  0
  163.8127   29.7458  186.1798 C   0  0  0  0  0  0  0  0  0  0  0  0
  164.5173   29.0273  185.2785 C   0  0  0  0  0  0  0  0  0  0  0  0
  165.7176   29.1732  184.6043 C   0  0  0  0  0  0  0  0  0  0  0  0
  165.9173   28.0000  183.8554 C   0  0  0  0  0  0  0  0  0  0  0  0
  166.9919   27.7139  183.0551 C   0  0  0  0  0  0  0  0  0  0  0  0
  168.2873   28.4395  182.6191 C   0  0  0  0  0  0  0  0  0  0  0  0
  168.0954   28.7668  181.1143 C   0  0  0  0  0  0  0  0  0  0  0  0
  169.3851   29.1628  180.5162 C   0  0  0  0  0  0  0  0  0  0  0  0
  168.6971   29.6411  183.3759 C   0  0  0  0  0  0  0  0  0  0  0  0
  170.0138   30.0868  182.6989 C   0  0  0  0  0  0  0  0  0  0  0  0
  169.8419   30.3831  181.2342 N   0  0  0  0  0  0  0  0  0  0  0  0
  171.0637   31.0276  180.6253 C   0  0  0  0  0  0  0  0  0  0  0  0
  170.9507   32.4715  180.5534 C   0  0  0  0  0  0  0  0  0  0  0  0
  171.6344   33.2541  181.5162 C   0  0  0  0  0  0  0  0  0  0  0  0
  171.5548   34.6563  181.5332 C   0  0  0  0  0  0  0  0  0  0  0  0
  170.7497   35.2759  180.5748 C   0  0  0  0  0  0  0  0  0  0  0  0
  170.0964   34.4988  179.5984 C   0  0  0  0  0  0  0  0  0  0  0  0
  170.1828   33.1057  179.5795 C   0  0  0  0  0  0  0  0  0  0  0  0
  160.8990   27.6571  186.9322 O   0  0  0  0  0  0  0  0  0  0  0  0
  160.5400   26.2537  186.8656 C   0  0  0  0  0  0  0  0  0  0  0  0
  161.7291   29.8249  187.5766 O   0  0  0  0  0  0  0  0  0  0  0  0
  161.9450   31.2257  187.7827 C   0  0  0  0  0  0  0  0  0  0  0  0
 22 21  2  0  0  0
 22 23  1  0  0  0
 21 20  1  0  0  0
 23 24  2  0  0  0
 20 19  2  0  0  0
 24 19  1  0  0  0
 19 18  1  0  0  0
 18 17  1  0  0  0
 14 17  1  0  0  0
 14 13  1  0  0  0
 17 16  1  0  0  0
 13 12  1  0  0  0
 16 15  1  0  0  0
 12 15  1  0  0  0
 12 11  1  0  0  0
 11 10  2  0  0  0
 10  9  1  0  0  0
 10  2  1  0  0  0
  1  2  2  0  0  0
  9  8  1  0  0  0
  2  3  1  0  0  0
  8  3  2  0  0  0
  8  7  1  0  0  0
  3  4  1  0  0  0
  7  6  2  0  0  0
  4  5  2  0  0  0
  6  5  1  0  0  0
  6 27  1  0  0  0
  5 25  1  0  0  0
 26 25  1  0  0  0
 27 28  1  0  0  0
M  END
> <minimizedAffinity>
-10.11738

$$$$
5NAP_DZ7_A_611


 28 31  0  0  0  0  0  0  0  0999 V2000
  163.4675   30.9241  186.7227 O   0  0  0  0  0  0  0  0  0  0  0  0
  163.2530   29.7466  186.3985 C   0  0  0  0  0  0  0  0  0  0  0  0
  162.1360   28.9996  186.6982 C   0  0  0  0  0  0  0  0  0  0  0  0
  161.0638   29.3918  187.3915 C   0  0  0  0  0  0  0  0  0  0  0  0
  160.0024   28.5262  187.6253 C   0  0  0  0  0  0  0  0  0  0  0  0
  160.0981   27.2840  187.0770 C   0  0  0  0  0  0  0  0  0  0  0  0
  161.2681   26.8908  186.3468 C   0  0  0  0  0  0  0  0  0  0  0  0
  162.2995   27.7460  186.1739 C   0  0  0  0  0  0  0  0  0  0  0  0
  163.5131   27.7245  185.5079 C   0  0  0  0  0  0  0  0  0  0  0  0
  164.0923   28.9966  185.6615 C   0  0  0  0  0  0  0  0  0  0  0  0
  165.2891   29.4178  185.1444 C   0  0  0  0  0  0  0  0  0  0  0  0
  166.4286   28.7909  184.3059 C   0  0  0  0  0  0  0  0  0  0  0  0
  167.4013   29.9572  183.9865 C   0  0  0  0  0  0  0  0  0  0  0  0
  168.3458   29.5504  182.9280 C   0  0  0  0  0  0  0  0  0  0  0  0
  167.1537   27.6357  184.8755 C   0  0  0  0  0  0  0  0  0  0  0  0
  168.1852   27.2592  183.7870 C   0  0  0  0  0  0  0  0  0  0  0  0
  169.1171   28.3921  183.4540 N   0  0  0  0  0  0  0  0  0  0  0  0
  170.2569   27.9628  182.5621 C   0  0  0  0  0  0  0  0  0  0  0  0
  171.0176   29.0883  182.0550 C   0  0  0  0  0  0  0  0  0  0  0  0
  171.4864   29.0433  180.7188 C   0  0  0  0  0  0  0  0  0  0  0  0
  172.2529   30.0791  180.1600 C   0  0  0  0  0  0  0  0  0  0  0  0
  172.5717   31.1677  180.9749 C   0  0  0  0  0  0  0  0  0  0  0  0
  172.0781   31.2263  182.2928 C   0  0  0  0  0  0  0  0  0  0  0  0
  171.3104   30.1986  182.8435 C   0  0  0  0  0  0  0  0  0  0  0  0
  158.8365   28.7852  188.3260 O   0  0  0  0  0  0  0  0  0  0  0  0
  158.7248   30.0811  188.9671 C   0  0  0  0  0  0  0  0  0  0  0  0
  159.0148   26.5669  187.4034 O   0  0  0  0  0  0  0  0  0  0  0  0
  159.2876   25.3557  188.1175 C   0  0  0  0  0  0  0  0  0  0  0  0
 22 21  2  0  0  0
 22 23  1  0  0  0
 21 20  1  0  0  0
 23 24  2  0  0  0
 20 19  2  0  0  0
 24 19  1  0  0  0
 19 18  1  0  0  0
 18 17  1  0  0  0
 14 17  1  0  0  0
 14 13  1  0  0  0
 17 16  1  0  0  0
 13 12  1  0  0  0
 16 15  1  0  0  0
 12 15  1  0  0  0
 12 11  1  0  0  0
 11 10  2  0  0  0
 10  9  1  0  0  0
 10  2  1  0  0  0
  1  2  2  0  0  0
  9  8  1  0  0  0
  2  3  1  0  0  0
  8  3  2  0  0  0
  8  7  1  0  0  0
  3  4  1  0  0  0
  7  6  2  0  0  0
  4  5  2  0  0  0
  6  5  1  0  0  0
  6 27  1  0  0  0
  5 25  1  0  0  0
 26 25  1  0  0  0
 27 28  1  0  0  0
M  END
> <minimizedAffinity>
-9.98285

$$$$
5NAP_DZ7_A_611


 28 31  0  0  0  0  0  0  0  0999 V2000
  165.1533   32.4483  185.8020 O   0  0  0  0  0  0  0  0  0  0  0  0
  165.0700   31.2131  185.7326 C   0  0  0  0  0  0  0  0  0  0  0  0
  164.0343   30.4298  186.1902 C   0  0  0  0  0  0  0  0  0  0  0  0
  162.9163   30.8408  186.7944 C   0  0  0  0  0  0  0  0  0  0  0  0
  161.9495   29.9345  187.2119 C   0  0  0  0  0  0  0  0  0  0  0  0
  162.1848   28.6229  186.9345 C   0  0  0  0  0  0  0  0  0  0  0  0
  163.4007   28.2136  186.2937 C   0  0  0  0  0  0  0  0  0  0  0  0
  164.3379   29.1193  185.9381 C   0  0  0  0  0  0  0  0  0  0  0  0
  165.5567   29.0895  185.2821 C   0  0  0  0  0  0  0  0  0  0  0  0
  165.9951   30.4202  185.1622 C   0  0  0  0  0  0  0  0  0  0  0  0
  167.1480   30.8499  184.5594 C   0  0  0  0  0  0  0  0  0  0  0  0
  168.3601   30.1876  183.8617 C   0  0  0  0  0  0  0  0  0  0  0  0
  167.7737   29.4189  182.6478 C   0  0  0  0  0  0  0  0  0  0  0  0
  168.7837   28.4909  182.1032 C   0  0  0  0  0  0  0  0  0  0  0  0
  169.4821   31.0566  183.4483 C   0  0  0  0  0  0  0  0  0  0  0  0
  170.5055   30.0835  182.8189 C   0  0  0  0  0  0  0  0  0  0  0  0
  169.9378   29.3165  181.6561 N   0  0  0  0  0  0  0  0  0  0  0  0
  170.9905   28.5373  180.9054 C   0  0  0  0  0  0  0  0  0  0  0  0
  171.6639   29.3399  179.9028 C   0  0  0  0  0  0  0  0  0  0  0  0
  171.4301   29.0531  178.5353 C   0  0  0  0  0  0  0  0  0  0  0  0
  172.0635   29.7647  177.5032 C   0  0  0  0  0  0  0  0  0  0  0  0
  172.9680   30.7669  177.8611 C   0  0  0  0  0  0  0  0  0  0  0  0
  173.1753   31.0725  179.2204 C   0  0  0  0  0  0  0  0  0  0  0  0
  172.5390   30.3685  180.2441 C   0  0  0  0  0  0  0  0  0  0  0  0
  160.7523   30.2076  187.8520 O   0  0  0  0  0  0  0  0  0  0  0  0
  160.7306   31.3394  188.7583 C   0  0  0  0  0  0  0  0  0  0  0  0
  161.1791   27.8778  187.4118 O   0  0  0  0  0  0  0  0  0  0  0  0
  160.9935   26.6218  186.7491 C   0  0  0  0  0  0  0  0  0  0  0  0
 22 21  2  0  0  0
 22 23  1  0  0  0
 21 20  1  0  0  0
 23 24  2  0  0  0
 20 19  2  0  0  0
 24 19  1  0  0  0
 19 18  1  0  0  0
 18 17  1  0  0  0
 14 17  1  0  0  0
 14 13  1  0  0  0
 17 16  1  0  0  0
 13 12  1  0  0  0
 16 15  1  0  0  0
 12 15  1  0  0  0
 12 11  1  0  0  0
 11 10  2  0  0  0
 10  9  1  0  0  0
 10  2  1  0  0  0
  1  2  2  0  0  0
  9  8  1  0  0  0
  2  3  1  0  0  0
  8  3  2  0  0  0
  8  7  1  0  0  0
  3  4  1  0  0  0
  7  6  2  0  0  0
  4  5  2  0  0  0
  6  5  1  0  0  0
  6 27  1  0  0  0
  5 25  1  0  0  0
 26 25  1  0  0  0
 27 28  1  0  0  0
M  END
> <minimizedAffinity>
-9.70326

$$$$
5NAP_DZ7_A_611


 28 31  0  0  0  0  0  0  0  0999 V2000
  168.2210   32.0437  184.4436 O   0  0  0  0  0  0  0  0  0  0  0  0
  168.5190   31.0253  183.8021 C   0  0  0  0  0  0  0  0  0  0  0  0
  169.6088   30.8603  182.9770 C   0  0  0  0  0  0  0  0  0  0  0  0
  170.5602   31.7577  182.7059 C   0  0  0  0  0  0  0  0  0  0  0  0
  171.6081   31.4569  181.8447 C   0  0  0  0  0  0  0  0  0  0  0  0
  171.6325   30.1958  181.3330 C   0  0  0  0  0  0  0  0  0  0  0  0
  170.5895   29.2593  181.6358 C   0  0  0  0  0  0  0  0  0  0  0  0
  169.5631   29.5999  182.4454 C   0  0  0  0  0  0  0  0  0  0  0  0
  168.4551   28.9609  182.9752 C   0  0  0  0  0  0  0  0  0  0  0  0
  167.8165   29.8782  183.8285 C   0  0  0  0  0  0  0  0  0  0  0  0
  166.6892   29.6532  184.5740 C   0  0  0  0  0  0  0  0  0  0  0  0
  165.6994   28.4818  184.7805 C   0  0  0  0  0  0  0  0  0  0  0  0
  164.7760   28.9175  185.9492 C   0  0  0  0  0  0  0  0  0  0  0  0
  164.0107   27.7577  186.4463 C   0  0  0  0  0  0  0  0  0  0  0  0
  164.9068   28.0305  183.6174 C   0  0  0  0  0  0  0  0  0  0  0  0
  164.0598   26.8588  184.1653 C   0  0  0  0  0  0  0  0  0  0  0  0
  163.1791   27.2670  185.3144 N   0  0  0  0  0  0  0  0  0  0  0  0
  162.1953   26.1898  185.7026 C   0  0  0  0  0  0  0  0  0  0  0  0
  161.0226   26.7242  186.3675 C   0  0  0  0  0  0  0  0  0  0  0  0
  160.8673   28.1304  186.4427 C   0  0  0  0  0  0  0  0  0  0  0  0
  159.7751   28.7283  187.0927 C   0  0  0  0  0  0  0  0  0  0  0  0
  158.8371   27.8893  187.6985 C   0  0  0  0  0  0  0  0  0  0  0  0
  158.9755   26.4914  187.5953 C   0  0  0  0  0  0  0  0  0  0  0  0
  160.0583   25.8997  186.9425 C   0  0  0  0  0  0  0  0  0  0  0  0
  172.6559   32.2792  181.4656 O   0  0  0  0  0  0  0  0  0  0  0  0
  173.4984   32.8056  182.5221 C   0  0  0  0  0  0  0  0  0  0  0  0
  172.6841   30.0664  180.5135 O   0  0  0  0  0  0  0  0  0  0  0  0
  172.4004   29.4188  179.2679 C   0  0  0  0  0  0  0  0  0  0  0  0
 22 21  2  0  0  0
 22 23  1  0  0  0
 21 20  1  0  0  0
 23 24  2  0  0  0
 20 19  2  0  0  0
 24 19  1  0  0  0
 19 18  1  0  0  0
 18 17  1  0  0  0
 14 17  1  0  0  0
 14 13  1  0  0  0
 17 16  1  0  0  0
 13 12  1  0  0  0
 16 15  1  0  0  0
 12 15  1  0  0  0
 12 11  1  0  0  0
 11 10  2  0  0  0
 10  9  1  0  0  0
 10  2  1  0  0  0
  1  2  2  0  0  0
  9  8  1  0  0  0
  2  3  1  0  0  0
  8  3  2  0  0  0
  8  7  1  0  0  0
  3  4  1  0  0  0
  7  6  2  0  0  0
  4  5  2  0  0  0
  6  5  1  0  0  0
  6 27  1  0  0  0
  5 25  1  0  0  0
 26 25  1  0  0  0
 27 28  1  0  0  0
M  END
> <minimizedAffinity>
-9.57690

$$$$
5NAP_DZ7_A_611


 28 31  0  0  0  0  0  0  0  0999 V2000
  167.2829   27.5428  183.6929 O   0  0  0  0  0  0  0  0  0  0  0  0
  167.6573   28.7235  183.7508 C   0  0  0  0  0  0  0  0  0  0  0  0
  167.2312   29.6805  184.6443 C   0  0  0  0  0  0  0  0  0  0  0  0
  166.3367   29.5294  185.6246 C   0  0  0  0  0  0  0  0  0  0  0  0
  165.9942   30.5892  186.4552 C   0  0  0  0  0  0  0  0  0  0  0  0
  166.6467   31.7647  186.2424 C   0  0  0  0  0  0  0  0  0  0  0  0
  167.5943   31.8966  185.1741 C   0  0  0  0  0  0  0  0  0  0  0  0
  167.8727   30.8555  184.3595 C   0  0  0  0  0  0  0  0  0  0  0  0
  168.7353   30.6175  183.3031 C   0  0  0  0  0  0  0  0  0  0  0  0
  168.5832   29.2675  182.9404 C   0  0  0  0  0  0  0  0  0  0  0  0
  169.2621   28.6052  181.9516 C   0  0  0  0  0  0  0  0  0  0  0  0
  170.3291   28.9671  180.8910 C   0  0  0  0  0  0  0  0  0  0  0  0
  169.5402   29.5462  179.6866 C   0  0  0  0  0  0  0  0  0  0  0  0
  170.4149   29.6215  178.5003 C   0  0  0  0  0  0  0  0  0  0  0  0
  171.4261   29.8729  181.2921 C   0  0  0  0  0  0  0  0  0  0  0  0
  172.2999   29.9983  180.0228 C   0  0  0  0  0  0  0  0  0  0  0  0
  171.5367   30.5365  178.8436 N   0  0  0  0  0  0  0  0  0  0  0  0
  172.4327   30.8681  177.6748 C   0  0  0  0  0  0  0  0  0  0  0  0
  172.0198   32.0751  176.9853 C   0  0  0  0  0  0  0  0  0  0  0  0
  171.1659   32.9828  177.6591 C   0  0  0  0  0  0  0  0  0  0  0  0
  170.6984   34.1603  177.0526 C   0  0  0  0  0  0  0  0  0  0  0  0
  171.0813   34.4111  175.7331 C   0  0  0  0  0  0  0  0  0  0  0  0
  171.9561   33.5244  175.0754 C   0  0  0  0  0  0  0  0  0  0  0  0
  172.4250   32.3584  175.6830 C   0  0  0  0  0  0  0  0  0  0  0  0
  165.0867   30.5868  187.5012 O   0  0  0  0  0  0  0  0  0  0  0  0
  163.6813   30.6830  187.1570 C   0  0  0  0  0  0  0  0  0  0  0  0
  166.1977   32.6872  187.1037 O   0  0  0  0  0  0  0  0  0  0  0  0
  167.1626   33.1357  188.0623 C   0  0  0  0  0  0  0  0  0  0  0  0
 22 21  2  0  0  0
 22 23  1  0  0  0
 21 20  1  0  0  0
 23 24  2  0  0  0
 20 19  2  0  0  0
 24 19  1  0  0  0
 19 18  1  0  0  0
 18 17  1  0  0  0
 14 17  1  0  0  0
 14 13  1  0  0  0
 17 16  1  0  0  0
 13 12  1  0  0  0
 16 15  1  0  0  0
 12 15  1  0  0  0
 12 11  1  0  0  0
 11 10  2  0  0  0
 10  9  1  0  0  0
 10  2  1  0  0  0
  1  2  2  0  0  0
  9  8  1  0  0  0
  2  3  1  0  0  0
  8  3  2  0  0  0
  8  7  1  0  0  0
  3  4  1  0  0  0
  7  6  2  0  0  0
  4  5  2  0  0  0
  6  5  1  0  0  0
  6 27  1  0  0  0
  5 25  1  0  0  0
 26 25  1  0  0  0
 27 28  1  0  0  0
M  END
> <minimizedAffinity>
-9.56276

$$$$
