1OWH_239_A_1001


 30 32  0  0  0  0  0  0  0  0999 V2000
   19.1168   18.5949   33.8230 C   0  0  0  0  0  0  0  0  0  0  0  0
   20.5345   18.5686   34.0048 C   0  0  0  0  0  0  0  0  0  0  0  0
   21.3576   17.4497   33.8525 C   0  0  0  0  0  0  0  0  0  0  0  0
   22.7124   17.5586   34.1745 C   0  0  0  0  0  0  0  0  0  0  0  0
   23.4414   16.3587   34.0577 C   0  0  0  0  0  0  0  0  0  0  0  0
   23.0073   15.1033   33.5838 C   0  0  0  0  0  0  0  0  0  0  0  0
   21.6246   15.1171   33.3417 C   0  0  0  0  0  0  0  0  0  0  0  0
   20.7505   16.2242   33.4689 C   0  0  0  0  0  0  0  0  0  0  0  0
   19.3732   16.0726   33.2700 C   0  0  0  0  0  0  0  0  0  0  0  0
   18.6137   17.2512   33.4540 C   0  0  0  0  0  0  0  0  0  0  0  0
   16.9658   19.6038   33.8164 N   0  0  0  0  0  0  0  0  0  0  0  0
   18.3013   19.7992   33.9250 C   0  0  0  0  0  0  0  0  0  0  0  0
   18.9431   20.9834   34.0216 N   0  0  0  0  0  0  0  0  0  0  0  0
   16.3499   20.3695   33.8752 H   0  0  0  0  0  0  0  0  0  0  0  0
   18.4269   21.8187   34.0923 H   0  0  0  0  0  0  0  0  0  0  0  0
   19.9272   21.0114   34.0215 H   0  0  0  0  0  0  0  0  0  0  0  0
   23.8968   13.9849   33.3176 C   0  0  0  0  0  0  0  0  0  0  0  0
   25.1017   14.2627   33.2770 O   0  0  0  0  0  0  0  0  0  0  0  0
   23.4060   12.7660   32.9741 N   0  0  0  0  0  0  0  0  0  0  0  0
   22.4239   12.6975   32.9742 H   0  0  0  0  0  0  0  0  0  0  0  0
   24.0853   11.5853   32.6179 C   0  0  0  0  0  0  0  0  0  0  0  0
   25.2303   11.6216   31.7873 C   0  0  0  0  0  0  0  0  0  0  0  0
   25.8292   10.3898   31.4397 C   0  0  0  0  0  0  0  0  0  0  0  0
   25.3059    9.2010   32.0086 C   0  0  0  0  0  0  0  0  0  0  0  0
   24.2080    9.1763   32.8930 C   0  0  0  0  0  0  0  0  0  0  0  0
   23.5399   10.3948   33.1082 C   0  0  0  0  0  0  0  0  0  0  0  0
   25.9375    7.8930   31.5940 C   0  0  0  0  0  0  0  0  0  0  0  0
   26.4653    7.9250   30.2413 N   0  0  0  0  0  0  0  0  0  0  0  0
   25.7052    8.0997   29.5838 H   0  0  0  0  0  0  0  0  0  0  0  0
   26.9022    7.0289   30.0255 H   0  0  0  0  0  0  0  0  0  0  0  0
 11 12  2  0  0  0
 12 13  1  0  0  0
 12  1  1  0  0  0
  1  2  2  0  0  0
  1 10  1  0  0  0
  2  3  1  0  0  0
  3  4  2  0  0  0
  3  8  1  0  0  0
  4  5  1  0  0  0
  5  6  2  0  0  0
  6  7  1  0  0  0
  6 17  1  0  0  0
  7  8  2  0  0  0
  8  9  1  0  0  0
  9 10  2  0  0  0
 17 18  2  0  0  0
 17 19  1  0  0  0
 19 21  1  0  0  0
 21 22  2  0  0  0
 21 26  1  0  0  0
 22 23  1  0  0  0
 23 24  2  0  0  0
 24 25  1  0  0  0
 24 27  1  0  0  0
 25 26  2  0  0  0
 27 28  1  0  0  0
 11 14  1  0  0  0
 13 15  1  0  0  0
 13 16  1  0  0  0
 19 20  1  0  0  0
 28 29  1  0  0  0
 28 30  1  0  0  0
M  END
> <minimizedAffinity>
-8.84406

$$$$
1OWH_239_A_1001


 30 32  0  0  0  0  0  0  0  0999 V2000
   19.3345   18.6442   33.5198 C   0  0  0  0  0  0  0  0  0  0  0  0
   20.6015   18.5217   34.1706 C   0  0  0  0  0  0  0  0  0  0  0  0
   21.5818   17.5699   33.8787 C   0  0  0  0  0  0  0  0  0  0  0  0
   22.7243   17.5088   34.6799 C   0  0  0  0  0  0  0  0  0  0  0  0
   23.6170   16.4698   34.3505 C   0  0  0  0  0  0  0  0  0  0  0  0
   23.5499   15.5527   33.2813 C   0  0  0  0  0  0  0  0  0  0  0  0
   22.3373   15.6896   32.5873 C   0  0  0  0  0  0  0  0  0  0  0  0
   21.3192   16.6426   32.8352 C   0  0  0  0  0  0  0  0  0  0  0  0
   20.1215   16.6119   32.1114 C   0  0  0  0  0  0  0  0  0  0  0  0
   19.1813   17.6028   32.4774 C   0  0  0  0  0  0  0  0  0  0  0  0
   18.8950   20.9102   34.0826 N   0  0  0  0  0  0  0  0  0  0  0  0
   18.3653   19.6948   33.8075 C   0  0  0  0  0  0  0  0  0  0  0  0
   17.0622   19.3455   33.8648 N   0  0  0  0  0  0  0  0  0  0  0  0
   18.3034   21.6702   34.2869 H   0  0  0  0  0  0  0  0  0  0  0  0
   16.3779   20.0268   34.0566 H   0  0  0  0  0  0  0  0  0  0  0  0
   16.7963   18.4095   33.7146 H   0  0  0  0  0  0  0  0  0  0  0  0
   24.6297   14.6499   32.9179 C   0  0  0  0  0  0  0  0  0  0  0  0
   25.7030   14.8436   33.5020 O   0  0  0  0  0  0  0  0  0  0  0  0
   24.4947   13.7753   31.8876 N   0  0  0  0  0  0  0  0  0  0  0  0
   23.6089   13.7715   31.4580 H   0  0  0  0  0  0  0  0  0  0  0  0
   25.4263   12.8732   31.3392 C   0  0  0  0  0  0  0  0  0  0  0  0
   25.5499   11.5549   31.8383 C   0  0  0  0  0  0  0  0  0  0  0  0
   26.5386   10.7248   31.2635 C   0  0  0  0  0  0  0  0  0  0  0  0
   27.2872   11.2262   30.1686 C   0  0  0  0  0  0  0  0  0  0  0  0
   27.1112   12.5166   29.6280 C   0  0  0  0  0  0  0  0  0  0  0  0
   26.2266   13.3731   30.3074 C   0  0  0  0  0  0  0  0  0  0  0  0
   28.3640   10.3361   29.5943 C   0  0  0  0  0  0  0  0  0  0  0  0
   28.1219    9.9808   28.2070 N   0  0  0  0  0  0  0  0  0  0  0  0
   27.2483    9.4588   28.1372 H   0  0  0  0  0  0  0  0  0  0  0  0
   28.8906    9.4045   27.8645 H   0  0  0  0  0  0  0  0  0  0  0  0
 11 12  2  0  0  0
 12 13  1  0  0  0
 12  1  1  0  0  0
  1  2  2  0  0  0
  1 10  1  0  0  0
  2  3  1  0  0  0
  3  4  2  0  0  0
  3  8  1  0  0  0
  4  5  1  0  0  0
  5  6  2  0  0  0
  6  7  1  0  0  0
  6 17  1  0  0  0
  7  8  2  0  0  0
  8  9  1  0  0  0
  9 10  2  0  0  0
 17 18  2  0  0  0
 17 19  1  0  0  0
 19 21  1  0  0  0
 21 22  2  0  0  0
 21 26  1  0  0  0
 22 23  1  0  0  0
 23 24  2  0  0  0
 24 25  1  0  0  0
 24 27  1  0  0  0
 25 26  2  0  0  0
 27 28  1  0  0  0
 11 14  1  0  0  0
 13 15  1  0  0  0
 13 16  1  0  0  0
 19 20  1  0  0  0
 28 29  1  0  0  0
 28 30  1  0  0  0
M  END
> <minimizedAffinity>
-8.51733

$$$$
1OWH_239_A_1001


 30 32  0  0  0  0  0  0  0  0999 V2000
   26.7643   10.0377   30.8165 C   0  0  0  0  0  0  0  0  0  0  0  0
   25.6344   10.1320   31.6872 C   0  0  0  0  0  0  0  0  0  0  0  0
   25.0075   11.3148   32.0878 C   0  0  0  0  0  0  0  0  0  0  0  0
   23.9813   11.2491   33.0329 C   0  0  0  0  0  0  0  0  0  0  0  0
   23.4641   12.4996   33.4252 C   0  0  0  0  0  0  0  0  0  0  0  0
   23.7834   13.7819   32.9328 C   0  0  0  0  0  0  0  0  0  0  0  0
   24.8555   13.7121   32.0293 C   0  0  0  0  0  0  0  0  0  0  0  0
   25.5158   12.5414   31.5828 C   0  0  0  0  0  0  0  0  0  0  0  0
   26.6274   12.6278   30.7365 C   0  0  0  0  0  0  0  0  0  0  0  0
   27.2066   11.3854   30.3888 C   0  0  0  0  0  0  0  0  0  0  0  0
   28.6599    8.8366   30.0362 N   0  0  0  0  0  0  0  0  0  0  0  0
   27.3483    8.7794   30.3676 C   0  0  0  0  0  0  0  0  0  0  0  0
   26.5235    7.7182   30.2364 N   0  0  0  0  0  0  0  0  0  0  0  0
   29.1245    8.0267   29.7239 H   0  0  0  0  0  0  0  0  0  0  0  0
   26.8806    6.8515   29.9357 H   0  0  0  0  0  0  0  0  0  0  0  0
   25.5651    7.8113   30.4416 H   0  0  0  0  0  0  0  0  0  0  0  0
   23.0437   14.9872   33.2689 C   0  0  0  0  0  0  0  0  0  0  0  0
   23.5747   15.7178   34.1145 O   0  0  0  0  0  0  0  0  0  0  0  0
   21.7846   15.1896   32.8015 N   0  0  0  0  0  0  0  0  0  0  0  0
   21.4503   14.4935   32.1909 H   0  0  0  0  0  0  0  0  0  0  0  0
   20.8839   16.2415   33.0555 C   0  0  0  0  0  0  0  0  0  0  0  0
   19.5099   15.9902   33.2821 C   0  0  0  0  0  0  0  0  0  0  0  0
   18.6634   17.1031   33.4862 C   0  0  0  0  0  0  0  0  0  0  0  0
   19.2473   18.3941   33.5389 C   0  0  0  0  0  0  0  0  0  0  0  0
   20.6282   18.6334   33.3834 C   0  0  0  0  0  0  0  0  0  0  0  0
   21.4276   17.5296   33.0372 C   0  0  0  0  0  0  0  0  0  0  0  0
   18.3193   19.5721   33.7204 C   0  0  0  0  0  0  0  0  0  0  0  0
   18.6513   20.3782   34.8820 N   0  0  0  0  0  0  0  0  0  0  0  0
   18.5656   19.8108   35.7253 H   0  0  0  0  0  0  0  0  0  0  0  0
   18.0123   21.1712   34.9395 H   0  0  0  0  0  0  0  0  0  0  0  0
 11 12  2  0  0  0
 12 13  1  0  0  0
 12  1  1  0  0  0
  1  2  2  0  0  0
  1 10  1  0  0  0
  2  3  1  0  0  0
  3  4  2  0  0  0
  3  8  1  0  0  0
  4  5  1  0  0  0
  5  6  2  0  0  0
  6  7  1  0  0  0
  6 17  1  0  0  0
  7  8  2  0  0  0
  8  9  1  0  0  0
  9 10  2  0  0  0
 17 18  2  0  0  0
 17 19  1  0  0  0
 19 21  1  0  0  0
 21 22  2  0  0  0
 21 26  1  0  0  0
 22 23  1  0  0  0
 23 24  2  0  0  0
 24 25  1  0  0  0
 24 27  1  0  0  0
 25 26  2  0  0  0
 27 28  1  0  0  0
 11 14  1  0  0  0
 13 15  1  0  0  0
 13 16  1  0  0  0
 19 20  1  0  0  0
 28 29  1  0  0  0
 28 30  1  0  0  0
M  END
> <minimizedAffinity>
-8.28050

$$$$
1OWH_239_A_1001


 30 32  0  0  0  0  0  0  0  0999 V2000
   25.4979    8.8175   32.4868 C   0  0  0  0  0  0  0  0  0  0  0  0
   25.8286   10.1115   31.9770 C   0  0  0  0  0  0  0  0  0  0  0  0
   25.1548   11.3009   32.2668 C   0  0  0  0  0  0  0  0  0  0  0  0
   25.5311   12.4700   31.6016 C   0  0  0  0  0  0  0  0  0  0  0  0
   24.7448   13.5982   31.9079 C   0  0  0  0  0  0  0  0  0  0  0  0
   23.6998   13.7186   32.8471 C   0  0  0  0  0  0  0  0  0  0  0  0
   23.3917   12.4688   33.4073 C   0  0  0  0  0  0  0  0  0  0  0  0
   24.0495   11.2398   33.1569 C   0  0  0  0  0  0  0  0  0  0  0  0
   23.5820   10.0507   33.7286 C   0  0  0  0  0  0  0  0  0  0  0  0
   24.3148    8.8940   33.3751 C   0  0  0  0  0  0  0  0  0  0  0  0
   26.2810    7.2126   30.9196 N   0  0  0  0  0  0  0  0  0  0  0  0
   26.2678    7.6097   32.2141 C   0  0  0  0  0  0  0  0  0  0  0  0
   26.8068    6.9598   33.2679 N   0  0  0  0  0  0  0  0  0  0  0  0
   26.7797    6.4053   30.6574 H   0  0  0  0  0  0  0  0  0  0  0  0
   27.3334    6.1405   33.1241 H   0  0  0  0  0  0  0  0  0  0  0  0
   26.6732    7.3053   34.1801 H   0  0  0  0  0  0  0  0  0  0  0  0
   23.0900   14.9829   33.2245 C   0  0  0  0  0  0  0  0  0  0  0  0
   23.6991   15.6304   34.0849 O   0  0  0  0  0  0  0  0  0  0  0  0
   21.8550   15.3266   32.7756 N   0  0  0  0  0  0  0  0  0  0  0  0
   21.4467   14.6863   32.1490 H   0  0  0  0  0  0  0  0  0  0  0  0
   21.0687   16.4572   33.0683 C   0  0  0  0  0  0  0  0  0  0  0  0
   21.6310   17.7556   33.0849 C   0  0  0  0  0  0  0  0  0  0  0  0
   20.7852   18.8335   33.4306 C   0  0  0  0  0  0  0  0  0  0  0  0
   19.4107   18.5674   33.6551 C   0  0  0  0  0  0  0  0  0  0  0  0
   18.8401   17.2808   33.5675 C   0  0  0  0  0  0  0  0  0  0  0  0
   19.7257   16.2072   33.3662 C   0  0  0  0  0  0  0  0  0  0  0  0
   18.5328   19.7280   34.0600 C   0  0  0  0  0  0  0  0  0  0  0  0
   17.1177   19.4543   33.8814 N   0  0  0  0  0  0  0  0  0  0  0  0
   16.9272   19.2790   32.8948 H   0  0  0  0  0  0  0  0  0  0  0  0
   16.5737   20.2581   34.1950 H   0  0  0  0  0  0  0  0  0  0  0  0
 11 12  2  0  0  0
 12 13  1  0  0  0
 12  1  1  0  0  0
  1  2  2  0  0  0
  1 10  1  0  0  0
  2  3  1  0  0  0
  3  4  2  0  0  0
  3  8  1  0  0  0
  4  5  1  0  0  0
  5  6  2  0  0  0
  6  7  1  0  0  0
  6 17  1  0  0  0
  7  8  2  0  0  0
  8  9  1  0  0  0
  9 10  2  0  0  0
 17 18  2  0  0  0
 17 19  1  0  0  0
 19 21  1  0  0  0
 21 22  2  0  0  0
 21 26  1  0  0  0
 22 23  1  0  0  0
 23 24  2  0  0  0
 24 25  1  0  0  0
 24 27  1  0  0  0
 25 26  2  0  0  0
 27 28  1  0  0  0
 11 14  1  0  0  0
 13 15  1  0  0  0
 13 16  1  0  0  0
 19 20  1  0  0  0
 28 29  1  0  0  0
 28 30  1  0  0  0
M  END
> <minimizedAffinity>
-8.27757

$$$$
1OWH_239_A_1001


 30 32  0  0  0  0  0  0  0  0999 V2000
   27.4295   10.8601   30.2022 C   0  0  0  0  0  0  0  0  0  0  0  0
   27.0115   12.1647   29.7936 C   0  0  0  0  0  0  0  0  0  0  0  0
   26.0365   12.9447   30.4210 C   0  0  0  0  0  0  0  0  0  0  0  0
   25.6595   14.1553   29.8353 C   0  0  0  0  0  0  0  0  0  0  0  0
   24.6193   14.8313   30.5032 C   0  0  0  0  0  0  0  0  0  0  0  0
   23.9790   14.4927   31.7132 C   0  0  0  0  0  0  0  0  0  0  0  0
   24.4141   13.2382   32.1689 C   0  0  0  0  0  0  0  0  0  0  0  0
   25.4045   12.4160   31.5781 C   0  0  0  0  0  0  0  0  0  0  0  0
   25.6822   11.1468   32.0991 C   0  0  0  0  0  0  0  0  0  0  0  0
   26.6735   10.4215   31.3983 C   0  0  0  0  0  0  0  0  0  0  0  0
   29.6396    9.9919   30.2820 N   0  0  0  0  0  0  0  0  0  0  0  0
   28.4995   10.1057   29.5604 C   0  0  0  0  0  0  0  0  0  0  0  0
   28.2935    9.6798   28.2956 N   0  0  0  0  0  0  0  0  0  0  0  0
   30.4071    9.4965   29.9149 H   0  0  0  0  0  0  0  0  0  0  0  0
   28.9925    9.1673   27.8288 H   0  0  0  0  0  0  0  0  0  0  0  0
   27.4443    9.8818   27.8404 H   0  0  0  0  0  0  0  0  0  0  0  0
   23.0554   15.3686   32.4150 C   0  0  0  0  0  0  0  0  0  0  0  0
   23.1223   15.3311   33.6498 O   0  0  0  0  0  0  0  0  0  0  0  0
   22.0843   16.0428   31.7463 N   0  0  0  0  0  0  0  0  0  0  0  0
   22.0967   15.9294   30.7684 H   0  0  0  0  0  0  0  0  0  0  0  0
   21.0627   16.8788   32.2359 C   0  0  0  0  0  0  0  0  0  0  0  0
   19.6997   16.5932   31.9848 C   0  0  0  0  0  0  0  0  0  0  0  0
   18.7366   17.5047   32.4732 C   0  0  0  0  0  0  0  0  0  0  0  0
   19.1808   18.6002   33.2562 C   0  0  0  0  0  0  0  0  0  0  0  0
   20.5356   18.8415   33.5640 C   0  0  0  0  0  0  0  0  0  0  0  0
   21.4840   18.0063   32.9474 C   0  0  0  0  0  0  0  0  0  0  0  0
   18.1382   19.5823   33.7360 C   0  0  0  0  0  0  0  0  0  0  0  0
   18.6176   20.4344   34.8099 N   0  0  0  0  0  0  0  0  0  0  0  0
   18.8649   19.8596   35.6154 H   0  0  0  0  0  0  0  0  0  0  0  0
   17.8850   21.0930   35.0743 H   0  0  0  0  0  0  0  0  0  0  0  0
 11 12  2  0  0  0
 12 13  1  0  0  0
 12  1  1  0  0  0
  1  2  2  0  0  0
  1 10  1  0  0  0
  2  3  1  0  0  0
  3  4  2  0  0  0
  3  8  1  0  0  0
  4  5  1  0  0  0
  5  6  2  0  0  0
  6  7  1  0  0  0
  6 17  1  0  0  0
  7  8  2  0  0  0
  8  9  1  0  0  0
  9 10  2  0  0  0
 17 18  2  0  0  0
 17 19  1  0  0  0
 19 21  1  0  0  0
 21 22  2  0  0  0
 21 26  1  0  0  0
 22 23  1  0  0  0
 23 24  2  0  0  0
 24 25  1  0  0  0
 24 27  1  0  0  0
 25 26  2  0  0  0
 27 28  1  0  0  0
 11 14  1  0  0  0
 13 15  1  0  0  0
 13 16  1  0  0  0
 19 20  1  0  0  0
 28 29  1  0  0  0
 28 30  1  0  0  0
M  END
> <minimizedAffinity>
-8.08934

$$$$
1OWH_239_A_1001


 30 32  0  0  0  0  0  0  0  0999 V2000
   27.6280   11.0442   29.7920 C   0  0  0  0  0  0  0  0  0  0  0  0
   26.7025   11.2599   30.8600 C   0  0  0  0  0  0  0  0  0  0  0  0
   25.8679   12.3709   31.0066 C   0  0  0  0  0  0  0  0  0  0  0  0
   25.0976   12.4892   32.1657 C   0  0  0  0  0  0  0  0  0  0  0  0
   24.3467   13.6781   32.2523 C   0  0  0  0  0  0  0  0  0  0  0  0
   24.2076   14.7071   31.2980 C   0  0  0  0  0  0  0  0  0  0  0  0
   25.0656   14.4905   30.2082 C   0  0  0  0  0  0  0  0  0  0  0  0
   25.9198   13.3788   30.0070 C   0  0  0  0  0  0  0  0  0  0  0  0
   26.7839   13.3327   28.9067 C   0  0  0  0  0  0  0  0  0  0  0  0
   27.5996   12.1795   28.8406 C   0  0  0  0  0  0  0  0  0  0  0  0
   28.0265    8.9922   28.6628 N   0  0  0  0  0  0  0  0  0  0  0  0
   28.4332    9.8385   29.6384 C   0  0  0  0  0  0  0  0  0  0  0  0
   29.4315    9.6354   30.5248 N   0  0  0  0  0  0  0  0  0  0  0  0
   28.5202    8.1564   28.4987 H   0  0  0  0  0  0  0  0  0  0  0  0
   29.9972    8.8328   30.4538 H   0  0  0  0  0  0  0  0  0  0  0  0
   29.5937   10.2901   31.2420 H   0  0  0  0  0  0  0  0  0  0  0  0
   23.2481   15.7932   31.4102 C   0  0  0  0  0  0  0  0  0  0  0  0
   23.5071   16.8018   30.7420 O   0  0  0  0  0  0  0  0  0  0  0  0
   22.2395   15.7458   32.3187 N   0  0  0  0  0  0  0  0  0  0  0  0
   22.1876   14.9124   32.8400 H   0  0  0  0  0  0  0  0  0  0  0  0
   21.2568   16.7049   32.6297 C   0  0  0  0  0  0  0  0  0  0  0  0
   21.5589   17.8275   33.4365 C   0  0  0  0  0  0  0  0  0  0  0  0
   20.5069   18.7212   33.7392 C   0  0  0  0  0  0  0  0  0  0  0  0
   19.2372   18.4924   33.1510 C   0  0  0  0  0  0  0  0  0  0  0  0
   18.9590   17.4111   32.2898 C   0  0  0  0  0  0  0  0  0  0  0  0
   19.9784   16.4573   32.1205 C   0  0  0  0  0  0  0  0  0  0  0  0
   18.1181   19.4383   33.5182 C   0  0  0  0  0  0  0  0  0  0  0  0
   18.4931   20.3789   34.5594 N   0  0  0  0  0  0  0  0  0  0  0  0
   18.7298   19.8680   35.4099 H   0  0  0  0  0  0  0  0  0  0  0  0
   17.7122   21.0078   34.7467 H   0  0  0  0  0  0  0  0  0  0  0  0
 11 12  2  0  0  0
 12 13  1  0  0  0
 12  1  1  0  0  0
  1  2  2  0  0  0
  1 10  1  0  0  0
  2  3  1  0  0  0
  3  4  2  0  0  0
  3  8  1  0  0  0
  4  5  1  0  0  0
  5  6  2  0  0  0
  6  7  1  0  0  0
  6 17  1  0  0  0
  7  8  2  0  0  0
  8  9  1  0  0  0
  9 10  2  0  0  0
 17 18  2  0  0  0
 17 19  1  0  0  0
 19 21  1  0  0  0
 21 22  2  0  0  0
 21 26  1  0  0  0
 22 23  1  0  0  0
 23 24  2  0  0  0
 24 25  1  0  0  0
 24 27  1  0  0  0
 25 26  2  0  0  0
 27 28  1  0  0  0
 11 14  1  0  0  0
 13 15  1  0  0  0
 13 16  1  0  0  0
 19 20  1  0  0  0
 28 29  1  0  0  0
 28 30  1  0  0  0
M  END
> <minimizedAffinity>
-7.89427

$$$$
1OWH_239_A_1001


 30 32  0  0  0  0  0  0  0  0999 V2000
   28.0365   11.9287   29.5620 C   0  0  0  0  0  0  0  0  0  0  0  0
   26.9332   11.8957   30.4705 C   0  0  0  0  0  0  0  0  0  0  0  0
   26.0337   12.9395   30.7025 C   0  0  0  0  0  0  0  0  0  0  0  0
   25.0723   12.7929   31.7049 C   0  0  0  0  0  0  0  0  0  0  0  0
   24.2618   13.9268   31.9108 C   0  0  0  0  0  0  0  0  0  0  0  0
   24.2385   15.1391   31.1907 C   0  0  0  0  0  0  0  0  0  0  0  0
   25.2792   15.1754   30.2492 C   0  0  0  0  0  0  0  0  0  0  0  0
   26.2072   14.1430   29.9681 C   0  0  0  0  0  0  0  0  0  0  0  0
   27.2475   14.3480   29.0542 C   0  0  0  0  0  0  0  0  0  0  0  0
   28.1166   13.2450   28.8871 C   0  0  0  0  0  0  0  0  0  0  0  0
   29.8648   10.5683   30.2339 N   0  0  0  0  0  0  0  0  0  0  0  0
   28.9127   10.7937   29.2978 C   0  0  0  0  0  0  0  0  0  0  0  0
   28.7583   10.1437   28.1243 N   0  0  0  0  0  0  0  0  0  0  0  0
   30.4945    9.8194   30.1251 H   0  0  0  0  0  0  0  0  0  0  0  0
   29.3313    9.3724   27.9097 H   0  0  0  0  0  0  0  0  0  0  0  0
   28.0728   10.4411   27.4833 H   0  0  0  0  0  0  0  0  0  0  0  0
   23.2233   16.1651   31.3622 C   0  0  0  0  0  0  0  0  0  0  0  0
   23.4898   17.2648   30.8620 O   0  0  0  0  0  0  0  0  0  0  0  0
   22.1455   15.9573   32.1623 N   0  0  0  0  0  0  0  0  0  0  0  0
   22.0892   15.0584   32.5598 H   0  0  0  0  0  0  0  0  0  0  0  0
   21.0964   16.8292   32.5108 C   0  0  0  0  0  0  0  0  0  0  0  0
   19.7760   16.6052   32.0539 C   0  0  0  0  0  0  0  0  0  0  0  0
   18.7880   17.5502   32.4113 C   0  0  0  0  0  0  0  0  0  0  0  0
   19.1535   18.6151   33.2731 C   0  0  0  0  0  0  0  0  0  0  0  0
   20.4555   18.7945   33.7840 C   0  0  0  0  0  0  0  0  0  0  0  0
   21.4514   17.9281   33.2991 C   0  0  0  0  0  0  0  0  0  0  0  0
   18.0910   19.6341   33.6117 C   0  0  0  0  0  0  0  0  0  0  0  0
   18.4967   20.5420   34.6701 N   0  0  0  0  0  0  0  0  0  0  0  0
   18.6711   20.0123   35.5242 H   0  0  0  0  0  0  0  0  0  0  0  0
   17.7554   21.2223   34.8373 H   0  0  0  0  0  0  0  0  0  0  0  0
 11 12  2  0  0  0
 12 13  1  0  0  0
 12  1  1  0  0  0
  1  2  2  0  0  0
  1 10  1  0  0  0
  2  3  1  0  0  0
  3  4  2  0  0  0
  3  8  1  0  0  0
  4  5  1  0  0  0
  5  6  2  0  0  0
  6  7  1  0  0  0
  6 17  1  0  0  0
  7  8  2  0  0  0
  8  9  1  0  0  0
  9 10  2  0  0  0
 17 18  2  0  0  0
 17 19  1  0  0  0
 19 21  1  0  0  0
 21 22  2  0  0  0
 21 26  1  0  0  0
 22 23  1  0  0  0
 23 24  2  0  0  0
 24 25  1  0  0  0
 24 27  1  0  0  0
 25 26  2  0  0  0
 27 28  1  0  0  0
 11 14  1  0  0  0
 13 15  1  0  0  0
 13 16  1  0  0  0
 19 20  1  0  0  0
 28 29  1  0  0  0
 28 30  1  0  0  0
M  END
> <minimizedAffinity>
-7.26472

$$$$
1OWH_239_A_1001


 30 32  0  0  0  0  0  0  0  0999 V2000
   29.4784   14.3393   29.0063 C   0  0  0  0  0  0  0  0  0  0  0  0
   28.1416   13.8520   29.1448 C   0  0  0  0  0  0  0  0  0  0  0  0
   27.0407   14.5966   29.5761 C   0  0  0  0  0  0  0  0  0  0  0  0
   25.8185   13.9477   29.7659 C   0  0  0  0  0  0  0  0  0  0  0  0
   24.7909   14.7683   30.2715 C   0  0  0  0  0  0  0  0  0  0  0  0
   24.8117   16.1554   30.5254 C   0  0  0  0  0  0  0  0  0  0  0  0
   26.1036   16.6728   30.3410 C   0  0  0  0  0  0  0  0  0  0  0  0
   27.2468   15.9653   29.8955 C   0  0  0  0  0  0  0  0  0  0  0  0
   28.4959   16.5940   29.8335 C   0  0  0  0  0  0  0  0  0  0  0  0
   29.5561   15.7661   29.3970 C   0  0  0  0  0  0  0  0  0  0  0  0
   30.7275   13.5616   27.1408 N   0  0  0  0  0  0  0  0  0  0  0  0
   30.5878   13.5480   28.4876 C   0  0  0  0  0  0  0  0  0  0  0  0
   31.3004   12.8153   29.3702 N   0  0  0  0  0  0  0  0  0  0  0  0
   31.4541   13.0509   26.7161 H   0  0  0  0  0  0  0  0  0  0  0  0
   32.0569   12.2680   29.0582 H   0  0  0  0  0  0  0  0  0  0  0  0
   31.0633   12.8284   30.3256 H   0  0  0  0  0  0  0  0  0  0  0  0
   23.6321   16.9370   30.8576 C   0  0  0  0  0  0  0  0  0  0  0  0
   23.6192   18.0928   30.4162 O   0  0  0  0  0  0  0  0  0  0  0  0
   22.7040   16.4677   31.7312 N   0  0  0  0  0  0  0  0  0  0  0  0
   22.8708   15.5573   32.0666 H   0  0  0  0  0  0  0  0  0  0  0  0
   21.5402   17.0826   32.2311 C   0  0  0  0  0  0  0  0  0  0  0  0
   20.2538   16.6082   31.8815 C   0  0  0  0  0  0  0  0  0  0  0  0
   19.1354   17.3067   32.3896 C   0  0  0  0  0  0  0  0  0  0  0  0
   19.3619   18.3829   33.2847 C   0  0  0  0  0  0  0  0  0  0  0  0
   20.6452   18.8073   33.6865 C   0  0  0  0  0  0  0  0  0  0  0  0
   21.7420   18.1931   33.0563 C   0  0  0  0  0  0  0  0  0  0  0  0
   18.1541   19.1390   33.7858 C   0  0  0  0  0  0  0  0  0  0  0  0
   18.4866   20.1278   34.7962 N   0  0  0  0  0  0  0  0  0  0  0  0
   18.8922   19.6615   35.6077 H   0  0  0  0  0  0  0  0  0  0  0  0
   17.6412   20.6246   35.0769 H   0  0  0  0  0  0  0  0  0  0  0  0
 11 12  2  0  0  0
 12 13  1  0  0  0
 12  1  1  0  0  0
  1  2  2  0  0  0
  1 10  1  0  0  0
  2  3  1  0  0  0
  3  4  2  0  0  0
  3  8  1  0  0  0
  4  5  1  0  0  0
  5  6  2  0  0  0
  6  7  1  0  0  0
  6 17  1  0  0  0
  7  8  2  0  0  0
  8  9  1  0  0  0
  9 10  2  0  0  0
 17 18  2  0  0  0
 17 19  1  0  0  0
 19 21  1  0  0  0
 21 22  2  0  0  0
 21 26  1  0  0  0
 22 23  1  0  0  0
 23 24  2  0  0  0
 24 25  1  0  0  0
 24 27  1  0  0  0
 25 26  2  0  0  0
 27 28  1  0  0  0
 11 14  1  0  0  0
 13 15  1  0  0  0
 13 16  1  0  0  0
 19 20  1  0  0  0
 28 29  1  0  0  0
 28 30  1  0  0  0
M  END
> <minimizedAffinity>
-6.81613

$$$$
1OWH_239_A_1001


 30 32  0  0  0  0  0  0  0  0999 V2000
   20.5483   17.4363   33.3651 C   0  0  0  0  0  0  0  0  0  0  0  0
   21.5362   17.9510   32.4690 C   0  0  0  0  0  0  0  0  0  0  0  0
   22.5590   17.2125   31.8682 C   0  0  0  0  0  0  0  0  0  0  0  0
   23.5156   17.8823   31.1020 C   0  0  0  0  0  0  0  0  0  0  0  0
   24.5451   17.0615   30.6005 C   0  0  0  0  0  0  0  0  0  0  0  0
   24.6861   15.6617   30.6980 C   0  0  0  0  0  0  0  0  0  0  0  0
   23.6919   15.1209   31.5285 C   0  0  0  0  0  0  0  0  0  0  0  0
   22.6298   15.8221   32.1500 C   0  0  0  0  0  0  0  0  0  0  0  0
   21.7532   15.1640   33.0207 C   0  0  0  0  0  0  0  0  0  0  0  0
   20.7553   15.9870   33.5922 C   0  0  0  0  0  0  0  0  0  0  0  0
   18.2387   17.6319   33.8869 N   0  0  0  0  0  0  0  0  0  0  0  0
   19.4550   18.2263   33.9185 C   0  0  0  0  0  0  0  0  0  0  0  0
   19.7324   19.4865   34.3166 N   0  0  0  0  0  0  0  0  0  0  0  0
   17.4511   18.1034   34.2426 H   0  0  0  0  0  0  0  0  0  0  0  0
   19.0204   20.0510   34.6954 H   0  0  0  0  0  0  0  0  0  0  0  0
   20.6467   19.8407   34.2279 H   0  0  0  0  0  0  0  0  0  0  0  0
   25.6839   14.8943   29.9710 C   0  0  0  0  0  0  0  0  0  0  0  0
   25.2958   13.8085   29.5226 O   0  0  0  0  0  0  0  0  0  0  0  0
   26.9848   15.2836   29.9451 N   0  0  0  0  0  0  0  0  0  0  0  0
   27.1742   16.1339   30.4037 H   0  0  0  0  0  0  0  0  0  0  0  0
   28.1044   14.6586   29.3633 C   0  0  0  0  0  0  0  0  0  0  0  0
   28.5798   13.4150   29.8425 C   0  0  0  0  0  0  0  0  0  0  0  0
   29.7349   12.8745   29.2339 C   0  0  0  0  0  0  0  0  0  0  0  0
   30.2983   13.5603   28.1281 C   0  0  0  0  0  0  0  0  0  0  0  0
   29.7785   14.7636   27.6083 C   0  0  0  0  0  0  0  0  0  0  0  0
   28.7198   15.3560   28.3193 C   0  0  0  0  0  0  0  0  0  0  0  0
   31.5542   12.9848   27.5170 C   0  0  0  0  0  0  0  0  0  0  0  0
   31.5610   11.5325   27.5038 N   0  0  0  0  0  0  0  0  0  0  0  0
   31.5199   11.1836   28.4614 H   0  0  0  0  0  0  0  0  0  0  0  0
   32.4159   11.2005   27.0574 H   0  0  0  0  0  0  0  0  0  0  0  0
 11 12  2  0  0  0
 12 13  1  0  0  0
 12  1  1  0  0  0
  1  2  2  0  0  0
  1 10  1  0  0  0
  2  3  1  0  0  0
  3  4  2  0  0  0
  3  8  1  0  0  0
  4  5  1  0  0  0
  5  6  2  0  0  0
  6  7  1  0  0  0
  6 17  1  0  0  0
  7  8  2  0  0  0
  8  9  1  0  0  0
  9 10  2  0  0  0
 17 18  2  0  0  0
 17 19  1  0  0  0
 19 21  1  0  0  0
 21 22  2  0  0  0
 21 26  1  0  0  0
 22 23  1  0  0  0
 23 24  2  0  0  0
 24 25  1  0  0  0
 24 27  1  0  0  0
 25 26  2  0  0  0
 27 28  1  0  0  0
 11 14  1  0  0  0
 13 15  1  0  0  0
 13 16  1  0  0  0
 19 20  1  0  0  0
 28 29  1  0  0  0
 28 30  1  0  0  0
M  END
> <minimizedAffinity>
-6.44607

$$$$
1OWH_239_A_1001


 30 32  0  0  0  0  0  0  0  0999 V2000
   20.7280   16.9055   33.3266 C   0  0  0  0  0  0  0  0  0  0  0  0
   21.5449   16.9014   32.1535 C   0  0  0  0  0  0  0  0  0  0  0  0
   22.8227   17.4563   32.0452 C   0  0  0  0  0  0  0  0  0  0  0  0
   23.4500   17.4700   30.7973 C   0  0  0  0  0  0  0  0  0  0  0  0
   24.7020   18.1159   30.7771 C   0  0  0  0  0  0  0  0  0  0  0  0
   25.4305   18.6653   31.8524 C   0  0  0  0  0  0  0  0  0  0  0  0
   24.6720   18.6301   33.0331 C   0  0  0  0  0  0  0  0  0  0  0  0
   23.3814   18.0704   33.1978 C   0  0  0  0  0  0  0  0  0  0  0  0
   22.7077   18.1777   34.4201 C   0  0  0  0  0  0  0  0  0  0  0  0
   21.4177   17.5986   34.4395 C   0  0  0  0  0  0  0  0  0  0  0  0
   18.3867   17.0793   33.6912 N   0  0  0  0  0  0  0  0  0  0  0  0
   19.4262   16.2553   33.4191 C   0  0  0  0  0  0  0  0  0  0  0  0
   19.3906   14.9090   33.3208 N   0  0  0  0  0  0  0  0  0  0  0  0
   17.4760   16.7135   33.7691 H   0  0  0  0  0  0  0  0  0  0  0  0
   18.5303   14.4338   33.3784 H   0  0  0  0  0  0  0  0  0  0  0  0
   20.2249   14.4027   33.1914 H   0  0  0  0  0  0  0  0  0  0  0  0
   26.8040   19.1297   31.7484 C   0  0  0  0  0  0  0  0  0  0  0  0
   27.6266   18.2783   31.3891 O   0  0  0  0  0  0  0  0  0  0  0  0
   27.1600   20.3665   32.1824 N   0  0  0  0  0  0  0  0  0  0  0  0
   26.4172   20.9213   32.5135 H   0  0  0  0  0  0  0  0  0  0  0  0
   28.4275   20.9774   32.2318 C   0  0  0  0  0  0  0  0  0  0  0  0
   29.2520   20.8615   33.3759 C   0  0  0  0  0  0  0  0  0  0  0  0
   30.4913   21.5402   33.3642 C   0  0  0  0  0  0  0  0  0  0  0  0
   30.8754   22.2229   32.1823 C   0  0  0  0  0  0  0  0  0  0  0  0
   30.0812   22.2761   31.0183 C   0  0  0  0  0  0  0  0  0  0  0  0
   28.7932   21.7184   31.1039 C   0  0  0  0  0  0  0  0  0  0  0  0
   32.1865   22.9727   32.2050 C   0  0  0  0  0  0  0  0  0  0  0  0
   32.1533   24.1914   31.4156 N   0  0  0  0  0  0  0  0  0  0  0  0
   31.9705   23.9593   30.4394 H   0  0  0  0  0  0  0  0  0  0  0  0
   33.0518   24.6687   31.4891 H   0  0  0  0  0  0  0  0  0  0  0  0
 11 12  2  0  0  0
 12 13  1  0  0  0
 12  1  1  0  0  0
  1  2  2  0  0  0
  1 10  1  0  0  0
  2  3  1  0  0  0
  3  4  2  0  0  0
  3  8  1  0  0  0
  4  5  1  0  0  0
  5  6  2  0  0  0
  6  7  1  0  0  0
  6 17  1  0  0  0
  7  8  2  0  0  0
  8  9  1  0  0  0
  9 10  2  0  0  0
 17 18  2  0  0  0
 17 19  1  0  0  0
 19 21  1  0  0  0
 21 22  2  0  0  0
 21 26  1  0  0  0
 22 23  1  0  0  0
 23 24  2  0  0  0
 24 25  1  0  0  0
 24 27  1  0  0  0
 25 26  2  0  0  0
 27 28  1  0  0  0
 11 14  1  0  0  0
 13 15  1  0  0  0
 13 16  1  0  0  0
 19 20  1  0  0  0
 28 29  1  0  0  0
 28 30  1  0  0  0
M  END
> <minimizedAffinity>
-6.32599

$$$$
