1RQL_VSO_B_600


  7  6  0  0  0  0  0  0  0  0999 V2000
   86.4154   -6.3918    9.5798 O   0  0  0  0  0  0  0  0  0  0  0  0
   85.8901   -6.1801    8.2581 S   0  0  0  0  0  0  0  0  0  0  0  0
   84.9024   -5.1613    8.1748 O   0  0  0  0  0  0  0  0  0  0  0  0
   85.5419   -7.4115    7.5706 O   0  0  0  0  0  0  0  0  0  0  0  0
   86.6276   -5.5360    9.9843 H   0  0  0  0  0  0  0  0  0  0  0  0
   87.2269   -5.5105    7.3853 C   0  0  0  0  0  0  0  0  0  0  0  0
   87.5154   -5.9170    6.1403 C   0  0  0  0  0  0  0  0  0  0  0  0
  1  2  1  0  0  0
  2  6  1  0  0  0
  2  3  2  0  0  0
  2  4  2  0  0  0
  6  7  2  0  0  0
  1  5  1  0  0  0
M  END
> <minimizedAffinity>
-5.23067

$$$$
1RQL_VSO_B_600


  7  6  0  0  0  0  0  0  0  0999 V2000
   84.5377   -5.4715    8.3300 O   0  0  0  0  0  0  0  0  0  0  0  0
   85.6688   -6.3271    8.0929 S   0  0  0  0  0  0  0  0  0  0  0  0
   85.3548   -7.7121    8.0313 O   0  0  0  0  0  0  0  0  0  0  0  0
   86.8183   -6.0085    8.9219 O   0  0  0  0  0  0  0  0  0  0  0  0
   83.8065   -5.7337    7.7491 H   0  0  0  0  0  0  0  0  0  0  0  0
   86.1360   -5.9526    6.4685 C   0  0  0  0  0  0  0  0  0  0  0  0
   87.4282   -5.8411    6.1272 C   0  0  0  0  0  0  0  0  0  0  0  0
  1  2  1  0  0  0
  2  6  1  0  0  0
  2  3  2  0  0  0
  2  4  2  0  0  0
  6  7  2  0  0  0
  1  5  1  0  0  0
M  END
> <minimizedAffinity>
-5.19153

$$$$
1RQL_VSO_B_600


  7  6  0  0  0  0  0  0  0  0999 V2000
   85.5882   -7.3543    8.2285 O   0  0  0  0  0  0  0  0  0  0  0  0
   85.5685   -6.0998    7.5260 S   0  0  0  0  0  0  0  0  0  0  0  0
   84.9302   -5.0425    8.2297 O   0  0  0  0  0  0  0  0  0  0  0  0
   85.1683   -6.2227    6.1350 O   0  0  0  0  0  0  0  0  0  0  0  0
   85.8619   -7.2061    9.1472 H   0  0  0  0  0  0  0  0  0  0  0  0
   87.2303   -5.6148    7.5010 C   0  0  0  0  0  0  0  0  0  0  0  0
   87.9575   -5.6899    6.3767 C   0  0  0  0  0  0  0  0  0  0  0  0
  1  2  1  0  0  0
  2  6  1  0  0  0
  2  3  2  0  0  0
  2  4  2  0  0  0
  6  7  2  0  0  0
  1  5  1  0  0  0
M  END
> <minimizedAffinity>
-4.63551

$$$$
1RQL_VSO_B_600


  7  6  0  0  0  0  0  0  0  0999 V2000
   88.0202   -5.8086    5.6204 O   0  0  0  0  0  0  0  0  0  0  0  0
   86.8660   -5.0791    6.0714 S   0  0  0  0  0  0  0  0  0  0  0  0
   85.6269   -5.7328    5.8304 O   0  0  0  0  0  0  0  0  0  0  0  0
   86.8870   -3.6756    5.6974 O   0  0  0  0  0  0  0  0  0  0  0  0
   87.9470   -6.7345    5.9000 H   0  0  0  0  0  0  0  0  0  0  0  0
   87.0047   -5.1131    7.7967 C   0  0  0  0  0  0  0  0  0  0  0  0
   86.2453   -5.9339    8.5371 C   0  0  0  0  0  0  0  0  0  0  0  0
  1  2  1  0  0  0
  2  6  1  0  0  0
  2  3  2  0  0  0
  2  4  2  0  0  0
  6  7  2  0  0  0
  1  5  1  0  0  0
M  END
> <minimizedAffinity>
-4.33599

$$$$
1RQL_VSO_B_600


  7  6  0  0  0  0  0  0  0  0999 V2000
   87.0420   -3.6802    5.7502 O   0  0  0  0  0  0  0  0  0  0  0  0
   86.9632   -5.0788    6.0747 S   0  0  0  0  0  0  0  0  0  0  0  0
   88.0697   -5.8494    5.6248 O   0  0  0  0  0  0  0  0  0  0  0  0
   85.6661   -5.6665    5.7877 O   0  0  0  0  0  0  0  0  0  0  0  0
   87.9281   -3.3482    5.9637 H   0  0  0  0  0  0  0  0  0  0  0  0
   87.1292   -5.1126    7.7976 C   0  0  0  0  0  0  0  0  0  0  0  0
   86.2970   -5.8368    8.5602 C   0  0  0  0  0  0  0  0  0  0  0  0
  1  2  1  0  0  0
  2  6  1  0  0  0
  2  3  2  0  0  0
  2  4  2  0  0  0
  6  7  2  0  0  0
  1  5  1  0  0  0
M  END
> <minimizedAffinity>
-4.32781

$$$$
1RQL_VSO_B_600


  7  6  0  0  0  0  0  0  0  0999 V2000
   86.0731   -3.8789    6.0670 O   0  0  0  0  0  0  0  0  0  0  0  0
   85.8557   -5.0975    6.7988 S   0  0  0  0  0  0  0  0  0  0  0  0
   85.2354   -6.1317    6.0464 O   0  0  0  0  0  0  0  0  0  0  0  0
   85.2808   -4.8858    8.1159 O   0  0  0  0  0  0  0  0  0  0  0  0
   86.4566   -4.0862    5.2005 H   0  0  0  0  0  0  0  0  0  0  0  0
   87.4534   -5.7064    7.0702 C   0  0  0  0  0  0  0  0  0  0  0  0
   88.2583   -6.0222    6.0450 C   0  0  0  0  0  0  0  0  0  0  0  0
  1  2  1  0  0  0
  2  6  1  0  0  0
  2  3  2  0  0  0
  2  4  2  0  0  0
  6  7  2  0  0  0
  1  5  1  0  0  0
M  END
> <minimizedAffinity>
-4.31832

$$$$
1RQL_VSO_B_600


  7  6  0  0  0  0  0  0  0  0999 V2000
   85.3668   -6.1486    6.0918 O   0  0  0  0  0  0  0  0  0  0  0  0
   85.4443   -6.4078    7.5041 S   0  0  0  0  0  0  0  0  0  0  0  0
   85.2982   -7.7765    7.8589 O   0  0  0  0  0  0  0  0  0  0  0  0
   84.6495   -5.4921    8.3041 O   0  0  0  0  0  0  0  0  0  0  0  0
   85.9161   -6.7902    5.6147 H   0  0  0  0  0  0  0  0  0  0  0  0
   87.0964   -6.0695    7.8955 C   0  0  0  0  0  0  0  0  0  0  0  0
   87.4859   -4.8367    8.2519 C   0  0  0  0  0  0  0  0  0  0  0  0
  1  2  1  0  0  0
  2  6  1  0  0  0
  2  3  2  0  0  0
  2  4  2  0  0  0
  6  7  2  0  0  0
  1  5  1  0  0  0
M  END
> <minimizedAffinity>
-4.15485

$$$$
1RQL_VSO_B_600


  7  6  0  0  0  0  0  0  0  0999 V2000
   86.4438   -3.7641    5.7074 O   0  0  0  0  0  0  0  0  0  0  0  0
   87.1114   -4.8587    6.3583 S   0  0  0  0  0  0  0  0  0  0  0  0
   87.4469   -4.6169    7.7183 O   0  0  0  0  0  0  0  0  0  0  0  0
   88.1866   -5.4323    5.5676 O   0  0  0  0  0  0  0  0  0  0  0  0
   85.7400   -3.4262    6.2830 H   0  0  0  0  0  0  0  0  0  0  0  0
   85.8920   -6.0832    6.4611 C   0  0  0  0  0  0  0  0  0  0  0  0
   85.7158   -6.7935    7.5850 C   0  0  0  0  0  0  0  0  0  0  0  0
  1  2  1  0  0  0
  2  6  1  0  0  0
  2  3  2  0  0  0
  2  4  2  0  0  0
  6  7  2  0  0  0
  1  5  1  0  0  0
M  END
> <minimizedAffinity>
-4.06955

$$$$
1RQL_VSO_B_600


  7  6  0  0  0  0  0  0  0  0999 V2000
   87.6944   -6.4278    6.5471 O   0  0  0  0  0  0  0  0  0  0  0  0
   86.6277   -6.1395    7.4672 S   0  0  0  0  0  0  0  0  0  0  0  0
   87.0600   -5.7368    8.7601 O   0  0  0  0  0  0  0  0  0  0  0  0
   85.5800   -7.1457    7.4709 O   0  0  0  0  0  0  0  0  0  0  0  0
   88.3590   -5.7226    6.5913 H   0  0  0  0  0  0  0  0  0  0  0  0
   85.9051   -4.7037    6.8242 C   0  0  0  0  0  0  0  0  0  0  0  0
   86.3942   -4.1148    5.7231 C   0  0  0  0  0  0  0  0  0  0  0  0
  1  2  1  0  0  0
  2  6  1  0  0  0
  2  3  2  0  0  0
  2  4  2  0  0  0
  6  7  2  0  0  0
  1  5  1  0  0  0
M  END
> <minimizedAffinity>
-3.49651

$$$$
1RQL_VSO_B_600


  7  6  0  0  0  0  0  0  0  0999 V2000
   86.1006   -4.6365   10.0135 O   0  0  0  0  0  0  0  0  0  0  0  0
   86.2012   -4.9741    8.6194 S   0  0  0  0  0  0  0  0  0  0  0  0
   87.4745   -4.7151    8.0428 O   0  0  0  0  0  0  0  0  0  0  0  0
   85.0772   -4.5040    7.8284 O   0  0  0  0  0  0  0  0  0  0  0  0
   86.8771   -4.9763   10.4853 H   0  0  0  0  0  0  0  0  0  0  0  0
   86.1023   -6.7024    8.6052 C   0  0  0  0  0  0  0  0  0  0  0  0
   85.5446   -7.3564    7.5757 C   0  0  0  0  0  0  0  0  0  0  0  0
  1  2  1  0  0  0
  2  6  1  0  0  0
  2  3  2  0  0  0
  2  4  2  0  0  0
  6  7  2  0  0  0
  1  5  1  0  0  0
M  END
> <minimizedAffinity>
-3.44957

$$$$
