3AP4_LBT_A_155


 31 32  0  0  0  0  0  0  0  0999 V2000
   24.3866   29.2411   23.9419 O   0  0  0  0  0  0  0  0  0  0  0  0
   23.0034   29.5143   23.7983 C   0  0  0  0  0  0  0  0  0  0  0  0
   22.7222   30.8686   24.5148 C   0  0  0  0  0  0  0  0  0  0  0  0
   21.2825   31.3353   24.1468 C   0  0  0  0  0  0  0  0  0  0  0  0
   21.0758   31.3156   22.6029 C   0  0  0  0  0  0  0  0  0  0  0  0
   21.5000   29.9358   22.0452 C   0  0  0  0  0  0  0  0  0  0  0  0
   22.7431   30.6909   25.9061 O   0  0  0  0  0  0  0  0  0  0  0  0
   20.9892   32.6592   24.5722 O   0  0  0  0  0  0  0  0  0  0  0  0
   21.8080   32.3072   21.9247 O   0  0  0  0  0  0  0  0  0  0  0  0
   22.8488   29.6244   22.3943 O   0  0  0  0  0  0  0  0  0  0  0  0
   22.0647   30.0456   26.1599 H   0  0  0  0  0  0  0  0  0  0  0  0
   21.5758   33.2828   24.1161 H   0  0  0  0  0  0  0  0  0  0  0  0
   22.7569   32.1562   22.0577 H   0  0  0  0  0  0  0  0  0  0  0  0
   21.3660   29.9025   20.5055 C   0  0  0  0  0  0  0  0  0  0  0  0
   21.6917   28.6692   19.9412 O   0  0  0  0  0  0  0  0  0  0  0  0
   22.6211   28.4635   20.1278 H   0  0  0  0  0  0  0  0  0  0  0  0
   27.4208   27.9700   21.2136 C   0  0  0  0  0  0  0  0  0  0  0  0
   27.2593   29.4961   21.5346 C   0  0  0  0  0  0  0  0  0  0  0  0
   26.4725   29.7147   22.8526 C   0  0  0  0  0  0  0  0  0  0  0  0
   25.1449   28.9424   22.7538 C   0  0  0  0  0  0  0  0  0  0  0  0
   25.5086   27.4327   22.6828 C   0  0  0  0  0  0  0  0  0  0  0  0
   28.5441   27.3625   21.7556 O   0  0  0  0  0  0  0  0  0  0  0  0
   28.4995   30.1580   21.6860 O   0  0  0  0  0  0  0  0  0  0  0  0
   26.1561   31.0765   22.9666 O   0  0  0  0  0  0  0  0  0  0  0  0
   26.3132   27.1428   21.5354 O   0  0  0  0  0  0  0  0  0  0  0  0
   28.4503   27.3107   22.7197 H   0  0  0  0  0  0  0  0  0  0  0  0
   28.9732   29.7870   22.4468 H   0  0  0  0  0  0  0  0  0  0  0  0
   25.6292   31.3513   22.1999 H   0  0  0  0  0  0  0  0  0  0  0  0
   24.2509   26.5387   22.5244 C   0  0  0  0  0  0  0  0  0  0  0  0
   23.4776   26.8868   21.4074 O   0  0  0  0  0  0  0  0  0  0  0  0
   23.1596   27.7979   21.5056 H   0  0  0  0  0  0  0  0  0  0  0  0
  2  3  1  0  0  0
  2  1  1  0  0  0
  2 10  1  0  0  0
  3  4  1  0  0  0
  3  7  1  0  0  0
  4  5  1  0  0  0
  4  8  1  0  0  0
  5  6  1  0  0  0
  5  9  1  0  0  0
  6 14  1  0  0  0
  6 10  1  0  0  0
 14 15  1  0  0  0
  1 20  1  0  0  0
 17 18  1  0  0  0
 17 22  1  0  0  0
 17 25  1  0  0  0
 18 19  1  0  0  0
 18 23  1  0  0  0
 19 20  1  0  0  0
 19 24  1  0  0  0
 20 21  1  0  0  0
 21 29  1  0  0  0
 21 25  1  0  0  0
 29 30  1  0  0  0
  7 11  1  0  0  0
  8 12  1  0  0  0
  9 13  1  0  0  0
 15 16  1  0  0  0
 22 26  1  0  0  0
 23 27  1  0  0  0
 24 28  1  0  0  0
 30 31  1  0  0  0
M  END
> <minimizedAffinity>
-6.49229

$$$$
3AP4_LBT_A_155


 31 32  0  0  0  0  0  0  0  0999 V2000
   20.8064   30.6388   24.5768 O   0  0  0  0  0  0  0  0  0  0  0  0
   20.6327   31.8388   25.3103 C   0  0  0  0  0  0  0  0  0  0  0  0
   19.2371   32.4166   24.9293 C   0  0  0  0  0  0  0  0  0  0  0  0
   18.8956   33.5771   25.9104 C   0  0  0  0  0  0  0  0  0  0  0  0
   19.0719   33.1176   27.3884 C   0  0  0  0  0  0  0  0  0  0  0  0
   20.4693   32.4761   27.5639 C   0  0  0  0  0  0  0  0  0  0  0  0
   19.2826   32.9775   23.6444 O   0  0  0  0  0  0  0  0  0  0  0  0
   17.5581   34.0432   25.7939 O   0  0  0  0  0  0  0  0  0  0  0  0
   18.1051   32.1850   27.8066 O   0  0  0  0  0  0  0  0  0  0  0  0
   20.6638   31.3928   26.6548 O   0  0  0  0  0  0  0  0  0  0  0  0
   19.9415   33.6891   23.6254 H   0  0  0  0  0  0  0  0  0  0  0  0
   16.9452   33.3299   26.0313 H   0  0  0  0  0  0  0  0  0  0  0  0
   18.1848   31.3767   27.2763 H   0  0  0  0  0  0  0  0  0  0  0  0
   20.6543   31.9522   29.0064 C   0  0  0  0  0  0  0  0  0  0  0  0
   20.2373   30.6327   29.1812 O   0  0  0  0  0  0  0  0  0  0  0  0
   19.2869   30.5670   28.9984 H   0  0  0  0  0  0  0  0  0  0  0  0
   24.1686   28.8223   22.6631 C   0  0  0  0  0  0  0  0  0  0  0  0
   24.1889   29.0449   24.2149 C   0  0  0  0  0  0  0  0  0  0  0  0
   22.7576   29.2546   24.7731 C   0  0  0  0  0  0  0  0  0  0  0  0
   22.0929   30.3917   23.9770 C   0  0  0  0  0  0  0  0  0  0  0  0
   21.9443   29.8875   22.5140 C   0  0  0  0  0  0  0  0  0  0  0  0
   24.0263   27.5051   22.2517 O   0  0  0  0  0  0  0  0  0  0  0  0
   24.7439   27.9508   24.9178 O   0  0  0  0  0  0  0  0  0  0  0  0
   22.8529   29.6786   26.1068 O   0  0  0  0  0  0  0  0  0  0  0  0
   23.2172   29.5833   21.9348 O   0  0  0  0  0  0  0  0  0  0  0  0
   23.1330   27.1941   22.4662 H   0  0  0  0  0  0  0  0  0  0  0  0
   24.1919   27.1650   24.7809 H   0  0  0  0  0  0  0  0  0  0  0  0
   23.3642   30.5019   26.1486 H   0  0  0  0  0  0  0  0  0  0  0  0
   21.3319   30.9689   21.5859 C   0  0  0  0  0  0  0  0  0  0  0  0
   21.6569   32.2728   21.9874 O   0  0  0  0  0  0  0  0  0  0  0  0
   21.3016   32.4358   22.8752 H   0  0  0  0  0  0  0  0  0  0  0  0
  2  3  1  0  0  0
  2  1  1  0  0  0
  2 10  1  0  0  0
  3  4  1  0  0  0
  3  7  1  0  0  0
  4  5  1  0  0  0
  4  8  1  0  0  0
  5  6  1  0  0  0
  5  9  1  0  0  0
  6 14  1  0  0  0
  6 10  1  0  0  0
 14 15  1  0  0  0
  1 20  1  0  0  0
 17 18  1  0  0  0
 17 22  1  0  0  0
 17 25  1  0  0  0
 18 19  1  0  0  0
 18 23  1  0  0  0
 19 20  1  0  0  0
 19 24  1  0  0  0
 20 21  1  0  0  0
 21 29  1  0  0  0
 21 25  1  0  0  0
 29 30  1  0  0  0
  7 11  1  0  0  0
  8 12  1  0  0  0
  9 13  1  0  0  0
 15 16  1  0  0  0
 22 26  1  0  0  0
 23 27  1  0  0  0
 24 28  1  0  0  0
 30 31  1  0  0  0
M  END
> <minimizedAffinity>
-6.43683

$$$$
3AP4_LBT_A_155


 31 32  0  0  0  0  0  0  0  0999 V2000
   24.9092   29.8529   23.9363 O   0  0  0  0  0  0  0  0  0  0  0  0
   23.4932   29.9062   23.9577 C   0  0  0  0  0  0  0  0  0  0  0  0
   23.0907   31.2553   24.6244 C   0  0  0  0  0  0  0  0  0  0  0  0
   21.5621   31.4736   24.4197 C   0  0  0  0  0  0  0  0  0  0  0  0
   21.1784   31.3038   22.9195 C   0  0  0  0  0  0  0  0  0  0  0  0
   21.7441   29.9631   22.3929 C   0  0  0  0  0  0  0  0  0  0  0  0
   23.3050   31.1910   26.0092 O   0  0  0  0  0  0  0  0  0  0  0  0
   21.1179   32.7684   24.8016 O   0  0  0  0  0  0  0  0  0  0  0  0
   21.6600   32.3374   22.0953 O   0  0  0  0  0  0  0  0  0  0  0  0
   23.1568   29.8830   22.5816 O   0  0  0  0  0  0  0  0  0  0  0  0
   22.7713   30.4741   26.3860 H   0  0  0  0  0  0  0  0  0  0  0  0
   21.5408   33.4347   24.2377 H   0  0  0  0  0  0  0  0  0  0  0  0
   22.6298   32.3394   22.1126 H   0  0  0  0  0  0  0  0  0  0  0  0
   21.4342   29.7910   20.8882 C   0  0  0  0  0  0  0  0  0  0  0  0
   22.4728   30.2001   20.0518 O   0  0  0  0  0  0  0  0  0  0  0  0
   22.6363   31.1477   20.1790 H   0  0  0  0  0  0  0  0  0  0  0  0
   27.7404   26.8062   22.9523 C   0  0  0  0  0  0  0  0  0  0  0  0
   27.1615   27.7199   21.8173 C   0  0  0  0  0  0  0  0  0  0  0  0
   26.5541   29.0231   22.3976 C   0  0  0  0  0  0  0  0  0  0  0  0
   25.5345   28.6364   23.4836 C   0  0  0  0  0  0  0  0  0  0  0  0
   26.3356   27.9554   24.6286 C   0  0  0  0  0  0  0  0  0  0  0  0
   29.0653   27.0417   23.2896 O   0  0  0  0  0  0  0  0  0  0  0  0
   28.1416   28.1112   20.8761 O   0  0  0  0  0  0  0  0  0  0  0  0
   25.8500   29.6830   21.3795 O   0  0  0  0  0  0  0  0  0  0  0  0
   27.0077   26.7790   24.1676 O   0  0  0  0  0  0  0  0  0  0  0  0
   29.1388   27.9032   23.7292 H   0  0  0  0  0  0  0  0  0  0  0  0
   28.8164   28.6505   21.3173 H   0  0  0  0  0  0  0  0  0  0  0  0
   25.1544   29.1000   21.0372 H   0  0  0  0  0  0  0  0  0  0  0  0
   25.4105   27.4639   25.7726 C   0  0  0  0  0  0  0  0  0  0  0  0
   25.0089   28.5015   26.6264 O   0  0  0  0  0  0  0  0  0  0  0  0
   25.7893   28.8925   27.0495 H   0  0  0  0  0  0  0  0  0  0  0  0
  2  3  1  0  0  0
  2  1  1  0  0  0
  2 10  1  0  0  0
  3  4  1  0  0  0
  3  7  1  0  0  0
  4  5  1  0  0  0
  4  8  1  0  0  0
  5  6  1  0  0  0
  5  9  1  0  0  0
  6 14  1  0  0  0
  6 10  1  0  0  0
 14 15  1  0  0  0
  1 20  1  0  0  0
 17 18  1  0  0  0
 17 22  1  0  0  0
 17 25  1  0  0  0
 18 19  1  0  0  0
 18 23  1  0  0  0
 19 20  1  0  0  0
 19 24  1  0  0  0
 20 21  1  0  0  0
 21 29  1  0  0  0
 21 25  1  0  0  0
 29 30  1  0  0  0
  7 11  1  0  0  0
  8 12  1  0  0  0
  9 13  1  0  0  0
 15 16  1  0  0  0
 22 26  1  0  0  0
 23 27  1  0  0  0
 24 28  1  0  0  0
 30 31  1  0  0  0
M  END
> <minimizedAffinity>
-5.86834

$$$$
3AP4_LBT_A_155


 31 32  0  0  0  0  0  0  0  0999 V2000
   22.1167   32.2936   25.1566 O   0  0  0  0  0  0  0  0  0  0  0  0
   21.7747   31.1061   24.4631 C   0  0  0  0  0  0  0  0  0  0  0  0
   21.7305   31.4529   22.9450 C   0  0  0  0  0  0  0  0  0  0  0  0
   21.6296   30.1261   22.1354 C   0  0  0  0  0  0  0  0  0  0  0  0
   22.7353   29.1238   22.5823 C   0  0  0  0  0  0  0  0  0  0  0  0
   22.7041   28.9773   24.1226 C   0  0  0  0  0  0  0  0  0  0  0  0
   20.5734   32.1902   22.6529 O   0  0  0  0  0  0  0  0  0  0  0  0
   21.7928   30.3024   20.7347 O   0  0  0  0  0  0  0  0  0  0  0  0
   24.0334   29.5132   22.2045 O   0  0  0  0  0  0  0  0  0  0  0  0
   22.8539   30.2409   24.7697 O   0  0  0  0  0  0  0  0  0  0  0  0
   19.7899   31.6683   22.8867 H   0  0  0  0  0  0  0  0  0  0  0  0
   22.6851   30.6363   20.5527 H   0  0  0  0  0  0  0  0  0  0  0  0
   24.2582   30.3517   22.6373 H   0  0  0  0  0  0  0  0  0  0  0  0
   23.8307   28.0358   24.6062 C   0  0  0  0  0  0  0  0  0  0  0  0
   24.9417   28.7072   25.1166 O   0  0  0  0  0  0  0  0  0  0  0  0
   25.3378   29.2533   24.4196 H   0  0  0  0  0  0  0  0  0  0  0  0
   19.2709   32.3273   28.3451 C   0  0  0  0  0  0  0  0  0  0  0  0
   19.0034   33.1854   27.0605 C   0  0  0  0  0  0  0  0  0  0  0  0
   19.8579   32.6915   25.8647 C   0  0  0  0  0  0  0  0  0  0  0  0
   21.3310   32.6553   26.3089 C   0  0  0  0  0  0  0  0  0  0  0  0
   21.4369   31.5768   27.4234 C   0  0  0  0  0  0  0  0  0  0  0  0
   18.4696   31.2041   28.4892 O   0  0  0  0  0  0  0  0  0  0  0  0
   17.6534   33.1396   26.6428 O   0  0  0  0  0  0  0  0  0  0  0  0
   19.7583   33.6271   24.8243 O   0  0  0  0  0  0  0  0  0  0  0  0
   20.6103   31.9025   28.5455 O   0  0  0  0  0  0  0  0  0  0  0  0
   18.7047   30.5502   27.8123 H   0  0  0  0  0  0  0  0  0  0  0  0
   17.4225   32.2309   26.3941 H   0  0  0  0  0  0  0  0  0  0  0  0
   20.0676   34.4919   25.1364 H   0  0  0  0  0  0  0  0  0  0  0  0
   22.8729   31.4771   28.0014 C   0  0  0  0  0  0  0  0  0  0  0  0
   23.6619   30.5328   27.3286 O   0  0  0  0  0  0  0  0  0  0  0  0
   23.2637   29.6533   27.4220 H   0  0  0  0  0  0  0  0  0  0  0  0
  2  3  1  0  0  0
  2  1  1  0  0  0
  2 10  1  0  0  0
  3  4  1  0  0  0
  3  7  1  0  0  0
  4  5  1  0  0  0
  4  8  1  0  0  0
  5  6  1  0  0  0
  5  9  1  0  0  0
  6 14  1  0  0  0
  6 10  1  0  0  0
 14 15  1  0  0  0
  1 20  1  0  0  0
 17 18  1  0  0  0
 17 22  1  0  0  0
 17 25  1  0  0  0
 18 19  1  0  0  0
 18 23  1  0  0  0
 19 20  1  0  0  0
 19 24  1  0  0  0
 20 21  1  0  0  0
 21 29  1  0  0  0
 21 25  1  0  0  0
 29 30  1  0  0  0
  7 11  1  0  0  0
  8 12  1  0  0  0
  9 13  1  0  0  0
 15 16  1  0  0  0
 22 26  1  0  0  0
 23 27  1  0  0  0
 24 28  1  0  0  0
 30 31  1  0  0  0
M  END
> <minimizedAffinity>
-5.76204

$$$$
3AP4_LBT_A_155


 31 32  0  0  0  0  0  0  0  0999 V2000
   24.2395   30.2906   24.9208 O   0  0  0  0  0  0  0  0  0  0  0  0
   22.9090   30.1848   24.4446 C   0  0  0  0  0  0  0  0  0  0  0  0
   22.1679   31.4950   24.8459 C   0  0  0  0  0  0  0  0  0  0  0  0
   20.7963   31.5352   24.1090 C   0  0  0  0  0  0  0  0  0  0  0  0
   20.9849   31.2892   22.5824 C   0  0  0  0  0  0  0  0  0  0  0  0
   21.8276   30.0089   22.3683 C   0  0  0  0  0  0  0  0  0  0  0  0
   21.8852   31.4868   26.2199 O   0  0  0  0  0  0  0  0  0  0  0  0
   20.1223   32.7802   24.2327 O   0  0  0  0  0  0  0  0  0  0  0  0
   21.6233   32.3513   21.9161 O   0  0  0  0  0  0  0  0  0  0  0  0
   23.0835   30.0926   23.0416 O   0  0  0  0  0  0  0  0  0  0  0  0
   21.3253   30.7231   26.4302 H   0  0  0  0  0  0  0  0  0  0  0  0
   20.6500   33.4768   23.8119 H   0  0  0  0  0  0  0  0  0  0  0  0
   22.5196   32.4628   22.2698 H   0  0  0  0  0  0  0  0  0  0  0  0
   22.0866   29.7689   20.8633 C   0  0  0  0  0  0  0  0  0  0  0  0
   21.7758   28.4766   20.4403 O   0  0  0  0  0  0  0  0  0  0  0  0
   22.3381   27.8393   20.9079 H   0  0  0  0  0  0  0  0  0  0  0  0
   27.7011   32.4218   23.6010 C   0  0  0  0  0  0  0  0  0  0  0  0
   26.5595   33.1901   24.3525 C   0  0  0  0  0  0  0  0  0  0  0  0
   25.6547   32.2159   25.1500 C   0  0  0  0  0  0  0  0  0  0  0  0
   25.1575   31.1237   24.1865 C   0  0  0  0  0  0  0  0  0  0  0  0
   26.4094   30.3200   23.7353 C   0  0  0  0  0  0  0  0  0  0  0  0
   28.8709   32.2369   24.3235 O   0  0  0  0  0  0  0  0  0  0  0  0
   27.0545   34.1369   25.2787 O   0  0  0  0  0  0  0  0  0  0  0  0
   24.5278   32.9179   25.6029 O   0  0  0  0  0  0  0  0  0  0  0  0
   27.3515   31.1578   23.0581 O   0  0  0  0  0  0  0  0  0  0  0  0
   28.7092   31.6098   25.0457 H   0  0  0  0  0  0  0  0  0  0  0  0
   27.5531   33.6792   25.9736 H   0  0  0  0  0  0  0  0  0  0  0  0
   24.0515   33.2890   24.8437 H   0  0  0  0  0  0  0  0  0  0  0  0
   26.0508   29.2128   22.7098 C   0  0  0  0  0  0  0  0  0  0  0  0
   25.5388   29.7313   21.5116 O   0  0  0  0  0  0  0  0  0  0  0  0
   24.7189   30.2168   21.6935 H   0  0  0  0  0  0  0  0  0  0  0  0
  2  3  1  0  0  0
  2  1  1  0  0  0
  2 10  1  0  0  0
  3  4  1  0  0  0
  3  7  1  0  0  0
  4  5  1  0  0  0
  4  8  1  0  0  0
  5  6  1  0  0  0
  5  9  1  0  0  0
  6 14  1  0  0  0
  6 10  1  0  0  0
 14 15  1  0  0  0
  1 20  1  0  0  0
 17 18  1  0  0  0
 17 22  1  0  0  0
 17 25  1  0  0  0
 18 19  1  0  0  0
 18 23  1  0  0  0
 19 20  1  0  0  0
 19 24  1  0  0  0
 20 21  1  0  0  0
 21 29  1  0  0  0
 21 25  1  0  0  0
 29 30  1  0  0  0
  7 11  1  0  0  0
  8 12  1  0  0  0
  9 13  1  0  0  0
 15 16  1  0  0  0
 22 26  1  0  0  0
 23 27  1  0  0  0
 24 28  1  0  0  0
 30 31  1  0  0  0
M  END
> <minimizedAffinity>
-5.73510

$$$$
3AP4_LBT_A_155


 31 32  0  0  0  0  0  0  0  0999 V2000
   22.3872   32.7284   25.1603 O   0  0  0  0  0  0  0  0  0  0  0  0
   21.6477   33.0659   26.3212 C   0  0  0  0  0  0  0  0  0  0  0  0
   22.2740   34.3663   26.9074 C   0  0  0  0  0  0  0  0  0  0  0  0
   21.3280   34.9171   28.0153 C   0  0  0  0  0  0  0  0  0  0  0  0
   19.8681   35.0331   27.4843 C   0  0  0  0  0  0  0  0  0  0  0  0
   19.4456   33.6887   26.8447 C   0  0  0  0  0  0  0  0  0  0  0  0
   23.4955   34.0735   27.5318 O   0  0  0  0  0  0  0  0  0  0  0  0
   21.6890   36.2117   28.4773 O   0  0  0  0  0  0  0  0  0  0  0  0
   19.6974   36.0483   26.5252 O   0  0  0  0  0  0  0  0  0  0  0  0
   20.3471   33.2976   25.8092 O   0  0  0  0  0  0  0  0  0  0  0  0
   23.3479   33.4362   28.2480 H   0  0  0  0  0  0  0  0  0  0  0  0
   21.6137   36.8477   27.7487 H   0  0  0  0  0  0  0  0  0  0  0  0
   20.2384   35.8502   25.7449 H   0  0  0  0  0  0  0  0  0  0  0  0
   18.0217   33.7880   26.2511 C   0  0  0  0  0  0  0  0  0  0  0  0
   17.8732   33.1194   25.0360 O   0  0  0  0  0  0  0  0  0  0  0  0
   18.4611   33.5165   24.3745 H   0  0  0  0  0  0  0  0  0  0  0  0
   22.5944   29.2513   22.6839 C   0  0  0  0  0  0  0  0  0  0  0  0
   21.3473   30.1967   22.5871 C   0  0  0  0  0  0  0  0  0  0  0  0
   21.6561   31.5988   23.1725 C   0  0  0  0  0  0  0  0  0  0  0  0
   22.2040   31.4143   24.5988 C   0  0  0  0  0  0  0  0  0  0  0  0
   23.5598   30.6654   24.4650 C   0  0  0  0  0  0  0  0  0  0  0  0
   23.4619   29.2964   21.6022 O   0  0  0  0  0  0  0  0  0  0  0  0
   20.9144   30.3974   21.2561 O   0  0  0  0  0  0  0  0  0  0  0  0
   20.4557   32.3170   23.2759 O   0  0  0  0  0  0  0  0  0  0  0  0
   23.3899   29.3835   23.8519 O   0  0  0  0  0  0  0  0  0  0  0  0
   23.9159   30.1534   21.5873 H   0  0  0  0  0  0  0  0  0  0  0  0
   21.6125   30.8451   20.7531 H   0  0  0  0  0  0  0  0  0  0  0  0
   19.8374   31.8331   23.8455 H   0  0  0  0  0  0  0  0  0  0  0  0
   24.1970   30.3654   25.8470 C   0  0  0  0  0  0  0  0  0  0  0  0
   24.6919   31.5173   26.4755 O   0  0  0  0  0  0  0  0  0  0  0  0
   25.3896   31.9101   25.9278 H   0  0  0  0  0  0  0  0  0  0  0  0
  2  3  1  0  0  0
  2  1  1  0  0  0
  2 10  1  0  0  0
  3  4  1  0  0  0
  3  7  1  0  0  0
  4  5  1  0  0  0
  4  8  1  0  0  0
  5  6  1  0  0  0
  5  9  1  0  0  0
  6 14  1  0  0  0
  6 10  1  0  0  0
 14 15  1  0  0  0
  1 20  1  0  0  0
 17 18  1  0  0  0
 17 22  1  0  0  0
 17 25  1  0  0  0
 18 19  1  0  0  0
 18 23  1  0  0  0
 19 20  1  0  0  0
 19 24  1  0  0  0
 20 21  1  0  0  0
 21 29  1  0  0  0
 21 25  1  0  0  0
 29 30  1  0  0  0
  7 11  1  0  0  0
  8 12  1  0  0  0
  9 13  1  0  0  0
 15 16  1  0  0  0
 22 26  1  0  0  0
 23 27  1  0  0  0
 24 28  1  0  0  0
 30 31  1  0  0  0
M  END
> <minimizedAffinity>
-5.71993

$$$$
3AP4_LBT_A_155


 31 32  0  0  0  0  0  0  0  0999 V2000
   24.7308   29.8304   24.0854 O   0  0  0  0  0  0  0  0  0  0  0  0
   23.3232   29.8715   23.9268 C   0  0  0  0  0  0  0  0  0  0  0  0
   22.8232   31.1991   24.5704 C   0  0  0  0  0  0  0  0  0  0  0  0
   21.3309   31.4101   24.1773 C   0  0  0  0  0  0  0  0  0  0  0  0
   21.1440   31.2772   22.6365 C   0  0  0  0  0  0  0  0  0  0  0  0
   21.7878   29.9556   22.1528 C   0  0  0  0  0  0  0  0  0  0  0  0
   22.8596   31.0997   25.9692 O   0  0  0  0  0  0  0  0  0  0  0  0
   20.8266   32.6906   24.5319 O   0  0  0  0  0  0  0  0  0  0  0  0
   21.7149   32.3362   21.9072 O   0  0  0  0  0  0  0  0  0  0  0  0
   23.1656   29.8822   22.5188 O   0  0  0  0  0  0  0  0  0  0  0  0
   22.2905   30.3686   26.2563 H   0  0  0  0  0  0  0  0  0  0  0  0
   21.3104   33.3752   24.0438 H   0  0  0  0  0  0  0  0  0  0  0  0
   22.6745   32.3458   22.0485 H   0  0  0  0  0  0  0  0  0  0  0  0
   21.6746   29.8211   20.6170 C   0  0  0  0  0  0  0  0  0  0  0  0
   21.7131   28.5019   20.1657 O   0  0  0  0  0  0  0  0  0  0  0  0
   22.5659   28.1042   20.4014 H   0  0  0  0  0  0  0  0  0  0  0  0
   25.5750   25.6443   24.2580 C   0  0  0  0  0  0  0  0  0  0  0  0
   25.0762   26.3865   25.5458 C   0  0  0  0  0  0  0  0  0  0  0  0
   24.3847   27.7281   25.1910 C   0  0  0  0  0  0  0  0  0  0  0  0
   25.3492   28.5500   24.3177 C   0  0  0  0  0  0  0  0  0  0  0  0
   25.5319   27.7638   22.9891 C   0  0  0  0  0  0  0  0  0  0  0  0
   24.6552   24.7891   23.6688 O   0  0  0  0  0  0  0  0  0  0  0  0
   24.1397   25.6289   26.2862 O   0  0  0  0  0  0  0  0  0  0  0  0
   24.1730   28.4513   26.3741 O   0  0  0  0  0  0  0  0  0  0  0  0
   26.0903   26.4669   23.2224 O   0  0  0  0  0  0  0  0  0  0  0  0
   23.9335   25.3082   23.2808 H   0  0  0  0  0  0  0  0  0  0  0  0
   23.3436   25.4860   25.7507 H   0  0  0  0  0  0  0  0  0  0  0  0
   25.0231   28.6066   26.8146 H   0  0  0  0  0  0  0  0  0  0  0  0
   26.5330   28.4631   22.0328 C   0  0  0  0  0  0  0  0  0  0  0  0
   26.0108   29.6350   21.4664 O   0  0  0  0  0  0  0  0  0  0  0  0
   25.2277   29.4171   20.9370 H   0  0  0  0  0  0  0  0  0  0  0  0
  2  3  1  0  0  0
  2  1  1  0  0  0
  2 10  1  0  0  0
  3  4  1  0  0  0
  3  7  1  0  0  0
  4  5  1  0  0  0
  4  8  1  0  0  0
  5  6  1  0  0  0
  5  9  1  0  0  0
  6 14  1  0  0  0
  6 10  1  0  0  0
 14 15  1  0  0  0
  1 20  1  0  0  0
 17 18  1  0  0  0
 17 22  1  0  0  0
 17 25  1  0  0  0
 18 19  1  0  0  0
 18 23  1  0  0  0
 19 20  1  0  0  0
 19 24  1  0  0  0
 20 21  1  0  0  0
 21 29  1  0  0  0
 21 25  1  0  0  0
 29 30  1  0  0  0
  7 11  1  0  0  0
  8 12  1  0  0  0
  9 13  1  0  0  0
 15 16  1  0  0  0
 22 26  1  0  0  0
 23 27  1  0  0  0
 24 28  1  0  0  0
 30 31  1  0  0  0
M  END
> <minimizedAffinity>
-5.67877

$$$$
3AP4_LBT_A_155


 31 32  0  0  0  0  0  0  0  0999 V2000
   20.8916   30.2049   25.1929 O   0  0  0  0  0  0  0  0  0  0  0  0
   21.8648   30.3757   24.1770 C   0  0  0  0  0  0  0  0  0  0  0  0
   23.0284   29.3850   24.4793 C   0  0  0  0  0  0  0  0  0  0  0  0
   23.9803   29.3466   23.2471 C   0  0  0  0  0  0  0  0  0  0  0  0
   23.1758   29.0871   21.9386 C   0  0  0  0  0  0  0  0  0  0  0  0
   22.0002   30.0897   21.8508 C   0  0  0  0  0  0  0  0  0  0  0  0
   23.7902   29.8525   25.5605 O   0  0  0  0  0  0  0  0  0  0  0  0
   24.9632   28.3227   23.3214 O   0  0  0  0  0  0  0  0  0  0  0  0
   22.6500   27.7852   21.8504 O   0  0  0  0  0  0  0  0  0  0  0  0
   21.1607   30.0112   23.0027 O   0  0  0  0  0  0  0  0  0  0  0  0
   24.1574   30.7240   25.3445 H   0  0  0  0  0  0  0  0  0  0  0  0
   24.5276   27.4560   23.3249 H   0  0  0  0  0  0  0  0  0  0  0  0
   22.0176   27.6423   22.5720 H   0  0  0  0  0  0  0  0  0  0  0  0
   21.1429   29.8198   20.5931 C   0  0  0  0  0  0  0  0  0  0  0  0
   21.8327   29.1608   19.5755 O   0  0  0  0  0  0  0  0  0  0  0  0
   22.5715   29.7131   19.2755 H   0  0  0  0  0  0  0  0  0  0  0  0
   18.8265   33.0228   27.6548 C   0  0  0  0  0  0  0  0  0  0  0  0
   18.9914   33.3095   26.1222 C   0  0  0  0  0  0  0  0  0  0  0  0
   19.3189   32.0125   25.3383 C   0  0  0  0  0  0  0  0  0  0  0  0
   20.5423   31.3493   25.9955 C   0  0  0  0  0  0  0  0  0  0  0  0
   20.1067   30.9222   27.4254 C   0  0  0  0  0  0  0  0  0  0  0  0
   17.5445   32.6851   28.0635 O   0  0  0  0  0  0  0  0  0  0  0  0
   17.8245   33.8545   25.5385 O   0  0  0  0  0  0  0  0  0  0  0  0
   19.6845   32.3588   24.0291 O   0  0  0  0  0  0  0  0  0  0  0  0
   19.7011   32.0506   28.2066 O   0  0  0  0  0  0  0  0  0  0  0  0
   17.3141   31.8097   27.7148 H   0  0  0  0  0  0  0  0  0  0  0  0
   17.1012   33.2112   25.6005 H   0  0  0  0  0  0  0  0  0  0  0  0
   20.4524   32.9510   24.0538 H   0  0  0  0  0  0  0  0  0  0  0  0
   21.2743   30.2840   28.2225 C   0  0  0  0  0  0  0  0  0  0  0  0
   22.5289   30.7673   27.8233 O   0  0  0  0  0  0  0  0  0  0  0  0
   22.6778   30.5483   26.8902 H   0  0  0  0  0  0  0  0  0  0  0  0
  2  3  1  0  0  0
  2  1  1  0  0  0
  2 10  1  0  0  0
  3  4  1  0  0  0
  3  7  1  0  0  0
  4  5  1  0  0  0
  4  8  1  0  0  0
  5  6  1  0  0  0
  5  9  1  0  0  0
  6 14  1  0  0  0
  6 10  1  0  0  0
 14 15  1  0  0  0
  1 20  1  0  0  0
 17 18  1  0  0  0
 17 22  1  0  0  0
 17 25  1  0  0  0
 18 19  1  0  0  0
 18 23  1  0  0  0
 19 20  1  0  0  0
 19 24  1  0  0  0
 20 21  1  0  0  0
 21 29  1  0  0  0
 21 25  1  0  0  0
 29 30  1  0  0  0
  7 11  1  0  0  0
  8 12  1  0  0  0
  9 13  1  0  0  0
 15 16  1  0  0  0
 22 26  1  0  0  0
 23 27  1  0  0  0
 24 28  1  0  0  0
 30 31  1  0  0  0
M  END
> <minimizedAffinity>
-5.63525

$$$$
3AP4_LBT_A_155


 31 32  0  0  0  0  0  0  0  0999 V2000
   18.9767   29.6157   26.9217 O   0  0  0  0  0  0  0  0  0  0  0  0
   19.2242   28.4830   27.7366 C   0  0  0  0  0  0  0  0  0  0  0  0
   17.8569   27.7747   27.9725 C   0  0  0  0  0  0  0  0  0  0  0  0
   18.1232   26.3869   28.6275 C   0  0  0  0  0  0  0  0  0  0  0  0
   19.1823   25.5878   27.8113 C   0  0  0  0  0  0  0  0  0  0  0  0
   20.4295   26.4745   27.5806 C   0  0  0  0  0  0  0  0  0  0  0  0
   17.0858   28.5084   28.8863 O   0  0  0  0  0  0  0  0  0  0  0  0
   16.9680   25.5621   28.6985 O   0  0  0  0  0  0  0  0  0  0  0  0
   18.7151   25.1527   26.5575 O   0  0  0  0  0  0  0  0  0  0  0  0
   20.0863   27.6985   26.9311 O   0  0  0  0  0  0  0  0  0  0  0  0
   17.5619   28.5778   29.7286 H   0  0  0  0  0  0  0  0  0  0  0  0
   16.6611   25.3577   27.8013 H   0  0  0  0  0  0  0  0  0  0  0  0
   18.4968   25.9223   26.0089 H   0  0  0  0  0  0  0  0  0  0  0  0
   21.4772   25.7328   26.7192 C   0  0  0  0  0  0  0  0  0  0  0  0
   21.4040   24.3436   26.8206 O   0  0  0  0  0  0  0  0  0  0  0  0
   21.5810   24.0765   27.7361 H   0  0  0  0  0  0  0  0  0  0  0  0
   20.9409   33.3749   26.3959 C   0  0  0  0  0  0  0  0  0  0  0  0
   21.4758   32.1102   25.6392 C   0  0  0  0  0  0  0  0  0  0  0  0
   20.3978   30.9980   25.5683 C   0  0  0  0  0  0  0  0  0  0  0  0
   19.8996   30.7194   26.9976 C   0  0  0  0  0  0  0  0  0  0  0  0
   19.1903   32.0138   27.4854 C   0  0  0  0  0  0  0  0  0  0  0  0
   20.3010   34.3172   25.6039 O   0  0  0  0  0  0  0  0  0  0  0  0
   21.8598   32.3906   24.3076 O   0  0  0  0  0  0  0  0  0  0  0  0
   20.9975   29.8203   25.0980 O   0  0  0  0  0  0  0  0  0  0  0  0
   20.0899   33.1267   27.5045 O   0  0  0  0  0  0  0  0  0  0  0  0
   19.4582   33.9554   25.2882 H   0  0  0  0  0  0  0  0  0  0  0  0
   21.0846   32.6806   23.8018 H   0  0  0  0  0  0  0  0  0  0  0  0
   21.7191   29.5647   25.6936 H   0  0  0  0  0  0  0  0  0  0  0  0
   18.6849   31.8844   28.9462 C   0  0  0  0  0  0  0  0  0  0  0  0
   17.4045   31.3178   29.0269 O   0  0  0  0  0  0  0  0  0  0  0  0
   16.7697   31.8860   28.5632 H   0  0  0  0  0  0  0  0  0  0  0  0
  2  3  1  0  0  0
  2  1  1  0  0  0
  2 10  1  0  0  0
  3  4  1  0  0  0
  3  7  1  0  0  0
  4  5  1  0  0  0
  4  8  1  0  0  0
  5  6  1  0  0  0
  5  9  1  0  0  0
  6 14  1  0  0  0
  6 10  1  0  0  0
 14 15  1  0  0  0
  1 20  1  0  0  0
 17 18  1  0  0  0
 17 22  1  0  0  0
 17 25  1  0  0  0
 18 19  1  0  0  0
 18 23  1  0  0  0
 19 20  1  0  0  0
 19 24  1  0  0  0
 20 21  1  0  0  0
 21 29  1  0  0  0
 21 25  1  0  0  0
 29 30  1  0  0  0
  7 11  1  0  0  0
  8 12  1  0  0  0
  9 13  1  0  0  0
 15 16  1  0  0  0
 22 26  1  0  0  0
 23 27  1  0  0  0
 24 28  1  0  0  0
 30 31  1  0  0  0
M  END
> <minimizedAffinity>
-5.56403

$$$$
3AP4_LBT_A_155


 31 32  0  0  0  0  0  0  0  0999 V2000
   21.9384   32.3785   24.7165 O   0  0  0  0  0  0  0  0  0  0  0  0
   21.9307   31.0504   24.2223 C   0  0  0  0  0  0  0  0  0  0  0  0
   21.8295   31.1345   22.6701 C   0  0  0  0  0  0  0  0  0  0  0  0
   22.0932   29.7183   22.0779 C   0  0  0  0  0  0  0  0  0  0  0  0
   23.4116   29.1190   22.6518 C   0  0  0  0  0  0  0  0  0  0  0  0
   23.3876   29.2097   24.1965 C   0  0  0  0  0  0  0  0  0  0  0  0
   20.5270   31.4918   22.2911 O   0  0  0  0  0  0  0  0  0  0  0  0
   22.2339   29.7120   20.6637 O   0  0  0  0  0  0  0  0  0  0  0  0
   24.5717   29.7687   22.1919 O   0  0  0  0  0  0  0  0  0  0  0  0
   23.1909   30.5532   24.6371 O   0  0  0  0  0  0  0  0  0  0  0  0
   19.9011   30.8272   22.6188 H   0  0  0  0  0  0  0  0  0  0  0  0
   23.0126   30.2337   20.4140 H   0  0  0  0  0  0  0  0  0  0  0  0
   24.5622   30.6933   22.4850 H   0  0  0  0  0  0  0  0  0  0  0  0
   24.7097   28.6794   24.7970 C   0  0  0  0  0  0  0  0  0  0  0  0
   25.6991   29.6545   24.9223 O   0  0  0  0  0  0  0  0  0  0  0  0
   25.9288   29.9968   24.0443 H   0  0  0  0  0  0  0  0  0  0  0  0
   20.8935   34.1561   28.4602 C   0  0  0  0  0  0  0  0  0  0  0  0
   22.2647   33.4099   28.3141 C   0  0  0  0  0  0  0  0  0  0  0  0
   22.6702   33.2623   26.8249 C   0  0  0  0  0  0  0  0  0  0  0  0
   21.5031   32.5993   26.0721 C   0  0  0  0  0  0  0  0  0  0  0  0
   20.3113   33.5961   26.1253 C   0  0  0  0  0  0  0  0  0  0  0  0
   20.9735   35.5383   28.5479 O   0  0  0  0  0  0  0  0  0  0  0  0
   23.3264   34.0838   28.9605 O   0  0  0  0  0  0  0  0  0  0  0  0
   23.7681   32.3930   26.7421 O   0  0  0  0  0  0  0  0  0  0  0  0
   19.9151   33.8648   27.4740 O   0  0  0  0  0  0  0  0  0  0  0  0
   21.2589   35.9005   27.6944 H   0  0  0  0  0  0  0  0  0  0  0  0
   23.4620   34.9488   28.5432 H   0  0  0  0  0  0  0  0  0  0  0  0
   23.5291   31.5332   27.1221 H   0  0  0  0  0  0  0  0  0  0  0  0
   19.0420   33.0216   25.4436 C   0  0  0  0  0  0  0  0  0  0  0  0
   19.0595   33.1775   24.0499 O   0  0  0  0  0  0  0  0  0  0  0  0
   19.0887   34.1219   23.8306 H   0  0  0  0  0  0  0  0  0  0  0  0
  2  3  1  0  0  0
  2  1  1  0  0  0
  2 10  1  0  0  0
  3  4  1  0  0  0
  3  7  1  0  0  0
  4  5  1  0  0  0
  4  8  1  0  0  0
  5  6  1  0  0  0
  5  9  1  0  0  0
  6 14  1  0  0  0
  6 10  1  0  0  0
 14 15  1  0  0  0
  1 20  1  0  0  0
 17 18  1  0  0  0
 17 22  1  0  0  0
 17 25  1  0  0  0
 18 19  1  0  0  0
 18 23  1  0  0  0
 19 20  1  0  0  0
 19 24  1  0  0  0
 20 21  1  0  0  0
 21 29  1  0  0  0
 21 25  1  0  0  0
 29 30  1  0  0  0
  7 11  1  0  0  0
  8 12  1  0  0  0
  9 13  1  0  0  0
 15 16  1  0  0  0
 22 26  1  0  0  0
 23 27  1  0  0  0
 24 28  1  0  0  0
 30 31  1  0  0  0
M  END
> <minimizedAffinity>
-5.55346

$$$$
