3S45_478_B_201


 39 41  0  0  0  0  0  0  0  0999 V2000
   19.9126   11.3713   16.4129 C   0  0  0  0  0  0  0  0  0  0  0  0
   19.1308   11.0396   15.2669 O   0  0  0  0  0  0  0  0  0  0  0  0
   18.3803   11.6504   15.1997 H   0  0  0  0  0  0  0  0  0  0  0  0
   20.5333   12.7602   16.3038 C   0  0  0  0  0  0  0  0  0  0  0  0
   22.8290   12.7494   17.2365 C   0  0  0  0  0  0  0  0  0  0  0  0
   21.9919   12.6198   16.2049 N   0  0  0  0  0  0  0  0  0  0  0  0
   22.4714   12.8599   18.4025 O   0  0  0  0  0  0  0  0  0  0  0  0
   22.3767   12.4171   15.3217 H   0  0  0  0  0  0  0  0  0  0  0  0
   24.1462   12.7534   16.9336 O   0  0  0  0  0  0  0  0  0  0  0  0
   25.3658   14.5275   15.9110 C   0  0  0  0  0  0  0  0  0  0  0  0
   26.1842   13.5520   17.9289 C   0  0  0  0  0  0  0  0  0  0  0  0
   24.8819   13.9310   17.2384 C   0  0  0  0  0  0  0  0  0  0  0  0
   27.1746   13.3679   16.7779 C   0  0  0  0  0  0  0  0  0  0  0  0
   26.5536   13.8186   15.5792 O   0  0  0  0  0  0  0  0  0  0  0  0
   20.0627   13.5437   15.0711 C   0  0  0  0  0  0  0  0  0  0  0  0
   20.0200   15.0144   15.4733 C   0  0  0  0  0  0  0  0  0  0  0  0
   19.8580   15.3397   16.8146 C   0  0  0  0  0  0  0  0  0  0  0  0
   20.1161   16.0192   14.5270 C   0  0  0  0  0  0  0  0  0  0  0  0
   19.7219   16.6874   17.1102 C   0  0  0  0  0  0  0  0  0  0  0  0
   20.0254   17.3832   14.7678 C   0  0  0  0  0  0  0  0  0  0  0  0
   19.7284   17.6282   16.0913 C   0  0  0  0  0  0  0  0  0  0  0  0
   19.0599   11.2182   17.6799 C   0  0  0  0  0  0  0  0  0  0  0  0
   19.5047    9.9830   18.3450 N   0  0  0  0  0  0  0  0  0  0  0  0
   19.4636    7.6529   17.4152 O   0  0  0  0  0  0  0  0  0  0  0  0
   17.4869    9.1076   17.1148 O   0  0  0  0  0  0  0  0  0  0  0  0
   18.5736    8.6889   18.0220 S   0  0  0  0  0  0  0  0  0  0  0  0
   17.9096    8.0373   19.4955 C   0  0  0  0  0  0  0  0  0  0  0  0
   16.9669    8.8298   20.1515 C   0  0  0  0  0  0  0  0  0  0  0  0
   16.3752    8.3316   21.3036 C   0  0  0  0  0  0  0  0  0  0  0  0
   16.7167    7.0737   21.7714 C   0  0  0  0  0  0  0  0  0  0  0  0
   17.6663    6.2953   21.1179 C   0  0  0  0  0  0  0  0  0  0  0  0
   18.2619    6.7776   19.9411 C   0  0  0  0  0  0  0  0  0  0  0  0
   16.0845    6.6245   22.8515 N   0  0  0  0  0  0  0  0  0  0  0  0
   15.4153    7.1898   23.3009 H   0  0  0  0  0  0  0  0  0  0  0  0
   16.2855    5.7267   23.2018 H   0  0  0  0  0  0  0  0  0  0  0  0
   20.9234    9.7370   18.1098 C   0  0  0  0  0  0  0  0  0  0  0  0
   21.5225    9.4044   19.4942 C   0  0  0  0  0  0  0  0  0  0  0  0
   23.0547    9.4849   19.4102 C   0  0  0  0  0  0  0  0  0  0  0  0
   20.9675   10.3725   20.5493 C   0  0  0  0  0  0  0  0  0  0  0  0
 10 12  1  0  0  0
 10 14  1  0  0  0
 11 12  1  0  0  0
 11 13  1  0  0  0
  5  6  1  0  0  0
  5  9  1  0  0  0
  5  7  2  0  0  0
 12  9  1  0  0  0
  4  1  1  0  0  0
  4 15  1  0  0  0
  4  6  1  0  0  0
  1 22  1  0  0  0
  1  2  1  0  0  0
 15 16  1  0  0  0
 16 17  2  0  0  0
 16 18  1  0  0  0
 17 19  1  0  0  0
 18 20  2  0  0  0
 19 21  2  0  0  0
 20 21  1  0  0  0
 22 23  1  0  0  0
 36 37  1  0  0  0
 36 23  1  0  0  0
 37 38  1  0  0  0
 37 39  1  0  0  0
 27 28  2  0  0  0
 27 32  1  0  0  0
 27 26  1  0  0  0
 28 29  1  0  0  0
 29 30  2  0  0  0
 30 31  1  0  0  0
 30 33  1  0  0  0
 31 32  2  0  0  0
 13 14  1  0  0  0
 23 26  1  0  0  0
 24 26  2  0  0  0
 25 26  2  0  0  0
  6  8  1  0  0  0
 33 34  1  0  0  0
 33 35  1  0  0  0
  2  3  1  0  0  0
M  END
> <minimizedAffinity>
-9.01449

$$$$
3S45_478_B_201


 39 41  0  0  0  0  0  0  0  0999 V2000
   20.5768   11.5925   19.7120 C   0  0  0  0  0  0  0  0  0  0  0  0
   20.7160   12.1191   21.0302 O   0  0  0  0  0  0  0  0  0  0  0  0
   20.7862   11.3886   21.6645 H   0  0  0  0  0  0  0  0  0  0  0  0
   21.8045   10.7991   19.2766 C   0  0  0  0  0  0  0  0  0  0  0  0
   22.8223   11.3479   17.0850 C   0  0  0  0  0  0  0  0  0  0  0  0
   22.6086   11.6309   18.3718 N   0  0  0  0  0  0  0  0  0  0  0  0
   22.2619   10.4444   16.4774 O   0  0  0  0  0  0  0  0  0  0  0  0
   23.0158   12.4492   18.7377 H   0  0  0  0  0  0  0  0  0  0  0  0
   23.7201   12.1316   16.4474 O   0  0  0  0  0  0  0  0  0  0  0  0
   23.9239   14.4529   15.9468 C   0  0  0  0  0  0  0  0  0  0  0  0
   25.5082   13.4235   17.4041 C   0  0  0  0  0  0  0  0  0  0  0  0
   24.0304   13.3848   17.0423 C   0  0  0  0  0  0  0  0  0  0  0  0
   26.1831   13.9804   16.1495 C   0  0  0  0  0  0  0  0  0  0  0  0
   25.1672   14.4232   15.2564 O   0  0  0  0  0  0  0  0  0  0  0  0
   22.7090   10.3847   20.4450 C   0  0  0  0  0  0  0  0  0  0  0  0
   22.4746    8.8955   20.6774 C   0  0  0  0  0  0  0  0  0  0  0  0
   22.6794    8.0110   19.6254 C   0  0  0  0  0  0  0  0  0  0  0  0
   22.0424    8.4208   21.9030 C   0  0  0  0  0  0  0  0  0  0  0  0
   22.3520    6.6847   19.8621 C   0  0  0  0  0  0  0  0  0  0  0  0
   21.7359    7.1021   22.2093 C   0  0  0  0  0  0  0  0  0  0  0  0
   21.8282    6.3048   21.0887 C   0  0  0  0  0  0  0  0  0  0  0  0
   19.2904   10.7600   19.6231 C   0  0  0  0  0  0  0  0  0  0  0  0
   19.0741   10.4624   18.1981 N   0  0  0  0  0  0  0  0  0  0  0  0
   19.7298    8.1143   17.6047 O   0  0  0  0  0  0  0  0  0  0  0  0
   17.5683    9.0045   16.7987 O   0  0  0  0  0  0  0  0  0  0  0  0
   18.5334    8.9547   17.9147 S   0  0  0  0  0  0  0  0  0  0  0  0
   17.7707    8.3064   19.3412 C   0  0  0  0  0  0  0  0  0  0  0  0
   18.5201    7.3901   20.0799 C   0  0  0  0  0  0  0  0  0  0  0  0
   17.9727    6.8830   21.2499 C   0  0  0  0  0  0  0  0  0  0  0  0
   16.7167    7.2938   21.6639 C   0  0  0  0  0  0  0  0  0  0  0  0
   15.9715    8.1986   20.9150 C   0  0  0  0  0  0  0  0  0  0  0  0
   16.5180    8.7344   19.7375 C   0  0  0  0  0  0  0  0  0  0  0  0
   16.2597    6.8144   22.8168 N   0  0  0  0  0  0  0  0  0  0  0  0
   16.8013    6.1747   23.3332 H   0  0  0  0  0  0  0  0  0  0  0  0
   15.3797    7.0992   23.1541 H   0  0  0  0  0  0  0  0  0  0  0  0
   18.2569   11.4897   17.5614 C   0  0  0  0  0  0  0  0  0  0  0  0
   19.2565   12.4795   16.9233 C   0  0  0  0  0  0  0  0  0  0  0  0
   19.2790   12.2593   15.4027 C   0  0  0  0  0  0  0  0  0  0  0  0
   18.8602   13.9209   17.2750 C   0  0  0  0  0  0  0  0  0  0  0  0
 10 12  1  0  0  0
 10 14  1  0  0  0
 11 12  1  0  0  0
 11 13  1  0  0  0
  5  6  1  0  0  0
  5  9  1  0  0  0
  5  7  2  0  0  0
 12  9  1  0  0  0
  4  1  1  0  0  0
  4 15  1  0  0  0
  4  6  1  0  0  0
  1 22  1  0  0  0
  1  2  1  0  0  0
 15 16  1  0  0  0
 16 17  2  0  0  0
 16 18  1  0  0  0
 17 19  1  0  0  0
 18 20  2  0  0  0
 19 21  2  0  0  0
 20 21  1  0  0  0
 22 23  1  0  0  0
 36 37  1  0  0  0
 36 23  1  0  0  0
 37 38  1  0  0  0
 37 39  1  0  0  0
 27 28  2  0  0  0
 27 32  1  0  0  0
 27 26  1  0  0  0
 28 29  1  0  0  0
 29 30  2  0  0  0
 30 31  1  0  0  0
 30 33  1  0  0  0
 31 32  2  0  0  0
 13 14  1  0  0  0
 23 26  1  0  0  0
 24 26  2  0  0  0
 25 26  2  0  0  0
  6  8  1  0  0  0
 33 34  1  0  0  0
 33 35  1  0  0  0
  2  3  1  0  0  0
M  END
> <minimizedAffinity>
-8.94861

$$$$
3S45_478_B_201


 39 41  0  0  0  0  0  0  0  0999 V2000
   20.7650    9.6230   17.2485 C   0  0  0  0  0  0  0  0  0  0  0  0
   21.1854    8.8945   16.0966 O   0  0  0  0  0  0  0  0  0  0  0  0
   20.5616    9.0499   15.3703 H   0  0  0  0  0  0  0  0  0  0  0  0
   20.7867   11.1302   17.0157 C   0  0  0  0  0  0  0  0  0  0  0  0
   22.9864   12.2362   17.2955 C   0  0  0  0  0  0  0  0  0  0  0  0
   22.1292   11.5198   16.5651 N   0  0  0  0  0  0  0  0  0  0  0  0
   22.8099   12.5299   18.4711 O   0  0  0  0  0  0  0  0  0  0  0  0
   22.4150   11.2343   15.6673 H   0  0  0  0  0  0  0  0  0  0  0  0
   24.1085   12.6434   16.6616 O   0  0  0  0  0  0  0  0  0  0  0  0
   25.2127   14.6198   15.9165 C   0  0  0  0  0  0  0  0  0  0  0  0
   26.0387   13.4670   17.8353 C   0  0  0  0  0  0  0  0  0  0  0  0
   24.7342   13.8272   17.1392 C   0  0  0  0  0  0  0  0  0  0  0  0
   27.0798   13.5046   16.7154 C   0  0  0  0  0  0  0  0  0  0  0  0
   26.4653   14.0516   15.5539 O   0  0  0  0  0  0  0  0  0  0  0  0
   19.7899   11.5968   15.9464 C   0  0  0  0  0  0  0  0  0  0  0  0
   19.6130   13.1001   16.1345 C   0  0  0  0  0  0  0  0  0  0  0  0
   20.3039   13.9678   15.2972 C   0  0  0  0  0  0  0  0  0  0  0  0
   18.8001   13.6067   17.1328 C   0  0  0  0  0  0  0  0  0  0  0  0
   20.1875   15.3202   15.5792 C   0  0  0  0  0  0  0  0  0  0  0  0
   18.6149   14.9483   17.4371 C   0  0  0  0  0  0  0  0  0  0  0  0
   19.4317   15.7435   16.6622 C   0  0  0  0  0  0  0  0  0  0  0  0
   19.3825    9.1279   17.6949 C   0  0  0  0  0  0  0  0  0  0  0  0
   19.4279    9.0047   19.1607 N   0  0  0  0  0  0  0  0  0  0  0  0
   17.6572   10.7778   19.0305 O   0  0  0  0  0  0  0  0  0  0  0  0
   18.6109   10.1834   21.2331 O   0  0  0  0  0  0  0  0  0  0  0  0
   18.1598    9.6857   19.9185 S   0  0  0  0  0  0  0  0  0  0  0  0
   16.8795    8.5213   20.1232 C   0  0  0  0  0  0  0  0  0  0  0  0
   16.5936    8.1420   21.4352 C   0  0  0  0  0  0  0  0  0  0  0  0
   15.5502    7.2531   21.6511 C   0  0  0  0  0  0  0  0  0  0  0  0
   14.8156    6.7714   20.5805 C   0  0  0  0  0  0  0  0  0  0  0  0
   15.1151    7.1455   19.2747 C   0  0  0  0  0  0  0  0  0  0  0  0
   16.1569    8.0577   19.0404 C   0  0  0  0  0  0  0  0  0  0  0  0
   13.7959    5.9607   20.8469 N   0  0  0  0  0  0  0  0  0  0  0  0
   13.5990    5.7068   21.7775 H   0  0  0  0  0  0  0  0  0  0  0  0
   13.2378    5.6143   20.1136 H   0  0  0  0  0  0  0  0  0  0  0  0
   19.6603    7.6233   19.5685 C   0  0  0  0  0  0  0  0  0  0  0  0
   20.9111    7.6624   20.4741 C   0  0  0  0  0  0  0  0  0  0  0  0
   20.5812    6.9872   21.8144 C   0  0  0  0  0  0  0  0  0  0  0  0
   22.0864    6.9676   19.7709 C   0  0  0  0  0  0  0  0  0  0  0  0
 10 12  1  0  0  0
 10 14  1  0  0  0
 11 12  1  0  0  0
 11 13  1  0  0  0
  5  6  1  0  0  0
  5  9  1  0  0  0
  5  7  2  0  0  0
 12  9  1  0  0  0
  4  1  1  0  0  0
  4 15  1  0  0  0
  4  6  1  0  0  0
  1 22  1  0  0  0
  1  2  1  0  0  0
 15 16  1  0  0  0
 16 17  2  0  0  0
 16 18  1  0  0  0
 17 19  1  0  0  0
 18 20  2  0  0  0
 19 21  2  0  0  0
 20 21  1  0  0  0
 22 23  1  0  0  0
 36 37  1  0  0  0
 36 23  1  0  0  0
 37 38  1  0  0  0
 37 39  1  0  0  0
 27 28  2  0  0  0
 27 32  1  0  0  0
 27 26  1  0  0  0
 28 29  1  0  0  0
 29 30  2  0  0  0
 30 31  1  0  0  0
 30 33  1  0  0  0
 31 32  2  0  0  0
 13 14  1  0  0  0
 23 26  1  0  0  0
 24 26  2  0  0  0
 25 26  2  0  0  0
  6  8  1  0  0  0
 33 34  1  0  0  0
 33 35  1  0  0  0
  2  3  1  0  0  0
M  END
> <minimizedAffinity>
-8.94377

$$$$
3S45_478_B_201


 39 41  0  0  0  0  0  0  0  0999 V2000
   19.1789   10.0565   17.9977 C   0  0  0  0  0  0  0  0  0  0  0  0
   19.6931   10.0255   16.6677 O   0  0  0  0  0  0  0  0  0  0  0  0
   20.6584   10.1174   16.6919 H   0  0  0  0  0  0  0  0  0  0  0  0
   19.6737    8.8804   18.8335 C   0  0  0  0  0  0  0  0  0  0  0  0
   18.3167    7.2222   20.0781 C   0  0  0  0  0  0  0  0  0  0  0  0
   18.5869    7.9007   18.9609 N   0  0  0  0  0  0  0  0  0  0  0  0
   18.8489    7.4383   21.1596 O   0  0  0  0  0  0  0  0  0  0  0  0
   18.0219    7.7338   18.1721 H   0  0  0  0  0  0  0  0  0  0  0  0
   17.3909    6.2437   19.9676 O   0  0  0  0  0  0  0  0  0  0  0  0
   15.7570    4.7948   20.9225 C   0  0  0  0  0  0  0  0  0  0  0  0
   15.2013    7.0779   20.5076 C   0  0  0  0  0  0  0  0  0  0  0  0
   16.3649    6.2026   20.9507 C   0  0  0  0  0  0  0  0  0  0  0  0
   14.3103    6.1310   19.7019 C   0  0  0  0  0  0  0  0  0  0  0  0
   14.8047    4.8064   19.8659 O   0  0  0  0  0  0  0  0  0  0  0  0
   20.8759    8.1550   18.2145 C   0  0  0  0  0  0  0  0  0  0  0  0
   21.9153    8.0013   19.3202 C   0  0  0  0  0  0  0  0  0  0  0  0
   22.1488    6.7389   19.8520 C   0  0  0  0  0  0  0  0  0  0  0  0
   22.6052    9.0950   19.8122 C   0  0  0  0  0  0  0  0  0  0  0  0
   23.0262    6.6737   20.9235 C   0  0  0  0  0  0  0  0  0  0  0  0
   23.5213    9.0848   20.8550 C   0  0  0  0  0  0  0  0  0  0  0  0
   23.6016    7.8320   21.4242 C   0  0  0  0  0  0  0  0  0  0  0  0
   19.5120   11.4066   18.6473 C   0  0  0  0  0  0  0  0  0  0  0  0
   20.2266   12.2007   17.6351 N   0  0  0  0  0  0  0  0  0  0  0  0
   18.0170   13.3807   17.4905 O   0  0  0  0  0  0  0  0  0  0  0  0
   18.9714   12.3512   15.4550 O   0  0  0  0  0  0  0  0  0  0  0  0
   19.2512   13.1013   16.6953 S   0  0  0  0  0  0  0  0  0  0  0  0
   20.0097   14.6245   16.3190 C   0  0  0  0  0  0  0  0  0  0  0  0
   19.4893   15.7488   16.9608 C   0  0  0  0  0  0  0  0  0  0  0  0
   20.0918   16.9772   16.7290 C   0  0  0  0  0  0  0  0  0  0  0  0
   21.1869   17.0654   15.8859 C   0  0  0  0  0  0  0  0  0  0  0  0
   21.6918   15.9412   15.2408 C   0  0  0  0  0  0  0  0  0  0  0  0
   21.1043   14.6879   15.4780 C   0  0  0  0  0  0  0  0  0  0  0  0
   21.7562   18.2577   15.7367 N   0  0  0  0  0  0  0  0  0  0  0  0
   21.3847   19.0421   16.2013 H   0  0  0  0  0  0  0  0  0  0  0  0
   22.5492   18.3560   15.1616 H   0  0  0  0  0  0  0  0  0  0  0  0
   21.3098   12.9718   18.2357 C   0  0  0  0  0  0  0  0  0  0  0  0
   22.5807   12.1123   18.0566 C   0  0  0  0  0  0  0  0  0  0  0  0
   22.5113   11.3907   16.7017 C   0  0  0  0  0  0  0  0  0  0  0  0
   23.8296   13.0005   18.1552 C   0  0  0  0  0  0  0  0  0  0  0  0
 10 12  1  0  0  0
 10 14  1  0  0  0
 11 12  1  0  0  0
 11 13  1  0  0  0
  5  6  1  0  0  0
  5  9  1  0  0  0
  5  7  2  0  0  0
 12  9  1  0  0  0
  4  1  1  0  0  0
  4 15  1  0  0  0
  4  6  1  0  0  0
  1 22  1  0  0  0
  1  2  1  0  0  0
 15 16  1  0  0  0
 16 17  2  0  0  0
 16 18  1  0  0  0
 17 19  1  0  0  0
 18 20  2  0  0  0
 19 21  2  0  0  0
 20 21  1  0  0  0
 22 23  1  0  0  0
 36 37  1  0  0  0
 36 23  1  0  0  0
 37 38  1  0  0  0
 37 39  1  0  0  0
 27 28  2  0  0  0
 27 32  1  0  0  0
 27 26  1  0  0  0
 28 29  1  0  0  0
 29 30  2  0  0  0
 30 31  1  0  0  0
 30 33  1  0  0  0
 31 32  2  0  0  0
 13 14  1  0  0  0
 23 26  1  0  0  0
 24 26  2  0  0  0
 25 26  2  0  0  0
  6  8  1  0  0  0
 33 34  1  0  0  0
 33 35  1  0  0  0
  2  3  1  0  0  0
M  END
> <minimizedAffinity>
-8.66797

$$$$
3S45_478_B_201


 39 41  0  0  0  0  0  0  0  0999 V2000
   21.6362    8.8999   19.2023 C   0  0  0  0  0  0  0  0  0  0  0  0
   23.0014    8.4879   19.1706 O   0  0  0  0  0  0  0  0  0  0  0  0
   23.2472    8.2527   18.2622 H   0  0  0  0  0  0  0  0  0  0  0  0
   21.3971   10.1630   18.3815 C   0  0  0  0  0  0  0  0  0  0  0  0
   23.1442   11.8795   18.0052 C   0  0  0  0  0  0  0  0  0  0  0  0
   22.6843   10.6355   17.8551 N   0  0  0  0  0  0  0  0  0  0  0  0
   22.6163   12.7269   18.7142 O   0  0  0  0  0  0  0  0  0  0  0  0
   23.2434    9.9939   17.3602 H   0  0  0  0  0  0  0  0  0  0  0  0
   24.2659   12.1836   17.3152 O   0  0  0  0  0  0  0  0  0  0  0  0
   24.9973   14.0440   16.0173 C   0  0  0  0  0  0  0  0  0  0  0  0
   26.1752   13.4689   18.0111 C   0  0  0  0  0  0  0  0  0  0  0  0
   24.7668   13.5085   17.4359 C   0  0  0  0  0  0  0  0  0  0  0  0
   27.0762   13.3620   16.7797 C   0  0  0  0  0  0  0  0  0  0  0  0
   26.2717   13.5516   15.6210 O   0  0  0  0  0  0  0  0  0  0  0  0
   20.4633    9.9445   17.1835 C   0  0  0  0  0  0  0  0  0  0  0  0
   19.7935   11.2845   16.8965 C   0  0  0  0  0  0  0  0  0  0  0  0
   19.7973   11.7724   15.5953 C   0  0  0  0  0  0  0  0  0  0  0  0
   19.2083   12.0245   17.9085 C   0  0  0  0  0  0  0  0  0  0  0  0
   19.2672   13.0402   15.4106 C   0  0  0  0  0  0  0  0  0  0  0  0
   18.6298   13.2794   17.7769 C   0  0  0  0  0  0  0  0  0  0  0  0
   18.7903   13.7607   16.4953 C   0  0  0  0  0  0  0  0  0  0  0  0
   20.7377    7.7401   18.7515 C   0  0  0  0  0  0  0  0  0  0  0  0
   19.7830    7.4926   19.8439 N   0  0  0  0  0  0  0  0  0  0  0  0
   20.6800    7.6208   22.1837 O   0  0  0  0  0  0  0  0  0  0  0  0
   21.6270    5.9585   20.6171 O   0  0  0  0  0  0  0  0  0  0  0  0
   20.4068    6.6456   21.0846 S   0  0  0  0  0  0  0  0  0  0  0  0
   19.2475    5.4824   21.6678 C   0  0  0  0  0  0  0  0  0  0  0  0
   19.1913    5.3067   23.0509 C   0  0  0  0  0  0  0  0  0  0  0  0
   18.2503    4.4259   23.5650 C   0  0  0  0  0  0  0  0  0  0  0  0
   17.3904    3.7533   22.7130 C   0  0  0  0  0  0  0  0  0  0  0  0
   17.4615    3.9254   21.3345 C   0  0  0  0  0  0  0  0  0  0  0  0
   18.3965    4.8261   20.7993 C   0  0  0  0  0  0  0  0  0  0  0  0
   16.4759    2.9585   23.2606 N   0  0  0  0  0  0  0  0  0  0  0  0
   16.4408    2.8490   24.2384 H   0  0  0  0  0  0  0  0  0  0  0  0
   15.8338    2.4795   22.6883 H   0  0  0  0  0  0  0  0  0  0  0  0
   19.1320    8.7276   20.2675 C   0  0  0  0  0  0  0  0  0  0  0  0
   17.6169    8.4762   20.1029 C   0  0  0  0  0  0  0  0  0  0  0  0
   16.8927    8.9208   21.3832 C   0  0  0  0  0  0  0  0  0  0  0  0
   17.0933    9.2309   18.8721 C   0  0  0  0  0  0  0  0  0  0  0  0
 10 12  1  0  0  0
 10 14  1  0  0  0
 11 12  1  0  0  0
 11 13  1  0  0  0
  5  6  1  0  0  0
  5  9  1  0  0  0
  5  7  2  0  0  0
 12  9  1  0  0  0
  4  1  1  0  0  0
  4 15  1  0  0  0
  4  6  1  0  0  0
  1 22  1  0  0  0
  1  2  1  0  0  0
 15 16  1  0  0  0
 16 17  2  0  0  0
 16 18  1  0  0  0
 17 19  1  0  0  0
 18 20  2  0  0  0
 19 21  2  0  0  0
 20 21  1  0  0  0
 22 23  1  0  0  0
 36 37  1  0  0  0
 36 23  1  0  0  0
 37 38  1  0  0  0
 37 39  1  0  0  0
 27 28  2  0  0  0
 27 32  1  0  0  0
 27 26  1  0  0  0
 28 29  1  0  0  0
 29 30  2  0  0  0
 30 31  1  0  0  0
 30 33  1  0  0  0
 31 32  2  0  0  0
 13 14  1  0  0  0
 23 26  1  0  0  0
 24 26  2  0  0  0
 25 26  2  0  0  0
  6  8  1  0  0  0
 33 34  1  0  0  0
 33 35  1  0  0  0
  2  3  1  0  0  0
M  END
> <minimizedAffinity>
-8.62841

$$$$
3S45_478_B_201


 39 41  0  0  0  0  0  0  0  0999 V2000
   20.7183   11.6686   19.1771 C   0  0  0  0  0  0  0  0  0  0  0  0
   20.7655   12.0036   20.5627 O   0  0  0  0  0  0  0  0  0  0  0  0
   21.5961   12.4661   20.7554 H   0  0  0  0  0  0  0  0  0  0  0  0
   20.7052   12.9064   18.2859 C   0  0  0  0  0  0  0  0  0  0  0  0
   23.0897   13.4318   17.8634 C   0  0  0  0  0  0  0  0  0  0  0  0
   21.9251   12.9130   17.4680 N   0  0  0  0  0  0  0  0  0  0  0  0
   23.3137   13.8331   18.9984 O   0  0  0  0  0  0  0  0  0  0  0  0
   21.8811   12.5091   16.5713 H   0  0  0  0  0  0  0  0  0  0  0  0
   24.0575   13.5001   16.9225 O   0  0  0  0  0  0  0  0  0  0  0  0
   25.7711   14.7408   15.8247 C   0  0  0  0  0  0  0  0  0  0  0  0
   26.2754   13.5807   17.8478 C   0  0  0  0  0  0  0  0  0  0  0  0
   25.1561   14.3652   17.1785 C   0  0  0  0  0  0  0  0  0  0  0  0
   27.1095   13.0536   16.6790 C   0  0  0  0  0  0  0  0  0  0  0  0
   26.6396   13.6670   15.4838 O   0  0  0  0  0  0  0  0  0  0  0  0
   19.5087   12.9548   17.3264 C   0  0  0  0  0  0  0  0  0  0  0  0
   19.7103   14.1732   16.4312 C   0  0  0  0  0  0  0  0  0  0  0  0
   20.1133   13.9807   15.1153 C   0  0  0  0  0  0  0  0  0  0  0  0
   19.5219   15.4561   16.9138 C   0  0  0  0  0  0  0  0  0  0  0  0
   20.3815   15.1244   14.3789 C   0  0  0  0  0  0  0  0  0  0  0  0
   19.7373   16.6351   16.2135 C   0  0  0  0  0  0  0  0  0  0  0  0
   20.2650   16.3749   14.9670 C   0  0  0  0  0  0  0  0  0  0  0  0
   21.8788   10.7241   18.8357 C   0  0  0  0  0  0  0  0  0  0  0  0
   21.4150    9.3581   19.1270 N   0  0  0  0  0  0  0  0  0  0  0  0
   21.2242    7.4143   17.5518 O   0  0  0  0  0  0  0  0  0  0  0  0
   20.4696    9.6488   16.8090 O   0  0  0  0  0  0  0  0  0  0  0  0
   20.5416    8.6894   17.9286 S   0  0  0  0  0  0  0  0  0  0  0  0
   18.9389    8.3003   18.4915 C   0  0  0  0  0  0  0  0  0  0  0  0
   18.8464    7.2701   19.4280 C   0  0  0  0  0  0  0  0  0  0  0  0
   17.5956    6.9568   19.9408 C   0  0  0  0  0  0  0  0  0  0  0  0
   16.4790    7.6651   19.5292 C   0  0  0  0  0  0  0  0  0  0  0  0
   16.5787    8.6826   18.5861 C   0  0  0  0  0  0  0  0  0  0  0  0
   17.8395    9.0236   18.0701 C   0  0  0  0  0  0  0  0  0  0  0  0
   15.3125    7.3571   20.0880 N   0  0  0  0  0  0  0  0  0  0  0  0
   15.2613    6.6336   20.7538 H   0  0  0  0  0  0  0  0  0  0  0  0
   14.4999    7.8525   19.8359 H   0  0  0  0  0  0  0  0  0  0  0  0
   22.5153    8.5094   19.5718 C   0  0  0  0  0  0  0  0  0  0  0  0
   22.0753    7.9415   20.9392 C   0  0  0  0  0  0  0  0  0  0  0  0
   22.1722    6.4084   20.9002 C   0  0  0  0  0  0  0  0  0  0  0  0
   22.9511    8.5301   22.0550 C   0  0  0  0  0  0  0  0  0  0  0  0
 10 12  1  0  0  0
 10 14  1  0  0  0
 11 12  1  0  0  0
 11 13  1  0  0  0
  5  6  1  0  0  0
  5  9  1  0  0  0
  5  7  2  0  0  0
 12  9  1  0  0  0
  4  1  1  0  0  0
  4 15  1  0  0  0
  4  6  1  0  0  0
  1 22  1  0  0  0
  1  2  1  0  0  0
 15 16  1  0  0  0
 16 17  2  0  0  0
 16 18  1  0  0  0
 17 19  1  0  0  0
 18 20  2  0  0  0
 19 21  2  0  0  0
 20 21  1  0  0  0
 22 23  1  0  0  0
 36 37  1  0  0  0
 36 23  1  0  0  0
 37 38  1  0  0  0
 37 39  1  0  0  0
 27 28  2  0  0  0
 27 32  1  0  0  0
 27 26  1  0  0  0
 28 29  1  0  0  0
 29 30  2  0  0  0
 30 31  1  0  0  0
 30 33  1  0  0  0
 31 32  2  0  0  0
 13 14  1  0  0  0
 23 26  1  0  0  0
 24 26  2  0  0  0
 25 26  2  0  0  0
  6  8  1  0  0  0
 33 34  1  0  0  0
 33 35  1  0  0  0
  2  3  1  0  0  0
M  END
> <minimizedAffinity>
-8.56253

$$$$
3S45_478_B_201


 39 41  0  0  0  0  0  0  0  0999 V2000
   21.1508   11.5070   16.8827 C   0  0  0  0  0  0  0  0  0  0  0  0
   20.3716   11.2873   15.7084 O   0  0  0  0  0  0  0  0  0  0  0  0
   19.7026   11.9852   15.6290 H   0  0  0  0  0  0  0  0  0  0  0  0
   21.9376   12.8119   16.8154 C   0  0  0  0  0  0  0  0  0  0  0  0
   20.5389   14.5938   15.8110 C   0  0  0  0  0  0  0  0  0  0  0  0
   20.9948   13.9362   16.8794 N   0  0  0  0  0  0  0  0  0  0  0  0
   20.7413   14.2493   14.6535 O   0  0  0  0  0  0  0  0  0  0  0  0
   20.6791   14.2231   17.7667 H   0  0  0  0  0  0  0  0  0  0  0  0
   19.8112   15.7040   16.0649 O   0  0  0  0  0  0  0  0  0  0  0  0
   21.2277   17.5368   15.5035 C   0  0  0  0  0  0  0  0  0  0  0  0
   18.8596   17.8238   15.4459 C   0  0  0  0  0  0  0  0  0  0  0  0
   19.9357   16.7880   15.1537 C   0  0  0  0  0  0  0  0  0  0  0  0
   19.5105   18.7570   16.4682 C   0  0  0  0  0  0  0  0  0  0  0  0
   20.8883   18.4150   16.5698 O   0  0  0  0  0  0  0  0  0  0  0  0
   22.9354   12.9829   17.9686 C   0  0  0  0  0  0  0  0  0  0  0  0
   24.2638   13.3983   17.3444 C   0  0  0  0  0  0  0  0  0  0  0  0
   24.2569   14.3063   16.2924 C   0  0  0  0  0  0  0  0  0  0  0  0
   25.4619   12.8705   17.7917 C   0  0  0  0  0  0  0  0  0  0  0  0
   25.4808   14.5682   15.6959 C   0  0  0  0  0  0  0  0  0  0  0  0
   26.7187   13.1244   17.2599 C   0  0  0  0  0  0  0  0  0  0  0  0
   26.6243   13.9206   16.1387 C   0  0  0  0  0  0  0  0  0  0  0  0
   20.2462   11.4419   18.1208 C   0  0  0  0  0  0  0  0  0  0  0  0
   20.3411   10.0700   18.6451 N   0  0  0  0  0  0  0  0  0  0  0  0
   19.8364    7.9800   17.3517 O   0  0  0  0  0  0  0  0  0  0  0  0
   18.2340    9.8617   17.2784 O   0  0  0  0  0  0  0  0  0  0  0  0
   19.1668    9.0785   18.1125 S   0  0  0  0  0  0  0  0  0  0  0  0
   18.3182    8.3667   19.4579 C   0  0  0  0  0  0  0  0  0  0  0  0
   17.5410    9.2341   20.2264 C   0  0  0  0  0  0  0  0  0  0  0  0
   16.8092    8.7043   21.2797 C   0  0  0  0  0  0  0  0  0  0  0  0
   16.8536    7.3452   21.5418 C   0  0  0  0  0  0  0  0  0  0  0  0
   17.6405    6.4896   20.7780 C   0  0  0  0  0  0  0  0  0  0  0  0
   18.3737    7.0071   19.6978 C   0  0  0  0  0  0  0  0  0  0  0  0
   16.0957    6.8827   22.5316 N   0  0  0  0  0  0  0  0  0  0  0  0
   15.5452    7.5036   23.0615 H   0  0  0  0  0  0  0  0  0  0  0  0
   16.0850    5.9194   22.7346 H   0  0  0  0  0  0  0  0  0  0  0  0
   21.6797    9.5220   18.4536 C   0  0  0  0  0  0  0  0  0  0  0  0
   22.0269    8.8021   19.7755 C   0  0  0  0  0  0  0  0  0  0  0  0
   22.3280    7.3250   19.4780 C   0  0  0  0  0  0  0  0  0  0  0  0
   23.2221    9.4933   20.4479 C   0  0  0  0  0  0  0  0  0  0  0  0
 10 12  1  0  0  0
 10 14  1  0  0  0
 11 12  1  0  0  0
 11 13  1  0  0  0
  5  6  1  0  0  0
  5  9  1  0  0  0
  5  7  2  0  0  0
 12  9  1  0  0  0
  4  1  1  0  0  0
  4 15  1  0  0  0
  4  6  1  0  0  0
  1 22  1  0  0  0
  1  2  1  0  0  0
 15 16  1  0  0  0
 16 17  2  0  0  0
 16 18  1  0  0  0
 17 19  1  0  0  0
 18 20  2  0  0  0
 19 21  2  0  0  0
 20 21  1  0  0  0
 22 23  1  0  0  0
 36 37  1  0  0  0
 36 23  1  0  0  0
 37 38  1  0  0  0
 37 39  1  0  0  0
 27 28  2  0  0  0
 27 32  1  0  0  0
 27 26  1  0  0  0
 28 29  1  0  0  0
 29 30  2  0  0  0
 30 31  1  0  0  0
 30 33  1  0  0  0
 31 32  2  0  0  0
 13 14  1  0  0  0
 23 26  1  0  0  0
 24 26  2  0  0  0
 25 26  2  0  0  0
  6  8  1  0  0  0
 33 34  1  0  0  0
 33 35  1  0  0  0
  2  3  1  0  0  0
M  END
> <minimizedAffinity>
-8.52270

$$$$
3S45_478_B_201


 39 41  0  0  0  0  0  0  0  0999 V2000
   19.9575   10.8544   17.1551 C   0  0  0  0  0  0  0  0  0  0  0  0
   18.8481   10.4719   16.3443 O   0  0  0  0  0  0  0  0  0  0  0  0
   18.0923   11.0484   16.5376 H   0  0  0  0  0  0  0  0  0  0  0  0
   20.4393   12.2672   16.8417 C   0  0  0  0  0  0  0  0  0  0  0  0
   22.8196   12.4169   17.5142 C   0  0  0  0  0  0  0  0  0  0  0  0
   21.8842   12.2269   16.5811 N   0  0  0  0  0  0  0  0  0  0  0  0
   22.5869   12.5060   18.7131 O   0  0  0  0  0  0  0  0  0  0  0  0
   22.1816   12.0485   15.6597 H   0  0  0  0  0  0  0  0  0  0  0  0
   24.0917   12.5104   17.0671 O   0  0  0  0  0  0  0  0  0  0  0  0
   25.1628   14.3134   15.9346 C   0  0  0  0  0  0  0  0  0  0  0  0
   26.1296   13.4452   17.9358 C   0  0  0  0  0  0  0  0  0  0  0  0
   24.7768   13.7338   17.3011 C   0  0  0  0  0  0  0  0  0  0  0  0
   27.0715   13.2776   16.7423 C   0  0  0  0  0  0  0  0  0  0  0  0
   26.3695   13.6577   15.5639 O   0  0  0  0  0  0  0  0  0  0  0  0
   19.7667   12.8813   15.6068 C   0  0  0  0  0  0  0  0  0  0  0  0
   19.8820   14.3956   15.7492 C   0  0  0  0  0  0  0  0  0  0  0  0
   19.5578   14.9825   16.9664 C   0  0  0  0  0  0  0  0  0  0  0  0
   20.2787   15.1872   14.6861 C   0  0  0  0  0  0  0  0  0  0  0  0
   19.5804   16.3681   17.0083 C   0  0  0  0  0  0  0  0  0  0  0  0
   20.3569   16.5731   14.6805 C   0  0  0  0  0  0  0  0  0  0  0  0
   19.8918   17.0946   15.8687 C   0  0  0  0  0  0  0  0  0  0  0  0
   19.5956   10.6835   18.6368 C   0  0  0  0  0  0  0  0  0  0  0  0
   18.7508    9.4823   18.7324 N   0  0  0  0  0  0  0  0  0  0  0  0
   20.0794    7.9172   17.2898 O   0  0  0  0  0  0  0  0  0  0  0  0
   18.6875    6.9916   19.1118 O   0  0  0  0  0  0  0  0  0  0  0  0
   19.5840    8.0859   18.6897 S   0  0  0  0  0  0  0  0  0  0  0  0
   20.9665    8.1726   19.7472 C   0  0  0  0  0  0  0  0  0  0  0  0
   20.8078    7.6184   21.0178 C   0  0  0  0  0  0  0  0  0  0  0  0
   21.8966    7.6214   21.8781 C   0  0  0  0  0  0  0  0  0  0  0  0
   23.1055    8.1570   21.4663 C   0  0  0  0  0  0  0  0  0  0  0  0
   23.2514    8.7183   20.2021 C   0  0  0  0  0  0  0  0  0  0  0  0
   22.1642    8.7077   19.3132 C   0  0  0  0  0  0  0  0  0  0  0  0
   24.1296    8.0905   22.3117 N   0  0  0  0  0  0  0  0  0  0  0  0
   24.0074    7.6896   23.2025 H   0  0  0  0  0  0  0  0  0  0  0  0
   25.0102    8.4422   22.0468 H   0  0  0  0  0  0  0  0  0  0  0  0
   17.8380    9.5664   19.8676 C   0  0  0  0  0  0  0  0  0  0  0  0
   16.7300    8.5273   19.5877 C   0  0  0  0  0  0  0  0  0  0  0  0
   15.8811    8.3453   20.8555 C   0  0  0  0  0  0  0  0  0  0  0  0
   15.8718    8.9865   18.3998 C   0  0  0  0  0  0  0  0  0  0  0  0
 10 12  1  0  0  0
 10 14  1  0  0  0
 11 12  1  0  0  0
 11 13  1  0  0  0
  5  6  1  0  0  0
  5  9  1  0  0  0
  5  7  2  0  0  0
 12  9  1  0  0  0
  4  1  1  0  0  0
  4 15  1  0  0  0
  4  6  1  0  0  0
  1 22  1  0  0  0
  1  2  1  0  0  0
 15 16  1  0  0  0
 16 17  2  0  0  0
 16 18  1  0  0  0
 17 19  1  0  0  0
 18 20  2  0  0  0
 19 21  2  0  0  0
 20 21  1  0  0  0
 22 23  1  0  0  0
 36 37  1  0  0  0
 36 23  1  0  0  0
 37 38  1  0  0  0
 37 39  1  0  0  0
 27 28  2  0  0  0
 27 32  1  0  0  0
 27 26  1  0  0  0
 28 29  1  0  0  0
 29 30  2  0  0  0
 30 31  1  0  0  0
 30 33  1  0  0  0
 31 32  2  0  0  0
 13 14  1  0  0  0
 23 26  1  0  0  0
 24 26  2  0  0  0
 25 26  2  0  0  0
  6  8  1  0  0  0
 33 34  1  0  0  0
 33 35  1  0  0  0
  2  3  1  0  0  0
M  END
> <minimizedAffinity>
-8.46670

$$$$
3S45_478_B_201


 39 41  0  0  0  0  0  0  0  0999 V2000
   19.9611   11.0007   16.9223 C   0  0  0  0  0  0  0  0  0  0  0  0
   20.8804   10.3448   16.0509 O   0  0  0  0  0  0  0  0  0  0  0  0
   21.6093    9.9721   16.5712 H   0  0  0  0  0  0  0  0  0  0  0  0
   19.3030   10.0318   17.8993 C   0  0  0  0  0  0  0  0  0  0  0  0
   21.0298    8.3796   18.5542 C   0  0  0  0  0  0  0  0  0  0  0  0
   20.3333    9.4923   18.7962 N   0  0  0  0  0  0  0  0  0  0  0  0
   20.9917    7.7605   17.4984 O   0  0  0  0  0  0  0  0  0  0  0  0
   20.5222    9.9824   19.6289 H   0  0  0  0  0  0  0  0  0  0  0  0
   21.8156    7.9416   19.5628 O   0  0  0  0  0  0  0  0  0  0  0  0
   22.7845    9.5538   21.0267 C   0  0  0  0  0  0  0  0  0  0  0  0
   21.9115    7.5248   21.9290 C   0  0  0  0  0  0  0  0  0  0  0  0
   21.6415    8.5491   20.8362 C   0  0  0  0  0  0  0  0  0  0  0  0
   23.4115    7.6557   22.1982 C   0  0  0  0  0  0  0  0  0  0  0  0
   23.8932    8.7938   21.4921 O   0  0  0  0  0  0  0  0  0  0  0  0
   18.2274   10.6863   18.7763 C   0  0  0  0  0  0  0  0  0  0  0  0
   17.4005    9.5546   19.3782 C   0  0  0  0  0  0  0  0  0  0  0  0
   16.6359    8.7587   18.5337 C   0  0  0  0  0  0  0  0  0  0  0  0
   17.3833    9.3269   20.7427 C   0  0  0  0  0  0  0  0  0  0  0  0
   15.8250    7.8139   19.1436 C   0  0  0  0  0  0  0  0  0  0  0  0
   16.6226    8.3733   21.4050 C   0  0  0  0  0  0  0  0  0  0  0  0
   15.7889    7.7153   20.5264 C   0  0  0  0  0  0  0  0  0  0  0  0
   20.6696   12.1553   17.6438 C   0  0  0  0  0  0  0  0  0  0  0  0
   21.1269   13.0902   16.6032 N   0  0  0  0  0  0  0  0  0  0  0  0
   18.7058   13.7305   16.7600 O   0  0  0  0  0  0  0  0  0  0  0  0
   19.7702   13.5691   14.5340 O   0  0  0  0  0  0  0  0  0  0  0  0
   19.9332   13.9767   15.9435 S   0  0  0  0  0  0  0  0  0  0  0  0
   20.3158   15.6742   16.0384 C   0  0  0  0  0  0  0  0  0  0  0  0
   19.6661   16.3987   17.0384 C   0  0  0  0  0  0  0  0  0  0  0  0
   19.9748   17.7438   17.1831 C   0  0  0  0  0  0  0  0  0  0  0  0
   20.9132   18.3341   16.3531 C   0  0  0  0  0  0  0  0  0  0  0  0
   21.5473   17.6072   15.3510 C   0  0  0  0  0  0  0  0  0  0  0  0
   21.2589   16.2408   15.2024 C   0  0  0  0  0  0  0  0  0  0  0  0
   21.2075   19.6132   16.5661 N   0  0  0  0  0  0  0  0  0  0  0  0
   20.7483   20.1116   17.2802 H   0  0  0  0  0  0  0  0  0  0  0  0
   21.8845   20.0618   16.0097 H   0  0  0  0  0  0  0  0  0  0  0  0
   22.2446   13.9008   17.0745 C   0  0  0  0  0  0  0  0  0  0  0  0
   23.5137   13.2313   16.5025 C   0  0  0  0  0  0  0  0  0  0  0  0
   24.2988   14.2648   15.6800 C   0  0  0  0  0  0  0  0  0  0  0  0
   24.3649   12.6626   17.6474 C   0  0  0  0  0  0  0  0  0  0  0  0
 10 12  1  0  0  0
 10 14  1  0  0  0
 11 12  1  0  0  0
 11 13  1  0  0  0
  5  6  1  0  0  0
  5  9  1  0  0  0
  5  7  2  0  0  0
 12  9  1  0  0  0
  4  1  1  0  0  0
  4 15  1  0  0  0
  4  6  1  0  0  0
  1 22  1  0  0  0
  1  2  1  0  0  0
 15 16  1  0  0  0
 16 17  2  0  0  0
 16 18  1  0  0  0
 17 19  1  0  0  0
 18 20  2  0  0  0
 19 21  2  0  0  0
 20 21  1  0  0  0
 22 23  1  0  0  0
 36 37  1  0  0  0
 36 23  1  0  0  0
 37 38  1  0  0  0
 37 39  1  0  0  0
 27 28  2  0  0  0
 27 32  1  0  0  0
 27 26  1  0  0  0
 28 29  1  0  0  0
 29 30  2  0  0  0
 30 31  1  0  0  0
 30 33  1  0  0  0
 31 32  2  0  0  0
 13 14  1  0  0  0
 23 26  1  0  0  0
 24 26  2  0  0  0
 25 26  2  0  0  0
  6  8  1  0  0  0
 33 34  1  0  0  0
 33 35  1  0  0  0
  2  3  1  0  0  0
M  END
> <minimizedAffinity>
-8.32226

$$$$
3S45_478_B_201


 39 41  0  0  0  0  0  0  0  0999 V2000
   21.2269   10.2283   19.9842 C   0  0  0  0  0  0  0  0  0  0  0  0
   21.9088    9.9950   21.2151 O   0  0  0  0  0  0  0  0  0  0  0  0
   21.3783   10.3420   21.9493 H   0  0  0  0  0  0  0  0  0  0  0  0
   19.9001    9.4795   19.9105 C   0  0  0  0  0  0  0  0  0  0  0  0
   20.4520    7.1545   20.5664 C   0  0  0  0  0  0  0  0  0  0  0  0
   19.9398    8.3534   20.8526 N   0  0  0  0  0  0  0  0  0  0  0  0
   21.0709    6.8981   19.5413 O   0  0  0  0  0  0  0  0  0  0  0  0
   19.5649    8.4917   21.7523 H   0  0  0  0  0  0  0  0  0  0  0  0
   20.2546    6.1898   21.4921 O   0  0  0  0  0  0  0  0  0  0  0  0
   18.9548    4.8303   22.9560 C   0  0  0  0  0  0  0  0  0  0  0  0
   18.1657    5.2616   20.7459 C   0  0  0  0  0  0  0  0  0  0  0  0
   18.9143    5.9315   21.8892 C   0  0  0  0  0  0  0  0  0  0  0  0
   18.4009    3.7674   20.9732 C   0  0  0  0  0  0  0  0  0  0  0  0
   19.0259    3.6025   22.2412 O   0  0  0  0  0  0  0  0  0  0  0  0
   18.6891   10.3459   20.2810 C   0  0  0  0  0  0  0  0  0  0  0  0
   17.4602    9.4467   20.1934 C   0  0  0  0  0  0  0  0  0  0  0  0
   16.8309    9.0527   21.3681 C   0  0  0  0  0  0  0  0  0  0  0  0
   16.9822    9.0032   18.9732 C   0  0  0  0  0  0  0  0  0  0  0  0
   15.7841    8.1533   21.2352 C   0  0  0  0  0  0  0  0  0  0  0  0
   15.9174    8.1347   18.7766 C   0  0  0  0  0  0  0  0  0  0  0  0
   15.4295    7.6773   19.9819 C   0  0  0  0  0  0  0  0  0  0  0  0
   21.0500   11.7380   19.7715 C   0  0  0  0  0  0  0  0  0  0  0  0
   21.3515   12.0061   18.3562 N   0  0  0  0  0  0  0  0  0  0  0  0
   22.5467   10.3772   16.8682 O   0  0  0  0  0  0  0  0  0  0  0  0
   23.5328   10.9583   19.0600 O   0  0  0  0  0  0  0  0  0  0  0  0
   22.8030   11.4514   17.8753 S   0  0  0  0  0  0  0  0  0  0  0  0
   23.7087   12.7200   17.0960 C   0  0  0  0  0  0  0  0  0  0  0  0
   25.0450   12.8480   17.4764 C   0  0  0  0  0  0  0  0  0  0  0  0
   25.8189   13.8134   16.8481 C   0  0  0  0  0  0  0  0  0  0  0  0
   25.2650   14.6150   15.8639 C   0  0  0  0  0  0  0  0  0  0  0  0
   23.9287   14.4886   15.4994 C   0  0  0  0  0  0  0  0  0  0  0  0
   23.1364   13.5050   16.1133 C   0  0  0  0  0  0  0  0  0  0  0  0
   26.0629   15.4906   15.2600 N   0  0  0  0  0  0  0  0  0  0  0  0
   27.0062   15.5659   15.5316 H   0  0  0  0  0  0  0  0  0  0  0  0
   25.7103   16.0636   14.5412 H   0  0  0  0  0  0  0  0  0  0  0  0
   20.2602   11.5707   17.4912 C   0  0  0  0  0  0  0  0  0  0  0  0
   19.7041   12.8583   16.8440 C   0  0  0  0  0  0  0  0  0  0  0  0
   19.3806   12.5785   15.3681 C   0  0  0  0  0  0  0  0  0  0  0  0
   18.4604   13.3324   17.6101 C   0  0  0  0  0  0  0  0  0  0  0  0
 10 12  1  0  0  0
 10 14  1  0  0  0
 11 12  1  0  0  0
 11 13  1  0  0  0
  5  6  1  0  0  0
  5  9  1  0  0  0
  5  7  2  0  0  0
 12  9  1  0  0  0
  4  1  1  0  0  0
  4 15  1  0  0  0
  4  6  1  0  0  0
  1 22  1  0  0  0
  1  2  1  0  0  0
 15 16  1  0  0  0
 16 17  2  0  0  0
 16 18  1  0  0  0
 17 19  1  0  0  0
 18 20  2  0  0  0
 19 21  2  0  0  0
 20 21  1  0  0  0
 22 23  1  0  0  0
 36 37  1  0  0  0
 36 23  1  0  0  0
 37 38  1  0  0  0
 37 39  1  0  0  0
 27 28  2  0  0  0
 27 32  1  0  0  0
 27 26  1  0  0  0
 28 29  1  0  0  0
 29 30  2  0  0  0
 30 31  1  0  0  0
 30 33  1  0  0  0
 31 32  2  0  0  0
 13 14  1  0  0  0
 23 26  1  0  0  0
 24 26  2  0  0  0
 25 26  2  0  0  0
  6  8  1  0  0  0
 33 34  1  0  0  0
 33 35  1  0  0  0
  2  3  1  0  0  0
M  END
> <minimizedAffinity>
-8.15754

$$$$
