4LM2_8ZE_A_900


 13 14  0  0  0  0  0  0  0  0999 V2000
    4.4031   12.6628   45.6589 C   0  0  0  0  0  0  0  0  0  0  0  0
    3.7151   13.8736   45.7596 C   0  0  0  0  0  0  0  0  0  0  0  0
    3.3609   14.5667   44.6021 C   0  0  0  0  0  0  0  0  0  0  0  0
    3.6989   14.0352   43.3568 C   0  0  0  0  0  0  0  0  0  0  0  0
    3.3556   14.7061   42.2553 O   0  0  0  0  0  0  0  0  0  0  0  0
    4.0453   14.4545   40.9914 C   0  0  0  0  0  0  0  0  0  0  0  0
    4.2767   12.9496   40.8128 C   0  0  0  0  0  0  0  0  0  0  0  0
    4.7019   12.3180   42.0564 O   0  0  0  0  0  0  0  0  0  0  0  0
    4.3921   12.8153   43.2544 C   0  0  0  0  0  0  0  0  0  0  0  0
    4.7485   12.1164   44.4099 C   0  0  0  0  0  0  0  0  0  0  0  0
    3.9997   12.3834   48.0277 O   0  0  0  0  0  0  0  0  0  0  0  0
    4.7806   11.9305   46.9240 C   0  0  0  0  0  0  0  0  0  0  0  0
    4.2593   11.8998   48.8275 H   0  0  0  0  0  0  0  0  0  0  0  0
  6  7  1  0  0  0
  6  5  1  0  0  0
  7  8  1  0  0  0
  5  4  1  0  0  0
  8  9  1  0  0  0
  4  9  2  0  0  0
  4  3  1  0  0  0
  9 10  1  0  0  0
  3  2  2  0  0  0
 10  1  2  0  0  0
  2  1  1  0  0  0
  1 12  1  0  0  0
 12 11  1  0  0  0
 11 13  1  0  0  0
M  END
> <minimizedAffinity>
-6.33828

$$$$
4LM2_8ZE_A_900


 13 14  0  0  0  0  0  0  0  0999 V2000
    3.8747   13.8652   42.7632 C   0  0  0  0  0  0  0  0  0  0  0  0
    3.2575   14.7820   43.6163 C   0  0  0  0  0  0  0  0  0  0  0  0
    3.3227   14.5952   44.9971 C   0  0  0  0  0  0  0  0  0  0  0  0
    4.0090   13.4917   45.5057 C   0  0  0  0  0  0  0  0  0  0  0  0
    4.0655   13.3217   46.8283 O   0  0  0  0  0  0  0  0  0  0  0  0
    4.3593   12.0059   47.3926 C   0  0  0  0  0  0  0  0  0  0  0  0
    5.4695   11.3260   46.5831 C   0  0  0  0  0  0  0  0  0  0  0  0
    5.2887   11.5215   45.1495 O   0  0  0  0  0  0  0  0  0  0  0  0
    4.6313   12.5673   44.6469 C   0  0  0  0  0  0  0  0  0  0  0  0
    4.5702   12.7499   43.2636 C   0  0  0  0  0  0  0  0  0  0  0  0
    4.2166   15.3985   40.9237 O   0  0  0  0  0  0  0  0  0  0  0  0
    3.7890   14.0836   41.2718 C   0  0  0  0  0  0  0  0  0  0  0  0
    4.1529   15.5154   39.9628 H   0  0  0  0  0  0  0  0  0  0  0  0
  6  7  1  0  0  0
  6  5  1  0  0  0
  7  8  1  0  0  0
  5  4  1  0  0  0
  8  9  1  0  0  0
  4  9  2  0  0  0
  4  3  1  0  0  0
  9 10  1  0  0  0
  3  2  2  0  0  0
 10  1  2  0  0  0
  2  1  1  0  0  0
  1 12  1  0  0  0
 12 11  1  0  0  0
 11 13  1  0  0  0
M  END
> <minimizedAffinity>
-6.08298

$$$$
4LM2_8ZE_A_900


 13 14  0  0  0  0  0  0  0  0999 V2000
    4.2855   13.3813   44.6648 C   0  0  0  0  0  0  0  0  0  0  0  0
    3.9585   13.1589   46.0038 C   0  0  0  0  0  0  0  0  0  0  0  0
    4.5975   12.1415   46.7127 C   0  0  0  0  0  0  0  0  0  0  0  0
    5.5592   11.3608   46.0700 C   0  0  0  0  0  0  0  0  0  0  0  0
    6.1648   10.3897   46.7567 O   0  0  0  0  0  0  0  0  0  0  0  0
    6.8188    9.2861   46.0563 C   0  0  0  0  0  0  0  0  0  0  0  0
    7.5816    9.8191   44.8380 C   0  0  0  0  0  0  0  0  0  0  0  0
    6.8155   10.8332   44.1233 O   0  0  0  0  0  0  0  0  0  0  0  0
    5.8894   11.5841   44.7207 C   0  0  0  0  0  0  0  0  0  0  0  0
    5.2536   12.6021   44.0064 C   0  0  0  0  0  0  0  0  0  0  0  0
    3.2675   15.5725   44.7822 O   0  0  0  0  0  0  0  0  0  0  0  0
    3.5795   14.4849   43.9147 C   0  0  0  0  0  0  0  0  0  0  0  0
    2.8154   16.2679   44.2792 H   0  0  0  0  0  0  0  0  0  0  0  0
  6  7  1  0  0  0
  6  5  1  0  0  0
  7  8  1  0  0  0
  5  4  1  0  0  0
  8  9  1  0  0  0
  4  9  2  0  0  0
  4  3  1  0  0  0
  9 10  1  0  0  0
  3  2  2  0  0  0
 10  1  2  0  0  0
  2  1  1  0  0  0
  1 12  1  0  0  0
 12 11  1  0  0  0
 11 13  1  0  0  0
M  END
> <minimizedAffinity>
-6.08035

$$$$
4LM2_8ZE_A_900


 13 14  0  0  0  0  0  0  0  0999 V2000
    4.2160   13.1809   44.9479 C   0  0  0  0  0  0  0  0  0  0  0  0
    4.4176   12.9027   43.5946 C   0  0  0  0  0  0  0  0  0  0  0  0
    5.2108   11.8176   43.2217 C   0  0  0  0  0  0  0  0  0  0  0  0
    5.7904   11.0226   44.2115 C   0  0  0  0  0  0  0  0  0  0  0  0
    6.5478    9.9868   43.8445 O   0  0  0  0  0  0  0  0  0  0  0  0
    7.5156    9.4117   44.7767 C   0  0  0  0  0  0  0  0  0  0  0  0
    6.9041    9.3288   46.1800 C   0  0  0  0  0  0  0  0  0  0  0  0
    6.1438   10.5288   46.5088 O   0  0  0  0  0  0  0  0  0  0  0  0
    5.5879   11.3023   45.5754 C   0  0  0  0  0  0  0  0  0  0  0  0
    4.7938   12.3868   45.9546 C   0  0  0  0  0  0  0  0  0  0  0  0
    3.2879   15.3080   44.2653 O   0  0  0  0  0  0  0  0  0  0  0  0
    3.3573   14.3623   45.3301 C   0  0  0  0  0  0  0  0  0  0  0  0
    2.7321   16.0565   44.5333 H   0  0  0  0  0  0  0  0  0  0  0  0
  6  7  1  0  0  0
  6  5  1  0  0  0
  7  8  1  0  0  0
  5  4  1  0  0  0
  8  9  1  0  0  0
  4  9  2  0  0  0
  4  3  1  0  0  0
  9 10  1  0  0  0
  3  2  2  0  0  0
 10  1  2  0  0  0
  2  1  1  0  0  0
  1 12  1  0  0  0
 12 11  1  0  0  0
 11 13  1  0  0  0
M  END
> <minimizedAffinity>
-5.99144

$$$$
4LM2_8ZE_A_900


 13 14  0  0  0  0  0  0  0  0999 V2000
    4.0485   13.4732   41.9245 C   0  0  0  0  0  0  0  0  0  0  0  0
    4.7107   12.2606   41.7231 C   0  0  0  0  0  0  0  0  0  0  0  0
    5.1036   11.4957   42.8214 C   0  0  0  0  0  0  0  0  0  0  0  0
    4.8248   11.9555   44.1092 C   0  0  0  0  0  0  0  0  0  0  0  0
    5.2049   11.2164   45.1536 O   0  0  0  0  0  0  0  0  0  0  0  0
    5.3498   11.8235   46.4752 C   0  0  0  0  0  0  0  0  0  0  0  0
    4.1957   12.7994   46.7315 C   0  0  0  0  0  0  0  0  0  0  0  0
    3.8931   13.5991   45.5504 O   0  0  0  0  0  0  0  0  0  0  0  0
    4.1576   13.1772   44.3132 C   0  0  0  0  0  0  0  0  0  0  0  0
    3.7609   13.9467   43.2172 C   0  0  0  0  0  0  0  0  0  0  0  0
    4.2123   15.5907   40.7665 O   0  0  0  0  0  0  0  0  0  0  0  0
    3.6353   14.2876   40.7224 C   0  0  0  0  0  0  0  0  0  0  0  0
    3.9334   16.0945   39.9859 H   0  0  0  0  0  0  0  0  0  0  0  0
  6  7  1  0  0  0
  6  5  1  0  0  0
  7  8  1  0  0  0
  5  4  1  0  0  0
  8  9  1  0  0  0
  4  9  2  0  0  0
  4  3  1  0  0  0
  9 10  1  0  0  0
  3  2  2  0  0  0
 10  1  2  0  0  0
  2  1  1  0  0  0
  1 12  1  0  0  0
 12 11  1  0  0  0
 11 13  1  0  0  0
M  END
> <minimizedAffinity>
-5.93398

$$$$
4LM2_8ZE_A_900


 13 14  0  0  0  0  0  0  0  0999 V2000
    3.8410   13.9385   44.2741 C   0  0  0  0  0  0  0  0  0  0  0  0
    3.7504   14.1305   42.8941 C   0  0  0  0  0  0  0  0  0  0  0  0
    4.2722   13.1714   42.0261 C   0  0  0  0  0  0  0  0  0  0  0  0
    4.8766   12.0293   42.5532 C   0  0  0  0  0  0  0  0  0  0  0  0
    5.3730   11.1176   41.7144 O   0  0  0  0  0  0  0  0  0  0  0  0
    6.3804   10.1627   42.1721 C   0  0  0  0  0  0  0  0  0  0  0  0
    6.0219    9.6564   43.5740 C   0  0  0  0  0  0  0  0  0  0  0  0
    5.5434   10.7348   44.4309 O   0  0  0  0  0  0  0  0  0  0  0  0
    4.9684   11.8350   43.9436 C   0  0  0  0  0  0  0  0  0  0  0  0
    4.4467   12.7915   44.8175 C   0  0  0  0  0  0  0  0  0  0  0  0
    3.8484   16.2674   44.9283 O   0  0  0  0  0  0  0  0  0  0  0  0
    3.2734   14.9905   45.1962 C   0  0  0  0  0  0  0  0  0  0  0  0
    3.4694   16.9257   45.5315 H   0  0  0  0  0  0  0  0  0  0  0  0
  6  7  1  0  0  0
  6  5  1  0  0  0
  7  8  1  0  0  0
  5  4  1  0  0  0
  8  9  1  0  0  0
  4  9  2  0  0  0
  4  3  1  0  0  0
  9 10  1  0  0  0
  3  2  2  0  0  0
 10  1  2  0  0  0
  2  1  1  0  0  0
  1 12  1  0  0  0
 12 11  1  0  0  0
 11 13  1  0  0  0
M  END
> <minimizedAffinity>
-5.89563

$$$$
4LM2_8ZE_A_900


 13 14  0  0  0  0  0  0  0  0999 V2000
    5.9673   10.7554   45.7608 C   0  0  0  0  0  0  0  0  0  0  0  0
    5.2885   11.1361   46.9200 C   0  0  0  0  0  0  0  0  0  0  0  0
    4.4000   12.2107   46.8805 C   0  0  0  0  0  0  0  0  0  0  0  0
    4.2010   12.8890   45.6773 C   0  0  0  0  0  0  0  0  0  0  0  0
    3.3489   13.9159   45.6499 O   0  0  0  0  0  0  0  0  0  0  0  0
    3.4308   14.9163   44.5874 C   0  0  0  0  0  0  0  0  0  0  0  0
    3.6938   14.2297   43.2422 C   0  0  0  0  0  0  0  0  0  0  0  0
    4.6780   13.1610   43.3654 O   0  0  0  0  0  0  0  0  0  0  0  0
    4.8845   12.5062   44.5087 C   0  0  0  0  0  0  0  0  0  0  0  0
    5.7746   11.4303   44.5421 C   0  0  0  0  0  0  0  0  0  0  0  0
    7.0809    9.1321   47.1667 O   0  0  0  0  0  0  0  0  0  0  0  0
    6.9274    9.5922   45.8259 C   0  0  0  0  0  0  0  0  0  0  0  0
    7.7008    8.3863   47.1837 H   0  0  0  0  0  0  0  0  0  0  0  0
  6  7  1  0  0  0
  6  5  1  0  0  0
  7  8  1  0  0  0
  5  4  1  0  0  0
  8  9  1  0  0  0
  4  9  2  0  0  0
  4  3  1  0  0  0
  9 10  1  0  0  0
  3  2  2  0  0  0
 10  1  2  0  0  0
  2  1  1  0  0  0
  1 12  1  0  0  0
 12 11  1  0  0  0
 11 13  1  0  0  0
M  END
> <minimizedAffinity>
-5.78520

$$$$
4LM2_8ZE_A_900


 13 14  0  0  0  0  0  0  0  0999 V2000
    4.9580   11.7451   41.8802 C   0  0  0  0  0  0  0  0  0  0  0  0
    4.4538   12.8133   41.1357 C   0  0  0  0  0  0  0  0  0  0  0  0
    3.8946   13.9106   41.7907 C   0  0  0  0  0  0  0  0  0  0  0  0
    3.8504   13.9242   43.1855 C   0  0  0  0  0  0  0  0  0  0  0  0
    3.3132   14.9786   43.8028 O   0  0  0  0  0  0  0  0  0  0  0  0
    2.8377   14.8656   45.1802 C   0  0  0  0  0  0  0  0  0  0  0  0
    3.8275   14.0385   46.0087 C   0  0  0  0  0  0  0  0  0  0  0  0
    4.3141   12.8800   45.2690 O   0  0  0  0  0  0  0  0  0  0  0  0
    4.3582   12.8484   43.9365 C   0  0  0  0  0  0  0  0  0  0  0  0
    4.9202   11.7475   43.2860 C   0  0  0  0  0  0  0  0  0  0  0  0
    4.5836    9.9329   40.3221 O   0  0  0  0  0  0  0  0  0  0  0  0
    5.5555   10.5655   41.1517 C   0  0  0  0  0  0  0  0  0  0  0  0
    4.9895    9.1797   39.8652 H   0  0  0  0  0  0  0  0  0  0  0  0
  6  7  1  0  0  0
  6  5  1  0  0  0
  7  8  1  0  0  0
  5  4  1  0  0  0
  8  9  1  0  0  0
  4  9  2  0  0  0
  4  3  1  0  0  0
  9 10  1  0  0  0
  3  2  2  0  0  0
 10  1  2  0  0  0
  2  1  1  0  0  0
  1 12  1  0  0  0
 12 11  1  0  0  0
 11 13  1  0  0  0
M  END
> <minimizedAffinity>
-5.52328

$$$$
4LM2_8ZE_A_900


 13 14  0  0  0  0  0  0  0  0999 V2000
    4.4198   12.7305   41.8697 C   0  0  0  0  0  0  0  0  0  0  0  0
    3.8082   13.9327   42.2302 C   0  0  0  0  0  0  0  0  0  0  0  0
    3.6690   14.2615   43.5786 C   0  0  0  0  0  0  0  0  0  0  0  0
    4.1479   13.3810   44.5496 C   0  0  0  0  0  0  0  0  0  0  0  0
    4.0099   13.7046   45.8371 O   0  0  0  0  0  0  0  0  0  0  0  0
    4.0700   12.6717   46.8695 C   0  0  0  0  0  0  0  0  0  0  0  0
    5.1890   11.6747   46.5469 C   0  0  0  0  0  0  0  0  0  0  0  0
    5.2223   11.3419   45.1277 O   0  0  0  0  0  0  0  0  0  0  0  0
    4.7643   12.1693   44.1874 C   0  0  0  0  0  0  0  0  0  0  0  0
    4.9073   11.8354   42.8387 C   0  0  0  0  0  0  0  0  0  0  0  0
    5.2838   11.1780   40.2280 O   0  0  0  0  0  0  0  0  0  0  0  0
    4.5569   12.3918   40.4049 C   0  0  0  0  0  0  0  0  0  0  0  0
    5.3590   10.9812   39.2812 H   0  0  0  0  0  0  0  0  0  0  0  0
  6  7  1  0  0  0
  6  5  1  0  0  0
  7  8  1  0  0  0
  5  4  1  0  0  0
  8  9  1  0  0  0
  4  9  2  0  0  0
  4  3  1  0  0  0
  9 10  1  0  0  0
  3  2  2  0  0  0
 10  1  2  0  0  0
  2  1  1  0  0  0
  1 12  1  0  0  0
 12 11  1  0  0  0
 11 13  1  0  0  0
M  END
> <minimizedAffinity>
-5.46336

$$$$
4LM2_8ZE_A_900


 13 14  0  0  0  0  0  0  0  0999 V2000
    4.1047   13.6993   43.2295 C   0  0  0  0  0  0  0  0  0  0  0  0
    3.7060   14.2496   42.0098 C   0  0  0  0  0  0  0  0  0  0  0  0
    3.9321   13.5466   40.8264 C   0  0  0  0  0  0  0  0  0  0  0  0
    4.5534   12.2982   40.8812 C   0  0  0  0  0  0  0  0  0  0  0  0
    4.7654   11.6336   39.7434 O   0  0  0  0  0  0  0  0  0  0  0  0
    5.7752   10.5788   39.6805 C   0  0  0  0  0  0  0  0  0  0  0  0
    5.7197    9.7255   40.9528 C   0  0  0  0  0  0  0  0  0  0  0  0
    5.5422   10.5458   42.1451 O   0  0  0  0  0  0  0  0  0  0  0  0
    4.9555   11.7430   42.1097 C   0  0  0  0  0  0  0  0  0  0  0  0
    4.7308   12.4419   43.2979 C   0  0  0  0  0  0  0  0  0  0  0  0
    2.6228   15.1930   44.4232 O   0  0  0  0  0  0  0  0  0  0  0  0
    3.8543   14.4782   44.4983 C   0  0  0  0  0  0  0  0  0  0  0  0
    2.4836   15.6847   45.2476 H   0  0  0  0  0  0  0  0  0  0  0  0
  6  7  1  0  0  0
  6  5  1  0  0  0
  7  8  1  0  0  0
  5  4  1  0  0  0
  8  9  1  0  0  0
  4  9  2  0  0  0
  4  3  1  0  0  0
  9 10  1  0  0  0
  3  2  2  0  0  0
 10  1  2  0  0  0
  2  1  1  0  0  0
  1 12  1  0  0  0
 12 11  1  0  0  0
 11 13  1  0  0  0
M  END
> <minimizedAffinity>
-5.44917

$$$$
