5W1E_PHB_A_602


 12 12  0  0  0  0  0  0  0  0999 V2000
    0.1684   71.0414   22.2737 C   0  0  0  0  0  0  0  0  0  0  0  0
   -0.6589   71.5247   23.2758 C   0  0  0  0  0  0  0  0  0  0  0  0
   -0.2515   71.4674   24.6003 C   0  0  0  0  0  0  0  0  0  0  0  0
    0.9839   70.9285   24.9261 C   0  0  0  0  0  0  0  0  0  0  0  0
    1.8113   70.4472   23.9242 C   0  0  0  0  0  0  0  0  0  0  0  0
    1.4035   70.5034   22.6009 C   0  0  0  0  0  0  0  0  0  0  0  0
    1.3971   70.8715   26.2648 O   0  0  0  0  0  0  0  0  0  0  0  0
    0.8373   71.1970   26.9421 H   0  0  0  0  0  0  0  0  0  0  0  0
   -0.2753   71.1031   20.8105 C   0  0  0  0  0  0  0  0  0  0  0  0
   -1.1304   71.9504   20.4407 O   0  0  0  0  0  0  0  0  0  0  0  0
    0.2186   70.3070   19.9679 O   0  0  0  0  0  0  0  0  0  0  0  0
    0.8552   69.6747   20.2379 H   0  0  0  0  0  0  0  0  0  0  0  0
  9 10  2  0  0  0
  9 11  1  0  0  0
  9  1  1  0  0  0
  1  2  1  0  0  0
  1  6  2  0  0  0
  2  3  2  0  0  0
  3  4  1  0  0  0
  4  5  2  0  0  0
  4  7  1  0  0  0
  5  6  1  0  0  0
 11 12  1  0  0  0
  7  8  1  0  0  0
M  END
> <minimizedAffinity>
-6.97072

$$$$
5W1E_PHB_A_602


 12 12  0  0  0  0  0  0  0  0999 V2000
    0.1816   71.0374   22.2716 C   0  0  0  0  0  0  0  0  0  0  0  0
    1.4151   70.4969   22.6011 C   0  0  0  0  0  0  0  0  0  0  0  0
    1.8175   70.4429   23.9274 C   0  0  0  0  0  0  0  0  0  0  0  0
    0.9876   70.9274   24.9271 C   0  0  0  0  0  0  0  0  0  0  0  0
   -0.2458   71.4658   24.5976 C   0  0  0  0  0  0  0  0  0  0  0  0
   -0.6472   71.5209   23.2723 C   0  0  0  0  0  0  0  0  0  0  0  0
    1.3932   70.8718   26.2682 O   0  0  0  0  0  0  0  0  0  0  0  0
    2.2273   70.5077   26.4907 H   0  0  0  0  0  0  0  0  0  0  0  0
   -0.2680   71.0986   20.8102 C   0  0  0  0  0  0  0  0  0  0  0  0
    0.2119   70.2995   19.9635 O   0  0  0  0  0  0  0  0  0  0  0  0
   -1.1259   71.9481   20.4498 O   0  0  0  0  0  0  0  0  0  0  0  0
   -1.4861   72.5450   21.0759 H   0  0  0  0  0  0  0  0  0  0  0  0
  9 10  2  0  0  0
  9 11  1  0  0  0
  9  1  1  0  0  0
  1  2  1  0  0  0
  1  6  2  0  0  0
  2  3  2  0  0  0
  3  4  1  0  0  0
  4  5  2  0  0  0
  4  7  1  0  0  0
  5  6  1  0  0  0
 11 12  1  0  0  0
  7  8  1  0  0  0
M  END
> <minimizedAffinity>
-6.96567

$$$$
5W1E_PHB_A_602


 12 12  0  0  0  0  0  0  0  0999 V2000
    0.4358   71.2361   24.0494 C   0  0  0  0  0  0  0  0  0  0  0  0
    1.2707   70.8035   23.0306 C   0  0  0  0  0  0  0  0  0  0  0  0
    0.7940   70.7195   21.7308 C   0  0  0  0  0  0  0  0  0  0  0  0
   -0.5174   71.0688   21.4462 C   0  0  0  0  0  0  0  0  0  0  0  0
   -1.3511   71.5028   22.4643 C   0  0  0  0  0  0  0  0  0  0  0  0
   -0.8749   71.5855   23.7631 C   0  0  0  0  0  0  0  0  0  0  0  0
   -0.9996   70.9854   20.1322 O   0  0  0  0  0  0  0  0  0  0  0  0
   -0.4356   70.6919   19.4439 H   0  0  0  0  0  0  0  0  0  0  0  0
    0.9566   71.3319   25.4851 C   0  0  0  0  0  0  0  0  0  0  0  0
    1.7688   70.4760   25.9250 O   0  0  0  0  0  0  0  0  0  0  0  0
    0.5768   72.2730   26.2319 O   0  0  0  0  0  0  0  0  0  0  0  0
   -0.0274   72.9124   25.9093 H   0  0  0  0  0  0  0  0  0  0  0  0
  9 10  2  0  0  0
  9 11  1  0  0  0
  9  1  1  0  0  0
  1  2  1  0  0  0
  1  6  2  0  0  0
  2  3  2  0  0  0
  3  4  1  0  0  0
  4  5  2  0  0  0
  4  7  1  0  0  0
  5  6  1  0  0  0
 11 12  1  0  0  0
  7  8  1  0  0  0
M  END
> <minimizedAffinity>
-6.44100

$$$$
5W1E_PHB_A_602


 12 12  0  0  0  0  0  0  0  0999 V2000
    0.4244   71.2231   24.0637 C   0  0  0  0  0  0  0  0  0  0  0  0
   -0.8867   71.5747   23.7814 C   0  0  0  0  0  0  0  0  0  0  0  0
   -1.3603   71.5013   22.4799 C   0  0  0  0  0  0  0  0  0  0  0  0
   -0.5254   71.0751   21.4581 C   0  0  0  0  0  0  0  0  0  0  0  0
    0.7844   70.7221   21.7408 C   0  0  0  0  0  0  0  0  0  0  0  0
    1.2578   70.7967   23.0412 C   0  0  0  0  0  0  0  0  0  0  0  0
   -1.0039   70.9993   20.1423 O   0  0  0  0  0  0  0  0  0  0  0  0
   -1.8896   71.2381   19.9514 H   0  0  0  0  0  0  0  0  0  0  0  0
    0.9520   71.3010   25.4980 C   0  0  0  0  0  0  0  0  0  0  0  0
    1.7578   70.4334   25.9269 O   0  0  0  0  0  0  0  0  0  0  0  0
    0.5845   72.2390   26.2547 O   0  0  0  0  0  0  0  0  0  0  0  0
   -0.0148   72.8871   25.9405 H   0  0  0  0  0  0  0  0  0  0  0  0
  9 10  2  0  0  0
  9 11  1  0  0  0
  9  1  1  0  0  0
  1  2  1  0  0  0
  1  6  2  0  0  0
  2  3  2  0  0  0
  3  4  1  0  0  0
  4  5  2  0  0  0
  4  7  1  0  0  0
  5  6  1  0  0  0
 11 12  1  0  0  0
  7  8  1  0  0  0
M  END
> <minimizedAffinity>
-6.42189

$$$$
5W1E_PHB_A_602


 12 12  0  0  0  0  0  0  0  0999 V2000
    0.2931   71.4643   24.1759 C   0  0  0  0  0  0  0  0  0  0  0  0
    0.3199   70.5235   23.1579 C   0  0  0  0  0  0  0  0  0  0  0  0
    1.5258   70.1698   22.5710 C   0  0  0  0  0  0  0  0  0  0  0  0
    2.7074   70.7545   23.0009 C   0  0  0  0  0  0  0  0  0  0  0  0
    2.6805   71.6935   24.0195 C   0  0  0  0  0  0  0  0  0  0  0  0
    1.4753   72.0476   24.6050 C   0  0  0  0  0  0  0  0  0  0  0  0
    3.9270   70.3965   22.4089 O   0  0  0  0  0  0  0  0  0  0  0  0
    3.9449   69.7615   21.7201 H   0  0  0  0  0  0  0  0  0  0  0  0
   -1.0342   71.8576   24.8279 C   0  0  0  0  0  0  0  0  0  0  0  0
   -1.6323   72.9063   24.4698 O   0  0  0  0  0  0  0  0  0  0  0  0
   -1.5366   71.1284   25.7244 O   0  0  0  0  0  0  0  0  0  0  0  0
   -1.0956   70.3470   25.9944 H   0  0  0  0  0  0  0  0  0  0  0  0
  9 10  2  0  0  0
  9 11  1  0  0  0
  9  1  1  0  0  0
  1  2  1  0  0  0
  1  6  2  0  0  0
  2  3  2  0  0  0
  3  4  1  0  0  0
  4  5  2  0  0  0
  4  7  1  0  0  0
  5  6  1  0  0  0
 11 12  1  0  0  0
  7  8  1  0  0  0
M  END
> <minimizedAffinity>
-5.08668

$$$$
5W1E_PHB_A_602


 12 12  0  0  0  0  0  0  0  0999 V2000
   -0.0379   70.6455   24.5054 C   0  0  0  0  0  0  0  0  0  0  0  0
   -0.0636   70.7812   23.1259 C   0  0  0  0  0  0  0  0  0  0  0  0
    1.1146   70.7013   22.3984 C   0  0  0  0  0  0  0  0  0  0  0  0
    2.3205   70.4843   23.0477 C   0  0  0  0  0  0  0  0  0  0  0  0
    2.3456   70.3470   24.4263 C   0  0  0  0  0  0  0  0  0  0  0  0
    1.1684   70.4281   25.1531 C   0  0  0  0  0  0  0  0  0  0  0  0
    3.5118   70.4020   22.3128 O   0  0  0  0  0  0  0  0  0  0  0  0
    3.4945   70.4949   21.3806 H   0  0  0  0  0  0  0  0  0  0  0  0
   -1.3348   70.7316   25.3131 C   0  0  0  0  0  0  0  0  0  0  0  0
   -2.0357   69.7025   25.5017 O   0  0  0  0  0  0  0  0  0  0  0  0
   -1.7037   71.8348   25.7974 O   0  0  0  0  0  0  0  0  0  0  0  0
   -1.1858   72.6034   25.6599 H   0  0  0  0  0  0  0  0  0  0  0  0
  9 10  2  0  0  0
  9 11  1  0  0  0
  9  1  1  0  0  0
  1  2  1  0  0  0
  1  6  2  0  0  0
  2  3  2  0  0  0
  3  4  1  0  0  0
  4  5  2  0  0  0
  4  7  1  0  0  0
  5  6  1  0  0  0
 11 12  1  0  0  0
  7  8  1  0  0  0
M  END
> <minimizedAffinity>
-5.00154

$$$$
5W1E_PHB_A_602


 12 12  0  0  0  0  0  0  0  0999 V2000
    1.0677   70.6889   23.6446 C   0  0  0  0  0  0  0  0  0  0  0  0
    0.5360   70.9576   22.3927 C   0  0  0  0  0  0  0  0  0  0  0  0
   -0.7322   71.5078   22.2805 C   0  0  0  0  0  0  0  0  0  0  0  0
   -1.4711   71.7919   23.4190 C   0  0  0  0  0  0  0  0  0  0  0  0
   -0.9387   71.5249   24.6701 C   0  0  0  0  0  0  0  0  0  0  0  0
    0.3280   70.9739   24.7819 C   0  0  0  0  0  0  0  0  0  0  0  0
   -2.7527   72.3494   23.3065 O   0  0  0  0  0  0  0  0  0  0  0  0
   -3.1124   72.5299   22.4603 H   0  0  0  0  0  0  0  0  0  0  0  0
    2.4668   70.0829   23.7744 C   0  0  0  0  0  0  0  0  0  0  0  0
    3.3771   70.4063   22.9665 O   0  0  0  0  0  0  0  0  0  0  0  0
    2.7143   69.2598   24.6958 O   0  0  0  0  0  0  0  0  0  0  0  0
    2.0405   69.0159   25.2995 H   0  0  0  0  0  0  0  0  0  0  0  0
  9 10  2  0  0  0
  9 11  1  0  0  0
  9  1  1  0  0  0
  1  2  1  0  0  0
  1  6  2  0  0  0
  2  3  2  0  0  0
  3  4  1  0  0  0
  4  5  2  0  0  0
  4  7  1  0  0  0
  5  6  1  0  0  0
 11 12  1  0  0  0
  7  8  1  0  0  0
M  END
> <minimizedAffinity>
-4.49795

$$$$
5W1E_PHB_A_602


 12 12  0  0  0  0  0  0  0  0999 V2000
    1.1891   70.9597   23.8865 C   0  0  0  0  0  0  0  0  0  0  0  0
    1.1299   71.8774   24.9240 C   0  0  0  0  0  0  0  0  0  0  0  0
   -0.0093   72.6475   25.1056 C   0  0  0  0  0  0  0  0  0  0  0  0
   -1.0921   72.5010   24.2518 C   0  0  0  0  0  0  0  0  0  0  0  0
   -1.0333   71.5825   23.2161 C   0  0  0  0  0  0  0  0  0  0  0  0
    0.1056   70.8141   23.0340 C   0  0  0  0  0  0  0  0  0  0  0  0
   -2.2446   73.2782   24.4356 O   0  0  0  0  0  0  0  0  0  0  0  0
   -2.2841   73.8992   25.1361 H   0  0  0  0  0  0  0  0  0  0  0  0
    2.4430   70.1066   23.6820 C   0  0  0  0  0  0  0  0  0  0  0  0
    2.7485   69.2153   24.5174 O   0  0  0  0  0  0  0  0  0  0  0  0
    3.1729   70.2909   22.6716 O   0  0  0  0  0  0  0  0  0  0  0  0
    2.9499   70.9529   22.0471 H   0  0  0  0  0  0  0  0  0  0  0  0
  9 10  2  0  0  0
  9 11  1  0  0  0
  9  1  1  0  0  0
  1  2  1  0  0  0
  1  6  2  0  0  0
  2  3  2  0  0  0
  3  4  1  0  0  0
  4  5  2  0  0  0
  4  7  1  0  0  0
  5  6  1  0  0  0
 11 12  1  0  0  0
  7  8  1  0  0  0
M  END
> <minimizedAffinity>
-4.35599

$$$$
5W1E_PHB_A_602


 12 12  0  0  0  0  0  0  0  0999 V2000
    0.2946   70.8847   23.0002 C   0  0  0  0  0  0  0  0  0  0  0  0
   -0.9400   71.4920   22.8289 C   0  0  0  0  0  0  0  0  0  0  0  0
   -1.7360   71.7694   23.9303 C   0  0  0  0  0  0  0  0  0  0  0  0
   -1.2996   71.4419   25.2050 C   0  0  0  0  0  0  0  0  0  0  0  0
   -0.0650   70.8366   25.3761 C   0  0  0  0  0  0  0  0  0  0  0  0
    0.7298   70.5583   24.2754 C   0  0  0  0  0  0  0  0  0  0  0  0
   -2.1032   71.7233   26.3191 O   0  0  0  0  0  0  0  0  0  0  0  0
   -2.9381   72.1326   26.2031 H   0  0  0  0  0  0  0  0  0  0  0  0
    1.1776   70.5773   21.7889 C   0  0  0  0  0  0  0  0  0  0  0  0
    0.7194   70.6956   20.6218 O   0  0  0  0  0  0  0  0  0  0  0  0
    2.3708   70.2085   21.9560 O   0  0  0  0  0  0  0  0  0  0  0  0
    2.7165   70.1189   22.8222 H   0  0  0  0  0  0  0  0  0  0  0  0
  9 10  2  0  0  0
  9 11  1  0  0  0
  9  1  1  0  0  0
  1  2  1  0  0  0
  1  6  2  0  0  0
  2  3  2  0  0  0
  3  4  1  0  0  0
  4  5  2  0  0  0
  4  7  1  0  0  0
  5  6  1  0  0  0
 11 12  1  0  0  0
  7  8  1  0  0  0
M  END
> <minimizedAffinity>
-4.02269

$$$$
5W1E_PHB_A_602


 12 12  0  0  0  0  0  0  0  0999 V2000
   -0.0276   70.9505   23.1352 C   0  0  0  0  0  0  0  0  0  0  0  0
    1.1321   70.5609   22.4829 C   0  0  0  0  0  0  0  0  0  0  0  0
    2.1664   69.9740   23.1967 C   0  0  0  0  0  0  0  0  0  0  0  0
    2.0435   69.7740   24.5633 C   0  0  0  0  0  0  0  0  0  0  0  0
    0.8837   70.1619   25.2147 C   0  0  0  0  0  0  0  0  0  0  0  0
   -0.1492   70.7495   24.5016 C   0  0  0  0  0  0  0  0  0  0  0  0
    3.0882   69.1795   25.2854 O   0  0  0  0  0  0  0  0  0  0  0  0
    3.8724   68.9173   24.8446 H   0  0  0  0  0  0  0  0  0  0  0  0
   -1.1725   71.5974   22.3527 C   0  0  0  0  0  0  0  0  0  0  0  0
   -2.1575   72.0932   22.9607 O   0  0  0  0  0  0  0  0  0  0  0  0
   -1.1305   71.6404   21.0941 O   0  0  0  0  0  0  0  0  0  0  0  0
   -0.3998   71.2729   20.6370 H   0  0  0  0  0  0  0  0  0  0  0  0
  9 10  2  0  0  0
  9 11  1  0  0  0
  9  1  1  0  0  0
  1  2  1  0  0  0
  1  6  2  0  0  0
  2  3  2  0  0  0
  3  4  1  0  0  0
  4  5  2  0  0  0
  4  7  1  0  0  0
  5  6  1  0  0  0
 11 12  1  0  0  0
  7  8  1  0  0  0
M  END
> <minimizedAffinity>
-3.98028

$$$$
