4J7D_I31_A_201


 35 38  0  0  0  0  0  0  0  0999 V2000
   -3.9279    4.8726   -0.1989 N   0  0  0  0  0  0  0  0  0  0  0  0
   -3.9079    3.7267   -1.1216 C   0  0  0  0  0  0  0  0  0  0  0  0
   -3.6245    4.1777   -2.5632 C   0  0  0  0  0  0  0  0  0  0  0  0
   -2.7250    2.8894   -0.5326 C   0  0  0  0  0  0  0  0  0  0  0  0
   -1.4127    3.2703   -1.2340 C   0  0  0  0  0  0  0  0  0  0  0  0
   -2.6622    3.3537    0.8403 N   0  0  0  0  0  0  0  0  0  0  0  0
   -3.2167    4.5053    0.9349 C   0  0  0  0  0  0  0  0  0  0  0  0
   -4.3654    5.7403   -0.3567 H   0  0  0  0  0  0  0  0  0  0  0  0
   -5.2331    2.9927   -1.0142 C   0  0  0  0  0  0  0  0  0  0  0  0
   -6.0287    3.1738    0.1183 C   0  0  0  0  0  0  0  0  0  0  0  0
   -7.2089    2.4529    0.2753 C   0  0  0  0  0  0  0  0  0  0  0  0
   -7.5958    1.5483   -0.7094 C   0  0  0  0  0  0  0  0  0  0  0  0
   -9.0337    0.5814   -0.4823 Cl  0  0  0  0  0  0  0  0  0  0  0  0
   -6.8379    1.3980   -1.8733 C   0  0  0  0  0  0  0  0  0  0  0  0
   -5.6555    2.1217   -2.0242 C   0  0  0  0  0  0  0  0  0  0  0  0
   -2.9261    1.3887   -0.5919 C   0  0  0  0  0  0  0  0  0  0  0  0
   -2.3474    0.6449   -1.6304 C   0  0  0  0  0  0  0  0  0  0  0  0
   -2.5164   -0.7383   -1.6810 C   0  0  0  0  0  0  0  0  0  0  0  0
   -3.2732   -1.3749   -0.6980 C   0  0  0  0  0  0  0  0  0  0  0  0
   -3.5276   -3.1068   -0.7800 Cl  0  0  0  0  0  0  0  0  0  0  0  0
   -3.8407   -0.6430    0.3444 C   0  0  0  0  0  0  0  0  0  0  0  0
   -3.6666    0.7363    0.3961 C   0  0  0  0  0  0  0  0  0  0  0  0
   -3.1100    5.3962    2.0868 C   0  0  0  0  0  0  0  0  0  0  0  0
   -1.8820    5.5210    2.7357 C   0  0  0  0  0  0  0  0  0  0  0  0
   -1.7363    6.3764    3.8180 C   0  0  0  0  0  0  0  0  0  0  0  0
   -2.8188    7.1191    4.2764 C   0  0  0  0  0  0  0  0  0  0  0  0
   -4.0730    7.0053    3.6380 C   0  0  0  0  0  0  0  0  0  0  0  0
   -4.1964    6.1332    2.5487 C   0  0  0  0  0  0  0  0  0  0  0  0
   -2.6250    8.0271    5.4704 C   0  0  0  0  0  0  0  0  0  0  0  0
   -1.3624    8.8720    5.2558 C   0  0  0  0  0  0  0  0  0  0  0  0
   -2.4675    7.1931    6.7437 C   0  0  0  0  0  0  0  0  0  0  0  0
   -3.8346    8.9613    5.6187 C   0  0  0  0  0  0  0  0  0  0  0  0
   -5.4146    5.9755    1.8945 O   0  0  0  0  0  0  0  0  0  0  0  0
   -6.2788    7.1019    1.9378 C   0  0  0  0  0  0  0  0  0  0  0  0
   -7.3005    7.0097    0.7929 C   0  0  0  0  0  0  0  0  0  0  0  0
  3  2  1  0  0  0
 15 14  2  0  0  0
 15  9  1  0  0  0
 14 12  1  0  0  0
 18 17  2  0  0  0
 18 19  1  0  0  0
 17 16  1  0  0  0
  5  4  1  0  0  0
  2  9  1  0  0  0
  2  4  1  0  0  0
  2  1  1  0  0  0
  9 10  2  0  0  0
 20 19  1  0  0  0
 19 21  2  0  0  0
 12 13  1  0  0  0
 12 11  2  0  0  0
 16  4  1  0  0  0
 16 22  2  0  0  0
  4  6  1  0  0  0
  1  7  1  0  0  0
 10 11  1  0  0  0
 21 22  1  0  0  0
  6  7  2  0  0  0
  7 23  1  0  0  0
 35 34  1  0  0  0
 33 34  1  0  0  0
 33 28  1  0  0  0
 23 28  2  0  0  0
 23 24  1  0  0  0
 28 27  1  0  0  0
 24 25  2  0  0  0
 27 26  2  0  0  0
 25 26  1  0  0  0
 26 29  1  0  0  0
 32 29  1  0  0  0
 29 31  1  0  0  0
 29 30  1  0  0  0
  1  8  1  0  0  0
M  END
> <minimizedAffinity>
-8.87395

$$$$
4J7D_I31_A_201


 35 38  0  0  0  0  0  0  0  0999 V2000
   -3.9384    4.8176   -0.3367 N   0  0  0  0  0  0  0  0  0  0  0  0
   -3.9283    3.6473   -1.2283 C   0  0  0  0  0  0  0  0  0  0  0  0
   -3.6603    4.0591   -2.6845 C   0  0  0  0  0  0  0  0  0  0  0  0
   -2.7394    2.8258   -0.6295 C   0  0  0  0  0  0  0  0  0  0  0  0
   -1.4346    3.1871   -1.3549 C   0  0  0  0  0  0  0  0  0  0  0  0
   -2.6618    3.3268    0.7296 N   0  0  0  0  0  0  0  0  0  0  0  0
   -3.2152    4.4808    0.7990 C   0  0  0  0  0  0  0  0  0  0  0  0
   -4.3775    5.6809   -0.5132 H   0  0  0  0  0  0  0  0  0  0  0  0
   -5.2524    2.9170   -1.0870 C   0  0  0  0  0  0  0  0  0  0  0  0
   -6.0445    3.1429    0.0399 C   0  0  0  0  0  0  0  0  0  0  0  0
   -7.2235    2.4279    0.2297 C   0  0  0  0  0  0  0  0  0  0  0  0
   -7.6125    1.4839   -0.7164 C   0  0  0  0  0  0  0  0  0  0  0  0
   -9.0487    0.5256   -0.4457 Cl  0  0  0  0  0  0  0  0  0  0  0  0
   -6.8583    1.2875   -1.8758 C   0  0  0  0  0  0  0  0  0  0  0  0
   -5.6772    2.0056   -2.0597 C   0  0  0  0  0  0  0  0  0  0  0  0
   -2.9412    1.3240   -0.6462 C   0  0  0  0  0  0  0  0  0  0  0  0
   -2.3794    0.5531   -1.6740 C   0  0  0  0  0  0  0  0  0  0  0  0
   -2.5490   -0.8309   -1.6857 C   0  0  0  0  0  0  0  0  0  0  0  0
   -3.2897   -1.4413   -0.6742 C   0  0  0  0  0  0  0  0  0  0  0  0
   -3.5453   -3.1746   -0.7066 Cl  0  0  0  0  0  0  0  0  0  0  0  0
   -3.8403   -0.6821    0.3578 C   0  0  0  0  0  0  0  0  0  0  0  0
   -3.6656    0.6980    0.3704 C   0  0  0  0  0  0  0  0  0  0  0  0
   -3.0961    5.4023    1.9253 C   0  0  0  0  0  0  0  0  0  0  0  0
   -4.2017    6.1677    2.2946 C   0  0  0  0  0  0  0  0  0  0  0  0
   -4.1338    7.0357    3.3746 C   0  0  0  0  0  0  0  0  0  0  0  0
   -2.9555    7.1594    4.1025 C   0  0  0  0  0  0  0  0  0  0  0  0
   -1.8219    6.3980    3.7440 C   0  0  0  0  0  0  0  0  0  0  0  0
   -1.9137    5.5303    2.6482 C   0  0  0  0  0  0  0  0  0  0  0  0
   -2.9151    8.1296    5.2622 C   0  0  0  0  0  0  0  0  0  0  0  0
   -4.1958    8.9744    5.2516 C   0  0  0  0  0  0  0  0  0  0  0  0
   -1.6989    9.0495    5.1345 C   0  0  0  0  0  0  0  0  0  0  0  0
   -2.8342    7.3577    6.5872 C   0  0  0  0  0  0  0  0  0  0  0  0
   -0.8204    4.7686    2.2466 O   0  0  0  0  0  0  0  0  0  0  0  0
   -0.1124    4.1210    3.2939 C   0  0  0  0  0  0  0  0  0  0  0  0
   -0.8434    2.8262    3.6840 C   0  0  0  0  0  0  0  0  0  0  0  0
  3  2  1  0  0  0
 15 14  2  0  0  0
 15  9  1  0  0  0
 14 12  1  0  0  0
 18 17  2  0  0  0
 18 19  1  0  0  0
 17 16  1  0  0  0
  5  4  1  0  0  0
  2  9  1  0  0  0
  2  4  1  0  0  0
  2  1  1  0  0  0
  9 10  2  0  0  0
 20 19  1  0  0  0
 19 21  2  0  0  0
 12 13  1  0  0  0
 12 11  2  0  0  0
 16  4  1  0  0  0
 16 22  2  0  0  0
  4  6  1  0  0  0
  1  7  1  0  0  0
 10 11  1  0  0  0
 21 22  1  0  0  0
  6  7  2  0  0  0
  7 23  1  0  0  0
 35 34  1  0  0  0
 33 34  1  0  0  0
 33 28  1  0  0  0
 23 28  2  0  0  0
 23 24  1  0  0  0
 28 27  1  0  0  0
 24 25  2  0  0  0
 27 26  2  0  0  0
 25 26  1  0  0  0
 26 29  1  0  0  0
 32 29  1  0  0  0
 29 31  1  0  0  0
 29 30  1  0  0  0
  1  8  1  0  0  0
M  END
> <minimizedAffinity>
-8.03706

$$$$
4J7D_I31_A_201


 35 38  0  0  0  0  0  0  0  0999 V2000
   -2.5090    4.5668   -0.5792 N   0  0  0  0  0  0  0  0  0  0  0  0
   -3.3954    3.6783    0.1887 C   0  0  0  0  0  0  0  0  0  0  0  0
   -3.1065    3.7705    1.6953 C   0  0  0  0  0  0  0  0  0  0  0  0
   -4.7974    4.2718   -0.1705 C   0  0  0  0  0  0  0  0  0  0  0  0
   -5.2075    5.3186    0.8760 C   0  0  0  0  0  0  0  0  0  0  0  0
   -4.5399    4.9542   -1.4245 N   0  0  0  0  0  0  0  0  0  0  0  0
   -3.2886    5.2104   -1.5301 C   0  0  0  0  0  0  0  0  0  0  0  0
   -1.5409    4.6834   -0.4435 H   0  0  0  0  0  0  0  0  0  0  0  0
   -3.2286    2.2601   -0.3282 C   0  0  0  0  0  0  0  0  0  0  0  0
   -3.6601    1.1884    0.4551 C   0  0  0  0  0  0  0  0  0  0  0  0
   -3.4474   -0.1224    0.0380 C   0  0  0  0  0  0  0  0  0  0  0  0
   -2.8018   -0.3605   -1.1720 C   0  0  0  0  0  0  0  0  0  0  0  0
   -2.4597   -2.0020   -1.6642 Cl  0  0  0  0  0  0  0  0  0  0  0  0
   -2.4146    0.7024   -1.9918 C   0  0  0  0  0  0  0  0  0  0  0  0
   -2.6289    2.0135   -1.5679 C   0  0  0  0  0  0  0  0  0  0  0  0
   -5.8958    3.2398   -0.3271 C   0  0  0  0  0  0  0  0  0  0  0  0
   -6.1851    2.7113   -1.5935 C   0  0  0  0  0  0  0  0  0  0  0  0
   -7.1843    1.7499   -1.7407 C   0  0  0  0  0  0  0  0  0  0  0  0
   -7.9006    1.3258   -0.6221 C   0  0  0  0  0  0  0  0  0  0  0  0
   -9.1881    0.1513   -0.8060 Cl  0  0  0  0  0  0  0  0  0  0  0  0
   -7.6093    1.8377    0.6419 C   0  0  0  0  0  0  0  0  0  0  0  0
   -6.6085    2.7930    0.7875 C   0  0  0  0  0  0  0  0  0  0  0  0
   -2.6967    6.1122   -2.5143 C   0  0  0  0  0  0  0  0  0  0  0  0
   -2.8994    7.4857   -2.3833 C   0  0  0  0  0  0  0  0  0  0  0  0
   -2.3323    8.3747   -3.2846 C   0  0  0  0  0  0  0  0  0  0  0  0
   -1.5561    7.9059   -4.3389 C   0  0  0  0  0  0  0  0  0  0  0  0
   -1.3411    6.5192   -4.4941 C   0  0  0  0  0  0  0  0  0  0  0  0
   -1.9262    5.6407   -3.5730 C   0  0  0  0  0  0  0  0  0  0  0  0
   -0.9697    8.9051   -5.3113 C   0  0  0  0  0  0  0  0  0  0  0  0
   -0.4682    8.1578   -6.5538 C   0  0  0  0  0  0  0  0  0  0  0  0
    0.1987    9.6479   -4.6594 C   0  0  0  0  0  0  0  0  0  0  0  0
   -2.0452    9.9163   -5.7340 C   0  0  0  0  0  0  0  0  0  0  0  0
   -1.7554    4.2645   -3.6907 O   0  0  0  0  0  0  0  0  0  0  0  0
   -2.2537    3.6900   -4.8903 C   0  0  0  0  0  0  0  0  0  0  0  0
   -1.3018    2.5787   -5.3616 C   0  0  0  0  0  0  0  0  0  0  0  0
  3  2  1  0  0  0
 15 14  2  0  0  0
 15  9  1  0  0  0
 14 12  1  0  0  0
 18 17  2  0  0  0
 18 19  1  0  0  0
 17 16  1  0  0  0
  5  4  1  0  0  0
  2  9  1  0  0  0
  2  4  1  0  0  0
  2  1  1  0  0  0
  9 10  2  0  0  0
 20 19  1  0  0  0
 19 21  2  0  0  0
 12 13  1  0  0  0
 12 11  2  0  0  0
 16  4  1  0  0  0
 16 22  2  0  0  0
  4  6  1  0  0  0
  1  7  1  0  0  0
 10 11  1  0  0  0
 21 22  1  0  0  0
  6  7  2  0  0  0
  7 23  1  0  0  0
 35 34  1  0  0  0
 33 34  1  0  0  0
 33 28  1  0  0  0
 23 28  2  0  0  0
 23 24  1  0  0  0
 28 27  1  0  0  0
 24 25  2  0  0  0
 27 26  2  0  0  0
 25 26  1  0  0  0
 26 29  1  0  0  0
 32 29  1  0  0  0
 29 31  1  0  0  0
 29 30  1  0  0  0
  1  8  1  0  0  0
M  END
> <minimizedAffinity>
-7.79132

$$$$
4J7D_I31_A_201


 35 38  0  0  0  0  0  0  0  0999 V2000
   -4.5484    5.3794   -0.5631 N   0  0  0  0  0  0  0  0  0  0  0  0
   -4.4072    4.1977   -1.4283 C   0  0  0  0  0  0  0  0  0  0  0  0
   -4.3115    4.5999   -2.9085 C   0  0  0  0  0  0  0  0  0  0  0  0
   -3.0608    3.6007   -0.9011 C   0  0  0  0  0  0  0  0  0  0  0  0
   -1.8864    4.1456   -1.7275 C   0  0  0  0  0  0  0  0  0  0  0  0
   -2.9735    4.1519    0.4379 N   0  0  0  0  0  0  0  0  0  0  0  0
   -3.7032    5.2020    0.5234 C   0  0  0  0  0  0  0  0  0  0  0  0
   -5.1347    6.1535   -0.7250 H   0  0  0  0  0  0  0  0  0  0  0  0
   -5.5800    3.2668   -1.1751 C   0  0  0  0  0  0  0  0  0  0  0  0
   -5.9120    2.3047   -2.1305 C   0  0  0  0  0  0  0  0  0  0  0  0
   -7.0291    1.4927   -1.9570 C   0  0  0  0  0  0  0  0  0  0  0  0
   -7.8159    1.6434   -0.8187 C   0  0  0  0  0  0  0  0  0  0  0  0
   -9.2644    0.6836   -0.6324 Cl  0  0  0  0  0  0  0  0  0  0  0  0
   -7.4639    2.5638    0.1715 C   0  0  0  0  0  0  0  0  0  0  0  0
   -6.3445    3.3756   -0.0085 C   0  0  0  0  0  0  0  0  0  0  0  0
   -3.0133    2.0864   -0.8714 C   0  0  0  0  0  0  0  0  0  0  0  0
   -3.5459    1.3902    0.2232 C   0  0  0  0  0  0  0  0  0  0  0  0
   -3.5188   -0.0038    0.2484 C   0  0  0  0  0  0  0  0  0  0  0  0
   -2.9491   -0.6997   -0.8172 C   0  0  0  0  0  0  0  0  0  0  0  0
   -2.8706   -2.4497   -0.7720 Cl  0  0  0  0  0  0  0  0  0  0  0  0
   -2.4292   -0.0140   -1.9145 C   0  0  0  0  0  0  0  0  0  0  0  0
   -2.4619    1.3765   -1.9401 C   0  0  0  0  0  0  0  0  0  0  0  0
   -3.6603    6.1670    1.6183 C   0  0  0  0  0  0  0  0  0  0  0  0
   -3.0293    5.8121    2.8102 C   0  0  0  0  0  0  0  0  0  0  0  0
   -2.9471    6.7112    3.8634 C   0  0  0  0  0  0  0  0  0  0  0  0
   -3.5007    7.9815    3.7466 C   0  0  0  0  0  0  0  0  0  0  0  0
   -4.1485    8.3612    2.5510 C   0  0  0  0  0  0  0  0  0  0  0  0
   -4.2213    7.4354    1.5023 C   0  0  0  0  0  0  0  0  0  0  0  0
   -3.4066    8.9273    4.9233 C   0  0  0  0  0  0  0  0  0  0  0  0
   -4.6479    9.8288    4.9401 C   0  0  0  0  0  0  0  0  0  0  0  0
   -2.1513    9.7938    4.8008 C   0  0  0  0  0  0  0  0  0  0  0  0
   -3.3492    8.1280    6.2332 C   0  0  0  0  0  0  0  0  0  0  0  0
   -4.8611    7.7567    0.3089 O   0  0  0  0  0  0  0  0  0  0  0  0
   -4.4385    8.9678   -0.3011 C   0  0  0  0  0  0  0  0  0  0  0  0
   -3.1427    8.7205   -1.0904 C   0  0  0  0  0  0  0  0  0  0  0  0
  3  2  1  0  0  0
 15 14  2  0  0  0
 15  9  1  0  0  0
 14 12  1  0  0  0
 18 17  2  0  0  0
 18 19  1  0  0  0
 17 16  1  0  0  0
  5  4  1  0  0  0
  2  9  1  0  0  0
  2  4  1  0  0  0
  2  1  1  0  0  0
  9 10  2  0  0  0
 20 19  1  0  0  0
 19 21  2  0  0  0
 12 13  1  0  0  0
 12 11  2  0  0  0
 16  4  1  0  0  0
 16 22  2  0  0  0
  4  6  1  0  0  0
  1  7  1  0  0  0
 10 11  1  0  0  0
 21 22  1  0  0  0
  6  7  2  0  0  0
  7 23  1  0  0  0
 35 34  1  0  0  0
 33 34  1  0  0  0
 33 28  1  0  0  0
 23 28  2  0  0  0
 23 24  1  0  0  0
 28 27  1  0  0  0
 24 25  2  0  0  0
 27 26  2  0  0  0
 25 26  1  0  0  0
 26 29  1  0  0  0
 32 29  1  0  0  0
 29 31  1  0  0  0
 29 30  1  0  0  0
  1  8  1  0  0  0
M  END
> <minimizedAffinity>
-7.48300

$$$$
4J7D_I31_A_201


 35 38  0  0  0  0  0  0  0  0999 V2000
   -5.2574    5.8843    2.1090 N   0  0  0  0  0  0  0  0  0  0  0  0
   -5.5500    5.6846    0.6809 C   0  0  0  0  0  0  0  0  0  0  0  0
   -6.9973    6.0806    0.3485 C   0  0  0  0  0  0  0  0  0  0  0  0
   -4.5168    6.6591    0.0252 C   0  0  0  0  0  0  0  0  0  0  0  0
   -5.1630    8.0340   -0.2007 C   0  0  0  0  0  0  0  0  0  0  0  0
   -3.5074    6.7915    1.0586 N   0  0  0  0  0  0  0  0  0  0  0  0
   -4.0090    6.4842    2.1972 C   0  0  0  0  0  0  0  0  0  0  0  0
   -5.8401    5.6376    2.8632 H   0  0  0  0  0  0  0  0  0  0  0  0
   -5.2697    4.2350    0.3252 C   0  0  0  0  0  0  0  0  0  0  0  0
   -6.0434    3.6054   -0.6513 C   0  0  0  0  0  0  0  0  0  0  0  0
   -5.8574    2.2564   -0.9388 C   0  0  0  0  0  0  0  0  0  0  0  0
   -4.8888    1.5351   -0.2466 C   0  0  0  0  0  0  0  0  0  0  0  0
   -4.7041   -0.1769   -0.5448 Cl  0  0  0  0  0  0  0  0  0  0  0  0
   -4.0701    2.1658    0.6935 C   0  0  0  0  0  0  0  0  0  0  0  0
   -4.2622    3.5172    0.9785 C   0  0  0  0  0  0  0  0  0  0  0  0
   -3.9097    6.1545   -1.2683 C   0  0  0  0  0  0  0  0  0  0  0  0
   -4.5997    6.3214   -2.4778 C   0  0  0  0  0  0  0  0  0  0  0  0
   -4.0387    5.8729   -3.6729 C   0  0  0  0  0  0  0  0  0  0  0  0
   -2.7921    5.2482   -3.6555 C   0  0  0  0  0  0  0  0  0  0  0  0
   -2.1009    4.6416   -5.1472 Cl  0  0  0  0  0  0  0  0  0  0  0  0
   -2.0950    5.0906   -2.4581 C   0  0  0  0  0  0  0  0  0  0  0  0
   -2.6541    5.5434   -1.2674 C   0  0  0  0  0  0  0  0  0  0  0  0
   -3.3839    6.7513    3.4894 C   0  0  0  0  0  0  0  0  0  0  0  0
   -2.1667    6.1419    3.7924 C   0  0  0  0  0  0  0  0  0  0  0  0
   -1.5307    6.3910    4.9998 C   0  0  0  0  0  0  0  0  0  0  0  0
   -2.1039    7.2503    5.9308 C   0  0  0  0  0  0  0  0  0  0  0  0
   -3.3380    7.8749    5.6477 C   0  0  0  0  0  0  0  0  0  0  0  0
   -3.9626    7.6059    4.4230 C   0  0  0  0  0  0  0  0  0  0  0  0
   -1.3890    7.4825    7.2433 C   0  0  0  0  0  0  0  0  0  0  0  0
   -0.8325    6.1465    7.7523 C   0  0  0  0  0  0  0  0  0  0  0  0
   -2.3622    8.0540    8.2768 C   0  0  0  0  0  0  0  0  0  0  0  0
   -0.2267    8.4650    7.0390 C   0  0  0  0  0  0  0  0  0  0  0  0
   -5.1864    8.1860    4.1028 O   0  0  0  0  0  0  0  0  0  0  0  0
   -5.1550    9.5881    3.8781 C   0  0  0  0  0  0  0  0  0  0  0  0
   -6.3393   10.2508    4.6002 C   0  0  0  0  0  0  0  0  0  0  0  0
  3  2  1  0  0  0
 15 14  2  0  0  0
 15  9  1  0  0  0
 14 12  1  0  0  0
 18 17  2  0  0  0
 18 19  1  0  0  0
 17 16  1  0  0  0
  5  4  1  0  0  0
  2  9  1  0  0  0
  2  4  1  0  0  0
  2  1  1  0  0  0
  9 10  2  0  0  0
 20 19  1  0  0  0
 19 21  2  0  0  0
 12 13  1  0  0  0
 12 11  2  0  0  0
 16  4  1  0  0  0
 16 22  2  0  0  0
  4  6  1  0  0  0
  1  7  1  0  0  0
 10 11  1  0  0  0
 21 22  1  0  0  0
  6  7  2  0  0  0
  7 23  1  0  0  0
 35 34  1  0  0  0
 33 34  1  0  0  0
 33 28  1  0  0  0
 23 28  2  0  0  0
 23 24  1  0  0  0
 28 27  1  0  0  0
 24 25  2  0  0  0
 27 26  2  0  0  0
 25 26  1  0  0  0
 26 29  1  0  0  0
 32 29  1  0  0  0
 29 31  1  0  0  0
 29 30  1  0  0  0
  1  8  1  0  0  0
M  END
> <minimizedAffinity>
-6.90969

$$$$
4J7D_I31_A_201


 35 38  0  0  0  0  0  0  0  0999 V2000
   -4.6347    4.7177    1.2667 N   0  0  0  0  0  0  0  0  0  0  0  0
   -4.7424    4.2619   -0.1281 C   0  0  0  0  0  0  0  0  0  0  0  0
   -6.1322    4.5682   -0.7081 C   0  0  0  0  0  0  0  0  0  0  0  0
   -3.6270    5.1210   -0.8100 C   0  0  0  0  0  0  0  0  0  0  0  0
   -4.2298    6.4228   -1.3588 C   0  0  0  0  0  0  0  0  0  0  0  0
   -2.7581    5.4522    0.3034 N   0  0  0  0  0  0  0  0  0  0  0  0
   -3.4041    5.3444    1.4050 C   0  0  0  0  0  0  0  0  0  0  0  0
   -5.3111    4.5997    1.9722 H   0  0  0  0  0  0  0  0  0  0  0  0
   -4.4282    2.7770   -0.1800 C   0  0  0  0  0  0  0  0  0  0  0  0
   -5.1010    1.9641   -1.0938 C   0  0  0  0  0  0  0  0  0  0  0  0
   -4.8874    0.5888   -1.1069 C   0  0  0  0  0  0  0  0  0  0  0  0
   -3.9923    0.0254   -0.2019 C   0  0  0  0  0  0  0  0  0  0  0  0
   -3.7789   -1.7085   -0.1584 Cl  0  0  0  0  0  0  0  0  0  0  0  0
   -3.2710    0.8335    0.6804 C   0  0  0  0  0  0  0  0  0  0  0  0
   -3.4905    2.2105    0.6901 C   0  0  0  0  0  0  0  0  0  0  0  0
   -2.8619    4.4042   -1.9041 C   0  0  0  0  0  0  0  0  0  0  0  0
   -3.4210    4.2805   -3.1842 C   0  0  0  0  0  0  0  0  0  0  0  0
   -2.7147    3.6354   -4.1988 C   0  0  0  0  0  0  0  0  0  0  0  0
   -1.4535    3.1055   -3.9287 C   0  0  0  0  0  0  0  0  0  0  0  0
   -0.5789    2.2541   -5.1862 Cl  0  0  0  0  0  0  0  0  0  0  0  0
   -0.8862    3.2363   -2.6616 C   0  0  0  0  0  0  0  0  0  0  0  0
   -1.5904    3.8847   -1.6521 C   0  0  0  0  0  0  0  0  0  0  0  0
   -2.9486    5.8478    2.6978 C   0  0  0  0  0  0  0  0  0  0  0  0
   -1.7983    5.3050    3.2694 C   0  0  0  0  0  0  0  0  0  0  0  0
   -1.3214    5.7749    4.4844 C   0  0  0  0  0  0  0  0  0  0  0  0
   -1.9904    6.7933    5.1545 C   0  0  0  0  0  0  0  0  0  0  0  0
   -3.1598    7.3547    4.5971 C   0  0  0  0  0  0  0  0  0  0  0  0
   -3.6236    6.8621    3.3705 C   0  0  0  0  0  0  0  0  0  0  0  0
   -1.4496    7.2662    6.4855 C   0  0  0  0  0  0  0  0  0  0  0  0
   -2.5623    8.0016    7.2439 C   0  0  0  0  0  0  0  0  0  0  0  0
   -0.2712    8.2172    6.2651 C   0  0  0  0  0  0  0  0  0  0  0  0
   -0.9854    6.0628    7.3187 C   0  0  0  0  0  0  0  0  0  0  0  0
   -4.7790    7.3728    2.7866 O   0  0  0  0  0  0  0  0  0  0  0  0
   -5.9633    7.2339    3.5583 C   0  0  0  0  0  0  0  0  0  0  0  0
   -7.1580    6.9806    2.6247 C   0  0  0  0  0  0  0  0  0  0  0  0
  3  2  1  0  0  0
 15 14  2  0  0  0
 15  9  1  0  0  0
 14 12  1  0  0  0
 18 17  2  0  0  0
 18 19  1  0  0  0
 17 16  1  0  0  0
  5  4  1  0  0  0
  2  9  1  0  0  0
  2  4  1  0  0  0
  2  1  1  0  0  0
  9 10  2  0  0  0
 20 19  1  0  0  0
 19 21  2  0  0  0
 12 13  1  0  0  0
 12 11  2  0  0  0
 16  4  1  0  0  0
 16 22  2  0  0  0
  4  6  1  0  0  0
  1  7  1  0  0  0
 10 11  1  0  0  0
 21 22  1  0  0  0
  6  7  2  0  0  0
  7 23  1  0  0  0
 35 34  1  0  0  0
 33 34  1  0  0  0
 33 28  1  0  0  0
 23 28  2  0  0  0
 23 24  1  0  0  0
 28 27  1  0  0  0
 24 25  2  0  0  0
 27 26  2  0  0  0
 25 26  1  0  0  0
 26 29  1  0  0  0
 32 29  1  0  0  0
 29 31  1  0  0  0
 29 30  1  0  0  0
  1  8  1  0  0  0
M  END
> <minimizedAffinity>
-6.72568

$$$$
4J7D_I31_A_201


 35 38  0  0  0  0  0  0  0  0999 V2000
   -3.9877    7.2897    1.2224 N   0  0  0  0  0  0  0  0  0  0  0  0
   -3.6108    8.3499    2.1704 C   0  0  0  0  0  0  0  0  0  0  0  0
   -3.9639    9.7405    1.6196 C   0  0  0  0  0  0  0  0  0  0  0  0
   -4.4937    7.9738    3.4057 C   0  0  0  0  0  0  0  0  0  0  0  0
   -5.8304    8.7280    3.3439 C   0  0  0  0  0  0  0  0  0  0  0  0
   -4.7534    6.5629    3.1908 N   0  0  0  0  0  0  0  0  0  0  0  0
   -4.5923    6.2757    1.9522 C   0  0  0  0  0  0  0  0  0  0  0  0
   -3.8386    7.2980    0.2493 H   0  0  0  0  0  0  0  0  0  0  0  0
   -2.1276    8.2269    2.4727 C   0  0  0  0  0  0  0  0  0  0  0  0
   -1.4011    9.3663    2.8227 C   0  0  0  0  0  0  0  0  0  0  0  0
   -0.0265    9.2924    3.0279 C   0  0  0  0  0  0  0  0  0  0  0  0
    0.6232    8.0697    2.8849 C   0  0  0  0  0  0  0  0  0  0  0  0
    2.3597    7.9843    3.0620 Cl  0  0  0  0  0  0  0  0  0  0  0  0
   -0.0997    6.9113    2.5896 C   0  0  0  0  0  0  0  0  0  0  0  0
   -1.4765    6.9918    2.3835 C   0  0  0  0  0  0  0  0  0  0  0  0
   -3.8299    8.2077    4.7477 C   0  0  0  0  0  0  0  0  0  0  0  0
   -3.8085    9.4949    5.3037 C   0  0  0  0  0  0  0  0  0  0  0  0
   -3.2126    9.7128    6.5454 C   0  0  0  0  0  0  0  0  0  0  0  0
   -2.6293    8.6441    7.2251 C   0  0  0  0  0  0  0  0  0  0  0  0
   -1.8390    8.9182    8.7649 Cl  0  0  0  0  0  0  0  0  0  0  0  0
   -2.6584    7.3593    6.6838 C   0  0  0  0  0  0  0  0  0  0  0  0
   -3.2579    7.1430    5.4472 C   0  0  0  0  0  0  0  0  0  0  0  0
   -5.0185    5.0322    1.3166 C   0  0  0  0  0  0  0  0  0  0  0  0
   -6.3571    4.8790    0.9569 C   0  0  0  0  0  0  0  0  0  0  0  0
   -6.7941    3.7219    0.3289 C   0  0  0  0  0  0  0  0  0  0  0  0
   -5.9008    2.6922    0.0542 C   0  0  0  0  0  0  0  0  0  0  0  0
   -4.5418    2.8231    0.4136 C   0  0  0  0  0  0  0  0  0  0  0  0
   -4.1245    3.9997    1.0491 C   0  0  0  0  0  0  0  0  0  0  0  0
   -6.4188    1.4388   -0.6154 C   0  0  0  0  0  0  0  0  0  0  0  0
   -5.3453    0.3460   -0.5288 C   0  0  0  0  0  0  0  0  0  0  0  0
   -6.7371    1.7224   -2.0851 C   0  0  0  0  0  0  0  0  0  0  0  0
   -7.6889    0.9520    0.0971 C   0  0  0  0  0  0  0  0  0  0  0  0
   -2.7985    4.1712    1.4355 O   0  0  0  0  0  0  0  0  0  0  0  0
   -2.0977    2.9770    1.7520 C   0  0  0  0  0  0  0  0  0  0  0  0
   -1.3365    3.1634    3.0745 C   0  0  0  0  0  0  0  0  0  0  0  0
  3  2  1  0  0  0
 15 14  2  0  0  0
 15  9  1  0  0  0
 14 12  1  0  0  0
 18 17  2  0  0  0
 18 19  1  0  0  0
 17 16  1  0  0  0
  5  4  1  0  0  0
  2  9  1  0  0  0
  2  4  1  0  0  0
  2  1  1  0  0  0
  9 10  2  0  0  0
 20 19  1  0  0  0
 19 21  2  0  0  0
 12 13  1  0  0  0
 12 11  2  0  0  0
 16  4  1  0  0  0
 16 22  2  0  0  0
  4  6  1  0  0  0
  1  7  1  0  0  0
 10 11  1  0  0  0
 21 22  1  0  0  0
  6  7  2  0  0  0
  7 23  1  0  0  0
 35 34  1  0  0  0
 33 34  1  0  0  0
 33 28  1  0  0  0
 23 28  2  0  0  0
 23 24  1  0  0  0
 28 27  1  0  0  0
 24 25  2  0  0  0
 27 26  2  0  0  0
 25 26  1  0  0  0
 26 29  1  0  0  0
 32 29  1  0  0  0
 29 31  1  0  0  0
 29 30  1  0  0  0
  1  8  1  0  0  0
M  END
> <minimizedAffinity>
-6.61448

$$$$
4J7D_I31_A_201


 35 38  0  0  0  0  0  0  0  0999 V2000
   -5.1895    5.8435    2.1324 N   0  0  0  0  0  0  0  0  0  0  0  0
   -5.5027    5.6418    0.7090 C   0  0  0  0  0  0  0  0  0  0  0  0
   -6.9579    6.0268    0.3991 C   0  0  0  0  0  0  0  0  0  0  0  0
   -4.4871    6.6242    0.0376 C   0  0  0  0  0  0  0  0  0  0  0  0
   -5.1472    7.9943   -0.1779 C   0  0  0  0  0  0  0  0  0  0  0  0
   -3.4629    6.7641    1.0553 N   0  0  0  0  0  0  0  0  0  0  0  0
   -3.9445    6.4529    2.2014 C   0  0  0  0  0  0  0  0  0  0  0  0
   -5.7585    5.5923    2.8955 H   0  0  0  0  0  0  0  0  0  0  0  0
   -5.2169    4.1945    0.3486 C   0  0  0  0  0  0  0  0  0  0  0  0
   -5.9855    3.5664   -0.6329 C   0  0  0  0  0  0  0  0  0  0  0  0
   -5.7945    2.2190   -0.9250 C   0  0  0  0  0  0  0  0  0  0  0  0
   -4.8261    1.4979   -0.2324 C   0  0  0  0  0  0  0  0  0  0  0  0
   -4.6353   -0.2123   -0.5367 Cl  0  0  0  0  0  0  0  0  0  0  0  0
   -4.0124    2.1273    0.7128 C   0  0  0  0  0  0  0  0  0  0  0  0
   -4.2094    3.4771    1.0025 C   0  0  0  0  0  0  0  0  0  0  0  0
   -3.8964    6.1245   -1.2653 C   0  0  0  0  0  0  0  0  0  0  0  0
   -4.5921    6.3139   -2.4681 C   0  0  0  0  0  0  0  0  0  0  0  0
   -4.0459    5.8698   -3.6717 C   0  0  0  0  0  0  0  0  0  0  0  0
   -2.8085    5.2271   -3.6696 C   0  0  0  0  0  0  0  0  0  0  0  0
   -2.1365    4.6262   -5.1722 Cl  0  0  0  0  0  0  0  0  0  0  0  0
   -2.1055    5.0470   -2.4788 C   0  0  0  0  0  0  0  0  0  0  0  0
   -2.6498    5.4953   -1.2796 C   0  0  0  0  0  0  0  0  0  0  0  0
   -3.3014    6.7245    3.4839 C   0  0  0  0  0  0  0  0  0  0  0  0
   -3.9062    7.6151    4.3703 C   0  0  0  0  0  0  0  0  0  0  0  0
   -3.3377    7.8790    5.6078 C   0  0  0  0  0  0  0  0  0  0  0  0
   -2.1487    7.2613    5.9800 C   0  0  0  0  0  0  0  0  0  0  0  0
   -1.5160    6.3596    5.0969 C   0  0  0  0  0  0  0  0  0  0  0  0
   -2.1076    6.1110    3.8518 C   0  0  0  0  0  0  0  0  0  0  0  0
   -1.5504    7.5885    7.3301 C   0  0  0  0  0  0  0  0  0  0  0  0
   -0.3914    8.5750    7.1371 C   0  0  0  0  0  0  0  0  0  0  0  0
   -1.0267    6.3134    7.9948 C   0  0  0  0  0  0  0  0  0  0  0  0
   -2.6137    8.2336    8.2308 C   0  0  0  0  0  0  0  0  0  0  0  0
   -1.5159    5.2410    2.9407 O   0  0  0  0  0  0  0  0  0  0  0  0
   -0.5404    4.3628    3.4835 C   0  0  0  0  0  0  0  0  0  0  0  0
   -1.0254    2.9103    3.3489 C   0  0  0  0  0  0  0  0  0  0  0  0
  3  2  1  0  0  0
 15 14  2  0  0  0
 15  9  1  0  0  0
 14 12  1  0  0  0
 18 17  2  0  0  0
 18 19  1  0  0  0
 17 16  1  0  0  0
  5  4  1  0  0  0
  2  9  1  0  0  0
  2  4  1  0  0  0
  2  1  1  0  0  0
  9 10  2  0  0  0
 20 19  1  0  0  0
 19 21  2  0  0  0
 12 13  1  0  0  0
 12 11  2  0  0  0
 16  4  1  0  0  0
 16 22  2  0  0  0
  4  6  1  0  0  0
  1  7  1  0  0  0
 10 11  1  0  0  0
 21 22  1  0  0  0
  6  7  2  0  0  0
  7 23  1  0  0  0
 35 34  1  0  0  0
 33 34  1  0  0  0
 33 28  1  0  0  0
 23 28  2  0  0  0
 23 24  1  0  0  0
 28 27  1  0  0  0
 24 25  2  0  0  0
 27 26  2  0  0  0
 25 26  1  0  0  0
 26 29  1  0  0  0
 32 29  1  0  0  0
 29 31  1  0  0  0
 29 30  1  0  0  0
  1  8  1  0  0  0
M  END
> <minimizedAffinity>
-6.53721

$$$$
4J7D_I31_A_201


 35 38  0  0  0  0  0  0  0  0999 V2000
   -2.0182    4.2395    0.6817 N   0  0  0  0  0  0  0  0  0  0  0  0
   -3.1522    4.1830   -0.2542 C   0  0  0  0  0  0  0  0  0  0  0  0
   -2.7660    4.7457   -1.6311 C   0  0  0  0  0  0  0  0  0  0  0  0
   -3.4165    2.6422   -0.3105 C   0  0  0  0  0  0  0  0  0  0  0  0
   -2.6333    2.0181   -1.4751 C   0  0  0  0  0  0  0  0  0  0  0  0
   -2.8354    2.1761    0.9343 N   0  0  0  0  0  0  0  0  0  0  0  0
   -1.9780    3.0288    1.3591 C   0  0  0  0  0  0  0  0  0  0  0  0
   -1.4014    4.9969    0.8048 H   0  0  0  0  0  0  0  0  0  0  0  0
   -4.3214    4.9388    0.3525 C   0  0  0  0  0  0  0  0  0  0  0  0
   -5.4312    5.2377   -0.4396 C   0  0  0  0  0  0  0  0  0  0  0  0
   -6.4801    5.9967    0.0714 C   0  0  0  0  0  0  0  0  0  0  0  0
   -6.4181    6.4558    1.3840 C   0  0  0  0  0  0  0  0  0  0  0  0
   -7.6928    7.4760    2.0072 Cl  0  0  0  0  0  0  0  0  0  0  0  0
   -5.3394    6.1174    2.2048 C   0  0  0  0  0  0  0  0  0  0  0  0
   -4.2907    5.3582    1.6868 C   0  0  0  0  0  0  0  0  0  0  0  0
   -4.8792    2.2582   -0.4067 C   0  0  0  0  0  0  0  0  0  0  0  0
   -5.6094    1.9835    0.7586 C   0  0  0  0  0  0  0  0  0  0  0  0
   -6.9596    1.6448    0.6767 C   0  0  0  0  0  0  0  0  0  0  0  0
   -7.5754    1.5710   -0.5721 C   0  0  0  0  0  0  0  0  0  0  0  0
   -9.2600    1.1021   -0.6862 Cl  0  0  0  0  0  0  0  0  0  0  0  0
   -6.8584    1.8554   -1.7338 C   0  0  0  0  0  0  0  0  0  0  0  0
   -5.5127    2.1981   -1.6497 C   0  0  0  0  0  0  0  0  0  0  0  0
   -1.0088    2.7854    2.4237 C   0  0  0  0  0  0  0  0  0  0  0  0
   -1.4505    2.7420    3.7456 C   0  0  0  0  0  0  0  0  0  0  0  0
   -0.5631    2.4886    4.7813 C   0  0  0  0  0  0  0  0  0  0  0  0
    0.7857    2.2799    4.5146 C   0  0  0  0  0  0  0  0  0  0  0  0
    1.2565    2.3239    3.1843 C   0  0  0  0  0  0  0  0  0  0  0  0
    0.3420    2.5840    2.1555 C   0  0  0  0  0  0  0  0  0  0  0  0
    1.7252    2.0244    5.6721 C   0  0  0  0  0  0  0  0  0  0  0  0
    3.1488    1.8436    5.1294 C   0  0  0  0  0  0  0  0  0  0  0  0
    1.3027    0.7587    6.4212 C   0  0  0  0  0  0  0  0  0  0  0  0
    1.7039    3.2193    6.6363 C   0  0  0  0  0  0  0  0  0  0  0  0
    0.7588    2.6512    0.8294 O   0  0  0  0  0  0  0  0  0  0  0  0
    1.5540    3.7805    0.4980 C   0  0  0  0  0  0  0  0  0  0  0  0
    1.5193    4.0048   -1.0224 C   0  0  0  0  0  0  0  0  0  0  0  0
  3  2  1  0  0  0
 15 14  2  0  0  0
 15  9  1  0  0  0
 14 12  1  0  0  0
 18 17  2  0  0  0
 18 19  1  0  0  0
 17 16  1  0  0  0
  5  4  1  0  0  0
  2  9  1  0  0  0
  2  4  1  0  0  0
  2  1  1  0  0  0
  9 10  2  0  0  0
 20 19  1  0  0  0
 19 21  2  0  0  0
 12 13  1  0  0  0
 12 11  2  0  0  0
 16  4  1  0  0  0
 16 22  2  0  0  0
  4  6  1  0  0  0
  1  7  1  0  0  0
 10 11  1  0  0  0
 21 22  1  0  0  0
  6  7  2  0  0  0
  7 23  1  0  0  0
 35 34  1  0  0  0
 33 34  1  0  0  0
 33 28  1  0  0  0
 23 28  2  0  0  0
 23 24  1  0  0  0
 28 27  1  0  0  0
 24 25  2  0  0  0
 27 26  2  0  0  0
 25 26  1  0  0  0
 26 29  1  0  0  0
 32 29  1  0  0  0
 29 31  1  0  0  0
 29 30  1  0  0  0
  1  8  1  0  0  0
M  END
> <minimizedAffinity>
-6.40730

$$$$
4J7D_I31_A_201


 35 38  0  0  0  0  0  0  0  0999 V2000
   -5.2600    6.2375    2.2989 N   0  0  0  0  0  0  0  0  0  0  0  0
   -5.5681    6.0394    0.8739 C   0  0  0  0  0  0  0  0  0  0  0  0
   -6.9582    6.5926    0.5228 C   0  0  0  0  0  0  0  0  0  0  0  0
   -4.4260    6.8715    0.2029 C   0  0  0  0  0  0  0  0  0  0  0  0
   -4.9072    8.3065   -0.0590 C   0  0  0  0  0  0  0  0  0  0  0  0
   -3.4122    6.9103    1.2397 N   0  0  0  0  0  0  0  0  0  0  0  0
   -3.9507    6.6905    2.3817 C   0  0  0  0  0  0  0  0  0  0  0  0
   -5.8704    6.0781    3.0547 H   0  0  0  0  0  0  0  0  0  0  0  0
   -5.4567    4.5590    0.5537 C   0  0  0  0  0  0  0  0  0  0  0  0
   -4.3657    3.8326    1.0338 C   0  0  0  0  0  0  0  0  0  0  0  0
   -4.2010    2.4943    0.6888 C   0  0  0  0  0  0  0  0  0  0  0  0
   -5.1361    1.8797   -0.1390 C   0  0  0  0  0  0  0  0  0  0  0  0
   -4.8937    0.2235   -0.6415 Cl  0  0  0  0  0  0  0  0  0  0  0  0
   -6.2617    2.5791   -0.5814 C   0  0  0  0  0  0  0  0  0  0  0  0
   -6.4205    3.9201   -0.2338 C   0  0  0  0  0  0  0  0  0  0  0  0
   -3.8765    6.2694   -1.0746 C   0  0  0  0  0  0  0  0  0  0  0  0
   -2.6376    5.6126   -1.0630 C   0  0  0  0  0  0  0  0  0  0  0  0
   -2.1346    5.0433   -2.2323 C   0  0  0  0  0  0  0  0  0  0  0  0
   -2.8671    5.1409   -3.4148 C   0  0  0  0  0  0  0  0  0  0  0  0
   -2.2208    4.4675   -4.8979 Cl  0  0  0  0  0  0  0  0  0  0  0  0
   -4.1056    5.7815   -3.4304 C   0  0  0  0  0  0  0  0  0  0  0  0
   -4.6081    6.3444   -2.2617 C   0  0  0  0  0  0  0  0  0  0  0  0
   -3.3039    6.9137    3.6716 C   0  0  0  0  0  0  0  0  0  0  0  0
   -3.8634    7.8308    4.5607 C   0  0  0  0  0  0  0  0  0  0  0  0
   -3.2911    8.0510    5.8050 C   0  0  0  0  0  0  0  0  0  0  0  0
   -2.1434    7.3621    6.1815 C   0  0  0  0  0  0  0  0  0  0  0  0
   -1.5567    6.4322    5.2958 C   0  0  0  0  0  0  0  0  0  0  0  0
   -2.1511    6.2286    4.0438 C   0  0  0  0  0  0  0  0  0  0  0  0
   -1.5386    7.6428    7.5392 C   0  0  0  0  0  0  0  0  0  0  0  0
   -1.0193    6.3284    8.1362 C   0  0  0  0  0  0  0  0  0  0  0  0
   -2.5951    8.2411    8.4706 C   0  0  0  0  0  0  0  0  0  0  0  0
   -0.3680    8.6263    7.3969 C   0  0  0  0  0  0  0  0  0  0  0  0
   -1.6033    5.3330    3.1302 O   0  0  0  0  0  0  0  0  0  0  0  0
   -0.8421    4.2758    3.6961 C   0  0  0  0  0  0  0  0  0  0  0  0
   -1.2179    2.9502    3.0143 C   0  0  0  0  0  0  0  0  0  0  0  0
  3  2  1  0  0  0
 15 14  2  0  0  0
 15  9  1  0  0  0
 14 12  1  0  0  0
 18 17  2  0  0  0
 18 19  1  0  0  0
 17 16  1  0  0  0
  5  4  1  0  0  0
  2  9  1  0  0  0
  2  4  1  0  0  0
  2  1  1  0  0  0
  9 10  2  0  0  0
 20 19  1  0  0  0
 19 21  2  0  0  0
 12 13  1  0  0  0
 12 11  2  0  0  0
 16  4  1  0  0  0
 16 22  2  0  0  0
  4  6  1  0  0  0
  1  7  1  0  0  0
 10 11  1  0  0  0
 21 22  1  0  0  0
  6  7  2  0  0  0
  7 23  1  0  0  0
 35 34  1  0  0  0
 33 34  1  0  0  0
 33 28  1  0  0  0
 23 28  2  0  0  0
 23 24  1  0  0  0
 28 27  1  0  0  0
 24 25  2  0  0  0
 27 26  2  0  0  0
 25 26  1  0  0  0
 26 29  1  0  0  0
 32 29  1  0  0  0
 29 31  1  0  0  0
 29 30  1  0  0  0
  1  8  1  0  0  0
M  END
> <minimizedAffinity>
-6.40094

$$$$
