4B2L_TR7_A_1351


 19 20  0  0  0  0  0  0  0  0999 V2000
   21.3837    7.3251   -2.5072 C   0  0  0  0  0  0  0  0  0  0  0  0
   22.0975    6.2431   -2.8293 C   0  0  0  0  0  0  0  0  0  0  0  0
   20.1313    6.8827   -2.1092 C   0  0  0  0  0  0  0  0  0  0  0  0
   21.3569    5.1355   -2.6603 N   0  0  0  0  0  0  0  0  0  0  0  0
   20.1552    5.5003   -2.2270 C   0  0  0  0  0  0  0  0  0  0  0  0
   18.9864    7.5353   -1.6675 C   0  0  0  0  0  0  0  0  0  0  0  0
   19.0313    4.7599   -1.9026 C   0  0  0  0  0  0  0  0  0  0  0  0
   17.8555    6.7879   -1.3423 C   0  0  0  0  0  0  0  0  0  0  0  0
   17.8955    5.4118   -1.4639 C   0  0  0  0  0  0  0  0  0  0  0  0
   21.6536    4.2120   -2.8286 H   0  0  0  0  0  0  0  0  0  0  0  0
   21.8433    8.7931   -2.5580 C   0  0  0  0  0  0  0  0  0  0  0  0
   23.7082    9.9663   -3.6334 N   0  0  0  0  0  0  0  0  0  0  0  0
   22.5347    9.1102   -3.8813 C   0  0  0  0  0  0  0  0  0  0  0  0
   24.1686   10.1769   -4.5189 H   0  0  0  0  0  0  0  0  0  0  0  0
   24.3604    9.4795   -3.0185 H   0  0  0  0  0  0  0  0  0  0  0  0
   21.5385    9.8300   -4.7975 C   0  0  0  0  0  0  0  0  0  0  0  0
   20.4775    9.2938   -5.1230 O   0  0  0  0  0  0  0  0  0  0  0  0
   21.8364   11.0797   -5.2490 O   0  0  0  0  0  0  0  0  0  0  0  0
   22.0430   11.0675   -6.6619 C   0  0  0  0  0  0  0  0  0  0  0  0
 12 13  1  0  0  0
 13 16  1  0  0  0
 13 11  1  0  0  0
 16 18  1  0  0  0
 16 17  2  0  0  0
 18 19  1  0  0  0
 11  1  1  0  0  0
  1  2  2  0  0  0
  1  3  1  0  0  0
  2  4  1  0  0  0
  3  5  1  0  0  0
  3  6  2  0  0  0
  4  5  1  0  0  0
  5  7  2  0  0  0
  6  8  1  0  0  0
  7  9  1  0  0  0
  8  9  2  0  0  0
 12 14  1  0  0  0
 12 15  1  0  0  0
  4 10  1  0  0  0
M  END
> <minimizedAffinity>
-5.50139

$$$$
4B2L_TR7_A_1351


 19 20  0  0  0  0  0  0  0  0999 V2000
   21.4047    7.1828   -2.6156 C   0  0  0  0  0  0  0  0  0  0  0  0
   22.0690    6.0549   -2.8815 C   0  0  0  0  0  0  0  0  0  0  0  0
   20.1395    6.8172   -2.1819 C   0  0  0  0  0  0  0  0  0  0  0  0
   21.2847    4.9911   -2.6427 N   0  0  0  0  0  0  0  0  0  0  0  0
   20.1042    5.4305   -2.2205 C   0  0  0  0  0  0  0  0  0  0  0  0
   19.0278    7.5418   -1.7682 C   0  0  0  0  0  0  0  0  0  0  0  0
   18.9541    4.7581   -1.8442 C   0  0  0  0  0  0  0  0  0  0  0  0
   17.8704    6.8628   -1.3908 C   0  0  0  0  0  0  0  0  0  0  0  0
   17.8515    5.4815   -1.4336 C   0  0  0  0  0  0  0  0  0  0  0  0
   21.5406    4.0478   -2.7604 H   0  0  0  0  0  0  0  0  0  0  0  0
   21.9247    8.6247   -2.7546 C   0  0  0  0  0  0  0  0  0  0  0  0
   22.8185   10.3136   -4.2906 N   0  0  0  0  0  0  0  0  0  0  0  0
   22.4134    8.9015   -4.1738 C   0  0  0  0  0  0  0  0  0  0  0  0
   23.1446   10.4963   -5.2397 H   0  0  0  0  0  0  0  0  0  0  0  0
   23.5706   10.5074   -3.6294 H   0  0  0  0  0  0  0  0  0  0  0  0
   21.2764    8.5942   -5.1550 C   0  0  0  0  0  0  0  0  0  0  0  0
   20.2037    9.1975   -5.0888 O   0  0  0  0  0  0  0  0  0  0  0  0
   21.4650    7.6437   -6.1117 O   0  0  0  0  0  0  0  0  0  0  0  0
   22.8552    7.3573   -6.2684 C   0  0  0  0  0  0  0  0  0  0  0  0
 12 13  1  0  0  0
 13 16  1  0  0  0
 13 11  1  0  0  0
 16 18  1  0  0  0
 16 17  2  0  0  0
 18 19  1  0  0  0
 11  1  1  0  0  0
  1  2  2  0  0  0
  1  3  1  0  0  0
  2  4  1  0  0  0
  3  5  1  0  0  0
  3  6  2  0  0  0
  4  5  1  0  0  0
  5  7  2  0  0  0
  6  8  1  0  0  0
  7  9  1  0  0  0
  8  9  2  0  0  0
 12 14  1  0  0  0
 12 15  1  0  0  0
  4 10  1  0  0  0
M  END
> <minimizedAffinity>
-5.49556

$$$$
4B2L_TR7_A_1351


 19 20  0  0  0  0  0  0  0  0999 V2000
   20.9304    8.1383   -3.0981 C   0  0  0  0  0  0  0  0  0  0  0  0
   20.2543    9.1852   -2.6175 C   0  0  0  0  0  0  0  0  0  0  0  0
   20.2784    6.9963   -2.6585 C   0  0  0  0  0  0  0  0  0  0  0  0
   19.2077    8.7629   -1.8895 N   0  0  0  0  0  0  0  0  0  0  0  0
   19.2047    7.4344   -1.8964 C   0  0  0  0  0  0  0  0  0  0  0  0
   20.5110    5.6378   -2.8377 C   0  0  0  0  0  0  0  0  0  0  0  0
   18.3545    6.5141   -1.3075 C   0  0  0  0  0  0  0  0  0  0  0  0
   19.6544    4.7128   -2.2430 C   0  0  0  0  0  0  0  0  0  0  0  0
   18.5887    5.1650   -1.4879 C   0  0  0  0  0  0  0  0  0  0  0  0
   18.5549    9.3388   -1.4297 H   0  0  0  0  0  0  0  0  0  0  0  0
   22.1939    8.1693   -3.9764 C   0  0  0  0  0  0  0  0  0  0  0  0
   23.0051    7.5354   -6.2014 N   0  0  0  0  0  0  0  0  0  0  0  0
   21.8413    8.0474   -5.4564 C   0  0  0  0  0  0  0  0  0  0  0  0
   22.7673    7.4547   -7.1900 H   0  0  0  0  0  0  0  0  0  0  0  0
   23.2647    6.6183   -5.8382 H   0  0  0  0  0  0  0  0  0  0  0  0
   21.4423    9.4305   -5.9833 C   0  0  0  0  0  0  0  0  0  0  0  0
   20.5907    9.5490   -6.8665 O   0  0  0  0  0  0  0  0  0  0  0  0
   22.0387   10.5370   -5.4597 O   0  0  0  0  0  0  0  0  0  0  0  0
   22.0542   11.5988   -6.4144 C   0  0  0  0  0  0  0  0  0  0  0  0
 12 13  1  0  0  0
 13 16  1  0  0  0
 13 11  1  0  0  0
 16 18  1  0  0  0
 16 17  2  0  0  0
 18 19  1  0  0  0
 11  1  1  0  0  0
  1  2  2  0  0  0
  1  3  1  0  0  0
  2  4  1  0  0  0
  3  5  1  0  0  0
  3  6  2  0  0  0
  4  5  1  0  0  0
  5  7  2  0  0  0
  6  8  1  0  0  0
  7  9  1  0  0  0
  8  9  2  0  0  0
 12 14  1  0  0  0
 12 15  1  0  0  0
  4 10  1  0  0  0
M  END
> <minimizedAffinity>
-5.40676

$$$$
4B2L_TR7_A_1351


 19 20  0  0  0  0  0  0  0  0999 V2000
   21.1420    7.6307   -2.7780 C   0  0  0  0  0  0  0  0  0  0  0  0
   20.6819    8.8650   -2.5569 C   0  0  0  0  0  0  0  0  0  0  0  0
   20.1589    6.7484   -2.3563 C   0  0  0  0  0  0  0  0  0  0  0  0
   19.4564    8.8088   -2.0103 N   0  0  0  0  0  0  0  0  0  0  0  0
   19.1192    7.5310   -1.8746 C   0  0  0  0  0  0  0  0  0  0  0  0
   20.0675    5.3616   -2.3384 C   0  0  0  0  0  0  0  0  0  0  0  0
   17.9784    6.9299   -1.3708 C   0  0  0  0  0  0  0  0  0  0  0  0
   18.9183    4.7584   -1.8297 C   0  0  0  0  0  0  0  0  0  0  0  0
   17.8910    5.5517   -1.3547 C   0  0  0  0  0  0  0  0  0  0  0  0
   18.9031    9.5817   -1.7542 H   0  0  0  0  0  0  0  0  0  0  0  0
   22.5004    7.2381   -3.3857 C   0  0  0  0  0  0  0  0  0  0  0  0
   24.1968    8.7371   -4.3271 N   0  0  0  0  0  0  0  0  0  0  0  0
   23.5681    8.2832   -3.0739 C   0  0  0  0  0  0  0  0  0  0  0  0
   24.9098    9.4353   -4.1163 H   0  0  0  0  0  0  0  0  0  0  0  0
   23.4874    9.1480   -4.9339 H   0  0  0  0  0  0  0  0  0  0  0  0
   24.6191    7.6539   -2.1522 C   0  0  0  0  0  0  0  0  0  0  0  0
   25.5844    8.3089   -1.7542 O   0  0  0  0  0  0  0  0  0  0  0  0
   24.4735    6.3551   -1.7700 O   0  0  0  0  0  0  0  0  0  0  0  0
   24.6845    6.2182   -0.3644 C   0  0  0  0  0  0  0  0  0  0  0  0
 12 13  1  0  0  0
 13 16  1  0  0  0
 13 11  1  0  0  0
 16 18  1  0  0  0
 16 17  2  0  0  0
 18 19  1  0  0  0
 11  1  1  0  0  0
  1  2  2  0  0  0
  1  3  1  0  0  0
  2  4  1  0  0  0
  3  5  1  0  0  0
  3  6  2  0  0  0
  4  5  1  0  0  0
  5  7  2  0  0  0
  6  8  1  0  0  0
  7  9  1  0  0  0
  8  9  2  0  0  0
 12 14  1  0  0  0
 12 15  1  0  0  0
  4 10  1  0  0  0
M  END
> <minimizedAffinity>
-4.89623

$$$$
4B2L_TR7_A_1351


 19 20  0  0  0  0  0  0  0  0999 V2000
   21.1179    7.4609   -2.6754 C   0  0  0  0  0  0  0  0  0  0  0  0
   20.7678    8.7478   -2.6020 C   0  0  0  0  0  0  0  0  0  0  0  0
   20.0303    6.7180   -2.2421 C   0  0  0  0  0  0  0  0  0  0  0  0
   19.5123    8.8579   -2.1378 N   0  0  0  0  0  0  0  0  0  0  0  0
   19.0449    7.6359   -1.9075 C   0  0  0  0  0  0  0  0  0  0  0  0
   19.8034    5.3539   -2.1018 C   0  0  0  0  0  0  0  0  0  0  0  0
   17.8230    7.1941   -1.4295 C   0  0  0  0  0  0  0  0  0  0  0  0
   18.5728    4.9113   -1.6193 C   0  0  0  0  0  0  0  0  0  0  0  0
   17.6011    5.8379   -1.2915 C   0  0  0  0  0  0  0  0  0  0  0  0
   19.0225    9.6996   -1.9931 H   0  0  0  0  0  0  0  0  0  0  0  0
   22.4654    6.8880   -3.1495 C   0  0  0  0  0  0  0  0  0  0  0  0
   23.2156    4.5552   -3.2271 N   0  0  0  0  0  0  0  0  0  0  0  0
   22.2828    5.5295   -3.8208 C   0  0  0  0  0  0  0  0  0  0  0  0
   23.0919    3.6483   -3.6772 H   0  0  0  0  0  0  0  0  0  0  0  0
   23.0262    4.4680   -2.2287 H   0  0  0  0  0  0  0  0  0  0  0  0
   22.5590    5.6802   -5.3211 C   0  0  0  0  0  0  0  0  0  0  0  0
   22.4392    4.7208   -6.0855 O   0  0  0  0  0  0  0  0  0  0  0  0
   22.9369    6.8949   -5.8070 O   0  0  0  0  0  0  0  0  0  0  0  0
   22.1338    7.2587   -6.9303 C   0  0  0  0  0  0  0  0  0  0  0  0
 12 13  1  0  0  0
 13 16  1  0  0  0
 13 11  1  0  0  0
 16 18  1  0  0  0
 16 17  2  0  0  0
 18 19  1  0  0  0
 11  1  1  0  0  0
  1  2  2  0  0  0
  1  3  1  0  0  0
  2  4  1  0  0  0
  3  5  1  0  0  0
  3  6  2  0  0  0
  4  5  1  0  0  0
  5  7  2  0  0  0
  6  8  1  0  0  0
  7  9  1  0  0  0
  8  9  2  0  0  0
 12 14  1  0  0  0
 12 15  1  0  0  0
  4 10  1  0  0  0
M  END
> <minimizedAffinity>
-4.85350

$$$$
4B2L_TR7_A_1351


 19 20  0  0  0  0  0  0  0  0999 V2000
   22.0240    6.6228   -3.1146 C   0  0  0  0  0  0  0  0  0  0  0  0
   22.4637    5.5108   -2.5195 C   0  0  0  0  0  0  0  0  0  0  0  0
   22.1604    6.4339   -4.4815 C   0  0  0  0  0  0  0  0  0  0  0  0
   22.8779    4.6273   -3.4423 N   0  0  0  0  0  0  0  0  0  0  0  0
   22.7072    5.1688   -4.6434 C   0  0  0  0  0  0  0  0  0  0  0  0
   21.8730    7.2269   -5.5862 C   0  0  0  0  0  0  0  0  0  0  0  0
   22.9701    4.6875   -5.9145 C   0  0  0  0  0  0  0  0  0  0  0  0
   22.1396    6.7408   -6.8652 C   0  0  0  0  0  0  0  0  0  0  0  0
   22.6831    5.4783   -7.0098 C   0  0  0  0  0  0  0  0  0  0  0  0
   23.2449    3.7321   -3.2601 H   0  0  0  0  0  0  0  0  0  0  0  0
   21.4657    7.8851   -2.4337 C   0  0  0  0  0  0  0  0  0  0  0  0
   19.5827    9.4499   -2.5613 N   0  0  0  0  0  0  0  0  0  0  0  0
   19.9678    8.0330   -2.6867 C   0  0  0  0  0  0  0  0  0  0  0  0
   18.5815    9.5463   -2.7308 H   0  0  0  0  0  0  0  0  0  0  0  0
   20.0981   10.0041   -3.2451 H   0  0  0  0  0  0  0  0  0  0  0  0
   19.2087    7.1853   -1.6595 C   0  0  0  0  0  0  0  0  0  0  0  0
   18.6994    7.7042   -0.6641 O   0  0  0  0  0  0  0  0  0  0  0  0
   19.0970    5.8431   -1.8600 O   0  0  0  0  0  0  0  0  0  0  0  0
   17.8772    5.3517   -1.3037 C   0  0  0  0  0  0  0  0  0  0  0  0
 12 13  1  0  0  0
 13 16  1  0  0  0
 13 11  1  0  0  0
 16 18  1  0  0  0
 16 17  2  0  0  0
 18 19  1  0  0  0
 11  1  1  0  0  0
  1  2  2  0  0  0
  1  3  1  0  0  0
  2  4  1  0  0  0
  3  5  1  0  0  0
  3  6  2  0  0  0
  4  5  1  0  0  0
  5  7  2  0  0  0
  6  8  1  0  0  0
  7  9  1  0  0  0
  8  9  2  0  0  0
 12 14  1  0  0  0
 12 15  1  0  0  0
  4 10  1  0  0  0
M  END
> <minimizedAffinity>
-4.51149

$$$$
4B2L_TR7_A_1351


 19 20  0  0  0  0  0  0  0  0999 V2000
   21.2250    8.5272   -6.0347 C   0  0  0  0  0  0  0  0  0  0  0  0
   21.7622    7.3696   -6.4288 C   0  0  0  0  0  0  0  0  0  0  0  0
   20.8778    8.3812   -4.7003 C   0  0  0  0  0  0  0  0  0  0  0  0
   21.7677    6.4939   -5.4105 N   0  0  0  0  0  0  0  0  0  0  0  0
   21.2301    7.0857   -4.3495 C   0  0  0  0  0  0  0  0  0  0  0  0
   20.2933    9.2320   -3.7694 C   0  0  0  0  0  0  0  0  0  0  0  0
   20.9999    6.6319   -3.0620 C   0  0  0  0  0  0  0  0  0  0  0  0
   20.0613    8.7726   -2.4739 C   0  0  0  0  0  0  0  0  0  0  0  0
   20.4191    7.4801   -2.1397 C   0  0  0  0  0  0  0  0  0  0  0  0
   22.1110    5.5718   -5.4444 H   0  0  0  0  0  0  0  0  0  0  0  0
   21.0219    9.7959   -6.8820 C   0  0  0  0  0  0  0  0  0  0  0  0
   21.6047   12.0649   -6.1590 N   0  0  0  0  0  0  0  0  0  0  0  0
   22.1554   10.7942   -6.6628 C   0  0  0  0  0  0  0  0  0  0  0  0
   22.3638   12.7304   -6.0133 H   0  0  0  0  0  0  0  0  0  0  0  0
   21.1228   11.9000   -5.2753 H   0  0  0  0  0  0  0  0  0  0  0  0
   22.8763   11.0217   -7.9964 C   0  0  0  0  0  0  0  0  0  0  0  0
   23.5278   12.0488   -8.1958 O   0  0  0  0  0  0  0  0  0  0  0  0
   22.7938   10.0689   -8.9658 O   0  0  0  0  0  0  0  0  0  0  0  0
   24.0356    9.3761   -9.0965 C   0  0  0  0  0  0  0  0  0  0  0  0
 12 13  1  0  0  0
 13 16  1  0  0  0
 13 11  1  0  0  0
 16 18  1  0  0  0
 16 17  2  0  0  0
 18 19  1  0  0  0
 11  1  1  0  0  0
  1  2  2  0  0  0
  1  3  1  0  0  0
  2  4  1  0  0  0
  3  5  1  0  0  0
  3  6  2  0  0  0
  4  5  1  0  0  0
  5  7  2  0  0  0
  6  8  1  0  0  0
  7  9  1  0  0  0
  8  9  2  0  0  0
 12 14  1  0  0  0
 12 15  1  0  0  0
  4 10  1  0  0  0
M  END
> <minimizedAffinity>
-4.47584

$$$$
4B2L_TR7_A_1351


 19 20  0  0  0  0  0  0  0  0999 V2000
   21.6510    5.8301   -3.2174 C   0  0  0  0  0  0  0  0  0  0  0  0
   22.0338    7.1013   -3.3643 C   0  0  0  0  0  0  0  0  0  0  0  0
   20.4289    5.8463   -2.5625 C   0  0  0  0  0  0  0  0  0  0  0  0
   21.1163    7.9235   -2.8295 N   0  0  0  0  0  0  0  0  0  0  0  0
   20.1328    7.1821   -2.3315 C   0  0  0  0  0  0  0  0  0  0  0  0
   19.5585    4.8463   -2.1448 C   0  0  0  0  0  0  0  0  0  0  0  0
   18.9610    7.5271   -1.6799 C   0  0  0  0  0  0  0  0  0  0  0  0
   18.3798    5.1959   -1.4879 C   0  0  0  0  0  0  0  0  0  0  0  0
   18.0986    6.5308   -1.2664 C   0  0  0  0  0  0  0  0  0  0  0  0
   21.1643    8.9066   -2.8098 H   0  0  0  0  0  0  0  0  0  0  0  0
   22.4052    4.5709   -3.6804 C   0  0  0  0  0  0  0  0  0  0  0  0
   24.0150    4.2958   -5.5090 N   0  0  0  0  0  0  0  0  0  0  0  0
   23.8008    4.9191   -4.1909 C   0  0  0  0  0  0  0  0  0  0  0  0
   24.9481    4.5298   -5.8481 H   0  0  0  0  0  0  0  0  0  0  0  0
   23.3171    4.6432   -6.1668 H   0  0  0  0  0  0  0  0  0  0  0  0
   24.8362    4.4013   -3.1861 C   0  0  0  0  0  0  0  0  0  0  0  0
   25.3101    3.2686   -3.2936 O   0  0  0  0  0  0  0  0  0  0  0  0
   25.2349    5.2122   -2.1674 O   0  0  0  0  0  0  0  0  0  0  0  0
   25.6620    6.4784   -2.6707 C   0  0  0  0  0  0  0  0  0  0  0  0
 12 13  1  0  0  0
 13 16  1  0  0  0
 13 11  1  0  0  0
 16 18  1  0  0  0
 16 17  2  0  0  0
 18 19  1  0  0  0
 11  1  1  0  0  0
  1  2  2  0  0  0
  1  3  1  0  0  0
  2  4  1  0  0  0
  3  5  1  0  0  0
  3  6  2  0  0  0
  4  5  1  0  0  0
  5  7  2  0  0  0
  6  8  1  0  0  0
  7  9  1  0  0  0
  8  9  2  0  0  0
 12 14  1  0  0  0
 12 15  1  0  0  0
  4 10  1  0  0  0
M  END
> <minimizedAffinity>
-4.45719

$$$$
4B2L_TR7_A_1351


 19 20  0  0  0  0  0  0  0  0999 V2000
   21.0608    9.2077   -4.9431 C   0  0  0  0  0  0  0  0  0  0  0  0
   20.9013    8.1220   -5.7045 C   0  0  0  0  0  0  0  0  0  0  0  0
   21.7125   10.1555   -5.7173 C   0  0  0  0  0  0  0  0  0  0  0  0
   21.4251    8.3329   -6.9231 N   0  0  0  0  0  0  0  0  0  0  0  0
   21.9286    9.5619   -6.9528 C   0  0  0  0  0  0  0  0  0  0  0  0
   22.1387   11.4557   -5.4731 C   0  0  0  0  0  0  0  0  0  0  0  0
   22.5736   10.2669   -7.9545 C   0  0  0  0  0  0  0  0  0  0  0  0
   22.7890   12.1634   -6.4828 C   0  0  0  0  0  0  0  0  0  0  0  0
   22.9956   11.5587   -7.7082 C   0  0  0  0  0  0  0  0  0  0  0  0
   21.4344    7.6875   -7.6665 H   0  0  0  0  0  0  0  0  0  0  0  0
   20.6130    9.3949   -3.4825 C   0  0  0  0  0  0  0  0  0  0  0  0
   19.0226    8.5052   -1.8424 N   0  0  0  0  0  0  0  0  0  0  0  0
   19.9226    8.1416   -2.9512 C   0  0  0  0  0  0  0  0  0  0  0  0
   18.5625    7.6663   -1.4889 H   0  0  0  0  0  0  0  0  0  0  0  0
   18.3191    9.1634   -2.1774 H   0  0  0  0  0  0  0  0  0  0  0  0
   20.9931    7.1588   -2.4634 C   0  0  0  0  0  0  0  0  0  0  0  0
   22.0596    7.5653   -1.9979 O   0  0  0  0  0  0  0  0  0  0  0  0
   20.7519    5.8211   -2.5453 O   0  0  0  0  0  0  0  0  0  0  0  0
   21.7934    5.1662   -3.2701 C   0  0  0  0  0  0  0  0  0  0  0  0
 12 13  1  0  0  0
 13 16  1  0  0  0
 13 11  1  0  0  0
 16 18  1  0  0  0
 16 17  2  0  0  0
 18 19  1  0  0  0
 11  1  1  0  0  0
  1  2  2  0  0  0
  1  3  1  0  0  0
  2  4  1  0  0  0
  3  5  1  0  0  0
  3  6  2  0  0  0
  4  5  1  0  0  0
  5  7  2  0  0  0
  6  8  1  0  0  0
  7  9  1  0  0  0
  8  9  2  0  0  0
 12 14  1  0  0  0
 12 15  1  0  0  0
  4 10  1  0  0  0
M  END
> <minimizedAffinity>
-4.30674

$$$$
4B2L_TR7_A_1351


 19 20  0  0  0  0  0  0  0  0999 V2000
   21.7314    6.8097   -3.2211 C   0  0  0  0  0  0  0  0  0  0  0  0
   22.2009    5.5809   -3.4530 C   0  0  0  0  0  0  0  0  0  0  0  0
   20.5205    6.6648   -2.5612 C   0  0  0  0  0  0  0  0  0  0  0  0
   21.3438    4.6629   -2.9770 N   0  0  0  0  0  0  0  0  0  0  0  0
   20.3116    5.2989   -2.4340 C   0  0  0  0  0  0  0  0  0  0  0  0
   19.5889    7.5717   -2.0699 C   0  0  0  0  0  0  0  0  0  0  0  0
   19.1667    4.8303   -1.8126 C   0  0  0  0  0  0  0  0  0  0  0  0
   18.4362    7.0976   -1.4455 C   0  0  0  0  0  0  0  0  0  0  0  0
   18.2433    5.7344   -1.3255 C   0  0  0  0  0  0  0  0  0  0  0  0
   21.4605    3.6864   -3.0227 H   0  0  0  0  0  0  0  0  0  0  0  0
   22.3921    8.1464   -3.6026 C   0  0  0  0  0  0  0  0  0  0  0  0
   24.4891    6.9279   -3.2442 N   0  0  0  0  0  0  0  0  0  0  0  0
   23.8199    8.2291   -3.0696 C   0  0  0  0  0  0  0  0  0  0  0  0
   25.4429    6.9855   -2.8875 H   0  0  0  0  0  0  0  0  0  0  0  0
   24.5107    6.6869   -4.2351 H   0  0  0  0  0  0  0  0  0  0  0  0
   23.7702    8.6036   -1.5839 C   0  0  0  0  0  0  0  0  0  0  0  0
   23.6942    7.7330   -0.7147 O   0  0  0  0  0  0  0  0  0  0  0  0
   23.8157    9.9176   -1.2294 O   0  0  0  0  0  0  0  0  0  0  0  0
   24.7406   10.1178   -0.1601 C   0  0  0  0  0  0  0  0  0  0  0  0
 12 13  1  0  0  0
 13 16  1  0  0  0
 13 11  1  0  0  0
 16 18  1  0  0  0
 16 17  2  0  0  0
 18 19  1  0  0  0
 11  1  1  0  0  0
  1  2  2  0  0  0
  1  3  1  0  0  0
  2  4  1  0  0  0
  3  5  1  0  0  0
  3  6  2  0  0  0
  4  5  1  0  0  0
  5  7  2  0  0  0
  6  8  1  0  0  0
  7  9  1  0  0  0
  8  9  2  0  0  0
 12 14  1  0  0  0
 12 15  1  0  0  0
  4 10  1  0  0  0
M  END
> <minimizedAffinity>
-4.28211

$$$$
