3EBO_57D_A_940


 21 23  0  0  0  0  0  0  0  0999 V2000
   38.2857   35.9214   29.7009 C   0  0  0  0  0  0  0  0  0  0  0  0
   38.8517   36.7018   28.6860 C   0  0  0  0  0  0  0  0  0  0  0  0
   39.0503   36.1504   27.4179 C   0  0  0  0  0  0  0  0  0  0  0  0
   38.6894   34.8147   27.1952 C   0  0  0  0  0  0  0  0  0  0  0  0
   38.9217   34.1732   25.9738 C   0  0  0  0  0  0  0  0  0  0  0  0
   38.5583   32.8384   25.8059 C   0  0  0  0  0  0  0  0  0  0  0  0
   37.9823   32.1302   26.8558 C   0  0  0  0  0  0  0  0  0  0  0  0
   37.7669   32.7491   28.0764 C   0  0  0  0  0  0  0  0  0  0  0  0
   38.1258   34.0860   28.2467 C   0  0  0  0  0  0  0  0  0  0  0  0
   37.9061   34.6304   29.4698 O   0  0  0  0  0  0  0  0  0  0  0  0
   39.5440   36.8335   26.5160 O   0  0  0  0  0  0  0  0  0  0  0  0
   39.4826   34.8241   24.9156 O   0  0  0  0  0  0  0  0  0  0  0  0
   37.6316   30.8288   26.6901 O   0  0  0  0  0  0  0  0  0  0  0  0
   39.7370   35.7221   24.9992 H   0  0  0  0  0  0  0  0  0  0  0  0
   37.7754   30.4061   25.8663 H   0  0  0  0  0  0  0  0  0  0  0  0
   37.2323   35.6784   31.8572 C   0  0  0  0  0  0  0  0  0  0  0  0
   37.0269   36.1157   33.1635 C   0  0  0  0  0  0  0  0  0  0  0  0
   37.6713   37.2625   33.6219 C   0  0  0  0  0  0  0  0  0  0  0  0
   38.5217   37.9733   32.7728 C   0  0  0  0  0  0  0  0  0  0  0  0
   38.7323   37.5346   31.4667 C   0  0  0  0  0  0  0  0  0  0  0  0
   38.0751   36.3935   30.9970 C   0  0  0  0  0  0  0  0  0  0  0  0
  1  2  2  0  0  0
  1 10  1  0  0  0
  1 21  1  0  0  0
  2  3  1  0  0  0
  3  4  1  0  0  0
  3 11  2  0  0  0
  4  5  2  0  0  0
  4  9  1  0  0  0
  5  6  1  0  0  0
  5 12  1  0  0  0
  6  7  2  0  0  0
  7  8  1  0  0  0
  7 13  1  0  0  0
  8  9  2  0  0  0
  9 10  1  0  0  0
 16 17  2  0  0  0
 16 21  1  0  0  0
 17 18  1  0  0  0
 18 19  2  0  0  0
 19 20  1  0  0  0
 20 21  2  0  0  0
 12 14  1  0  0  0
 13 15  1  0  0  0
M  END
> <minimizedAffinity>
-10.67578

$$$$
3EBO_57D_A_940


 21 23  0  0  0  0  0  0  0  0999 V2000
   38.2280   35.9972   29.9829 C   0  0  0  0  0  0  0  0  0  0  0  0
   38.8271   36.8614   29.0590 C   0  0  0  0  0  0  0  0  0  0  0  0
   39.0548   36.4266   27.7510 C   0  0  0  0  0  0  0  0  0  0  0  0
   38.6889   35.1208   27.3972 C   0  0  0  0  0  0  0  0  0  0  0  0
   38.9483   34.5918   26.1283 C   0  0  0  0  0  0  0  0  0  0  0  0
   38.5784   33.2819   25.8291 C   0  0  0  0  0  0  0  0  0  0  0  0
   37.9689   32.4865   26.7942 C   0  0  0  0  0  0  0  0  0  0  0  0
   37.7263   32.9931   28.0606 C   0  0  0  0  0  0  0  0  0  0  0  0
   38.0916   34.3048   28.3623 C   0  0  0  0  0  0  0  0  0  0  0  0
   37.8440   34.7369   29.6244 O   0  0  0  0  0  0  0  0  0  0  0  0
   39.5779   37.1842   26.9288 O   0  0  0  0  0  0  0  0  0  0  0  0
   39.5425   35.3310   25.1492 O   0  0  0  0  0  0  0  0  0  0  0  0
   37.6120   31.2097   26.5005 O   0  0  0  0  0  0  0  0  0  0  0  0
   39.8019   36.2147   25.3216 H   0  0  0  0  0  0  0  0  0  0  0  0
   37.7741   30.8628   25.6452 H   0  0  0  0  0  0  0  0  0  0  0  0
   38.6366   37.4678   31.8507 C   0  0  0  0  0  0  0  0  0  0  0  0
   38.3923   37.8554   33.1661 C   0  0  0  0  0  0  0  0  0  0  0  0
   37.4890   37.1368   33.9459 C   0  0  0  0  0  0  0  0  0  0  0  0
   36.8296   36.0290   33.4102 C   0  0  0  0  0  0  0  0  0  0  0  0
   37.0690   35.6425   32.0926 C   0  0  0  0  0  0  0  0  0  0  0  0
   37.9869   36.3506   31.3111 C   0  0  0  0  0  0  0  0  0  0  0  0
  1  2  2  0  0  0
  1 10  1  0  0  0
  1 21  1  0  0  0
  2  3  1  0  0  0
  3  4  1  0  0  0
  3 11  2  0  0  0
  4  5  2  0  0  0
  4  9  1  0  0  0
  5  6  1  0  0  0
  5 12  1  0  0  0
  6  7  2  0  0  0
  7  8  1  0  0  0
  7 13  1  0  0  0
  8  9  2  0  0  0
  9 10  1  0  0  0
 16 17  2  0  0  0
 16 21  1  0  0  0
 17 18  1  0  0  0
 18 19  2  0  0  0
 19 20  1  0  0  0
 20 21  2  0  0  0
 12 14  1  0  0  0
 13 15  1  0  0  0
M  END
> <minimizedAffinity>
-10.45165

$$$$
3EBO_57D_A_940


 21 23  0  0  0  0  0  0  0  0999 V2000
   37.8962   34.5146   28.7419 C   0  0  0  0  0  0  0  0  0  0  0  0
   37.0302   34.0078   29.7179 C   0  0  0  0  0  0  0  0  0  0  0  0
   36.8768   34.6884   30.9283 C   0  0  0  0  0  0  0  0  0  0  0  0
   37.6107   35.8628   31.1434 C   0  0  0  0  0  0  0  0  0  0  0  0
   37.5628   36.5604   32.3552 C   0  0  0  0  0  0  0  0  0  0  0  0
   38.3231   37.7158   32.5262 C   0  0  0  0  0  0  0  0  0  0  0  0
   39.1487   38.1708   31.5030 C   0  0  0  0  0  0  0  0  0  0  0  0
   39.2201   37.4763   30.3065 C   0  0  0  0  0  0  0  0  0  0  0  0
   38.4577   36.3218   30.1305 C   0  0  0  0  0  0  0  0  0  0  0  0
   38.5844   35.6765   28.9438 O   0  0  0  0  0  0  0  0  0  0  0  0
   36.1112   34.2510   31.7920 O   0  0  0  0  0  0  0  0  0  0  0  0
   36.7695   36.1551   33.3869 O   0  0  0  0  0  0  0  0  0  0  0  0
   39.8903   39.2955   31.6735 O   0  0  0  0  0  0  0  0  0  0  0  0
   36.2472   35.3819   33.3005 H   0  0  0  0  0  0  0  0  0  0  0  0
   39.8452   39.7685   32.4811 H   0  0  0  0  0  0  0  0  0  0  0  0
   38.6563   34.6184   26.4551 C   0  0  0  0  0  0  0  0  0  0  0  0
   38.9109   34.0029   25.2319 C   0  0  0  0  0  0  0  0  0  0  0  0
   38.6409   32.6462   25.0671 C   0  0  0  0  0  0  0  0  0  0  0  0
   38.1152   31.9043   26.1265 C   0  0  0  0  0  0  0  0  0  0  0  0
   37.8643   32.5173   27.3528 C   0  0  0  0  0  0  0  0  0  0  0  0
   38.1182   33.8822   27.5181 C   0  0  0  0  0  0  0  0  0  0  0  0
  1  2  2  0  0  0
  1 10  1  0  0  0
  1 21  1  0  0  0
  2  3  1  0  0  0
  3  4  1  0  0  0
  3 11  2  0  0  0
  4  5  2  0  0  0
  4  9  1  0  0  0
  5  6  1  0  0  0
  5 12  1  0  0  0
  6  7  2  0  0  0
  7  8  1  0  0  0
  7 13  1  0  0  0
  8  9  2  0  0  0
  9 10  1  0  0  0
 16 17  2  0  0  0
 16 21  1  0  0  0
 17 18  1  0  0  0
 18 19  2  0  0  0
 19 20  1  0  0  0
 20 21  2  0  0  0
 12 14  1  0  0  0
 13 15  1  0  0  0
M  END
> <minimizedAffinity>
-9.78739

$$$$
3EBO_57D_A_940


 21 23  0  0  0  0  0  0  0  0999 V2000
   38.5703   35.2219   28.3330 C   0  0  0  0  0  0  0  0  0  0  0  0
   39.3254   36.3816   28.1226 C   0  0  0  0  0  0  0  0  0  0  0  0
   39.4356   37.3305   29.1420 C   0  0  0  0  0  0  0  0  0  0  0  0
   38.7701   37.1035   30.3543 C   0  0  0  0  0  0  0  0  0  0  0  0
   38.7765   38.0389   31.3947 C   0  0  0  0  0  0  0  0  0  0  0  0
   38.0867   37.7736   32.5762 C   0  0  0  0  0  0  0  0  0  0  0  0
   37.3717   36.5889   32.7210 C   0  0  0  0  0  0  0  0  0  0  0  0
   37.3411   35.6649   31.6893 C   0  0  0  0  0  0  0  0  0  0  0  0
   38.0334   35.9254   30.5069 C   0  0  0  0  0  0  0  0  0  0  0  0
   37.9504   34.9904   29.5273 O   0  0  0  0  0  0  0  0  0  0  0  0
   40.1038   38.3534   28.9663 O   0  0  0  0  0  0  0  0  0  0  0  0
   39.4621   39.2133   31.3011 O   0  0  0  0  0  0  0  0  0  0  0  0
   36.6985   36.3344   33.8725 O   0  0  0  0  0  0  0  0  0  0  0  0
   39.9350   39.4186   30.5187 H   0  0  0  0  0  0  0  0  0  0  0  0
   36.7164   36.9565   34.5730 H   0  0  0  0  0  0  0  0  0  0  0  0
   38.6756   34.5451   26.0202 C   0  0  0  0  0  0  0  0  0  0  0  0
   38.5340   33.5732   25.0326 C   0  0  0  0  0  0  0  0  0  0  0  0
   38.1243   32.2870   25.3770 C   0  0  0  0  0  0  0  0  0  0  0  0
   37.8554   31.9725   26.7104 C   0  0  0  0  0  0  0  0  0  0  0  0
   38.0011   32.9424   27.7007 C   0  0  0  0  0  0  0  0  0  0  0  0
   38.3961   34.2390   27.3580 C   0  0  0  0  0  0  0  0  0  0  0  0
  1  2  2  0  0  0
  1 10  1  0  0  0
  1 21  1  0  0  0
  2  3  1  0  0  0
  3  4  1  0  0  0
  3 11  2  0  0  0
  4  5  2  0  0  0
  4  9  1  0  0  0
  5  6  1  0  0  0
  5 12  1  0  0  0
  6  7  2  0  0  0
  7  8  1  0  0  0
  7 13  1  0  0  0
  8  9  2  0  0  0
  9 10  1  0  0  0
 16 17  2  0  0  0
 16 21  1  0  0  0
 17 18  1  0  0  0
 18 19  2  0  0  0
 19 20  1  0  0  0
 20 21  2  0  0  0
 12 14  1  0  0  0
 13 15  1  0  0  0
M  END
> <minimizedAffinity>
-9.55695

$$$$
3EBO_57D_A_940


 21 23  0  0  0  0  0  0  0  0999 V2000
   37.9433   35.5558   30.1034 C   0  0  0  0  0  0  0  0  0  0  0  0
   37.5663   34.2769   29.6773 C   0  0  0  0  0  0  0  0  0  0  0  0
   37.8244   33.8811   28.3626 C   0  0  0  0  0  0  0  0  0  0  0  0
   38.4455   34.7863   27.4915 C   0  0  0  0  0  0  0  0  0  0  0  0
   38.6732   34.4875   26.1438 C   0  0  0  0  0  0  0  0  0  0  0  0
   39.2811   35.4271   25.3134 C   0  0  0  0  0  0  0  0  0  0  0  0
   39.6461   36.6734   25.8125 C   0  0  0  0  0  0  0  0  0  0  0  0
   39.4063   36.9880   27.1402 C   0  0  0  0  0  0  0  0  0  0  0  0
   38.8016   36.0486   27.9751 C   0  0  0  0  0  0  0  0  0  0  0  0
   38.5772   36.4224   29.2599 O   0  0  0  0  0  0  0  0  0  0  0  0
   37.4997   32.7531   27.9804 O   0  0  0  0  0  0  0  0  0  0  0  0
   38.3342   33.2808   25.6081 O   0  0  0  0  0  0  0  0  0  0  0  0
   40.2360   37.5879   25.0003 O   0  0  0  0  0  0  0  0  0  0  0  0
   37.9241   32.6295   26.1425 H   0  0  0  0  0  0  0  0  0  0  0  0
   40.4002   37.3795   24.1016 H   0  0  0  0  0  0  0  0  0  0  0  0
   36.8288   35.3249   32.2301 C   0  0  0  0  0  0  0  0  0  0  0  0
   36.5919   35.7654   33.5300 C   0  0  0  0  0  0  0  0  0  0  0  0
   37.2344   36.9065   34.0051 C   0  0  0  0  0  0  0  0  0  0  0  0
   38.1145   37.6083   33.1792 C   0  0  0  0  0  0  0  0  0  0  0  0
   38.3566   37.1664   31.8797 C   0  0  0  0  0  0  0  0  0  0  0  0
   37.7017   36.0311   31.3929 C   0  0  0  0  0  0  0  0  0  0  0  0
  1  2  2  0  0  0
  1 10  1  0  0  0
  1 21  1  0  0  0
  2  3  1  0  0  0
  3  4  1  0  0  0
  3 11  2  0  0  0
  4  5  2  0  0  0
  4  9  1  0  0  0
  5  6  1  0  0  0
  5 12  1  0  0  0
  6  7  2  0  0  0
  7  8  1  0  0  0
  7 13  1  0  0  0
  8  9  2  0  0  0
  9 10  1  0  0  0
 16 17  2  0  0  0
 16 21  1  0  0  0
 17 18  1  0  0  0
 18 19  2  0  0  0
 19 20  1  0  0  0
 20 21  2  0  0  0
 12 14  1  0  0  0
 13 15  1  0  0  0
M  END
> <minimizedAffinity>
-9.53105

$$$$
3EBO_57D_A_940


 21 23  0  0  0  0  0  0  0  0999 V2000
   38.1572   36.0216   30.1754 C   0  0  0  0  0  0  0  0  0  0  0  0
   37.9346   34.8676   29.4149 C   0  0  0  0  0  0  0  0  0  0  0  0
   38.3984   34.8057   28.0986 C   0  0  0  0  0  0  0  0  0  0  0  0
   39.0672   35.9146   27.5626 C   0  0  0  0  0  0  0  0  0  0  0  0
   39.4986   35.9535   26.2323 C   0  0  0  0  0  0  0  0  0  0  0  0
   40.1463   37.0856   25.7412 C   0  0  0  0  0  0  0  0  0  0  0  0
   40.3493   38.1900   26.5625 C   0  0  0  0  0  0  0  0  0  0  0  0
   39.9075   38.1706   27.8754 C   0  0  0  0  0  0  0  0  0  0  0  0
   39.2624   37.0379   28.3713 C   0  0  0  0  0  0  0  0  0  0  0  0
   38.8375   37.0868   29.6588 O   0  0  0  0  0  0  0  0  0  0  0  0
   38.2108   33.7898   27.4230 O   0  0  0  0  0  0  0  0  0  0  0  0
   39.3234   34.8972   25.3887 O   0  0  0  0  0  0  0  0  0  0  0  0
   40.9784   39.2927   26.0804 O   0  0  0  0  0  0  0  0  0  0  0  0
   38.8914   34.1227   25.6913 H   0  0  0  0  0  0  0  0  0  0  0  0
   41.2789   39.3102   25.1931 H   0  0  0  0  0  0  0  0  0  0  0  0
   36.8039   35.2326   32.0096 C   0  0  0  0  0  0  0  0  0  0  0  0
   36.3606   35.3424   33.3255 C   0  0  0  0  0  0  0  0  0  0  0  0
   36.8262   36.3788   34.1315 C   0  0  0  0  0  0  0  0  0  0  0  0
   37.7357   37.3069   33.6211 C   0  0  0  0  0  0  0  0  0  0  0  0
   38.1842   37.1960   32.3060 C   0  0  0  0  0  0  0  0  0  0  0  0
   37.7073   36.1673   31.4882 C   0  0  0  0  0  0  0  0  0  0  0  0
  1  2  2  0  0  0
  1 10  1  0  0  0
  1 21  1  0  0  0
  2  3  1  0  0  0
  3  4  1  0  0  0
  3 11  2  0  0  0
  4  5  2  0  0  0
  4  9  1  0  0  0
  5  6  1  0  0  0
  5 12  1  0  0  0
  6  7  2  0  0  0
  7  8  1  0  0  0
  7 13  1  0  0  0
  8  9  2  0  0  0
  9 10  1  0  0  0
 16 17  2  0  0  0
 16 21  1  0  0  0
 17 18  1  0  0  0
 18 19  2  0  0  0
 19 20  1  0  0  0
 20 21  2  0  0  0
 12 14  1  0  0  0
 13 15  1  0  0  0
M  END
> <minimizedAffinity>
-9.03205

$$$$
3EBO_57D_A_940


 21 23  0  0  0  0  0  0  0  0999 V2000
   38.3466   35.9116   29.6772 C   0  0  0  0  0  0  0  0  0  0  0  0
   37.5894   34.8276   30.1367 C   0  0  0  0  0  0  0  0  0  0  0  0
   37.4202   33.7061   29.3211 C   0  0  0  0  0  0  0  0  0  0  0  0
   38.0045   33.6997   28.0473 C   0  0  0  0  0  0  0  0  0  0  0  0
   37.8213   32.6435   27.1483 C   0  0  0  0  0  0  0  0  0  0  0  0
   38.4110   32.6904   25.8865 C   0  0  0  0  0  0  0  0  0  0  0  0
   39.1670   33.7944   25.5054 C   0  0  0  0  0  0  0  0  0  0  0  0
   39.3376   34.8555   26.3796 C   0  0  0  0  0  0  0  0  0  0  0  0
   38.7520   34.8102   27.6446 C   0  0  0  0  0  0  0  0  0  0  0  0
   38.9405   35.8871   28.4481 O   0  0  0  0  0  0  0  0  0  0  0  0
   36.7583   32.7439   29.7208 O   0  0  0  0  0  0  0  0  0  0  0  0
   37.0901   31.5405   27.4749 O   0  0  0  0  0  0  0  0  0  0  0  0
   39.7383   33.8384   24.2742 O   0  0  0  0  0  0  0  0  0  0  0  0
   36.6820   31.4812   28.3163 H   0  0  0  0  0  0  0  0  0  0  0  0
   39.6255   33.1231   23.6796 H   0  0  0  0  0  0  0  0  0  0  0  0
   38.1750   37.0903   31.7748 C   0  0  0  0  0  0  0  0  0  0  0  0
   38.3857   38.2303   32.5468 C   0  0  0  0  0  0  0  0  0  0  0  0
   38.9767   39.3558   31.9773 C   0  0  0  0  0  0  0  0  0  0  0  0
   39.3571   39.3418   30.6341 C   0  0  0  0  0  0  0  0  0  0  0  0
   39.1515   38.2003   29.8611 C   0  0  0  0  0  0  0  0  0  0  0  0
   38.5437   37.0740   30.4237 C   0  0  0  0  0  0  0  0  0  0  0  0
  1  2  2  0  0  0
  1 10  1  0  0  0
  1 21  1  0  0  0
  2  3  1  0  0  0
  3  4  1  0  0  0
  3 11  2  0  0  0
  4  5  2  0  0  0
  4  9  1  0  0  0
  5  6  1  0  0  0
  5 12  1  0  0  0
  6  7  2  0  0  0
  7  8  1  0  0  0
  7 13  1  0  0  0
  8  9  2  0  0  0
  9 10  1  0  0  0
 16 17  2  0  0  0
 16 21  1  0  0  0
 17 18  1  0  0  0
 18 19  2  0  0  0
 19 20  1  0  0  0
 20 21  2  0  0  0
 12 14  1  0  0  0
 13 15  1  0  0  0
M  END
> <minimizedAffinity>
-8.59167

$$$$
3EBO_57D_A_940


 21 23  0  0  0  0  0  0  0  0999 V2000
   38.4600   35.4843   28.7303 C   0  0  0  0  0  0  0  0  0  0  0  0
   37.8939   35.0915   29.9488 C   0  0  0  0  0  0  0  0  0  0  0  0
   37.8785   35.9828   31.0244 C   0  0  0  0  0  0  0  0  0  0  0  0
   38.4480   37.2528   30.8607 C   0  0  0  0  0  0  0  0  0  0  0  0
   38.5323   38.1731   31.9111 C   0  0  0  0  0  0  0  0  0  0  0  0
   39.1215   39.4187   31.7024 C   0  0  0  0  0  0  0  0  0  0  0  0
   39.6473   39.7468   30.4568 C   0  0  0  0  0  0  0  0  0  0  0  0
   39.5883   38.8353   29.4152 C   0  0  0  0  0  0  0  0  0  0  0  0
   38.9959   37.5894   29.6194 C   0  0  0  0  0  0  0  0  0  0  0  0
   38.9846   36.7341   28.5663 O   0  0  0  0  0  0  0  0  0  0  0  0
   37.3765   35.6460   32.1006 O   0  0  0  0  0  0  0  0  0  0  0  0
   38.0317   37.8987   33.1488 O   0  0  0  0  0  0  0  0  0  0  0  0
   40.2232   40.9603   30.2573 O   0  0  0  0  0  0  0  0  0  0  0  0
   37.6298   37.0694   33.3184 H   0  0  0  0  0  0  0  0  0  0  0  0
   40.2654   41.5800   30.9589 H   0  0  0  0  0  0  0  0  0  0  0  0
   37.8014   33.4498   27.6143 C   0  0  0  0  0  0  0  0  0  0  0  0
   37.8366   32.6083   26.5050 C   0  0  0  0  0  0  0  0  0  0  0  0
   38.5915   32.9612   25.3886 C   0  0  0  0  0  0  0  0  0  0  0  0
   39.3124   34.1567   25.3817 C   0  0  0  0  0  0  0  0  0  0  0  0
   39.2746   35.0025   26.4889 C   0  0  0  0  0  0  0  0  0  0  0  0
   38.5317   34.6449   27.6179 C   0  0  0  0  0  0  0  0  0  0  0  0
  1  2  2  0  0  0
  1 10  1  0  0  0
  1 21  1  0  0  0
  2  3  1  0  0  0
  3  4  1  0  0  0
  3 11  2  0  0  0
  4  5  2  0  0  0
  4  9  1  0  0  0
  5  6  1  0  0  0
  5 12  1  0  0  0
  6  7  2  0  0  0
  7  8  1  0  0  0
  7 13  1  0  0  0
  8  9  2  0  0  0
  9 10  1  0  0  0
 16 17  2  0  0  0
 16 21  1  0  0  0
 17 18  1  0  0  0
 18 19  2  0  0  0
 19 20  1  0  0  0
 20 21  2  0  0  0
 12 14  1  0  0  0
 13 15  1  0  0  0
M  END
> <minimizedAffinity>
-8.32052

$$$$
3EBO_57D_A_940


 21 23  0  0  0  0  0  0  0  0999 V2000
   39.0447   37.0218   29.4263 C   0  0  0  0  0  0  0  0  0  0  0  0
   39.5501   36.1381   28.4656 C   0  0  0  0  0  0  0  0  0  0  0  0
   40.2221   36.6402   27.3485 C   0  0  0  0  0  0  0  0  0  0  0  0
   40.3618   38.0276   27.2083 C   0  0  0  0  0  0  0  0  0  0  0  0
   40.9602   38.6068   26.0841 C   0  0  0  0  0  0  0  0  0  0  0  0
   41.0623   39.9931   25.9838 C   0  0  0  0  0  0  0  0  0  0  0  0
   40.5526   40.8092   26.9887 C   0  0  0  0  0  0  0  0  0  0  0  0
   39.9391   40.2472   28.0964 C   0  0  0  0  0  0  0  0  0  0  0  0
   39.8387   38.8601   28.2019 C   0  0  0  0  0  0  0  0  0  0  0  0
   39.2116   38.3711   29.3012 O   0  0  0  0  0  0  0  0  0  0  0  0
   40.6754   35.8674   26.4993 O   0  0  0  0  0  0  0  0  0  0  0  0
   41.4748   37.8502   25.0738 O   0  0  0  0  0  0  0  0  0  0  0  0
   40.6513   42.1597   26.8869 O   0  0  0  0  0  0  0  0  0  0  0  0
   41.4206   36.9156   25.1140 H   0  0  0  0  0  0  0  0  0  0  0  0
   41.0654   42.5442   26.1395 H   0  0  0  0  0  0  0  0  0  0  0  0
   38.3862   37.3797   31.7190 C   0  0  0  0  0  0  0  0  0  0  0  0
   37.6751   36.9915   32.8520 C   0  0  0  0  0  0  0  0  0  0  0  0
   36.9094   35.8280   32.8271 C   0  0  0  0  0  0  0  0  0  0  0  0
   36.8551   35.0515   31.6682 C   0  0  0  0  0  0  0  0  0  0  0  0
   37.5621   35.4408   30.5318 C   0  0  0  0  0  0  0  0  0  0  0  0
   38.3450   36.5988   30.5571 C   0  0  0  0  0  0  0  0  0  0  0  0
  1  2  2  0  0  0
  1 10  1  0  0  0
  1 21  1  0  0  0
  2  3  1  0  0  0
  3  4  1  0  0  0
  3 11  2  0  0  0
  4  5  2  0  0  0
  4  9  1  0  0  0
  5  6  1  0  0  0
  5 12  1  0  0  0
  6  7  2  0  0  0
  7  8  1  0  0  0
  7 13  1  0  0  0
  8  9  2  0  0  0
  9 10  1  0  0  0
 16 17  2  0  0  0
 16 21  1  0  0  0
 17 18  1  0  0  0
 18 19  2  0  0  0
 19 20  1  0  0  0
 20 21  2  0  0  0
 12 14  1  0  0  0
 13 15  1  0  0  0
M  END
> <minimizedAffinity>
-8.28649

$$$$
3EBO_57D_A_940


 21 23  0  0  0  0  0  0  0  0999 V2000
   38.7254   37.8649   31.1621 C   0  0  0  0  0  0  0  0  0  0  0  0
   37.8726   36.9171   31.7398 C   0  0  0  0  0  0  0  0  0  0  0  0
   37.5840   35.7355   31.0526 C   0  0  0  0  0  0  0  0  0  0  0  0
   38.1475   35.5331   29.7855 C   0  0  0  0  0  0  0  0  0  0  0  0
   37.8501   34.4085   29.0083 C   0  0  0  0  0  0  0  0  0  0  0  0
   38.4244   34.2596   27.7473 C   0  0  0  0  0  0  0  0  0  0  0  0
   39.2791   35.2359   27.2453 C   0  0  0  0  0  0  0  0  0  0  0  0
   39.5640   36.3639   27.9974 C   0  0  0  0  0  0  0  0  0  0  0  0
   38.9940   36.5143   29.2614 C   0  0  0  0  0  0  0  0  0  0  0  0
   39.2974   37.6485   29.9414 O   0  0  0  0  0  0  0  0  0  0  0  0
   36.8370   34.8922   31.5573 O   0  0  0  0  0  0  0  0  0  0  0  0
   37.0195   33.4247   29.4560 O   0  0  0  0  0  0  0  0  0  0  0  0
   39.8351   35.0892   26.0151 O   0  0  0  0  0  0  0  0  0  0  0  0
   36.6190   33.4978   30.2999 H   0  0  0  0  0  0  0  0  0  0  0  0
   39.6453   34.3280   25.5029 H   0  0  0  0  0  0  0  0  0  0  0  0
   39.8763   39.0744   32.9031 C   0  0  0  0  0  0  0  0  0  0  0  0
   40.2300   40.2732   33.5176 C   0  0  0  0  0  0  0  0  0  0  0  0
   39.7655   41.4815   33.0030 C   0  0  0  0  0  0  0  0  0  0  0  0
   38.9457   41.4910   31.8729 C   0  0  0  0  0  0  0  0  0  0  0  0
   38.5945   40.2927   31.2537 C   0  0  0  0  0  0  0  0  0  0  0  0
   39.0448   39.0766   31.7761 C   0  0  0  0  0  0  0  0  0  0  0  0
  1  2  2  0  0  0
  1 10  1  0  0  0
  1 21  1  0  0  0
  2  3  1  0  0  0
  3  4  1  0  0  0
  3 11  2  0  0  0
  4  5  2  0  0  0
  4  9  1  0  0  0
  5  6  1  0  0  0
  5 12  1  0  0  0
  6  7  2  0  0  0
  7  8  1  0  0  0
  7 13  1  0  0  0
  8  9  2  0  0  0
  9 10  1  0  0  0
 16 17  2  0  0  0
 16 21  1  0  0  0
 17 18  1  0  0  0
 18 19  2  0  0  0
 19 20  1  0  0  0
 20 21  2  0  0  0
 12 14  1  0  0  0
 13 15  1  0  0  0
M  END
> <minimizedAffinity>
-7.82479

$$$$
