4CWS_G3R_A_1224


 32 36  0  0  0  0  0  0  0  0999 V2000
    2.0907    8.2984   28.6463 C   0  0  0  0  0  0  0  0  0  0  0  0
    0.6995    8.4835   28.6651 C   0  0  0  0  0  0  0  0  0  0  0  0
    0.0448    9.2492   27.6842 C   0  0  0  0  0  0  0  0  0  0  0  0
    2.8484    8.8518   27.6055 C   0  0  0  0  0  0  0  0  0  0  0  0
    2.2017    9.5941   26.6071 C   0  0  0  0  0  0  0  0  0  0  0  0
    0.7999    9.8063   26.6541 C   0  0  0  0  0  0  0  0  0  0  0  0
    2.9372   10.1115   25.5824 N   0  0  0  0  0  0  0  0  0  0  0  0
    2.3523   10.8387   24.6184 C   0  0  0  0  0  0  0  0  0  0  0  0
    1.0227   11.0528   24.6519 N   0  0  0  0  0  0  0  0  0  0  0  0
    0.3152   11.7892   23.7097 N   0  0  0  0  0  0  0  0  0  0  0  0
    0.2649   10.5516   25.6156 C   0  0  0  0  0  0  0  0  0  0  0  0
   -1.0013   10.9192   25.3701 N   0  0  0  0  0  0  0  0  0  0  0  0
   -0.9087   11.6306   24.2175 C   0  0  0  0  0  0  0  0  0  0  0  0
   -1.9968   12.2091   23.6083 N   0  0  0  0  0  0  0  0  0  0  0  0
   -1.8811   12.7163   22.7725 H   0  0  0  0  0  0  0  0  0  0  0  0
   -2.8918   12.1161   24.0078 H   0  0  0  0  0  0  0  0  0  0  0  0
    2.7165    7.5675   29.6252 N   0  0  0  0  0  0  0  0  0  0  0  0
    3.6046    7.1779   29.4554 H   0  0  0  0  0  0  0  0  0  0  0  0
    2.0666    7.3663   30.9203 C   0  0  0  0  0  0  0  0  0  0  0  0
    3.2286    6.9586   32.9592 O   0  0  0  0  0  0  0  0  0  0  0  0
    2.7486    6.3114   31.7810 C   0  0  0  0  0  0  0  0  0  0  0  0
    3.6694    6.3085   33.5284 H   0  0  0  0  0  0  0  0  0  0  0  0
    3.2439   11.3977   23.5361 C   0  0  0  0  0  0  0  0  0  0  0  0
    4.0287   12.6042   24.0298 C   0  0  0  0  0  0  0  0  0  0  0  0
    5.4123   12.5659   24.0151 C   0  0  0  0  0  0  0  0  0  0  0  0
    6.0844   13.6738   24.4976 C   0  0  0  0  0  0  0  0  0  0  0  0
    7.4318   13.8739   24.5868 O   0  0  0  0  0  0  0  0  0  0  0  0
    7.6800   15.1977   25.0476 C   0  0  0  0  0  0  0  0  0  0  0  0
    6.3609   15.6699   25.3735 O   0  0  0  0  0  0  0  0  0  0  0  0
    5.4319   14.7565   24.9732 C   0  0  0  0  0  0  0  0  0  0  0  0
    4.0322   14.8486   25.0029 C   0  0  0  0  0  0  0  0  0  0  0  0
    3.3543   13.7357   24.5142 C   0  0  0  0  0  0  0  0  0  0  0  0
 20 21  1  0  0  0
 21 19  1  0  0  0
 19 17  1  0  0  0
 17  1  1  0  0  0
  1  2  1  0  0  0
  1  4  2  0  0  0
  2  3  2  0  0  0
  3  6  1  0  0  0
  4  5  1  0  0  0
  5  6  2  0  0  0
  5  7  1  0  0  0
  6 11  1  0  0  0
  7  8  2  0  0  0
  8  9  1  0  0  0
  8 23  1  0  0  0
  9 10  1  0  0  0
  9 11  1  0  0  0
 10 13  2  0  0  0
 11 12  2  0  0  0
 12 13  1  0  0  0
 13 14  1  0  0  0
 23 24  1  0  0  0
 24 25  1  0  0  0
 24 32  2  0  0  0
 25 26  2  0  0  0
 26 27  1  0  0  0
 26 30  1  0  0  0
 27 28  1  0  0  0
 28 29  1  0  0  0
 29 30  1  0  0  0
 30 31  2  0  0  0
 31 32  1  0  0  0
 20 22  1  0  0  0
 17 18  1  0  0  0
 14 15  1  0  0  0
 14 16  1  0  0  0
M  END
> <minimizedAffinity>
-10.44514

$$$$
4CWS_G3R_A_1224


 32 36  0  0  0  0  0  0  0  0999 V2000
    0.9994   13.2116   24.1048 C   0  0  0  0  0  0  0  0  0  0  0  0
    1.4535   14.4805   24.4968 C   0  0  0  0  0  0  0  0  0  0  0  0
    2.8219   14.7505   24.6751 C   0  0  0  0  0  0  0  0  0  0  0  0
    1.9274   12.1950   23.8423 C   0  0  0  0  0  0  0  0  0  0  0  0
    3.2959   12.4618   23.9905 C   0  0  0  0  0  0  0  0  0  0  0  0
    3.7438   13.7367   24.4222 C   0  0  0  0  0  0  0  0  0  0  0  0
    4.1985   11.4788   23.7116 N   0  0  0  0  0  0  0  0  0  0  0  0
    5.5145   11.6960   23.8566 C   0  0  0  0  0  0  0  0  0  0  0  0
    5.9550   12.9001   24.2701 N   0  0  0  0  0  0  0  0  0  0  0  0
    7.2910   13.2338   24.4552 N   0  0  0  0  0  0  0  0  0  0  0  0
    5.1165   13.8915   24.5316 C   0  0  0  0  0  0  0  0  0  0  0  0
    5.8460   14.9541   24.9022 N   0  0  0  0  0  0  0  0  0  0  0  0
    7.1254   14.5080   24.8157 C   0  0  0  0  0  0  0  0  0  0  0  0
    8.2115   15.2927   25.1233 N   0  0  0  0  0  0  0  0  0  0  0  0
    9.1217   14.9256   25.0455 H   0  0  0  0  0  0  0  0  0  0  0  0
    8.0791   16.2216   25.4213 H   0  0  0  0  0  0  0  0  0  0  0  0
   -0.3418   12.9586   23.9584 N   0  0  0  0  0  0  0  0  0  0  0  0
   -0.9379   13.6579   23.6050 H   0  0  0  0  0  0  0  0  0  0  0  0
   -0.8872   11.6519   24.3263 C   0  0  0  0  0  0  0  0  0  0  0  0
   -2.4220   11.5768   26.1462 O   0  0  0  0  0  0  0  0  0  0  0  0
   -1.0351   11.4606   25.8297 C   0  0  0  0  0  0  0  0  0  0  0  0
   -2.5468   11.4589   27.1009 H   0  0  0  0  0  0  0  0  0  0  0  0
    6.4433   10.5453   23.5532 C   0  0  0  0  0  0  0  0  0  0  0  0
    5.7341    9.4491   22.7719 C   0  0  0  0  0  0  0  0  0  0  0  0
    5.4075    8.2645   23.4091 C   0  0  0  0  0  0  0  0  0  0  0  0
    4.7877    7.2858   22.6541 C   0  0  0  0  0  0  0  0  0  0  0  0
    4.3728    6.0471   23.0500 O   0  0  0  0  0  0  0  0  0  0  0  0
    3.6926    5.4133   21.9720 C   0  0  0  0  0  0  0  0  0  0  0  0
    3.9076    6.3282   20.8831 O   0  0  0  0  0  0  0  0  0  0  0  0
    4.5100    7.4606   21.3439 C   0  0  0  0  0  0  0  0  0  0  0  0
    4.8129    8.6439   20.6535 C   0  0  0  0  0  0  0  0  0  0  0  0
    5.4334    9.6313   21.4132 C   0  0  0  0  0  0  0  0  0  0  0  0
 20 21  1  0  0  0
 21 19  1  0  0  0
 19 17  1  0  0  0
 17  1  1  0  0  0
  1  2  1  0  0  0
  1  4  2  0  0  0
  2  3  2  0  0  0
  3  6  1  0  0  0
  4  5  1  0  0  0
  5  6  2  0  0  0
  5  7  1  0  0  0
  6 11  1  0  0  0
  7  8  2  0  0  0
  8  9  1  0  0  0
  8 23  1  0  0  0
  9 10  1  0  0  0
  9 11  1  0  0  0
 10 13  2  0  0  0
 11 12  2  0  0  0
 12 13  1  0  0  0
 13 14  1  0  0  0
 23 24  1  0  0  0
 24 25  1  0  0  0
 24 32  2  0  0  0
 25 26  2  0  0  0
 26 27  1  0  0  0
 26 30  1  0  0  0
 27 28  1  0  0  0
 28 29  1  0  0  0
 29 30  1  0  0  0
 30 31  2  0  0  0
 31 32  1  0  0  0
 20 22  1  0  0  0
 17 18  1  0  0  0
 14 15  1  0  0  0
 14 16  1  0  0  0
M  END
> <minimizedAffinity>
-9.99529

$$$$
4CWS_G3R_A_1224


 32 36  0  0  0  0  0  0  0  0999 V2000
    6.9335   14.8372   24.9579 C   0  0  0  0  0  0  0  0  0  0  0  0
    5.8339   15.6442   25.2891 C   0  0  0  0  0  0  0  0  0  0  0  0
    4.5126   15.2102   25.0816 C   0  0  0  0  0  0  0  0  0  0  0  0
    6.7185   13.5503   24.4465 C   0  0  0  0  0  0  0  0  0  0  0  0
    5.4045   13.0975   24.2616 C   0  0  0  0  0  0  0  0  0  0  0  0
    4.2995   13.9337   24.5650 C   0  0  0  0  0  0  0  0  0  0  0  0
    5.1971   11.8366   23.7865 N   0  0  0  0  0  0  0  0  0  0  0  0
    3.9529   11.3768   23.5842 C   0  0  0  0  0  0  0  0  0  0  0  0
    2.8936   12.1608   23.8634 N   0  0  0  0  0  0  0  0  0  0  0  0
    1.5659   11.7887   23.6917 N   0  0  0  0  0  0  0  0  0  0  0  0
    3.0462   13.3843   24.3471 C   0  0  0  0  0  0  0  0  0  0  0  0
    1.8237   13.9028   24.5350 N   0  0  0  0  0  0  0  0  0  0  0  0
    0.9907   12.9025   24.1494 C   0  0  0  0  0  0  0  0  0  0  0  0
   -0.3787   13.0208   24.1740 N   0  0  0  0  0  0  0  0  0  0  0  0
   -0.9431   12.2678   23.8847 H   0  0  0  0  0  0  0  0  0  0  0  0
   -0.7950   13.8585   24.4811 H   0  0  0  0  0  0  0  0  0  0  0  0
    8.2172   15.2859   25.1450 N   0  0  0  0  0  0  0  0  0  0  0  0
    8.5490   16.0552   24.6280 H   0  0  0  0  0  0  0  0  0  0  0  0
    9.0934   14.6231   26.1112 C   0  0  0  0  0  0  0  0  0  0  0  0
   10.0879   16.3876   27.3647 O   0  0  0  0  0  0  0  0  0  0  0  0
   10.3796   15.3906   26.3858 C   0  0  0  0  0  0  0  0  0  0  0  0
   10.8918   16.8939   27.5600 H   0  0  0  0  0  0  0  0  0  0  0  0
    3.8131    9.9798   23.0297 C   0  0  0  0  0  0  0  0  0  0  0  0
    3.9151    8.9323   24.1285 C   0  0  0  0  0  0  0  0  0  0  0  0
    4.4681    7.6968   23.8391 C   0  0  0  0  0  0  0  0  0  0  0  0
    4.5164    6.7663   24.8607 C   0  0  0  0  0  0  0  0  0  0  0  0
    5.0082    5.4935   24.8238 O   0  0  0  0  0  0  0  0  0  0  0  0
    4.9503    4.9300   26.1298 C   0  0  0  0  0  0  0  0  0  0  0  0
    4.2279    5.9286   26.8714 O   0  0  0  0  0  0  0  0  0  0  0  0
    4.0420    7.0343   26.0966 C   0  0  0  0  0  0  0  0  0  0  0  0
    3.4796    8.2720   26.4435 C   0  0  0  0  0  0  0  0  0  0  0  0
    3.4336    9.2109   25.4171 C   0  0  0  0  0  0  0  0  0  0  0  0
 20 21  1  0  0  0
 21 19  1  0  0  0
 19 17  1  0  0  0
 17  1  1  0  0  0
  1  2  1  0  0  0
  1  4  2  0  0  0
  2  3  2  0  0  0
  3  6  1  0  0  0
  4  5  1  0  0  0
  5  6  2  0  0  0
  5  7  1  0  0  0
  6 11  1  0  0  0
  7  8  2  0  0  0
  8  9  1  0  0  0
  8 23  1  0  0  0
  9 10  1  0  0  0
  9 11  1  0  0  0
 10 13  2  0  0  0
 11 12  2  0  0  0
 12 13  1  0  0  0
 13 14  1  0  0  0
 23 24  1  0  0  0
 24 25  1  0  0  0
 24 32  2  0  0  0
 25 26  2  0  0  0
 26 27  1  0  0  0
 26 30  1  0  0  0
 27 28  1  0  0  0
 28 29  1  0  0  0
 29 30  1  0  0  0
 30 31  2  0  0  0
 31 32  1  0  0  0
 20 22  1  0  0  0
 17 18  1  0  0  0
 14 15  1  0  0  0
 14 16  1  0  0  0
M  END
> <minimizedAffinity>
-9.73675

$$$$
4CWS_G3R_A_1224


 32 36  0  0  0  0  0  0  0  0999 V2000
    3.5257    7.6943   28.0290 C   0  0  0  0  0  0  0  0  0  0  0  0
    4.1436    6.7547   27.1892 C   0  0  0  0  0  0  0  0  0  0  0  0
    4.3437    7.0089   25.8208 C   0  0  0  0  0  0  0  0  0  0  0  0
    3.1329    8.9348   27.5088 C   0  0  0  0  0  0  0  0  0  0  0  0
    3.3529    9.2090   26.1515 C   0  0  0  0  0  0  0  0  0  0  0  0
    3.9452    8.2393   25.3022 C   0  0  0  0  0  0  0  0  0  0  0  0
    2.9920   10.4252   25.6524 N   0  0  0  0  0  0  0  0  0  0  0  0
    3.1751   10.7151   24.3552 C   0  0  0  0  0  0  0  0  0  0  0  0
    3.7322    9.8029   23.5353 N   0  0  0  0  0  0  0  0  0  0  0  0
    3.9667    9.9954   22.1794 N   0  0  0  0  0  0  0  0  0  0  0  0
    4.1184    8.6166   23.9802 C   0  0  0  0  0  0  0  0  0  0  0  0
    4.6429    7.9450   22.9446 N   0  0  0  0  0  0  0  0  0  0  0  0
    4.5441    8.8221   21.9131 C   0  0  0  0  0  0  0  0  0  0  0  0
    4.9660    8.5257   20.6387 N   0  0  0  0  0  0  0  0  0  0  0  0
    4.8742    9.1942   19.9218 H   0  0  0  0  0  0  0  0  0  0  0  0
    5.3599    7.6450   20.4429 H   0  0  0  0  0  0  0  0  0  0  0  0
    3.3168    7.4203   29.3577 N   0  0  0  0  0  0  0  0  0  0  0  0
    3.9800    6.8951   29.8612 H   0  0  0  0  0  0  0  0  0  0  0  0
    2.1105    7.9072   30.0272 C   0  0  0  0  0  0  0  0  0  0  0  0
    1.3946    8.1470   32.2863 O   0  0  0  0  0  0  0  0  0  0  0  0
    1.8022    7.1735   31.3254 C   0  0  0  0  0  0  0  0  0  0  0  0
    1.1910    7.7067   33.1263 H   0  0  0  0  0  0  0  0  0  0  0  0
    2.7219   12.0742   23.8793 C   0  0  0  0  0  0  0  0  0  0  0  0
    3.6988   13.1638   24.2960 C   0  0  0  0  0  0  0  0  0  0  0  0
    5.0594   12.9289   24.1983 C   0  0  0  0  0  0  0  0  0  0  0  0
    5.9104   13.9368   24.6129 C   0  0  0  0  0  0  0  0  0  0  0  0
    7.2754   13.9445   24.6155 O   0  0  0  0  0  0  0  0  0  0  0  0
    7.7366   15.2261   25.0292 C   0  0  0  0  0  0  0  0  0  0  0  0
    6.5206   15.8858   25.4234 O   0  0  0  0  0  0  0  0  0  0  0  0
    5.4486   15.1081   25.1017 C   0  0  0  0  0  0  0  0  0  0  0  0
    4.0806   15.3989   25.2142 C   0  0  0  0  0  0  0  0  0  0  0  0
    3.2229   14.3867   24.7937 C   0  0  0  0  0  0  0  0  0  0  0  0
 20 21  1  0  0  0
 21 19  1  0  0  0
 19 17  1  0  0  0
 17  1  1  0  0  0
  1  2  1  0  0  0
  1  4  2  0  0  0
  2  3  2  0  0  0
  3  6  1  0  0  0
  4  5  1  0  0  0
  5  6  2  0  0  0
  5  7  1  0  0  0
  6 11  1  0  0  0
  7  8  2  0  0  0
  8  9  1  0  0  0
  8 23  1  0  0  0
  9 10  1  0  0  0
  9 11  1  0  0  0
 10 13  2  0  0  0
 11 12  2  0  0  0
 12 13  1  0  0  0
 13 14  1  0  0  0
 23 24  1  0  0  0
 24 25  1  0  0  0
 24 32  2  0  0  0
 25 26  2  0  0  0
 26 27  1  0  0  0
 26 30  1  0  0  0
 27 28  1  0  0  0
 28 29  1  0  0  0
 29 30  1  0  0  0
 30 31  2  0  0  0
 31 32  1  0  0  0
 20 22  1  0  0  0
 17 18  1  0  0  0
 14 15  1  0  0  0
 14 16  1  0  0  0
M  END
> <minimizedAffinity>
-9.70438

$$$$
4CWS_G3R_A_1224


 32 36  0  0  0  0  0  0  0  0999 V2000
    5.5764   14.8897   24.9105 C   0  0  0  0  0  0  0  0  0  0  0  0
    4.4032   15.6416   25.0786 C   0  0  0  0  0  0  0  0  0  0  0  0
    3.1305   15.0706   24.9016 C   0  0  0  0  0  0  0  0  0  0  0  0
    5.4860   13.5263   24.5996 C   0  0  0  0  0  0  0  0  0  0  0  0
    4.2211   12.9407   24.4479 C   0  0  0  0  0  0  0  0  0  0  0  0
    3.0414   13.7168   24.5840 C   0  0  0  0  0  0  0  0  0  0  0  0
    4.1346   11.6091   24.1690 N   0  0  0  0  0  0  0  0  0  0  0  0
    2.9405   11.0200   24.0034 C   0  0  0  0  0  0  0  0  0  0  0  0
    1.8115   11.7448   24.1250 N   0  0  0  0  0  0  0  0  0  0  0  0
    0.5260   11.2396   23.9734 N   0  0  0  0  0  0  0  0  0  0  0  0
    1.8460   13.0363   24.4166 C   0  0  0  0  0  0  0  0  0  0  0  0
    0.5794   13.4718   24.4845 N   0  0  0  0  0  0  0  0  0  0  0  0
   -0.1546   12.3574   24.2344 C   0  0  0  0  0  0  0  0  0  0  0  0
   -1.5289   12.3615   24.1991 N   0  0  0  0  0  0  0  0  0  0  0  0
   -2.0190   11.5281   24.0137 H   0  0  0  0  0  0  0  0  0  0  0  0
   -2.0229   13.1979   24.3592 H   0  0  0  0  0  0  0  0  0  0  0  0
    6.8113   15.4689   25.0641 N   0  0  0  0  0  0  0  0  0  0  0  0
    6.8987   16.4495   25.0541 H   0  0  0  0  0  0  0  0  0  0  0  0
    7.9980   14.6321   25.2425 C   0  0  0  0  0  0  0  0  0  0  0  0
    8.9102   15.4902   27.2686 O   0  0  0  0  0  0  0  0  0  0  0  0
    9.1709   15.3731   25.8702 C   0  0  0  0  0  0  0  0  0  0  0  0
    9.6435   15.9598   27.6960 H   0  0  0  0  0  0  0  0  0  0  0  0
    2.9356    9.5479   23.6693 C   0  0  0  0  0  0  0  0  0  0  0  0
    3.3281    8.7031   24.8723 C   0  0  0  0  0  0  0  0  0  0  0  0
    2.9384    9.1033   26.1388 C   0  0  0  0  0  0  0  0  0  0  0  0
    3.3398    8.3199   27.2052 C   0  0  0  0  0  0  0  0  0  0  0  0
    3.0851    8.5037   28.5336 O   0  0  0  0  0  0  0  0  0  0  0  0
    3.6030    7.3996   29.2678 C   0  0  0  0  0  0  0  0  0  0  0  0
    4.3203    6.6620   28.2625 O   0  0  0  0  0  0  0  0  0  0  0  0
    4.0876    7.2081   27.0356 C   0  0  0  0  0  0  0  0  0  0  0  0
    4.5019    6.7552   25.7739 C   0  0  0  0  0  0  0  0  0  0  0  0
    4.0955    7.5407   24.6993 C   0  0  0  0  0  0  0  0  0  0  0  0
 20 21  1  0  0  0
 21 19  1  0  0  0
 19 17  1  0  0  0
 17  1  1  0  0  0
  1  2  1  0  0  0
  1  4  2  0  0  0
  2  3  2  0  0  0
  3  6  1  0  0  0
  4  5  1  0  0  0
  5  6  2  0  0  0
  5  7  1  0  0  0
  6 11  1  0  0  0
  7  8  2  0  0  0
  8  9  1  0  0  0
  8 23  1  0  0  0
  9 10  1  0  0  0
  9 11  1  0  0  0
 10 13  2  0  0  0
 11 12  2  0  0  0
 12 13  1  0  0  0
 13 14  1  0  0  0
 23 24  1  0  0  0
 24 25  1  0  0  0
 24 32  2  0  0  0
 25 26  2  0  0  0
 26 27  1  0  0  0
 26 30  1  0  0  0
 27 28  1  0  0  0
 28 29  1  0  0  0
 29 30  1  0  0  0
 30 31  2  0  0  0
 31 32  1  0  0  0
 20 22  1  0  0  0
 17 18  1  0  0  0
 14 15  1  0  0  0
 14 16  1  0  0  0
M  END
> <minimizedAffinity>
-9.43198

$$$$
4CWS_G3R_A_1224


 32 36  0  0  0  0  0  0  0  0999 V2000
    4.6030    7.4042   24.0485 C   0  0  0  0  0  0  0  0  0  0  0  0
    4.9803    6.6628   25.1790 C   0  0  0  0  0  0  0  0  0  0  0  0
    4.3260    6.8183   26.4140 C   0  0  0  0  0  0  0  0  0  0  0  0
    3.5226    8.2927   24.1325 C   0  0  0  0  0  0  0  0  0  0  0  0
    2.8459    8.4348   25.3522 C   0  0  0  0  0  0  0  0  0  0  0  0
    3.2572    7.7083   26.4990 C   0  0  0  0  0  0  0  0  0  0  0  0
    1.7801    9.2818   25.4258 N   0  0  0  0  0  0  0  0  0  0  0  0
    1.1191    9.4522   26.5809 C   0  0  0  0  0  0  0  0  0  0  0  0
    1.5008    8.7727   27.6797 N   0  0  0  0  0  0  0  0  0  0  0  0
    0.8911    8.8728   28.9242 N   0  0  0  0  0  0  0  0  0  0  0  0
    2.5163    7.9229   27.6501 C   0  0  0  0  0  0  0  0  0  0  0  0
    2.6421    7.3967   28.8773 N   0  0  0  0  0  0  0  0  0  0  0  0
    1.6384    7.9821   29.5794 C   0  0  0  0  0  0  0  0  0  0  0  0
    1.4102    7.7247   30.9104 N   0  0  0  0  0  0  0  0  0  0  0  0
    0.6694    8.1734   31.3786 H   0  0  0  0  0  0  0  0  0  0  0  0
    1.9875    7.0917   31.3954 H   0  0  0  0  0  0  0  0  0  0  0  0
    5.2680    7.2572   22.8567 N   0  0  0  0  0  0  0  0  0  0  0  0
    6.1761    6.8772   22.8445 H   0  0  0  0  0  0  0  0  0  0  0  0
    4.6299    7.6640   21.6046 C   0  0  0  0  0  0  0  0  0  0  0  0
    4.5552    9.2211   19.8038 O   0  0  0  0  0  0  0  0  0  0  0  0
    5.0649    9.0421   21.1249 C   0  0  0  0  0  0  0  0  0  0  0  0
    4.8177   10.0938   19.4714 H   0  0  0  0  0  0  0  0  0  0  0  0
   -0.0315   10.4294   26.5820 C   0  0  0  0  0  0  0  0  0  0  0  0
   -0.0228   11.3005   25.3346 C   0  0  0  0  0  0  0  0  0  0  0  0
   -1.1567   11.3635   24.5430 C   0  0  0  0  0  0  0  0  0  0  0  0
   -1.0953   12.1463   23.4049 C   0  0  0  0  0  0  0  0  0  0  0  0
   -2.0702   12.3660   22.4751 O   0  0  0  0  0  0  0  0  0  0  0  0
   -1.6071   13.3209   21.5263 C   0  0  0  0  0  0  0  0  0  0  0  0
   -0.2289   13.4932   21.9005 O   0  0  0  0  0  0  0  0  0  0  0  0
    0.0210   12.8247   23.0616 C   0  0  0  0  0  0  0  0  0  0  0  0
    1.1930   12.8007   23.8326 C   0  0  0  0  0  0  0  0  0  0  0  0
    1.1315   12.0161   24.9805 C   0  0  0  0  0  0  0  0  0  0  0  0
 20 21  1  0  0  0
 21 19  1  0  0  0
 19 17  1  0  0  0
 17  1  1  0  0  0
  1  2  1  0  0  0
  1  4  2  0  0  0
  2  3  2  0  0  0
  3  6  1  0  0  0
  4  5  1  0  0  0
  5  6  2  0  0  0
  5  7  1  0  0  0
  6 11  1  0  0  0
  7  8  2  0  0  0
  8  9  1  0  0  0
  8 23  1  0  0  0
  9 10  1  0  0  0
  9 11  1  0  0  0
 10 13  2  0  0  0
 11 12  2  0  0  0
 12 13  1  0  0  0
 13 14  1  0  0  0
 23 24  1  0  0  0
 24 25  1  0  0  0
 24 32  2  0  0  0
 25 26  2  0  0  0
 26 27  1  0  0  0
 26 30  1  0  0  0
 27 28  1  0  0  0
 28 29  1  0  0  0
 29 30  1  0  0  0
 30 31  2  0  0  0
 31 32  1  0  0  0
 20 22  1  0  0  0
 17 18  1  0  0  0
 14 15  1  0  0  0
 14 16  1  0  0  0
M  END
> <minimizedAffinity>
-9.16488

$$$$
4CWS_G3R_A_1224


 32 36  0  0  0  0  0  0  0  0999 V2000
    2.2419    8.4315   28.1145 C   0  0  0  0  0  0  0  0  0  0  0  0
    0.8395    8.4698   28.1544 C   0  0  0  0  0  0  0  0  0  0  0  0
    0.0981    9.2566   27.2551 C   0  0  0  0  0  0  0  0  0  0  0  0
    2.9265    9.1590   27.1317 C   0  0  0  0  0  0  0  0  0  0  0  0
    2.1953    9.9250   26.2128 C   0  0  0  0  0  0  0  0  0  0  0  0
    0.7799    9.9865   26.2834 C   0  0  0  0  0  0  0  0  0  0  0  0
    2.8616   10.6131   25.2426 N   0  0  0  0  0  0  0  0  0  0  0  0
    2.1938   11.3672   24.3562 C   0  0  0  0  0  0  0  0  0  0  0  0
    0.8498   11.4392   24.4134 N   0  0  0  0  0  0  0  0  0  0  0  0
    0.0594   12.1877   23.5499 N   0  0  0  0  0  0  0  0  0  0  0  0
    0.1589   10.7709   25.3247 C   0  0  0  0  0  0  0  0  0  0  0  0
   -1.1411   11.0287   25.1192 N   0  0  0  0  0  0  0  0  0  0  0  0
   -1.1357   11.8552   24.0422 C   0  0  0  0  0  0  0  0  0  0  0  0
   -2.2845   12.3756   23.4952 N   0  0  0  0  0  0  0  0  0  0  0  0
   -2.2314   12.9715   22.7133 H   0  0  0  0  0  0  0  0  0  0  0  0
   -3.1604   12.1525   23.8855 H   0  0  0  0  0  0  0  0  0  0  0  0
    2.9510    7.6765   29.0152 N   0  0  0  0  0  0  0  0  0  0  0  0
    3.7675    7.2074   28.7279 H   0  0  0  0  0  0  0  0  0  0  0  0
    2.4959    7.5674   30.4013 C   0  0  0  0  0  0  0  0  0  0  0  0
    3.9033    5.6510   30.2598 O   0  0  0  0  0  0  0  0  0  0  0  0
    3.2253    6.4908   31.1936 C   0  0  0  0  0  0  0  0  0  0  0  0
    4.3784    4.9534   30.7379 H   0  0  0  0  0  0  0  0  0  0  0  0
    3.0104   12.1182   23.3325 C   0  0  0  0  0  0  0  0  0  0  0  0
    4.5012   11.8907   23.5344 C   0  0  0  0  0  0  0  0  0  0  0  0
    5.0634   10.6881   23.1424 C   0  0  0  0  0  0  0  0  0  0  0  0
    6.4163   10.5144   23.3691 C   0  0  0  0  0  0  0  0  0  0  0  0
    7.1914    9.4298   23.0755 O   0  0  0  0  0  0  0  0  0  0  0  0
    8.5485    9.7246   23.3877 C   0  0  0  0  0  0  0  0  0  0  0  0
    8.4507   11.0027   24.0405 O   0  0  0  0  0  0  0  0  0  0  0  0
    7.1727   11.4683   23.9540 C   0  0  0  0  0  0  0  0  0  0  0  0
    6.6538   12.7063   24.3624 C   0  0  0  0  0  0  0  0  0  0  0  0
    5.2929   12.8840   24.1315 C   0  0  0  0  0  0  0  0  0  0  0  0
 20 21  1  0  0  0
 21 19  1  0  0  0
 19 17  1  0  0  0
 17  1  1  0  0  0
  1  2  1  0  0  0
  1  4  2  0  0  0
  2  3  2  0  0  0
  3  6  1  0  0  0
  4  5  1  0  0  0
  5  6  2  0  0  0
  5  7  1  0  0  0
  6 11  1  0  0  0
  7  8  2  0  0  0
  8  9  1  0  0  0
  8 23  1  0  0  0
  9 10  1  0  0  0
  9 11  1  0  0  0
 10 13  2  0  0  0
 11 12  2  0  0  0
 12 13  1  0  0  0
 13 14  1  0  0  0
 23 24  1  0  0  0
 24 25  1  0  0  0
 24 32  2  0  0  0
 25 26  2  0  0  0
 26 27  1  0  0  0
 26 30  1  0  0  0
 27 28  1  0  0  0
 28 29  1  0  0  0
 29 30  1  0  0  0
 30 31  2  0  0  0
 31 32  1  0  0  0
 20 22  1  0  0  0
 17 18  1  0  0  0
 14 15  1  0  0  0
 14 16  1  0  0  0
M  END
> <minimizedAffinity>
-9.12750

$$$$
4CWS_G3R_A_1224


 32 36  0  0  0  0  0  0  0  0999 V2000
    1.3702    8.0508   27.6019 C   0  0  0  0  0  0  0  0  0  0  0  0
    0.6551    7.1054   26.8504 C   0  0  0  0  0  0  0  0  0  0  0  0
    0.9963    6.8128   25.5181 C   0  0  0  0  0  0  0  0  0  0  0  0
    2.4779    8.6930   27.0325 C   0  0  0  0  0  0  0  0  0  0  0  0
    2.8433    8.3881   25.7137 C   0  0  0  0  0  0  0  0  0  0  0  0
    2.0927    7.4580   24.9496 C   0  0  0  0  0  0  0  0  0  0  0  0
    3.9354    8.9960   25.1694 N   0  0  0  0  0  0  0  0  0  0  0  0
    4.3043    8.7379   23.9054 C   0  0  0  0  0  0  0  0  0  0  0  0
    3.5987    7.8605   23.1658 N   0  0  0  0  0  0  0  0  0  0  0  0
    3.8892    7.5200   21.8504 N   0  0  0  0  0  0  0  0  0  0  0  0
    2.5439    7.2297   23.6595 C   0  0  0  0  0  0  0  0  0  0  0  0
    2.0684    6.4210   22.7011 N   0  0  0  0  0  0  0  0  0  0  0  0
    2.9200    6.6219   21.6631 C   0  0  0  0  0  0  0  0  0  0  0  0
    2.7864    5.9819   20.4538 N   0  0  0  0  0  0  0  0  0  0  0  0
    3.4289    6.1594   19.7293 H   0  0  0  0  0  0  0  0  0  0  0  0
    2.0483    5.3460   20.3123 H   0  0  0  0  0  0  0  0  0  0  0  0
    1.0089    8.3417   28.8939 N   0  0  0  0  0  0  0  0  0  0  0  0
    0.0786    8.5896   29.0998 H   0  0  0  0  0  0  0  0  0  0  0  0
    2.0033    8.2842   29.9653 C   0  0  0  0  0  0  0  0  0  0  0  0
    1.3685    8.1156   32.2548 O   0  0  0  0  0  0  0  0  0  0  0  0
    1.6245    7.3307   31.0905 C   0  0  0  0  0  0  0  0  0  0  0  0
    1.1239    7.5326   32.9905 H   0  0  0  0  0  0  0  0  0  0  0  0
    5.5088    9.4750   23.3719 C   0  0  0  0  0  0  0  0  0  0  0  0
    5.4664   10.9506   23.7405 C   0  0  0  0  0  0  0  0  0  0  0  0
    6.6524   11.6292   23.9615 C   0  0  0  0  0  0  0  0  0  0  0  0
    6.5656   12.9618   24.3201 C   0  0  0  0  0  0  0  0  0  0  0  0
    7.5807   13.8340   24.5886 O   0  0  0  0  0  0  0  0  0  0  0  0
    7.0381   15.1305   24.8140 C   0  0  0  0  0  0  0  0  0  0  0  0
    5.6212   14.8821   24.8189 O   0  0  0  0  0  0  0  0  0  0  0  0
    5.3781   13.5902   24.4591 C   0  0  0  0  0  0  0  0  0  0  0  0
    4.1488   12.9505   24.2394 C   0  0  0  0  0  0  0  0  0  0  0  0
    4.2348   11.6102   23.8747 C   0  0  0  0  0  0  0  0  0  0  0  0
 20 21  1  0  0  0
 21 19  1  0  0  0
 19 17  1  0  0  0
 17  1  1  0  0  0
  1  2  1  0  0  0
  1  4  2  0  0  0
  2  3  2  0  0  0
  3  6  1  0  0  0
  4  5  1  0  0  0
  5  6  2  0  0  0
  5  7  1  0  0  0
  6 11  1  0  0  0
  7  8  2  0  0  0
  8  9  1  0  0  0
  8 23  1  0  0  0
  9 10  1  0  0  0
  9 11  1  0  0  0
 10 13  2  0  0  0
 11 12  2  0  0  0
 12 13  1  0  0  0
 13 14  1  0  0  0
 23 24  1  0  0  0
 24 25  1  0  0  0
 24 32  2  0  0  0
 25 26  2  0  0  0
 26 27  1  0  0  0
 26 30  1  0  0  0
 27 28  1  0  0  0
 28 29  1  0  0  0
 29 30  1  0  0  0
 30 31  2  0  0  0
 31 32  1  0  0  0
 20 22  1  0  0  0
 17 18  1  0  0  0
 14 15  1  0  0  0
 14 16  1  0  0  0
M  END
> <minimizedAffinity>
-9.01252

$$$$
4CWS_G3R_A_1224


 32 36  0  0  0  0  0  0  0  0999 V2000
    2.9079    6.7351   23.5113 C   0  0  0  0  0  0  0  0  0  0  0  0
    2.1990    6.3330   24.6540 C   0  0  0  0  0  0  0  0  0  0  0  0
    1.4807    7.2539   25.4372 C   0  0  0  0  0  0  0  0  0  0  0  0
    2.8704    8.0772   23.1101 C   0  0  0  0  0  0  0  0  0  0  0  0
    2.1345    8.9985   23.8687 C   0  0  0  0  0  0  0  0  0  0  0  0
    1.4508    8.5899   25.0426 C   0  0  0  0  0  0  0  0  0  0  0  0
    2.0795   10.2992   23.4637 N   0  0  0  0  0  0  0  0  0  0  0  0
    1.3963   11.2095   24.1741 C   0  0  0  0  0  0  0  0  0  0  0  0
    0.7458   10.8376   25.2936 N   0  0  0  0  0  0  0  0  0  0  0  0
    0.0108   11.6941   26.1040 N   0  0  0  0  0  0  0  0  0  0  0  0
    0.7529    9.5814   25.7134 C   0  0  0  0  0  0  0  0  0  0  0  0
    0.0140    9.5219   26.8310 N   0  0  0  0  0  0  0  0  0  0  0  0
   -0.4151   10.7992   26.9976 C   0  0  0  0  0  0  0  0  0  0  0  0
   -1.2095   11.1881   28.0500 N   0  0  0  0  0  0  0  0  0  0  0  0
   -1.4964   12.1265   28.1297 H   0  0  0  0  0  0  0  0  0  0  0  0
   -1.4915   10.5282   28.7240 H   0  0  0  0  0  0  0  0  0  0  0  0
    3.6234    5.8268   22.7715 N   0  0  0  0  0  0  0  0  0  0  0  0
    3.7440    4.9082   23.1044 H   0  0  0  0  0  0  0  0  0  0  0  0
    4.2071    6.2211   21.4892 C   0  0  0  0  0  0  0  0  0  0  0  0
    2.3801    5.9179   19.9913 O   0  0  0  0  0  0  0  0  0  0  0  0
    3.6772    5.4152   20.3109 C   0  0  0  0  0  0  0  0  0  0  0  0
    2.0166    5.4214   19.2415 H   0  0  0  0  0  0  0  0  0  0  0  0
    1.4100   12.6326   23.6705 C   0  0  0  0  0  0  0  0  0  0  0  0
    2.6715   13.3642   24.1047 C   0  0  0  0  0  0  0  0  0  0  0  0
    3.8994   12.7405   23.9660 C   0  0  0  0  0  0  0  0  0  0  0  0
    5.0164   13.4317   24.3980 C   0  0  0  0  0  0  0  0  0  0  0  0
    6.3218   13.0338   24.3685 O   0  0  0  0  0  0  0  0  0  0  0  0
    7.1481   14.1017   24.8191 C   0  0  0  0  0  0  0  0  0  0  0  0
    6.1881   15.0751   25.2665 O   0  0  0  0  0  0  0  0  0  0  0  0
    4.9296   14.6651   24.9413 C   0  0  0  0  0  0  0  0  0  0  0  0
    3.7115   15.3437   25.0970 C   0  0  0  0  0  0  0  0  0  0  0  0
    2.5867   14.6508   24.6592 C   0  0  0  0  0  0  0  0  0  0  0  0
 20 21  1  0  0  0
 21 19  1  0  0  0
 19 17  1  0  0  0
 17  1  1  0  0  0
  1  2  1  0  0  0
  1  4  2  0  0  0
  2  3  2  0  0  0
  3  6  1  0  0  0
  4  5  1  0  0  0
  5  6  2  0  0  0
  5  7  1  0  0  0
  6 11  1  0  0  0
  7  8  2  0  0  0
  8  9  1  0  0  0
  8 23  1  0  0  0
  9 10  1  0  0  0
  9 11  1  0  0  0
 10 13  2  0  0  0
 11 12  2  0  0  0
 12 13  1  0  0  0
 13 14  1  0  0  0
 23 24  1  0  0  0
 24 25  1  0  0  0
 24 32  2  0  0  0
 25 26  2  0  0  0
 26 27  1  0  0  0
 26 30  1  0  0  0
 27 28  1  0  0  0
 28 29  1  0  0  0
 29 30  1  0  0  0
 30 31  2  0  0  0
 31 32  1  0  0  0
 20 22  1  0  0  0
 17 18  1  0  0  0
 14 15  1  0  0  0
 14 16  1  0  0  0
M  END
> <minimizedAffinity>
-9.00959

$$$$
4CWS_G3R_A_1224


 32 36  0  0  0  0  0  0  0  0999 V2000
    1.1860    8.2763   27.1728 C   0  0  0  0  0  0  0  0  0  0  0  0
    0.5773    7.2322   26.4591 C   0  0  0  0  0  0  0  0  0  0  0  0
    1.0156    6.8642   25.1747 C   0  0  0  0  0  0  0  0  0  0  0  0
    2.2843    8.9462   26.6171 C   0  0  0  0  0  0  0  0  0  0  0  0
    2.7467    8.5686   25.3484 C   0  0  0  0  0  0  0  0  0  0  0  0
    2.1024    7.5364   24.6191 C   0  0  0  0  0  0  0  0  0  0  0  0
    3.8300    9.2052   24.8195 N   0  0  0  0  0  0  0  0  0  0  0  0
    4.2896    8.8786   23.6021 C   0  0  0  0  0  0  0  0  0  0  0  0
    3.6856    7.9036   22.8954 N   0  0  0  0  0  0  0  0  0  0  0  0
    4.0753    7.4860   21.6289 N   0  0  0  0  0  0  0  0  0  0  0  0
    2.6439    7.2430   23.3778 C   0  0  0  0  0  0  0  0  0  0  0  0
    2.2779    6.3353   22.4608 N   0  0  0  0  0  0  0  0  0  0  0  0
    3.1765    6.5142   21.4590 C   0  0  0  0  0  0  0  0  0  0  0  0
    3.1559    5.7784   20.2980 N   0  0  0  0  0  0  0  0  0  0  0  0
    3.8287    5.9436   19.5985 H   0  0  0  0  0  0  0  0  0  0  0  0
    2.4683    5.0863   20.1660 H   0  0  0  0  0  0  0  0  0  0  0  0
    0.7301    8.6381   28.4159 N   0  0  0  0  0  0  0  0  0  0  0  0
    1.2785    8.4550   29.2128 H   0  0  0  0  0  0  0  0  0  0  0  0
   -0.5690    9.2955   28.5591 C   0  0  0  0  0  0  0  0  0  0  0  0
   -1.9787   11.1319   27.9989 O   0  0  0  0  0  0  0  0  0  0  0  0
   -0.6472   10.6401   27.8489 C   0  0  0  0  0  0  0  0  0  0  0  0
   -2.0582   11.9905   27.5547 H   0  0  0  0  0  0  0  0  0  0  0  0
    5.4763    9.6519   23.0801 C   0  0  0  0  0  0  0  0  0  0  0  0
    5.4769   11.0840   23.5941 C   0  0  0  0  0  0  0  0  0  0  0  0
    4.2710   11.7140   23.8488 C   0  0  0  0  0  0  0  0  0  0  0  0
    4.3181   13.0239   24.2892 C   0  0  0  0  0  0  0  0  0  0  0  0
    3.2773   13.8492   24.6037 O   0  0  0  0  0  0  0  0  0  0  0  0
    3.7886   15.0768   25.1114 C   0  0  0  0  0  0  0  0  0  0  0  0
    5.2045   14.9403   24.8973 O   0  0  0  0  0  0  0  0  0  0  0  0
    5.4861   13.6792   24.4638 C   0  0  0  0  0  0  0  0  0  0  0  0
    6.7347   13.0843   24.2276 C   0  0  0  0  0  0  0  0  0  0  0  0
    6.6889   11.7647   23.7878 C   0  0  0  0  0  0  0  0  0  0  0  0
 20 21  1  0  0  0
 21 19  1  0  0  0
 19 17  1  0  0  0
 17  1  1  0  0  0
  1  2  1  0  0  0
  1  4  2  0  0  0
  2  3  2  0  0  0
  3  6  1  0  0  0
  4  5  1  0  0  0
  5  6  2  0  0  0
  5  7  1  0  0  0
  6 11  1  0  0  0
  7  8  2  0  0  0
  8  9  1  0  0  0
  8 23  1  0  0  0
  9 10  1  0  0  0
  9 11  1  0  0  0
 10 13  2  0  0  0
 11 12  2  0  0  0
 12 13  1  0  0  0
 13 14  1  0  0  0
 23 24  1  0  0  0
 24 25  1  0  0  0
 24 32  2  0  0  0
 25 26  2  0  0  0
 26 27  1  0  0  0
 26 30  1  0  0  0
 27 28  1  0  0  0
 28 29  1  0  0  0
 29 30  1  0  0  0
 30 31  2  0  0  0
 31 32  1  0  0  0
 20 22  1  0  0  0
 17 18  1  0  0  0
 14 15  1  0  0  0
 14 16  1  0  0  0
M  END
> <minimizedAffinity>
-8.71146

$$$$
