5NAU_DZ0_A_611


 26 29  0  0  0  0  0  0  0  0999 V2000
  111.4627  123.8356  183.7367 O   0  0  0  0  0  0  0  0  0  0  0  0
  111.6039  125.0306  183.7871 C   0  0  0  0  0  0  0  0  0  0  0  0
  110.7249  125.8856  184.2591 C   0  0  0  0  0  0  0  0  0  0  0  0
  109.5427  125.6358  184.7610 C   0  0  0  0  0  0  0  0  0  0  0  0
  108.7561  126.6651  185.1975 C   0  0  0  0  0  0  0  0  0  0  0  0
  109.2575  127.9357  185.1057 C   0  0  0  0  0  0  0  0  0  0  0  0
  110.5094  128.1077  184.5725 C   0  0  0  0  0  0  0  0  0  0  0  0
  111.2267  127.0860  184.1570 C   0  0  0  0  0  0  0  0  0  0  0  0
  112.4428  126.9739  183.6226 C   0  0  0  0  0  0  0  0  0  0  0  0
  112.6605  125.6899  183.3976 C   0  0  0  0  0  0  0  0  0  0  0  0
  113.7511  125.1613  182.8770 C   0  0  0  0  0  0  0  0  0  0  0  0
  115.0217  125.8286  182.3876 C   0  0  0  0  0  0  0  0  0  0  0  0
  115.0593  125.4233  180.9461 C   0  0  0  0  0  0  0  0  0  0  0  0
  116.3040  125.9246  180.3146 C   0  0  0  0  0  0  0  0  0  0  0  0
  115.0997  127.2999  182.5084 C   0  0  0  0  0  0  0  0  0  0  0  0
  116.3392  127.8300  181.7573 C   0  0  0  0  0  0  0  0  0  0  0  0
  116.3875  127.3713  180.3618 N   0  0  0  0  0  0  0  0  0  0  0  0
  117.6326  127.7714  179.6924 C   0  0  0  0  0  0  0  0  0  0  0  0
  117.6081  127.5577  178.3263 C   0  0  0  0  0  0  0  0  0  0  0  0
  118.4897  126.6687  177.7443 C   0  0  0  0  0  0  0  0  0  0  0  0
  118.5026  126.4299  176.3909 C   0  0  0  0  0  0  0  0  0  0  0  0
  117.6075  127.1016  175.5985 C   0  0  0  0  0  0  0  0  0  0  0  0
  116.7197  127.9776  176.1830 C   0  0  0  0  0  0  0  0  0  0  0  0
  116.7017  128.2168  177.5364 C   0  0  0  0  0  0  0  0  0  0  0  0
  108.5341  129.0071  185.5322 O   0  0  0  0  0  0  0  0  0  0  0  0
  107.5762  128.9181  186.5972 C   0  0  0  0  0  0  0  0  0  0  0  0
 22 21  2  0  0  0
 22 23  1  0  0  0
 21 20  1  0  0  0
 23 24  2  0  0  0
 20 19  2  0  0  0
 24 19  1  0  0  0
 19 18  1  0  0  0
 18 17  1  0  0  0
 17 14  1  0  0  0
 17 16  1  0  0  0
 14 13  1  0  0  0
 13 12  1  0  0  0
 16 15  1  0  0  0
 15 12  1  0  0  0
 12 11  1  0  0  0
 11 10  2  0  0  0
 10  9  1  0  0  0
 10  2  1  0  0  0
  9  8  1  0  0  0
  1  2  2  0  0  0
  2  3  1  0  0  0
  8  3  2  0  0  0
  8  7  1  0  0  0
  3  4  1  0  0  0
  7  6  2  0  0  0
  4  5  2  0  0  0
  6  5  1  0  0  0
  6 25  1  0  0  0
 25 26  1  0  0  0
M  END
> <minimizedAffinity>
-12.13977

$$$$
5NAU_DZ0_A_611


 26 29  0  0  0  0  0  0  0  0999 V2000
  111.6539  128.5544  184.3333 O   0  0  0  0  0  0  0  0  0  0  0  0
  111.9251  127.4644  183.8986 C   0  0  0  0  0  0  0  0  0  0  0  0
  111.1590  126.3994  183.9714 C   0  0  0  0  0  0  0  0  0  0  0  0
  109.9732  126.2918  184.5138 C   0  0  0  0  0  0  0  0  0  0  0  0
  109.3250  125.0884  184.5025 C   0  0  0  0  0  0  0  0  0  0  0  0
  109.9495  124.0320  183.8954 C   0  0  0  0  0  0  0  0  0  0  0  0
  111.1897  124.2338  183.3456 C   0  0  0  0  0  0  0  0  0  0  0  0
  111.7786  125.4096  183.3888 C   0  0  0  0  0  0  0  0  0  0  0  0
  112.9450  125.8702  182.9366 C   0  0  0  0  0  0  0  0  0  0  0  0
  113.0203  127.1485  183.2634 C   0  0  0  0  0  0  0  0  0  0  0  0
  114.0193  127.9668  182.9942 C   0  0  0  0  0  0  0  0  0  0  0  0
  115.3291  127.7054  182.2764 C   0  0  0  0  0  0  0  0  0  0  0  0
  114.8684  127.1252  180.9746 C   0  0  0  0  0  0  0  0  0  0  0  0
  116.0406  126.7217  180.1605 C   0  0  0  0  0  0  0  0  0  0  0  0
  116.2096  128.8683  182.0362 C   0  0  0  0  0  0  0  0  0  0  0  0
  117.3703  128.4717  181.0997 C   0  0  0  0  0  0  0  0  0  0  0  0
  116.8983  127.8499  179.8545 N   0  0  0  0  0  0  0  0  0  0  0  0
  118.0091  127.3583  179.0279 C   0  0  0  0  0  0  0  0  0  0  0  0
  117.7444  127.4164  177.6718 C   0  0  0  0  0  0  0  0  0  0  0  0
  116.7784  128.2754  177.1867 C   0  0  0  0  0  0  0  0  0  0  0  0
  116.4804  128.3617  175.8478 C   0  0  0  0  0  0  0  0  0  0  0  0
  117.1691  127.5637  174.9706 C   0  0  0  0  0  0  0  0  0  0  0  0
  118.1420  126.7176  175.4553 C   0  0  0  0  0  0  0  0  0  0  0  0
  118.4449  126.6308  176.7931 C   0  0  0  0  0  0  0  0  0  0  0  0
  109.3576  122.8076  183.8364 O   0  0  0  0  0  0  0  0  0  0  0  0
  107.9817  122.5970  184.1861 C   0  0  0  0  0  0  0  0  0  0  0  0
 22 21  2  0  0  0
 22 23  1  0  0  0
 21 20  1  0  0  0
 23 24  2  0  0  0
 20 19  2  0  0  0
 24 19  1  0  0  0
 19 18  1  0  0  0
 18 17  1  0  0  0
 17 14  1  0  0  0
 17 16  1  0  0  0
 14 13  1  0  0  0
 13 12  1  0  0  0
 16 15  1  0  0  0
 15 12  1  0  0  0
 12 11  1  0  0  0
 11 10  2  0  0  0
 10  9  1  0  0  0
 10  2  1  0  0  0
  9  8  1  0  0  0
  1  2  2  0  0  0
  2  3  1  0  0  0
  8  3  2  0  0  0
  8  7  1  0  0  0
  3  4  1  0  0  0
  7  6  2  0  0  0
  4  5  2  0  0  0
  6  5  1  0  0  0
  6 25  1  0  0  0
 25 26  1  0  0  0
M  END
> <minimizedAffinity>
-11.54466

$$$$
5NAU_DZ0_A_611


 26 29  0  0  0  0  0  0  0  0999 V2000
  115.5127  128.1534  182.4424 O   0  0  0  0  0  0  0  0  0  0  0  0
  115.4107  127.2733  181.6267 C   0  0  0  0  0  0  0  0  0  0  0  0
  116.2036  127.0907  180.5950 C   0  0  0  0  0  0  0  0  0  0  0  0
  117.2434  127.8006  180.2386 C   0  0  0  0  0  0  0  0  0  0  0  0
  117.9486  127.4615  179.1178 C   0  0  0  0  0  0  0  0  0  0  0  0
  117.5390  126.3609  178.4139 C   0  0  0  0  0  0  0  0  0  0  0  0
  116.4425  125.6694  178.8614 C   0  0  0  0  0  0  0  0  0  0  0  0
  115.7895  126.0394  179.9421 C   0  0  0  0  0  0  0  0  0  0  0  0
  114.7275  125.5540  180.5853 C   0  0  0  0  0  0  0  0  0  0  0  0
  114.5051  126.3338  181.6289 C   0  0  0  0  0  0  0  0  0  0  0  0
  113.5439  126.1909  182.5209 C   0  0  0  0  0  0  0  0  0  0  0  0
  112.4446  125.1506  182.6135 C   0  0  0  0  0  0  0  0  0  0  0  0
  112.7585  124.4704  183.9106 C   0  0  0  0  0  0  0  0  0  0  0  0
  111.8182  123.3445  184.1289 C   0  0  0  0  0  0  0  0  0  0  0  0
  111.0504  125.6420  182.6167 C   0  0  0  0  0  0  0  0  0  0  0  0
  110.0811  124.4888  182.9515 C   0  0  0  0  0  0  0  0  0  0  0  0
  110.4424  123.7967  184.1968 N   0  0  0  0  0  0  0  0  0  0  0  0
  109.5949  122.6216  184.4406 C   0  0  0  0  0  0  0  0  0  0  0  0
  108.4674  122.9103  185.1876 C   0  0  0  0  0  0  0  0  0  0  0  0
  107.2582  123.1417  184.5628 C   0  0  0  0  0  0  0  0  0  0  0  0
  106.1147  123.4361  185.2661 C   0  0  0  0  0  0  0  0  0  0  0  0
  106.1855  123.5017  186.6340 C   0  0  0  0  0  0  0  0  0  0  0  0
  107.3899  123.2569  187.2559 C   0  0  0  0  0  0  0  0  0  0  0  0
  108.5348  122.9590  186.5562 C   0  0  0  0  0  0  0  0  0  0  0  0
  118.2014  125.9583  177.2949 O   0  0  0  0  0  0  0  0  0  0  0  0
  118.1813  126.7101  176.0726 C   0  0  0  0  0  0  0  0  0  0  0  0
 22 21  2  0  0  0
 22 23  1  0  0  0
 21 20  1  0  0  0
 23 24  2  0  0  0
 20 19  2  0  0  0
 24 19  1  0  0  0
 19 18  1  0  0  0
 18 17  1  0  0  0
 17 14  1  0  0  0
 17 16  1  0  0  0
 14 13  1  0  0  0
 13 12  1  0  0  0
 16 15  1  0  0  0
 15 12  1  0  0  0
 12 11  1  0  0  0
 11 10  2  0  0  0
 10  9  1  0  0  0
 10  2  1  0  0  0
  9  8  1  0  0  0
  1  2  2  0  0  0
  2  3  1  0  0  0
  8  3  2  0  0  0
  8  7  1  0  0  0
  3  4  1  0  0  0
  7  6  2  0  0  0
  4  5  2  0  0  0
  6  5  1  0  0  0
  6 25  1  0  0  0
 25 26  1  0  0  0
M  END
> <minimizedAffinity>
-11.28332

$$$$
5NAU_DZ0_A_611


 26 29  0  0  0  0  0  0  0  0999 V2000
  109.6313  128.9043  184.9996 O   0  0  0  0  0  0  0  0  0  0  0  0
  110.3230  127.9888  184.6335 C   0  0  0  0  0  0  0  0  0  0  0  0
  109.9997  126.7164  184.6879 C   0  0  0  0  0  0  0  0  0  0  0  0
  108.8930  126.1817  185.1364 C   0  0  0  0  0  0  0  0  0  0  0  0
  108.7374  124.8236  185.1223 C   0  0  0  0  0  0  0  0  0  0  0  0
  109.7593  124.0688  184.6118 C   0  0  0  0  0  0  0  0  0  0  0  0
  110.8823  124.7111  184.1564 C   0  0  0  0  0  0  0  0  0  0  0  0
  110.9903  126.0217  184.1987 C   0  0  0  0  0  0  0  0  0  0  0  0
  111.9408  126.8779  183.8238 C   0  0  0  0  0  0  0  0  0  0  0  0
  111.5102  128.0958  184.1026 C   0  0  0  0  0  0  0  0  0  0  0  0
  112.1576  129.2237  183.8818 C   0  0  0  0  0  0  0  0  0  0  0  0
  113.5308  129.4602  183.2837 C   0  0  0  0  0  0  0  0  0  0  0  0
  113.9856  128.0679  182.9701 C   0  0  0  0  0  0  0  0  0  0  0  0
  115.3725  128.0976  182.4457 C   0  0  0  0  0  0  0  0  0  0  0  0
  113.6022  130.3073  182.0742 C   0  0  0  0  0  0  0  0  0  0  0  0
  115.0204  130.2501  181.4683 C   0  0  0  0  0  0  0  0  0  0  0  0
  115.4704  128.8725  181.2243 N   0  0  0  0  0  0  0  0  0  0  0  0
  116.8668  128.8206  180.7703 C   0  0  0  0  0  0  0  0  0  0  0  0
  116.9993  128.3659  179.4710 C   0  0  0  0  0  0  0  0  0  0  0  0
  117.9554  127.4204  179.1578 C   0  0  0  0  0  0  0  0  0  0  0  0
  118.1241  126.9446  177.8795 C   0  0  0  0  0  0  0  0  0  0  0  0
  117.3123  127.4309  176.8870 C   0  0  0  0  0  0  0  0  0  0  0  0
  116.3500  128.3640  177.2044 C   0  0  0  0  0  0  0  0  0  0  0  0
  116.1763  128.8398  178.4820 C   0  0  0  0  0  0  0  0  0  0  0  0
  109.6678  122.7118  184.5555 O   0  0  0  0  0  0  0  0  0  0  0  0
  110.8225  121.8600  184.5289 C   0  0  0  0  0  0  0  0  0  0  0  0
 22 21  2  0  0  0
 22 23  1  0  0  0
 21 20  1  0  0  0
 23 24  2  0  0  0
 20 19  2  0  0  0
 24 19  1  0  0  0
 19 18  1  0  0  0
 18 17  1  0  0  0
 17 14  1  0  0  0
 17 16  1  0  0  0
 14 13  1  0  0  0
 13 12  1  0  0  0
 16 15  1  0  0  0
 15 12  1  0  0  0
 12 11  1  0  0  0
 11 10  2  0  0  0
 10  9  1  0  0  0
 10  2  1  0  0  0
  9  8  1  0  0  0
  1  2  2  0  0  0
  2  3  1  0  0  0
  8  3  2  0  0  0
  8  7  1  0  0  0
  3  4  1  0  0  0
  7  6  2  0  0  0
  4  5  2  0  0  0
  6  5  1  0  0  0
  6 25  1  0  0  0
 25 26  1  0  0  0
M  END
> <minimizedAffinity>
-10.43854

$$$$
5NAU_DZ0_A_611


 26 29  0  0  0  0  0  0  0  0999 V2000
  115.1147  125.0048  182.9788 O   0  0  0  0  0  0  0  0  0  0  0  0
  114.3653  125.2183  182.0605 C   0  0  0  0  0  0  0  0  0  0  0  0
  114.7249  125.4625  180.8205 C   0  0  0  0  0  0  0  0  0  0  0  0
  115.9350  125.5254  180.3269 C   0  0  0  0  0  0  0  0  0  0  0  0
  116.1168  125.8031  179.0009 C   0  0  0  0  0  0  0  0  0  0  0  0
  115.0018  125.9884  178.2283 C   0  0  0  0  0  0  0  0  0  0  0  0
  113.7703  125.8982  178.8252 C   0  0  0  0  0  0  0  0  0  0  0  0
  113.6451  125.6372  180.1087 C   0  0  0  0  0  0  0  0  0  0  0  0
  112.5964  125.4882  180.9181 C   0  0  0  0  0  0  0  0  0  0  0  0
  113.0622  125.2298  182.1275 C   0  0  0  0  0  0  0  0  0  0  0  0
  112.3437  125.0156  183.2128 C   0  0  0  0  0  0  0  0  0  0  0  0
  110.8393  125.0133  183.4030 C   0  0  0  0  0  0  0  0  0  0  0  0
  110.5130  123.5527  183.3426 C   0  0  0  0  0  0  0  0  0  0  0  0
  109.0448  123.3611  183.4268 C   0  0  0  0  0  0  0  0  0  0  0  0
  110.3173  125.6038  184.6537 C   0  0  0  0  0  0  0  0  0  0  0  0
  108.8088  125.3091  184.7916 C   0  0  0  0  0  0  0  0  0  0  0  0
  108.5043  123.8765  184.6695 N   0  0  0  0  0  0  0  0  0  0  0  0
  107.0580  123.6178  184.6717 C   0  0  0  0  0  0  0  0  0  0  0  0
  106.4680  123.8404  185.9024 C   0  0  0  0  0  0  0  0  0  0  0  0
  107.0228  123.3054  187.0480 C   0  0  0  0  0  0  0  0  0  0  0  0
  106.4669  123.4980  188.2901 C   0  0  0  0  0  0  0  0  0  0  0  0
  105.3222  124.2469  188.3866 C   0  0  0  0  0  0  0  0  0  0  0  0
  104.7783  124.7912  187.2441 C   0  0  0  0  0  0  0  0  0  0  0  0
  105.3330  124.6034  186.0007 C   0  0  0  0  0  0  0  0  0  0  0  0
  115.1076  126.2563  176.8978 O   0  0  0  0  0  0  0  0  0  0  0  0
  115.7395  127.4435  176.3966 C   0  0  0  0  0  0  0  0  0  0  0  0
 22 21  2  0  0  0
 22 23  1  0  0  0
 21 20  1  0  0  0
 23 24  2  0  0  0
 20 19  2  0  0  0
 24 19  1  0  0  0
 19 18  1  0  0  0
 18 17  1  0  0  0
 17 14  1  0  0  0
 17 16  1  0  0  0
 14 13  1  0  0  0
 13 12  1  0  0  0
 16 15  1  0  0  0
 15 12  1  0  0  0
 12 11  1  0  0  0
 11 10  2  0  0  0
 10  9  1  0  0  0
 10  2  1  0  0  0
  9  8  1  0  0  0
  1  2  2  0  0  0
  2  3  1  0  0  0
  8  3  2  0  0  0
  8  7  1  0  0  0
  3  4  1  0  0  0
  7  6  2  0  0  0
  4  5  2  0  0  0
  6  5  1  0  0  0
  6 25  1  0  0  0
 25 26  1  0  0  0
M  END
> <minimizedAffinity>
-10.27236

$$$$
5NAU_DZ0_A_611


 26 29  0  0  0  0  0  0  0  0999 V2000
  112.1740  125.3307  178.2500 O   0  0  0  0  0  0  0  0  0  0  0  0
  113.0588  125.5391  179.0401 C   0  0  0  0  0  0  0  0  0  0  0  0
  114.3112  125.7952  178.7361 C   0  0  0  0  0  0  0  0  0  0  0  0
  114.8546  125.8774  177.5487 C   0  0  0  0  0  0  0  0  0  0  0  0
  116.1895  126.1457  177.4269 C   0  0  0  0  0  0  0  0  0  0  0  0
  116.9096  126.3392  178.5751 C   0  0  0  0  0  0  0  0  0  0  0  0
  116.2595  126.2417  179.7789 C   0  0  0  0  0  0  0  0  0  0  0  0
  114.9734  125.9723  179.8466 C   0  0  0  0  0  0  0  0  0  0  0  0
  114.1155  125.8347  180.8576 C   0  0  0  0  0  0  0  0  0  0  0  0
  112.9306  125.5642  180.3384 C   0  0  0  0  0  0  0  0  0  0  0  0
  111.8122  125.3599  181.0072 C   0  0  0  0  0  0  0  0  0  0  0  0
  111.5546  125.3580  182.5015 C   0  0  0  0  0  0  0  0  0  0  0  0
  110.2751  126.1297  182.6050 C   0  0  0  0  0  0  0  0  0  0  0  0
  109.9072  126.3054  184.0309 C   0  0  0  0  0  0  0  0  0  0  0  0
  111.4138  124.0415  183.1593 C   0  0  0  0  0  0  0  0  0  0  0  0
  110.9259  124.2228  184.6121 C   0  0  0  0  0  0  0  0  0  0  0  0
  109.7027  125.0332  184.6955 N   0  0  0  0  0  0  0  0  0  0  0  0
  109.3180  125.3097  186.0863 C   0  0  0  0  0  0  0  0  0  0  0  0
  107.9485  125.3450  186.2745 C   0  0  0  0  0  0  0  0  0  0  0  0
  107.3509  126.4553  186.8371 C   0  0  0  0  0  0  0  0  0  0  0  0
  105.9946  126.5304  187.0462 C   0  0  0  0  0  0  0  0  0  0  0  0
  105.2155  125.4622  186.6822 C   0  0  0  0  0  0  0  0  0  0  0  0
  105.8121  124.3612  186.1085 C   0  0  0  0  0  0  0  0  0  0  0  0
  107.1677  124.2837  185.8950 C   0  0  0  0  0  0  0  0  0  0  0  0
  118.2403  126.6220  178.5286 O   0  0  0  0  0  0  0  0  0  0  0  0
  119.0457  126.3603  177.3699 C   0  0  0  0  0  0  0  0  0  0  0  0
 22 21  2  0  0  0
 22 23  1  0  0  0
 21 20  1  0  0  0
 23 24  2  0  0  0
 20 19  2  0  0  0
 24 19  1  0  0  0
 19 18  1  0  0  0
 18 17  1  0  0  0
 17 14  1  0  0  0
 17 16  1  0  0  0
 14 13  1  0  0  0
 13 12  1  0  0  0
 16 15  1  0  0  0
 15 12  1  0  0  0
 12 11  1  0  0  0
 11 10  2  0  0  0
 10  9  1  0  0  0
 10  2  1  0  0  0
  9  8  1  0  0  0
  1  2  2  0  0  0
  2  3  1  0  0  0
  8  3  2  0  0  0
  8  7  1  0  0  0
  3  4  1  0  0  0
  7  6  2  0  0  0
  4  5  2  0  0  0
  6  5  1  0  0  0
  6 25  1  0  0  0
 25 26  1  0  0  0
M  END
> <minimizedAffinity>
-10.16407

$$$$
5NAU_DZ0_A_611


 26 29  0  0  0  0  0  0  0  0999 V2000
  115.3471  124.6484  180.7702 O   0  0  0  0  0  0  0  0  0  0  0  0
  115.1603  125.5980  181.4871 C   0  0  0  0  0  0  0  0  0  0  0  0
  115.7087  126.7835  181.3451 C   0  0  0  0  0  0  0  0  0  0  0  0
  116.5501  127.1803  180.4249 C   0  0  0  0  0  0  0  0  0  0  0  0
  117.0262  128.4615  180.4433 C   0  0  0  0  0  0  0  0  0  0  0  0
  116.5783  129.2954  181.4325 C   0  0  0  0  0  0  0  0  0  0  0  0
  115.6909  128.7998  182.3534 C   0  0  0  0  0  0  0  0  0  0  0  0
  115.2672  127.5553  182.3003 C   0  0  0  0  0  0  0  0  0  0  0  0
  114.4215  126.8401  183.0423 C   0  0  0  0  0  0  0  0  0  0  0  0
  114.3681  125.6258  182.5237 C   0  0  0  0  0  0  0  0  0  0  0  0
  113.6417  124.6177  182.9666 C   0  0  0  0  0  0  0  0  0  0  0  0
  112.7023  124.5390  184.1543 C   0  0  0  0  0  0  0  0  0  0  0  0
  111.8090  125.7206  183.9327 C   0  0  0  0  0  0  0  0  0  0  0  0
  110.8614  125.8548  185.0656 C   0  0  0  0  0  0  0  0  0  0  0  0
  111.8972  123.3072  184.2961 C   0  0  0  0  0  0  0  0  0  0  0  0
  110.8387  123.4888  185.4044 C   0  0  0  0  0  0  0  0  0  0  0  0
  110.0126  124.6870  185.1994 N   0  0  0  0  0  0  0  0  0  0  0  0
  109.0964  124.9241  186.3233 C   0  0  0  0  0  0  0  0  0  0  0  0
  107.7900  124.5667  186.0441 C   0  0  0  0  0  0  0  0  0  0  0  0
  106.7449  125.1597  186.7241 C   0  0  0  0  0  0  0  0  0  0  0  0
  105.4327  124.8310  186.4814 C   0  0  0  0  0  0  0  0  0  0  0  0
  105.1603  123.8804  185.5314 C   0  0  0  0  0  0  0  0  0  0  0  0
  106.2038  123.3000  184.8446 C   0  0  0  0  0  0  0  0  0  0  0  0
  107.5171  123.6284  185.0823 C   0  0  0  0  0  0  0  0  0  0  0  0
  117.0008  130.5874  181.5047 O   0  0  0  0  0  0  0  0  0  0  0  0
  116.1410  131.6989  181.2135 C   0  0  0  0  0  0  0  0  0  0  0  0
 22 21  2  0  0  0
 22 23  1  0  0  0
 21 20  1  0  0  0
 23 24  2  0  0  0
 20 19  2  0  0  0
 24 19  1  0  0  0
 19 18  1  0  0  0
 18 17  1  0  0  0
 17 14  1  0  0  0
 17 16  1  0  0  0
 14 13  1  0  0  0
 13 12  1  0  0  0
 16 15  1  0  0  0
 15 12  1  0  0  0
 12 11  1  0  0  0
 11 10  2  0  0  0
 10  9  1  0  0  0
 10  2  1  0  0  0
  9  8  1  0  0  0
  1  2  2  0  0  0
  2  3  1  0  0  0
  8  3  2  0  0  0
  8  7  1  0  0  0
  3  4  1  0  0  0
  7  6  2  0  0  0
  4  5  2  0  0  0
  6  5  1  0  0  0
  6 25  1  0  0  0
 25 26  1  0  0  0
M  END
> <minimizedAffinity>
-10.13365

$$$$
5NAU_DZ0_A_611


 26 29  0  0  0  0  0  0  0  0999 V2000
  113.3182  124.0925  183.2973 O   0  0  0  0  0  0  0  0  0  0  0  0
  113.0941  125.2736  183.3696 C   0  0  0  0  0  0  0  0  0  0  0  0
  113.9214  126.2321  183.0186 C   0  0  0  0  0  0  0  0  0  0  0  0
  115.1297  126.1187  182.5297 C   0  0  0  0  0  0  0  0  0  0  0  0
  115.8517  127.2400  182.2296 C   0  0  0  0  0  0  0  0  0  0  0  0
  115.2598  128.4564  182.4402 C   0  0  0  0  0  0  0  0  0  0  0  0
  113.9867  128.4846  182.9496 C   0  0  0  0  0  0  0  0  0  0  0  0
  113.3338  127.3777  183.2319 C   0  0  0  0  0  0  0  0  0  0  0  0
  112.1164  127.1264  183.7135 C   0  0  0  0  0  0  0  0  0  0  0  0
  111.9847  125.8139  183.7941 C   0  0  0  0  0  0  0  0  0  0  0  0
  110.9222  125.1595  184.2216 C   0  0  0  0  0  0  0  0  0  0  0  0
  109.5965  125.6824  184.7395 C   0  0  0  0  0  0  0  0  0  0  0  0
  108.7818  124.4304  184.8505 C   0  0  0  0  0  0  0  0  0  0  0  0
  107.3992  124.7650  185.2699 C   0  0  0  0  0  0  0  0  0  0  0  0
  109.6136  126.3990  186.0324 C   0  0  0  0  0  0  0  0  0  0  0  0
  108.1711  126.6504  186.5199 C   0  0  0  0  0  0  0  0  0  0  0  0
  107.3717  125.4179  186.5641 N   0  0  0  0  0  0  0  0  0  0  0  0
  105.9670  125.6834  186.9034 C   0  0  0  0  0  0  0  0  0  0  0  0
  105.2735  124.5462  187.2751 C   0  0  0  0  0  0  0  0  0  0  0  0
  105.8470  123.6299  188.1340 C   0  0  0  0  0  0  0  0  0  0  0  0
  105.1953  122.4849  188.5253 C   0  0  0  0  0  0  0  0  0  0  0  0
  103.9337  122.2511  188.0412 C   0  0  0  0  0  0  0  0  0  0  0  0
  103.3581  123.1734  187.1954 C   0  0  0  0  0  0  0  0  0  0  0  0
  104.0055  124.3211  186.8043 C   0  0  0  0  0  0  0  0  0  0  0  0
  115.9155  129.6141  182.1525 O   0  0  0  0  0  0  0  0  0  0  0  0
  117.3226  129.6562  181.8734 C   0  0  0  0  0  0  0  0  0  0  0  0
 22 21  2  0  0  0
 22 23  1  0  0  0
 21 20  1  0  0  0
 23 24  2  0  0  0
 20 19  2  0  0  0
 24 19  1  0  0  0
 19 18  1  0  0  0
 18 17  1  0  0  0
 17 14  1  0  0  0
 17 16  1  0  0  0
 14 13  1  0  0  0
 13 12  1  0  0  0
 16 15  1  0  0  0
 15 12  1  0  0  0
 12 11  1  0  0  0
 11 10  2  0  0  0
 10  9  1  0  0  0
 10  2  1  0  0  0
  9  8  1  0  0  0
  1  2  2  0  0  0
  2  3  1  0  0  0
  8  3  2  0  0  0
  8  7  1  0  0  0
  3  4  1  0  0  0
  7  6  2  0  0  0
  4  5  2  0  0  0
  6  5  1  0  0  0
  6 25  1  0  0  0
 25 26  1  0  0  0
M  END
> <minimizedAffinity>
-9.49232

$$$$
5NAU_DZ0_A_611


 26 29  0  0  0  0  0  0  0  0999 V2000
  109.9987  128.8404  185.3811 O   0  0  0  0  0  0  0  0  0  0  0  0
  109.8838  127.6570  185.1895 C   0  0  0  0  0  0  0  0  0  0  0  0
  108.8561  126.9204  185.5469 C   0  0  0  0  0  0  0  0  0  0  0  0
  107.7682  127.2973  186.1685 C   0  0  0  0  0  0  0  0  0  0  0  0
  106.8014  126.3787  186.4685 C   0  0  0  0  0  0  0  0  0  0  0  0
  107.0097  125.0822  186.0810 C   0  0  0  0  0  0  0  0  0  0  0  0
  108.1756  124.7744  185.4276 C   0  0  0  0  0  0  0  0  0  0  0  0
  109.0821  125.6921  185.1683 C   0  0  0  0  0  0  0  0  0  0  0  0
  110.2658  125.6672  184.5555 C   0  0  0  0  0  0  0  0  0  0  0  0
  110.7506  126.8963  184.5790 C   0  0  0  0  0  0  0  0  0  0  0  0
  111.9027  127.2922  184.0729 C   0  0  0  0  0  0  0  0  0  0  0  0
  112.9786  126.4990  183.3570 C   0  0  0  0  0  0  0  0  0  0  0  0
  112.3911  126.3273  181.9900 C   0  0  0  0  0  0  0  0  0  0  0  0
  113.2856  125.4844  181.1599 C   0  0  0  0  0  0  0  0  0  0  0  0
  114.3200  127.1135  183.2650 C   0  0  0  0  0  0  0  0  0  0  0  0
  115.2164  126.2928  182.3139 C   0  0  0  0  0  0  0  0  0  0  0  0
  114.5952  126.0852  180.9982 N   0  0  0  0  0  0  0  0  0  0  0  0
  115.3950  125.1960  180.1447 C   0  0  0  0  0  0  0  0  0  0  0  0
  116.3451  125.8689  179.3985 C   0  0  0  0  0  0  0  0  0  0  0  0
  116.7064  125.4052  178.1492 C   0  0  0  0  0  0  0  0  0  0  0  0
  117.6489  126.0403  177.3764 C   0  0  0  0  0  0  0  0  0  0  0  0
  118.2470  127.1712  177.8702 C   0  0  0  0  0  0  0  0  0  0  0  0
  117.8751  127.6397  179.1109 C   0  0  0  0  0  0  0  0  0  0  0  0
  116.9307  127.0091  179.8853 C   0  0  0  0  0  0  0  0  0  0  0  0
  106.0842  124.1171  186.3360 O   0  0  0  0  0  0  0  0  0  0  0  0
  104.6754  124.3884  186.3735 C   0  0  0  0  0  0  0  0  0  0  0  0
 22 21  2  0  0  0
 22 23  1  0  0  0
 21 20  1  0  0  0
 23 24  2  0  0  0
 20 19  2  0  0  0
 24 19  1  0  0  0
 19 18  1  0  0  0
 18 17  1  0  0  0
 17 14  1  0  0  0
 17 16  1  0  0  0
 14 13  1  0  0  0
 13 12  1  0  0  0
 16 15  1  0  0  0
 15 12  1  0  0  0
 12 11  1  0  0  0
 11 10  2  0  0  0
 10  9  1  0  0  0
 10  2  1  0  0  0
  9  8  1  0  0  0
  1  2  2  0  0  0
  2  3  1  0  0  0
  8  3  2  0  0  0
  8  7  1  0  0  0
  3  4  1  0  0  0
  7  6  2  0  0  0
  4  5  2  0  0  0
  6  5  1  0  0  0
  6 25  1  0  0  0
 25 26  1  0  0  0
M  END
> <minimizedAffinity>
-9.35953

$$$$
5NAU_DZ0_A_611


 26 29  0  0  0  0  0  0  0  0999 V2000
  111.6519  123.6847  183.8900 O   0  0  0  0  0  0  0  0  0  0  0  0
  111.8929  124.8615  183.8027 C   0  0  0  0  0  0  0  0  0  0  0  0
  113.0176  125.3817  183.3658 C   0  0  0  0  0  0  0  0  0  0  0  0
  114.0871  124.7574  182.9437 C   0  0  0  0  0  0  0  0  0  0  0  0
  115.1766  125.4732  182.5323 C   0  0  0  0  0  0  0  0  0  0  0  0
  115.0922  126.8393  182.5630 C   0  0  0  0  0  0  0  0  0  0  0  0
  113.9306  127.4127  183.0137 C   0  0  0  0  0  0  0  0  0  0  0  0
  112.9103  126.6816  183.4083 C   0  0  0  0  0  0  0  0  0  0  0  0
  111.6941  126.9741  183.8692 C   0  0  0  0  0  0  0  0  0  0  0  0
  111.0760  125.8313  184.1107 C   0  0  0  0  0  0  0  0  0  0  0  0
  109.8497  125.6887  184.5754 C   0  0  0  0  0  0  0  0  0  0  0  0
  108.8270  126.7365  184.9696 C   0  0  0  0  0  0  0  0  0  0  0  0
  108.1117  126.0718  186.1054 C   0  0  0  0  0  0  0  0  0  0  0  0
  106.9978  126.9327  186.5716 C   0  0  0  0  0  0  0  0  0  0  0  0
  109.3427  128.0564  185.3910 C   0  0  0  0  0  0  0  0  0  0  0  0
  108.1992  128.9115  185.9765 C   0  0  0  0  0  0  0  0  0  0  0  0
  107.4725  128.2169  187.0486 N   0  0  0  0  0  0  0  0  0  0  0  0
  106.3071  128.9830  187.5111 C   0  0  0  0  0  0  0  0  0  0  0  0
  106.6491  130.1676  188.1371 C   0  0  0  0  0  0  0  0  0  0  0  0
  105.9362  131.3220  187.8812 C   0  0  0  0  0  0  0  0  0  0  0  0
  106.2448  132.5211  188.4777 C   0  0  0  0  0  0  0  0  0  0  0  0
  107.2983  132.5646  189.3545 C   0  0  0  0  0  0  0  0  0  0  0  0
  107.9994  131.4088  189.6188 C   0  0  0  0  0  0  0  0  0  0  0  0
  107.6918  130.2072  189.0266 C   0  0  0  0  0  0  0  0  0  0  0  0
  116.1343  127.6152  182.1567 O   0  0  0  0  0  0  0  0  0  0  0  0
  115.9711  128.9879  181.7710 C   0  0  0  0  0  0  0  0  0  0  0  0
 22 21  2  0  0  0
 22 23  1  0  0  0
 21 20  1  0  0  0
 23 24  2  0  0  0
 20 19  2  0  0  0
 24 19  1  0  0  0
 19 18  1  0  0  0
 18 17  1  0  0  0
 17 14  1  0  0  0
 17 16  1  0  0  0
 14 13  1  0  0  0
 13 12  1  0  0  0
 16 15  1  0  0  0
 15 12  1  0  0  0
 12 11  1  0  0  0
 11 10  2  0  0  0
 10  9  1  0  0  0
 10  2  1  0  0  0
  9  8  1  0  0  0
  1  2  2  0  0  0
  2  3  1  0  0  0
  8  3  2  0  0  0
  8  7  1  0  0  0
  3  4  1  0  0  0
  7  6  2  0  0  0
  4  5  2  0  0  0
  6  5  1  0  0  0
  6 25  1  0  0  0
 25 26  1  0  0  0
M  END
> <minimizedAffinity>
-9.19884

$$$$
