3NHI_EAH_A_1


 25 24  0  0  0  0  0  0  0  0999 V2000
   -9.6867    2.2660   15.8344 C   0  0  0  0  0  0  0  0  0  0  0  0
   -8.4270    1.5356   16.2497 C   0  0  0  0  0  0  0  0  0  0  0  0
   -8.3429    1.4911   17.7049 C   0  0  0  0  0  0  0  0  0  0  0  0
   -7.1128    1.1638   18.0983 C   0  0  0  0  0  0  0  0  0  0  0  0
   -7.0822    1.1391   19.5585 C   0  0  0  0  0  0  0  0  0  0  0  0
   -6.2833    0.3385   20.2689 C   0  0  0  0  0  0  0  0  0  0  0  0
   -5.3283   -0.6542   19.6476 C   0  0  0  0  0  0  0  0  0  0  0  0
   -4.7484   -1.5031   20.7579 C   0  0  0  0  0  0  0  0  0  0  0  0
   -3.5187   -1.3552   21.2559 C   0  0  0  0  0  0  0  0  0  0  0  0
   -2.5350   -0.3234   20.7600 C   0  0  0  0  0  0  0  0  0  0  0  0
   -2.7890    0.9870   21.4890 C   0  0  0  0  0  0  0  0  0  0  0  0
   -1.4884    1.7516   21.6914 C   0  0  0  0  0  0  0  0  0  0  0  0
   -0.3056    0.9212   21.2218 C   0  0  0  0  0  0  0  0  0  0  0  0
    0.7016    0.7465   22.3349 C   0  0  0  0  0  0  0  0  0  0  0  0
   -9.6749    2.5246   14.3364 C   0  0  0  0  0  0  0  0  0  0  0  0
  -10.3451    1.3883   13.5687 C   0  0  0  0  0  0  0  0  0  0  0  0
  -11.6609    1.4097   13.7857 O   0  0  0  0  0  0  0  0  0  0  0  0
  -12.0261    2.2532   13.4755 H   0  0  0  0  0  0  0  0  0  0  0  0
  -10.0887    1.5379   12.0837 C   0  0  0  0  0  0  0  0  0  0  0  0
   -9.4436    0.2716   11.5252 C   0  0  0  0  0  0  0  0  0  0  0  0
   -9.3813   -0.8380   12.5773 C   0  0  0  0  0  0  0  0  0  0  0  0
  -10.2865   -2.7816   11.5314 O   0  0  0  0  0  0  0  0  0  0  0  0
  -10.4813   -1.8592   12.3635 C   0  0  0  0  0  0  0  0  0  0  0  0
  -11.5438   -1.7569   13.0241 O   0  0  0  0  0  0  0  0  0  0  0  0
  -11.6499   -1.0543   13.6349 H   0  0  0  0  0  0  0  0  0  0  0  0
 23 22  2  0  0  0
 23 24  1  0  0  0
 21 23  1  0  0  0
 20 21  1  0  0  0
 19 20  1  0  0  0
 16 19  1  0  0  0
 16 15  1  0  0  0
 17 16  1  0  0  0
  1 15  1  0  0  0
  2  1  2  0  0  0
  3  2  1  0  0  0
  4  3  2  0  0  0
  5  4  1  0  0  0
  6  5  2  0  0  0
  7  6  1  0  0  0
  8  7  1  0  0  0
  9  8  2  0  0  0
 10  9  1  0  0  0
 10 11  1  0  0  0
 11 12  1  0  0  0
 13 12  1  0  0  0
 13 14  1  0  0  0
 24 25  1  0  0  0
 17 18  1  0  0  0
M  END
> <minimizedAffinity>
-8.71080

$$$$
3NHI_EAH_A_1


 25 24  0  0  0  0  0  0  0  0999 V2000
   -5.5510   -0.0189   20.7707 C   0  0  0  0  0  0  0  0  0  0  0  0
   -5.7460    0.5643   19.3870 C   0  0  0  0  0  0  0  0  0  0  0  0
   -7.0410    1.2308   19.3135 C   0  0  0  0  0  0  0  0  0  0  0  0
   -7.5956    1.0571   18.1148 C   0  0  0  0  0  0  0  0  0  0  0  0
   -8.8882    1.7373   18.0969 C   0  0  0  0  0  0  0  0  0  0  0  0
   -9.5349    2.0691   16.9763 C   0  0  0  0  0  0  0  0  0  0  0  0
   -8.9974    1.7992   15.5900 C   0  0  0  0  0  0  0  0  0  0  0  0
   -9.3351    2.9888   14.7178 C   0  0  0  0  0  0  0  0  0  0  0  0
  -10.0720    2.9235   13.6066 C   0  0  0  0  0  0  0  0  0  0  0  0
  -10.6546    1.6409   13.0645 C   0  0  0  0  0  0  0  0  0  0  0  0
  -10.0555    1.3710   11.6929 C   0  0  0  0  0  0  0  0  0  0  0  0
   -9.3363    0.0296   11.6738 C   0  0  0  0  0  0  0  0  0  0  0  0
  -10.0171   -0.9514   12.6136 C   0  0  0  0  0  0  0  0  0  0  0  0
   -9.6828   -2.3758   12.2349 C   0  0  0  0  0  0  0  0  0  0  0  0
   -4.3199   -0.9103   20.7969 C   0  0  0  0  0  0  0  0  0  0  0  0
   -4.6680   -2.3298   21.2369 C   0  0  0  0  0  0  0  0  0  0  0  0
   -5.8891   -2.6504   20.8066 O   0  0  0  0  0  0  0  0  0  0  0  0
   -5.9115   -2.6103   19.8377 H   0  0  0  0  0  0  0  0  0  0  0  0
   -3.6702   -3.3144   20.6640 C   0  0  0  0  0  0  0  0  0  0  0  0
   -3.5017   -4.5074   21.6022 C   0  0  0  0  0  0  0  0  0  0  0  0
   -2.2183   -4.3955   22.4282 C   0  0  0  0  0  0  0  0  0  0  0  0
   -1.0620   -6.3568   23.1404 O   0  0  0  0  0  0  0  0  0  0  0  0
   -1.3027   -5.5788   22.1824 C   0  0  0  0  0  0  0  0  0  0  0  0
   -0.8209   -5.7479   21.0357 O   0  0  0  0  0  0  0  0  0  0  0  0
   -1.0249   -5.1448   20.3482 H   0  0  0  0  0  0  0  0  0  0  0  0
 23 22  2  0  0  0
 23 24  1  0  0  0
 21 23  1  0  0  0
 20 21  1  0  0  0
 19 20  1  0  0  0
 16 19  1  0  0  0
 16 15  1  0  0  0
 17 16  1  0  0  0
  1 15  1  0  0  0
  2  1  2  0  0  0
  3  2  1  0  0  0
  4  3  2  0  0  0
  5  4  1  0  0  0
  6  5  2  0  0  0
  7  6  1  0  0  0
  8  7  1  0  0  0
  9  8  2  0  0  0
 10  9  1  0  0  0
 10 11  1  0  0  0
 11 12  1  0  0  0
 13 12  1  0  0  0
 13 14  1  0  0  0
 24 25  1  0  0  0
 17 18  1  0  0  0
M  END
> <minimizedAffinity>
-8.52973

$$$$
3NHI_EAH_A_1


 25 24  0  0  0  0  0  0  0  0999 V2000
   -6.3623    0.6887   20.0098 C   0  0  0  0  0  0  0  0  0  0  0  0
   -6.7557    0.9212   18.5662 C   0  0  0  0  0  0  0  0  0  0  0  0
   -8.0995    1.4845   18.5085 C   0  0  0  0  0  0  0  0  0  0  0  0
   -8.5989    1.3930   17.2769 C   0  0  0  0  0  0  0  0  0  0  0  0
   -9.9433    1.9641   17.2760 C   0  0  0  0  0  0  0  0  0  0  0  0
  -10.7754    1.8977   16.2332 C   0  0  0  0  0  0  0  0  0  0  0  0
  -10.4186    1.2410   14.9199 C   0  0  0  0  0  0  0  0  0  0  0  0
  -11.3543    1.7784   13.8590 C   0  0  0  0  0  0  0  0  0  0  0  0
  -11.0138    1.9754   12.5833 C   0  0  0  0  0  0  0  0  0  0  0  0
   -9.6349    1.6996   12.0345 C   0  0  0  0  0  0  0  0  0  0  0  0
   -9.6462    0.3493   11.3351 C   0  0  0  0  0  0  0  0  0  0  0  0
   -9.0233   -0.7210   12.2202 C   0  0  0  0  0  0  0  0  0  0  0  0
   -9.9998   -1.8647   12.4377 C   0  0  0  0  0  0  0  0  0  0  0  0
   -9.2646   -3.1782   12.5736 C   0  0  0  0  0  0  0  0  0  0  0  0
   -5.0690   -0.1073   20.0806 C   0  0  0  0  0  0  0  0  0  0  0  0
   -5.2336   -1.3647   20.9302 C   0  0  0  0  0  0  0  0  0  0  0  0
   -5.4459   -2.4192   20.1416 O   0  0  0  0  0  0  0  0  0  0  0  0
   -4.6859   -2.5395   19.5510 H   0  0  0  0  0  0  0  0  0  0  0  0
   -3.9848   -1.6080   21.7516 C   0  0  0  0  0  0  0  0  0  0  0  0
   -2.8330   -0.7486   21.2354 C   0  0  0  0  0  0  0  0  0  0  0  0
   -2.1328   -0.0048   22.3748 C   0  0  0  0  0  0  0  0  0  0  0  0
   -2.4329    2.3618   22.3897 O   0  0  0  0  0  0  0  0  0  0  0  0
   -2.8915    1.2506   22.7585 C   0  0  0  0  0  0  0  0  0  0  0  0
   -3.9508    1.1425   23.4232 O   0  0  0  0  0  0  0  0  0  0  0  0
   -4.2592    0.2954   23.6788 H   0  0  0  0  0  0  0  0  0  0  0  0
 23 22  2  0  0  0
 23 24  1  0  0  0
 21 23  1  0  0  0
 20 21  1  0  0  0
 19 20  1  0  0  0
 16 19  1  0  0  0
 16 15  1  0  0  0
 17 16  1  0  0  0
  1 15  1  0  0  0
  2  1  2  0  0  0
  3  2  1  0  0  0
  4  3  2  0  0  0
  5  4  1  0  0  0
  6  5  2  0  0  0
  7  6  1  0  0  0
  8  7  1  0  0  0
  9  8  2  0  0  0
 10  9  1  0  0  0
 10 11  1  0  0  0
 11 12  1  0  0  0
 13 12  1  0  0  0
 13 14  1  0  0  0
 24 25  1  0  0  0
 17 18  1  0  0  0
M  END
> <minimizedAffinity>
-8.30859

$$$$
3NHI_EAH_A_1


 25 24  0  0  0  0  0  0  0  0999 V2000
   -5.8303    0.4435   20.6326 C   0  0  0  0  0  0  0  0  0  0  0  0
   -6.0876    0.7482   19.1719 C   0  0  0  0  0  0  0  0  0  0  0  0
   -7.4557    1.2240   19.0035 C   0  0  0  0  0  0  0  0  0  0  0  0
   -7.8032    1.2211   17.7174 C   0  0  0  0  0  0  0  0  0  0  0  0
   -9.1790    1.6992   17.6059 C   0  0  0  0  0  0  0  0  0  0  0  0
   -9.7494    2.0503   16.4503 C   0  0  0  0  0  0  0  0  0  0  0  0
   -9.0333    2.0152   15.1201 C   0  0  0  0  0  0  0  0  0  0  0  0
   -9.6107    3.1098   14.2492 C   0  0  0  0  0  0  0  0  0  0  0  0
  -10.3262    2.8942   13.1431 C   0  0  0  0  0  0  0  0  0  0  0  0
  -10.6403    1.5190   12.6059 C   0  0  0  0  0  0  0  0  0  0  0  0
   -9.5333    1.1005   11.6509 C   0  0  0  0  0  0  0  0  0  0  0  0
   -9.6689   -0.3696   11.2801 C   0  0  0  0  0  0  0  0  0  0  0  0
  -10.1123   -1.1824   12.4850 C   0  0  0  0  0  0  0  0  0  0  0  0
   -9.4837   -2.5567   12.4647 C   0  0  0  0  0  0  0  0  0  0  0  0
   -4.4967   -0.2682   20.7943 C   0  0  0  0  0  0  0  0  0  0  0  0
   -3.8004    0.1391   22.0900 C   0  0  0  0  0  0  0  0  0  0  0  0
   -4.5873    0.9589   22.7884 O   0  0  0  0  0  0  0  0  0  0  0  0
   -5.4144    0.5029   23.0093 H   0  0  0  0  0  0  0  0  0  0  0  0
   -3.4978   -1.0852   22.9284 C   0  0  0  0  0  0  0  0  0  0  0  0
   -4.0304   -2.3426   22.2450 C   0  0  0  0  0  0  0  0  0  0  0  0
   -4.8961   -3.1740   23.1943 C   0  0  0  0  0  0  0  0  0  0  0  0
   -7.0412   -2.3245   22.5879 O   0  0  0  0  0  0  0  0  0  0  0  0
   -6.1990   -2.4662   23.5108 C   0  0  0  0  0  0  0  0  0  0  0  0
   -6.3984   -2.0511   24.6786 O   0  0  0  0  0  0  0  0  0  0  0  0
   -5.7449   -2.1766   25.3383 H   0  0  0  0  0  0  0  0  0  0  0  0
 23 22  2  0  0  0
 23 24  1  0  0  0
 21 23  1  0  0  0
 20 21  1  0  0  0
 19 20  1  0  0  0
 16 19  1  0  0  0
 16 15  1  0  0  0
 17 16  1  0  0  0
  1 15  1  0  0  0
  2  1  2  0  0  0
  3  2  1  0  0  0
  4  3  2  0  0  0
  5  4  1  0  0  0
  6  5  2  0  0  0
  7  6  1  0  0  0
  8  7  1  0  0  0
  9  8  2  0  0  0
 10  9  1  0  0  0
 10 11  1  0  0  0
 11 12  1  0  0  0
 13 12  1  0  0  0
 13 14  1  0  0  0
 24 25  1  0  0  0
 17 18  1  0  0  0
M  END
> <minimizedAffinity>
-8.23681

$$$$
3NHI_EAH_A_1


 25 24  0  0  0  0  0  0  0  0999 V2000
   -5.4557   -0.0099   20.6517 C   0  0  0  0  0  0  0  0  0  0  0  0
   -6.5269    0.8810   20.0588 C   0  0  0  0  0  0  0  0  0  0  0  0
   -6.4618    0.8242   18.6031 C   0  0  0  0  0  0  0  0  0  0  0  0
   -7.6004    1.2538   18.0610 C   0  0  0  0  0  0  0  0  0  0  0  0
   -7.4801    1.1818   16.6070 C   0  0  0  0  0  0  0  0  0  0  0  0
   -8.5206    1.2592   15.7732 C   0  0  0  0  0  0  0  0  0  0  0  0
   -9.9518    1.4099   16.2343 C   0  0  0  0  0  0  0  0  0  0  0  0
  -10.7180    2.1370   15.1508 C   0  0  0  0  0  0  0  0  0  0  0  0
  -11.1082    1.5815   14.0014 C   0  0  0  0  0  0  0  0  0  0  0  0
  -10.8187    0.1487   13.6252 C   0  0  0  0  0  0  0  0  0  0  0  0
   -9.6484    0.1231   12.6543 C   0  0  0  0  0  0  0  0  0  0  0  0
   -9.8114   -1.0036   11.6438 C   0  0  0  0  0  0  0  0  0  0  0  0
  -10.1593   -2.3036   12.3496 C   0  0  0  0  0  0  0  0  0  0  0  0
   -8.9123   -3.1082   12.6354 C   0  0  0  0  0  0  0  0  0  0  0  0
   -5.3567    0.2141   22.1521 C   0  0  0  0  0  0  0  0  0  0  0  0
   -3.9750    0.7264   22.5498 C   0  0  0  0  0  0  0  0  0  0  0  0
   -3.4237   -0.1014   23.4384 O   0  0  0  0  0  0  0  0  0  0  0  0
   -3.3277   -0.9822   23.0436 H   0  0  0  0  0  0  0  0  0  0  0  0
   -3.0779    0.8100   21.3325 C   0  0  0  0  0  0  0  0  0  0  0  0
   -1.9267    1.7806   21.5860 C   0  0  0  0  0  0  0  0  0  0  0  0
   -0.5687    1.0862   21.4606 C   0  0  0  0  0  0  0  0  0  0  0  0
   -0.6233    1.0637   23.8454 O   0  0  0  0  0  0  0  0  0  0  0  0
    0.0840    0.9083   22.8175 C   0  0  0  0  0  0  0  0  0  0  0  0
    1.3013    0.6071   22.8727 O   0  0  0  0  0  0  0  0  0  0  0  0
    1.7938    0.5002   22.0827 H   0  0  0  0  0  0  0  0  0  0  0  0
 23 22  2  0  0  0
 23 24  1  0  0  0
 21 23  1  0  0  0
 20 21  1  0  0  0
 19 20  1  0  0  0
 16 19  1  0  0  0
 16 15  1  0  0  0
 17 16  1  0  0  0
  1 15  1  0  0  0
  2  1  2  0  0  0
  3  2  1  0  0  0
  4  3  2  0  0  0
  5  4  1  0  0  0
  6  5  2  0  0  0
  7  6  1  0  0  0
  8  7  1  0  0  0
  9  8  2  0  0  0
 10  9  1  0  0  0
 10 11  1  0  0  0
 11 12  1  0  0  0
 13 12  1  0  0  0
 13 14  1  0  0  0
 24 25  1  0  0  0
 17 18  1  0  0  0
M  END
> <minimizedAffinity>
-7.98691

$$$$
3NHI_EAH_A_1


 25 24  0  0  0  0  0  0  0  0999 V2000
   -9.5890    2.0946   15.8580 C   0  0  0  0  0  0  0  0  0  0  0  0
   -8.3588    1.3354   16.3084 C   0  0  0  0  0  0  0  0  0  0  0  0
   -8.1816    1.4973   17.7468 C   0  0  0  0  0  0  0  0  0  0  0  0
   -7.0459    0.9302   18.1508 C   0  0  0  0  0  0  0  0  0  0  0  0
   -6.9152    1.1256   19.5925 C   0  0  0  0  0  0  0  0  0  0  0  0
   -6.0829    0.4199   20.3629 C   0  0  0  0  0  0  0  0  0  0  0  0
   -5.1902   -0.6811   19.8391 C   0  0  0  0  0  0  0  0  0  0  0  0
   -3.9687   -0.7559   20.7291 C   0  0  0  0  0  0  0  0  0  0  0  0
   -3.5305   -1.8723   21.3152 C   0  0  0  0  0  0  0  0  0  0  0  0
   -4.2124   -3.2118   21.1766 C   0  0  0  0  0  0  0  0  0  0  0  0
   -4.4193   -3.8028   22.5625 C   0  0  0  0  0  0  0  0  0  0  0  0
   -5.8059   -3.4634   23.0912 C   0  0  0  0  0  0  0  0  0  0  0  0
   -5.7655   -2.1782   23.9009 C   0  0  0  0  0  0  0  0  0  0  0  0
   -6.4404   -2.3674   25.2399 C   0  0  0  0  0  0  0  0  0  0  0  0
   -9.6585    2.1300   14.3398 C   0  0  0  0  0  0  0  0  0  0  0  0
  -11.0613    1.7987   13.8376 C   0  0  0  0  0  0  0  0  0  0  0  0
  -11.3634    2.5732   12.7945 O   0  0  0  0  0  0  0  0  0  0  0  0
  -10.7298    2.4121   12.0779 H   0  0  0  0  0  0  0  0  0  0  0  0
  -11.1347    0.3476   13.4106 C   0  0  0  0  0  0  0  0  0  0  0  0
  -10.1198    0.0666   12.3049 C   0  0  0  0  0  0  0  0  0  0  0  0
   -9.1154   -1.0091   12.7245 C   0  0  0  0  0  0  0  0  0  0  0  0
   -8.9847   -3.3903   12.7853 O   0  0  0  0  0  0  0  0  0  0  0  0
   -9.5915   -2.3912   12.3220 C   0  0  0  0  0  0  0  0  0  0  0  0
  -10.5744   -2.4952   11.5482 O   0  0  0  0  0  0  0  0  0  0  0  0
  -10.9994   -1.7254   11.2246 H   0  0  0  0  0  0  0  0  0  0  0  0
 23 22  2  0  0  0
 23 24  1  0  0  0
 21 23  1  0  0  0
 20 21  1  0  0  0
 19 20  1  0  0  0
 16 19  1  0  0  0
 16 15  1  0  0  0
 17 16  1  0  0  0
  1 15  1  0  0  0
  2  1  2  0  0  0
  3  2  1  0  0  0
  4  3  2  0  0  0
  5  4  1  0  0  0
  6  5  2  0  0  0
  7  6  1  0  0  0
  8  7  1  0  0  0
  9  8  2  0  0  0
 10  9  1  0  0  0
 10 11  1  0  0  0
 11 12  1  0  0  0
 13 12  1  0  0  0
 13 14  1  0  0  0
 24 25  1  0  0  0
 17 18  1  0  0  0
M  END
> <minimizedAffinity>
-7.89003

$$$$
3NHI_EAH_A_1


 25 24  0  0  0  0  0  0  0  0999 V2000
   -5.5815   -0.2026   20.5031 C   0  0  0  0  0  0  0  0  0  0  0  0
   -5.0719   -1.5370   20.0010 C   0  0  0  0  0  0  0  0  0  0  0  0
   -4.7408   -2.3936   21.1338 C   0  0  0  0  0  0  0  0  0  0  0  0
   -3.4215   -2.4619   21.3062 C   0  0  0  0  0  0  0  0  0  0  0  0
   -3.1459   -3.3243   22.4525 C   0  0  0  0  0  0  0  0  0  0  0  0
   -2.3652   -2.9683   23.4761 C   0  0  0  0  0  0  0  0  0  0  0  0
   -1.6553   -1.6371   23.5623 C   0  0  0  0  0  0  0  0  0  0  0  0
   -2.3603   -0.7979   24.6057 C   0  0  0  0  0  0  0  0  0  0  0  0
   -3.1135    0.2695   24.3314 C   0  0  0  0  0  0  0  0  0  0  0  0
   -3.3477    0.7901   22.9341 C   0  0  0  0  0  0  0  0  0  0  0  0
   -2.3226    1.8732   22.6358 C   0  0  0  0  0  0  0  0  0  0  0  0
   -1.9292    1.8523   21.1655 C   0  0  0  0  0  0  0  0  0  0  0  0
   -0.8507    0.8106   20.9191 C   0  0  0  0  0  0  0  0  0  0  0  0
    0.2416    0.9144   21.9586 C   0  0  0  0  0  0  0  0  0  0  0  0
   -5.7105    0.7789   19.3494 C   0  0  0  0  0  0  0  0  0  0  0  0
   -7.1734    1.0547   19.0124 C   0  0  0  0  0  0  0  0  0  0  0  0
   -7.5293    2.2500   19.4854 O   0  0  0  0  0  0  0  0  0  0  0  0
   -6.9803    2.9366   19.0753 H   0  0  0  0  0  0  0  0  0  0  0  0
   -7.3763    1.0390   17.5118 C   0  0  0  0  0  0  0  0  0  0  0  0
   -8.7421    1.6205   17.1538 C   0  0  0  0  0  0  0  0  0  0  0  0
   -8.7942    2.0737   15.6930 C   0  0  0  0  0  0  0  0  0  0  0  0
   -9.5196    0.5744   13.9851 O   0  0  0  0  0  0  0  0  0  0  0  0
   -9.8708    1.3309   14.9261 C   0  0  0  0  0  0  0  0  0  0  0  0
  -11.0717    1.4882   15.2558 O   0  0  0  0  0  0  0  0  0  0  0  0
  -11.2920    2.0615   15.9634 H   0  0  0  0  0  0  0  0  0  0  0  0
 23 22  2  0  0  0
 23 24  1  0  0  0
 21 23  1  0  0  0
 20 21  1  0  0  0
 19 20  1  0  0  0
 16 19  1  0  0  0
 16 15  1  0  0  0
 17 16  1  0  0  0
  1 15  1  0  0  0
  2  1  2  0  0  0
  3  2  1  0  0  0
  4  3  2  0  0  0
  5  4  1  0  0  0
  6  5  2  0  0  0
  7  6  1  0  0  0
  8  7  1  0  0  0
  9  8  2  0  0  0
 10  9  1  0  0  0
 10 11  1  0  0  0
 11 12  1  0  0  0
 13 12  1  0  0  0
 13 14  1  0  0  0
 24 25  1  0  0  0
 17 18  1  0  0  0
M  END
> <minimizedAffinity>
-7.85973

$$$$
3NHI_EAH_A_1


 25 24  0  0  0  0  0  0  0  0999 V2000
   -9.2635    2.0364   16.3408 C   0  0  0  0  0  0  0  0  0  0  0  0
   -8.0579    1.2525   16.8146 C   0  0  0  0  0  0  0  0  0  0  0  0
   -7.9864    1.2947   18.2705 C   0  0  0  0  0  0  0  0  0  0  0  0
   -6.7884    0.8983   18.6975 C   0  0  0  0  0  0  0  0  0  0  0  0
   -6.7688    0.9648   20.1566 C   0  0  0  0  0  0  0  0  0  0  0  0
   -5.7964    0.4423   20.9086 C   0  0  0  0  0  0  0  0  0  0  0  0
   -4.6084   -0.2996   20.3415 C   0  0  0  0  0  0  0  0  0  0  0  0
   -5.0581   -1.6999   19.9853 C   0  0  0  0  0  0  0  0  0  0  0  0
   -4.9826   -2.7480   20.8085 C   0  0  0  0  0  0  0  0  0  0  0  0
   -4.4193   -2.6732   22.2069 C   0  0  0  0  0  0  0  0  0  0  0  0
   -3.8713   -4.0395   22.5889 C   0  0  0  0  0  0  0  0  0  0  0  0
   -2.5242   -4.2846   21.9239 C   0  0  0  0  0  0  0  0  0  0  0  0
   -2.0590   -5.7091   22.1758 C   0  0  0  0  0  0  0  0  0  0  0  0
   -0.5522   -5.7708   22.2754 C   0  0  0  0  0  0  0  0  0  0  0  0
   -9.2247    2.1984   14.8297 C   0  0  0  0  0  0  0  0  0  0  0  0
  -10.1304    1.1841   14.1364 C   0  0  0  0  0  0  0  0  0  0  0  0
  -11.3926    1.3611   14.5296 O   0  0  0  0  0  0  0  0  0  0  0  0
  -11.6839    2.2545   14.2891 H   0  0  0  0  0  0  0  0  0  0  0  0
  -10.0545    1.3563   12.6338 C   0  0  0  0  0  0  0  0  0  0  0  0
   -9.8727    0.0022   11.9518 C   0  0  0  0  0  0  0  0  0  0  0  0
   -9.2803   -1.0340   12.9095 C   0  0  0  0  0  0  0  0  0  0  0  0
  -10.3186   -2.6191   11.4603 O   0  0  0  0  0  0  0  0  0  0  0  0
   -9.4951   -2.4436   12.3941 C   0  0  0  0  0  0  0  0  0  0  0  0
   -8.8438   -3.3856   12.9081 O   0  0  0  0  0  0  0  0  0  0  0  0
   -8.2392   -3.2129   13.6028 H   0  0  0  0  0  0  0  0  0  0  0  0
 23 22  2  0  0  0
 23 24  1  0  0  0
 21 23  1  0  0  0
 20 21  1  0  0  0
 19 20  1  0  0  0
 16 19  1  0  0  0
 16 15  1  0  0  0
 17 16  1  0  0  0
  1 15  1  0  0  0
  2  1  2  0  0  0
  3  2  1  0  0  0
  4  3  2  0  0  0
  5  4  1  0  0  0
  6  5  2  0  0  0
  7  6  1  0  0  0
  8  7  1  0  0  0
  9  8  2  0  0  0
 10  9  1  0  0  0
 10 11  1  0  0  0
 11 12  1  0  0  0
 13 12  1  0  0  0
 13 14  1  0  0  0
 24 25  1  0  0  0
 17 18  1  0  0  0
M  END
> <minimizedAffinity>
-7.81383

$$$$
3NHI_EAH_A_1


 25 24  0  0  0  0  0  0  0  0999 V2000
   -5.7167   -0.0208   20.5628 C   0  0  0  0  0  0  0  0  0  0  0  0
   -5.9475    0.7133   19.2588 C   0  0  0  0  0  0  0  0  0  0  0  0
   -7.2912    1.2797   19.2458 C   0  0  0  0  0  0  0  0  0  0  0  0
   -7.8008    1.2619   18.0151 C   0  0  0  0  0  0  0  0  0  0  0  0
   -9.1446    1.8328   18.0593 C   0  0  0  0  0  0  0  0  0  0  0  0
   -9.8967    2.0410   16.9753 C   0  0  0  0  0  0  0  0  0  0  0  0
   -9.4399    1.7299   15.5688 C   0  0  0  0  0  0  0  0  0  0  0  0
   -9.2432    3.0416   14.8402 C   0  0  0  0  0  0  0  0  0  0  0  0
   -9.9017    3.3955   13.7343 C   0  0  0  0  0  0  0  0  0  0  0  0
  -10.9244    2.5183   13.0540 C   0  0  0  0  0  0  0  0  0  0  0  0
  -10.2050    1.5671   12.1103 C   0  0  0  0  0  0  0  0  0  0  0  0
  -10.4167    0.1217   12.5379 C   0  0  0  0  0  0  0  0  0  0  0  0
   -9.7058   -0.8238   11.5840 C   0  0  0  0  0  0  0  0  0  0  0  0
   -8.5912   -0.1102   10.8541 C   0  0  0  0  0  0  0  0  0  0  0  0
   -4.4181   -0.8088   20.4999 C   0  0  0  0  0  0  0  0  0  0  0  0
   -3.4682   -0.4098   21.6261 C   0  0  0  0  0  0  0  0  0  0  0  0
   -2.2394   -0.2300   21.1395 O   0  0  0  0  0  0  0  0  0  0  0  0
   -2.2541    0.4796   20.4783 H   0  0  0  0  0  0  0  0  0  0  0  0
   -3.9349    0.8778   22.2724 C   0  0  0  0  0  0  0  0  0  0  0  0
   -2.7687    1.8527   22.4181 C   0  0  0  0  0  0  0  0  0  0  0  0
   -2.7258    2.4720   23.8169 C   0  0  0  0  0  0  0  0  0  0  0  0
   -0.8482    1.4671   24.8920 O   0  0  0  0  0  0  0  0  0  0  0  0
   -2.1024    1.5206   24.8194 C   0  0  0  0  0  0  0  0  0  0  0  0
   -2.8528    0.8243   25.5459 O   0  0  0  0  0  0  0  0  0  0  0  0
   -3.7833    0.8936   25.4608 H   0  0  0  0  0  0  0  0  0  0  0  0
 23 22  2  0  0  0
 23 24  1  0  0  0
 21 23  1  0  0  0
 20 21  1  0  0  0
 19 20  1  0  0  0
 16 19  1  0  0  0
 16 15  1  0  0  0
 17 16  1  0  0  0
  1 15  1  0  0  0
  2  1  2  0  0  0
  3  2  1  0  0  0
  4  3  2  0  0  0
  5  4  1  0  0  0
  6  5  2  0  0  0
  7  6  1  0  0  0
  8  7  1  0  0  0
  9  8  2  0  0  0
 10  9  1  0  0  0
 10 11  1  0  0  0
 11 12  1  0  0  0
 13 12  1  0  0  0
 13 14  1  0  0  0
 24 25  1  0  0  0
 17 18  1  0  0  0
M  END
> <minimizedAffinity>
-7.78859

$$$$
3NHI_EAH_A_1


 25 24  0  0  0  0  0  0  0  0999 V2000
   -3.8506    0.4322   20.9504 C   0  0  0  0  0  0  0  0  0  0  0  0
   -4.8552   -0.4083   20.1909 C   0  0  0  0  0  0  0  0  0  0  0  0
   -6.1534    0.2560   20.1948 C   0  0  0  0  0  0  0  0  0  0  0  0
   -6.3721    0.8751   19.0356 C   0  0  0  0  0  0  0  0  0  0  0  0
   -7.6831    1.5167   19.0906 C   0  0  0  0  0  0  0  0  0  0  0  0
   -8.4977    1.6282   18.0379 C   0  0  0  0  0  0  0  0  0  0  0  0
   -8.1523    1.1219   16.6566 C   0  0  0  0  0  0  0  0  0  0  0  0
   -8.4783    2.2154   15.6627 C   0  0  0  0  0  0  0  0  0  0  0  0
   -9.6161    2.2880   14.9683 C   0  0  0  0  0  0  0  0  0  0  0  0
  -10.7263    1.2710   15.0749 C   0  0  0  0  0  0  0  0  0  0  0  0
  -11.0980    0.8020   13.6768 C   0  0  0  0  0  0  0  0  0  0  0  0
  -10.1805    1.4291   12.6366 C   0  0  0  0  0  0  0  0  0  0  0  0
   -9.5584    0.3547   11.7605 C   0  0  0  0  0  0  0  0  0  0  0  0
   -9.6606   -1.0007   12.4212 C   0  0  0  0  0  0  0  0  0  0  0  0
   -2.5614   -0.3469   21.1555 C   0  0  0  0  0  0  0  0  0  0  0  0
   -2.4584   -0.8909   22.5779 C   0  0  0  0  0  0  0  0  0  0  0  0
   -2.9457    0.0021   23.4405 O   0  0  0  0  0  0  0  0  0  0  0  0
   -3.8793    0.1710   23.2383 H   0  0  0  0  0  0  0  0  0  0  0  0
   -3.2468   -2.1777   22.7039 C   0  0  0  0  0  0  0  0  0  0  0  0
   -4.1934   -2.1065   23.9000 C   0  0  0  0  0  0  0  0  0  0  0  0
   -5.6510   -1.9677   23.4551 C   0  0  0  0  0  0  0  0  0  0  0  0
   -7.4344   -3.1418   24.5191 O   0  0  0  0  0  0  0  0  0  0  0  0
   -6.4388   -3.2278   23.7559 C   0  0  0  0  0  0  0  0  0  0  0  0
   -6.0790   -4.3104   23.2323 O   0  0  0  0  0  0  0  0  0  0  0  0
   -5.3307   -4.3323   22.6687 H   0  0  0  0  0  0  0  0  0  0  0  0
 23 22  2  0  0  0
 23 24  1  0  0  0
 21 23  1  0  0  0
 20 21  1  0  0  0
 19 20  1  0  0  0
 16 19  1  0  0  0
 16 15  1  0  0  0
 17 16  1  0  0  0
  1 15  1  0  0  0
  2  1  2  0  0  0
  3  2  1  0  0  0
  4  3  2  0  0  0
  5  4  1  0  0  0
  6  5  2  0  0  0
  7  6  1  0  0  0
  8  7  1  0  0  0
  9  8  2  0  0  0
 10  9  1  0  0  0
 10 11  1  0  0  0
 11 12  1  0  0  0
 13 12  1  0  0  0
 13 14  1  0  0  0
 24 25  1  0  0  0
 17 18  1  0  0  0
M  END
> <minimizedAffinity>
-7.74775

$$$$
