6HSH_GOK_A_504


 32 35  0  0  0  0  0  0  0  0999 V2000
   42.1615   36.3819   86.3686 C   0  0  0  0  0  0  0  0  0  0  0  0
   42.5824   35.7139   85.1343 N   0  0  0  0  0  0  0  0  0  0  0  0
   41.9708   36.2846   83.9308 C   0  0  0  0  0  0  0  0  0  0  0  0
   42.4405   37.8765   86.3122 C   0  0  0  0  0  0  0  0  0  0  0  0
   42.2285   37.7837   83.8420 C   0  0  0  0  0  0  0  0  0  0  0  0
   41.7896   38.5257   85.1012 C   0  0  0  0  0  0  0  0  0  0  0  0
   43.4342   34.6537   85.1254 C   0  0  0  0  0  0  0  0  0  0  0  0
   45.4767   32.8766   85.1094 C   0  0  0  0  0  0  0  0  0  0  0  0
   44.8868   33.3642   83.9511 C   0  0  0  0  0  0  0  0  0  0  0  0
   43.8687   34.2160   86.3149 N   0  0  0  0  0  0  0  0  0  0  0  0
   44.8813   33.3375   86.2790 C   0  0  0  0  0  0  0  0  0  0  0  0
   43.8803   34.2487   83.9299 N   0  0  0  0  0  0  0  0  0  0  0  0
   46.5749   30.7536   85.3130 N   0  0  0  0  0  0  0  0  0  0  0  0
   47.8350   32.5770   84.9185 O   0  0  0  0  0  0  0  0  0  0  0  0
   46.7317   32.0560   85.0780 C   0  0  0  0  0  0  0  0  0  0  0  0
   47.6661   29.9050   85.5171 O   0  0  0  0  0  0  0  0  0  0  0  0
   45.6650   30.3790   85.3437 H   0  0  0  0  0  0  0  0  0  0  0  0
   48.4885   30.4159   85.4575 H   0  0  0  0  0  0  0  0  0  0  0  0
   42.1779   39.9906   85.0245 C   0  0  0  0  0  0  0  0  0  0  0  0
   43.6260   40.2057   84.9616 N   0  0  0  0  0  0  0  0  0  0  0  0
   43.9261   40.6086   85.8494 H   0  0  0  0  0  0  0  0  0  0  0  0
   44.0655   41.0929   83.8878 C   0  0  0  0  0  0  0  0  0  0  0  0
   47.2016   43.0532   84.4493 C   0  0  0  0  0  0  0  0  0  0  0  0
   45.1726   42.0238   84.2995 C   0  0  0  0  0  0  0  0  0  0  0  0
   46.3360   43.6240   85.3561 N   0  0  0  0  0  0  0  0  0  0  0  0
   45.1205   42.9974   85.2478 C   0  0  0  0  0  0  0  0  0  0  0  0
   46.5046   42.0505   83.7652 C   0  0  0  0  0  0  0  0  0  0  0  0
   47.1691   41.3335   82.7725 C   0  0  0  0  0  0  0  0  0  0  0  0
   48.4954   41.6181   82.4862 C   0  0  0  0  0  0  0  0  0  0  0  0
   49.1696   42.6130   83.1792 C   0  0  0  0  0  0  0  0  0  0  0  0
   48.5299   43.3430   84.1692 C   0  0  0  0  0  0  0  0  0  0  0  0
   46.6591   44.7020   86.2825 C   0  0  0  0  0  0  0  0  0  0  0  0
 28 29  2  0  0  0
 28 27  1  0  0  0
 29 30  1  0  0  0
 22 20  1  0  0  0
 22 24  1  0  0  0
 20 19  1  0  0  0
  5  3  1  0  0  0
  5  6  1  0  0  0
 27 24  1  0  0  0
 27 23  2  0  0  0
  3  2  1  0  0  0
 24 26  2  0  0  0
 30 31  2  0  0  0
 19  6  1  0  0  0
  6  4  1  0  0  0
 23 31  1  0  0  0
 23 25  1  0  0  0
 10 11  2  0  0  0
 10  7  1  0  0  0
 26 25  1  0  0  0
  2  7  1  0  0  0
  2  1  1  0  0  0
 11  8  1  0  0  0
 25 32  1  0  0  0
  7 12  2  0  0  0
  4  1  1  0  0  0
 13 16  1  0  0  0
 13 15  1  0  0  0
  8 15  1  0  0  0
  8  9  2  0  0  0
 12  9  1  0  0  0
 15 14  2  0  0  0
 13 17  1  0  0  0
 16 18  1  0  0  0
 20 21  1  0  0  0
M  END
> <minimizedAffinity>
-8.29530

$$$$
6HSH_GOK_A_504


 32 35  0  0  0  0  0  0  0  0999 V2000
   43.5386   38.6041   90.6767 C   0  0  0  0  0  0  0  0  0  0  0  0
   44.8891   38.6901   90.1147 N   0  0  0  0  0  0  0  0  0  0  0  0
   45.3057   37.4675   89.4221 C   0  0  0  0  0  0  0  0  0  0  0  0
   42.5158   38.2472   89.6083 C   0  0  0  0  0  0  0  0  0  0  0  0
   44.3018   37.0777   88.3441 C   0  0  0  0  0  0  0  0  0  0  0  0
   42.8806   36.9593   88.8872 C   0  0  0  0  0  0  0  0  0  0  0  0
   45.6752   39.7910   90.2545 C   0  0  0  0  0  0  0  0  0  0  0  0
   47.4622   41.8216   90.1377 C   0  0  0  0  0  0  0  0  0  0  0  0
   47.6879   40.6530   90.8525 C   0  0  0  0  0  0  0  0  0  0  0  0
   45.3049   40.8889   89.5815 N   0  0  0  0  0  0  0  0  0  0  0  0
   46.2083   41.8790   89.5382 C   0  0  0  0  0  0  0  0  0  0  0  0
   46.8248   39.6303   90.9216 N   0  0  0  0  0  0  0  0  0  0  0  0
   49.5101   42.4831   89.0781 N   0  0  0  0  0  0  0  0  0  0  0  0
   48.5539   43.9036   90.5397 O   0  0  0  0  0  0  0  0  0  0  0  0
   48.5403   42.8410   89.9191 C   0  0  0  0  0  0  0  0  0  0  0  0
   50.6768   43.2386   88.9342 O   0  0  0  0  0  0  0  0  0  0  0  0
   49.4016   41.6636   88.5434 H   0  0  0  0  0  0  0  0  0  0  0  0
   50.6373   44.0094   89.5217 H   0  0  0  0  0  0  0  0  0  0  0  0
   41.8961   36.6955   87.7632 C   0  0  0  0  0  0  0  0  0  0  0  0
   41.1507   35.4443   87.9247 N   0  0  0  0  0  0  0  0  0  0  0  0
   41.7327   34.7937   88.4525 H   0  0  0  0  0  0  0  0  0  0  0  0
   40.7650   34.7973   86.6733 C   0  0  0  0  0  0  0  0  0  0  0  0
   43.3186   34.4297   83.9646 C   0  0  0  0  0  0  0  0  0  0  0  0
   41.9319   34.4972   85.7733 C   0  0  0  0  0  0  0  0  0  0  0  0
   43.8600   33.6712   84.9789 N   0  0  0  0  0  0  0  0  0  0  0  0
   43.0166   33.7282   86.0594 C   0  0  0  0  0  0  0  0  0  0  0  0
   42.1128   34.9676   84.4292 C   0  0  0  0  0  0  0  0  0  0  0  0
   41.3800   35.7954   83.5815 C   0  0  0  0  0  0  0  0  0  0  0  0
   41.8492   36.0649   82.3050 C   0  0  0  0  0  0  0  0  0  0  0  0
   43.0447   35.5181   81.8620 C   0  0  0  0  0  0  0  0  0  0  0  0
   43.7941   34.6939   82.6875 C   0  0  0  0  0  0  0  0  0  0  0  0
   45.1098   32.9243   84.9124 C   0  0  0  0  0  0  0  0  0  0  0  0
 28 29  2  0  0  0
 28 27  1  0  0  0
 29 30  1  0  0  0
 22 20  1  0  0  0
 22 24  1  0  0  0
 20 19  1  0  0  0
  5  3  1  0  0  0
  5  6  1  0  0  0
 27 24  1  0  0  0
 27 23  2  0  0  0
  3  2  1  0  0  0
 24 26  2  0  0  0
 30 31  2  0  0  0
 19  6  1  0  0  0
  6  4  1  0  0  0
 23 31  1  0  0  0
 23 25  1  0  0  0
 10 11  2  0  0  0
 10  7  1  0  0  0
 26 25  1  0  0  0
  2  7  1  0  0  0
  2  1  1  0  0  0
 11  8  1  0  0  0
 25 32  1  0  0  0
  7 12  2  0  0  0
  4  1  1  0  0  0
 13 16  1  0  0  0
 13 15  1  0  0  0
  8 15  1  0  0  0
  8  9  2  0  0  0
 12  9  1  0  0  0
 15 14  2  0  0  0
 13 17  1  0  0  0
 16 18  1  0  0  0
 20 21  1  0  0  0
M  END
> <minimizedAffinity>
-8.03445

$$$$
6HSH_GOK_A_504


 32 35  0  0  0  0  0  0  0  0999 V2000
   42.2567   41.9694   84.4892 C   0  0  0  0  0  0  0  0  0  0  0  0
   43.5196   41.2374   84.6163 N   0  0  0  0  0  0  0  0  0  0  0  0
   43.3719   39.9421   85.2858 C   0  0  0  0  0  0  0  0  0  0  0  0
   41.2048   41.1382   83.7698 C   0  0  0  0  0  0  0  0  0  0  0  0
   42.3228   39.0818   84.5923 C   0  0  0  0  0  0  0  0  0  0  0  0
   40.9825   39.7979   84.4521 C   0  0  0  0  0  0  0  0  0  0  0  0
   44.7062   41.7360   84.1768 C   0  0  0  0  0  0  0  0  0  0  0  0
   47.2617   42.3500   83.5268 C   0  0  0  0  0  0  0  0  0  0  0  0
   46.6348   42.8259   84.6706 C   0  0  0  0  0  0  0  0  0  0  0  0
   45.1681   41.2615   83.0119 N   0  0  0  0  0  0  0  0  0  0  0  0
   46.4365   41.5793   82.7145 C   0  0  0  0  0  0  0  0  0  0  0  0
   45.3748   42.5326   85.0198 N   0  0  0  0  0  0  0  0  0  0  0  0
   49.2318   41.8841   82.2400 N   0  0  0  0  0  0  0  0  0  0  0  0
   49.4295   43.1847   84.0671 O   0  0  0  0  0  0  0  0  0  0  0  0
   48.7312   42.5339   83.2904 C   0  0  0  0  0  0  0  0  0  0  0  0
   50.6082   41.7955   82.0159 O   0  0  0  0  0  0  0  0  0  0  0  0
   48.6148   41.4546   81.6044 H   0  0  0  0  0  0  0  0  0  0  0  0
   51.0815   42.2638   82.7213 H   0  0  0  0  0  0  0  0  0  0  0  0
   40.0071   38.9595   83.6470 C   0  0  0  0  0  0  0  0  0  0  0  0
   40.6614   37.9547   82.8047 N   0  0  0  0  0  0  0  0  0  0  0  0
   40.6216   38.2764   81.8375 H   0  0  0  0  0  0  0  0  0  0  0  0
   40.0639   36.6234   82.8663 C   0  0  0  0  0  0  0  0  0  0  0  0
   42.0319   34.4038   85.1452 C   0  0  0  0  0  0  0  0  0  0  0  0
   40.6383   35.7623   83.9573 C   0  0  0  0  0  0  0  0  0  0  0  0
   40.8784   34.6129   85.8683 N   0  0  0  0  0  0  0  0  0  0  0  0
   40.0555   35.4359   85.1421 C   0  0  0  0  0  0  0  0  0  0  0  0
   41.9189   35.1141   83.9444 C   0  0  0  0  0  0  0  0  0  0  0  0
   42.9797   35.0738   83.0421 C   0  0  0  0  0  0  0  0  0  0  0  0
   44.1138   34.3352   83.3428 C   0  0  0  0  0  0  0  0  0  0  0  0
   44.2041   33.6345   84.5367 C   0  0  0  0  0  0  0  0  0  0  0  0
   43.1636   33.6610   85.4527 C   0  0  0  0  0  0  0  0  0  0  0  0
   40.5768   34.0462   87.1769 C   0  0  0  0  0  0  0  0  0  0  0  0
 28 29  2  0  0  0
 28 27  1  0  0  0
 29 30  1  0  0  0
 22 20  1  0  0  0
 22 24  1  0  0  0
 20 19  1  0  0  0
  5  3  1  0  0  0
  5  6  1  0  0  0
 27 24  1  0  0  0
 27 23  2  0  0  0
  3  2  1  0  0  0
 24 26  2  0  0  0
 30 31  2  0  0  0
 19  6  1  0  0  0
  6  4  1  0  0  0
 23 31  1  0  0  0
 23 25  1  0  0  0
 10 11  2  0  0  0
 10  7  1  0  0  0
 26 25  1  0  0  0
  2  7  1  0  0  0
  2  1  1  0  0  0
 11  8  1  0  0  0
 25 32  1  0  0  0
  7 12  2  0  0  0
  4  1  1  0  0  0
 13 16  1  0  0  0
 13 15  1  0  0  0
  8 15  1  0  0  0
  8  9  2  0  0  0
 12  9  1  0  0  0
 15 14  2  0  0  0
 13 17  1  0  0  0
 16 18  1  0  0  0
 20 21  1  0  0  0
M  END
> <minimizedAffinity>
-7.83625

$$$$
6HSH_GOK_A_504


 32 35  0  0  0  0  0  0  0  0999 V2000
   41.8056   35.6358   84.3096 C   0  0  0  0  0  0  0  0  0  0  0  0
   42.3561   34.7820   85.3655 N   0  0  0  0  0  0  0  0  0  0  0  0
   41.4381   34.5915   86.4921 C   0  0  0  0  0  0  0  0  0  0  0  0
   40.4754   35.1000   83.8013 C   0  0  0  0  0  0  0  0  0  0  0  0
   40.0920   34.0565   86.0193 C   0  0  0  0  0  0  0  0  0  0  0  0
   39.4707   34.9248   84.9289 C   0  0  0  0  0  0  0  0  0  0  0  0
   43.6061   34.2498   85.3041 C   0  0  0  0  0  0  0  0  0  0  0  0
   45.8685   32.7662   85.1986 C   0  0  0  0  0  0  0  0  0  0  0  0
   45.3106   33.2148   86.3882 C   0  0  0  0  0  0  0  0  0  0  0  0
   44.0720   33.9369   84.0873 N   0  0  0  0  0  0  0  0  0  0  0  0
   45.1928   33.2010   84.0632 C   0  0  0  0  0  0  0  0  0  0  0  0
   44.1892   33.9439   86.4697 N   0  0  0  0  0  0  0  0  0  0  0  0
   48.1578   32.2462   84.7057 N   0  0  0  0  0  0  0  0  0  0  0  0
   46.8331   30.6050   85.4931 O   0  0  0  0  0  0  0  0  0  0  0  0
   46.9992   31.7814   85.1721 C   0  0  0  0  0  0  0  0  0  0  0  0
   49.2350   31.3993   84.4319 O   0  0  0  0  0  0  0  0  0  0  0  0
   48.2575   33.2131   84.5496 H   0  0  0  0  0  0  0  0  0  0  0  0
   48.9861   30.4839   84.6341 H   0  0  0  0  0  0  0  0  0  0  0  0
   38.1980   34.2917   84.3981 C   0  0  0  0  0  0  0  0  0  0  0  0
   37.4457   33.5556   85.4177 N   0  0  0  0  0  0  0  0  0  0  0  0
   36.8752   32.8535   84.9465 H   0  0  0  0  0  0  0  0  0  0  0  0
   36.5646   34.3802   86.2405 C   0  0  0  0  0  0  0  0  0  0  0  0
   37.2567   33.9994   89.8969 C   0  0  0  0  0  0  0  0  0  0  0  0
   36.6302   34.0445   87.7050 C   0  0  0  0  0  0  0  0  0  0  0  0
   36.2327   33.0995   89.6999 N   0  0  0  0  0  0  0  0  0  0  0  0
   35.8650   33.1445   88.3791 C   0  0  0  0  0  0  0  0  0  0  0  0
   37.5280   34.6145   88.6692 C   0  0  0  0  0  0  0  0  0  0  0  0
   38.5235   35.5876   88.6151 C   0  0  0  0  0  0  0  0  0  0  0  0
   39.2242   35.9226   89.7636 C   0  0  0  0  0  0  0  0  0  0  0  0
   38.9429   35.2978   90.9699 C   0  0  0  0  0  0  0  0  0  0  0  0
   37.9548   34.3285   91.0507 C   0  0  0  0  0  0  0  0  0  0  0  0
   35.6471   32.2365   90.7182 C   0  0  0  0  0  0  0  0  0  0  0  0
 28 29  2  0  0  0
 28 27  1  0  0  0
 29 30  1  0  0  0
 22 20  1  0  0  0
 22 24  1  0  0  0
 20 19  1  0  0  0
  5  3  1  0  0  0
  5  6  1  0  0  0
 27 24  1  0  0  0
 27 23  2  0  0  0
  3  2  1  0  0  0
 24 26  2  0  0  0
 30 31  2  0  0  0
 19  6  1  0  0  0
  6  4  1  0  0  0
 23 31  1  0  0  0
 23 25  1  0  0  0
 10 11  2  0  0  0
 10  7  1  0  0  0
 26 25  1  0  0  0
  2  7  1  0  0  0
  2  1  1  0  0  0
 11  8  1  0  0  0
 25 32  1  0  0  0
  7 12  2  0  0  0
  4  1  1  0  0  0
 13 16  1  0  0  0
 13 15  1  0  0  0
  8 15  1  0  0  0
  8  9  2  0  0  0
 12  9  1  0  0  0
 15 14  2  0  0  0
 13 17  1  0  0  0
 16 18  1  0  0  0
 20 21  1  0  0  0
M  END
> <minimizedAffinity>
-7.78415

$$$$
6HSH_GOK_A_504


 32 35  0  0  0  0  0  0  0  0999 V2000
   41.4421   40.1225   85.0519 C   0  0  0  0  0  0  0  0  0  0  0  0
   42.7219   40.6412   85.5420 N   0  0  0  0  0  0  0  0  0  0  0  0
   42.8681   40.5384   86.9967 C   0  0  0  0  0  0  0  0  0  0  0  0
   41.2254   38.6810   85.4876 C   0  0  0  0  0  0  0  0  0  0  0  0
   42.6553   39.1058   87.4702 C   0  0  0  0  0  0  0  0  0  0  0  0
   41.3245   38.5278   86.9970 C   0  0  0  0  0  0  0  0  0  0  0  0
   43.6582   41.1859   84.7197 C   0  0  0  0  0  0  0  0  0  0  0  0
   45.8000   41.9056   83.2280 C   0  0  0  0  0  0  0  0  0  0  0  0
   45.5816   42.3737   84.5167 C   0  0  0  0  0  0  0  0  0  0  0  0
   43.7146   40.7112   83.4680 N   0  0  0  0  0  0  0  0  0  0  0  0
   44.7856   41.0819   82.7511 C   0  0  0  0  0  0  0  0  0  0  0  0
   44.5350   42.0288   85.2792 N   0  0  0  0  0  0  0  0  0  0  0  0
   47.9218   41.1159   82.4350 N   0  0  0  0  0  0  0  0  0  0  0  0
   47.3721   43.2667   82.0603 O   0  0  0  0  0  0  0  0  0  0  0  0
   47.0873   42.1530   82.4994 C   0  0  0  0  0  0  0  0  0  0  0  0
   49.2329   41.2527   81.9715 O   0  0  0  0  0  0  0  0  0  0  0  0
   47.6057   40.2288   82.7220 H   0  0  0  0  0  0  0  0  0  0  0  0
   49.3949   42.1776   81.7280 H   0  0  0  0  0  0  0  0  0  0  0  0
   41.2079   37.0642   87.3803 C   0  0  0  0  0  0  0  0  0  0  0  0
   40.1932   36.3405   86.6097 N   0  0  0  0  0  0  0  0  0  0  0  0
   39.2914   36.4748   87.0670 H   0  0  0  0  0  0  0  0  0  0  0  0
   40.4304   34.9047   86.4846 C   0  0  0  0  0  0  0  0  0  0  0  0
   43.2421   34.4257   84.0642 C   0  0  0  0  0  0  0  0  0  0  0  0
   41.6828   34.5719   85.7214 C   0  0  0  0  0  0  0  0  0  0  0  0
   43.6860   33.7293   85.1666 N   0  0  0  0  0  0  0  0  0  0  0  0
   42.7396   33.8331   86.1541 C   0  0  0  0  0  0  0  0  0  0  0  0
   41.9923   34.9721   84.3780 C   0  0  0  0  0  0  0  0  0  0  0  0
   41.3408   35.7441   83.4186 C   0  0  0  0  0  0  0  0  0  0  0  0
   41.9319   35.9511   82.1817 C   0  0  0  0  0  0  0  0  0  0  0  0
   43.1694   35.3967   81.8888 C   0  0  0  0  0  0  0  0  0  0  0  0
   43.8396   34.6273   82.8276 C   0  0  0  0  0  0  0  0  0  0  0  0
   44.9419   32.9959   85.2640 C   0  0  0  0  0  0  0  0  0  0  0  0
 28 29  2  0  0  0
 28 27  1  0  0  0
 29 30  1  0  0  0
 22 20  1  0  0  0
 22 24  1  0  0  0
 20 19  1  0  0  0
  5  3  1  0  0  0
  5  6  1  0  0  0
 27 24  1  0  0  0
 27 23  2  0  0  0
  3  2  1  0  0  0
 24 26  2  0  0  0
 30 31  2  0  0  0
 19  6  1  0  0  0
  6  4  1  0  0  0
 23 31  1  0  0  0
 23 25  1  0  0  0
 10 11  2  0  0  0
 10  7  1  0  0  0
 26 25  1  0  0  0
  2  7  1  0  0  0
  2  1  1  0  0  0
 11  8  1  0  0  0
 25 32  1  0  0  0
  7 12  2  0  0  0
  4  1  1  0  0  0
 13 16  1  0  0  0
 13 15  1  0  0  0
  8 15  1  0  0  0
  8  9  2  0  0  0
 12  9  1  0  0  0
 15 14  2  0  0  0
 13 17  1  0  0  0
 16 18  1  0  0  0
 20 21  1  0  0  0
M  END
> <minimizedAffinity>
-7.74270

$$$$
6HSH_GOK_A_504


 32 35  0  0  0  0  0  0  0  0999 V2000
   43.6052   39.3336   89.3276 C   0  0  0  0  0  0  0  0  0  0  0  0
   44.9938   39.1552   89.7599 N   0  0  0  0  0  0  0  0  0  0  0  0
   45.3362   37.7585   90.0424 C   0  0  0  0  0  0  0  0  0  0  0  0
   43.2883   38.4732   88.1134 C   0  0  0  0  0  0  0  0  0  0  0  0
   45.0296   36.8652   88.8467 C   0  0  0  0  0  0  0  0  0  0  0  0
   43.5865   37.0047   88.3705 C   0  0  0  0  0  0  0  0  0  0  0  0
   45.8580   40.1952   89.9063 C   0  0  0  0  0  0  0  0  0  0  0  0
   47.7612   42.1165   89.7785 C   0  0  0  0  0  0  0  0  0  0  0  0
   47.9593   40.8933   90.4047 C   0  0  0  0  0  0  0  0  0  0  0  0
   45.5143   41.3541   89.3281 N   0  0  0  0  0  0  0  0  0  0  0  0
   46.4752   42.2881   89.2771 C   0  0  0  0  0  0  0  0  0  0  0  0
   47.0381   39.9228   90.4766 N   0  0  0  0  0  0  0  0  0  0  0  0
   50.1057   42.5450   89.5063 N   0  0  0  0  0  0  0  0  0  0  0  0
   48.6862   44.2919   89.4621 O   0  0  0  0  0  0  0  0  0  0  0  0
   48.8858   43.0802   89.5418 C   0  0  0  0  0  0  0  0  0  0  0  0
   51.2575   43.3361   89.4987 O   0  0  0  0  0  0  0  0  0  0  0  0
   50.1980   41.5651   89.4847 H   0  0  0  0  0  0  0  0  0  0  0  0
   51.0066   44.2728   89.5227 H   0  0  0  0  0  0  0  0  0  0  0  0
   43.3577   36.1981   87.1057 C   0  0  0  0  0  0  0  0  0  0  0  0
   44.0736   34.9196   87.0940 N   0  0  0  0  0  0  0  0  0  0  0  0
   45.0348   35.0964   86.8019 H   0  0  0  0  0  0  0  0  0  0  0  0
   43.5061   33.9101   86.2039 C   0  0  0  0  0  0  0  0  0  0  0  0
   41.0618   35.2562   83.7126 C   0  0  0  0  0  0  0  0  0  0  0  0
   42.3343   34.4108   85.4052 C   0  0  0  0  0  0  0  0  0  0  0  0
   40.2656   35.0475   84.8171 N   0  0  0  0  0  0  0  0  0  0  0  0
   41.0455   34.5338   85.8220 C   0  0  0  0  0  0  0  0  0  0  0  0
   42.3637   34.8625   84.0430 C   0  0  0  0  0  0  0  0  0  0  0  0
   43.3584   34.9624   83.0726 C   0  0  0  0  0  0  0  0  0  0  0  0
   43.0467   35.4495   81.8126 C   0  0  0  0  0  0  0  0  0  0  0  0
   41.7507   35.8387   81.5066 C   0  0  0  0  0  0  0  0  0  0  0  0
   40.7423   35.7461   82.4537 C   0  0  0  0  0  0  0  0  0  0  0  0
   38.8396   35.3351   84.9079 C   0  0  0  0  0  0  0  0  0  0  0  0
 28 29  2  0  0  0
 28 27  1  0  0  0
 29 30  1  0  0  0
 22 20  1  0  0  0
 22 24  1  0  0  0
 20 19  1  0  0  0
  5  3  1  0  0  0
  5  6  1  0  0  0
 27 24  1  0  0  0
 27 23  2  0  0  0
  3  2  1  0  0  0
 24 26  2  0  0  0
 30 31  2  0  0  0
 19  6  1  0  0  0
  6  4  1  0  0  0
 23 31  1  0  0  0
 23 25  1  0  0  0
 10 11  2  0  0  0
 10  7  1  0  0  0
 26 25  1  0  0  0
  2  7  1  0  0  0
  2  1  1  0  0  0
 11  8  1  0  0  0
 25 32  1  0  0  0
  7 12  2  0  0  0
  4  1  1  0  0  0
 13 16  1  0  0  0
 13 15  1  0  0  0
  8 15  1  0  0  0
  8  9  2  0  0  0
 12  9  1  0  0  0
 15 14  2  0  0  0
 13 17  1  0  0  0
 16 18  1  0  0  0
 20 21  1  0  0  0
M  END
> <minimizedAffinity>
-7.67073

$$$$
6HSH_GOK_A_504


 32 35  0  0  0  0  0  0  0  0999 V2000
   37.0759   36.3719   83.3047 C   0  0  0  0  0  0  0  0  0  0  0  0
   37.2221   35.0293   83.8730 N   0  0  0  0  0  0  0  0  0  0  0  0
   37.4516   33.9950   82.8602 C   0  0  0  0  0  0  0  0  0  0  0  0
   38.2797   36.7472   82.4534 C   0  0  0  0  0  0  0  0  0  0  0  0
   38.6511   34.3390   81.9858 C   0  0  0  0  0  0  0  0  0  0  0  0
   38.5352   35.7249   81.3574 C   0  0  0  0  0  0  0  0  0  0  0  0
   37.1244   34.7803   85.2064 C   0  0  0  0  0  0  0  0  0  0  0  0
   37.3845   34.4397   87.8797 C   0  0  0  0  0  0  0  0  0  0  0  0
   37.6665   33.4413   86.9571 C   0  0  0  0  0  0  0  0  0  0  0  0
   36.7576   35.8047   85.9884 N   0  0  0  0  0  0  0  0  0  0  0  0
   36.8973   35.6104   87.3080 C   0  0  0  0  0  0  0  0  0  0  0  0
   37.5533   33.5847   85.6296 N   0  0  0  0  0  0  0  0  0  0  0  0
   38.6679   35.1280   89.7860 N   0  0  0  0  0  0  0  0  0  0  0  0
   37.2187   33.4225   90.0304 O   0  0  0  0  0  0  0  0  0  0  0  0
   37.7274   34.2995   89.3330 C   0  0  0  0  0  0  0  0  0  0  0  0
   39.2324   34.9784   91.0554 O   0  0  0  0  0  0  0  0  0  0  0  0
   38.9733   35.8658   89.2103 H   0  0  0  0  0  0  0  0  0  0  0  0
   38.8328   34.2139   91.4990 H   0  0  0  0  0  0  0  0  0  0  0  0
   39.8016   36.0791   80.6003 C   0  0  0  0  0  0  0  0  0  0  0  0
   40.8242   36.7087   81.4401 N   0  0  0  0  0  0  0  0  0  0  0  0
   41.1630   37.5411   80.9577 H   0  0  0  0  0  0  0  0  0  0  0  0
   41.9732   35.8594   81.7433 C   0  0  0  0  0  0  0  0  0  0  0  0
   42.7414   34.5133   85.1479 C   0  0  0  0  0  0  0  0  0  0  0  0
   42.0498   35.4547   83.1897 C   0  0  0  0  0  0  0  0  0  0  0  0
   41.5615   35.1907   85.3629 N   0  0  0  0  0  0  0  0  0  0  0  0
   41.1641   35.7548   84.1773 C   0  0  0  0  0  0  0  0  0  0  0  0
   43.0806   34.6623   83.7981 C   0  0  0  0  0  0  0  0  0  0  0  0
   44.2567   34.0755   83.3361 C   0  0  0  0  0  0  0  0  0  0  0  0
   45.0592   33.3578   84.2097 C   0  0  0  0  0  0  0  0  0  0  0  0
   44.7026   33.2180   85.5431 C   0  0  0  0  0  0  0  0  0  0  0  0
   43.5390   33.7950   86.0281 C   0  0  0  0  0  0  0  0  0  0  0  0
   40.8489   35.2825   86.6310 C   0  0  0  0  0  0  0  0  0  0  0  0
 28 29  2  0  0  0
 28 27  1  0  0  0
 29 30  1  0  0  0
 22 20  1  0  0  0
 22 24  1  0  0  0
 20 19  1  0  0  0
  5  3  1  0  0  0
  5  6  1  0  0  0
 27 24  1  0  0  0
 27 23  2  0  0  0
  3  2  1  0  0  0
 24 26  2  0  0  0
 30 31  2  0  0  0
 19  6  1  0  0  0
  6  4  1  0  0  0
 23 31  1  0  0  0
 23 25  1  0  0  0
 10 11  2  0  0  0
 10  7  1  0  0  0
 26 25  1  0  0  0
  2  7  1  0  0  0
  2  1  1  0  0  0
 11  8  1  0  0  0
 25 32  1  0  0  0
  7 12  2  0  0  0
  4  1  1  0  0  0
 13 16  1  0  0  0
 13 15  1  0  0  0
  8 15  1  0  0  0
  8  9  2  0  0  0
 12  9  1  0  0  0
 15 14  2  0  0  0
 13 17  1  0  0  0
 16 18  1  0  0  0
 20 21  1  0  0  0
M  END
> <minimizedAffinity>
-7.34134

$$$$
6HSH_GOK_A_504


 32 35  0  0  0  0  0  0  0  0999 V2000
   40.6515   39.3719   87.3381 C   0  0  0  0  0  0  0  0  0  0  0  0
   42.1006   39.2279   87.1761 N   0  0  0  0  0  0  0  0  0  0  0  0
   42.7270   38.4469   88.2465 C   0  0  0  0  0  0  0  0  0  0  0  0
   39.9692   38.0165   87.4494 C   0  0  0  0  0  0  0  0  0  0  0  0
   42.0665   37.0811   88.3885 C   0  0  0  0  0  0  0  0  0  0  0  0
   40.5555   37.1817   88.5768 C   0  0  0  0  0  0  0  0  0  0  0  0
   42.7851   39.7920   86.1452 C   0  0  0  0  0  0  0  0  0  0  0  0
   43.7328   41.1373   83.9952 C   0  0  0  0  0  0  0  0  0  0  0  0
   43.1786   39.8671   83.9111 C   0  0  0  0  0  0  0  0  0  0  0  0
   43.3526   40.9839   86.3753 N   0  0  0  0  0  0  0  0  0  0  0  0
   43.8128   41.6295   85.2938 C   0  0  0  0  0  0  0  0  0  0  0  0
   42.6961   39.1820   84.9568 N   0  0  0  0  0  0  0  0  0  0  0  0
   45.3134   42.3984   82.7046 N   0  0  0  0  0  0  0  0  0  0  0  0
   43.2043   42.2210   81.9375 O   0  0  0  0  0  0  0  0  0  0  0  0
   44.0628   41.9435   82.7744 C   0  0  0  0  0  0  0  0  0  0  0  0
   45.7071   43.3264   81.7370 O   0  0  0  0  0  0  0  0  0  0  0  0
   45.9784   42.0715   83.3528 H   0  0  0  0  0  0  0  0  0  0  0  0
   44.9480   43.5508   81.1764 H   0  0  0  0  0  0  0  0  0  0  0  0
   39.9223   35.8028   88.5867 C   0  0  0  0  0  0  0  0  0  0  0  0
   40.7733   34.7680   87.9932 N   0  0  0  0  0  0  0  0  0  0  0  0
   41.7442   35.0702   88.0739 H   0  0  0  0  0  0  0  0  0  0  0  0
   40.5003   34.4857   86.5863 C   0  0  0  0  0  0  0  0  0  0  0  0
   43.2685   34.3728   84.0728 C   0  0  0  0  0  0  0  0  0  0  0  0
   41.7449   34.2829   85.7668 C   0  0  0  0  0  0  0  0  0  0  0  0
   43.7620   33.5786   85.0842 N   0  0  0  0  0  0  0  0  0  0  0  0
   42.8362   33.5410   86.0959 C   0  0  0  0  0  0  0  0  0  0  0  0
   42.0085   34.8363   84.4688 C   0  0  0  0  0  0  0  0  0  0  0  0
   41.3084   35.6827   83.6117 C   0  0  0  0  0  0  0  0  0  0  0  0
   41.8626   36.0429   82.3931 C   0  0  0  0  0  0  0  0  0  0  0  0
   43.1111   35.5688   82.0173 C   0  0  0  0  0  0  0  0  0  0  0  0
   43.8293   34.7280   82.8537 C   0  0  0  0  0  0  0  0  0  0  0  0
   45.0441   32.8853   85.0767 C   0  0  0  0  0  0  0  0  0  0  0  0
 28 29  2  0  0  0
 28 27  1  0  0  0
 29 30  1  0  0  0
 22 20  1  0  0  0
 22 24  1  0  0  0
 20 19  1  0  0  0
  5  3  1  0  0  0
  5  6  1  0  0  0
 27 24  1  0  0  0
 27 23  2  0  0  0
  3  2  1  0  0  0
 24 26  2  0  0  0
 30 31  2  0  0  0
 19  6  1  0  0  0
  6  4  1  0  0  0
 23 31  1  0  0  0
 23 25  1  0  0  0
 10 11  2  0  0  0
 10  7  1  0  0  0
 26 25  1  0  0  0
  2  7  1  0  0  0
  2  1  1  0  0  0
 11  8  1  0  0  0
 25 32  1  0  0  0
  7 12  2  0  0  0
  4  1  1  0  0  0
 13 16  1  0  0  0
 13 15  1  0  0  0
  8 15  1  0  0  0
  8  9  2  0  0  0
 12  9  1  0  0  0
 15 14  2  0  0  0
 13 17  1  0  0  0
 16 18  1  0  0  0
 20 21  1  0  0  0
M  END
> <minimizedAffinity>
-7.21126

$$$$
6HSH_GOK_A_504


 32 35  0  0  0  0  0  0  0  0999 V2000
   42.5074   35.6175   83.6911 C   0  0  0  0  0  0  0  0  0  0  0  0
   42.8485   34.8957   84.9198 N   0  0  0  0  0  0  0  0  0  0  0  0
   42.0469   35.3099   86.0748 C   0  0  0  0  0  0  0  0  0  0  0  0
   41.0280   35.4830   83.3623 C   0  0  0  0  0  0  0  0  0  0  0  0
   40.5567   35.1900   85.7805 C   0  0  0  0  0  0  0  0  0  0  0  0
   40.1505   35.9418   84.5160 C   0  0  0  0  0  0  0  0  0  0  0  0
   43.8320   33.9579   84.9730 C   0  0  0  0  0  0  0  0  0  0  0  0
   46.0897   32.4670   85.0737 C   0  0  0  0  0  0  0  0  0  0  0  0
   45.4709   32.8267   83.8840 C   0  0  0  0  0  0  0  0  0  0  0  0
   44.2893   33.6283   86.1886 N   0  0  0  0  0  0  0  0  0  0  0  0
   45.4090   32.8906   86.2104 C   0  0  0  0  0  0  0  0  0  0  0  0
   44.3580   33.5688   83.8050 N   0  0  0  0  0  0  0  0  0  0  0  0
   47.4527   30.5210   85.4055 N   0  0  0  0  0  0  0  0  0  0  0  0
   48.4702   32.4720   84.9291 O   0  0  0  0  0  0  0  0  0  0  0  0
   47.4418   31.8188   85.1026 C   0  0  0  0  0  0  0  0  0  0  0  0
   48.6416   29.8357   85.6689 O   0  0  0  0  0  0  0  0  0  0  0  0
   46.5994   30.0316   85.4447 H   0  0  0  0  0  0  0  0  0  0  0  0
   49.3909   30.4469   85.5922 H   0  0  0  0  0  0  0  0  0  0  0  0
   38.6896   35.6937   84.1894 C   0  0  0  0  0  0  0  0  0  0  0  0
   37.8815   36.9160   84.1747 N   0  0  0  0  0  0  0  0  0  0  0  0
   37.2599   36.8956   84.9832 H   0  0  0  0  0  0  0  0  0  0  0  0
   37.0643   37.0933   82.9771 C   0  0  0  0  0  0  0  0  0  0  0  0
   37.5233   34.3881   80.4347 C   0  0  0  0  0  0  0  0  0  0  0  0
   37.0372   35.8799   82.0891 C   0  0  0  0  0  0  0  0  0  0  0  0
   36.4511   33.9228   81.1635 N   0  0  0  0  0  0  0  0  0  0  0  0
   36.1770   34.8286   82.1566 C   0  0  0  0  0  0  0  0  0  0  0  0
   37.9206   35.6097   80.9903 C   0  0  0  0  0  0  0  0  0  0  0  0
   39.0099   36.2749   80.4317 C   0  0  0  0  0  0  0  0  0  0  0  0
   39.6707   35.7248   79.3442 C   0  0  0  0  0  0  0  0  0  0  0  0
   39.2581   34.5148   78.8054 C   0  0  0  0  0  0  0  0  0  0  0  0
   38.1791   33.8316   79.3451 C   0  0  0  0  0  0  0  0  0  0  0  0
   35.7227   32.6850   80.9148 C   0  0  0  0  0  0  0  0  0  0  0  0
 28 29  2  0  0  0
 28 27  1  0  0  0
 29 30  1  0  0  0
 22 20  1  0  0  0
 22 24  1  0  0  0
 20 19  1  0  0  0
  5  3  1  0  0  0
  5  6  1  0  0  0
 27 24  1  0  0  0
 27 23  2  0  0  0
  3  2  1  0  0  0
 24 26  2  0  0  0
 30 31  2  0  0  0
 19  6  1  0  0  0
  6  4  1  0  0  0
 23 31  1  0  0  0
 23 25  1  0  0  0
 10 11  2  0  0  0
 10  7  1  0  0  0
 26 25  1  0  0  0
  2  7  1  0  0  0
  2  1  1  0  0  0
 11  8  1  0  0  0
 25 32  1  0  0  0
  7 12  2  0  0  0
  4  1  1  0  0  0
 13 16  1  0  0  0
 13 15  1  0  0  0
  8 15  1  0  0  0
  8  9  2  0  0  0
 12  9  1  0  0  0
 15 14  2  0  0  0
 13 17  1  0  0  0
 16 18  1  0  0  0
 20 21  1  0  0  0
M  END
> <minimizedAffinity>
-7.14526

$$$$
6HSH_GOK_A_504


 32 35  0  0  0  0  0  0  0  0999 V2000
   41.0351   39.7949   87.1294 C   0  0  0  0  0  0  0  0  0  0  0  0
   42.3122   39.6384   86.4283 N   0  0  0  0  0  0  0  0  0  0  0  0
   43.2515   38.7575   87.1281 C   0  0  0  0  0  0  0  0  0  0  0  0
   40.3772   38.4478   87.3891 C   0  0  0  0  0  0  0  0  0  0  0  0
   42.6247   37.3970   87.4072 C   0  0  0  0  0  0  0  0  0  0  0  0
   41.2978   37.5091   88.1526 C   0  0  0  0  0  0  0  0  0  0  0  0
   42.5928   40.2757   85.2601 C   0  0  0  0  0  0  0  0  0  0  0  0
   43.1761   41.9404   83.2061 C   0  0  0  0  0  0  0  0  0  0  0  0
   41.8771   41.6428   83.5956 C   0  0  0  0  0  0  0  0  0  0  0  0
   43.8872   40.4264   84.9482 N   0  0  0  0  0  0  0  0  0  0  0  0
   44.1487   41.2567   83.9282 C   0  0  0  0  0  0  0  0  0  0  0  0
   41.5602   40.8288   84.6118 N   0  0  0  0  0  0  0  0  0  0  0  0
   44.7516   43.4097   82.1510 N   0  0  0  0  0  0  0  0  0  0  0  0
   42.5891   43.5415   81.5388 O   0  0  0  0  0  0  0  0  0  0  0  0
   43.4798   43.0155   82.2056 C   0  0  0  0  0  0  0  0  0  0  0  0
   45.1439   44.5342   81.4202 O   0  0  0  0  0  0  0  0  0  0  0  0
   45.4337   42.8943   82.6392 H   0  0  0  0  0  0  0  0  0  0  0  0
   44.3668   44.9329   80.9982 H   0  0  0  0  0  0  0  0  0  0  0  0
   40.6467   36.1463   88.2984 C   0  0  0  0  0  0  0  0  0  0  0  0
   41.4611   35.0525   87.7622 N   0  0  0  0  0  0  0  0  0  0  0  0
   42.2773   35.4588   87.3050 H   0  0  0  0  0  0  0  0  0  0  0  0
   40.7761   34.1984   86.7953 C   0  0  0  0  0  0  0  0  0  0  0  0
   41.1742   35.5510   83.3305 C   0  0  0  0  0  0  0  0  0  0  0  0
   40.6667   34.8151   85.4280 C   0  0  0  0  0  0  0  0  0  0  0  0
   39.8711   35.8861   83.6251 N   0  0  0  0  0  0  0  0  0  0  0  0
   39.5817   35.4308   84.8864 C   0  0  0  0  0  0  0  0  0  0  0  0
   41.7021   34.8732   84.4355 C   0  0  0  0  0  0  0  0  0  0  0  0
   43.0149   34.4114   84.3712 C   0  0  0  0  0  0  0  0  0  0  0  0
   43.7693   34.6331   83.2293 C   0  0  0  0  0  0  0  0  0  0  0  0
   43.2287   35.3111   82.1464 C   0  0  0  0  0  0  0  0  0  0  0  0
   41.9237   35.7779   82.1843 C   0  0  0  0  0  0  0  0  0  0  0  0
   38.9580   36.6121   82.7512 C   0  0  0  0  0  0  0  0  0  0  0  0
 28 29  2  0  0  0
 28 27  1  0  0  0
 29 30  1  0  0  0
 22 20  1  0  0  0
 22 24  1  0  0  0
 20 19  1  0  0  0
  5  3  1  0  0  0
  5  6  1  0  0  0
 27 24  1  0  0  0
 27 23  2  0  0  0
  3  2  1  0  0  0
 24 26  2  0  0  0
 30 31  2  0  0  0
 19  6  1  0  0  0
  6  4  1  0  0  0
 23 31  1  0  0  0
 23 25  1  0  0  0
 10 11  2  0  0  0
 10  7  1  0  0  0
 26 25  1  0  0  0
  2  7  1  0  0  0
  2  1  1  0  0  0
 11  8  1  0  0  0
 25 32  1  0  0  0
  7 12  2  0  0  0
  4  1  1  0  0  0
 13 16  1  0  0  0
 13 15  1  0  0  0
  8 15  1  0  0  0
  8  9  2  0  0  0
 12  9  1  0  0  0
 15 14  2  0  0  0
 13 17  1  0  0  0
 16 18  1  0  0  0
 20 21  1  0  0  0
M  END
> <minimizedAffinity>
-7.02967

$$$$
