4ASD_BAX_A_1500


 35 37  0  0  0  0  0  0  0  0999 V2000
  -25.2954   -1.8786  -12.0848 C   0  0  0  0  0  0  0  0  0  0  0  0
  -25.5004   -1.4921  -13.4047 C   0  0  0  0  0  0  0  0  0  0  0  0
  -24.4276   -1.0182  -14.1607 C   0  0  0  0  0  0  0  0  0  0  0  0
  -23.1636   -0.9295  -13.5742 C   0  0  0  0  0  0  0  0  0  0  0  0
  -22.9300   -1.3085  -12.2591 C   0  0  0  0  0  0  0  0  0  0  0  0
  -24.0066   -1.7819  -11.5179 C   0  0  0  0  0  0  0  0  0  0  0  0
  -26.7116   -1.9694  -10.0643 C   0  0  0  0  0  0  0  0  0  0  0  0
  -27.7042   -2.7545   -9.4923 N   0  0  0  0  0  0  0  0  0  0  0  0
  -26.4134   -2.3503  -11.3664 N   0  0  0  0  0  0  0  0  0  0  0  0
  -26.1472   -1.0595   -9.4846 O   0  0  0  0  0  0  0  0  0  0  0  0
  -28.0867   -3.4830  -10.0329 H   0  0  0  0  0  0  0  0  0  0  0  0
  -27.0175   -2.9862  -11.8135 H   0  0  0  0  0  0  0  0  0  0  0  0
  -28.2114   -1.3139   -7.5596 C   0  0  0  0  0  0  0  0  0  0  0  0
  -28.1950   -2.5718   -8.1900 C   0  0  0  0  0  0  0  0  0  0  0  0
  -28.6793   -3.6920   -7.5093 C   0  0  0  0  0  0  0  0  0  0  0  0
  -29.1781   -3.5646   -6.2080 C   0  0  0  0  0  0  0  0  0  0  0  0
  -29.1962   -2.2995   -5.5988 C   0  0  0  0  0  0  0  0  0  0  0  0
  -28.7022   -1.1606   -6.2578 C   0  0  0  0  0  0  0  0  0  0  0  0
  -29.8199   -2.1851   -3.9933 Cl  0  0  0  0  0  0  0  0  0  0  0  0
  -28.6925    0.2088   -5.6220 C   0  0  0  0  0  0  0  0  0  0  0  0
  -28.2570    1.1506   -6.4880 F   0  0  0  0  0  0  0  0  0  0  0  0
  -27.9144    0.2980   -4.5096 F   0  0  0  0  0  0  0  0  0  0  0  0
  -29.9151    0.6464   -5.2342 F   0  0  0  0  0  0  0  0  0  0  0  0
  -22.1140   -0.4743  -14.3386 O   0  0  0  0  0  0  0  0  0  0  0  0
  -22.5539    1.9483  -13.9259 C   0  0  0  0  0  0  0  0  0  0  0  0
  -21.9584    3.2120  -14.0055 C   0  0  0  0  0  0  0  0  0  0  0  0
  -19.9415    2.3378  -14.8053 C   0  0  0  0  0  0  0  0  0  0  0  0
  -20.4485    1.0417  -14.7709 C   0  0  0  0  0  0  0  0  0  0  0  0
  -21.7592    0.8583  -14.3231 C   0  0  0  0  0  0  0  0  0  0  0  0
  -20.6889    3.4175  -14.4430 N   0  0  0  0  0  0  0  0  0  0  0  0
  -18.0426    3.7943  -15.4551 N   0  0  0  0  0  0  0  0  0  0  0  0
  -16.6849    4.0183  -15.9341 C   0  0  0  0  0  0  0  0  0  0  0  0
  -18.5364    2.5144  -15.2912 C   0  0  0  0  0  0  0  0  0  0  0  0
  -17.8710    1.5116  -15.5550 O   0  0  0  0  0  0  0  0  0  0  0  0
  -18.6165    4.5662  -15.2451 H   0  0  0  0  0  0  0  0  0  0  0  0
 13 14  2  0  0  0
 13 18  1  0  0  0
 14 15  1  0  0  0
 14  8  1  0  0  0
 15 16  2  0  0  0
 16 17  1  0  0  0
  7  8  1  0  0  0
  7  9  1  0  0  0
  7 10  2  0  0  0
  1  2  2  0  0  0
  1  6  1  0  0  0
  1  9  1  0  0  0
  2  3  1  0  0  0
  3  4  2  0  0  0
  4  5  1  0  0  0
  4 24  1  0  0  0
  5  6  2  0  0  0
 24 29  1  0  0  0
 25 26  2  0  0  0
 25 29  1  0  0  0
 26 30  1  0  0  0
 27 28  1  0  0  0
 27 30  2  0  0  0
 27 33  1  0  0  0
 28 29  2  0  0  0
 31 32  1  0  0  0
 31 33  1  0  0  0
 17 18  2  0  0  0
 17 19  1  0  0  0
 18 20  1  0  0  0
 20 21  1  0  0  0
 20 22  1  0  0  0
 20 23  1  0  0  0
 33 34  2  0  0  0
 31 35  1  0  0  0
  8 11  1  0  0  0
  9 12  1  0  0  0
M  END
> <minimizedAffinity>
-12.24366

$$$$
4ASD_BAX_A_1500


 35 37  0  0  0  0  0  0  0  0999 V2000
  -25.4152   -1.7818  -12.2800 C   0  0  0  0  0  0  0  0  0  0  0  0
  -24.1931   -1.7322  -11.6188 C   0  0  0  0  0  0  0  0  0  0  0  0
  -23.0547   -1.3021  -12.3016 C   0  0  0  0  0  0  0  0  0  0  0  0
  -23.1599   -0.9375  -13.6453 C   0  0  0  0  0  0  0  0  0  0  0  0
  -24.3669   -0.9769  -14.3303 C   0  0  0  0  0  0  0  0  0  0  0  0
  -25.4939   -1.4042  -13.6375 C   0  0  0  0  0  0  0  0  0  0  0  0
  -26.7314   -1.9429  -10.1971 C   0  0  0  0  0  0  0  0  0  0  0  0
  -27.7600   -2.6922   -9.6411 N   0  0  0  0  0  0  0  0  0  0  0  0
  -26.5335   -2.2235  -11.5431 N   0  0  0  0  0  0  0  0  0  0  0  0
  -26.0602   -1.1419   -9.5722 O   0  0  0  0  0  0  0  0  0  0  0  0
  -28.2321   -3.3322  -10.2214 H   0  0  0  0  0  0  0  0  0  0  0  0
  -27.2131   -2.7618  -12.0095 H   0  0  0  0  0  0  0  0  0  0  0  0
  -28.8066   -3.6480   -7.6263 C   0  0  0  0  0  0  0  0  0  0  0  0
  -28.1670   -2.5920   -8.3015 C   0  0  0  0  0  0  0  0  0  0  0  0
  -27.9214   -1.3912   -7.6302 C   0  0  0  0  0  0  0  0  0  0  0  0
  -28.3088   -1.2387   -6.2941 C   0  0  0  0  0  0  0  0  0  0  0  0
  -28.9364   -2.3072   -5.6335 C   0  0  0  0  0  0  0  0  0  0  0  0
  -29.2065   -3.5196   -6.2911 C   0  0  0  0  0  0  0  0  0  0  0  0
  -29.3980   -2.0787   -3.9859 Cl  0  0  0  0  0  0  0  0  0  0  0  0
  -29.8952   -4.6790   -5.6124 C   0  0  0  0  0  0  0  0  0  0  0  0
  -30.1032   -5.7003   -6.4728 F   0  0  0  0  0  0  0  0  0  0  0  0
  -31.1008   -4.3648   -5.0658 F   0  0  0  0  0  0  0  0  0  0  0  0
  -29.1813   -5.2302   -4.6008 F   0  0  0  0  0  0  0  0  0  0  0  0
  -22.0305   -0.5014  -14.2992 O   0  0  0  0  0  0  0  0  0  0  0  0
  -22.5052    1.9216  -13.9297 C   0  0  0  0  0  0  0  0  0  0  0  0
  -21.9271    3.1919  -14.0295 C   0  0  0  0  0  0  0  0  0  0  0  0
  -19.8959    2.3322  -14.8086 C   0  0  0  0  0  0  0  0  0  0  0  0
  -20.3850    1.0299  -14.7531 C   0  0  0  0  0  0  0  0  0  0  0  0
  -21.6943    0.8361  -14.3058 C   0  0  0  0  0  0  0  0  0  0  0  0
  -20.6592    3.4075  -14.4670 N   0  0  0  0  0  0  0  0  0  0  0  0
  -18.0109    3.8036  -15.4648 N   0  0  0  0  0  0  0  0  0  0  0  0
  -16.6547    4.0383  -15.9434 C   0  0  0  0  0  0  0  0  0  0  0  0
  -18.4919    2.5199  -15.2936 C   0  0  0  0  0  0  0  0  0  0  0  0
  -17.8161    1.5222  -15.5502 O   0  0  0  0  0  0  0  0  0  0  0  0
  -18.5928    4.5710  -15.2605 H   0  0  0  0  0  0  0  0  0  0  0  0
 13 14  2  0  0  0
 13 18  1  0  0  0
 14 15  1  0  0  0
 14  8  1  0  0  0
 15 16  2  0  0  0
 16 17  1  0  0  0
  7  8  1  0  0  0
  7  9  1  0  0  0
  7 10  2  0  0  0
  1  2  2  0  0  0
  1  6  1  0  0  0
  1  9  1  0  0  0
  2  3  1  0  0  0
  3  4  2  0  0  0
  4  5  1  0  0  0
  4 24  1  0  0  0
  5  6  2  0  0  0
 24 29  1  0  0  0
 25 26  2  0  0  0
 25 29  1  0  0  0
 26 30  1  0  0  0
 27 28  1  0  0  0
 27 30  2  0  0  0
 27 33  1  0  0  0
 28 29  2  0  0  0
 31 32  1  0  0  0
 31 33  1  0  0  0
 17 18  2  0  0  0
 17 19  1  0  0  0
 18 20  1  0  0  0
 20 21  1  0  0  0
 20 22  1  0  0  0
 20 23  1  0  0  0
 33 34  2  0  0  0
 31 35  1  0  0  0
  8 11  1  0  0  0
  9 12  1  0  0  0
M  END
> <minimizedAffinity>
-11.48055

$$$$
4ASD_BAX_A_1500


 35 37  0  0  0  0  0  0  0  0999 V2000
  -24.8006   -1.3863  -12.8013 C   0  0  0  0  0  0  0  0  0  0  0  0
  -26.0383   -1.5914  -13.4006 C   0  0  0  0  0  0  0  0  0  0  0  0
  -27.1789   -1.7158  -12.6064 C   0  0  0  0  0  0  0  0  0  0  0  0
  -27.0565   -1.6426  -11.2174 C   0  0  0  0  0  0  0  0  0  0  0  0
  -25.8339   -1.4382  -10.5921 C   0  0  0  0  0  0  0  0  0  0  0  0
  -24.7059   -1.3129  -11.3951 C   0  0  0  0  0  0  0  0  0  0  0  0
  -22.7821   -0.2094  -13.5994 C   0  0  0  0  0  0  0  0  0  0  0  0
  -21.9228   -0.1859  -14.6902 N   0  0  0  0  0  0  0  0  0  0  0  0
  -23.6810   -1.2671  -13.6503 N   0  0  0  0  0  0  0  0  0  0  0  0
  -22.7666    0.6165  -12.7048 O   0  0  0  0  0  0  0  0  0  0  0  0
  -22.0263   -0.8848  -15.3758 H   0  0  0  0  0  0  0  0  0  0  0  0
  -23.5276   -1.9745  -14.3176 H   0  0  0  0  0  0  0  0  0  0  0  0
  -19.5497    0.4385  -14.9061 C   0  0  0  0  0  0  0  0  0  0  0  0
  -20.9158    0.7745  -14.8741 C   0  0  0  0  0  0  0  0  0  0  0  0
  -21.3028    2.1085  -15.0277 C   0  0  0  0  0  0  0  0  0  0  0  0
  -20.3381    3.1053  -15.2122 C   0  0  0  0  0  0  0  0  0  0  0  0
  -18.9802    2.7498  -15.2518 C   0  0  0  0  0  0  0  0  0  0  0  0
  -18.5654    1.4172  -15.0862 C   0  0  0  0  0  0  0  0  0  0  0  0
  -17.8221    4.0091  -15.4818 Cl  0  0  0  0  0  0  0  0  0  0  0  0
  -17.1125    1.0073  -15.1065 C   0  0  0  0  0  0  0  0  0  0  0  0
  -16.9690   -0.3110  -14.8457 F   0  0  0  0  0  0  0  0  0  0  0  0
  -16.3346    1.6784  -14.2146 F   0  0  0  0  0  0  0  0  0  0  0  0
  -16.5060    1.1820  -16.3059 F   0  0  0  0  0  0  0  0  0  0  0  0
  -28.1934   -1.7522  -10.4500 O   0  0  0  0  0  0  0  0  0  0  0  0
  -27.7331   -1.0362   -8.1030 C   0  0  0  0  0  0  0  0  0  0  0  0
  -27.7200   -1.5036   -6.7842 C   0  0  0  0  0  0  0  0  0  0  0  0
  -28.4080   -3.6482   -7.4162 C   0  0  0  0  0  0  0  0  0  0  0  0
  -28.4419   -3.2804   -8.7584 C   0  0  0  0  0  0  0  0  0  0  0  0
  -28.1058   -1.9656   -9.0904 C   0  0  0  0  0  0  0  0  0  0  0  0
  -28.0363   -2.7781   -6.4362 N   0  0  0  0  0  0  0  0  0  0  0  0
  -28.3860   -6.0710   -7.9439 N   0  0  0  0  0  0  0  0  0  0  0  0
  -28.7207   -7.4618   -7.6664 C   0  0  0  0  0  0  0  0  0  0  0  0
  -28.7682   -5.0622   -7.0808 C   0  0  0  0  0  0  0  0  0  0  0  0
  -29.4176   -5.2806   -6.0569 O   0  0  0  0  0  0  0  0  0  0  0  0
  -27.8802   -5.8470   -8.7583 H   0  0  0  0  0  0  0  0  0  0  0  0
 13 14  2  0  0  0
 13 18  1  0  0  0
 14 15  1  0  0  0
 14  8  1  0  0  0
 15 16  2  0  0  0
 16 17  1  0  0  0
  7  8  1  0  0  0
  7  9  1  0  0  0
  7 10  2  0  0  0
  1  2  2  0  0  0
  1  6  1  0  0  0
  1  9  1  0  0  0
  2  3  1  0  0  0
  3  4  2  0  0  0
  4  5  1  0  0  0
  4 24  1  0  0  0
  5  6  2  0  0  0
 24 29  1  0  0  0
 25 26  2  0  0  0
 25 29  1  0  0  0
 26 30  1  0  0  0
 27 28  1  0  0  0
 27 30  2  0  0  0
 27 33  1  0  0  0
 28 29  2  0  0  0
 31 32  1  0  0  0
 31 33  1  0  0  0
 17 18  2  0  0  0
 17 19  1  0  0  0
 18 20  1  0  0  0
 20 21  1  0  0  0
 20 22  1  0  0  0
 20 23  1  0  0  0
 33 34  2  0  0  0
 31 35  1  0  0  0
  8 11  1  0  0  0
  9 12  1  0  0  0
M  END
> <minimizedAffinity>
-10.19325

$$$$
4ASD_BAX_A_1500


 35 37  0  0  0  0  0  0  0  0999 V2000
  -20.0781    1.2258  -15.1351 C   0  0  0  0  0  0  0  0  0  0  0  0
  -20.2771    2.5774  -15.3937 C   0  0  0  0  0  0  0  0  0  0  0  0
  -19.1894    3.4514  -15.3795 C   0  0  0  0  0  0  0  0  0  0  0  0
  -17.9161    2.9543  -15.0943 C   0  0  0  0  0  0  0  0  0  0  0  0
  -17.6882    1.6099  -14.8327 C   0  0  0  0  0  0  0  0  0  0  0  0
  -18.7799    0.7495  -14.8531 C   0  0  0  0  0  0  0  0  0  0  0  0
  -22.1063    0.2630  -14.1074 C   0  0  0  0  0  0  0  0  0  0  0  0
  -22.9834   -0.8009  -14.2733 N   0  0  0  0  0  0  0  0  0  0  0  0
  -21.2113    0.3869  -15.1624 N   0  0  0  0  0  0  0  0  0  0  0  0
  -22.1047    0.9966  -13.1356 O   0  0  0  0  0  0  0  0  0  0  0  0
  -22.8932   -1.3528  -15.0835 H   0  0  0  0  0  0  0  0  0  0  0  0
  -21.3776   -0.1416  -15.9762 H   0  0  0  0  0  0  0  0  0  0  0  0
  -25.3202   -1.3770  -13.7485 C   0  0  0  0  0  0  0  0  0  0  0  0
  -23.9907   -1.1367  -13.3553 C   0  0  0  0  0  0  0  0  0  0  0  0
  -23.6422   -1.2295  -12.0051 C   0  0  0  0  0  0  0  0  0  0  0  0
  -24.6092   -1.5594  -11.0488 C   0  0  0  0  0  0  0  0  0  0  0  0
  -25.9287   -1.8061  -11.4612 C   0  0  0  0  0  0  0  0  0  0  0  0
  -26.3064   -1.7056  -12.8112 C   0  0  0  0  0  0  0  0  0  0  0  0
  -27.0909   -2.2105  -10.2506 Cl  0  0  0  0  0  0  0  0  0  0  0  0
  -27.7204   -1.9477  -13.2820 C   0  0  0  0  0  0  0  0  0  0  0  0
  -27.8903   -1.5413  -14.5597 F   0  0  0  0  0  0  0  0  0  0  0  0
  -28.6687   -1.3217  -12.5338 F   0  0  0  0  0  0  0  0  0  0  0  0
  -28.0832   -3.2534  -13.2921 F   0  0  0  0  0  0  0  0  0  0  0  0
  -16.8526    3.8273  -15.0992 O   0  0  0  0  0  0  0  0  0  0  0  0
  -14.9145    2.5957  -16.0789 C   0  0  0  0  0  0  0  0  0  0  0  0
  -13.9462    2.6742  -17.0859 C   0  0  0  0  0  0  0  0  0  0  0  0
  -14.7482    4.7324  -17.8556 C   0  0  0  0  0  0  0  0  0  0  0  0
  -15.7417    4.7502  -16.8806 C   0  0  0  0  0  0  0  0  0  0  0  0
  -15.8182    3.6700  -15.9977 C   0  0  0  0  0  0  0  0  0  0  0  0
  -13.8468    3.7157  -17.9524 N   0  0  0  0  0  0  0  0  0  0  0  0
  -14.7345    7.1778  -18.2669 N   0  0  0  0  0  0  0  0  0  0  0  0
  -14.6813    8.3464  -19.1356 C   0  0  0  0  0  0  0  0  0  0  0  0
  -14.6801    5.9003  -18.7900 C   0  0  0  0  0  0  0  0  0  0  0  0
  -14.6036    5.6857  -20.0008 O   0  0  0  0  0  0  0  0  0  0  0  0
  -14.8103    7.3004  -17.2930 H   0  0  0  0  0  0  0  0  0  0  0  0
 13 14  2  0  0  0
 13 18  1  0  0  0
 14 15  1  0  0  0
 14  8  1  0  0  0
 15 16  2  0  0  0
 16 17  1  0  0  0
  7  8  1  0  0  0
  7  9  1  0  0  0
  7 10  2  0  0  0
  1  2  2  0  0  0
  1  6  1  0  0  0
  1  9  1  0  0  0
  2  3  1  0  0  0
  3  4  2  0  0  0
  4  5  1  0  0  0
  4 24  1  0  0  0
  5  6  2  0  0  0
 24 29  1  0  0  0
 25 26  2  0  0  0
 25 29  1  0  0  0
 26 30  1  0  0  0
 27 28  1  0  0  0
 27 30  2  0  0  0
 27 33  1  0  0  0
 28 29  2  0  0  0
 31 32  1  0  0  0
 31 33  1  0  0  0
 17 18  2  0  0  0
 17 19  1  0  0  0
 18 20  1  0  0  0
 20 21  1  0  0  0
 20 22  1  0  0  0
 20 23  1  0  0  0
 33 34  2  0  0  0
 31 35  1  0  0  0
  8 11  1  0  0  0
  9 12  1  0  0  0
M  END
> <minimizedAffinity>
-9.48401

$$$$
4ASD_BAX_A_1500


 35 37  0  0  0  0  0  0  0  0999 V2000
  -24.7956   -1.4002  -12.8103 C   0  0  0  0  0  0  0  0  0  0  0  0
  -24.6504   -1.3452  -11.4286 C   0  0  0  0  0  0  0  0  0  0  0  0
  -25.7790   -1.4190  -10.6114 C   0  0  0  0  0  0  0  0  0  0  0  0
  -27.0411   -1.5366  -11.1970 C   0  0  0  0  0  0  0  0  0  0  0  0
  -27.2156   -1.5942  -12.5732 C   0  0  0  0  0  0  0  0  0  0  0  0
  -26.0828   -1.5227  -13.3758 C   0  0  0  0  0  0  0  0  0  0  0  0
  -22.7770   -0.2196  -13.6031 C   0  0  0  0  0  0  0  0  0  0  0  0
  -21.8414   -0.2775  -14.6277 N   0  0  0  0  0  0  0  0  0  0  0  0
  -23.6226   -1.3216  -13.5891 N   0  0  0  0  0  0  0  0  0  0  0  0
  -22.8639    0.7037  -12.8141 O   0  0  0  0  0  0  0  0  0  0  0  0
  -21.8632   -1.0554  -15.2308 H   0  0  0  0  0  0  0  0  0  0  0  0
  -23.3894   -2.0924  -14.1555 H   0  0  0  0  0  0  0  0  0  0  0  0
  -19.4907    0.4124  -14.8857 C   0  0  0  0  0  0  0  0  0  0  0  0
  -20.8665    0.7064  -14.8554 C   0  0  0  0  0  0  0  0  0  0  0  0
  -21.2965    2.0209  -15.0553 C   0  0  0  0  0  0  0  0  0  0  0  0
  -20.3652    3.0399  -15.2846 C   0  0  0  0  0  0  0  0  0  0  0  0
  -18.9970    2.7259  -15.3219 C   0  0  0  0  0  0  0  0  0  0  0  0
  -18.5391    1.4141  -15.1101 C   0  0  0  0  0  0  0  0  0  0  0  0
  -17.8809    4.0113  -15.6079 Cl  0  0  0  0  0  0  0  0  0  0  0  0
  -17.0741    1.0495  -15.1268 C   0  0  0  0  0  0  0  0  0  0  0  0
  -16.8868   -0.2514  -14.8120 F   0  0  0  0  0  0  0  0  0  0  0  0
  -16.3108    1.7819  -14.2714 F   0  0  0  0  0  0  0  0  0  0  0  0
  -16.4833    1.1920  -16.3382 F   0  0  0  0  0  0  0  0  0  0  0  0
  -28.1419   -1.6233  -10.3761 O   0  0  0  0  0  0  0  0  0  0  0  0
  -28.0967   -3.6736   -8.9523 C   0  0  0  0  0  0  0  0  0  0  0  0
  -28.0069   -4.0969   -7.6216 C   0  0  0  0  0  0  0  0  0  0  0  0
  -27.8621   -1.9063   -6.8142 C   0  0  0  0  0  0  0  0  0  0  0  0
  -27.9551   -1.3874   -8.1027 C   0  0  0  0  0  0  0  0  0  0  0  0
  -28.0676   -2.2843   -9.1680 C   0  0  0  0  0  0  0  0  0  0  0  0
  -27.9031   -3.2455   -6.5683 N   0  0  0  0  0  0  0  0  0  0  0  0
  -28.3332    0.3143   -5.8161 N   0  0  0  0  0  0  0  0  0  0  0  0
  -28.2399    1.3029   -4.7497 C   0  0  0  0  0  0  0  0  0  0  0  0
  -27.7456   -0.9293   -5.6857 C   0  0  0  0  0  0  0  0  0  0  0  0
  -27.1064   -1.2554   -4.6843 O   0  0  0  0  0  0  0  0  0  0  0  0
  -28.8222    0.5357   -6.6414 H   0  0  0  0  0  0  0  0  0  0  0  0
 13 14  2  0  0  0
 13 18  1  0  0  0
 14 15  1  0  0  0
 14  8  1  0  0  0
 15 16  2  0  0  0
 16 17  1  0  0  0
  7  8  1  0  0  0
  7  9  1  0  0  0
  7 10  2  0  0  0
  1  2  2  0  0  0
  1  6  1  0  0  0
  1  9  1  0  0  0
  2  3  1  0  0  0
  3  4  2  0  0  0
  4  5  1  0  0  0
  4 24  1  0  0  0
  5  6  2  0  0  0
 24 29  1  0  0  0
 25 26  2  0  0  0
 25 29  1  0  0  0
 26 30  1  0  0  0
 27 28  1  0  0  0
 27 30  2  0  0  0
 27 33  1  0  0  0
 28 29  2  0  0  0
 31 32  1  0  0  0
 31 33  1  0  0  0
 17 18  2  0  0  0
 17 19  1  0  0  0
 18 20  1  0  0  0
 20 21  1  0  0  0
 20 22  1  0  0  0
 20 23  1  0  0  0
 33 34  2  0  0  0
 31 35  1  0  0  0
  8 11  1  0  0  0
  9 12  1  0  0  0
M  END
> <minimizedAffinity>
-9.43184

$$$$
4ASD_BAX_A_1500


 35 37  0  0  0  0  0  0  0  0999 V2000
  -25.4965   -1.6313  -11.7505 C   0  0  0  0  0  0  0  0  0  0  0  0
  -24.5537   -0.8823  -11.0552 C   0  0  0  0  0  0  0  0  0  0  0  0
  -23.7897    0.0685  -11.7329 C   0  0  0  0  0  0  0  0  0  0  0  0
  -23.9777    0.2453  -13.1051 C   0  0  0  0  0  0  0  0  0  0  0  0
  -24.9117   -0.4880  -13.8245 C   0  0  0  0  0  0  0  0  0  0  0  0
  -25.6684   -1.4298  -13.1367 C   0  0  0  0  0  0  0  0  0  0  0  0
  -26.9797   -2.2682   -9.8821 C   0  0  0  0  0  0  0  0  0  0  0  0
  -27.4102   -3.3989   -9.2002 N   0  0  0  0  0  0  0  0  0  0  0  0
  -26.2414   -2.5779  -11.0172 N   0  0  0  0  0  0  0  0  0  0  0  0
  -27.2045   -1.1285   -9.5173 O   0  0  0  0  0  0  0  0  0  0  0  0
  -27.1597   -4.2800   -9.5609 H   0  0  0  0  0  0  0  0  0  0  0  0
  -26.2380   -3.5121  -11.3278 H   0  0  0  0  0  0  0  0  0  0  0  0
  -27.8853   -2.4958   -6.9582 C   0  0  0  0  0  0  0  0  0  0  0  0
  -28.1809   -3.3611   -8.0277 C   0  0  0  0  0  0  0  0  0  0  0  0
  -29.2773   -4.2227   -7.9364 C   0  0  0  0  0  0  0  0  0  0  0  0
  -30.0774   -4.2259   -6.7882 C   0  0  0  0  0  0  0  0  0  0  0  0
  -29.7732   -3.3480   -5.7352 C   0  0  0  0  0  0  0  0  0  0  0  0
  -28.6681   -2.4819   -5.7979 C   0  0  0  0  0  0  0  0  0  0  0  0
  -30.7849   -3.3828   -4.3369 Cl  0  0  0  0  0  0  0  0  0  0  0  0
  -28.3061   -1.5400   -4.6749 C   0  0  0  0  0  0  0  0  0  0  0  0
  -27.0794   -1.0033   -4.8585 F   0  0  0  0  0  0  0  0  0  0  0  0
  -28.3093   -2.1183   -3.4435 F   0  0  0  0  0  0  0  0  0  0  0  0
  -29.1298   -0.4694   -4.5648 F   0  0  0  0  0  0  0  0  0  0  0  0
  -23.2265    1.1976  -13.7548 O   0  0  0  0  0  0  0  0  0  0  0  0
  -21.5060   -0.4034  -14.5972 C   0  0  0  0  0  0  0  0  0  0  0  0
  -20.2143   -0.4620  -15.1320 C   0  0  0  0  0  0  0  0  0  0  0  0
  -19.9530    1.8613  -15.0545 C   0  0  0  0  0  0  0  0  0  0  0  0
  -21.2238    2.0217  -14.5092 C   0  0  0  0  0  0  0  0  0  0  0  0
  -21.9957    0.8782  -14.2887 C   0  0  0  0  0  0  0  0  0  0  0  0
  -19.4416    0.6338  -15.3500 N   0  0  0  0  0  0  0  0  0  0  0  0
  -17.8076    2.9678  -15.6219 N   0  0  0  0  0  0  0  0  0  0  0  0
  -16.9723    4.1411  -15.8429 C   0  0  0  0  0  0  0  0  0  0  0  0
  -19.1399    3.0980  -15.2802 C   0  0  0  0  0  0  0  0  0  0  0  0
  -19.6780    4.1959  -15.1289 O   0  0  0  0  0  0  0  0  0  0  0  0
  -17.4169    2.0692  -15.7175 H   0  0  0  0  0  0  0  0  0  0  0  0
 13 14  2  0  0  0
 13 18  1  0  0  0
 14 15  1  0  0  0
 14  8  1  0  0  0
 15 16  2  0  0  0
 16 17  1  0  0  0
  7  8  1  0  0  0
  7  9  1  0  0  0
  7 10  2  0  0  0
  1  2  2  0  0  0
  1  6  1  0  0  0
  1  9  1  0  0  0
  2  3  1  0  0  0
  3  4  2  0  0  0
  4  5  1  0  0  0
  4 24  1  0  0  0
  5  6  2  0  0  0
 24 29  1  0  0  0
 25 26  2  0  0  0
 25 29  1  0  0  0
 26 30  1  0  0  0
 27 28  1  0  0  0
 27 30  2  0  0  0
 27 33  1  0  0  0
 28 29  2  0  0  0
 31 32  1  0  0  0
 31 33  1  0  0  0
 17 18  2  0  0  0
 17 19  1  0  0  0
 18 20  1  0  0  0
 20 21  1  0  0  0
 20 22  1  0  0  0
 20 23  1  0  0  0
 33 34  2  0  0  0
 31 35  1  0  0  0
  8 11  1  0  0  0
  9 12  1  0  0  0
M  END
> <minimizedAffinity>
-9.28100

$$$$
