3F70_MLZ_A_20


 13 12  0  0  0  0  0  0  0  0999 V2000
   28.3367   14.4188  -58.0320 C   0  0  0  0  0  0  0  0  0  0  0  0
   28.0897   16.4777  -56.6948 N   0  0  0  0  0  0  0  0  0  0  0  0
   27.5207   15.1290  -56.9513 C   0  0  0  0  0  0  0  0  0  0  0  0
   28.1374   16.9987  -57.5705 H   0  0  0  0  0  0  0  0  0  0  0  0
   29.0271   16.3827  -56.3042 H   0  0  0  0  0  0  0  0  0  0  0  0
   27.4414   14.3381  -55.6606 C   0  0  0  0  0  0  0  0  0  0  0  0
   27.3843   13.0918  -55.7438 O   0  0  0  0  0  0  0  0  0  0  0  0
   28.5153   15.2083  -59.3426 C   0  0  0  0  0  0  0  0  0  0  0  0
   29.9647   15.0678  -59.8070 C   0  0  0  0  0  0  0  0  0  0  0  0
   30.4353   13.6235  -59.7803 C   0  0  0  0  0  0  0  0  0  0  0  0
   31.8939   13.5101  -59.7961 N   0  0  0  0  0  0  0  0  0  0  0  0
   32.5108   13.8147  -61.0885 C   0  0  0  0  0  0  0  0  0  0  0  0
   32.1422   12.5541  -59.5416 H   0  0  0  0  0  0  0  0  0  0  0  0
  2  3  1  0  0  0
  3  1  1  0  0  0
  3  6  1  0  0  0
  1  8  1  0  0  0
  8  9  1  0  0  0
  9 10  1  0  0  0
 10 11  1  0  0  0
 11 12  1  0  0  0
  6  7  2  0  0  0
  2  4  1  0  0  0
  2  5  1  0  0  0
 11 13  1  0  0  0
M  END
> <minimizedAffinity>
-4.40970

$$$$
3F70_MLZ_A_20


 13 12  0  0  0  0  0  0  0  0999 V2000
   28.1462   16.0958  -56.7275 C   0  0  0  0  0  0  0  0  0  0  0  0
   27.6249   13.7812  -56.0498 N   0  0  0  0  0  0  0  0  0  0  0  0
   27.6305   14.7329  -57.1911 C   0  0  0  0  0  0  0  0  0  0  0  0
   27.0835   14.1759  -55.2806 H   0  0  0  0  0  0  0  0  0  0  0  0
   28.5827   13.6147  -55.7411 H   0  0  0  0  0  0  0  0  0  0  0  0
   28.4309   14.1641  -58.3458 C   0  0  0  0  0  0  0  0  0  0  0  0
   28.9183   13.0208  -58.2093 O   0  0  0  0  0  0  0  0  0  0  0  0
   28.1335   16.3168  -55.2031 C   0  0  0  0  0  0  0  0  0  0  0  0
   28.4568   17.7829  -54.9166 C   0  0  0  0  0  0  0  0  0  0  0  0
   27.7349   18.7230  -55.8669 C   0  0  0  0  0  0  0  0  0  0  0  0
   26.4331   19.1479  -55.3517 N   0  0  0  0  0  0  0  0  0  0  0  0
   26.4040   19.3938  -53.9087 C   0  0  0  0  0  0  0  0  0  0  0  0
   25.7524   18.4187  -55.5647 H   0  0  0  0  0  0  0  0  0  0  0  0
  2  3  1  0  0  0
  3  1  1  0  0  0
  3  6  1  0  0  0
  1  8  1  0  0  0
  8  9  1  0  0  0
  9 10  1  0  0  0
 10 11  1  0  0  0
 11 12  1  0  0  0
  6  7  2  0  0  0
  2  4  1  0  0  0
  2  5  1  0  0  0
 11 13  1  0  0  0
M  END
> <minimizedAffinity>
-4.28403

$$$$
3F70_MLZ_A_20


 13 12  0  0  0  0  0  0  0  0999 V2000
   28.1420   16.2200  -55.0372 C   0  0  0  0  0  0  0  0  0  0  0  0
   27.0358   15.2096  -56.9978 N   0  0  0  0  0  0  0  0  0  0  0  0
   27.8655   14.9231  -55.7986 C   0  0  0  0  0  0  0  0  0  0  0  0
   27.4952   15.9203  -57.5671 H   0  0  0  0  0  0  0  0  0  0  0  0
   26.1197   15.5490  -56.7042 H   0  0  0  0  0  0  0  0  0  0  0  0
   27.1990   13.8679  -54.9383 C   0  0  0  0  0  0  0  0  0  0  0  0
   27.4944   13.8346  -53.7239 O   0  0  0  0  0  0  0  0  0  0  0  0
   28.3130   17.4725  -55.9175 C   0  0  0  0  0  0  0  0  0  0  0  0
   28.8108   18.6231  -55.0433 C   0  0  0  0  0  0  0  0  0  0  0  0
   27.8410   19.7925  -55.0321 C   0  0  0  0  0  0  0  0  0  0  0  0
   26.4476   19.3624  -54.9141 N   0  0  0  0  0  0  0  0  0  0  0  0
   25.9775   19.2042  -53.5365 C   0  0  0  0  0  0  0  0  0  0  0  0
   26.3493   18.4654  -55.3896 H   0  0  0  0  0  0  0  0  0  0  0  0
  2  3  1  0  0  0
  3  1  1  0  0  0
  3  6  1  0  0  0
  1  8  1  0  0  0
  8  9  1  0  0  0
  9 10  1  0  0  0
 10 11  1  0  0  0
 11 12  1  0  0  0
  6  7  2  0  0  0
  2  4  1  0  0  0
  2  5  1  0  0  0
 11 13  1  0  0  0
M  END
> <minimizedAffinity>
-3.86011

$$$$
3F70_MLZ_A_20


 13 12  0  0  0  0  0  0  0  0999 V2000
   28.1815   16.1514  -56.7041 C   0  0  0  0  0  0  0  0  0  0  0  0
   27.6005   13.8901  -55.9059 N   0  0  0  0  0  0  0  0  0  0  0  0
   27.6031   14.7893  -57.0891 C   0  0  0  0  0  0  0  0  0  0  0  0
   27.0986   14.3382  -55.1393 H   0  0  0  0  0  0  0  0  0  0  0  0
   28.5613   13.7023  -55.6195 H   0  0  0  0  0  0  0  0  0  0  0  0
   28.3452   14.1405  -58.2406 C   0  0  0  0  0  0  0  0  0  0  0  0
   28.9487   14.8889  -59.0401 O   0  0  0  0  0  0  0  0  0  0  0  0
   28.1817   16.4599  -55.1948 C   0  0  0  0  0  0  0  0  0  0  0  0
   28.1677   17.9763  -55.0034 C   0  0  0  0  0  0  0  0  0  0  0  0
   27.9041   18.7136  -56.3053 C   0  0  0  0  0  0  0  0  0  0  0  0
   28.6835   19.9467  -56.4174 N   0  0  0  0  0  0  0  0  0  0  0  0
   30.1131   19.7395  -56.6565 C   0  0  0  0  0  0  0  0  0  0  0  0
   28.5781   20.4707  -55.5487 H   0  0  0  0  0  0  0  0  0  0  0  0
  2  3  1  0  0  0
  3  1  1  0  0  0
  3  6  1  0  0  0
  1  8  1  0  0  0
  8  9  1  0  0  0
  9 10  1  0  0  0
 10 11  1  0  0  0
 11 12  1  0  0  0
  6  7  2  0  0  0
  2  4  1  0  0  0
  2  5  1  0  0  0
 11 13  1  0  0  0
M  END
> <minimizedAffinity>
-3.81572

$$$$
3F70_MLZ_A_20


 13 12  0  0  0  0  0  0  0  0999 V2000
   28.4364   18.6346  -55.2951 C   0  0  0  0  0  0  0  0  0  0  0  0
   30.3486   19.5919  -54.0641 N   0  0  0  0  0  0  0  0  0  0  0  0
   29.7104   19.4736  -55.4010 C   0  0  0  0  0  0  0  0  0  0  0  0
   30.5108   18.6605  -53.6812 H   0  0  0  0  0  0  0  0  0  0  0  0
   29.7345   20.1142  -53.4392 H   0  0  0  0  0  0  0  0  0  0  0  0
   29.4608   20.8487  -55.9877 C   0  0  0  0  0  0  0  0  0  0  0  0
   28.3223   21.3453  -55.8443 O   0  0  0  0  0  0  0  0  0  0  0  0
   28.3682   17.4245  -56.2458 C   0  0  0  0  0  0  0  0  0  0  0  0
   28.0775   16.1694  -55.4233 C   0  0  0  0  0  0  0  0  0  0  0  0
   27.6400   15.0044  -56.2947 C   0  0  0  0  0  0  0  0  0  0  0  0
   27.4231   13.7799  -55.5238 N   0  0  0  0  0  0  0  0  0  0  0  0
   27.3042   13.9870  -54.0793 C   0  0  0  0  0  0  0  0  0  0  0  0
   28.2100   13.1533  -55.6925 H   0  0  0  0  0  0  0  0  0  0  0  0
  2  3  1  0  0  0
  3  1  1  0  0  0
  3  6  1  0  0  0
  1  8  1  0  0  0
  8  9  1  0  0  0
  9 10  1  0  0  0
 10 11  1  0  0  0
 11 12  1  0  0  0
  6  7  2  0  0  0
  2  4  1  0  0  0
  2  5  1  0  0  0
 11 13  1  0  0  0
M  END
> <minimizedAffinity>
-3.68862

$$$$
3F70_MLZ_A_20


 13 12  0  0  0  0  0  0  0  0999 V2000
   28.1175   16.2514  -55.0652 C   0  0  0  0  0  0  0  0  0  0  0  0
   27.0313   15.1603  -56.9934 N   0  0  0  0  0  0  0  0  0  0  0  0
   27.8296   14.9215  -55.7629 C   0  0  0  0  0  0  0  0  0  0  0  0
   27.5173   15.8304  -57.5894 H   0  0  0  0  0  0  0  0  0  0  0  0
   26.1167   15.5330  -56.7384 H   0  0  0  0  0  0  0  0  0  0  0  0
   27.1233   13.9272  -54.8630 C   0  0  0  0  0  0  0  0  0  0  0  0
   27.5103   13.8373  -53.6774 O   0  0  0  0  0  0  0  0  0  0  0  0
   28.3260   17.4530  -56.0063 C   0  0  0  0  0  0  0  0  0  0  0  0
   28.2146   18.7408  -55.1907 C   0  0  0  0  0  0  0  0  0  0  0  0
   29.5708   19.2366  -54.7185 C   0  0  0  0  0  0  0  0  0  0  0  0
   30.4409   19.6271  -55.8281 N   0  0  0  0  0  0  0  0  0  0  0  0
   30.0412   20.8623  -56.5050 C   0  0  0  0  0  0  0  0  0  0  0  0
   30.4403   18.8727  -56.5146 H   0  0  0  0  0  0  0  0  0  0  0  0
  2  3  1  0  0  0
  3  1  1  0  0  0
  3  6  1  0  0  0
  1  8  1  0  0  0
  8  9  1  0  0  0
  9 10  1  0  0  0
 10 11  1  0  0  0
 11 12  1  0  0  0
  6  7  2  0  0  0
  2  4  1  0  0  0
  2  5  1  0  0  0
 11 13  1  0  0  0
M  END
> <minimizedAffinity>
-3.52910

$$$$
3F70_MLZ_A_20


 13 12  0  0  0  0  0  0  0  0999 V2000
   29.1575   16.1127  -58.2955 C   0  0  0  0  0  0  0  0  0  0  0  0
   28.6107   13.7171  -58.0706 N   0  0  0  0  0  0  0  0  0  0  0  0
   28.9102   14.8012  -59.0419 C   0  0  0  0  0  0  0  0  0  0  0  0
   27.8284   13.9971  -57.4790 H   0  0  0  0  0  0  0  0  0  0  0  0
   29.4313   13.5446  -57.4899 H   0  0  0  0  0  0  0  0  0  0  0  0
   30.0715   14.4039  -59.9314 C   0  0  0  0  0  0  0  0  0  0  0  0
   30.5782   15.2871  -60.6570 O   0  0  0  0  0  0  0  0  0  0  0  0
   27.9756   16.6150  -57.4448 C   0  0  0  0  0  0  0  0  0  0  0  0
   28.5218   17.2049  -56.1449 C   0  0  0  0  0  0  0  0  0  0  0  0
   28.1757   16.3479  -54.9392 C   0  0  0  0  0  0  0  0  0  0  0  0
   27.5074   15.1011  -55.3126 N   0  0  0  0  0  0  0  0  0  0  0  0
   27.3984   14.1242  -54.2275 C   0  0  0  0  0  0  0  0  0  0  0  0
   28.0330   14.6735  -56.0750 H   0  0  0  0  0  0  0  0  0  0  0  0
  2  3  1  0  0  0
  3  1  1  0  0  0
  3  6  1  0  0  0
  1  8  1  0  0  0
  8  9  1  0  0  0
  9 10  1  0  0  0
 10 11  1  0  0  0
 11 12  1  0  0  0
  6  7  2  0  0  0
  2  4  1  0  0  0
  2  5  1  0  0  0
 11 13  1  0  0  0
M  END
> <minimizedAffinity>
-3.44361

$$$$
3F70_MLZ_A_20


 13 12  0  0  0  0  0  0  0  0999 V2000
   27.0658   19.2374  -55.0230 C   0  0  0  0  0  0  0  0  0  0  0  0
   25.5983   18.2851  -53.2828 N   0  0  0  0  0  0  0  0  0  0  0  0
   26.3681   19.4907  -53.6861 C   0  0  0  0  0  0  0  0  0  0  0  0
   26.2187   17.4756  -53.2659 H   0  0  0  0  0  0  0  0  0  0  0  0
   24.8457   18.1228  -53.9518 H   0  0  0  0  0  0  0  0  0  0  0  0
   25.4628   20.7061  -53.7173 C   0  0  0  0  0  0  0  0  0  0  0  0
   25.9299   21.7910  -53.3074 O   0  0  0  0  0  0  0  0  0  0  0  0
   28.4473   18.5632  -54.9233 C   0  0  0  0  0  0  0  0  0  0  0  0
   28.4584   17.3301  -55.8264 C   0  0  0  0  0  0  0  0  0  0  0  0
   28.0567   16.0706  -55.0777 C   0  0  0  0  0  0  0  0  0  0  0  0
   27.4999   15.0474  -55.9630 N   0  0  0  0  0  0  0  0  0  0  0  0
   27.1415   13.7964  -55.2920 C   0  0  0  0  0  0  0  0  0  0  0  0
   28.1921   14.8367  -56.6819 H   0  0  0  0  0  0  0  0  0  0  0  0
  2  3  1  0  0  0
  3  1  1  0  0  0
  3  6  1  0  0  0
  1  8  1  0  0  0
  8  9  1  0  0  0
  9 10  1  0  0  0
 10 11  1  0  0  0
 11 12  1  0  0  0
  6  7  2  0  0  0
  2  4  1  0  0  0
  2  5  1  0  0  0
 11 13  1  0  0  0
M  END
> <minimizedAffinity>
-3.41497

$$$$
3F70_MLZ_A_20


 13 12  0  0  0  0  0  0  0  0999 V2000
   28.7634   19.7490  -54.4793 C   0  0  0  0  0  0  0  0  0  0  0  0
   27.5186   21.7251  -55.2756 N   0  0  0  0  0  0  0  0  0  0  0  0
   28.8655   21.1044  -55.1799 C   0  0  0  0  0  0  0  0  0  0  0  0
   27.1041   21.7831  -54.3454 H   0  0  0  0  0  0  0  0  0  0  0  0
   26.9239   21.1559  -55.8779 H   0  0  0  0  0  0  0  0  0  0  0  0
   29.4990   21.0090  -56.5536 C   0  0  0  0  0  0  0  0  0  0  0  0
   28.7581   21.1646  -57.5487 O   0  0  0  0  0  0  0  0  0  0  0  0
   27.7145   18.7857  -55.0664 C   0  0  0  0  0  0  0  0  0  0  0  0
   28.3107   17.3791  -55.1125 C   0  0  0  0  0  0  0  0  0  0  0  0
   28.1819   16.7493  -56.4890 C   0  0  0  0  0  0  0  0  0  0  0  0
   27.7228   15.3614  -56.4283 N   0  0  0  0  0  0  0  0  0  0  0  0
   27.9761   14.5862  -57.6442 C   0  0  0  0  0  0  0  0  0  0  0  0
   26.7174   15.3654  -56.2563 H   0  0  0  0  0  0  0  0  0  0  0  0
  2  3  1  0  0  0
  3  1  1  0  0  0
  3  6  1  0  0  0
  1  8  1  0  0  0
  8  9  1  0  0  0
  9 10  1  0  0  0
 10 11  1  0  0  0
 11 12  1  0  0  0
  6  7  2  0  0  0
  2  4  1  0  0  0
  2  5  1  0  0  0
 11 13  1  0  0  0
M  END
> <minimizedAffinity>
-3.40000

$$$$
3F70_MLZ_A_20


 13 12  0  0  0  0  0  0  0  0999 V2000
   29.8236   19.0785  -56.1913 C   0  0  0  0  0  0  0  0  0  0  0  0
   28.9594   20.9610  -57.5322 N   0  0  0  0  0  0  0  0  0  0  0  0
   29.6172   20.5925  -56.2516 C   0  0  0  0  0  0  0  0  0  0  0  0
   28.0930   20.4324  -57.6338 H   0  0  0  0  0  0  0  0  0  0  0  0
   29.5831   20.7441  -58.3096 H   0  0  0  0  0  0  0  0  0  0  0  0
   30.9082   21.3683  -56.0817 C   0  0  0  0  0  0  0  0  0  0  0  0
   30.9553   22.5292  -56.5435 O   0  0  0  0  0  0  0  0  0  0  0  0
   28.5535   18.2553  -55.9051 C   0  0  0  0  0  0  0  0  0  0  0  0
   28.3983   17.1963  -56.9963 C   0  0  0  0  0  0  0  0  0  0  0  0
   27.9364   15.8621  -56.4354 C   0  0  0  0  0  0  0  0  0  0  0  0
   27.9637   15.8306  -54.9729 N   0  0  0  0  0  0  0  0  0  0  0  0
   27.5485   14.5547  -54.3871 C   0  0  0  0  0  0  0  0  0  0  0  0
   27.3392   16.5588  -54.6266 H   0  0  0  0  0  0  0  0  0  0  0  0
  2  3  1  0  0  0
  3  1  1  0  0  0
  3  6  1  0  0  0
  1  8  1  0  0  0
  8  9  1  0  0  0
  9 10  1  0  0  0
 10 11  1  0  0  0
 11 12  1  0  0  0
  6  7  2  0  0  0
  2  4  1  0  0  0
  2  5  1  0  0  0
 11 13  1  0  0  0
M  END
> <minimizedAffinity>
-3.39424

$$$$
