2H3E_6PR_A_331


 22 21  0  0  0  0  0  0  0  0999 V2000
   41.4236   30.2676   17.7651 C   0  0  0  0  0  0  0  0  0  0  0  0
   41.4885   31.3667   17.2159 O   0  0  0  0  0  0  0  0  0  0  0  0
   42.0432   29.1717   17.3340 N   0  0  0  0  0  0  0  0  0  0  0  0
   41.9103   28.3342   17.8342 H   0  0  0  0  0  0  0  0  0  0  0  0
   40.5793   30.0695   19.0263 C   0  0  0  0  0  0  0  0  0  0  0  0
   38.2315   28.7674   19.4967 O   0  0  0  0  0  0  0  0  0  0  0  0
   39.7486   28.4621   19.0505 P   0  0  0  0  0  0  0  0  0  0  0  0
   40.4116   27.6184   20.2501 O   0  0  0  0  0  0  0  0  0  0  0  0
   39.8151   27.7455   17.7571 O   0  0  0  0  0  0  0  0  0  0  0  0
   37.7306   27.9373   19.5285 H   0  0  0  0  0  0  0  0  0  0  0  0
   39.3542   26.8955   17.8344 H   0  0  0  0  0  0  0  0  0  0  0  0
   42.9165   29.1445   16.1495 C   0  0  0  0  0  0  0  0  0  0  0  0
   42.1748   28.6221   14.9155 C   0  0  0  0  0  0  0  0  0  0  0  0
   42.6773   28.6987   13.7960 O   0  0  0  0  0  0  0  0  0  0  0  0
   40.9756   28.0994   15.1548 N   0  0  0  0  0  0  0  0  0  0  0  0
   40.6277   28.0666   16.0751 H   0  0  0  0  0  0  0  0  0  0  0  0
   40.4358   27.7453   14.4115 H   0  0  0  0  0  0  0  0  0  0  0  0
   44.1530   28.2858   16.4355 C   0  0  0  0  0  0  0  0  0  0  0  0
   45.3856   28.6679   15.6081 C   0  0  0  0  0  0  0  0  0  0  0  0
   45.3375   29.7223   14.9380 O   0  0  0  0  0  0  0  0  0  0  0  0
   46.3665   27.8978   15.6793 O   0  0  0  0  0  0  0  0  0  0  0  0
   44.5590   30.2437   14.9403 H   0  0  0  0  0  0  0  0  0  0  0  0
  6  7  1  0  0  0
  7  8  2  0  0  0
  7  9  1  0  0  0
  7  5  1  0  0  0
  5  1  1  0  0  0
  1  2  2  0  0  0
  1  3  1  0  0  0
  3 12  1  0  0  0
 12 18  1  0  0  0
 12 13  1  0  0  0
 18 19  1  0  0  0
 19 20  1  0  0  0
 19 21  2  0  0  0
 13 14  2  0  0  0
 13 15  1  0  0  0
  6 10  1  0  0  0
  9 11  1  0  0  0
  3  4  1  0  0  0
 20 22  1  0  0  0
 15 16  1  0  0  0
 15 17  1  0  0  0
M  END
> <minimizedAffinity>
-9.35560

$$$$
2H3E_6PR_A_331


 22 21  0  0  0  0  0  0  0  0999 V2000
   41.4431   29.1237   16.2597 C   0  0  0  0  0  0  0  0  0  0  0  0
   42.1649   30.0446   16.6398 O   0  0  0  0  0  0  0  0  0  0  0  0
   41.6666   28.3904   15.1720 N   0  0  0  0  0  0  0  0  0  0  0  0
   41.0162   27.6881   14.9419 H   0  0  0  0  0  0  0  0  0  0  0  0
   40.1765   28.7492   17.0331 C   0  0  0  0  0  0  0  0  0  0  0  0
   41.3977   28.9547   19.4611 O   0  0  0  0  0  0  0  0  0  0  0  0
   40.1165   29.5230   18.6676 P   0  0  0  0  0  0  0  0  0  0  0  0
   38.8213   28.9256   19.4134 O   0  0  0  0  0  0  0  0  0  0  0  0
   40.1031   31.0022   18.6186 O   0  0  0  0  0  0  0  0  0  0  0  0
   41.4212   29.3362   20.3526 H   0  0  0  0  0  0  0  0  0  0  0  0
   40.0707   31.3553   19.5215 H   0  0  0  0  0  0  0  0  0  0  0  0
   42.8340   28.5730   14.2943 C   0  0  0  0  0  0  0  0  0  0  0  0
   42.5512   28.0802   12.8721 C   0  0  0  0  0  0  0  0  0  0  0  0
   42.9373   28.7168   11.8936 O   0  0  0  0  0  0  0  0  0  0  0  0
   41.8687   26.9417   12.7925 N   0  0  0  0  0  0  0  0  0  0  0  0
   41.5870   26.4782   13.6141 H   0  0  0  0  0  0  0  0  0  0  0  0
   41.6450   26.5623   11.9120 H   0  0  0  0  0  0  0  0  0  0  0  0
   44.0459   27.8437   14.8836 C   0  0  0  0  0  0  0  0  0  0  0  0
   45.1200   28.7758   15.4561 C   0  0  0  0  0  0  0  0  0  0  0  0
   45.0838   29.0296   16.6797 O   0  0  0  0  0  0  0  0  0  0  0  0
   45.9741   29.2041   14.6514 O   0  0  0  0  0  0  0  0  0  0  0  0
   44.4054   28.6654   17.2138 H   0  0  0  0  0  0  0  0  0  0  0  0
  6  7  1  0  0  0
  7  8  2  0  0  0
  7  9  1  0  0  0
  7  5  1  0  0  0
  5  1  1  0  0  0
  1  2  2  0  0  0
  1  3  1  0  0  0
  3 12  1  0  0  0
 12 18  1  0  0  0
 12 13  1  0  0  0
 18 19  1  0  0  0
 19 20  1  0  0  0
 19 21  2  0  0  0
 13 14  2  0  0  0
 13 15  1  0  0  0
  6 10  1  0  0  0
  9 11  1  0  0  0
  3  4  1  0  0  0
 20 22  1  0  0  0
 15 16  1  0  0  0
 15 17  1  0  0  0
M  END
> <minimizedAffinity>
-8.74132

$$$$
2H3E_6PR_A_331


 22 21  0  0  0  0  0  0  0  0999 V2000
   41.6349   29.5739   16.5111 C   0  0  0  0  0  0  0  0  0  0  0  0
   41.8404   30.7065   16.9455 O   0  0  0  0  0  0  0  0  0  0  0  0
   40.7676   28.7115   17.0353 N   0  0  0  0  0  0  0  0  0  0  0  0
   40.6918   27.8197   16.6250 H   0  0  0  0  0  0  0  0  0  0  0  0
   42.4037   29.0479   15.2967 C   0  0  0  0  0  0  0  0  0  0  0  0
   44.5406   29.4066   16.9501 O   0  0  0  0  0  0  0  0  0  0  0  0
   44.0613   28.4677   15.7324 P   0  0  0  0  0  0  0  0  0  0  0  0
   45.0162   28.8214   14.4859 O   0  0  0  0  0  0  0  0  0  0  0  0
   44.1084   27.0311   16.0851 O   0  0  0  0  0  0  0  0  0  0  0  0
   45.4307   29.1425   17.2310 H   0  0  0  0  0  0  0  0  0  0  0  0
   45.0192   26.7825   16.3077 H   0  0  0  0  0  0  0  0  0  0  0  0
   39.9156   29.0191   18.1955 C   0  0  0  0  0  0  0  0  0  0  0  0
   40.7286   29.6164   19.3478 C   0  0  0  0  0  0  0  0  0  0  0  0
   41.5790   28.9496   19.9341 O   0  0  0  0  0  0  0  0  0  0  0  0
   40.4387   30.8784   19.6509 N   0  0  0  0  0  0  0  0  0  0  0  0
   39.7460   31.3599   19.1433 H   0  0  0  0  0  0  0  0  0  0  0  0
   40.9167   31.3312   20.3828 H   0  0  0  0  0  0  0  0  0  0  0  0
   39.1856   27.7524   18.6542 C   0  0  0  0  0  0  0  0  0  0  0  0
   37.9568   28.0207   19.5307 C   0  0  0  0  0  0  0  0  0  0  0  0
   37.5229   29.1918   19.5885 O   0  0  0  0  0  0  0  0  0  0  0  0
   37.4621   27.0341   20.1156 O   0  0  0  0  0  0  0  0  0  0  0  0
   37.9560   29.8757   19.1167 H   0  0  0  0  0  0  0  0  0  0  0  0
  6  7  1  0  0  0
  7  8  2  0  0  0
  7  9  1  0  0  0
  7  5  1  0  0  0
  5  1  1  0  0  0
  1  2  2  0  0  0
  1  3  1  0  0  0
  3 12  1  0  0  0
 12 18  1  0  0  0
 12 13  1  0  0  0
 18 19  1  0  0  0
 19 20  1  0  0  0
 19 21  2  0  0  0
 13 14  2  0  0  0
 13 15  1  0  0  0
  6 10  1  0  0  0
  9 11  1  0  0  0
  3  4  1  0  0  0
 20 22  1  0  0  0
 15 16  1  0  0  0
 15 17  1  0  0  0
M  END
> <minimizedAffinity>
-8.37568

$$$$
2H3E_6PR_A_331


 22 21  0  0  0  0  0  0  0  0999 V2000
   41.8237   29.6780   17.0200 C   0  0  0  0  0  0  0  0  0  0  0  0
   41.9989   30.7516   17.5948 O   0  0  0  0  0  0  0  0  0  0  0  0
   41.1309   28.6586   17.5217 N   0  0  0  0  0  0  0  0  0  0  0  0
   41.0663   27.8327   16.9898 H   0  0  0  0  0  0  0  0  0  0  0  0
   42.4267   29.4210   15.6369 C   0  0  0  0  0  0  0  0  0  0  0  0
   43.8190   27.1253   15.1678 O   0  0  0  0  0  0  0  0  0  0  0  0
   44.0447   28.6166   15.7325 P   0  0  0  0  0  0  0  0  0  0  0  0
   44.3904   28.4603   17.2966 O   0  0  0  0  0  0  0  0  0  0  0  0
   45.1051   29.3373   14.9931 O   0  0  0  0  0  0  0  0  0  0  0  0
   44.6580   26.6393   15.1937 H   0  0  0  0  0  0  0  0  0  0  0  0
   45.9440   28.8586   15.0823 H   0  0  0  0  0  0  0  0  0  0  0  0
   40.4560   28.6996   18.8291 C   0  0  0  0  0  0  0  0  0  0  0  0
   40.5713   27.3608   19.5640 C   0  0  0  0  0  0  0  0  0  0  0  0
   41.5976   27.0580   20.1694 O   0  0  0  0  0  0  0  0  0  0  0  0
   39.4987   26.5785   19.4872 N   0  0  0  0  0  0  0  0  0  0  0  0
   38.7058   26.8780   18.9863 H   0  0  0  0  0  0  0  0  0  0  0  0
   39.4974   25.6998   19.9312 H   0  0  0  0  0  0  0  0  0  0  0  0
   38.9845   29.0839   18.6422 C   0  0  0  0  0  0  0  0  0  0  0  0
   38.6364   30.4906   19.1425 C   0  0  0  0  0  0  0  0  0  0  0  0
   39.5791   31.2638   19.4194 O   0  0  0  0  0  0  0  0  0  0  0  0
   37.4216   30.7708   19.2202 O   0  0  0  0  0  0  0  0  0  0  0  0
   40.4652   30.9719   19.3329 H   0  0  0  0  0  0  0  0  0  0  0  0
  6  7  1  0  0  0
  7  8  2  0  0  0
  7  9  1  0  0  0
  7  5  1  0  0  0
  5  1  1  0  0  0
  1  2  2  0  0  0
  1  3  1  0  0  0
  3 12  1  0  0  0
 12 18  1  0  0  0
 12 13  1  0  0  0
 18 19  1  0  0  0
 19 20  1  0  0  0
 19 21  2  0  0  0
 13 14  2  0  0  0
 13 15  1  0  0  0
  6 10  1  0  0  0
  9 11  1  0  0  0
  3  4  1  0  0  0
 20 22  1  0  0  0
 15 16  1  0  0  0
 15 17  1  0  0  0
M  END
> <minimizedAffinity>
-8.27736

$$$$
2H3E_6PR_A_331


 22 21  0  0  0  0  0  0  0  0999 V2000
   41.3619   28.9378   15.9563 C   0  0  0  0  0  0  0  0  0  0  0  0
   40.2431   28.6472   15.5350 O   0  0  0  0  0  0  0  0  0  0  0  0
   41.6488   29.1706   17.2347 N   0  0  0  0  0  0  0  0  0  0  0  0
   42.5733   29.4167   17.4672 H   0  0  0  0  0  0  0  0  0  0  0  0
   42.5496   29.0727   15.0005 C   0  0  0  0  0  0  0  0  0  0  0  0
   44.4191   29.4551   16.9466 O   0  0  0  0  0  0  0  0  0  0  0  0
   44.0883   28.4570   15.7267 P   0  0  0  0  0  0  0  0  0  0  0  0
   45.2416   28.6881   14.6280 O   0  0  0  0  0  0  0  0  0  0  0  0
   44.0082   27.0464   16.1674 O   0  0  0  0  0  0  0  0  0  0  0  0
   45.2405   29.1749   17.3800 H   0  0  0  0  0  0  0  0  0  0  0  0
   44.8598   26.7769   16.5457 H   0  0  0  0  0  0  0  0  0  0  0  0
   40.6583   29.0801   18.3197 C   0  0  0  0  0  0  0  0  0  0  0  0
   40.4507   30.4333   19.0063 C   0  0  0  0  0  0  0  0  0  0  0  0
   41.4030   31.1723   19.2486 O   0  0  0  0  0  0  0  0  0  0  0  0
   39.1899   30.7261   19.3113 N   0  0  0  0  0  0  0  0  0  0  0  0
   38.4701   30.0916   19.0908 H   0  0  0  0  0  0  0  0  0  0  0  0
   38.9763   31.5772   19.7576 H   0  0  0  0  0  0  0  0  0  0  0  0
   41.0990   28.0237   19.3384 C   0  0  0  0  0  0  0  0  0  0  0  0
   40.0011   27.0232   19.7174 C   0  0  0  0  0  0  0  0  0  0  0  0
   40.3289   25.8277   19.8802 O   0  0  0  0  0  0  0  0  0  0  0  0
   38.8486   27.4846   19.8555 O   0  0  0  0  0  0  0  0  0  0  0  0
   41.2196   25.5650   19.7556 H   0  0  0  0  0  0  0  0  0  0  0  0
  6  7  1  0  0  0
  7  8  2  0  0  0
  7  9  1  0  0  0
  7  5  1  0  0  0
  5  1  1  0  0  0
  1  2  2  0  0  0
  1  3  1  0  0  0
  3 12  1  0  0  0
 12 18  1  0  0  0
 12 13  1  0  0  0
 18 19  1  0  0  0
 19 20  1  0  0  0
 19 21  2  0  0  0
 13 14  2  0  0  0
 13 15  1  0  0  0
  6 10  1  0  0  0
  9 11  1  0  0  0
  3  4  1  0  0  0
 20 22  1  0  0  0
 15 16  1  0  0  0
 15 17  1  0  0  0
M  END
> <minimizedAffinity>
-8.25486

$$$$
2H3E_6PR_A_331


 22 21  0  0  0  0  0  0  0  0999 V2000
   42.4045   28.7389   15.3945 C   0  0  0  0  0  0  0  0  0  0  0  0
   41.8991   29.5102   14.5800 O   0  0  0  0  0  0  0  0  0  0  0  0
   41.9422   28.5333   16.6252 N   0  0  0  0  0  0  0  0  0  0  0  0
   42.4318   27.9094   17.2085 H   0  0  0  0  0  0  0  0  0  0  0  0
   43.6609   27.9388   15.0424 C   0  0  0  0  0  0  0  0  0  0  0  0
   45.6017   29.8305   14.7529 O   0  0  0  0  0  0  0  0  0  0  0  0
   45.1567   28.6579   15.7633 P   0  0  0  0  0  0  0  0  0  0  0  0
   46.2997   27.5280   15.6762 O   0  0  0  0  0  0  0  0  0  0  0  0
   44.9643   29.1557   17.1438 O   0  0  0  0  0  0  0  0  0  0  0  0
   46.4055   30.2580   15.0877 H   0  0  0  0  0  0  0  0  0  0  0  0
   45.7978   29.5272   17.4727 H   0  0  0  0  0  0  0  0  0  0  0  0
   40.7383   29.1889   17.1614 C   0  0  0  0  0  0  0  0  0  0  0  0
   41.0825   30.4972   17.8794 C   0  0  0  0  0  0  0  0  0  0  0  0
   42.2121   30.9779   17.8110 O   0  0  0  0  0  0  0  0  0  0  0  0
   40.0843   31.0465   18.5650 N   0  0  0  0  0  0  0  0  0  0  0  0
   39.2008   30.6124   18.5811 H   0  0  0  0  0  0  0  0  0  0  0  0
   40.2287   31.8873   19.0563 H   0  0  0  0  0  0  0  0  0  0  0  0
   40.0053   28.2337   18.1092 C   0  0  0  0  0  0  0  0  0  0  0  0
   40.7327   27.9879   19.4361 C   0  0  0  0  0  0  0  0  0  0  0  0
   41.9271   28.3465   19.5245 O   0  0  0  0  0  0  0  0  0  0  0  0
   40.0650   27.4577   20.3489 O   0  0  0  0  0  0  0  0  0  0  0  0
   42.3545   28.7380   18.7883 H   0  0  0  0  0  0  0  0  0  0  0  0
  6  7  1  0  0  0
  7  8  2  0  0  0
  7  9  1  0  0  0
  7  5  1  0  0  0
  5  1  1  0  0  0
  1  2  2  0  0  0
  1  3  1  0  0  0
  3 12  1  0  0  0
 12 18  1  0  0  0
 12 13  1  0  0  0
 18 19  1  0  0  0
 19 20  1  0  0  0
 19 21  2  0  0  0
 13 14  2  0  0  0
 13 15  1  0  0  0
  6 10  1  0  0  0
  9 11  1  0  0  0
  3  4  1  0  0  0
 20 22  1  0  0  0
 15 16  1  0  0  0
 15 17  1  0  0  0
M  END
> <minimizedAffinity>
-8.20359

$$$$
2H3E_6PR_A_331


 22 21  0  0  0  0  0  0  0  0999 V2000
   41.0574   29.1022   16.7133 C   0  0  0  0  0  0  0  0  0  0  0  0
   40.3979   28.7699   15.7292 O   0  0  0  0  0  0  0  0  0  0  0  0
   40.5431   29.3600   17.9132 N   0  0  0  0  0  0  0  0  0  0  0  0
   41.1551   29.6392   18.6321 H   0  0  0  0  0  0  0  0  0  0  0  0
   42.5765   29.2646   16.6213 C   0  0  0  0  0  0  0  0  0  0  0  0
   43.4124   27.0737   15.2319 O   0  0  0  0  0  0  0  0  0  0  0  0
   43.2368   28.6640   15.0473 P   0  0  0  0  0  0  0  0  0  0  0  0
   44.7215   29.2698   14.9088 O   0  0  0  0  0  0  0  0  0  0  0  0
   42.3838   28.9988   13.8850 O   0  0  0  0  0  0  0  0  0  0  0  0
   43.7663   26.6904   14.4141 H   0  0  0  0  0  0  0  0  0  0  0  0
   42.7897   28.6514   13.0753 H   0  0  0  0  0  0  0  0  0  0  0  0
   39.1084   29.2502   18.2234 C   0  0  0  0  0  0  0  0  0  0  0  0
   38.6202   30.4394   19.0560 C   0  0  0  0  0  0  0  0  0  0  0  0
   37.4195   30.6434   19.2240 O   0  0  0  0  0  0  0  0  0  0  0  0
   39.5799   31.2093   19.5607 N   0  0  0  0  0  0  0  0  0  0  0  0
   40.5251   30.9931   19.3903 H   0  0  0  0  0  0  0  0  0  0  0  0
   39.3451   31.9956   20.1047 H   0  0  0  0  0  0  0  0  0  0  0  0
   38.8352   27.9333   18.9575 C   0  0  0  0  0  0  0  0  0  0  0  0
   40.0075   27.4379   19.8122 C   0  0  0  0  0  0  0  0  0  0  0  0
   40.6874   28.2901   20.4242 O   0  0  0  0  0  0  0  0  0  0  0  0
   40.1885   26.2026   19.8495 O   0  0  0  0  0  0  0  0  0  0  0  0
   40.4829   29.2007   20.3404 H   0  0  0  0  0  0  0  0  0  0  0  0
  6  7  1  0  0  0
  7  8  2  0  0  0
  7  9  1  0  0  0
  7  5  1  0  0  0
  5  1  1  0  0  0
  1  2  2  0  0  0
  1  3  1  0  0  0
  3 12  1  0  0  0
 12 18  1  0  0  0
 12 13  1  0  0  0
 18 19  1  0  0  0
 19 20  1  0  0  0
 19 21  2  0  0  0
 13 14  2  0  0  0
 13 15  1  0  0  0
  6 10  1  0  0  0
  9 11  1  0  0  0
  3  4  1  0  0  0
 20 22  1  0  0  0
 15 16  1  0  0  0
 15 17  1  0  0  0
M  END
> <minimizedAffinity>
-8.16332

$$$$
2H3E_6PR_A_331


 22 21  0  0  0  0  0  0  0  0999 V2000
   42.1248   29.6768   17.0012 C   0  0  0  0  0  0  0  0  0  0  0  0
   42.7091   30.6013   17.5648 O   0  0  0  0  0  0  0  0  0  0  0  0
   41.1561   28.9499   17.5525 N   0  0  0  0  0  0  0  0  0  0  0  0
   40.7654   28.2169   17.0239 H   0  0  0  0  0  0  0  0  0  0  0  0
   42.4948   29.2695   15.5731 C   0  0  0  0  0  0  0  0  0  0  0  0
   44.5798   28.2415   16.9961 O   0  0  0  0  0  0  0  0  0  0  0  0
   43.9319   28.1711   15.5232 P   0  0  0  0  0  0  0  0  0  0  0  0
   44.9979   28.8512   14.5274 O   0  0  0  0  0  0  0  0  0  0  0  0
   43.5996   26.7844   15.1269 O   0  0  0  0  0  0  0  0  0  0  0  0
   45.3615   27.6684   17.0332 H   0  0  0  0  0  0  0  0  0  0  0  0
   44.4077   26.2479   15.1191 H   0  0  0  0  0  0  0  0  0  0  0  0
   40.6373   29.1827   18.9102 C   0  0  0  0  0  0  0  0  0  0  0  0
   39.5604   28.1599   19.2841 C   0  0  0  0  0  0  0  0  0  0  0  0
   38.3964   28.5075   19.4731 O   0  0  0  0  0  0  0  0  0  0  0  0
   39.9842   26.9036   19.3874 N   0  0  0  0  0  0  0  0  0  0  0  0
   40.9308   26.6884   19.2234 H   0  0  0  0  0  0  0  0  0  0  0  0
   39.3513   26.1888   19.6277 H   0  0  0  0  0  0  0  0  0  0  0  0
   40.0840   30.6076   19.0174 C   0  0  0  0  0  0  0  0  0  0  0  0
   40.7493   31.4573   20.1063 C   0  0  0  0  0  0  0  0  0  0  0  0
   41.8869   31.1194   20.4995 O   0  0  0  0  0  0  0  0  0  0  0  0
   40.1058   32.4477   20.5127 O   0  0  0  0  0  0  0  0  0  0  0  0
   42.3000   30.3588   20.1405 H   0  0  0  0  0  0  0  0  0  0  0  0
  6  7  1  0  0  0
  7  8  2  0  0  0
  7  9  1  0  0  0
  7  5  1  0  0  0
  5  1  1  0  0  0
  1  2  2  0  0  0
  1  3  1  0  0  0
  3 12  1  0  0  0
 12 18  1  0  0  0
 12 13  1  0  0  0
 18 19  1  0  0  0
 19 20  1  0  0  0
 19 21  2  0  0  0
 13 14  2  0  0  0
 13 15  1  0  0  0
  6 10  1  0  0  0
  9 11  1  0  0  0
  3  4  1  0  0  0
 20 22  1  0  0  0
 15 16  1  0  0  0
 15 17  1  0  0  0
M  END
> <minimizedAffinity>
-7.75223

$$$$
2H3E_6PR_A_331


 22 21  0  0  0  0  0  0  0  0999 V2000
   40.6991   28.7163   16.4877 C   0  0  0  0  0  0  0  0  0  0  0  0
   40.2447   28.8096   15.3481 O   0  0  0  0  0  0  0  0  0  0  0  0
   41.9936   28.7749   16.7902 N   0  0  0  0  0  0  0  0  0  0  0  0
   42.2569   28.6686   17.7328 H   0  0  0  0  0  0  0  0  0  0  0  0
   39.7722   28.5024   17.6867 C   0  0  0  0  0  0  0  0  0  0  0  0
   40.6251   29.2590   20.1624 O   0  0  0  0  0  0  0  0  0  0  0  0
   39.8649   29.8621   18.8770 P   0  0  0  0  0  0  0  0  0  0  0  0
   38.3560   30.1679   19.3463 O   0  0  0  0  0  0  0  0  0  0  0  0
   40.5414   31.0659   18.3441 O   0  0  0  0  0  0  0  0  0  0  0  0
   40.7064   29.9464   20.8420 H   0  0  0  0  0  0  0  0  0  0  0  0
   40.5591   31.7554   19.0261 H   0  0  0  0  0  0  0  0  0  0  0  0
   43.0529   28.9900   15.7911 C   0  0  0  0  0  0  0  0  0  0  0  0
   42.9846   27.9527   14.6664 C   0  0  0  0  0  0  0  0  0  0  0  0
   43.3120   26.7841   14.8631 O   0  0  0  0  0  0  0  0  0  0  0  0
   42.5578   28.4150   13.4949 N   0  0  0  0  0  0  0  0  0  0  0  0
   42.3099   29.3631   13.4005 H   0  0  0  0  0  0  0  0  0  0  0  0
   42.4897   27.8091   12.7219 H   0  0  0  0  0  0  0  0  0  0  0  0
   44.4248   28.9528   16.4726 C   0  0  0  0  0  0  0  0  0  0  0  0
   45.5976   28.7436   15.5077 C   0  0  0  0  0  0  0  0  0  0  0  0
   45.7842   29.6015   14.6178 O   0  0  0  0  0  0  0  0  0  0  0  0
   46.3006   27.7282   15.6953 O   0  0  0  0  0  0  0  0  0  0  0  0
   45.2067   30.3360   14.5467 H   0  0  0  0  0  0  0  0  0  0  0  0
  6  7  1  0  0  0
  7  8  2  0  0  0
  7  9  1  0  0  0
  7  5  1  0  0  0
  5  1  1  0  0  0
  1  2  2  0  0  0
  1  3  1  0  0  0
  3 12  1  0  0  0
 12 18  1  0  0  0
 12 13  1  0  0  0
 18 19  1  0  0  0
 19 20  1  0  0  0
 19 21  2  0  0  0
 13 14  2  0  0  0
 13 15  1  0  0  0
  6 10  1  0  0  0
  9 11  1  0  0  0
  3  4  1  0  0  0
 20 22  1  0  0  0
 15 16  1  0  0  0
 15 17  1  0  0  0
M  END
> <minimizedAffinity>
-7.16566

$$$$
2H3E_6PR_A_331


 22 21  0  0  0  0  0  0  0  0999 V2000
   41.0369   29.1027   16.5219 C   0  0  0  0  0  0  0  0  0  0  0  0
   40.3276   28.5293   15.6962 O   0  0  0  0  0  0  0  0  0  0  0  0
   42.3675   29.0996   16.5041 N   0  0  0  0  0  0  0  0  0  0  0  0
   42.8440   29.5729   17.2239 H   0  0  0  0  0  0  0  0  0  0  0  0
   40.4157   29.8796   17.6850 C   0  0  0  0  0  0  0  0  0  0  0  0
   39.9033   27.3085   18.4306 O   0  0  0  0  0  0  0  0  0  0  0  0
   39.9204   28.7963   19.0472 P   0  0  0  0  0  0  0  0  0  0  0  0
   38.3911   29.1600   19.3930 O   0  0  0  0  0  0  0  0  0  0  0  0
   40.8027   28.8982   20.2311 O   0  0  0  0  0  0  0  0  0  0  0  0
   39.6427   26.6764   19.1187 H   0  0  0  0  0  0  0  0  0  0  0  0
   40.4863   28.2964   20.9230 H   0  0  0  0  0  0  0  0  0  0  0  0
   43.1650   28.4266   15.4660 C   0  0  0  0  0  0  0  0  0  0  0  0
   44.6517   28.3928   15.8324 C   0  0  0  0  0  0  0  0  0  0  0  0
   45.0558   27.7121   16.7732 O   0  0  0  0  0  0  0  0  0  0  0  0
   45.4401   29.1446   15.0699 N   0  0  0  0  0  0  0  0  0  0  0  0
   45.0557   29.6680   14.3300 H   0  0  0  0  0  0  0  0  0  0  0  0
   46.4083   29.1779   15.2453 H   0  0  0  0  0  0  0  0  0  0  0  0
   42.9605   29.1269   14.1185 C   0  0  0  0  0  0  0  0  0  0  0  0
   42.6097   28.1779   12.9667 C   0  0  0  0  0  0  0  0  0  0  0  0
   41.9031   27.1794   13.2249 O   0  0  0  0  0  0  0  0  0  0  0  0
   43.0456   28.4857   11.8373 O   0  0  0  0  0  0  0  0  0  0  0  0
   41.6177   27.0220   14.1034 H   0  0  0  0  0  0  0  0  0  0  0  0
  6  7  1  0  0  0
  7  8  2  0  0  0
  7  9  1  0  0  0
  7  5  1  0  0  0
  5  1  1  0  0  0
  1  2  2  0  0  0
  1  3  1  0  0  0
  3 12  1  0  0  0
 12 18  1  0  0  0
 12 13  1  0  0  0
 18 19  1  0  0  0
 19 20  1  0  0  0
 19 21  2  0  0  0
 13 14  2  0  0  0
 13 15  1  0  0  0
  6 10  1  0  0  0
  9 11  1  0  0  0
  3  4  1  0  0  0
 20 22  1  0  0  0
 15 16  1  0  0  0
 15 17  1  0  0  0
M  END
> <minimizedAffinity>
-6.90803

$$$$
