4MRW_MRW_A_900


 13 14  0  0  0  0  0  0  0  0999 V2000
    3.2780  -26.2068  -33.4940 O   0  0  0  0  0  0  0  0  0  0  0  0
    3.9400  -27.1495  -34.1454 C   0  0  0  0  0  0  0  0  0  0  0  0
    3.9700  -27.1079  -35.5317 C   0  0  0  0  0  0  0  0  0  0  0  0
    4.6576  -28.1005  -36.2121 C   0  0  0  0  0  0  0  0  0  0  0  0
    5.2915  -29.0944  -35.5530 N   0  0  0  0  0  0  0  0  0  0  0  0
    5.2760  -29.1523  -34.2070 C   0  0  0  0  0  0  0  0  0  0  0  0
    5.9436  -30.1922  -33.5645 C   0  0  0  0  0  0  0  0  0  0  0  0
    5.9307  -30.2560  -32.1728 C   0  0  0  0  0  0  0  0  0  0  0  0
    6.7688  -31.5532  -31.3720 Cl  0  0  0  0  0  0  0  0  0  0  0  0
    5.2560  -29.2809  -31.4336 C   0  0  0  0  0  0  0  0  0  0  0  0
    4.5894  -28.2415  -32.0741 C   0  0  0  0  0  0  0  0  0  0  0  0
    4.5978  -28.1741  -33.4675 C   0  0  0  0  0  0  0  0  0  0  0  0
    2.8425  -25.5267  -33.9690 H   0  0  0  0  0  0  0  0  0  0  0  0
  3  4  2  0  0  0
  3  2  1  0  0  0
  4  5  1  0  0  0
  1  2  1  0  0  0
  2 12  2  0  0  0
  5  6  2  0  0  0
 12  6  1  0  0  0
 12 11  1  0  0  0
  6  7  1  0  0  0
 11 10  2  0  0  0
  7  8  2  0  0  0
 10  8  1  0  0  0
  8  9  1  0  0  0
  1 13  1  0  0  0
M  END
> <minimizedAffinity>
-6.61502

$$$$
4MRW_MRW_A_900


 13 14  0  0  0  0  0  0  0  0999 V2000
    3.6451  -26.3134  -36.2582 O   0  0  0  0  0  0  0  0  0  0  0  0
    4.1862  -27.4380  -35.8181 C   0  0  0  0  0  0  0  0  0  0  0  0
    4.7109  -28.3321  -36.7400 C   0  0  0  0  0  0  0  0  0  0  0  0
    5.2703  -29.5128  -36.2773 C   0  0  0  0  0  0  0  0  0  0  0  0
    5.3119  -29.8012  -34.9585 N   0  0  0  0  0  0  0  0  0  0  0  0
    4.8094  -28.9459  -34.0468 C   0  0  0  0  0  0  0  0  0  0  0  0
    4.8733  -29.2790  -32.6959 C   0  0  0  0  0  0  0  0  0  0  0  0
    4.3554  -28.3977  -31.7493 C   0  0  0  0  0  0  0  0  0  0  0  0
    4.4401  -28.8136  -30.0622 Cl  0  0  0  0  0  0  0  0  0  0  0  0
    3.7818  -27.1905  -32.1570 C   0  0  0  0  0  0  0  0  0  0  0  0
    3.7178  -26.8564  -33.5059 C   0  0  0  0  0  0  0  0  0  0  0  0
    4.2334  -27.7363  -34.4576 C   0  0  0  0  0  0  0  0  0  0  0  0
    3.6235  -26.1321  -37.1772 H   0  0  0  0  0  0  0  0  0  0  0  0
  3  4  2  0  0  0
  3  2  1  0  0  0
  4  5  1  0  0  0
  1  2  1  0  0  0
  2 12  2  0  0  0
  5  6  2  0  0  0
 12  6  1  0  0  0
 12 11  1  0  0  0
  6  7  1  0  0  0
 11 10  2  0  0  0
  7  8  2  0  0  0
 10  8  1  0  0  0
  8  9  1  0  0  0
  1 13  1  0  0  0
M  END
> <minimizedAffinity>
-6.47895

$$$$
4MRW_MRW_A_900


 13 14  0  0  0  0  0  0  0  0999 V2000
    5.3241  -28.9920  -30.6527 O   0  0  0  0  0  0  0  0  0  0  0  0
    5.6289  -29.4272  -31.8647 C   0  0  0  0  0  0  0  0  0  0  0  0
    6.4471  -30.5407  -31.9883 C   0  0  0  0  0  0  0  0  0  0  0  0
    6.7711  -30.9901  -33.2587 C   0  0  0  0  0  0  0  0  0  0  0  0
    6.3070  -30.3678  -34.3639 N   0  0  0  0  0  0  0  0  0  0  0  0
    5.5100  -29.2859  -34.2659 C   0  0  0  0  0  0  0  0  0  0  0  0
    5.0505  -28.6736  -35.4294 C   0  0  0  0  0  0  0  0  0  0  0  0
    4.2258  -27.5548  -35.3331 C   0  0  0  0  0  0  0  0  0  0  0  0
    3.6493  -26.7940  -36.7875 Cl  0  0  0  0  0  0  0  0  0  0  0  0
    3.8632  -27.0584  -34.0783 C   0  0  0  0  0  0  0  0  0  0  0  0
    4.3211  -27.6694  -32.9154 C   0  0  0  0  0  0  0  0  0  0  0  0
    5.1485  -28.7888  -33.0065 C   0  0  0  0  0  0  0  0  0  0  0  0
    5.6577  -29.4358  -29.8979 H   0  0  0  0  0  0  0  0  0  0  0  0
  3  4  2  0  0  0
  3  2  1  0  0  0
  4  5  1  0  0  0
  1  2  1  0  0  0
  2 12  2  0  0  0
  5  6  2  0  0  0
 12  6  1  0  0  0
 12 11  1  0  0  0
  6  7  1  0  0  0
 11 10  2  0  0  0
  7  8  2  0  0  0
 10  8  1  0  0  0
  8  9  1  0  0  0
  1 13  1  0  0  0
M  END
> <minimizedAffinity>
-6.44439

$$$$
4MRW_MRW_A_900


 13 14  0  0  0  0  0  0  0  0999 V2000
    3.1695  -25.9990  -32.3247 O   0  0  0  0  0  0  0  0  0  0  0  0
    3.8233  -27.1450  -32.4260 C   0  0  0  0  0  0  0  0  0  0  0  0
    4.1670  -27.8227  -31.2653 C   0  0  0  0  0  0  0  0  0  0  0  0
    4.8583  -29.0190  -31.3735 C   0  0  0  0  0  0  0  0  0  0  0  0
    5.1972  -29.5284  -32.5777 N   0  0  0  0  0  0  0  0  0  0  0  0
    4.8716  -28.8870  -33.7169 C   0  0  0  0  0  0  0  0  0  0  0  0
    5.2374  -29.4461  -34.9391 C   0  0  0  0  0  0  0  0  0  0  0  0
    4.9026  -28.7868  -36.1198 C   0  0  0  0  0  0  0  0  0  0  0  0
    5.3566  -29.4889  -37.6454 Cl  0  0  0  0  0  0  0  0  0  0  0  0
    4.2030  -27.5782  -36.0725 C   0  0  0  0  0  0  0  0  0  0  0  0
    3.8366  -27.0190  -34.8525 C   0  0  0  0  0  0  0  0  0  0  0  0
    4.1710  -27.6744  -33.6674 C   0  0  0  0  0  0  0  0  0  0  0  0
    2.9453  -25.6605  -31.4802 H   0  0  0  0  0  0  0  0  0  0  0  0
  3  4  2  0  0  0
  3  2  1  0  0  0
  4  5  1  0  0  0
  1  2  1  0  0  0
  2 12  2  0  0  0
  5  6  2  0  0  0
 12  6  1  0  0  0
 12 11  1  0  0  0
  6  7  1  0  0  0
 11 10  2  0  0  0
  7  8  2  0  0  0
 10  8  1  0  0  0
  8  9  1  0  0  0
  1 13  1  0  0  0
M  END
> <minimizedAffinity>
-6.35805

$$$$
4MRW_MRW_A_900


 13 14  0  0  0  0  0  0  0  0999 V2000
    6.8160  -31.5517  -30.5066 O   0  0  0  0  0  0  0  0  0  0  0  0
    6.8357  -31.3849  -31.8192 C   0  0  0  0  0  0  0  0  0  0  0  0
    7.5900  -32.2558  -32.5919 C   0  0  0  0  0  0  0  0  0  0  0  0
    7.6152  -32.0746  -33.9657 C   0  0  0  0  0  0  0  0  0  0  0  0
    6.9239  -31.0754  -34.5555 N   0  0  0  0  0  0  0  0  0  0  0  0
    6.1840  -30.2197  -33.8236 C   0  0  0  0  0  0  0  0  0  0  0  0
    5.4840  -29.2035  -34.4696 C   0  0  0  0  0  0  0  0  0  0  0  0
    4.7172  -28.3166  -33.7171 C   0  0  0  0  0  0  0  0  0  0  0  0
    3.8401  -27.0507  -34.5262 Cl  0  0  0  0  0  0  0  0  0  0  0  0
    4.6516  -28.4524  -32.3279 C   0  0  0  0  0  0  0  0  0  0  0  0
    5.3499  -29.4672  -31.6816 C   0  0  0  0  0  0  0  0  0  0  0  0
    6.1205  -30.3568  -32.4304 C   0  0  0  0  0  0  0  0  0  0  0  0
    7.3040  -32.2495  -30.1156 H   0  0  0  0  0  0  0  0  0  0  0  0
  3  4  2  0  0  0
  3  2  1  0  0  0
  4  5  1  0  0  0
  1  2  1  0  0  0
  2 12  2  0  0  0
  5  6  2  0  0  0
 12  6  1  0  0  0
 12 11  1  0  0  0
  6  7  1  0  0  0
 11 10  2  0  0  0
  7  8  2  0  0  0
 10  8  1  0  0  0
  8  9  1  0  0  0
  1 13  1  0  0  0
M  END
> <minimizedAffinity>
-6.31297

$$$$
4MRW_MRW_A_900


 13 14  0  0  0  0  0  0  0  0999 V2000
    3.5787  -26.1945  -34.3711 O   0  0  0  0  0  0  0  0  0  0  0  0
    3.9522  -27.1441  -33.5285 C   0  0  0  0  0  0  0  0  0  0  0  0
    3.6635  -26.9920  -32.1802 C   0  0  0  0  0  0  0  0  0  0  0  0
    4.0622  -27.9843  -31.2985 C   0  0  0  0  0  0  0  0  0  0  0  0
    4.7190  -29.0835  -31.7281 N   0  0  0  0  0  0  0  0  0  0  0  0
    5.0078  -29.2513  -33.0334 C   0  0  0  0  0  0  0  0  0  0  0  0
    5.6847  -30.3999  -33.4367 C   0  0  0  0  0  0  0  0  0  0  0  0
    5.9852  -30.5780  -34.7854 C   0  0  0  0  0  0  0  0  0  0  0  0
    6.8268  -32.0153  -35.2877 Cl  0  0  0  0  0  0  0  0  0  0  0  0
    5.6051  -29.6120  -35.7207 C   0  0  0  0  0  0  0  0  0  0  0  0
    4.9285  -28.4647  -35.3193 C   0  0  0  0  0  0  0  0  0  0  0  0
    4.6269  -28.2808  -33.9698 C   0  0  0  0  0  0  0  0  0  0  0  0
    3.1260  -25.4380  -34.0536 H   0  0  0  0  0  0  0  0  0  0  0  0
  3  4  2  0  0  0
  3  2  1  0  0  0
  4  5  1  0  0  0
  1  2  1  0  0  0
  2 12  2  0  0  0
  5  6  2  0  0  0
 12  6  1  0  0  0
 12 11  1  0  0  0
  6  7  1  0  0  0
 11 10  2  0  0  0
  7  8  2  0  0  0
 10  8  1  0  0  0
  8  9  1  0  0  0
  1 13  1  0  0  0
M  END
> <minimizedAffinity>
-6.21258

$$$$
4MRW_MRW_A_900


 13 14  0  0  0  0  0  0  0  0999 V2000
    4.7597  -28.4978  -36.8255 O   0  0  0  0  0  0  0  0  0  0  0  0
    4.6287  -28.2358  -35.5350 C   0  0  0  0  0  0  0  0  0  0  0  0
    3.9375  -27.0957  -35.1518 C   0  0  0  0  0  0  0  0  0  0  0  0
    3.8081  -26.8193  -33.7998 C   0  0  0  0  0  0  0  0  0  0  0  0
    4.3381  -27.6342  -32.8621 N   0  0  0  0  0  0  0  0  0  0  0  0
    5.0116  -28.7471  -33.2129 C   0  0  0  0  0  0  0  0  0  0  0  0
    5.5414  -29.5627  -32.2159 C   0  0  0  0  0  0  0  0  0  0  0  0
    6.2383  -30.7147  -32.5737 C   0  0  0  0  0  0  0  0  0  0  0  0
    6.8955  -31.7344  -31.3268 Cl  0  0  0  0  0  0  0  0  0  0  0  0
    6.3979  -31.0459  -33.9218 C   0  0  0  0  0  0  0  0  0  0  0  0
    5.8688  -30.2325  -34.9186 C   0  0  0  0  0  0  0  0  0  0  0  0
    5.1716  -29.0769  -34.5655 C   0  0  0  0  0  0  0  0  0  0  0  0
    4.3869  -27.9192  -37.4612 H   0  0  0  0  0  0  0  0  0  0  0  0
  3  4  2  0  0  0
  3  2  1  0  0  0
  4  5  1  0  0  0
  1  2  1  0  0  0
  2 12  2  0  0  0
  5  6  2  0  0  0
 12  6  1  0  0  0
 12 11  1  0  0  0
  6  7  1  0  0  0
 11 10  2  0  0  0
  7  8  2  0  0  0
 10  8  1  0  0  0
  8  9  1  0  0  0
  1 13  1  0  0  0
M  END
> <minimizedAffinity>
-6.12199

$$$$
4MRW_MRW_A_900


 13 14  0  0  0  0  0  0  0  0999 V2000
    7.3084  -32.1908  -34.8675 O   0  0  0  0  0  0  0  0  0  0  0  0
    6.9617  -31.6677  -33.7024 C   0  0  0  0  0  0  0  0  0  0  0  0
    7.3740  -32.2988  -32.5379 C   0  0  0  0  0  0  0  0  0  0  0  0
    7.0033  -31.7534  -31.3188 C   0  0  0  0  0  0  0  0  0  0  0  0
    6.2565  -30.6301  -31.2495 N   0  0  0  0  0  0  0  0  0  0  0  0
    5.8472  -30.0010  -32.3684 C   0  0  0  0  0  0  0  0  0  0  0  0
    5.0801  -28.8440  -32.2546 C   0  0  0  0  0  0  0  0  0  0  0  0
    4.6548  -28.1897  -33.4087 C   0  0  0  0  0  0  0  0  0  0  0  0
    3.7005  -26.7423  -33.2645 Cl  0  0  0  0  0  0  0  0  0  0  0  0
    5.0008  -28.6919  -34.6659 C   0  0  0  0  0  0  0  0  0  0  0  0
    5.7673  -29.8471  -34.7809 C   0  0  0  0  0  0  0  0  0  0  0  0
    6.1941  -30.5069  -33.6283 C   0  0  0  0  0  0  0  0  0  0  0  0
    7.8249  -32.9720  -34.8952 H   0  0  0  0  0  0  0  0  0  0  0  0
  3  4  2  0  0  0
  3  2  1  0  0  0
  4  5  1  0  0  0
  1  2  1  0  0  0
  2 12  2  0  0  0
  5  6  2  0  0  0
 12  6  1  0  0  0
 12 11  1  0  0  0
  6  7  1  0  0  0
 11 10  2  0  0  0
  7  8  2  0  0  0
 10  8  1  0  0  0
  8  9  1  0  0  0
  1 13  1  0  0  0
M  END
> <minimizedAffinity>
-6.11017

$$$$
4MRW_MRW_A_900


 13 14  0  0  0  0  0  0  0  0999 V2000
    4.2392  -28.3107  -30.2739 O   0  0  0  0  0  0  0  0  0  0  0  0
    4.2835  -28.0289  -31.5662 C   0  0  0  0  0  0  0  0  0  0  0  0
    3.5039  -26.9884  -32.0499 C   0  0  0  0  0  0  0  0  0  0  0  0
    3.5461  -26.7000  -33.4049 C   0  0  0  0  0  0  0  0  0  0  0  0
    4.3260  -27.4081  -34.2501 N   0  0  0  0  0  0  0  0  0  0  0  0
    5.0919  -28.4213  -33.8005 C   0  0  0  0  0  0  0  0  0  0  0  0
    5.8840  -29.1261  -34.7038 C   0  0  0  0  0  0  0  0  0  0  0  0
    6.6779  -30.1744  -34.2436 C   0  0  0  0  0  0  0  0  0  0  0  0
    7.6699  -31.0506  -35.3726 Cl  0  0  0  0  0  0  0  0  0  0  0  0
    6.6784  -30.5087  -32.8868 C   0  0  0  0  0  0  0  0  0  0  0  0
    5.8881  -29.8052  -31.9836 C   0  0  0  0  0  0  0  0  0  0  0  0
    5.0901  -28.7559  -32.4397 C   0  0  0  0  0  0  0  0  0  0  0  0
    3.6901  -27.8095  -29.7037 H   0  0  0  0  0  0  0  0  0  0  0  0
  3  4  2  0  0  0
  3  2  1  0  0  0
  4  5  1  0  0  0
  1  2  1  0  0  0
  2 12  2  0  0  0
  5  6  2  0  0  0
 12  6  1  0  0  0
 12 11  1  0  0  0
  6  7  1  0  0  0
 11 10  2  0  0  0
  7  8  2  0  0  0
 10  8  1  0  0  0
  8  9  1  0  0  0
  1 13  1  0  0  0
M  END
> <minimizedAffinity>
-5.88426

$$$$
4MRW_MRW_A_900


 13 14  0  0  0  0  0  0  0  0999 V2000
    3.7488  -26.9326  -32.0248 O   0  0  0  0  0  0  0  0  0  0  0  0
    4.1558  -27.4505  -33.1725 C   0  0  0  0  0  0  0  0  0  0  0  0
    3.7488  -26.8531  -34.3566 C   0  0  0  0  0  0  0  0  0  0  0  0
    4.1702  -27.4017  -35.5575 C   0  0  0  0  0  0  0  0  0  0  0  0
    4.9620  -28.4954  -35.5911 N   0  0  0  0  0  0  0  0  0  0  0  0
    5.3698  -29.0898  -34.4528 C   0  0  0  0  0  0  0  0  0  0  0  0
    6.1876  -30.2146  -34.5296 C   0  0  0  0  0  0  0  0  0  0  0  0
    6.6122  -30.8324  -33.3553 C   0  0  0  0  0  0  0  0  0  0  0  0
    7.6372  -32.2347  -33.4533 Cl  0  0  0  0  0  0  0  0  0  0  0  0
    6.2213  -30.3217  -32.1148 C   0  0  0  0  0  0  0  0  0  0  0  0
    5.4050  -29.1980  -32.0367 C   0  0  0  0  0  0  0  0  0  0  0  0
    4.9757  -28.5768  -33.2097 C   0  0  0  0  0  0  0  0  0  0  0  0
    3.1977  -26.1748  -32.0221 H   0  0  0  0  0  0  0  0  0  0  0  0
  3  4  2  0  0  0
  3  2  1  0  0  0
  4  5  1  0  0  0
  1  2  1  0  0  0
  2 12  2  0  0  0
  5  6  2  0  0  0
 12  6  1  0  0  0
 12 11  1  0  0  0
  6  7  1  0  0  0
 11 10  2  0  0  0
  7  8  2  0  0  0
 10  8  1  0  0  0
  8  9  1  0  0  0
  1 13  1  0  0  0
M  END
> <minimizedAffinity>
-5.88341

$$$$
