3UXK_BHO_A_361


 12 12  0  0  0  0  0  0  0  0999 V2000
   51.0635  -50.9563   17.2277 C   0  0  0  0  0  0  0  0  0  0  0  0
   49.9283  -51.7471   17.4447 C   0  0  0  0  0  0  0  0  0  0  0  0
   48.7359  -51.1539   17.8668 C   0  0  0  0  0  0  0  0  0  0  0  0
   48.6567  -49.7884   18.0753 C   0  0  0  0  0  0  0  0  0  0  0  0
   49.7818  -49.0029   17.8598 C   0  0  0  0  0  0  0  0  0  0  0  0
   50.9731  -49.5848   17.4394 C   0  0  0  0  0  0  0  0  0  0  0  0
   52.3478  -51.6062   16.7715 C   0  0  0  0  0  0  0  0  0  0  0  0
   53.0984  -51.1638   15.9204 O   0  0  0  0  0  0  0  0  0  0  0  0
   52.5119  -52.7827   17.4896 N   0  0  0  0  0  0  0  0  0  0  0  0
   53.4328  -53.7612   17.5275 O   0  0  0  0  0  0  0  0  0  0  0  0
   51.7759  -52.9381   18.1247 H   0  0  0  0  0  0  0  0  0  0  0  0
   54.1364  -53.5679   16.8884 H   0  0  0  0  0  0  0  0  0  0  0  0
  1  2  2  0  0  0
  1  6  1  0  0  0
  1  7  1  0  0  0
  2  3  1  0  0  0
  3  4  2  0  0  0
  4  5  1  0  0  0
  5  6  2  0  0  0
  7  8  2  0  0  0
  7  9  1  0  0  0
  9 10  1  0  0  0
  9 11  1  0  0  0
 10 12  1  0  0  0
M  END
> <minimizedAffinity>
-7.44747

$$$$
3UXK_BHO_A_361


 12 12  0  0  0  0  0  0  0  0999 V2000
   51.0400  -50.9769   17.2326 C   0  0  0  0  0  0  0  0  0  0  0  0
   50.9840  -49.5932   17.4409 C   0  0  0  0  0  0  0  0  0  0  0  0
   49.7907  -48.9990   17.8589 C   0  0  0  0  0  0  0  0  0  0  0  0
   48.6550  -49.7599   18.0725 C   0  0  0  0  0  0  0  0  0  0  0  0
   48.7095  -51.1325   17.8668 C   0  0  0  0  0  0  0  0  0  0  0  0
   49.8932  -51.7326   17.4508 C   0  0  0  0  0  0  0  0  0  0  0  0
   52.3342  -51.6103   16.7809 C   0  0  0  0  0  0  0  0  0  0  0  0
   53.0869  -51.1534   15.9394 O   0  0  0  0  0  0  0  0  0  0  0  0
   52.5043  -52.7912   17.4904 N   0  0  0  0  0  0  0  0  0  0  0  0
   53.4345  -53.7609   17.5273 O   0  0  0  0  0  0  0  0  0  0  0  0
   51.7650  -52.9591   18.1185 H   0  0  0  0  0  0  0  0  0  0  0  0
   54.1411  -53.5553   16.8955 H   0  0  0  0  0  0  0  0  0  0  0  0
  1  2  2  0  0  0
  1  6  1  0  0  0
  1  7  1  0  0  0
  2  3  1  0  0  0
  3  4  2  0  0  0
  4  5  1  0  0  0
  5  6  2  0  0  0
  7  8  2  0  0  0
  7  9  1  0  0  0
  9 10  1  0  0  0
  9 11  1  0  0  0
 10 12  1  0  0  0
M  END
> <minimizedAffinity>
-7.43796

$$$$
3UXK_BHO_A_361


 12 12  0  0  0  0  0  0  0  0999 V2000
   50.3521  -51.6589   18.0771 C   0  0  0  0  0  0  0  0  0  0  0  0
   51.1636  -50.5545   17.7891 C   0  0  0  0  0  0  0  0  0  0  0  0
   50.6005  -49.2787   17.7055 C   0  0  0  0  0  0  0  0  0  0  0  0
   49.2448  -49.0861   17.9042 C   0  0  0  0  0  0  0  0  0  0  0  0
   48.4390  -50.1807   18.1905 C   0  0  0  0  0  0  0  0  0  0  0  0
   48.9910  -51.4544   18.2758 C   0  0  0  0  0  0  0  0  0  0  0  0
   50.9696  -53.0340   18.1656 C   0  0  0  0  0  0  0  0  0  0  0  0
   50.4336  -54.0184   18.6421 O   0  0  0  0  0  0  0  0  0  0  0  0
   52.2413  -52.9696   17.6129 N   0  0  0  0  0  0  0  0  0  0  0  0
   53.2433  -53.8426   17.4110 O   0  0  0  0  0  0  0  0  0  0  0  0
   52.4629  -52.0660   17.2909 H   0  0  0  0  0  0  0  0  0  0  0  0
   52.9825  -54.7163   17.7419 H   0  0  0  0  0  0  0  0  0  0  0  0
  1  2  2  0  0  0
  1  6  1  0  0  0
  1  7  1  0  0  0
  2  3  1  0  0  0
  3  4  2  0  0  0
  4  5  1  0  0  0
  5  6  2  0  0  0
  7  8  2  0  0  0
  7  9  1  0  0  0
  9 10  1  0  0  0
  9 11  1  0  0  0
 10 12  1  0  0  0
M  END
> <minimizedAffinity>
-7.36990

$$$$
3UXK_BHO_A_361


 12 12  0  0  0  0  0  0  0  0999 V2000
   50.3572  -51.6466   18.0791 C   0  0  0  0  0  0  0  0  0  0  0  0
   48.9823  -51.4908   18.2945 C   0  0  0  0  0  0  0  0  0  0  0  0
   48.4036  -50.2217   18.2136 C   0  0  0  0  0  0  0  0  0  0  0  0
   49.1712  -49.1082   17.9218 C   0  0  0  0  0  0  0  0  0  0  0  0
   50.5349  -49.2617   17.7073 C   0  0  0  0  0  0  0  0  0  0  0  0
   51.1196  -50.5212   17.7856 C   0  0  0  0  0  0  0  0  0  0  0  0
   50.9739  -53.0220   18.1685 C   0  0  0  0  0  0  0  0  0  0  0  0
   50.4249  -54.0134   18.6147 O   0  0  0  0  0  0  0  0  0  0  0  0
   52.2621  -52.9487   17.6566 N   0  0  0  0  0  0  0  0  0  0  0  0
   53.2713  -53.8176   17.4744 O   0  0  0  0  0  0  0  0  0  0  0  0
   52.4923  -52.0406   17.3539 H   0  0  0  0  0  0  0  0  0  0  0  0
   53.0018  -54.6960   17.7853 H   0  0  0  0  0  0  0  0  0  0  0  0
  1  2  2  0  0  0
  1  6  1  0  0  0
  1  7  1  0  0  0
  2  3  1  0  0  0
  3  4  2  0  0  0
  4  5  1  0  0  0
  5  6  2  0  0  0
  7  8  2  0  0  0
  7  9  1  0  0  0
  9 10  1  0  0  0
  9 11  1  0  0  0
 10 12  1  0  0  0
M  END
> <minimizedAffinity>
-7.33957

$$$$
3UXK_BHO_A_361


 12 12  0  0  0  0  0  0  0  0999 V2000
   50.9559  -52.1843   17.8072 C   0  0  0  0  0  0  0  0  0  0  0  0
   52.2967  -51.8455   17.5874 C   0  0  0  0  0  0  0  0  0  0  0  0
   52.6406  -50.5278   17.2752 C   0  0  0  0  0  0  0  0  0  0  0  0
   51.6719  -49.5446   17.1793 C   0  0  0  0  0  0  0  0  0  0  0  0
   50.3416  -49.8793   17.3978 C   0  0  0  0  0  0  0  0  0  0  0  0
   49.9901  -51.1885   17.7091 C   0  0  0  0  0  0  0  0  0  0  0  0
   50.5937  -53.6110   18.1441 C   0  0  0  0  0  0  0  0  0  0  0  0
   49.4777  -54.0067   18.4293 O   0  0  0  0  0  0  0  0  0  0  0  0
   51.7498  -54.3758   18.0706 N   0  0  0  0  0  0  0  0  0  0  0  0
   52.0543  -55.6718   18.2566 O   0  0  0  0  0  0  0  0  0  0  0  0
   52.5370  -53.8394   17.8221 H   0  0  0  0  0  0  0  0  0  0  0  0
   51.2524  -56.1608   18.4989 H   0  0  0  0  0  0  0  0  0  0  0  0
  1  2  2  0  0  0
  1  6  1  0  0  0
  1  7  1  0  0  0
  2  3  1  0  0  0
  3  4  2  0  0  0
  4  5  1  0  0  0
  5  6  2  0  0  0
  7  8  2  0  0  0
  7  9  1  0  0  0
  9 10  1  0  0  0
  9 11  1  0  0  0
 10 12  1  0  0  0
M  END
> <minimizedAffinity>
-6.46306

$$$$
3UXK_BHO_A_361


 12 12  0  0  0  0  0  0  0  0999 V2000
   50.8125  -51.2271   17.5958 C   0  0  0  0  0  0  0  0  0  0  0  0
   49.8879  -51.7680   18.4979 C   0  0  0  0  0  0  0  0  0  0  0  0
   48.7792  -51.0159   18.8943 C   0  0  0  0  0  0  0  0  0  0  0  0
   48.5774  -49.7368   18.4071 C   0  0  0  0  0  0  0  0  0  0  0  0
   49.4935  -49.1996   17.5118 C   0  0  0  0  0  0  0  0  0  0  0  0
   50.6000  -49.9410   17.1114 C   0  0  0  0  0  0  0  0  0  0  0  0
   52.0077  -52.0474   17.1729 C   0  0  0  0  0  0  0  0  0  0  0  0
   52.3452  -53.1084   17.6667 O   0  0  0  0  0  0  0  0  0  0  0  0
   52.6410  -51.3788   16.1343 N   0  0  0  0  0  0  0  0  0  0  0  0
   53.7226  -51.6041   15.3687 O   0  0  0  0  0  0  0  0  0  0  0  0
   52.1886  -50.5358   15.9023 H   0  0  0  0  0  0  0  0  0  0  0  0
   54.1355  -52.4418   15.6308 H   0  0  0  0  0  0  0  0  0  0  0  0
  1  2  2  0  0  0
  1  6  1  0  0  0
  1  7  1  0  0  0
  2  3  1  0  0  0
  3  4  2  0  0  0
  4  5  1  0  0  0
  5  6  2  0  0  0
  7  8  2  0  0  0
  7  9  1  0  0  0
  9 10  1  0  0  0
  9 11  1  0  0  0
 10 12  1  0  0  0
M  END
> <minimizedAffinity>
-5.70687

$$$$
3UXK_BHO_A_361


 12 12  0  0  0  0  0  0  0  0999 V2000
   50.4492  -50.1585   17.2252 C   0  0  0  0  0  0  0  0  0  0  0  0
   49.8758  -51.3896   17.5670 C   0  0  0  0  0  0  0  0  0  0  0  0
   48.6083  -51.4294   18.1532 C   0  0  0  0  0  0  0  0  0  0  0  0
   47.9044  -50.2648   18.4032 C   0  0  0  0  0  0  0  0  0  0  0  0
   48.4718  -49.0431   18.0641 C   0  0  0  0  0  0  0  0  0  0  0  0
   49.7331  -48.9940   17.4801 C   0  0  0  0  0  0  0  0  0  0  0  0
   51.8195  -50.1253   16.5920 C   0  0  0  0  0  0  0  0  0  0  0  0
   52.3747  -49.1293   16.1641 O   0  0  0  0  0  0  0  0  0  0  0  0
   52.3213  -51.4196   16.5871 N   0  0  0  0  0  0  0  0  0  0  0  0
   53.4570  -52.0050   16.1697 O   0  0  0  0  0  0  0  0  0  0  0  0
   51.6936  -52.0647   16.9858 H   0  0  0  0  0  0  0  0  0  0  0  0
   54.0438  -51.3350   15.7854 H   0  0  0  0  0  0  0  0  0  0  0  0
  1  2  2  0  0  0
  1  6  1  0  0  0
  1  7  1  0  0  0
  2  3  1  0  0  0
  3  4  2  0  0  0
  4  5  1  0  0  0
  5  6  2  0  0  0
  7  8  2  0  0  0
  7  9  1  0  0  0
  9 10  1  0  0  0
  9 11  1  0  0  0
 10 12  1  0  0  0
M  END
> <minimizedAffinity>
-5.37823

$$$$
3UXK_BHO_A_361


 12 12  0  0  0  0  0  0  0  0999 V2000
   50.1975  -50.4453   17.3515 C   0  0  0  0  0  0  0  0  0  0  0  0
   50.4311  -51.4711   16.4273 C   0  0  0  0  0  0  0  0  0  0  0  0
   51.7281  -51.7138   15.9683 C   0  0  0  0  0  0  0  0  0  0  0  0
   52.7938  -50.9527   16.4150 C   0  0  0  0  0  0  0  0  0  0  0  0
   52.5634  -49.9354   17.3323 C   0  0  0  0  0  0  0  0  0  0  0  0
   51.2755  -49.6867   17.7947 C   0  0  0  0  0  0  0  0  0  0  0  0
   48.7923  -50.1904   17.8420 C   0  0  0  0  0  0  0  0  0  0  0  0
   47.9111  -51.0271   17.9230 O   0  0  0  0  0  0  0  0  0  0  0  0
   48.6921  -48.8472   18.1775 N   0  0  0  0  0  0  0  0  0  0  0  0
   47.7225  -48.0496   18.6577 O   0  0  0  0  0  0  0  0  0  0  0  0
   49.5350  -48.3611   18.0274 H   0  0  0  0  0  0  0  0  0  0  0  0
   46.9134  -48.5680   18.7901 H   0  0  0  0  0  0  0  0  0  0  0  0
  1  2  2  0  0  0
  1  6  1  0  0  0
  1  7  1  0  0  0
  2  3  1  0  0  0
  3  4  2  0  0  0
  4  5  1  0  0  0
  5  6  2  0  0  0
  7  8  2  0  0  0
  7  9  1  0  0  0
  9 10  1  0  0  0
  9 11  1  0  0  0
 10 12  1  0  0  0
M  END
> <minimizedAffinity>
-5.24489

$$$$
3UXK_BHO_A_361


 12 12  0  0  0  0  0  0  0  0999 V2000
   50.1171  -50.5975   17.5920 C   0  0  0  0  0  0  0  0  0  0  0  0
   50.9206  -49.6439   16.9547 C   0  0  0  0  0  0  0  0  0  0  0  0
   52.2347  -49.9625   16.6033 C   0  0  0  0  0  0  0  0  0  0  0  0
   52.7595  -51.2134   16.8758 C   0  0  0  0  0  0  0  0  0  0  0  0
   51.9632  -52.1602   17.5073 C   0  0  0  0  0  0  0  0  0  0  0  0
   50.6539  -51.8519   17.8606 C   0  0  0  0  0  0  0  0  0  0  0  0
   48.6979  -50.2441   17.9679 C   0  0  0  0  0  0  0  0  0  0  0  0
   47.7695  -51.0297   18.0340 O   0  0  0  0  0  0  0  0  0  0  0  0
   48.6478  -48.8799   18.2195 N   0  0  0  0  0  0  0  0  0  0  0  0
   47.6925  -48.0078   18.5852 O   0  0  0  0  0  0  0  0  0  0  0  0
   49.5237  -48.4462   18.1016 H   0  0  0  0  0  0  0  0  0  0  0  0
   46.8497  -48.4765   18.6895 H   0  0  0  0  0  0  0  0  0  0  0  0
  1  2  2  0  0  0
  1  6  1  0  0  0
  1  7  1  0  0  0
  2  3  1  0  0  0
  3  4  2  0  0  0
  4  5  1  0  0  0
  5  6  2  0  0  0
  7  8  2  0  0  0
  7  9  1  0  0  0
  9 10  1  0  0  0
  9 11  1  0  0  0
 10 12  1  0  0  0
M  END
> <minimizedAffinity>
-5.09170

$$$$
3UXK_BHO_A_361


 12 12  0  0  0  0  0  0  0  0999 V2000
   50.8093  -50.3076   17.2796 C   0  0  0  0  0  0  0  0  0  0  0  0
   50.7757  -51.2542   16.2482 C   0  0  0  0  0  0  0  0  0  0  0  0
   51.9694  -51.7406   15.7093 C   0  0  0  0  0  0  0  0  0  0  0  0
   53.1932  -51.3000   16.1810 C   0  0  0  0  0  0  0  0  0  0  0  0
   53.2278  -50.3616   17.2044 C   0  0  0  0  0  0  0  0  0  0  0  0
   52.0445  -49.8720   17.7470 C   0  0  0  0  0  0  0  0  0  0  0  0
   49.5141  -49.7878   17.8559 C   0  0  0  0  0  0  0  0  0  0  0  0
   49.2967  -48.6320   18.1726 O   0  0  0  0  0  0  0  0  0  0  0  0
   48.6311  -50.8540   17.9572 N   0  0  0  0  0  0  0  0  0  0  0  0
   47.3659  -51.0129   18.3824 O   0  0  0  0  0  0  0  0  0  0  0  0
   49.0273  -51.6980   17.6411 H   0  0  0  0  0  0  0  0  0  0  0  0
   47.0164  -50.1596   18.6835 H   0  0  0  0  0  0  0  0  0  0  0  0
  1  2  2  0  0  0
  1  6  1  0  0  0
  1  7  1  0  0  0
  2  3  1  0  0  0
  3  4  2  0  0  0
  4  5  1  0  0  0
  5  6  2  0  0  0
  7  8  2  0  0  0
  7  9  1  0  0  0
  9 10  1  0  0  0
  9 11  1  0  0  0
 10 12  1  0  0  0
M  END
> <minimizedAffinity>
-4.91408

$$$$
