2YA8_G39_A_1777


 24 24  0  0  0  0  0  0  0  0999 V2000
   15.9314  -20.0945   43.4340 C   0  0  0  0  0  0  0  0  0  0  0  0
   14.7847  -19.6861   42.5351 C   0  0  0  0  0  0  0  0  0  0  0  0
   15.2666  -18.6177   41.5417 C   0  0  0  0  0  0  0  0  0  0  0  0
   16.4825  -19.1127   40.7829 C   0  0  0  0  0  0  0  0  0  0  0  0
   17.6383  -19.2477   41.7640 C   0  0  0  0  0  0  0  0  0  0  0  0
   17.2131  -19.9775   43.0292 C   0  0  0  0  0  0  0  0  0  0  0  0
   14.1873  -18.2693   40.6356 N   0  0  0  0  0  0  0  0  0  0  0  0
   13.9006  -19.0976   40.1140 H   0  0  0  0  0  0  0  0  0  0  0  0
   14.5076  -17.5519   39.9852 H   0  0  0  0  0  0  0  0  0  0  0  0
   16.8602  -18.2037   39.6946 N   0  0  0  0  0  0  0  0  0  0  0  0
   17.1911  -18.6256   38.4711 C   0  0  0  0  0  0  0  0  0  0  0  0
   17.0687  -19.7821   38.0795 O   0  0  0  0  0  0  0  0  0  0  0  0
   17.7239  -17.5440   37.5766 C   0  0  0  0  0  0  0  0  0  0  0  0
   16.8703  -17.2359   39.8749 H   0  0  0  0  0  0  0  0  0  0  0  0
   15.6794  -20.6388   44.7741 C   0  0  0  0  0  0  0  0  0  0  0  0
   16.6249  -21.1592   45.4305 O   0  0  0  0  0  0  0  0  0  0  0  0
   14.5302  -20.5549   45.2494 O   0  0  0  0  0  0  0  0  0  0  0  0
   13.8424  -20.1653   44.7463 H   0  0  0  0  0  0  0  0  0  0  0  0
   18.6216  -20.0398   41.1244 O   0  0  0  0  0  0  0  0  0  0  0  0
   19.9407  -19.4759   41.1769 C   0  0  0  0  0  0  0  0  0  0  0  0
   20.5115  -19.2725   39.7706 C   0  0  0  0  0  0  0  0  0  0  0  0
   20.8928  -17.8387   39.5124 C   0  0  0  0  0  0  0  0  0  0  0  0
   20.8285  -20.4356   41.9866 C   0  0  0  0  0  0  0  0  0  0  0  0
   21.2618  -21.5941   41.1175 C   0  0  0  0  0  0  0  0  0  0  0  0
 15 16  2  0  0  0
 15 17  1  0  0  0
 15  1  1  0  0  0
  1  2  1  0  0  0
  1  6  2  0  0  0
  2  3  1  0  0  0
  3  4  1  0  0  0
  3  7  1  0  0  0
  4 10  1  0  0  0
  4  5  1  0  0  0
 10 11  1  0  0  0
 11 12  2  0  0  0
 11 13  1  0  0  0
  5  6  1  0  0  0
  5 19  1  0  0  0
 19 20  1  0  0  0
 20 21  1  0  0  0
 20 23  1  0  0  0
 21 22  1  0  0  0
 23 24  1  0  0  0
 17 18  1  0  0  0
 10 14  1  0  0  0
  7  8  1  0  0  0
  7  9  1  0  0  0
M  END
> <minimizedAffinity>
-7.31091

$$$$
2YA8_G39_A_1777


 24 24  0  0  0  0  0  0  0  0999 V2000
   15.8117  -20.1892   43.4322 C   0  0  0  0  0  0  0  0  0  0  0  0
   14.8411  -19.6338   42.4128 C   0  0  0  0  0  0  0  0  0  0  0  0
   15.5940  -18.7250   41.4290 C   0  0  0  0  0  0  0  0  0  0  0  0
   16.7606  -19.4696   40.8096 C   0  0  0  0  0  0  0  0  0  0  0  0
   17.7828  -19.7535   41.9009 C   0  0  0  0  0  0  0  0  0  0  0  0
   17.1235  -20.3247   43.1472 C   0  0  0  0  0  0  0  0  0  0  0  0
   14.6790  -18.2410   40.4113 N   0  0  0  0  0  0  0  0  0  0  0  0
   14.2925  -19.0327   39.8974 H   0  0  0  0  0  0  0  0  0  0  0  0
   15.1799  -17.6292   39.7670 H   0  0  0  0  0  0  0  0  0  0  0  0
   17.3906  -18.7042   39.7277 N   0  0  0  0  0  0  0  0  0  0  0  0
   17.6812  -19.2287   38.5340 C   0  0  0  0  0  0  0  0  0  0  0  0
   17.3210  -20.3401   38.1584 O   0  0  0  0  0  0  0  0  0  0  0  0
   18.4909  -18.3237   37.6512 C   0  0  0  0  0  0  0  0  0  0  0  0
   17.6098  -17.7582   39.8895 H   0  0  0  0  0  0  0  0  0  0  0  0
   15.3495  -20.6047   44.7623 C   0  0  0  0  0  0  0  0  0  0  0  0
   14.1199  -20.5506   45.0470 O   0  0  0  0  0  0  0  0  0  0  0  0
   16.1865  -21.0272   45.5835 O   0  0  0  0  0  0  0  0  0  0  0  0
   17.0941  -21.0594   45.3529 H   0  0  0  0  0  0  0  0  0  0  0  0
   18.6571  -20.7421   41.3893 O   0  0  0  0  0  0  0  0  0  0  0  0
   19.9300  -20.7853   42.0515 C   0  0  0  0  0  0  0  0  0  0  0  0
   20.3744  -19.3861   42.4871 C   0  0  0  0  0  0  0  0  0  0  0  0
   20.7063  -19.3249   43.9547 C   0  0  0  0  0  0  0  0  0  0  0  0
   20.9470  -21.3945   41.0721 C   0  0  0  0  0  0  0  0  0  0  0  0
   20.8004  -20.7528   39.7111 C   0  0  0  0  0  0  0  0  0  0  0  0
 15 16  2  0  0  0
 15 17  1  0  0  0
 15  1  1  0  0  0
  1  2  1  0  0  0
  1  6  2  0  0  0
  2  3  1  0  0  0
  3  4  1  0  0  0
  3  7  1  0  0  0
  4 10  1  0  0  0
  4  5  1  0  0  0
 10 11  1  0  0  0
 11 12  2  0  0  0
 11 13  1  0  0  0
  5  6  1  0  0  0
  5 19  1  0  0  0
 19 20  1  0  0  0
 20 21  1  0  0  0
 20 23  1  0  0  0
 21 22  1  0  0  0
 23 24  1  0  0  0
 17 18  1  0  0  0
 10 14  1  0  0  0
  7  8  1  0  0  0
  7  9  1  0  0  0
M  END
> <minimizedAffinity>
-7.00068

$$$$
2YA8_G39_A_1777


 24 24  0  0  0  0  0  0  0  0999 V2000
   15.8407  -19.2663   42.2116 C   0  0  0  0  0  0  0  0  0  0  0  0
   16.1145  -19.8298   43.5890 C   0  0  0  0  0  0  0  0  0  0  0  0
   17.3959  -20.6767   43.5517 C   0  0  0  0  0  0  0  0  0  0  0  0
   18.5480  -19.8664   42.9904 C   0  0  0  0  0  0  0  0  0  0  0  0
   18.2600  -19.5741   41.5247 C   0  0  0  0  0  0  0  0  0  0  0  0
   16.8391  -19.0685   41.3259 C   0  0  0  0  0  0  0  0  0  0  0  0
   17.6978  -21.1667   44.8844 N   0  0  0  0  0  0  0  0  0  0  0  0
   17.8444  -20.3763   45.5121 H   0  0  0  0  0  0  0  0  0  0  0  0
   18.5425  -21.7376   44.8535 H   0  0  0  0  0  0  0  0  0  0  0  0
   19.8287  -20.5721   43.1124 N   0  0  0  0  0  0  0  0  0  0  0  0
   20.8452  -20.1201   43.8519 C   0  0  0  0  0  0  0  0  0  0  0  0
   20.7730  -19.1670   44.6215 O   0  0  0  0  0  0  0  0  0  0  0  0
   22.1173  -20.8989   43.6806 C   0  0  0  0  0  0  0  0  0  0  0  0
   19.9445  -21.4199   42.6255 H   0  0  0  0  0  0  0  0  0  0  0  0
   14.4764  -18.9106   41.8022 C   0  0  0  0  0  0  0  0  0  0  0  0
   13.4954  -19.2402   42.5267 O   0  0  0  0  0  0  0  0  0  0  0  0
   14.3152  -18.2650   40.7483 O   0  0  0  0  0  0  0  0  0  0  0  0
   15.0561  -18.0302   40.2248 H   0  0  0  0  0  0  0  0  0  0  0  0
   19.1406  -18.5353   41.1386 O   0  0  0  0  0  0  0  0  0  0  0  0
   19.8716  -18.8161   39.9355 C   0  0  0  0  0  0  0  0  0  0  0  0
   19.4176  -17.9091   38.7882 C   0  0  0  0  0  0  0  0  0  0  0  0
   18.4436  -18.5978   37.8689 C   0  0  0  0  0  0  0  0  0  0  0  0
   19.6390  -20.2940   39.5801 C   0  0  0  0  0  0  0  0  0  0  0  0
   20.9210  -21.0751   39.7581 C   0  0  0  0  0  0  0  0  0  0  0  0
 15 16  2  0  0  0
 15 17  1  0  0  0
 15  1  1  0  0  0
  1  2  1  0  0  0
  1  6  2  0  0  0
  2  3  1  0  0  0
  3  4  1  0  0  0
  3  7  1  0  0  0
  4 10  1  0  0  0
  4  5  1  0  0  0
 10 11  1  0  0  0
 11 12  2  0  0  0
 11 13  1  0  0  0
  5  6  1  0  0  0
  5 19  1  0  0  0
 19 20  1  0  0  0
 20 21  1  0  0  0
 20 23  1  0  0  0
 21 22  1  0  0  0
 23 24  1  0  0  0
 17 18  1  0  0  0
 10 14  1  0  0  0
  7  8  1  0  0  0
  7  9  1  0  0  0
M  END
> <minimizedAffinity>
-6.86775

$$$$
2YA8_G39_A_1777


 24 24  0  0  0  0  0  0  0  0999 V2000
   17.3813  -18.4131   39.2215 C   0  0  0  0  0  0  0  0  0  0  0  0
   16.5051  -17.7578   40.2669 C   0  0  0  0  0  0  0  0  0  0  0  0
   15.7736  -18.8404   41.0754 C   0  0  0  0  0  0  0  0  0  0  0  0
   16.7672  -19.8292   41.6533 C   0  0  0  0  0  0  0  0  0  0  0  0
   17.4029  -20.5982   40.5039 C   0  0  0  0  0  0  0  0  0  0  0  0
   17.8562  -19.6644   39.3918 C   0  0  0  0  0  0  0  0  0  0  0  0
   14.9814  -18.2189   42.1210 N   0  0  0  0  0  0  0  0  0  0  0  0
   15.5947  -17.6983   42.7482 H   0  0  0  0  0  0  0  0  0  0  0  0
   14.4887  -18.9397   42.6482 H   0  0  0  0  0  0  0  0  0  0  0  0
   16.1317  -20.7675   42.5855 N   0  0  0  0  0  0  0  0  0  0  0  0
   16.2056  -20.6420   43.9134 C   0  0  0  0  0  0  0  0  0  0  0  0
   16.6690  -19.6646   44.4929 O   0  0  0  0  0  0  0  0  0  0  0  0
   15.6468  -21.8131   44.6685 C   0  0  0  0  0  0  0  0  0  0  0  0
   15.6263  -21.5264   42.2142 H   0  0  0  0  0  0  0  0  0  0  0  0
   17.7464  -17.6994   37.9915 C   0  0  0  0  0  0  0  0  0  0  0  0
   18.6096  -18.1907   37.2110 O   0  0  0  0  0  0  0  0  0  0  0  0
   17.1746  -16.6232   37.7301 O   0  0  0  0  0  0  0  0  0  0  0  0
   16.5371  -16.2754   38.3222 H   0  0  0  0  0  0  0  0  0  0  0  0
   18.5565  -21.2291   41.0281 O   0  0  0  0  0  0  0  0  0  0  0  0
   19.6516  -20.3300   41.2584 C   0  0  0  0  0  0  0  0  0  0  0  0
   20.9234  -20.8169   40.5580 C   0  0  0  0  0  0  0  0  0  0  0  0
   21.6126  -21.9136   41.3262 C   0  0  0  0  0  0  0  0  0  0  0  0
   19.8723  -20.2402   42.7776 C   0  0  0  0  0  0  0  0  0  0  0  0
   20.0170  -18.7938   43.1930 C   0  0  0  0  0  0  0  0  0  0  0  0
 15 16  2  0  0  0
 15 17  1  0  0  0
 15  1  1  0  0  0
  1  2  1  0  0  0
  1  6  2  0  0  0
  2  3  1  0  0  0
  3  4  1  0  0  0
  3  7  1  0  0  0
  4 10  1  0  0  0
  4  5  1  0  0  0
 10 11  1  0  0  0
 11 12  2  0  0  0
 11 13  1  0  0  0
  5  6  1  0  0  0
  5 19  1  0  0  0
 19 20  1  0  0  0
 20 21  1  0  0  0
 20 23  1  0  0  0
 21 22  1  0  0  0
 23 24  1  0  0  0
 17 18  1  0  0  0
 10 14  1  0  0  0
  7  8  1  0  0  0
  7  9  1  0  0  0
M  END
> <minimizedAffinity>
-6.42819

$$$$
2YA8_G39_A_1777


 24 24  0  0  0  0  0  0  0  0999 V2000
   17.0128  -18.2655   40.3169 C   0  0  0  0  0  0  0  0  0  0  0  0
   15.7262  -18.1376   41.1030 C   0  0  0  0  0  0  0  0  0  0  0  0
   15.3895  -19.4852   41.7595 C   0  0  0  0  0  0  0  0  0  0  0  0
   16.5595  -19.9742   42.5909 C   0  0  0  0  0  0  0  0  0  0  0  0
   17.7116  -20.3024   41.6519 C   0  0  0  0  0  0  0  0  0  0  0  0
   17.9414  -19.1890   40.6413 C   0  0  0  0  0  0  0  0  0  0  0  0
   14.1907  -19.3506   42.5668 N   0  0  0  0  0  0  0  0  0  0  0  0
   14.3499  -18.6589   43.2994 H   0  0  0  0  0  0  0  0  0  0  0  0
   13.9641  -20.2498   42.9918 H   0  0  0  0  0  0  0  0  0  0  0  0
   16.2142  -21.1593   43.3844 N   0  0  0  0  0  0  0  0  0  0  0  0
   15.9814  -21.1166   44.6992 C   0  0  0  0  0  0  0  0  0  0  0  0
   15.8773  -20.0827   45.3519 O   0  0  0  0  0  0  0  0  0  0  0  0
   15.8345  -22.4680   45.3364 C   0  0  0  0  0  0  0  0  0  0  0  0
   16.1510  -22.0280   42.9256 H   0  0  0  0  0  0  0  0  0  0  0  0
   17.2905  -17.3796   39.1796 C   0  0  0  0  0  0  0  0  0  0  0  0
   17.4593  -17.8684   38.0271 O   0  0  0  0  0  0  0  0  0  0  0  0
   17.3323  -16.1491   39.3738 O   0  0  0  0  0  0  0  0  0  0  0  0
   17.2045  -15.8063   40.2364 H   0  0  0  0  0  0  0  0  0  0  0  0
   18.8735  -20.3968   42.4547 O   0  0  0  0  0  0  0  0  0  0  0  0
   19.6630  -21.5666   42.1918 C   0  0  0  0  0  0  0  0  0  0  0  0
   21.0007  -21.1969   41.5446 C   0  0  0  0  0  0  0  0  0  0  0  0
   20.8881  -21.0455   40.0506 C   0  0  0  0  0  0  0  0  0  0  0  0
   18.8484  -22.4824   41.2631 C   0  0  0  0  0  0  0  0  0  0  0  0
   18.8376  -23.8921   41.8089 C   0  0  0  0  0  0  0  0  0  0  0  0
 15 16  2  0  0  0
 15 17  1  0  0  0
 15  1  1  0  0  0
  1  2  1  0  0  0
  1  6  2  0  0  0
  2  3  1  0  0  0
  3  4  1  0  0  0
  3  7  1  0  0  0
  4 10  1  0  0  0
  4  5  1  0  0  0
 10 11  1  0  0  0
 11 12  2  0  0  0
 11 13  1  0  0  0
  5  6  1  0  0  0
  5 19  1  0  0  0
 19 20  1  0  0  0
 20 21  1  0  0  0
 20 23  1  0  0  0
 21 22  1  0  0  0
 23 24  1  0  0  0
 17 18  1  0  0  0
 10 14  1  0  0  0
  7  8  1  0  0  0
  7  9  1  0  0  0
M  END
> <minimizedAffinity>
-6.14144

$$$$
2YA8_G39_A_1777


 24 24  0  0  0  0  0  0  0  0999 V2000
   18.0131  -18.6941   39.4115 C   0  0  0  0  0  0  0  0  0  0  0  0
   16.9825  -17.8400   40.1172 C   0  0  0  0  0  0  0  0  0  0  0  0
   15.9700  -18.7455   40.8352 C   0  0  0  0  0  0  0  0  0  0  0  0
   16.6873  -19.7122   41.7572 C   0  0  0  0  0  0  0  0  0  0  0  0
   17.4995  -20.6761   40.9039 C   0  0  0  0  0  0  0  0  0  0  0  0
   18.3016  -19.9400   39.8415 C   0  0  0  0  0  0  0  0  0  0  0  0
   15.0168  -17.9306   41.5664 N   0  0  0  0  0  0  0  0  0  0  0  0
   15.5105  -17.3727   42.2630 H   0  0  0  0  0  0  0  0  0  0  0  0
   14.3398  -18.5348   42.0322 H   0  0  0  0  0  0  0  0  0  0  0  0
   15.7524  -20.4649   42.6013 N   0  0  0  0  0  0  0  0  0  0  0  0
   15.8656  -20.5409   43.9301 C   0  0  0  0  0  0  0  0  0  0  0  0
   16.6530  -19.8779   44.5982 O   0  0  0  0  0  0  0  0  0  0  0  0
   14.9173  -21.5144   44.5681 C   0  0  0  0  0  0  0  0  0  0  0  0
   15.0053  -20.9368   42.1672 H   0  0  0  0  0  0  0  0  0  0  0  0
   18.7361  -18.1855   38.2393 C   0  0  0  0  0  0  0  0  0  0  0  0
   18.1740  -18.1760   37.1080 O   0  0  0  0  0  0  0  0  0  0  0  0
   19.8936  -17.7488   38.3911 O   0  0  0  0  0  0  0  0  0  0  0  0
   20.2929  -17.7647   39.2386 H   0  0  0  0  0  0  0  0  0  0  0  0
   18.4209  -21.3079   41.7730 O   0  0  0  0  0  0  0  0  0  0  0  0
   18.7856  -22.6341   41.3619 C   0  0  0  0  0  0  0  0  0  0  0  0
   17.7928  -23.6709   41.8953 C   0  0  0  0  0  0  0  0  0  0  0  0
   17.3939  -24.6716   40.8430 C   0  0  0  0  0  0  0  0  0  0  0  0
   20.2002  -22.9171   41.8943 C   0  0  0  0  0  0  0  0  0  0  0  0
   21.1646  -21.8752   41.3750 C   0  0  0  0  0  0  0  0  0  0  0  0
 15 16  2  0  0  0
 15 17  1  0  0  0
 15  1  1  0  0  0
  1  2  1  0  0  0
  1  6  2  0  0  0
  2  3  1  0  0  0
  3  4  1  0  0  0
  3  7  1  0  0  0
  4 10  1  0  0  0
  4  5  1  0  0  0
 10 11  1  0  0  0
 11 12  2  0  0  0
 11 13  1  0  0  0
  5  6  1  0  0  0
  5 19  1  0  0  0
 19 20  1  0  0  0
 20 21  1  0  0  0
 20 23  1  0  0  0
 21 22  1  0  0  0
 23 24  1  0  0  0
 17 18  1  0  0  0
 10 14  1  0  0  0
  7  8  1  0  0  0
  7  9  1  0  0  0
M  END
> <minimizedAffinity>
-5.89407

$$$$
2YA8_G39_A_1777


 24 24  0  0  0  0  0  0  0  0999 V2000
   16.0991  -20.4205   43.3958 C   0  0  0  0  0  0  0  0  0  0  0  0
   15.1812  -19.6944   42.4365 C   0  0  0  0  0  0  0  0  0  0  0  0
   16.0159  -19.0304   41.3306 C   0  0  0  0  0  0  0  0  0  0  0  0
   16.9077  -20.0542   40.6556 C   0  0  0  0  0  0  0  0  0  0  0  0
   17.9456  -20.5258   41.6641 C   0  0  0  0  0  0  0  0  0  0  0  0
   17.3069  -20.8733   43.0002 C   0  0  0  0  0  0  0  0  0  0  0  0
   15.1356  -18.3867   40.3726 N   0  0  0  0  0  0  0  0  0  0  0  0
   14.5252  -19.0855   39.9488 H   0  0  0  0  0  0  0  0  0  0  0  0
   15.6936  -17.9376   39.6464 H   0  0  0  0  0  0  0  0  0  0  0  0
   17.5801  -19.5045   39.4729 N   0  0  0  0  0  0  0  0  0  0  0  0
   18.5654  -18.6053   39.5438 C   0  0  0  0  0  0  0  0  0  0  0  0
   19.1162  -18.2605   40.5847 O   0  0  0  0  0  0  0  0  0  0  0  0
   18.9744  -18.0429   38.2132 C   0  0  0  0  0  0  0  0  0  0  0  0
   17.2910  -19.8134   38.5839 H   0  0  0  0  0  0  0  0  0  0  0  0
   15.6956  -20.6598   44.7870 C   0  0  0  0  0  0  0  0  0  0  0  0
   16.5302  -21.1246   45.6136 O   0  0  0  0  0  0  0  0  0  0  0  0
   14.5321  -20.3755   45.1316 O   0  0  0  0  0  0  0  0  0  0  0  0
   13.9280  -20.0318   44.5032 H   0  0  0  0  0  0  0  0  0  0  0  0
   18.5097  -21.7131   41.1390 O   0  0  0  0  0  0  0  0  0  0  0  0
   19.4264  -22.3612   42.0336 C   0  0  0  0  0  0  0  0  0  0  0  0
   20.8696  -21.9338   41.7517 C   0  0  0  0  0  0  0  0  0  0  0  0
   21.0130  -21.2604   40.4123 C   0  0  0  0  0  0  0  0  0  0  0  0
   19.2668  -23.8794   41.8489 C   0  0  0  0  0  0  0  0  0  0  0  0
   17.8368  -24.2070   41.4838 C   0  0  0  0  0  0  0  0  0  0  0  0
 15 16  2  0  0  0
 15 17  1  0  0  0
 15  1  1  0  0  0
  1  2  1  0  0  0
  1  6  2  0  0  0
  2  3  1  0  0  0
  3  4  1  0  0  0
  3  7  1  0  0  0
  4 10  1  0  0  0
  4  5  1  0  0  0
 10 11  1  0  0  0
 11 12  2  0  0  0
 11 13  1  0  0  0
  5  6  1  0  0  0
  5 19  1  0  0  0
 19 20  1  0  0  0
 20 21  1  0  0  0
 20 23  1  0  0  0
 21 22  1  0  0  0
 23 24  1  0  0  0
 17 18  1  0  0  0
 10 14  1  0  0  0
  7  8  1  0  0  0
  7  9  1  0  0  0
M  END
> <minimizedAffinity>
-5.82016

$$$$
2YA8_G39_A_1777


 24 24  0  0  0  0  0  0  0  0999 V2000
   15.6470  -19.5256   42.1280 C   0  0  0  0  0  0  0  0  0  0  0  0
   15.6893  -18.6129   40.9217 C   0  0  0  0  0  0  0  0  0  0  0  0
   17.0581  -17.9188   40.8510 C   0  0  0  0  0  0  0  0  0  0  0  0
   18.1727  -18.9466   40.8703 C   0  0  0  0  0  0  0  0  0  0  0  0
   18.1765  -19.6248   42.2329 C   0  0  0  0  0  0  0  0  0  0  0  0
   16.7762  -20.0501   42.6478 C   0  0  0  0  0  0  0  0  0  0  0  0
   17.1265  -17.0914   39.6602 N   0  0  0  0  0  0  0  0  0  0  0  0
   17.0115  -17.6765   38.8326 H   0  0  0  0  0  0  0  0  0  0  0  0
   18.0321  -16.6236   39.6227 H   0  0  0  0  0  0  0  0  0  0  0  0
   19.4847  -18.3412   40.6147 N   0  0  0  0  0  0  0  0  0  0  0  0
   20.0307  -18.2657   39.3978 C   0  0  0  0  0  0  0  0  0  0  0  0
   19.4449  -18.5449   38.3563 O   0  0  0  0  0  0  0  0  0  0  0  0
   21.4520  -17.7824   39.3962 C   0  0  0  0  0  0  0  0  0  0  0  0
   19.9871  -17.9728   41.3770 H   0  0  0  0  0  0  0  0  0  0  0  0
   14.3700  -19.8731   42.7637 C   0  0  0  0  0  0  0  0  0  0  0  0
   14.3550  -20.3109   43.9485 O   0  0  0  0  0  0  0  0  0  0  0  0
   13.3150  -19.7061   42.1214 O   0  0  0  0  0  0  0  0  0  0  0  0
   13.3475  -19.3802   41.2435 H   0  0  0  0  0  0  0  0  0  0  0  0
   18.9568  -20.7982   42.0988 O   0  0  0  0  0  0  0  0  0  0  0  0
   19.6567  -21.1658   43.2969 C   0  0  0  0  0  0  0  0  0  0  0  0
   21.0262  -20.4843   43.3686 C   0  0  0  0  0  0  0  0  0  0  0  0
   21.8159  -20.6576   42.0981 C   0  0  0  0  0  0  0  0  0  0  0  0
   19.8141  -22.6955   43.2968 C   0  0  0  0  0  0  0  0  0  0  0  0
   18.5799  -23.3409   43.8848 C   0  0  0  0  0  0  0  0  0  0  0  0
 15 16  2  0  0  0
 15 17  1  0  0  0
 15  1  1  0  0  0
  1  2  1  0  0  0
  1  6  2  0  0  0
  2  3  1  0  0  0
  3  4  1  0  0  0
  3  7  1  0  0  0
  4 10  1  0  0  0
  4  5  1  0  0  0
 10 11  1  0  0  0
 11 12  2  0  0  0
 11 13  1  0  0  0
  5  6  1  0  0  0
  5 19  1  0  0  0
 19 20  1  0  0  0
 20 21  1  0  0  0
 20 23  1  0  0  0
 21 22  1  0  0  0
 23 24  1  0  0  0
 17 18  1  0  0  0
 10 14  1  0  0  0
  7  8  1  0  0  0
  7  9  1  0  0  0
M  END
> <minimizedAffinity>
-5.68212

$$$$
2YA8_G39_A_1777


 24 24  0  0  0  0  0  0  0  0999 V2000
   18.0452  -18.4475   38.9073 C   0  0  0  0  0  0  0  0  0  0  0  0
   19.4289  -19.0244   39.1136 C   0  0  0  0  0  0  0  0  0  0  0  0
   19.6874  -19.2135   40.6162 C   0  0  0  0  0  0  0  0  0  0  0  0
   18.5857  -20.0477   41.2404 C   0  0  0  0  0  0  0  0  0  0  0  0
   17.2913  -19.2486   41.1897 C   0  0  0  0  0  0  0  0  0  0  0  0
   17.0646  -18.6415   39.8135 C   0  0  0  0  0  0  0  0  0  0  0  0
   20.9882  -19.8262   40.8158 N   0  0  0  0  0  0  0  0  0  0  0  0
   21.0072  -20.7392   40.3616 H   0  0  0  0  0  0  0  0  0  0  0  0
   21.1609  -19.9397   41.8147 H   0  0  0  0  0  0  0  0  0  0  0  0
   18.8896  -20.4110   42.6293 N   0  0  0  0  0  0  0  0  0  0  0  0
   19.3477  -21.6137   42.9871 C   0  0  0  0  0  0  0  0  0  0  0  0
   19.7081  -22.4815   42.1980 O   0  0  0  0  0  0  0  0  0  0  0  0
   19.4078  -21.8261   44.4721 C   0  0  0  0  0  0  0  0  0  0  0  0
   18.7491  -19.7354   43.3315 H   0  0  0  0  0  0  0  0  0  0  0  0
   17.7283  -17.6641   37.7067 C   0  0  0  0  0  0  0  0  0  0  0  0
   18.0986  -18.0747   36.5709 O   0  0  0  0  0  0  0  0  0  0  0  0
   17.0746  -16.6104   37.8331 O   0  0  0  0  0  0  0  0  0  0  0  0
   16.8094  -16.3229   38.6845 H   0  0  0  0  0  0  0  0  0  0  0  0
   16.2401  -20.1654   41.4303 O   0  0  0  0  0  0  0  0  0  0  0  0
   15.4843  -19.8785   42.6165 C   0  0  0  0  0  0  0  0  0  0  0  0
   15.4185  -21.0991   43.5389 C   0  0  0  0  0  0  0  0  0  0  0  0
   15.8708  -20.7798   44.9394 C   0  0  0  0  0  0  0  0  0  0  0  0
   14.0720  -19.4539   42.1808 C   0  0  0  0  0  0  0  0  0  0  0  0
   14.0925  -18.0254   41.6865 C   0  0  0  0  0  0  0  0  0  0  0  0
 15 16  2  0  0  0
 15 17  1  0  0  0
 15  1  1  0  0  0
  1  2  1  0  0  0
  1  6  2  0  0  0
  2  3  1  0  0  0
  3  4  1  0  0  0
  3  7  1  0  0  0
  4 10  1  0  0  0
  4  5  1  0  0  0
 10 11  1  0  0  0
 11 12  2  0  0  0
 11 13  1  0  0  0
  5  6  1  0  0  0
  5 19  1  0  0  0
 19 20  1  0  0  0
 20 21  1  0  0  0
 20 23  1  0  0  0
 21 22  1  0  0  0
 23 24  1  0  0  0
 17 18  1  0  0  0
 10 14  1  0  0  0
  7  8  1  0  0  0
  7  9  1  0  0  0
M  END
> <minimizedAffinity>
-5.65113

$$$$
2YA8_G39_A_1777


 24 24  0  0  0  0  0  0  0  0999 V2000
   16.8806  -19.3535   41.4164 C   0  0  0  0  0  0  0  0  0  0  0  0
   16.6439  -19.1194   42.8926 C   0  0  0  0  0  0  0  0  0  0  0  0
   16.5258  -20.4707   43.6141 C   0  0  0  0  0  0  0  0  0  0  0  0
   17.7407  -21.3309   43.3260 C   0  0  0  0  0  0  0  0  0  0  0  0
   17.7268  -21.7020   41.8499 C   0  0  0  0  0  0  0  0  0  0  0  0
   17.4596  -20.4884   40.9725 C   0  0  0  0  0  0  0  0  0  0  0  0
   16.3628  -20.2517   45.0399 N   0  0  0  0  0  0  0  0  0  0  0  0
   17.1766  -19.7553   45.4029 H   0  0  0  0  0  0  0  0  0  0  0  0
   16.2734  -21.1504   45.5139 H   0  0  0  0  0  0  0  0  0  0  0  0
   17.7591  -22.5496   44.1430 N   0  0  0  0  0  0  0  0  0  0  0  0
   18.5484  -22.7031   45.2097 C   0  0  0  0  0  0  0  0  0  0  0  0
   19.2189  -21.8060   45.7112 O   0  0  0  0  0  0  0  0  0  0  0  0
   18.5414  -24.0924   45.7785 C   0  0  0  0  0  0  0  0  0  0  0  0
   17.1605  -23.2901   43.8929 H   0  0  0  0  0  0  0  0  0  0  0  0
   16.4919  -18.3446   40.4232 C   0  0  0  0  0  0  0  0  0  0  0  0
   17.3175  -17.4549   40.0730 O   0  0  0  0  0  0  0  0  0  0  0  0
   15.3508  -18.4013   39.9252 O   0  0  0  0  0  0  0  0  0  0  0  0
   14.7530  -19.0691   40.1985 H   0  0  0  0  0  0  0  0  0  0  0  0
   19.0240  -22.1758   41.5396 O   0  0  0  0  0  0  0  0  0  0  0  0
   20.0278  -21.1496   41.5370 C   0  0  0  0  0  0  0  0  0  0  0  0
   20.5908  -20.9303   40.1299 C   0  0  0  0  0  0  0  0  0  0  0  0
   20.5973  -19.4760   39.7391 C   0  0  0  0  0  0  0  0  0  0  0  0
   21.1429  -21.5827   42.5034 C   0  0  0  0  0  0  0  0  0  0  0  0
   22.1645  -22.4211   41.7693 C   0  0  0  0  0  0  0  0  0  0  0  0
 15 16  2  0  0  0
 15 17  1  0  0  0
 15  1  1  0  0  0
  1  2  1  0  0  0
  1  6  2  0  0  0
  2  3  1  0  0  0
  3  4  1  0  0  0
  3  7  1  0  0  0
  4 10  1  0  0  0
  4  5  1  0  0  0
 10 11  1  0  0  0
 11 12  2  0  0  0
 11 13  1  0  0  0
  5  6  1  0  0  0
  5 19  1  0  0  0
 19 20  1  0  0  0
 20 21  1  0  0  0
 20 23  1  0  0  0
 21 22  1  0  0  0
 23 24  1  0  0  0
 17 18  1  0  0  0
 10 14  1  0  0  0
  7  8  1  0  0  0
  7  9  1  0  0  0
M  END
> <minimizedAffinity>
-5.57940

$$$$
