1QL7_ZEN_A_999


 34 38  0  0  0  0  0  0  0  0999 V2000
   26.2690    6.9369   13.5493 C   0  0  0  0  0  0  0  0  0  0  0  0
   26.4464    6.8662   12.3302 O   0  0  0  0  0  0  0  0  0  0  0  0
   27.2866    7.0858   14.3652 N   0  0  0  0  0  0  0  0  0  0  0  0
   27.1748    7.1684   15.8339 C   0  0  0  0  0  0  0  0  0  0  0  0
   27.9745    8.4033   16.3317 C   0  0  0  0  0  0  0  0  0  0  0  0
   29.3080    8.4281   14.2965 C   0  0  0  0  0  0  0  0  0  0  0  0
   28.6411    7.1394   13.8117 C   0  0  0  0  0  0  0  0  0  0  0  0
   29.3370    8.3903   15.7559 N   0  0  0  0  0  0  0  0  0  0  0  0
   22.1285    7.0707   12.8207 N   0  0  0  0  0  0  0  0  0  0  0  0
   22.5606    5.7460   13.2893 C   0  0  0  0  0  0  0  0  0  0  0  0
   24.1057    5.6694   13.2235 C   0  0  0  0  0  0  0  0  0  0  0  0
   24.1402    8.2217   13.6295 C   0  0  0  0  0  0  0  0  0  0  0  0
   22.6033    8.1460   13.7037 C   0  0  0  0  0  0  0  0  0  0  0  0
   24.8187    6.8560   13.9775 C   0  0  0  0  0  0  0  0  0  0  0  0
   18.4392    7.4837   10.8665 N   0  0  0  0  0  0  0  0  0  0  0  0
   18.9249    6.2362   11.1015 C   0  0  0  0  0  0  0  0  0  0  0  0
   20.1613    6.0711   11.7502 C   0  0  0  0  0  0  0  0  0  0  0  0
   20.3444    8.4890   11.9061 C   0  0  0  0  0  0  0  0  0  0  0  0
   19.1105    8.5979   11.2500 C   0  0  0  0  0  0  0  0  0  0  0  0
   20.8766    7.2122   12.1594 C   0  0  0  0  0  0  0  0  0  0  0  0
   30.2716    9.5885   16.3545 S   0  0  0  0  0  0  0  0  0  0  0  0
   31.4521    9.6918   15.5165 O   0  0  0  0  0  0  0  0  0  0  0  0
   30.4785    9.3001   17.7505 O   0  0  0  0  0  0  0  0  0  0  0  0
   29.4041   11.1122   16.2449 C   0  0  0  0  0  0  0  0  0  0  0  0
   29.5564   11.9144   15.1220 C   0  0  0  0  0  0  0  0  0  0  0  0
   28.5163   11.4843   17.2633 C   0  0  0  0  0  0  0  0  0  0  0  0
   27.8018   12.6747   17.1705 C   0  0  0  0  0  0  0  0  0  0  0  0
   28.8461   13.1038   15.0161 C   0  0  0  0  0  0  0  0  0  0  0  0
   27.9641   13.4887   16.0506 C   0  0  0  0  0  0  0  0  0  0  0  0
   27.2518   14.6711   15.9432 C   0  0  0  0  0  0  0  0  0  0  0  0
   28.2881   15.1030   13.7939 C   0  0  0  0  0  0  0  0  0  0  0  0
   29.0045   13.9169   13.8951 C   0  0  0  0  0  0  0  0  0  0  0  0
   27.4152   15.4755   14.8186 C   0  0  0  0  0  0  0  0  0  0  0  0
   26.5106   16.9331   14.6842 Cl  0  0  0  0  0  0  0  0  0  0  0  0
 15 16  2  0  0  0
 15 19  1  0  0  0
 16 17  1  0  0  0
 17 20  2  0  0  0
 18 19  2  0  0  0
 18 20  1  0  0  0
 20  9  1  0  0  0
  9 10  1  0  0  0
  9 13  1  0  0  0
 10 11  1  0  0  0
 11 14  1  0  0  0
 12 13  1  0  0  0
 12 14  1  0  0  0
 14  1  1  0  0  0
  1  2  2  0  0  0
  1  3  1  0  0  0
  3  4  1  0  0  0
  3  7  1  0  0  0
  4  5  1  0  0  0
  5  8  1  0  0  0
  6  7  1  0  0  0
  6  8  1  0  0  0
  8 21  1  0  0  0
 21 22  2  0  0  0
 21 23  2  0  0  0
 21 24  1  0  0  0
 24 25  2  0  0  0
 24 26  1  0  0  0
 25 28  1  0  0  0
 26 27  2  0  0  0
 27 29  1  0  0  0
 28 29  2  0  0  0
 28 32  1  0  0  0
 29 30  1  0  0  0
 30 33  2  0  0  0
 31 32  2  0  0  0
 31 33  1  0  0  0
 33 34  1  0  0  0
M  END
> <minimizedAffinity>
-9.23091

$$$$
1QL7_ZEN_A_999


 34 38  0  0  0  0  0  0  0  0999 V2000
   29.0443    8.7487   17.6727 C   0  0  0  0  0  0  0  0  0  0  0  0
   29.7913    8.0283   18.3402 O   0  0  0  0  0  0  0  0  0  0  0  0
   27.9456    8.2632   17.1429 N   0  0  0  0  0  0  0  0  0  0  0  0
   26.9989    9.0421   16.3222 C   0  0  0  0  0  0  0  0  0  0  0  0
   25.5601    8.8170   16.8622 C   0  0  0  0  0  0  0  0  0  0  0  0
   26.2309    6.7408   17.9395 C   0  0  0  0  0  0  0  0  0  0  0  0
   27.6305    6.8457   17.3308 C   0  0  0  0  0  0  0  0  0  0  0  0
   25.2955    7.3692   17.0109 N   0  0  0  0  0  0  0  0  0  0  0  0
   28.7659   12.6618   16.1553 N   0  0  0  0  0  0  0  0  0  0  0  0
   28.5694   12.6228   17.6118 C   0  0  0  0  0  0  0  0  0  0  0  0
   28.3594   11.1529   18.0509 C   0  0  0  0  0  0  0  0  0  0  0  0
   29.8433   10.4585   16.0519 C   0  0  0  0  0  0  0  0  0  0  0  0
   29.9931   11.9616   15.7491 C   0  0  0  0  0  0  0  0  0  0  0  0
   29.5020   10.1873   17.5541 C   0  0  0  0  0  0  0  0  0  0  0  0
   27.4793   16.0048   13.9714 N   0  0  0  0  0  0  0  0  0  0  0  0
   26.9494   15.7774   15.2022 C   0  0  0  0  0  0  0  0  0  0  0  0
   27.3603   14.6612   15.9519 C   0  0  0  0  0  0  0  0  0  0  0  0
   28.8643   14.0619   14.1402 C   0  0  0  0  0  0  0  0  0  0  0  0
   28.4153   15.1851   13.4317 C   0  0  0  0  0  0  0  0  0  0  0  0
   28.3316   13.7962   15.4142 C   0  0  0  0  0  0  0  0  0  0  0  0
   23.7496    7.0652   17.4413 S   0  0  0  0  0  0  0  0  0  0  0  0
   23.2073    8.2744   18.0332 O   0  0  0  0  0  0  0  0  0  0  0  0
   23.7687    5.8818   18.2621 O   0  0  0  0  0  0  0  0  0  0  0  0
   22.8062    6.7051   16.0038 C   0  0  0  0  0  0  0  0  0  0  0  0
   22.2717    7.7419   15.2507 C   0  0  0  0  0  0  0  0  0  0  0  0
   22.6464    5.3761   15.5891 C   0  0  0  0  0  0  0  0  0  0  0  0
   21.9266    5.0834   14.4347 C   0  0  0  0  0  0  0  0  0  0  0  0
   21.5538    7.4627   14.0945 C   0  0  0  0  0  0  0  0  0  0  0  0
   21.3769    6.1221   13.6851 C   0  0  0  0  0  0  0  0  0  0  0  0
   20.6662    5.8434   12.5299 C   0  0  0  0  0  0  0  0  0  0  0  0
   20.2934    8.2143   12.1844 C   0  0  0  0  0  0  0  0  0  0  0  0
   21.0068    8.5005   13.3417 C   0  0  0  0  0  0  0  0  0  0  0  0
   20.1255    6.8869   11.7836 C   0  0  0  0  0  0  0  0  0  0  0  0
   19.2613    6.5324   10.3384 Cl  0  0  0  0  0  0  0  0  0  0  0  0
 15 16  2  0  0  0
 15 19  1  0  0  0
 16 17  1  0  0  0
 17 20  2  0  0  0
 18 19  2  0  0  0
 18 20  1  0  0  0
 20  9  1  0  0  0
  9 10  1  0  0  0
  9 13  1  0  0  0
 10 11  1  0  0  0
 11 14  1  0  0  0
 12 13  1  0  0  0
 12 14  1  0  0  0
 14  1  1  0  0  0
  1  2  2  0  0  0
  1  3  1  0  0  0
  3  4  1  0  0  0
  3  7  1  0  0  0
  4  5  1  0  0  0
  5  8  1  0  0  0
  6  7  1  0  0  0
  6  8  1  0  0  0
  8 21  1  0  0  0
 21 22  2  0  0  0
 21 23  2  0  0  0
 21 24  1  0  0  0
 24 25  2  0  0  0
 24 26  1  0  0  0
 25 28  1  0  0  0
 26 27  2  0  0  0
 27 29  1  0  0  0
 28 29  2  0  0  0
 28 32  1  0  0  0
 29 30  1  0  0  0
 30 33  2  0  0  0
 31 32  2  0  0  0
 31 33  1  0  0  0
 33 34  1  0  0  0
M  END
> <minimizedAffinity>
-8.79630

$$$$
1QL7_ZEN_A_999


 34 38  0  0  0  0  0  0  0  0999 V2000
   24.9954    6.5498   15.6908 C   0  0  0  0  0  0  0  0  0  0  0  0
   25.3712    5.8484   14.7477 O   0  0  0  0  0  0  0  0  0  0  0  0
   25.8138    6.8404   16.6754 N   0  0  0  0  0  0  0  0  0  0  0  0
   25.4527    7.6597   17.8478 C   0  0  0  0  0  0  0  0  0  0  0  0
   26.5355    8.7546   18.0505 C   0  0  0  0  0  0  0  0  0  0  0  0
   28.1580    7.4620   16.7787 C   0  0  0  0  0  0  0  0  0  0  0  0
   27.1735    6.2976   16.6547 C   0  0  0  0  0  0  0  0  0  0  0  0
   27.8824    8.1430   18.0405 N   0  0  0  0  0  0  0  0  0  0  0  0
   21.4128    7.2277   13.5936 N   0  0  0  0  0  0  0  0  0  0  0  0
   21.2315    6.2704   14.6944 C   0  0  0  0  0  0  0  0  0  0  0  0
   22.6230    5.8229   15.2051 C   0  0  0  0  0  0  0  0  0  0  0  0
   23.5123    8.1392   14.4810 C   0  0  0  0  0  0  0  0  0  0  0  0
   22.0708    8.4628   14.0443 C   0  0  0  0  0  0  0  0  0  0  0  0
   23.5633    7.0303   15.5831 C   0  0  0  0  0  0  0  0  0  0  0  0
   18.5799    7.4114   10.5047 N   0  0  0  0  0  0  0  0  0  0  0  0
   19.0687    6.1999   10.8800 C   0  0  0  0  0  0  0  0  0  0  0  0
   20.0226    6.1121   11.9091 C   0  0  0  0  0  0  0  0  0  0  0  0
   19.9219    8.5288   12.1392 C   0  0  0  0  0  0  0  0  0  0  0  0
   18.9779    8.5613   11.1035 C   0  0  0  0  0  0  0  0  0  0  0  0
   20.4507    7.2913   12.5472 C   0  0  0  0  0  0  0  0  0  0  0  0
   29.0544    9.2254   18.3903 S   0  0  0  0  0  0  0  0  0  0  0  0
   30.3338    8.5532   18.2575 O   0  0  0  0  0  0  0  0  0  0  0  0
   28.7357    9.7858   19.6783 O   0  0  0  0  0  0  0  0  0  0  0  0
   29.0116   10.5290   17.2133 C   0  0  0  0  0  0  0  0  0  0  0  0
   28.2377   11.6554   17.4581 C   0  0  0  0  0  0  0  0  0  0  0  0
   29.8044   10.4540   16.0602 C   0  0  0  0  0  0  0  0  0  0  0  0
   29.8004   11.4955   15.1374 C   0  0  0  0  0  0  0  0  0  0  0  0
   28.2277   12.7033   16.5459 C   0  0  0  0  0  0  0  0  0  0  0  0
   29.0129   12.6210   15.3742 C   0  0  0  0  0  0  0  0  0  0  0  0
   29.0077   13.6674   14.4674 C   0  0  0  0  0  0  0  0  0  0  0  0
   27.4416   14.8771   15.8687 C   0  0  0  0  0  0  0  0  0  0  0  0
   27.4438   13.8312   16.7831 C   0  0  0  0  0  0  0  0  0  0  0  0
   28.2231   14.7906   14.7143 C   0  0  0  0  0  0  0  0  0  0  0  0
   28.2385   16.0949   13.5919 Cl  0  0  0  0  0  0  0  0  0  0  0  0
 15 16  2  0  0  0
 15 19  1  0  0  0
 16 17  1  0  0  0
 17 20  2  0  0  0
 18 19  2  0  0  0
 18 20  1  0  0  0
 20  9  1  0  0  0
  9 10  1  0  0  0
  9 13  1  0  0  0
 10 11  1  0  0  0
 11 14  1  0  0  0
 12 13  1  0  0  0
 12 14  1  0  0  0
 14  1  1  0  0  0
  1  2  2  0  0  0
  1  3  1  0  0  0
  3  4  1  0  0  0
  3  7  1  0  0  0
  4  5  1  0  0  0
  5  8  1  0  0  0
  6  7  1  0  0  0
  6  8  1  0  0  0
  8 21  1  0  0  0
 21 22  2  0  0  0
 21 23  2  0  0  0
 21 24  1  0  0  0
 24 25  2  0  0  0
 24 26  1  0  0  0
 25 28  1  0  0  0
 26 27  2  0  0  0
 27 29  1  0  0  0
 28 29  2  0  0  0
 28 32  1  0  0  0
 29 30  1  0  0  0
 30 33  2  0  0  0
 31 32  2  0  0  0
 31 33  1  0  0  0
 33 34  1  0  0  0
M  END
> <minimizedAffinity>
-8.54435

$$$$
1QL7_ZEN_A_999


 34 38  0  0  0  0  0  0  0  0999 V2000
   29.9494    7.3864   16.1397 C   0  0  0  0  0  0  0  0  0  0  0  0
   30.8449    6.5763   16.3936 O   0  0  0  0  0  0  0  0  0  0  0  0
   28.8226    6.9885   15.5960 N   0  0  0  0  0  0  0  0  0  0  0  0
   27.7022    7.8823   15.2466 C   0  0  0  0  0  0  0  0  0  0  0  0
   26.3868    7.2908   15.8232 C   0  0  0  0  0  0  0  0  0  0  0  0
   27.3763    5.0712   15.9486 C   0  0  0  0  0  0  0  0  0  0  0  0
   28.6516    5.5718   15.2680 C   0  0  0  0  0  0  0  0  0  0  0  0
   26.2618    5.8670   15.4419 N   0  0  0  0  0  0  0  0  0  0  0  0
   29.2188   11.5287   16.1262 N   0  0  0  0  0  0  0  0  0  0  0  0
   29.1362   10.9613   17.4799 C   0  0  0  0  0  0  0  0  0  0  0  0
   29.0883    9.4172   17.3752 C   0  0  0  0  0  0  0  0  0  0  0  0
   30.4729    9.6310   15.2032 C   0  0  0  0  0  0  0  0  0  0  0  0
   30.4684   11.1517   15.4495 C   0  0  0  0  0  0  0  0  0  0  0  0
   30.2701    8.8160   16.5228 C   0  0  0  0  0  0  0  0  0  0  0  0
   27.4863   15.2652   15.3278 N   0  0  0  0  0  0  0  0  0  0  0  0
   27.1618   14.6205   16.4795 C   0  0  0  0  0  0  0  0  0  0  0  0
   27.7249   13.3649   16.7679 C   0  0  0  0  0  0  0  0  0  0  0  0
   28.9523   13.4916   14.6748 C   0  0  0  0  0  0  0  0  0  0  0  0
   28.3577   14.7376   14.4324 C   0  0  0  0  0  0  0  0  0  0  0  0
   28.6332   12.7968   15.8550 C   0  0  0  0  0  0  0  0  0  0  0  0
   24.8300    5.2287   15.9003 S   0  0  0  0  0  0  0  0  0  0  0  0
   24.6986    5.4161   17.3335 O   0  0  0  0  0  0  0  0  0  0  0  0
   24.7982    3.8756   15.4078 O   0  0  0  0  0  0  0  0  0  0  0  0
   23.5247    6.1122   15.1246 C   0  0  0  0  0  0  0  0  0  0  0  0
   23.4787    6.2016   13.7398 C   0  0  0  0  0  0  0  0  0  0  0  0
   22.5029    6.6728   15.9026 C   0  0  0  0  0  0  0  0  0  0  0  0
   21.4488    7.3480   15.2949 C   0  0  0  0  0  0  0  0  0  0  0  0
   22.4298    6.8704   13.1210 C   0  0  0  0  0  0  0  0  0  0  0  0
   21.4082    7.4514   13.9054 C   0  0  0  0  0  0  0  0  0  0  0  0
   20.3597    8.1133   13.2892 C   0  0  0  0  0  0  0  0  0  0  0  0
   21.3319    7.6381   11.1192 C   0  0  0  0  0  0  0  0  0  0  0  0
   22.3858    6.9713   11.7315 C   0  0  0  0  0  0  0  0  0  0  0  0
   20.3235    8.2068   11.9006 C   0  0  0  0  0  0  0  0  0  0  0  0
   19.0061    9.0136   11.1426 Cl  0  0  0  0  0  0  0  0  0  0  0  0
 15 16  2  0  0  0
 15 19  1  0  0  0
 16 17  1  0  0  0
 17 20  2  0  0  0
 18 19  2  0  0  0
 18 20  1  0  0  0
 20  9  1  0  0  0
  9 10  1  0  0  0
  9 13  1  0  0  0
 10 11  1  0  0  0
 11 14  1  0  0  0
 12 13  1  0  0  0
 12 14  1  0  0  0
 14  1  1  0  0  0
  1  2  2  0  0  0
  1  3  1  0  0  0
  3  4  1  0  0  0
  3  7  1  0  0  0
  4  5  1  0  0  0
  5  8  1  0  0  0
  6  7  1  0  0  0
  6  8  1  0  0  0
  8 21  1  0  0  0
 21 22  2  0  0  0
 21 23  2  0  0  0
 21 24  1  0  0  0
 24 25  2  0  0  0
 24 26  1  0  0  0
 25 28  1  0  0  0
 26 27  2  0  0  0
 27 29  1  0  0  0
 28 29  2  0  0  0
 28 32  1  0  0  0
 29 30  1  0  0  0
 30 33  2  0  0  0
 31 32  2  0  0  0
 31 33  1  0  0  0
 33 34  1  0  0  0
M  END
> <minimizedAffinity>
-7.76073

$$$$
1QL7_ZEN_A_999


 34 38  0  0  0  0  0  0  0  0999 V2000
   24.4994    7.4880   18.4799 C   0  0  0  0  0  0  0  0  0  0  0  0
   24.7112    6.8188   19.4947 O   0  0  0  0  0  0  0  0  0  0  0  0
   24.8256    8.7590   18.4373 N   0  0  0  0  0  0  0  0  0  0  0  0
   24.6016    9.6406   17.2759 C   0  0  0  0  0  0  0  0  0  0  0  0
   25.9202   10.3961   16.9548 C   0  0  0  0  0  0  0  0  0  0  0  0
   26.7471   10.0235   19.2128 C   0  0  0  0  0  0  0  0  0  0  0  0
   25.4200    9.3816   19.6218 C   0  0  0  0  0  0  0  0  0  0  0  0
   26.4595   11.0186   18.1836 N   0  0  0  0  0  0  0  0  0  0  0  0
   22.5277    7.2079   14.7749 N   0  0  0  0  0  0  0  0  0  0  0  0
   23.8633    6.5949   14.7335 C   0  0  0  0  0  0  0  0  0  0  0  0
   24.6479    7.0143   16.0008 C   0  0  0  0  0  0  0  0  0  0  0  0
   22.3763    7.1630   17.2246 C   0  0  0  0  0  0  0  0  0  0  0  0
   21.7295    6.7063   15.9031 C   0  0  0  0  0  0  0  0  0  0  0  0
   23.8707    6.7154   17.3393 C   0  0  0  0  0  0  0  0  0  0  0  0
   20.5984    8.2504   11.1985 N   0  0  0  0  0  0  0  0  0  0  0  0
   20.0699    8.6683   12.3789 C   0  0  0  0  0  0  0  0  0  0  0  0
   20.6947    8.3279   13.5915 C   0  0  0  0  0  0  0  0  0  0  0  0
   22.3997    7.1496   12.3232 C   0  0  0  0  0  0  0  0  0  0  0  0
   21.7338    7.5107   11.1437 C   0  0  0  0  0  0  0  0  0  0  0  0
   21.8753    7.5621   13.5611 C   0  0  0  0  0  0  0  0  0  0  0  0
   27.7702   11.9452   17.8820 S   0  0  0  0  0  0  0  0  0  0  0  0
   28.4054   12.2431   19.1525 O   0  0  0  0  0  0  0  0  0  0  0  0
   27.3200   13.0629   17.0930 O   0  0  0  0  0  0  0  0  0  0  0  0
   28.9167   11.0325   16.9130 C   0  0  0  0  0  0  0  0  0  0  0  0
   29.7170   10.0703   17.5141 C   0  0  0  0  0  0  0  0  0  0  0  0
   28.9775   11.2367   15.5280 C   0  0  0  0  0  0  0  0  0  0  0  0
   29.8609   10.4966   14.7481 C   0  0  0  0  0  0  0  0  0  0  0  0
   30.6008    9.3226   16.7457 C   0  0  0  0  0  0  0  0  0  0  0  0
   30.6757    9.5401   15.3517 C   0  0  0  0  0  0  0  0  0  0  0  0
   31.5523    8.7915   14.5846 C   0  0  0  0  0  0  0  0  0  0  0  0
   32.2920    7.6163   16.5724 C   0  0  0  0  0  0  0  0  0  0  0  0
   31.4134    8.3632   17.3473 C   0  0  0  0  0  0  0  0  0  0  0  0
   32.3582    7.8340   15.1944 C   0  0  0  0  0  0  0  0  0  0  0  0
   33.4299    6.8942   14.2303 Cl  0  0  0  0  0  0  0  0  0  0  0  0
 15 16  2  0  0  0
 15 19  1  0  0  0
 16 17  1  0  0  0
 17 20  2  0  0  0
 18 19  2  0  0  0
 18 20  1  0  0  0
 20  9  1  0  0  0
  9 10  1  0  0  0
  9 13  1  0  0  0
 10 11  1  0  0  0
 11 14  1  0  0  0
 12 13  1  0  0  0
 12 14  1  0  0  0
 14  1  1  0  0  0
  1  2  2  0  0  0
  1  3  1  0  0  0
  3  4  1  0  0  0
  3  7  1  0  0  0
  4  5  1  0  0  0
  5  8  1  0  0  0
  6  7  1  0  0  0
  6  8  1  0  0  0
  8 21  1  0  0  0
 21 22  2  0  0  0
 21 23  2  0  0  0
 21 24  1  0  0  0
 24 25  2  0  0  0
 24 26  1  0  0  0
 25 28  1  0  0  0
 26 27  2  0  0  0
 27 29  1  0  0  0
 28 29  2  0  0  0
 28 32  1  0  0  0
 29 30  1  0  0  0
 30 33  2  0  0  0
 31 32  2  0  0  0
 31 33  1  0  0  0
 33 34  1  0  0  0
M  END
> <minimizedAffinity>
-7.65555

$$$$
1QL7_ZEN_A_999


 34 38  0  0  0  0  0  0  0  0999 V2000
   23.5361    6.5705   13.5329 C   0  0  0  0  0  0  0  0  0  0  0  0
   24.0932    5.8698   12.6837 O   0  0  0  0  0  0  0  0  0  0  0  0
   23.8769    6.4856   14.7979 N   0  0  0  0  0  0  0  0  0  0  0  0
   23.2613    7.2720   15.8836 C   0  0  0  0  0  0  0  0  0  0  0  0
   24.3859    7.9234   16.7343 C   0  0  0  0  0  0  0  0  0  0  0  0
   26.0031    6.2826   15.9512 C   0  0  0  0  0  0  0  0  0  0  0  0
   24.9098    5.5264   15.1941 C   0  0  0  0  0  0  0  0  0  0  0  0
   25.3851    6.9030   17.1197 N   0  0  0  0  0  0  0  0  0  0  0  0
   19.7975    7.4029   11.7943 N   0  0  0  0  0  0  0  0  0  0  0  0
   19.9243    7.9963   13.1333 C   0  0  0  0  0  0  0  0  0  0  0  0
   21.1635    7.3898   13.8361 C   0  0  0  0  0  0  0  0  0  0  0  0
   22.2149    7.1011   11.4927 C   0  0  0  0  0  0  0  0  0  0  0  0
   20.9357    7.7503   10.9310 C   0  0  0  0  0  0  0  0  0  0  0  0
   22.4818    7.5064   12.9798 C   0  0  0  0  0  0  0  0  0  0  0  0
   15.9995    6.9011   10.0842 N   0  0  0  0  0  0  0  0  0  0  0  0
   16.7028    5.8013   10.4627 C   0  0  0  0  0  0  0  0  0  0  0  0
   17.9799    5.9425   11.0336 C   0  0  0  0  0  0  0  0  0  0  0  0
   17.7536    8.3521   10.8184 C   0  0  0  0  0  0  0  0  0  0  0  0
   16.4882    8.1555   10.2483 C   0  0  0  0  0  0  0  0  0  0  0  0
   18.5086    7.2342   11.2157 C   0  0  0  0  0  0  0  0  0  0  0  0
   26.5175    7.5001   18.1338 S   0  0  0  0  0  0  0  0  0  0  0  0
   27.7534    6.7777   17.8945 O   0  0  0  0  0  0  0  0  0  0  0  0
   25.9648    7.4369   19.4623 O   0  0  0  0  0  0  0  0  0  0  0  0
   26.8052    9.1908   17.7530 C   0  0  0  0  0  0  0  0  0  0  0  0
   27.6351    9.5284   16.6922 C   0  0  0  0  0  0  0  0  0  0  0  0
   26.1499   10.1916   18.4829 C   0  0  0  0  0  0  0  0  0  0  0  0
   26.3479   11.5325   18.1686 C   0  0  0  0  0  0  0  0  0  0  0  0
   27.8382   10.8637   16.3665 C   0  0  0  0  0  0  0  0  0  0  0  0
   27.1919   11.8741   17.1132 C   0  0  0  0  0  0  0  0  0  0  0  0
   27.3897   13.2048   16.7856 C   0  0  0  0  0  0  0  0  0  0  0  0
   28.8745   12.5437   14.9861 C   0  0  0  0  0  0  0  0  0  0  0  0
   28.6789   11.2067   15.3090 C   0  0  0  0  0  0  0  0  0  0  0  0
   28.2295   13.5373   15.7262 C   0  0  0  0  0  0  0  0  0  0  0  0
   28.4534   15.1928   15.3133 Cl  0  0  0  0  0  0  0  0  0  0  0  0
 15 16  2  0  0  0
 15 19  1  0  0  0
 16 17  1  0  0  0
 17 20  2  0  0  0
 18 19  2  0  0  0
 18 20  1  0  0  0
 20  9  1  0  0  0
  9 10  1  0  0  0
  9 13  1  0  0  0
 10 11  1  0  0  0
 11 14  1  0  0  0
 12 13  1  0  0  0
 12 14  1  0  0  0
 14  1  1  0  0  0
  1  2  2  0  0  0
  1  3  1  0  0  0
  3  4  1  0  0  0
  3  7  1  0  0  0
  4  5  1  0  0  0
  5  8  1  0  0  0
  6  7  1  0  0  0
  6  8  1  0  0  0
  8 21  1  0  0  0
 21 22  2  0  0  0
 21 23  2  0  0  0
 21 24  1  0  0  0
 24 25  2  0  0  0
 24 26  1  0  0  0
 25 28  1  0  0  0
 26 27  2  0  0  0
 27 29  1  0  0  0
 28 29  2  0  0  0
 28 32  1  0  0  0
 29 30  1  0  0  0
 30 33  2  0  0  0
 31 32  2  0  0  0
 31 33  1  0  0  0
 33 34  1  0  0  0
M  END
> <minimizedAffinity>
-7.51476

$$$$
1QL7_ZEN_A_999


 34 38  0  0  0  0  0  0  0  0999 V2000
   24.6727    7.5462   16.7690 C   0  0  0  0  0  0  0  0  0  0  0  0
   23.6171    7.4153   17.3944 O   0  0  0  0  0  0  0  0  0  0  0  0
   24.8788    6.8774   15.6582 N   0  0  0  0  0  0  0  0  0  0  0  0
   26.1102    6.9593   14.8499 C   0  0  0  0  0  0  0  0  0  0  0  0
   25.7236    7.2058   13.3659 C   0  0  0  0  0  0  0  0  0  0  0  0
   23.4852    6.3312   13.7472 C   0  0  0  0  0  0  0  0  0  0  0  0
   23.8493    5.9508   15.1836 C   0  0  0  0  0  0  0  0  0  0  0  0
   24.6979    6.2285   12.9405 N   0  0  0  0  0  0  0  0  0  0  0  0
   27.0421   11.0210   16.7012 N   0  0  0  0  0  0  0  0  0  0  0  0
   25.9959   11.0901   17.7318 C   0  0  0  0  0  0  0  0  0  0  0  0
   24.9761    9.9506   17.4894 C   0  0  0  0  0  0  0  0  0  0  0  0
   26.9152    8.5806   16.4681 C   0  0  0  0  0  0  0  0  0  0  0  0
   27.8244    9.7799   16.7971 C   0  0  0  0  0  0  0  0  0  0  0  0
   25.6478    8.5285   17.3834 C   0  0  0  0  0  0  0  0  0  0  0  0
   28.9229   14.5375   15.3987 N   0  0  0  0  0  0  0  0  0  0  0  0
   29.3092   13.3476   14.8677 C   0  0  0  0  0  0  0  0  0  0  0  0
   28.6980   12.1543   15.2911 C   0  0  0  0  0  0  0  0  0  0  0  0
   27.2975   13.4619   16.7853 C   0  0  0  0  0  0  0  0  0  0  0  0
   27.9437   14.6209   16.3334 C   0  0  0  0  0  0  0  0  0  0  0  0
   27.6780   12.2145   16.2592 C   0  0  0  0  0  0  0  0  0  0  0  0
   24.3543    6.3479   11.3483 S   0  0  0  0  0  0  0  0  0  0  0  0
   24.9553    5.2097   10.6776 O   0  0  0  0  0  0  0  0  0  0  0  0
   24.7763    7.6587   10.9262 O   0  0  0  0  0  0  0  0  0  0  0  0
   22.6156    6.2451   11.1196 C   0  0  0  0  0  0  0  0  0  0  0  0
   21.8354    7.3882   11.2319 C   0  0  0  0  0  0  0  0  0  0  0  0
   22.0294    5.0222   10.7664 C   0  0  0  0  0  0  0  0  0  0  0  0
   20.6570    4.9380   10.5533 C   0  0  0  0  0  0  0  0  0  0  0  0
   20.4644    7.3176   11.0183 C   0  0  0  0  0  0  0  0  0  0  0  0
   19.8699    6.0815   10.6796 C   0  0  0  0  0  0  0  0  0  0  0  0
   18.5044    6.0116   10.4613 C   0  0  0  0  0  0  0  0  0  0  0  0
   18.3068    8.3840   10.9217 C   0  0  0  0  0  0  0  0  0  0  0  0
   19.6766    8.4610   11.1405 C   0  0  0  0  0  0  0  0  0  0  0  0
   17.7262    7.1595   10.5836 C   0  0  0  0  0  0  0  0  0  0  0  0
   16.0331    7.0673   10.2904 Cl  0  0  0  0  0  0  0  0  0  0  0  0
 15 16  2  0  0  0
 15 19  1  0  0  0
 16 17  1  0  0  0
 17 20  2  0  0  0
 18 19  2  0  0  0
 18 20  1  0  0  0
 20  9  1  0  0  0
  9 10  1  0  0  0
  9 13  1  0  0  0
 10 11  1  0  0  0
 11 14  1  0  0  0
 12 13  1  0  0  0
 12 14  1  0  0  0
 14  1  1  0  0  0
  1  2  2  0  0  0
  1  3  1  0  0  0
  3  4  1  0  0  0
  3  7  1  0  0  0
  4  5  1  0  0  0
  5  8  1  0  0  0
  6  7  1  0  0  0
  6  8  1  0  0  0
  8 21  1  0  0  0
 21 22  2  0  0  0
 21 23  2  0  0  0
 21 24  1  0  0  0
 24 25  2  0  0  0
 24 26  1  0  0  0
 25 28  1  0  0  0
 26 27  2  0  0  0
 27 29  1  0  0  0
 28 29  2  0  0  0
 28 32  1  0  0  0
 29 30  1  0  0  0
 30 33  2  0  0  0
 31 32  2  0  0  0
 31 33  1  0  0  0
 33 34  1  0  0  0
M  END
> <minimizedAffinity>
-7.45249

$$$$
1QL7_ZEN_A_999


 34 38  0  0  0  0  0  0  0  0999 V2000
   26.2231    8.8130   19.2976 C   0  0  0  0  0  0  0  0  0  0  0  0
   25.6058    9.6045   20.0151 O   0  0  0  0  0  0  0  0  0  0  0  0
   25.8639    7.5520   19.2301 N   0  0  0  0  0  0  0  0  0  0  0  0
   26.5458    6.5316   18.4115 C   0  0  0  0  0  0  0  0  0  0  0  0
   25.4851    5.7652   17.5749 C   0  0  0  0  0  0  0  0  0  0  0  0
   23.7175    6.4244   19.1118 C   0  0  0  0  0  0  0  0  0  0  0  0
   24.7357    7.0888   20.0404 C   0  0  0  0  0  0  0  0  0  0  0  0
   24.3843    5.3065   18.4502 N   0  0  0  0  0  0  0  0  0  0  0  0
   27.9321   11.7583   16.8284 N   0  0  0  0  0  0  0  0  0  0  0  0
   28.5651   11.7192   18.1547 C   0  0  0  0  0  0  0  0  0  0  0  0
   27.6916   10.8619   19.1030 C   0  0  0  0  0  0  0  0  0  0  0  0
   26.9468    9.5185   17.0243 C   0  0  0  0  0  0  0  0  0  0  0  0
   27.8829   10.4276   16.2054 C   0  0  0  0  0  0  0  0  0  0  0  0
   27.3717    9.4298   18.5271 C   0  0  0  0  0  0  0  0  0  0  0  0
   28.3940   15.1502   14.4031 N   0  0  0  0  0  0  0  0  0  0  0  0
   29.0894   14.0227   14.0992 C   0  0  0  0  0  0  0  0  0  0  0  0
   28.9559   12.8743   14.8993 C   0  0  0  0  0  0  0  0  0  0  0  0
   27.3772   14.0893   16.2904 C   0  0  0  0  0  0  0  0  0  0  0  0
   27.5516   15.2083   15.4644 C   0  0  0  0  0  0  0  0  0  0  0  0
   28.0866   12.9089   16.0057 C   0  0  0  0  0  0  0  0  0  0  0  0
   23.3088    4.3725   17.6514 S   0  0  0  0  0  0  0  0  0  0  0  0
   22.2806    3.9729   18.5946 O   0  0  0  0  0  0  0  0  0  0  0  0
   24.0597    3.3225   17.0123 O   0  0  0  0  0  0  0  0  0  0  0  0
   22.5370    5.3226   16.3913 C   0  0  0  0  0  0  0  0  0  0  0  0
   22.9023    5.1370   15.0647 C   0  0  0  0  0  0  0  0  0  0  0  0
   21.5143    6.2214   16.7228 C   0  0  0  0  0  0  0  0  0  0  0  0
   20.8762    6.9557   15.7279 C   0  0  0  0  0  0  0  0  0  0  0  0
   22.2705    5.8619   14.0619 C   0  0  0  0  0  0  0  0  0  0  0  0
   21.2514    6.7815   14.3968 C   0  0  0  0  0  0  0  0  0  0  0  0
   20.6175    7.5002   13.3974 C   0  0  0  0  0  0  0  0  0  0  0  0
   22.0031    6.4112   11.7319 C   0  0  0  0  0  0  0  0  0  0  0  0
   22.6419    5.6859   12.7300 C   0  0  0  0  0  0  0  0  0  0  0  0
   20.9940    7.3158   12.0698 C   0  0  0  0  0  0  0  0  0  0  0  0
   20.1868    8.1984   10.8326 Cl  0  0  0  0  0  0  0  0  0  0  0  0
 15 16  2  0  0  0
 15 19  1  0  0  0
 16 17  1  0  0  0
 17 20  2  0  0  0
 18 19  2  0  0  0
 18 20  1  0  0  0
 20  9  1  0  0  0
  9 10  1  0  0  0
  9 13  1  0  0  0
 10 11  1  0  0  0
 11 14  1  0  0  0
 12 13  1  0  0  0
 12 14  1  0  0  0
 14  1  1  0  0  0
  1  2  2  0  0  0
  1  3  1  0  0  0
  3  4  1  0  0  0
  3  7  1  0  0  0
  4  5  1  0  0  0
  5  8  1  0  0  0
  6  7  1  0  0  0
  6  8  1  0  0  0
  8 21  1  0  0  0
 21 22  2  0  0  0
 21 23  2  0  0  0
 21 24  1  0  0  0
 24 25  2  0  0  0
 24 26  1  0  0  0
 25 28  1  0  0  0
 26 27  2  0  0  0
 27 29  1  0  0  0
 28 29  2  0  0  0
 28 32  1  0  0  0
 29 30  1  0  0  0
 30 33  2  0  0  0
 31 32  2  0  0  0
 31 33  1  0  0  0
 33 34  1  0  0  0
M  END
> <minimizedAffinity>
-7.41970

$$$$
1QL7_ZEN_A_999


 34 38  0  0  0  0  0  0  0  0999 V2000
   24.5775    7.4242   14.9081 C   0  0  0  0  0  0  0  0  0  0  0  0
   25.0814    6.3678   14.5174 O   0  0  0  0  0  0  0  0  0  0  0  0
   24.8637    7.9016   16.0971 N   0  0  0  0  0  0  0  0  0  0  0  0
   24.3034    9.1474   16.6543 C   0  0  0  0  0  0  0  0  0  0  0  0
   25.4642   10.0200   17.2053 C   0  0  0  0  0  0  0  0  0  0  0  0
   26.9137    8.0739   17.3856 C   0  0  0  0  0  0  0  0  0  0  0  0
   25.7691    7.1490   16.9676 C   0  0  0  0  0  0  0  0  0  0  0  0
   26.3296    9.2111   18.0911 N   0  0  0  0  0  0  0  0  0  0  0  0
   21.2799    7.4577   12.2971 N   0  0  0  0  0  0  0  0  0  0  0  0
   21.1161    8.4156   13.4003 C   0  0  0  0  0  0  0  0  0  0  0  0
   22.1860    8.1244   14.4811 C   0  0  0  0  0  0  0  0  0  0  0  0
   23.7097    7.2558   12.5827 C   0  0  0  0  0  0  0  0  0  0  0  0
   22.5707    7.6250   11.6133 C   0  0  0  0  0  0  0  0  0  0  0  0
   23.6536    8.0860   13.9072 C   0  0  0  0  0  0  0  0  0  0  0  0
   17.9250    6.2262   10.0998 N   0  0  0  0  0  0  0  0  0  0  0  0
   17.8753    7.4055   10.7736 C   0  0  0  0  0  0  0  0  0  0  0  0
   18.9846    7.8380   11.5214 C   0  0  0  0  0  0  0  0  0  0  0  0
   20.1650    5.8272   10.8379 C   0  0  0  0  0  0  0  0  0  0  0  0
   19.0295    5.4392   10.1133 C   0  0  0  0  0  0  0  0  0  0  0  0
   20.1434    7.0396   11.5501 C   0  0  0  0  0  0  0  0  0  0  0  0
   27.4867   10.1101   18.8125 S   0  0  0  0  0  0  0  0  0  0  0  0
   27.6463    9.6224   20.1701 O   0  0  0  0  0  0  0  0  0  0  0  0
   27.1072   11.4899   18.6491 O   0  0  0  0  0  0  0  0  0  0  0  0
   29.0134    9.8717   17.9767 C   0  0  0  0  0  0  0  0  0  0  0  0
   29.8076    8.7763   18.2882 C   0  0  0  0  0  0  0  0  0  0  0  0
   29.3960   10.7542   16.9576 C   0  0  0  0  0  0  0  0  0  0  0  0
   30.5889   10.5556   16.2691 C   0  0  0  0  0  0  0  0  0  0  0  0
   30.9994    8.5654   17.6057 C   0  0  0  0  0  0  0  0  0  0  0  0
   31.3948    9.4646   16.5902 C   0  0  0  0  0  0  0  0  0  0  0  0
   32.5797    9.2520   15.9060 C   0  0  0  0  0  0  0  0  0  0  0  0
   32.9929    7.2656   17.2339 C   0  0  0  0  0  0  0  0  0  0  0  0
   31.8044    7.4727   17.9230 C   0  0  0  0  0  0  0  0  0  0  0  0
   33.3759    8.1565   16.2286 C   0  0  0  0  0  0  0  0  0  0  0  0
   34.8365    7.8887   15.3592 Cl  0  0  0  0  0  0  0  0  0  0  0  0
 15 16  2  0  0  0
 15 19  1  0  0  0
 16 17  1  0  0  0
 17 20  2  0  0  0
 18 19  2  0  0  0
 18 20  1  0  0  0
 20  9  1  0  0  0
  9 10  1  0  0  0
  9 13  1  0  0  0
 10 11  1  0  0  0
 11 14  1  0  0  0
 12 13  1  0  0  0
 12 14  1  0  0  0
 14  1  1  0  0  0
  1  2  2  0  0  0
  1  3  1  0  0  0
  3  4  1  0  0  0
  3  7  1  0  0  0
  4  5  1  0  0  0
  5  8  1  0  0  0
  6  7  1  0  0  0
  6  8  1  0  0  0
  8 21  1  0  0  0
 21 22  2  0  0  0
 21 23  2  0  0  0
 21 24  1  0  0  0
 24 25  2  0  0  0
 24 26  1  0  0  0
 25 28  1  0  0  0
 26 27  2  0  0  0
 27 29  1  0  0  0
 28 29  2  0  0  0
 28 32  1  0  0  0
 29 30  1  0  0  0
 30 33  2  0  0  0
 31 32  2  0  0  0
 31 33  1  0  0  0
 33 34  1  0  0  0
M  END
> <minimizedAffinity>
-7.30429

$$$$
1QL7_ZEN_A_999


 34 38  0  0  0  0  0  0  0  0999 V2000
   25.6353    6.8388   14.3279 C   0  0  0  0  0  0  0  0  0  0  0  0
   25.8086    6.8566   13.1064 O   0  0  0  0  0  0  0  0  0  0  0  0
   26.6529    6.9557   15.1491 N   0  0  0  0  0  0  0  0  0  0  0  0
   26.5460    6.9343   16.6203 C   0  0  0  0  0  0  0  0  0  0  0  0
   27.3184    8.1510   17.1997 C   0  0  0  0  0  0  0  0  0  0  0  0
   28.6414    8.3479   15.1670 C   0  0  0  0  0  0  0  0  0  0  0  0
   28.0032    7.0800   14.5965 C   0  0  0  0  0  0  0  0  0  0  0  0
   28.6781    8.2104   16.6202 N   0  0  0  0  0  0  0  0  0  0  0  0
   22.6030    6.3170   17.1959 N   0  0  0  0  0  0  0  0  0  0  0  0
   22.4910    7.6115   16.5082 C   0  0  0  0  0  0  0  0  0  0  0  0
   23.7971    7.8760   15.7199 C   0  0  0  0  0  0  0  0  0  0  0  0
   24.0396    5.3144   15.4763 C   0  0  0  0  0  0  0  0  0  0  0  0
   22.7102    5.1997   16.2464 C   0  0  0  0  0  0  0  0  0  0  0  0
   24.1894    6.6937   14.7540 C   0  0  0  0  0  0  0  0  0  0  0  0
   20.6345    5.7230   20.8527 N   0  0  0  0  0  0  0  0  0  0  0  0
   20.8710    4.6522   20.0496 C   0  0  0  0  0  0  0  0  0  0  0  0
   21.5244    4.8257   18.8169 C   0  0  0  0  0  0  0  0  0  0  0  0
   21.6820    7.2031   19.2929 C   0  0  0  0  0  0  0  0  0  0  0  0
   21.0211    6.9764   20.5081 C   0  0  0  0  0  0  0  0  0  0  0  0
   21.9369    6.1167   18.4372 C   0  0  0  0  0  0  0  0  0  0  0  0
   29.5867    9.3868   17.2971 S   0  0  0  0  0  0  0  0  0  0  0  0
   30.9050    9.3332   16.6925 O   0  0  0  0  0  0  0  0  0  0  0  0
   29.5091    9.2066   18.7241 O   0  0  0  0  0  0  0  0  0  0  0  0
   28.8879   10.9528   16.9160 C   0  0  0  0  0  0  0  0  0  0  0  0
   29.3114   11.6420   15.7875 C   0  0  0  0  0  0  0  0  0  0  0  0
   27.8639   11.4737   17.7184 C   0  0  0  0  0  0  0  0  0  0  0  0
   27.2832   12.6992   17.4066 C   0  0  0  0  0  0  0  0  0  0  0  0
   28.7372   12.8650   15.4638 C   0  0  0  0  0  0  0  0  0  0  0  0
   27.7170   13.3996   16.2822 C   0  0  0  0  0  0  0  0  0  0  0  0
   27.1405   14.6158   15.9571 C   0  0  0  0  0  0  0  0  0  0  0  0
   28.5859   14.7852   14.0175 C   0  0  0  0  0  0  0  0  0  0  0  0
   29.1673   13.5647   14.3376 C   0  0  0  0  0  0  0  0  0  0  0  0
   27.5754   15.3061   14.8290 C   0  0  0  0  0  0  0  0  0  0  0  0
   26.8391   16.8070   14.4213 Cl  0  0  0  0  0  0  0  0  0  0  0  0
 15 16  2  0  0  0
 15 19  1  0  0  0
 16 17  1  0  0  0
 17 20  2  0  0  0
 18 19  2  0  0  0
 18 20  1  0  0  0
 20  9  1  0  0  0
  9 10  1  0  0  0
  9 13  1  0  0  0
 10 11  1  0  0  0
 11 14  1  0  0  0
 12 13  1  0  0  0
 12 14  1  0  0  0
 14  1  1  0  0  0
  1  2  2  0  0  0
  1  3  1  0  0  0
  3  4  1  0  0  0
  3  7  1  0  0  0
  4  5  1  0  0  0
  5  8  1  0  0  0
  6  7  1  0  0  0
  6  8  1  0  0  0
  8 21  1  0  0  0
 21 22  2  0  0  0
 21 23  2  0  0  0
 21 24  1  0  0  0
 24 25  2  0  0  0
 24 26  1  0  0  0
 25 28  1  0  0  0
 26 27  2  0  0  0
 27 29  1  0  0  0
 28 29  2  0  0  0
 28 32  1  0  0  0
 29 30  1  0  0  0
 30 33  2  0  0  0
 31 32  2  0  0  0
 31 33  1  0  0  0
 33 34  1  0  0  0
M  END
> <minimizedAffinity>
-7.25937

$$$$
