4CU7_GIF_A_1985


 14 14  0  0  0  0  0  0  0  0999 V2000
   97.7386   13.1484    8.2223 C   0  0  0  0  0  0  0  0  0  0  0  0
   98.0906   11.7383    8.4063 N   0  0  0  0  0  0  0  0  0  0  0  0
   97.3262   13.3894    6.7646 C   0  0  0  0  0  0  0  0  0  0  0  0
   99.6326   13.4679    5.8588 O   0  0  0  0  0  0  0  0  0  0  0  0
   98.3520   12.7953    5.7633 C   0  0  0  0  0  0  0  0  0  0  0  0
   97.1450   14.7941    6.5456 O   0  0  0  0  0  0  0  0  0  0  0  0
   98.5030   11.3044    6.0030 C   0  0  0  0  0  0  0  0  0  0  0  0
   99.0009   11.1097    7.4417 C   0  0  0  0  0  0  0  0  0  0  0  0
   97.2204   11.2065    8.3892 H   0  0  0  0  0  0  0  0  0  0  0  0
   99.5115   14.4175    5.7024 H   0  0  0  0  0  0  0  0  0  0  0  0
   97.9827   15.2567    6.7037 H   0  0  0  0  0  0  0  0  0  0  0  0
   99.0165    9.2895    4.6155 O   0  0  0  0  0  0  0  0  0  0  0  0
   99.4263   10.6397    4.9690 C   0  0  0  0  0  0  0  0  0  0  0  0
   99.6344    8.9245    3.9629 H   0  0  0  0  0  0  0  0  0  0  0  0
  1  2  1  0  0  0
  1  3  1  0  0  0
  2  8  1  0  0  0
 12 13  1  0  0  0
  3  5  1  0  0  0
  3  6  1  0  0  0
  4  5  1  0  0  0
  5  7  1  0  0  0
  7  8  1  0  0  0
  7 13  1  0  0  0
  2  9  1  0  0  0
 12 14  1  0  0  0
  4 10  1  0  0  0
  6 11  1  0  0  0
M  END
> <minimizedAffinity>
-6.30628

$$$$
4CU7_GIF_A_1985


 14 14  0  0  0  0  0  0  0  0999 V2000
  100.6513   11.1784    5.5074 C   0  0  0  0  0  0  0  0  0  0  0  0
  100.7077   12.5416    6.0411 N   0  0  0  0  0  0  0  0  0  0  0  0
   99.2591   10.9133    4.9205 C   0  0  0  0  0  0  0  0  0  0  0  0
   98.1423   10.5004    7.0950 O   0  0  0  0  0  0  0  0  0  0  0  0
   98.1268   11.3210    5.9001 C   0  0  0  0  0  0  0  0  0  0  0  0
   99.1510    9.5324    4.5525 O   0  0  0  0  0  0  0  0  0  0  0  0
   98.2526   12.7922    6.2506 C   0  0  0  0  0  0  0  0  0  0  0  0
   99.6208   12.9998    6.9144 C   0  0  0  0  0  0  0  0  0  0  0  0
  100.7397   13.1758    5.2429 H   0  0  0  0  0  0  0  0  0  0  0  0
   98.0607    9.5663    6.8468 H   0  0  0  0  0  0  0  0  0  0  0  0
   99.2576    8.9783    5.3415 H   0  0  0  0  0  0  0  0  0  0  0  0
   97.3406   13.1069    8.5566 O   0  0  0  0  0  0  0  0  0  0  0  0
   97.0931   13.2809    7.1339 C   0  0  0  0  0  0  0  0  0  0  0  0
   96.5776   13.4319    9.0597 H   0  0  0  0  0  0  0  0  0  0  0  0
  1  2  1  0  0  0
  1  3  1  0  0  0
  2  8  1  0  0  0
 12 13  1  0  0  0
  3  5  1  0  0  0
  3  6  1  0  0  0
  4  5  1  0  0  0
  5  7  1  0  0  0
  7  8  1  0  0  0
  7 13  1  0  0  0
  2  9  1  0  0  0
 12 14  1  0  0  0
  4 10  1  0  0  0
  6 11  1  0  0  0
M  END
> <minimizedAffinity>
-5.91396

$$$$
4CU7_GIF_A_1985


 14 14  0  0  0  0  0  0  0  0999 V2000
   99.9576   11.0461    5.1464 C   0  0  0  0  0  0  0  0  0  0  0  0
   98.6419   11.5712    4.7733 N   0  0  0  0  0  0  0  0  0  0  0  0
   99.9856   10.7514    6.6516 C   0  0  0  0  0  0  0  0  0  0  0  0
  100.3160   13.1030    7.3637 O   0  0  0  0  0  0  0  0  0  0  0  0
   99.4534   11.9447    7.4887 C   0  0  0  0  0  0  0  0  0  0  0  0
  101.3180   10.3988    7.0445 O   0  0  0  0  0  0  0  0  0  0  0  0
   98.0338   12.2775    7.0680 C   0  0  0  0  0  0  0  0  0  0  0  0
   98.0621   12.6518    5.5798 C   0  0  0  0  0  0  0  0  0  0  0  0
   97.9870   10.7897    4.8024 H   0  0  0  0  0  0  0  0  0  0  0  0
  101.2161   12.8668    7.6375 H   0  0  0  0  0  0  0  0  0  0  0  0
  101.9143   11.1438    6.8706 H   0  0  0  0  0  0  0  0  0  0  0  0
   97.2344   12.9895    9.3269 O   0  0  0  0  0  0  0  0  0  0  0  0
   97.4134   13.3828    7.9380 C   0  0  0  0  0  0  0  0  0  0  0  0
   96.8412   13.7245    9.8230 H   0  0  0  0  0  0  0  0  0  0  0  0
  1  2  1  0  0  0
  1  3  1  0  0  0
  2  8  1  0  0  0
 12 13  1  0  0  0
  3  5  1  0  0  0
  3  6  1  0  0  0
  4  5  1  0  0  0
  5  7  1  0  0  0
  7  8  1  0  0  0
  7 13  1  0  0  0
  2  9  1  0  0  0
 12 14  1  0  0  0
  4 10  1  0  0  0
  6 11  1  0  0  0
M  END
> <minimizedAffinity>
-5.62613

$$$$
4CU7_GIF_A_1985


 14 14  0  0  0  0  0  0  0  0999 V2000
   97.7358   12.4997    5.4396 C   0  0  0  0  0  0  0  0  0  0  0  0
   98.6390   11.5405    4.7989 N   0  0  0  0  0  0  0  0  0  0  0  0
   98.4920   13.2679    6.5309 C   0  0  0  0  0  0  0  0  0  0  0  0
   98.3788   11.4680    8.2320 O   0  0  0  0  0  0  0  0  0  0  0  0
   99.2762   12.3182    7.4748 C   0  0  0  0  0  0  0  0  0  0  0  0
   97.5708   14.0824    7.2671 O   0  0  0  0  0  0  0  0  0  0  0  0
  100.2601   11.4885    6.6707 C   0  0  0  0  0  0  0  0  0  0  0  0
   99.4576   10.6694    5.6506 C   0  0  0  0  0  0  0  0  0  0  0  0
   99.2794   12.0758    4.2127 H   0  0  0  0  0  0  0  0  0  0  0  0
   97.7605   12.0191    8.7369 H   0  0  0  0  0  0  0  0  0  0  0  0
   96.9109   13.5162    7.6972 H   0  0  0  0  0  0  0  0  0  0  0  0
  100.3875    9.6347    8.3428 O   0  0  0  0  0  0  0  0  0  0  0  0
  101.1436   10.6047    7.5661 C   0  0  0  0  0  0  0  0  0  0  0  0
  100.9965    9.1093    8.8851 H   0  0  0  0  0  0  0  0  0  0  0  0
  1  2  1  0  0  0
  1  3  1  0  0  0
  2  8  1  0  0  0
 12 13  1  0  0  0
  3  5  1  0  0  0
  3  6  1  0  0  0
  4  5  1  0  0  0
  5  7  1  0  0  0
  7  8  1  0  0  0
  7 13  1  0  0  0
  2  9  1  0  0  0
 12 14  1  0  0  0
  4 10  1  0  0  0
  6 11  1  0  0  0
M  END
> <minimizedAffinity>
-5.60439

$$$$
4CU7_GIF_A_1985


 14 14  0  0  0  0  0  0  0  0999 V2000
  101.6873   10.5095    7.8283 C   0  0  0  0  0  0  0  0  0  0  0  0
  100.3314   10.0982    8.2007 N   0  0  0  0  0  0  0  0  0  0  0  0
  101.7059   12.0153    7.5366 C   0  0  0  0  0  0  0  0  0  0  0  0
  100.7386   11.8441    5.2604 O   0  0  0  0  0  0  0  0  0  0  0  0
  100.5652   12.4359    6.5723 C   0  0  0  0  0  0  0  0  0  0  0  0
  102.9875   12.3844    7.0122 O   0  0  0  0  0  0  0  0  0  0  0  0
   99.2213   12.0554    7.1658 C   0  0  0  0  0  0  0  0  0  0  0  0
   99.2095   10.5331    7.3601 C   0  0  0  0  0  0  0  0  0  0  0  0
  100.1574   10.4524    9.1412 H   0  0  0  0  0  0  0  0  0  0  0  0
  101.6025   12.1005    4.9017 H   0  0  0  0  0  0  0  0  0  0  0  0
  103.1441   11.9126    6.1793 H   0  0  0  0  0  0  0  0  0  0  0  0
   98.3168   13.7994    5.6201 O   0  0  0  0  0  0  0  0  0  0  0  0
   98.0456   12.5448    6.3045 C   0  0  0  0  0  0  0  0  0  0  0  0
   97.5422   14.0555    5.0955 H   0  0  0  0  0  0  0  0  0  0  0  0
  1  2  1  0  0  0
  1  3  1  0  0  0
  2  8  1  0  0  0
 12 13  1  0  0  0
  3  5  1  0  0  0
  3  6  1  0  0  0
  4  5  1  0  0  0
  5  7  1  0  0  0
  7  8  1  0  0  0
  7 13  1  0  0  0
  2  9  1  0  0  0
 12 14  1  0  0  0
  4 10  1  0  0  0
  6 11  1  0  0  0
M  END
> <minimizedAffinity>
-5.36724

$$$$
4CU7_GIF_A_1985


 14 14  0  0  0  0  0  0  0  0999 V2000
  101.8313   11.3664    8.2781 C   0  0  0  0  0  0  0  0  0  0  0  0
  101.8843   12.1206    7.0233 N   0  0  0  0  0  0  0  0  0  0  0  0
  101.0564   10.0605    8.0607 C   0  0  0  0  0  0  0  0  0  0  0  0
   98.8012   11.0857    8.1558 O   0  0  0  0  0  0  0  0  0  0  0  0
   99.7038   10.2992    7.3385 C   0  0  0  0  0  0  0  0  0  0  0  0
  100.8605    9.4061    9.3205 O   0  0  0  0  0  0  0  0  0  0  0  0
   99.9456   10.9692    5.9985 C   0  0  0  0  0  0  0  0  0  0  0  0
  100.6422   12.3107    6.2648 C   0  0  0  0  0  0  0  0  0  0  0  0
  102.5404   11.6376    6.4096 H   0  0  0  0  0  0  0  0  0  0  0  0
   98.6618   10.6389    9.0054 H   0  0  0  0  0  0  0  0  0  0  0  0
  100.3351    9.9766    9.9030 H   0  0  0  0  0  0  0  0  0  0  0  0
   97.5929   10.2235    5.6023 O   0  0  0  0  0  0  0  0  0  0  0  0
   98.6496   11.1332    5.1880 C   0  0  0  0  0  0  0  0  0  0  0  0
   96.8047   10.3739    5.0572 H   0  0  0  0  0  0  0  0  0  0  0  0
  1  2  1  0  0  0
  1  3  1  0  0  0
  2  8  1  0  0  0
 12 13  1  0  0  0
  3  5  1  0  0  0
  3  6  1  0  0  0
  4  5  1  0  0  0
  5  7  1  0  0  0
  7  8  1  0  0  0
  7 13  1  0  0  0
  2  9  1  0  0  0
 12 14  1  0  0  0
  4 10  1  0  0  0
  6 11  1  0  0  0
M  END
> <minimizedAffinity>
-5.31163

$$$$
4CU7_GIF_A_1985


 14 14  0  0  0  0  0  0  0  0999 V2000
   99.1980   10.3622    7.5643 C   0  0  0  0  0  0  0  0  0  0  0  0
  100.6179   10.0149    7.6615 N   0  0  0  0  0  0  0  0  0  0  0  0
   98.9853   11.3344    6.3970 C   0  0  0  0  0  0  0  0  0  0  0  0
   99.7727   13.3527    7.6022 O   0  0  0  0  0  0  0  0  0  0  0  0
   99.9869   12.5190    6.4358 C   0  0  0  0  0  0  0  0  0  0  0  0
   97.6309   11.8030    6.4065 O   0  0  0  0  0  0  0  0  0  0  0  0
  101.4098   11.9929    6.3988 C   0  0  0  0  0  0  0  0  0  0  0  0
  101.6096   11.0965    7.6284 C   0  0  0  0  0  0  0  0  0  0  0  0
  100.8286    9.3899    6.8835 H   0  0  0  0  0  0  0  0  0  0  0  0
   98.8585   13.6768    7.6045 H   0  0  0  0  0  0  0  0  0  0  0  0
   97.4597   12.2804    7.2333 H   0  0  0  0  0  0  0  0  0  0  0  0
  101.9489   14.3194    5.6601 O   0  0  0  0  0  0  0  0  0  0  0  0
  102.4469   13.1255    6.3253 C   0  0  0  0  0  0  0  0  0  0  0  0
  102.6447   14.9950    5.6447 H   0  0  0  0  0  0  0  0  0  0  0  0
  1  2  1  0  0  0
  1  3  1  0  0  0
  2  8  1  0  0  0
 12 13  1  0  0  0
  3  5  1  0  0  0
  3  6  1  0  0  0
  4  5  1  0  0  0
  5  7  1  0  0  0
  7  8  1  0  0  0
  7 13  1  0  0  0
  2  9  1  0  0  0
 12 14  1  0  0  0
  4 10  1  0  0  0
  6 11  1  0  0  0
M  END
> <minimizedAffinity>
-5.23823

$$$$
4CU7_GIF_A_1985


 14 14  0  0  0  0  0  0  0  0999 V2000
  101.6573   12.7684    7.7609 C   0  0  0  0  0  0  0  0  0  0  0  0
  100.3835   13.4541    7.5296 N   0  0  0  0  0  0  0  0  0  0  0  0
  101.8956   11.7379    6.6499 C   0  0  0  0  0  0  0  0  0  0  0  0
  100.3779   10.0107    7.5771 O   0  0  0  0  0  0  0  0  0  0  0  0
  100.6552   10.8349    6.4173 C   0  0  0  0  0  0  0  0  0  0  0  0
  103.0529   10.9539    6.9660 O   0  0  0  0  0  0  0  0  0  0  0  0
   99.4539   11.6905    6.0599 C   0  0  0  0  0  0  0  0  0  0  0  0
   99.1946   12.6464    7.2323 C   0  0  0  0  0  0  0  0  0  0  0  0
  100.5216   14.0871    6.7418 H   0  0  0  0  0  0  0  0  0  0  0  0
  101.1582    9.4738    7.7863 H   0  0  0  0  0  0  0  0  0  0  0  0
  102.9022   10.4750    7.7960 H   0  0  0  0  0  0  0  0  0  0  0  0
   98.5237    9.4332    5.5232 O   0  0  0  0  0  0  0  0  0  0  0  0
   98.2194   10.8431    5.7113 C   0  0  0  0  0  0  0  0  0  0  0  0
   97.7094    8.9528    5.3066 H   0  0  0  0  0  0  0  0  0  0  0  0
  1  2  1  0  0  0
  1  3  1  0  0  0
  2  8  1  0  0  0
 12 13  1  0  0  0
  3  5  1  0  0  0
  3  6  1  0  0  0
  4  5  1  0  0  0
  5  7  1  0  0  0
  7  8  1  0  0  0
  7 13  1  0  0  0
  2  9  1  0  0  0
 12 14  1  0  0  0
  4 10  1  0  0  0
  6 11  1  0  0  0
M  END
> <minimizedAffinity>
-5.09410

$$$$
4CU7_GIF_A_1985


 14 14  0  0  0  0  0  0  0  0999 V2000
   98.5300   13.4506    6.0678 C   0  0  0  0  0  0  0  0  0  0  0  0
   99.9816   13.3714    5.8866 N   0  0  0  0  0  0  0  0  0  0  0  0
   98.1477   12.8472    7.4253 C   0  0  0  0  0  0  0  0  0  0  0  0
   98.2965   10.4808    6.7013 O   0  0  0  0  0  0  0  0  0  0  0  0
   98.7987   11.4564    7.6486 C   0  0  0  0  0  0  0  0  0  0  0  0
   96.7204   12.7718    7.5296 O   0  0  0  0  0  0  0  0  0  0  0  0
  100.3091   11.5731    7.5578 C   0  0  0  0  0  0  0  0  0  0  0  0
  100.6548   12.0955    6.1567 C   0  0  0  0  0  0  0  0  0  0  0  0
  100.3999   14.0684    6.5026 H   0  0  0  0  0  0  0  0  0  0  0  0
   97.3312   10.4235    6.7773 H   0  0  0  0  0  0  0  0  0  0  0  0
   96.3755   12.1920    6.8325 H   0  0  0  0  0  0  0  0  0  0  0  0
  100.2100    9.3471    8.6909 O   0  0  0  0  0  0  0  0  0  0  0  0
  101.0153   10.2457    7.8785 C   0  0  0  0  0  0  0  0  0  0  0  0
  100.7065    8.5310    8.8592 H   0  0  0  0  0  0  0  0  0  0  0  0
  1  2  1  0  0  0
  1  3  1  0  0  0
  2  8  1  0  0  0
 12 13  1  0  0  0
  3  5  1  0  0  0
  3  6  1  0  0  0
  4  5  1  0  0  0
  5  7  1  0  0  0
  7  8  1  0  0  0
  7 13  1  0  0  0
  2  9  1  0  0  0
 12 14  1  0  0  0
  4 10  1  0  0  0
  6 11  1  0  0  0
M  END
> <minimizedAffinity>
-5.04739

$$$$
4CU7_GIF_A_1985


 14 14  0  0  0  0  0  0  0  0999 V2000
   98.2395   12.4633    6.7114 C   0  0  0  0  0  0  0  0  0  0  0  0
   99.2647   13.1482    7.5026 N   0  0  0  0  0  0  0  0  0  0  0  0
   98.6134   10.9838    6.5556 C   0  0  0  0  0  0  0  0  0  0  0  0
  100.2867   11.3335    4.7601 O   0  0  0  0  0  0  0  0  0  0  0  0
  100.0830   10.8002    6.0926 C   0  0  0  0  0  0  0  0  0  0  0  0
   97.7029   10.3544    5.6453 O   0  0  0  0  0  0  0  0  0  0  0  0
  101.0232   11.4541    7.0883 C   0  0  0  0  0  0  0  0  0  0  0  0
  100.6751   12.9476    7.1496 C   0  0  0  0  0  0  0  0  0  0  0  0
   99.1507   12.8447    8.4697 H   0  0  0  0  0  0  0  0  0  0  0  0
   99.6763   10.9017    4.1422 H   0  0  0  0  0  0  0  0  0  0  0  0
   97.7715   10.7773    4.7751 H   0  0  0  0  0  0  0  0  0  0  0  0
  102.9531   11.9758    5.5876 O   0  0  0  0  0  0  0  0  0  0  0  0
  102.5006   11.2111    6.7392 C   0  0  0  0  0  0  0  0  0  0  0  0
  103.8880   11.7813    5.4174 H   0  0  0  0  0  0  0  0  0  0  0  0
  1  2  1  0  0  0
  1  3  1  0  0  0
  2  8  1  0  0  0
 12 13  1  0  0  0
  3  5  1  0  0  0
  3  6  1  0  0  0
  4  5  1  0  0  0
  5  7  1  0  0  0
  7  8  1  0  0  0
  7 13  1  0  0  0
  2  9  1  0  0  0
 12 14  1  0  0  0
  4 10  1  0  0  0
  6 11  1  0  0  0
M  END
> <minimizedAffinity>
-4.98347

$$$$
