4CWQ_W2D_A_1224


 32 36  0  0  0  0  0  0  0  0999 V2000
    2.0220   10.2156   24.4723 C   0  0  0  0  0  0  0  0  0  0  0  0
    2.5112    9.4832   25.4882 N   0  0  0  0  0  0  0  0  0  0  0  0
    1.6956    9.0329   26.4856 C   0  0  0  0  0  0  0  0  0  0  0  0
    2.2136    8.2745   27.5335 C   0  0  0  0  0  0  0  0  0  0  0  0
    1.3916    7.7971   28.5500 C   0  0  0  0  0  0  0  0  0  0  0  0
    0.0341    8.0780   28.5243 C   0  0  0  0  0  0  0  0  0  0  0  0
   -0.4985    8.8384   27.4812 C   0  0  0  0  0  0  0  0  0  0  0  0
    0.3284    9.3279   26.4548 C   0  0  0  0  0  0  0  0  0  0  0  0
   -0.1541   10.0585   25.4304 C   0  0  0  0  0  0  0  0  0  0  0  0
   -1.3862   10.4944   25.1241 N   0  0  0  0  0  0  0  0  0  0  0  0
    0.6975   10.4938   24.4773 N   0  0  0  0  0  0  0  0  0  0  0  0
    0.0361   11.1804   23.6144 N   0  0  0  0  0  0  0  0  0  0  0  0
   -1.2541   11.1685   23.9867 C   0  0  0  0  0  0  0  0  0  0  0  0
   -2.2517   11.7702   23.3160 N   0  0  0  0  0  0  0  0  0  0  0  0
   -3.1748   11.7161   23.6539 H   0  0  0  0  0  0  0  0  0  0  0  0
   -2.0592   12.2648   22.4868 H   0  0  0  0  0  0  0  0  0  0  0  0
    2.0228    6.8294   29.8783 S   0  0  0  0  0  0  0  0  0  0  0  0
    3.5260    6.9013   29.9128 O   0  0  0  0  0  0  0  0  0  0  0  0
    1.6043    5.3797   29.6692 O   0  0  0  0  0  0  0  0  0  0  0  0
    1.2721    7.3549   31.3682 N   0  0  0  0  0  0  0  0  0  0  0  0
    1.5245    8.3259   31.5520 H   0  0  0  0  0  0  0  0  0  0  0  0
    1.5954    6.7681   32.1373 H   0  0  0  0  0  0  0  0  0  0  0  0
    2.9092   10.6750   23.4633 C   0  0  0  0  0  0  0  0  0  0  0  0
    3.2231   12.9206   24.3363 C   0  0  0  0  0  0  0  0  0  0  0  0
    4.0079   13.9252   24.7791 C   0  0  0  0  0  0  0  0  0  0  0  0
    3.6144   15.1571   25.2253 O   0  0  0  0  0  0  0  0  0  0  0  0
    4.8505   15.8914   25.5075 C   0  0  0  0  0  0  0  0  0  0  0  0
    5.9105   14.9573   25.3066 O   0  0  0  0  0  0  0  0  0  0  0  0
    5.3362   13.7969   24.8283 C   0  0  0  0  0  0  0  0  0  0  0  0
    5.9322   12.6450   24.4310 C   0  0  0  0  0  0  0  0  0  0  0  0
    5.1697   11.5522   23.9702 C   0  0  0  0  0  0  0  0  0  0  0  0
    3.7718   11.7073   23.9230 C   0  0  0  0  0  0  0  0  0  0  0  0
 24 25  1  0  0  0
 24 32  2  0  0  0
 25 26  1  0  0  0
 25 29  2  0  0  0
 26 27  1  0  0  0
 27 28  1  0  0  0
 28 29  1  0  0  0
 29 30  1  0  0  0
 30 31  2  0  0  0
 31 32  1  0  0  0
 32 23  1  0  0  0
 23  1  1  0  0  0
  1  2  2  0  0  0
  1 11  1  0  0  0
  2  3  1  0  0  0
  3  4  1  0  0  0
  3  8  2  0  0  0
  4  5  2  0  0  0
  5 17  1  0  0  0
  5  6  1  0  0  0
 17 18  2  0  0  0
 17 19  2  0  0  0
 17 20  1  0  0  0
  6  7  2  0  0  0
  7  8  1  0  0  0
  8  9  1  0  0  0
  9 10  2  0  0  0
  9 11  1  0  0  0
 10 13  1  0  0  0
 11 12  1  0  0  0
 12 13  2  0  0  0
 13 14  1  0  0  0
 20 21  1  0  0  0
 20 22  1  0  0  0
 14 15  1  0  0  0
 14 16  1  0  0  0
M  END
> <minimizedAffinity>
-11.07494

$$$$
4CWQ_W2D_A_1224


 32 36  0  0  0  0  0  0  0  0999 V2000
    2.0871   10.3231   24.4931 C   0  0  0  0  0  0  0  0  0  0  0  0
    2.5728    9.5845   25.5062 N   0  0  0  0  0  0  0  0  0  0  0  0
    1.7471    9.0925   26.4752 C   0  0  0  0  0  0  0  0  0  0  0  0
    2.2615    8.3279   27.5204 C   0  0  0  0  0  0  0  0  0  0  0  0
    1.4297    7.8084   28.5078 C   0  0  0  0  0  0  0  0  0  0  0  0
    0.0658    8.0527   28.4553 C   0  0  0  0  0  0  0  0  0  0  0  0
   -0.4633    8.8188   27.4147 C   0  0  0  0  0  0  0  0  0  0  0  0
    0.3733    9.3508   26.4176 C   0  0  0  0  0  0  0  0  0  0  0  0
   -0.1053   10.0881   25.3962 C   0  0  0  0  0  0  0  0  0  0  0  0
   -1.3417   10.4962   25.0693 N   0  0  0  0  0  0  0  0  0  0  0  0
    0.7557   10.5650   24.4721 N   0  0  0  0  0  0  0  0  0  0  0  0
    0.0957   11.2503   23.6070 N   0  0  0  0  0  0  0  0  0  0  0  0
   -1.2019   11.1960   23.9485 C   0  0  0  0  0  0  0  0  0  0  0  0
   -2.2000   11.7834   23.2659 N   0  0  0  0  0  0  0  0  0  0  0  0
   -3.1289   11.6976   23.5807 H   0  0  0  0  0  0  0  0  0  0  0  0
   -2.0022   12.2994   22.4511 H   0  0  0  0  0  0  0  0  0  0  0  0
    2.0565    6.8321   29.8320 S   0  0  0  0  0  0  0  0  0  0  0  0
    3.5589    6.9127   29.8786 O   0  0  0  0  0  0  0  0  0  0  0  0
    1.6483    5.3820   29.6063 O   0  0  0  0  0  0  0  0  0  0  0  0
    1.2913    7.3394   31.3208 N   0  0  0  0  0  0  0  0  0  0  0  0
    1.5365    8.3102   31.5155 H   0  0  0  0  0  0  0  0  0  0  0  0
    1.6123    6.7474   32.0869 H   0  0  0  0  0  0  0  0  0  0  0  0
    2.9844   10.8263   23.5144 C   0  0  0  0  0  0  0  0  0  0  0  0
    5.1188   11.8596   24.0439 C   0  0  0  0  0  0  0  0  0  0  0  0
    5.8609   12.8992   24.4794 C   0  0  0  0  0  0  0  0  0  0  0  0
    7.2233   12.9656   24.5852 O   0  0  0  0  0  0  0  0  0  0  0  0
    7.5125   14.2718   25.1827 C   0  0  0  0  0  0  0  0  0  0  0  0
    6.2559   14.9413   25.2776 O   0  0  0  0  0  0  0  0  0  0  0  0
    5.2911   14.0412   24.8721 C   0  0  0  0  0  0  0  0  0  0  0  0
    3.9426   14.1841   24.8424 C   0  0  0  0  0  0  0  0  0  0  0  0
    3.1100   13.1417   24.3861 C   0  0  0  0  0  0  0  0  0  0  0  0
    3.7286   11.9450   23.9792 C   0  0  0  0  0  0  0  0  0  0  0  0
 24 25  1  0  0  0
 24 32  2  0  0  0
 25 26  1  0  0  0
 25 29  2  0  0  0
 26 27  1  0  0  0
 27 28  1  0  0  0
 28 29  1  0  0  0
 29 30  1  0  0  0
 30 31  2  0  0  0
 31 32  1  0  0  0
 32 23  1  0  0  0
 23  1  1  0  0  0
  1  2  2  0  0  0
  1 11  1  0  0  0
  2  3  1  0  0  0
  3  4  1  0  0  0
  3  8  2  0  0  0
  4  5  2  0  0  0
  5 17  1  0  0  0
  5  6  1  0  0  0
 17 18  2  0  0  0
 17 19  2  0  0  0
 17 20  1  0  0  0
  6  7  2  0  0  0
  7  8  1  0  0  0
  8  9  1  0  0  0
  9 10  2  0  0  0
  9 11  1  0  0  0
 10 13  1  0  0  0
 11 12  1  0  0  0
 12 13  2  0  0  0
 13 14  1  0  0  0
 20 21  1  0  0  0
 20 22  1  0  0  0
 14 15  1  0  0  0
 14 16  1  0  0  0
M  END
> <minimizedAffinity>
-10.82921

$$$$
4CWQ_W2D_A_1224


 32 36  0  0  0  0  0  0  0  0999 V2000
    3.0813   11.2126   23.4750 C   0  0  0  0  0  0  0  0  0  0  0  0
    3.7199   12.1276   24.2253 N   0  0  0  0  0  0  0  0  0  0  0  0
    5.0742   12.0807   24.3882 C   0  0  0  0  0  0  0  0  0  0  0  0
    5.7255   13.0344   25.1678 C   0  0  0  0  0  0  0  0  0  0  0  0
    7.1073   13.0069   25.3316 C   0  0  0  0  0  0  0  0  0  0  0  0
    7.8528   12.0163   24.7109 C   0  0  0  0  0  0  0  0  0  0  0  0
    7.2132   11.0529   23.9281 C   0  0  0  0  0  0  0  0  0  0  0  0
    5.8169   11.0727   23.7639 C   0  0  0  0  0  0  0  0  0  0  0  0
    5.1692   10.1626   23.0101 C   0  0  0  0  0  0  0  0  0  0  0  0
    5.5894    9.1037   22.3001 N   0  0  0  0  0  0  0  0  0  0  0  0
    3.8265   10.2437   22.8940 N   0  0  0  0  0  0  0  0  0  0  0  0
    3.4165    9.2759   22.1531 N   0  0  0  0  0  0  0  0  0  0  0  0
    4.4949    8.5793   21.7593 C   0  0  0  0  0  0  0  0  0  0  0  0
    4.4607    7.5011   20.9571 N   0  0  0  0  0  0  0  0  0  0  0  0
    5.2971    7.0429   20.7124 H   0  0  0  0  0  0  0  0  0  0  0  0
    3.5994    7.1697   20.6143 H   0  0  0  0  0  0  0  0  0  0  0  0
    7.9518   14.2070   26.3042 S   0  0  0  0  0  0  0  0  0  0  0  0
    6.9663   15.0764   27.0382 O   0  0  0  0  0  0  0  0  0  0  0  0
    8.7889   15.0833   25.3812 O   0  0  0  0  0  0  0  0  0  0  0  0
    9.0740   13.3870   27.3661 N   0  0  0  0  0  0  0  0  0  0  0  0
    8.5574   12.7845   28.0068 H   0  0  0  0  0  0  0  0  0  0  0  0
    9.6029   14.0767   27.8999 H   0  0  0  0  0  0  0  0  0  0  0  0
    1.6696   11.2916   23.3441 C   0  0  0  0  0  0  0  0  0  0  0  0
    1.4934    9.6945   25.1667 C   0  0  0  0  0  0  0  0  0  0  0  0
    0.8742    9.2013   26.2596 C   0  0  0  0  0  0  0  0  0  0  0  0
    1.2579    8.1353   27.0264 O   0  0  0  0  0  0  0  0  0  0  0  0
    0.2059    7.9702   28.0328 C   0  0  0  0  0  0  0  0  0  0  0  0
   -0.6886    9.0655   27.8416 O   0  0  0  0  0  0  0  0  0  0  0  0
   -0.2491    9.7514   26.7273 C   0  0  0  0  0  0  0  0  0  0  0  0
   -0.7984   10.8270   26.1097 C   0  0  0  0  0  0  0  0  0  0  0  0
   -0.1951   11.3993   24.9711 C   0  0  0  0  0  0  0  0  0  0  0  0
    0.9864   10.8041   24.4916 C   0  0  0  0  0  0  0  0  0  0  0  0
 24 25  1  0  0  0
 24 32  2  0  0  0
 25 26  1  0  0  0
 25 29  2  0  0  0
 26 27  1  0  0  0
 27 28  1  0  0  0
 28 29  1  0  0  0
 29 30  1  0  0  0
 30 31  2  0  0  0
 31 32  1  0  0  0
 32 23  1  0  0  0
 23  1  1  0  0  0
  1  2  2  0  0  0
  1 11  1  0  0  0
  2  3  1  0  0  0
  3  4  1  0  0  0
  3  8  2  0  0  0
  4  5  2  0  0  0
  5 17  1  0  0  0
  5  6  1  0  0  0
 17 18  2  0  0  0
 17 19  2  0  0  0
 17 20  1  0  0  0
  6  7  2  0  0  0
  7  8  1  0  0  0
  8  9  1  0  0  0
  9 10  2  0  0  0
  9 11  1  0  0  0
 10 13  1  0  0  0
 11 12  1  0  0  0
 12 13  2  0  0  0
 13 14  1  0  0  0
 20 21  1  0  0  0
 20 22  1  0  0  0
 14 15  1  0  0  0
 14 16  1  0  0  0
M  END
> <minimizedAffinity>
-10.73142

$$$$
4CWQ_W2D_A_1224


 32 36  0  0  0  0  0  0  0  0999 V2000
    3.1197   10.3205   23.5405 C   0  0  0  0  0  0  0  0  0  0  0  0
    4.3647   10.7042   23.8732 N   0  0  0  0  0  0  0  0  0  0  0  0
    4.6211   11.9825   24.2769 C   0  0  0  0  0  0  0  0  0  0  0  0
    5.9153   12.3689   24.6194 C   0  0  0  0  0  0  0  0  0  0  0  0
    6.1891   13.6651   25.0458 C   0  0  0  0  0  0  0  0  0  0  0  0
    5.1608   14.5911   25.1329 C   0  0  0  0  0  0  0  0  0  0  0  0
    3.8593   14.2182   24.7911 C   0  0  0  0  0  0  0  0  0  0  0  0
    3.5780   12.9116   24.3543 C   0  0  0  0  0  0  0  0  0  0  0  0
    2.3327   12.5171   24.0235 C   0  0  0  0  0  0  0  0  0  0  0  0
    1.1524   13.1560   23.9970 N   0  0  0  0  0  0  0  0  0  0  0  0
    2.1347   11.2456   23.6148 N   0  0  0  0  0  0  0  0  0  0  0  0
    0.8893   11.0910   23.3341 N   0  0  0  0  0  0  0  0  0  0  0  0
    0.2669   12.2533   23.5886 C   0  0  0  0  0  0  0  0  0  0  0  0
   -1.0504   12.4691   23.4295 N   0  0  0  0  0  0  0  0  0  0  0  0
   -1.4334   13.3517   23.6382 H   0  0  0  0  0  0  0  0  0  0  0  0
   -1.6321   11.7444   23.1043 H   0  0  0  0  0  0  0  0  0  0  0  0
    7.8147   14.1726   25.4925 S   0  0  0  0  0  0  0  0  0  0  0  0
    8.3598   15.1420   24.4781 O   0  0  0  0  0  0  0  0  0  0  0  0
    8.7161   12.9453   25.5339 O   0  0  0  0  0  0  0  0  0  0  0  0
    7.7792   14.8201   27.1169 N   0  0  0  0  0  0  0  0  0  0  0  0
    7.1845   15.6484   27.1399 H   0  0  0  0  0  0  0  0  0  0  0  0
    8.7251   15.0727   27.4030 H   0  0  0  0  0  0  0  0  0  0  0  0
    2.9009    8.9843   23.1127 C   0  0  0  0  0  0  0  0  0  0  0  0
    2.4410    8.2674   25.3883 C   0  0  0  0  0  0  0  0  0  0  0  0
    1.7203    7.5726   26.2932 C   0  0  0  0  0  0  0  0  0  0  0  0
    1.9117    7.5159   27.6467 O   0  0  0  0  0  0  0  0  0  0  0  0
    0.9171    6.5647   28.1494 C   0  0  0  0  0  0  0  0  0  0  0  0
    0.1143    6.2121   27.0235 O   0  0  0  0  0  0  0  0  0  0  0  0
    0.6773    6.8257   25.9226 C   0  0  0  0  0  0  0  0  0  0  0  0
    0.3151    6.7472   24.6178 C   0  0  0  0  0  0  0  0  0  0  0  0
    1.0175    7.4584   23.6234 C   0  0  0  0  0  0  0  0  0  0  0  0
    2.1153    8.2377   24.0329 C   0  0  0  0  0  0  0  0  0  0  0  0
 24 25  1  0  0  0
 24 32  2  0  0  0
 25 26  1  0  0  0
 25 29  2  0  0  0
 26 27  1  0  0  0
 27 28  1  0  0  0
 28 29  1  0  0  0
 29 30  1  0  0  0
 30 31  2  0  0  0
 31 32  1  0  0  0
 32 23  1  0  0  0
 23  1  1  0  0  0
  1  2  2  0  0  0
  1 11  1  0  0  0
  2  3  1  0  0  0
  3  4  1  0  0  0
  3  8  2  0  0  0
  4  5  2  0  0  0
  5 17  1  0  0  0
  5  6  1  0  0  0
 17 18  2  0  0  0
 17 19  2  0  0  0
 17 20  1  0  0  0
  6  7  2  0  0  0
  7  8  1  0  0  0
  8  9  1  0  0  0
  9 10  2  0  0  0
  9 11  1  0  0  0
 10 13  1  0  0  0
 11 12  1  0  0  0
 12 13  2  0  0  0
 13 14  1  0  0  0
 20 21  1  0  0  0
 20 22  1  0  0  0
 14 15  1  0  0  0
 14 16  1  0  0  0
M  END
> <minimizedAffinity>
-10.69983

$$$$
4CWQ_W2D_A_1224


 32 36  0  0  0  0  0  0  0  0999 V2000
    3.4802   10.3383   23.4613 C   0  0  0  0  0  0  0  0  0  0  0  0
    4.7138   10.7582   23.7924 N   0  0  0  0  0  0  0  0  0  0  0  0
    4.9258   12.0293   24.2418 C   0  0  0  0  0  0  0  0  0  0  0  0
    6.2086   12.4535   24.5823 C   0  0  0  0  0  0  0  0  0  0  0  0
    6.4377   13.7424   25.0549 C   0  0  0  0  0  0  0  0  0  0  0  0
    5.3752   14.6228   25.1910 C   0  0  0  0  0  0  0  0  0  0  0  0
    4.0845   14.2119   24.8518 C   0  0  0  0  0  0  0  0  0  0  0  0
    3.8484   12.9128   24.3686 C   0  0  0  0  0  0  0  0  0  0  0  0
    2.6148   12.4820   24.0389 C   0  0  0  0  0  0  0  0  0  0  0  0
    1.4101   13.0741   24.0523 N   0  0  0  0  0  0  0  0  0  0  0  0
    2.4609   11.2201   23.5840 N   0  0  0  0  0  0  0  0  0  0  0  0
    1.2186   11.0270   23.3136 N   0  0  0  0  0  0  0  0  0  0  0  0
    0.5549   12.1532   23.6209 C   0  0  0  0  0  0  0  0  0  0  0  0
   -0.7720   12.3224   23.4873 N   0  0  0  0  0  0  0  0  0  0  0  0
   -1.1863   13.1805   23.7348 H   0  0  0  0  0  0  0  0  0  0  0  0
   -1.3296   11.5882   23.1419 H   0  0  0  0  0  0  0  0  0  0  0  0
    8.0484   14.2966   25.4998 S   0  0  0  0  0  0  0  0  0  0  0  0
    8.6027   15.2074   24.4372 O   0  0  0  0  0  0  0  0  0  0  0  0
    8.9622   13.0853   25.6353 O   0  0  0  0  0  0  0  0  0  0  0  0
    7.9737   15.0438   27.0795 N   0  0  0  0  0  0  0  0  0  0  0  0
    7.3695   15.8646   27.0391 H   0  0  0  0  0  0  0  0  0  0  0  0
    8.9109   15.3253   27.3671 H   0  0  0  0  0  0  0  0  0  0  0  0
    3.3077    9.0118   22.9851 C   0  0  0  0  0  0  0  0  0  0  0  0
    4.8158    7.1903   23.5430 C   0  0  0  0  0  0  0  0  0  0  0  0
    5.2822    6.2505   24.3917 C   0  0  0  0  0  0  0  0  0  0  0  0
    6.3032    5.3654   24.1776 O   0  0  0  0  0  0  0  0  0  0  0  0
    6.3514    4.5175   25.3715 C   0  0  0  0  0  0  0  0  0  0  0  0
    5.3938    5.0667   26.2758 O   0  0  0  0  0  0  0  0  0  0  0  0
    4.7527    6.0900   25.6071 C   0  0  0  0  0  0  0  0  0  0  0  0
    3.7255    6.8738   26.0200 C   0  0  0  0  0  0  0  0  0  0  0  0
    3.1998    7.8831   25.1875 C   0  0  0  0  0  0  0  0  0  0  0  0
    3.7690    8.0351   23.9095 C   0  0  0  0  0  0  0  0  0  0  0  0
 24 25  1  0  0  0
 24 32  2  0  0  0
 25 26  1  0  0  0
 25 29  2  0  0  0
 26 27  1  0  0  0
 27 28  1  0  0  0
 28 29  1  0  0  0
 29 30  1  0  0  0
 30 31  2  0  0  0
 31 32  1  0  0  0
 32 23  1  0  0  0
 23  1  1  0  0  0
  1  2  2  0  0  0
  1 11  1  0  0  0
  2  3  1  0  0  0
  3  4  1  0  0  0
  3  8  2  0  0  0
  4  5  2  0  0  0
  5 17  1  0  0  0
  5  6  1  0  0  0
 17 18  2  0  0  0
 17 19  2  0  0  0
 17 20  1  0  0  0
  6  7  2  0  0  0
  7  8  1  0  0  0
  8  9  1  0  0  0
  9 10  2  0  0  0
  9 11  1  0  0  0
 10 13  1  0  0  0
 11 12  1  0  0  0
 12 13  2  0  0  0
 13 14  1  0  0  0
 20 21  1  0  0  0
 20 22  1  0  0  0
 14 15  1  0  0  0
 14 16  1  0  0  0
M  END
> <minimizedAffinity>
-9.95031

$$$$
4CWQ_W2D_A_1224


 32 36  0  0  0  0  0  0  0  0999 V2000
    4.3984    9.9398   24.0715 C   0  0  0  0  0  0  0  0  0  0  0  0
    3.3018    9.7701   24.8308 N   0  0  0  0  0  0  0  0  0  0  0  0
    3.1057    8.6163   25.5331 C   0  0  0  0  0  0  0  0  0  0  0  0
    1.9656    8.4514   26.3170 C   0  0  0  0  0  0  0  0  0  0  0  0
    1.7592    7.2860   27.0491 C   0  0  0  0  0  0  0  0  0  0  0  0
    2.7005    6.2692   27.0012 C   0  0  0  0  0  0  0  0  0  0  0  0
    3.8470    6.4199   26.2185 C   0  0  0  0  0  0  0  0  0  0  0  0
    4.0577    7.5929   25.4724 C   0  0  0  0  0  0  0  0  0  0  0  0
    5.1559    7.7735   24.7126 C   0  0  0  0  0  0  0  0  0  0  0  0
    6.2233    7.0005   24.4571 N   0  0  0  0  0  0  0  0  0  0  0  0
    5.2946    8.9269   24.0245 N   0  0  0  0  0  0  0  0  0  0  0  0
    6.3935    8.8809   23.3581 N   0  0  0  0  0  0  0  0  0  0  0  0
    6.9889    7.7094   23.6344 C   0  0  0  0  0  0  0  0  0  0  0  0
    8.1707    7.3121   23.1319 N   0  0  0  0  0  0  0  0  0  0  0  0
    8.5429    6.4360   23.3830 H   0  0  0  0  0  0  0  0  0  0  0  0
    8.6640    7.8974   22.5127 H   0  0  0  0  0  0  0  0  0  0  0  0
    0.3309    7.0601   28.0533 S   0  0  0  0  0  0  0  0  0  0  0  0
    0.6964    6.3662   29.3381 O   0  0  0  0  0  0  0  0  0  0  0  0
   -0.6686    6.1964   27.2948 O   0  0  0  0  0  0  0  0  0  0  0  0
   -0.4381    8.6115   28.3010 N   0  0  0  0  0  0  0  0  0  0  0  0
    0.1964    9.2283   28.8082 H   0  0  0  0  0  0  0  0  0  0  0  0
   -1.2935    8.4845   28.8418 H   0  0  0  0  0  0  0  0  0  0  0  0
    4.5549   11.1508   23.3468 C   0  0  0  0  0  0  0  0  0  0  0  0
    6.5043   12.1759   24.3728 C   0  0  0  0  0  0  0  0  0  0  0  0
    7.0892   13.1410   25.1128 C   0  0  0  0  0  0  0  0  0  0  0  0
    8.4162   13.2676   25.4208 O   0  0  0  0  0  0  0  0  0  0  0  0
    8.5092   14.4293   26.3087 C   0  0  0  0  0  0  0  0  0  0  0  0
    7.1951   14.9831   26.3613 O   0  0  0  0  0  0  0  0  0  0  0  0
    6.3739   14.1336   25.6476 C   0  0  0  0  0  0  0  0  0  0  0  0
    5.0321   14.1955   25.4583 C   0  0  0  0  0  0  0  0  0  0  0  0
    4.3608   13.2265   24.6848 C   0  0  0  0  0  0  0  0  0  0  0  0
    5.1310   12.1867   24.1318 C   0  0  0  0  0  0  0  0  0  0  0  0
 24 25  1  0  0  0
 24 32  2  0  0  0
 25 26  1  0  0  0
 25 29  2  0  0  0
 26 27  1  0  0  0
 27 28  1  0  0  0
 28 29  1  0  0  0
 29 30  1  0  0  0
 30 31  2  0  0  0
 31 32  1  0  0  0
 32 23  1  0  0  0
 23  1  1  0  0  0
  1  2  2  0  0  0
  1 11  1  0  0  0
  2  3  1  0  0  0
  3  4  1  0  0  0
  3  8  2  0  0  0
  4  5  2  0  0  0
  5 17  1  0  0  0
  5  6  1  0  0  0
 17 18  2  0  0  0
 17 19  2  0  0  0
 17 20  1  0  0  0
  6  7  2  0  0  0
  7  8  1  0  0  0
  8  9  1  0  0  0
  9 10  2  0  0  0
  9 11  1  0  0  0
 10 13  1  0  0  0
 11 12  1  0  0  0
 12 13  2  0  0  0
 13 14  1  0  0  0
 20 21  1  0  0  0
 20 22  1  0  0  0
 14 15  1  0  0  0
 14 16  1  0  0  0
M  END
> <minimizedAffinity>
-9.93314

$$$$
4CWQ_W2D_A_1224


 32 36  0  0  0  0  0  0  0  0999 V2000
    2.7740   10.4318   24.1826 C   0  0  0  0  0  0  0  0  0  0  0  0
    2.4446   10.0906   25.4407 N   0  0  0  0  0  0  0  0  0  0  0  0
    2.7523    8.8570   25.9371 C   0  0  0  0  0  0  0  0  0  0  0  0
    2.4062    8.5144   27.2426 C   0  0  0  0  0  0  0  0  0  0  0  0
    2.7255    7.2652   27.7665 C   0  0  0  0  0  0  0  0  0  0  0  0
    3.3992    6.3428   26.9806 C   0  0  0  0  0  0  0  0  0  0  0  0
    3.7507    6.6719   25.6698 C   0  0  0  0  0  0  0  0  0  0  0  0
    3.4255    7.9303   25.1337 C   0  0  0  0  0  0  0  0  0  0  0  0
    3.7558    8.2825   23.8756 C   0  0  0  0  0  0  0  0  0  0  0  0
    4.3894    7.6342   22.8856 N   0  0  0  0  0  0  0  0  0  0  0  0
    3.4143    9.5093   23.4271 N   0  0  0  0  0  0  0  0  0  0  0  0
    3.8053    9.6272   22.2078 N   0  0  0  0  0  0  0  0  0  0  0  0
    4.4302    8.4881   21.8684 C   0  0  0  0  0  0  0  0  0  0  0  0
    4.9897    8.2477   20.6699 N   0  0  0  0  0  0  0  0  0  0  0  0
    5.4311    7.3849   20.4968 H   0  0  0  0  0  0  0  0  0  0  0  0
    4.9581    8.9346   19.9652 H   0  0  0  0  0  0  0  0  0  0  0  0
    2.3065    6.8145   29.4159 S   0  0  0  0  0  0  0  0  0  0  0  0
    3.5402    6.4178   30.1817 O   0  0  0  0  0  0  0  0  0  0  0  0
    1.3524    5.6278   29.3712 O   0  0  0  0  0  0  0  0  0  0  0  0
    1.4278    8.1328   30.1571 N   0  0  0  0  0  0  0  0  0  0  0  0
    2.0290    8.9551   30.2095 H   0  0  0  0  0  0  0  0  0  0  0  0
    1.1386    7.8626   31.0972 H   0  0  0  0  0  0  0  0  0  0  0  0
    2.4221   11.7211   23.7029 C   0  0  0  0  0  0  0  0  0  0  0  0
    4.6457   12.4998   24.2968 C   0  0  0  0  0  0  0  0  0  0  0  0
    5.4892   13.4427   24.7663 C   0  0  0  0  0  0  0  0  0  0  0  0
    6.8475   13.3540   24.9031 O   0  0  0  0  0  0  0  0  0  0  0  0
    7.2671   14.6104   25.5292 C   0  0  0  0  0  0  0  0  0  0  0  0
    6.0916   15.4155   25.6081 O   0  0  0  0  0  0  0  0  0  0  0  0
    5.0419   14.6358   25.1661 C   0  0  0  0  0  0  0  0  0  0  0  0
    3.7189   14.9299   25.1093 C   0  0  0  0  0  0  0  0  0  0  0  0
    2.7858   13.9945   24.6170 C   0  0  0  0  0  0  0  0  0  0  0  0
    3.2758   12.7419   24.2031 C   0  0  0  0  0  0  0  0  0  0  0  0
 24 25  1  0  0  0
 24 32  2  0  0  0
 25 26  1  0  0  0
 25 29  2  0  0  0
 26 27  1  0  0  0
 27 28  1  0  0  0
 28 29  1  0  0  0
 29 30  1  0  0  0
 30 31  2  0  0  0
 31 32  1  0  0  0
 32 23  1  0  0  0
 23  1  1  0  0  0
  1  2  2  0  0  0
  1 11  1  0  0  0
  2  3  1  0  0  0
  3  4  1  0  0  0
  3  8  2  0  0  0
  4  5  2  0  0  0
  5 17  1  0  0  0
  5  6  1  0  0  0
 17 18  2  0  0  0
 17 19  2  0  0  0
 17 20  1  0  0  0
  6  7  2  0  0  0
  7  8  1  0  0  0
  8  9  1  0  0  0
  9 10  2  0  0  0
  9 11  1  0  0  0
 10 13  1  0  0  0
 11 12  1  0  0  0
 12 13  2  0  0  0
 13 14  1  0  0  0
 20 21  1  0  0  0
 20 22  1  0  0  0
 14 15  1  0  0  0
 14 16  1  0  0  0
M  END
> <minimizedAffinity>
-9.73655

$$$$
4CWQ_W2D_A_1224


 32 36  0  0  0  0  0  0  0  0999 V2000
    1.7664   10.8641   24.0708 C   0  0  0  0  0  0  0  0  0  0  0  0
    2.2629    9.9870   24.9609 N   0  0  0  0  0  0  0  0  0  0  0  0
    1.4650    9.4305   25.9182 C   0  0  0  0  0  0  0  0  0  0  0  0
    1.9903    8.5225   26.8353 C   0  0  0  0  0  0  0  0  0  0  0  0
    1.1857    7.9368   27.8082 C   0  0  0  0  0  0  0  0  0  0  0  0
   -0.1615    8.2587   27.8702 C   0  0  0  0  0  0  0  0  0  0  0  0
   -0.7011    9.1685   26.9586 C   0  0  0  0  0  0  0  0  0  0  0  0
    0.1084    9.7674   25.9774 C   0  0  0  0  0  0  0  0  0  0  0  0
   -0.3815   10.6437   25.0784 C   0  0  0  0  0  0  0  0  0  0  0  0
   -1.6073   11.1532   24.8788 N   0  0  0  0  0  0  0  0  0  0  0  0
    0.4532   11.1782   24.1617 N   0  0  0  0  0  0  0  0  0  0  0  0
   -0.2119   11.9944   23.4234 N   0  0  0  0  0  0  0  0  0  0  0  0
   -1.4890   11.9706   23.8379 C   0  0  0  0  0  0  0  0  0  0  0  0
   -2.4866   12.6867   23.2908 N   0  0  0  0  0  0  0  0  0  0  0  0
   -3.3996   12.6149   23.6521 H   0  0  0  0  0  0  0  0  0  0  0  0
   -2.3041   13.2829   22.5289 H   0  0  0  0  0  0  0  0  0  0  0  0
    1.8260    6.7802   28.9709 S   0  0  0  0  0  0  0  0  0  0  0  0
    2.2347    5.5087   28.2765 O   0  0  0  0  0  0  0  0  0  0  0  0
    0.7396    6.4576   29.9887 O   0  0  0  0  0  0  0  0  0  0  0  0
    3.1322    7.5332   29.8577 N   0  0  0  0  0  0  0  0  0  0  0  0
    3.8881    7.7690   29.2147 H   0  0  0  0  0  0  0  0  0  0  0  0
    3.4783    6.8871   30.5671 H   0  0  0  0  0  0  0  0  0  0  0  0
    2.6358   11.4290   23.1006 C   0  0  0  0  0  0  0  0  0  0  0  0
    4.5475    9.9480   22.8644 C   0  0  0  0  0  0  0  0  0  0  0  0
    5.8409    9.6320   23.0841 C   0  0  0  0  0  0  0  0  0  0  0  0
    6.5119    8.5184   22.6582 O   0  0  0  0  0  0  0  0  0  0  0  0
    7.8568    8.6214   23.2305 C   0  0  0  0  0  0  0  0  0  0  0  0
    7.9066    9.8928   23.8766 O   0  0  0  0  0  0  0  0  0  0  0  0
    6.6418   10.4380   23.7856 C   0  0  0  0  0  0  0  0  0  0  0  0
    6.1703   11.6021   24.2978 C   0  0  0  0  0  0  0  0  0  0  0  0
    4.8325   11.9981   24.0939 C   0  0  0  0  0  0  0  0  0  0  0  0
    4.0032   11.1344   23.3546 C   0  0  0  0  0  0  0  0  0  0  0  0
 24 25  1  0  0  0
 24 32  2  0  0  0
 25 26  1  0  0  0
 25 29  2  0  0  0
 26 27  1  0  0  0
 27 28  1  0  0  0
 28 29  1  0  0  0
 29 30  1  0  0  0
 30 31  2  0  0  0
 31 32  1  0  0  0
 32 23  1  0  0  0
 23  1  1  0  0  0
  1  2  2  0  0  0
  1 11  1  0  0  0
  2  3  1  0  0  0
  3  4  1  0  0  0
  3  8  2  0  0  0
  4  5  2  0  0  0
  5 17  1  0  0  0
  5  6  1  0  0  0
 17 18  2  0  0  0
 17 19  2  0  0  0
 17 20  1  0  0  0
  6  7  2  0  0  0
  7  8  1  0  0  0
  8  9  1  0  0  0
  9 10  2  0  0  0
  9 11  1  0  0  0
 10 13  1  0  0  0
 11 12  1  0  0  0
 12 13  2  0  0  0
 13 14  1  0  0  0
 20 21  1  0  0  0
 20 22  1  0  0  0
 14 15  1  0  0  0
 14 16  1  0  0  0
M  END
> <minimizedAffinity>
-9.27284

$$$$
4CWQ_W2D_A_1224


 32 36  0  0  0  0  0  0  0  0999 V2000
    6.8521   11.3260   24.0519 C   0  0  0  0  0  0  0  0  0  0  0  0
    5.5775   11.1320   23.6702 N   0  0  0  0  0  0  0  0  0  0  0  0
    4.6070   12.0417   23.9753 C   0  0  0  0  0  0  0  0  0  0  0  0
    3.2894   11.8304   23.5744 C   0  0  0  0  0  0  0  0  0  0  0  0
    2.2920   12.7560   23.8665 C   0  0  0  0  0  0  0  0  0  0  0  0
    2.6093   13.9091   24.5679 C   0  0  0  0  0  0  0  0  0  0  0  0
    3.9253   14.1332   24.9776 C   0  0  0  0  0  0  0  0  0  0  0  0
    4.9358   13.1987   24.6900 C   0  0  0  0  0  0  0  0  0  0  0  0
    6.2165   13.3872   25.0645 C   0  0  0  0  0  0  0  0  0  0  0  0
    6.8319   14.3702   25.7403 N   0  0  0  0  0  0  0  0  0  0  0  0
    7.1358   12.4491   24.7518 N   0  0  0  0  0  0  0  0  0  0  0  0
    8.2768   12.8175   25.2166 N   0  0  0  0  0  0  0  0  0  0  0  0
    8.1097   14.0120   25.8069 C   0  0  0  0  0  0  0  0  0  0  0  0
    9.0892   14.7210   26.3945 N   0  0  0  0  0  0  0  0  0  0  0  0
    8.8870   15.5917   26.8071 H   0  0  0  0  0  0  0  0  0  0  0  0
   10.0086   14.3696   26.4122 H   0  0  0  0  0  0  0  0  0  0  0  0
    0.6228   12.5140   23.3618 S   0  0  0  0  0  0  0  0  0  0  0  0
    0.4924   12.6965   21.8733 O   0  0  0  0  0  0  0  0  0  0  0  0
   -0.2542   13.5438   24.0624 O   0  0  0  0  0  0  0  0  0  0  0  0
    0.0863   10.9436   23.9145 N   0  0  0  0  0  0  0  0  0  0  0  0
    0.6473   10.2169   23.4702 H   0  0  0  0  0  0  0  0  0  0  0  0
   -0.8951   10.8137   23.6686 H   0  0  0  0  0  0  0  0  0  0  0  0
    7.8268   10.3466   23.7248 C   0  0  0  0  0  0  0  0  0  0  0  0
    8.0871    7.9562   23.3760 C   0  0  0  0  0  0  0  0  0  0  0  0
    7.6626    6.6821   23.5087 C   0  0  0  0  0  0  0  0  0  0  0  0
    8.2866    5.5449   23.0740 O   0  0  0  0  0  0  0  0  0  0  0  0
    7.3748    4.4437   23.3945 C   0  0  0  0  0  0  0  0  0  0  0  0
    6.2981    5.0317   24.1234 O   0  0  0  0  0  0  0  0  0  0  0  0
    6.5125    6.3953   24.1238 C   0  0  0  0  0  0  0  0  0  0  0  0
    5.7382    7.3855   24.6334 C   0  0  0  0  0  0  0  0  0  0  0  0
    6.1299    8.7368   24.5404 C   0  0  0  0  0  0  0  0  0  0  0  0
    7.3434    9.0194   23.8863 C   0  0  0  0  0  0  0  0  0  0  0  0
 24 25  1  0  0  0
 24 32  2  0  0  0
 25 26  1  0  0  0
 25 29  2  0  0  0
 26 27  1  0  0  0
 27 28  1  0  0  0
 28 29  1  0  0  0
 29 30  1  0  0  0
 30 31  2  0  0  0
 31 32  1  0  0  0
 32 23  1  0  0  0
 23  1  1  0  0  0
  1  2  2  0  0  0
  1 11  1  0  0  0
  2  3  1  0  0  0
  3  4  1  0  0  0
  3  8  2  0  0  0
  4  5  2  0  0  0
  5 17  1  0  0  0
  5  6  1  0  0  0
 17 18  2  0  0  0
 17 19  2  0  0  0
 17 20  1  0  0  0
  6  7  2  0  0  0
  7  8  1  0  0  0
  8  9  1  0  0  0
  9 10  2  0  0  0
  9 11  1  0  0  0
 10 13  1  0  0  0
 11 12  1  0  0  0
 12 13  2  0  0  0
 13 14  1  0  0  0
 20 21  1  0  0  0
 20 22  1  0  0  0
 14 15  1  0  0  0
 14 16  1  0  0  0
M  END
> <minimizedAffinity>
-9.22570

$$$$
4CWQ_W2D_A_1224


 32 36  0  0  0  0  0  0  0  0999 V2000
    4.7304   10.2592   23.6802 C   0  0  0  0  0  0  0  0  0  0  0  0
    3.6067   10.9819   23.5296 N   0  0  0  0  0  0  0  0  0  0  0  0
    2.3948   10.4834   23.9112 C   0  0  0  0  0  0  0  0  0  0  0  0
    1.2367   11.2414   23.7506 C   0  0  0  0  0  0  0  0  0  0  0  0
   -0.0038   10.7513   24.1477 C   0  0  0  0  0  0  0  0  0  0  0  0
   -0.0944    9.4885   24.7130 C   0  0  0  0  0  0  0  0  0  0  0  0
    1.0577    8.7170   24.8783 C   0  0  0  0  0  0  0  0  0  0  0  0
    2.3127    9.2050   24.4737 C   0  0  0  0  0  0  0  0  0  0  0  0
    3.4446    8.4896   24.6252 C   0  0  0  0  0  0  0  0  0  0  0  0
    3.6888    7.2662   25.1208 N   0  0  0  0  0  0  0  0  0  0  0  0
    4.6162    9.0219   24.2166 N   0  0  0  0  0  0  0  0  0  0  0  0
    5.5553    8.1710   24.4351 N   0  0  0  0  0  0  0  0  0  0  0  0
    5.0020    7.0936   25.0151 C   0  0  0  0  0  0  0  0  0  0  0  0
    5.6792    6.0000   25.4059 N   0  0  0  0  0  0  0  0  0  0  0  0
    5.2009    5.2486   25.8251 H   0  0  0  0  0  0  0  0  0  0  0  0
    6.6534    5.9506   25.2727 H   0  0  0  0  0  0  0  0  0  0  0  0
   -1.4784   11.6952   23.9630 S   0  0  0  0  0  0  0  0  0  0  0  0
   -2.1010   11.4390   22.6166 O   0  0  0  0  0  0  0  0  0  0  0  0
   -1.1291   13.1740   24.0700 O   0  0  0  0  0  0  0  0  0  0  0  0
   -2.5501   11.3382   25.2984 N   0  0  0  0  0  0  0  0  0  0  0  0
   -2.8133   10.3532   25.2692 H   0  0  0  0  0  0  0  0  0  0  0  0
   -3.3874   11.9162   25.2263 H   0  0  0  0  0  0  0  0  0  0  0  0
    5.9679   10.8119   23.2567 C   0  0  0  0  0  0  0  0  0  0  0  0
    7.6928   11.9331   24.5496 C   0  0  0  0  0  0  0  0  0  0  0  0
    8.1271   12.9509   25.3219 C   0  0  0  0  0  0  0  0  0  0  0  0
    9.3762   13.1212   25.8534 O   0  0  0  0  0  0  0  0  0  0  0  0
    9.2984   14.3344   26.6712 C   0  0  0  0  0  0  0  0  0  0  0  0
    7.9913   14.8644   26.4547 O   0  0  0  0  0  0  0  0  0  0  0  0
    7.3188   13.9589   25.6591 C   0  0  0  0  0  0  0  0  0  0  0  0
    6.0322   13.9833   25.2300 C   0  0  0  0  0  0  0  0  0  0  0  0
    5.5189   12.9579   24.4097 C   0  0  0  0  0  0  0  0  0  0  0  0
    6.3850   11.9029   24.0673 C   0  0  0  0  0  0  0  0  0  0  0  0
 24 25  1  0  0  0
 24 32  2  0  0  0
 25 26  1  0  0  0
 25 29  2  0  0  0
 26 27  1  0  0  0
 27 28  1  0  0  0
 28 29  1  0  0  0
 29 30  1  0  0  0
 30 31  2  0  0  0
 31 32  1  0  0  0
 32 23  1  0  0  0
 23  1  1  0  0  0
  1  2  2  0  0  0
  1 11  1  0  0  0
  2  3  1  0  0  0
  3  4  1  0  0  0
  3  8  2  0  0  0
  4  5  2  0  0  0
  5 17  1  0  0  0
  5  6  1  0  0  0
 17 18  2  0  0  0
 17 19  2  0  0  0
 17 20  1  0  0  0
  6  7  2  0  0  0
  7  8  1  0  0  0
  8  9  1  0  0  0
  9 10  2  0  0  0
  9 11  1  0  0  0
 10 13  1  0  0  0
 11 12  1  0  0  0
 12 13  2  0  0  0
 13 14  1  0  0  0
 20 21  1  0  0  0
 20 22  1  0  0  0
 14 15  1  0  0  0
 14 16  1  0  0  0
M  END
> <minimizedAffinity>
-9.22517

$$$$
