3NQ3_DKA_A_3053


 13 12  0  0  0  0  0  0  0  0999 V2000
   12.4341   -2.4041   -0.2066 C   0  0  0  0  0  0  0  0  0  0  0  0
   11.3211   -3.1369    0.5218 C   0  0  0  0  0  0  0  0  0  0  0  0
   10.0489   -3.0992   -0.3141 C   0  0  0  0  0  0  0  0  0  0  0  0
    8.9645   -2.3412    0.4067 C   0  0  0  0  0  0  0  0  0  0  0  0
    8.6924   -1.1844    0.0098 O   0  0  0  0  0  0  0  0  0  0  0  0
    8.3950   -2.8960    1.3739 O   0  0  0  0  0  0  0  0  0  0  0  0
    8.6401   -3.7644    1.6265 H   0  0  0  0  0  0  0  0  0  0  0  0
   13.6601   -3.2920   -0.3801 C   0  0  0  0  0  0  0  0  0  0  0  0
   13.3318   -4.6785    0.1567 C   0  0  0  0  0  0  0  0  0  0  0  0
   14.4910   -5.6399   -0.0475 C   0  0  0  0  0  0  0  0  0  0  0  0
   15.4963   -5.0362   -1.0075 C   0  0  0  0  0  0  0  0  0  0  0  0
   16.9032   -5.5255   -0.7544 C   0  0  0  0  0  0  0  0  0  0  0  0
   17.8756   -4.8812   -1.7178 C   0  0  0  0  0  0  0  0  0  0  0  0
  4  5  2  0  0  0
  4  3  1  0  0  0
  4  6  1  0  0  0
  3  2  1  0  0  0
  2  1  1  0  0  0
  1  8  1  0  0  0
  8  9  1  0  0  0
  9 10  1  0  0  0
 10 11  1  0  0  0
 11 12  1  0  0  0
 12 13  1  0  0  0
  6  7  1  0  0  0
M  END
> <minimizedAffinity>
-6.11913

$$$$
3NQ3_DKA_A_3053


 13 12  0  0  0  0  0  0  0  0999 V2000
   13.0610   -3.7426   -0.0083 C   0  0  0  0  0  0  0  0  0  0  0  0
   14.0845   -4.8321   -0.2766 C   0  0  0  0  0  0  0  0  0  0  0  0
   15.1965   -4.2850   -1.1614 C   0  0  0  0  0  0  0  0  0  0  0  0
   16.4724   -5.0568   -0.9457 C   0  0  0  0  0  0  0  0  0  0  0  0
   17.5083   -4.6536   -1.5235 O   0  0  0  0  0  0  0  0  0  0  0  0
   16.4362   -6.0696   -0.2105 O   0  0  0  0  0  0  0  0  0  0  0  0
   15.6316   -6.3245    0.1965 H   0  0  0  0  0  0  0  0  0  0  0  0
   12.0724   -4.1658    1.0712 C   0  0  0  0  0  0  0  0  0  0  0  0
   10.6621   -4.0309    0.5137 C   0  0  0  0  0  0  0  0  0  0  0  0
   10.4944   -2.7338   -0.2602 C   0  0  0  0  0  0  0  0  0  0  0  0
    9.1839   -2.0743    0.1199 C   0  0  0  0  0  0  0  0  0  0  0  0
    8.4988   -2.7715    1.2721 C   0  0  0  0  0  0  0  0  0  0  0  0
    7.0112   -2.4965    1.2560 C   0  0  0  0  0  0  0  0  0  0  0  0
  4  5  2  0  0  0
  4  3  1  0  0  0
  4  6  1  0  0  0
  3  2  1  0  0  0
  2  1  1  0  0  0
  1  8  1  0  0  0
  8  9  1  0  0  0
  9 10  1  0  0  0
 10 11  1  0  0  0
 11 12  1  0  0  0
 12 13  1  0  0  0
  6  7  1  0  0  0
M  END
> <minimizedAffinity>
-5.97416

$$$$
3NQ3_DKA_A_3053


 13 12  0  0  0  0  0  0  0  0999 V2000
   10.2900   -3.3025   -0.0955 C   0  0  0  0  0  0  0  0  0  0  0  0
    9.2799   -2.1808    0.0726 C   0  0  0  0  0  0  0  0  0  0  0  0
    8.2078   -2.6007    1.0691 C   0  0  0  0  0  0  0  0  0  0  0  0
    7.7604   -1.4214    1.8932 C   0  0  0  0  0  0  0  0  0  0  0  0
    8.6268   -0.8039    2.5548 O   0  0  0  0  0  0  0  0  0  0  0  0
    6.5451   -1.1208    1.8883 O   0  0  0  0  0  0  0  0  0  0  0  0
    5.9413   -1.6191    1.3734 H   0  0  0  0  0  0  0  0  0  0  0  0
   11.0240   -3.5862    1.2092 C   0  0  0  0  0  0  0  0  0  0  0  0
   12.1218   -4.6046    0.9338 C   0  0  0  0  0  0  0  0  0  0  0  0
   13.1615   -4.0517   -0.0267 C   0  0  0  0  0  0  0  0  0  0  0  0
   14.2696   -5.0666   -0.2246 C   0  0  0  0  0  0  0  0  0  0  0  0
   15.4297   -4.5089   -1.0158 C   0  0  0  0  0  0  0  0  0  0  0  0
   16.6597   -5.3728   -0.8435 C   0  0  0  0  0  0  0  0  0  0  0  0
  4  5  2  0  0  0
  4  3  1  0  0  0
  4  6  1  0  0  0
  3  2  1  0  0  0
  2  1  1  0  0  0
  1  8  1  0  0  0
  8  9  1  0  0  0
  9 10  1  0  0  0
 10 11  1  0  0  0
 11 12  1  0  0  0
 12 13  1  0  0  0
  6  7  1  0  0  0
M  END
> <minimizedAffinity>
-5.77637

$$$$
3NQ3_DKA_A_3053


 13 12  0  0  0  0  0  0  0  0999 V2000
   10.6556   -3.9678    0.8176 C   0  0  0  0  0  0  0  0  0  0  0  0
   12.1067   -4.3322    1.0783 C   0  0  0  0  0  0  0  0  0  0  0  0
   12.9857   -3.7615   -0.0265 C   0  0  0  0  0  0  0  0  0  0  0  0
   14.2006   -4.6275   -0.2365 C   0  0  0  0  0  0  0  0  0  0  0  0
   14.1417   -5.8229    0.1338 O   0  0  0  0  0  0  0  0  0  0  0  0
   15.2144   -4.1110   -0.7590 O   0  0  0  0  0  0  0  0  0  0  0  0
   15.2012   -3.2103   -1.0169 H   0  0  0  0  0  0  0  0  0  0  0  0
   10.5339   -2.9582   -0.3171 C   0  0  0  0  0  0  0  0  0  0  0  0
    9.3317   -2.0654   -0.0419 C   0  0  0  0  0  0  0  0  0  0  0  0
    8.8162   -2.2525    1.3754 C   0  0  0  0  0  0  0  0  0  0  0  0
    7.4424   -2.8916    1.3423 C   0  0  0  0  0  0  0  0  0  0  0  0
    6.3390   -1.8800    1.1373 C   0  0  0  0  0  0  0  0  0  0  0  0
    4.9815   -2.5291    1.2947 C   0  0  0  0  0  0  0  0  0  0  0  0
  4  5  2  0  0  0
  4  3  1  0  0  0
  4  6  1  0  0  0
  3  2  1  0  0  0
  2  1  1  0  0  0
  1  8  1  0  0  0
  8  9  1  0  0  0
  9 10  1  0  0  0
 10 11  1  0  0  0
 11 12  1  0  0  0
 12 13  1  0  0  0
  6  7  1  0  0  0
M  END
> <minimizedAffinity>
-5.34627

$$$$
3NQ3_DKA_A_3053


 13 12  0  0  0  0  0  0  0  0999 V2000
    9.4687   -2.1365    1.1025 C   0  0  0  0  0  0  0  0  0  0  0  0
    8.0355   -1.6343    1.1169 C   0  0  0  0  0  0  0  0  0  0  0  0
    7.0774   -2.8173    1.1536 C   0  0  0  0  0  0  0  0  0  0  0  0
    5.6559   -2.3423    1.3080 C   0  0  0  0  0  0  0  0  0  0  0  0
    5.4570   -1.2770    1.9365 O   0  0  0  0  0  0  0  0  0  0  0  0
    4.7405   -3.0383    0.8129 O   0  0  0  0  0  0  0  0  0  0  0  0
    4.9488   -3.8273    0.3523 H   0  0  0  0  0  0  0  0  0  0  0  0
    9.7248   -3.0440   -0.0944 C   0  0  0  0  0  0  0  0  0  0  0  0
   11.1442   -3.5859    0.0058 C   0  0  0  0  0  0  0  0  0  0  0  0
   12.1682   -2.4633   -0.0164 C   0  0  0  0  0  0  0  0  0  0  0  0
   13.5245   -3.0126   -0.4109 C   0  0  0  0  0  0  0  0  0  0  0  0
   13.6757   -4.4772   -0.0722 C   0  0  0  0  0  0  0  0  0  0  0  0
   15.0023   -5.0076   -0.5698 C   0  0  0  0  0  0  0  0  0  0  0  0
  4  5  2  0  0  0
  4  3  1  0  0  0
  4  6  1  0  0  0
  3  2  1  0  0  0
  2  1  1  0  0  0
  1  8  1  0  0  0
  8  9  1  0  0  0
  9 10  1  0  0  0
 10 11  1  0  0  0
 11 12  1  0  0  0
 12 13  1  0  0  0
  6  7  1  0  0  0
M  END
> <minimizedAffinity>
-5.21692

$$$$
3NQ3_DKA_A_3053


 13 12  0  0  0  0  0  0  0  0999 V2000
    7.4767   -2.8447    1.3604 C   0  0  0  0  0  0  0  0  0  0  0  0
    6.2787   -1.9898    0.9853 C   0  0  0  0  0  0  0  0  0  0  0  0
    5.0457   -2.4773    1.7340 C   0  0  0  0  0  0  0  0  0  0  0  0
    4.4740   -1.3744    2.5866 C   0  0  0  0  0  0  0  0  0  0  0  0
    3.2422   -1.1566    2.5180 O   0  0  0  0  0  0  0  0  0  0  0  0
    5.2559   -0.7203    3.3135 O   0  0  0  0  0  0  0  0  0  0  0  0
    6.1696   -0.9280    3.3246 H   0  0  0  0  0  0  0  0  0  0  0  0
    8.7561   -2.0182    1.3981 C   0  0  0  0  0  0  0  0  0  0  0  0
    9.3683   -2.0123    0.0040 C   0  0  0  0  0  0  0  0  0  0  0  0
   10.0238   -3.3450   -0.3182 C   0  0  0  0  0  0  0  0  0  0  0  0
   11.0948   -3.6526    0.7090 C   0  0  0  0  0  0  0  0  0  0  0  0
   12.4678   -3.2052    0.2642 C   0  0  0  0  0  0  0  0  0  0  0  0
   13.3682   -4.3974    0.0258 C   0  0  0  0  0  0  0  0  0  0  0  0
  4  5  2  0  0  0
  4  3  1  0  0  0
  4  6  1  0  0  0
  3  2  1  0  0  0
  2  1  1  0  0  0
  1  8  1  0  0  0
  8  9  1  0  0  0
  9 10  1  0  0  0
 10 11  1  0  0  0
 11 12  1  0  0  0
 12 13  1  0  0  0
  6  7  1  0  0  0
M  END
> <minimizedAffinity>
-5.11784

$$$$
3NQ3_DKA_A_3053


 13 12  0  0  0  0  0  0  0  0999 V2000
    9.0170   -2.1166    0.0054 C   0  0  0  0  0  0  0  0  0  0  0  0
   10.0732   -3.0785   -0.5100 C   0  0  0  0  0  0  0  0  0  0  0  0
   10.8037   -3.7160    0.6642 C   0  0  0  0  0  0  0  0  0  0  0  0
   12.2903   -3.7272    0.4195 C   0  0  0  0  0  0  0  0  0  0  0  0
   12.9058   -4.8053    0.5880 O   0  0  0  0  0  0  0  0  0  0  0  0
   12.8425   -2.6588    0.0715 O   0  0  0  0  0  0  0  0  0  0  0  0
   12.3310   -1.8815   -0.0394 H   0  0  0  0  0  0  0  0  0  0  0  0
    8.3789   -2.6318    1.2895 C   0  0  0  0  0  0  0  0  0  0  0  0
    7.4282   -1.5661    1.8173 C   0  0  0  0  0  0  0  0  0  0  0  0
    6.1217   -1.5564    1.0411 C   0  0  0  0  0  0  0  0  0  0  0  0
    5.4747   -2.9254    1.1068 C   0  0  0  0  0  0  0  0  0  0  0  0
    4.4240   -3.0168    2.1887 C   0  0  0  0  0  0  0  0  0  0  0  0
    3.2852   -2.0602    1.9113 C   0  0  0  0  0  0  0  0  0  0  0  0
  4  5  2  0  0  0
  4  3  1  0  0  0
  4  6  1  0  0  0
  3  2  1  0  0  0
  2  1  1  0  0  0
  1  8  1  0  0  0
  8  9  1  0  0  0
  9 10  1  0  0  0
 10 11  1  0  0  0
 11 12  1  0  0  0
 12 13  1  0  0  0
  6  7  1  0  0  0
M  END
> <minimizedAffinity>
-5.02119

$$$$
3NQ3_DKA_A_3053


 13 12  0  0  0  0  0  0  0  0999 V2000
    8.3338   -2.6532    1.0558 C   0  0  0  0  0  0  0  0  0  0  0  0
    8.3295   -1.1537    1.2968 C   0  0  0  0  0  0  0  0  0  0  0  0
    7.9035   -0.4309    0.0261 C   0  0  0  0  0  0  0  0  0  0  0  0
    8.4922    0.9554   -0.0166 C   0  0  0  0  0  0  0  0  0  0  0  0
    8.1021    1.7322   -0.9188 O   0  0  0  0  0  0  0  0  0  0  0  0
    9.3503    1.2624    0.8417 O   0  0  0  0  0  0  0  0  0  0  0  0
    9.6040    0.6397    1.4942 H   0  0  0  0  0  0  0  0  0  0  0  0
    9.7513   -3.2119    1.0705 C   0  0  0  0  0  0  0  0  0  0  0  0
   10.3626   -3.0137   -0.3097 C   0  0  0  0  0  0  0  0  0  0  0  0
   11.8158   -2.5794   -0.2143 C   0  0  0  0  0  0  0  0  0  0  0  0
   12.6688   -3.7393    0.2589 C   0  0  0  0  0  0  0  0  0  0  0  0
   13.9799   -3.8344   -0.4860 C   0  0  0  0  0  0  0  0  0  0  0  0
   14.5669   -5.2232   -0.3615 C   0  0  0  0  0  0  0  0  0  0  0  0
  4  5  2  0  0  0
  4  3  1  0  0  0
  4  6  1  0  0  0
  3  2  1  0  0  0
  2  1  1  0  0  0
  1  8  1  0  0  0
  8  9  1  0  0  0
  9 10  1  0  0  0
 10 11  1  0  0  0
 11 12  1  0  0  0
 12 13  1  0  0  0
  6  7  1  0  0  0
M  END
> <minimizedAffinity>
-4.99717

$$$$
3NQ3_DKA_A_3053


 13 12  0  0  0  0  0  0  0  0999 V2000
   10.5002   -3.2073    1.0482 C   0  0  0  0  0  0  0  0  0  0  0  0
   11.7243   -3.4115    0.1727 C   0  0  0  0  0  0  0  0  0  0  0  0
   12.5806   -4.5348    0.7418 C   0  0  0  0  0  0  0  0  0  0  0  0
   13.8526   -4.6844   -0.0519 C   0  0  0  0  0  0  0  0  0  0  0  0
   14.2839   -3.6812   -0.6658 O   0  0  0  0  0  0  0  0  0  0  0  0
   14.4119   -5.8044   -0.0709 O   0  0  0  0  0  0  0  0  0  0  0  0
   14.0434   -6.5203    0.4083 H   0  0  0  0  0  0  0  0  0  0  0  0
    9.2762   -2.8515    0.2134 C   0  0  0  0  0  0  0  0  0  0  0  0
    8.1084   -2.5919    1.1553 C   0  0  0  0  0  0  0  0  0  0  0  0
    7.5543   -1.1882    0.9763 C   0  0  0  0  0  0  0  0  0  0  0  0
    8.2204   -0.5202   -0.2099 C   0  0  0  0  0  0  0  0  0  0  0  0
    7.2206    0.0173   -1.2071 C   0  0  0  0  0  0  0  0  0  0  0  0
    6.9440    1.4825   -0.9510 C   0  0  0  0  0  0  0  0  0  0  0  0
  4  5  2  0  0  0
  4  3  1  0  0  0
  4  6  1  0  0  0
  3  2  1  0  0  0
  2  1  1  0  0  0
  1  8  1  0  0  0
  8  9  1  0  0  0
  9 10  1  0  0  0
 10 11  1  0  0  0
 11 12  1  0  0  0
 12 13  1  0  0  0
  6  7  1  0  0  0
M  END
> <minimizedAffinity>
-4.71057

$$$$
3NQ3_DKA_A_3053


 13 12  0  0  0  0  0  0  0  0999 V2000
    7.6596   -2.8707    1.3320 C   0  0  0  0  0  0  0  0  0  0  0  0
    6.6221   -1.7628    1.3855 C   0  0  0  0  0  0  0  0  0  0  0  0
    6.9127   -0.7347    0.3004 C   0  0  0  0  0  0  0  0  0  0  0  0
    6.9358    0.6553    0.8812 C   0  0  0  0  0  0  0  0  0  0  0  0
    6.7191    0.7834    2.1084 O   0  0  0  0  0  0  0  0  0  0  0  0
    7.1581    1.6168    0.1107 O   0  0  0  0  0  0  0  0  0  0  0  0
    7.3140    1.4610   -0.8000 H   0  0  0  0  0  0  0  0  0  0  0  0
    8.8339   -2.4863    0.4404 C   0  0  0  0  0  0  0  0  0  0  0  0
   10.1102   -3.0424    1.0569 C   0  0  0  0  0  0  0  0  0  0  0  0
   11.0551   -3.5713   -0.0094 C   0  0  0  0  0  0  0  0  0  0  0  0
   12.1502   -4.3955    0.6375 C   0  0  0  0  0  0  0  0  0  0  0  0
   13.4660   -4.2866   -0.0971 C   0  0  0  0  0  0  0  0  0  0  0  0
   14.2653   -5.5633    0.0443 C   0  0  0  0  0  0  0  0  0  0  0  0
  4  5  2  0  0  0
  4  3  1  0  0  0
  4  6  1  0  0  0
  3  2  1  0  0  0
  2  1  1  0  0  0
  1  8  1  0  0  0
  8  9  1  0  0  0
  9 10  1  0  0  0
 10 11  1  0  0  0
 11 12  1  0  0  0
 12 13  1  0  0  0
  6  7  1  0  0  0
M  END
> <minimizedAffinity>
-4.63114

$$$$
