4B6O_3DQ_A_1144


 26 27  0  0  0  0  0  0  0  0999 V2000
  -45.0249  -28.8605   -7.2061 C   0  0  0  0  0  0  0  0  0  0  0  0
  -45.2379  -28.2620   -8.6096 C   0  0  0  0  0  0  0  0  0  0  0  0
  -46.0250  -27.3133   -8.8026 O   0  0  0  0  0  0  0  0  0  0  0  0
  -44.4556  -28.8918   -9.7692 C   0  0  0  0  0  0  0  0  0  0  0  0
  -44.5980  -28.1191  -10.9845 O   0  0  0  0  0  0  0  0  0  0  0  0
  -42.9741  -28.9987   -9.3758 C   0  0  0  0  0  0  0  0  0  0  0  0
  -42.2789  -29.6948  -10.4154 O   0  0  0  0  0  0  0  0  0  0  0  0
  -42.7985  -29.7664   -8.0604 C   0  0  0  0  0  0  0  0  0  0  0  0
  -43.4827  -29.0067   -6.9034 C   0  0  0  0  0  0  0  0  0  0  0  0
  -42.8914  -27.6613   -6.8414 O   0  0  0  0  0  0  0  0  0  0  0  0
  -44.2463  -27.2263  -10.8430 H   0  0  0  0  0  0  0  0  0  0  0  0
  -42.6530  -30.5842  -10.5152 H   0  0  0  0  0  0  0  0  0  0  0  0
  -43.0163  -27.2137   -7.6928 H   0  0  0  0  0  0  0  0  0  0  0  0
  -43.2818  -29.7141   -5.5483 C   0  0  0  0  0  0  0  0  0  0  0  0
  -43.6406  -29.1057   -4.4980 O   0  0  0  0  0  0  0  0  0  0  0  0
  -42.7579  -30.8643   -5.5718 O   0  0  0  0  0  0  0  0  0  0  0  0
  -42.5171  -31.2529   -6.3897 H   0  0  0  0  0  0  0  0  0  0  0  0
  -45.7859  -30.2014   -7.1150 C   0  0  0  0  0  0  0  0  0  0  0  0
  -49.5597  -29.7412   -5.0880 C   0  0  0  0  0  0  0  0  0  0  0  0
  -48.4467  -29.0308   -4.6780 C   0  0  0  0  0  0  0  0  0  0  0  0
  -47.2206  -29.1878   -5.3185 C   0  0  0  0  0  0  0  0  0  0  0  0
  -49.4283  -30.6050   -6.1700 C   0  0  0  0  0  0  0  0  0  0  0  0
  -48.2134  -30.7567   -6.8200 C   0  0  0  0  0  0  0  0  0  0  0  0
  -47.1085  -30.0286   -6.3971 C   0  0  0  0  0  0  0  0  0  0  0  0
  -51.7596  -30.6949   -4.6748 C   0  0  0  0  0  0  0  0  0  0  0  0
  -50.7902  -29.6327   -4.4876 O   0  0  0  0  0  0  0  0  0  0  0  0
 25 26  1  0  0  0
 26 19  1  0  0  0
 19 20  1  0  0  0
 19 22  2  0  0  0
 20 21  2  0  0  0
 21 24  1  0  0  0
 22 23  1  0  0  0
 23 24  2  0  0  0
 24 18  1  0  0  0
 18  1  1  0  0  0
  1  2  1  0  0  0
  1  9  1  0  0  0
  2  3  2  0  0  0
  2  4  1  0  0  0
  4  5  1  0  0  0
  4  6  1  0  0  0
  6  7  1  0  0  0
  6  8  1  0  0  0
  8  9  1  0  0  0
  9 14  1  0  0  0
  9 10  1  0  0  0
 14 16  1  0  0  0
 14 15  2  0  0  0
  5 11  1  0  0  0
  7 12  1  0  0  0
 16 17  1  0  0  0
 10 13  1  0  0  0
M  END
> <minimizedAffinity>
-10.76804

$$$$
4B6O_3DQ_A_1144


 26 27  0  0  0  0  0  0  0  0999 V2000
  -45.0480  -28.8916   -7.2202 C   0  0  0  0  0  0  0  0  0  0  0  0
  -45.2486  -28.2738   -8.6170 C   0  0  0  0  0  0  0  0  0  0  0  0
  -46.0528  -27.3392   -8.8085 O   0  0  0  0  0  0  0  0  0  0  0  0
  -44.4317  -28.8663   -9.7724 C   0  0  0  0  0  0  0  0  0  0  0  0
  -44.5690  -28.0760  -10.9769 O   0  0  0  0  0  0  0  0  0  0  0  0
  -42.9556  -28.9478   -9.3535 C   0  0  0  0  0  0  0  0  0  0  0  0
  -42.2264  -29.6106  -10.3917 O   0  0  0  0  0  0  0  0  0  0  0  0
  -42.7871  -29.7340   -8.0482 C   0  0  0  0  0  0  0  0  0  0  0  0
  -43.5087  -29.0094   -6.8914 C   0  0  0  0  0  0  0  0  0  0  0  0
  -42.9483  -27.6528   -6.7958 O   0  0  0  0  0  0  0  0  0  0  0  0
  -44.2397  -27.1783  -10.8139 H   0  0  0  0  0  0  0  0  0  0  0  0
  -42.5790  -30.5060  -10.5134 H   0  0  0  0  0  0  0  0  0  0  0  0
  -43.0676  -27.1934   -7.6417 H   0  0  0  0  0  0  0  0  0  0  0  0
  -43.3168  -29.7356   -5.5450 C   0  0  0  0  0  0  0  0  0  0  0  0
  -42.7990  -30.8904   -5.5577 O   0  0  0  0  0  0  0  0  0  0  0  0
  -43.7011  -29.1293   -4.5043 O   0  0  0  0  0  0  0  0  0  0  0  0
  -44.0764  -28.2735   -4.5724 H   0  0  0  0  0  0  0  0  0  0  0  0
  -45.7808  -30.2501   -7.1658 C   0  0  0  0  0  0  0  0  0  0  0  0
  -49.5875  -29.8401   -5.1902 C   0  0  0  0  0  0  0  0  0  0  0  0
  -49.4415  -30.6872   -6.2731 C   0  0  0  0  0  0  0  0  0  0  0  0
  -48.2181  -30.8113   -6.9259 C   0  0  0  0  0  0  0  0  0  0  0  0
  -48.4749  -29.1269   -4.7568 C   0  0  0  0  0  0  0  0  0  0  0  0
  -47.2509  -29.2551   -5.3947 C   0  0  0  0  0  0  0  0  0  0  0  0
  -47.1231  -30.1169   -6.4767 C   0  0  0  0  0  0  0  0  0  0  0  0
  -51.7882  -30.7017   -4.6119 C   0  0  0  0  0  0  0  0  0  0  0  0
  -50.7717  -29.6719   -4.5152 O   0  0  0  0  0  0  0  0  0  0  0  0
 25 26  1  0  0  0
 26 19  1  0  0  0
 19 20  1  0  0  0
 19 22  2  0  0  0
 20 21  2  0  0  0
 21 24  1  0  0  0
 22 23  1  0  0  0
 23 24  2  0  0  0
 24 18  1  0  0  0
 18  1  1  0  0  0
  1  2  1  0  0  0
  1  9  1  0  0  0
  2  3  2  0  0  0
  2  4  1  0  0  0
  4  5  1  0  0  0
  4  6  1  0  0  0
  6  7  1  0  0  0
  6  8  1  0  0  0
  8  9  1  0  0  0
  9 14  1  0  0  0
  9 10  1  0  0  0
 14 16  1  0  0  0
 14 15  2  0  0  0
  5 11  1  0  0  0
  7 12  1  0  0  0
 16 17  1  0  0  0
 10 13  1  0  0  0
M  END
> <minimizedAffinity>
-10.59749

$$$$
4B6O_3DQ_A_1144


 26 27  0  0  0  0  0  0  0  0999 V2000
  -45.2919  -29.1199   -7.4086 C   0  0  0  0  0  0  0  0  0  0  0  0
  -45.1264  -28.3062   -8.7061 C   0  0  0  0  0  0  0  0  0  0  0  0
  -45.9830  -27.4749   -9.0694 O   0  0  0  0  0  0  0  0  0  0  0  0
  -43.8715  -28.5712   -9.5476 C   0  0  0  0  0  0  0  0  0  0  0  0
  -43.7453  -27.6133  -10.6251 O   0  0  0  0  0  0  0  0  0  0  0  0
  -42.6352  -28.5153   -8.6369 C   0  0  0  0  0  0  0  0  0  0  0  0
  -41.4871  -28.8812   -9.4094 O   0  0  0  0  0  0  0  0  0  0  0  0
  -42.7672  -29.4821   -7.4545 C   0  0  0  0  0  0  0  0  0  0  0  0
  -43.9600  -29.0752   -6.5626 C   0  0  0  0  0  0  0  0  0  0  0  0
  -43.7355  -27.6900   -6.1216 O   0  0  0  0  0  0  0  0  0  0  0  0
  -43.6685  -26.7197  -10.2558 H   0  0  0  0  0  0  0  0  0  0  0  0
  -41.5996  -29.7830   -9.7485 H   0  0  0  0  0  0  0  0  0  0  0  0
  -43.6497  -27.1137   -6.8971 H   0  0  0  0  0  0  0  0  0  0  0  0
  -44.0959  -29.9871   -5.3269 C   0  0  0  0  0  0  0  0  0  0  0  0
  -43.4049  -31.0468   -5.2879 O   0  0  0  0  0  0  0  0  0  0  0  0
  -44.9035  -29.6196   -4.4265 O   0  0  0  0  0  0  0  0  0  0  0  0
  -45.3823  -28.8201   -4.5244 H   0  0  0  0  0  0  0  0  0  0  0  0
  -45.7254  -30.5569   -7.7729 C   0  0  0  0  0  0  0  0  0  0  0  0
  -49.9207  -31.1804   -7.0166 C   0  0  0  0  0  0  0  0  0  0  0  0
  -49.1549  -30.4130   -6.1585 C   0  0  0  0  0  0  0  0  0  0  0  0
  -47.7953  -30.2217   -6.3887 C   0  0  0  0  0  0  0  0  0  0  0  0
  -49.3017  -31.7431   -8.1277 C   0  0  0  0  0  0  0  0  0  0  0  0
  -47.9510  -31.5463   -8.3693 C   0  0  0  0  0  0  0  0  0  0  0  0
  -47.2003  -30.7661   -7.4989 C   0  0  0  0  0  0  0  0  0  0  0  0
  -52.1705  -30.2799   -6.7999 C   0  0  0  0  0  0  0  0  0  0  0  0
  -51.2624  -31.4100   -6.8334 O   0  0  0  0  0  0  0  0  0  0  0  0
 25 26  1  0  0  0
 26 19  1  0  0  0
 19 20  1  0  0  0
 19 22  2  0  0  0
 20 21  2  0  0  0
 21 24  1  0  0  0
 22 23  1  0  0  0
 23 24  2  0  0  0
 24 18  1  0  0  0
 18  1  1  0  0  0
  1  2  1  0  0  0
  1  9  1  0  0  0
  2  3  2  0  0  0
  2  4  1  0  0  0
  4  5  1  0  0  0
  4  6  1  0  0  0
  6  7  1  0  0  0
  6  8  1  0  0  0
  8  9  1  0  0  0
  9 14  1  0  0  0
  9 10  1  0  0  0
 14 16  1  0  0  0
 14 15  2  0  0  0
  5 11  1  0  0  0
  7 12  1  0  0  0
 16 17  1  0  0  0
 10 13  1  0  0  0
M  END
> <minimizedAffinity>
-10.19378

$$$$
4B6O_3DQ_A_1144


 26 27  0  0  0  0  0  0  0  0999 V2000
  -46.0194  -30.2374   -6.6469 C   0  0  0  0  0  0  0  0  0  0  0  0
  -44.9328  -29.9110   -5.6049 C   0  0  0  0  0  0  0  0  0  0  0  0
  -44.9737  -30.3803   -4.4496 O   0  0  0  0  0  0  0  0  0  0  0  0
  -43.8031  -28.9680   -6.0383 C   0  0  0  0  0  0  0  0  0  0  0  0
  -42.7580  -28.9008   -5.0395 O   0  0  0  0  0  0  0  0  0  0  0  0
  -43.2295  -29.4541   -7.3783 C   0  0  0  0  0  0  0  0  0  0  0  0
  -42.2610  -28.5012   -7.8284 O   0  0  0  0  0  0  0  0  0  0  0  0
  -44.3264  -29.5875   -8.4410 C   0  0  0  0  0  0  0  0  0  0  0  0
  -45.3548  -30.6577   -8.0155 C   0  0  0  0  0  0  0  0  0  0  0  0
  -44.6271  -31.9196   -7.8108 O   0  0  0  0  0  0  0  0  0  0  0  0
  -42.3733  -29.7824   -4.9141 H   0  0  0  0  0  0  0  0  0  0  0  0
  -42.6886  -27.6394   -7.9522 H   0  0  0  0  0  0  0  0  0  0  0  0
  -43.9391  -31.7908   -7.1393 H   0  0  0  0  0  0  0  0  0  0  0  0
  -46.4469  -30.8672   -9.0834 C   0  0  0  0  0  0  0  0  0  0  0  0
  -47.2764  -31.8079   -8.9127 O   0  0  0  0  0  0  0  0  0  0  0  0
  -46.4389  -30.0843  -10.0759 O   0  0  0  0  0  0  0  0  0  0  0  0
  -45.7921  -29.4089  -10.1346 H   0  0  0  0  0  0  0  0  0  0  0  0
  -46.9607  -29.0205   -6.7837 C   0  0  0  0  0  0  0  0  0  0  0  0
  -51.0674  -30.1457   -6.1276 C   0  0  0  0  0  0  0  0  0  0  0  0
  -50.0979  -30.4300   -5.1837 C   0  0  0  0  0  0  0  0  0  0  0  0
  -48.7665  -30.0837   -5.3975 C   0  0  0  0  0  0  0  0  0  0  0  0
  -50.6819  -29.4878   -7.2906 C   0  0  0  0  0  0  0  0  0  0  0  0
  -49.3601  -29.1292   -7.5043 C   0  0  0  0  0  0  0  0  0  0  0  0
  -48.4021  -29.4175   -6.5405 C   0  0  0  0  0  0  0  0  0  0  0  0
  -52.7498  -31.5552   -5.0774 C   0  0  0  0  0  0  0  0  0  0  0  0
  -52.3925  -30.4723   -5.9734 O   0  0  0  0  0  0  0  0  0  0  0  0
 25 26  1  0  0  0
 26 19  1  0  0  0
 19 20  1  0  0  0
 19 22  2  0  0  0
 20 21  2  0  0  0
 21 24  1  0  0  0
 22 23  1  0  0  0
 23 24  2  0  0  0
 24 18  1  0  0  0
 18  1  1  0  0  0
  1  2  1  0  0  0
  1  9  1  0  0  0
  2  3  2  0  0  0
  2  4  1  0  0  0
  4  5  1  0  0  0
  4  6  1  0  0  0
  6  7  1  0  0  0
  6  8  1  0  0  0
  8  9  1  0  0  0
  9 14  1  0  0  0
  9 10  1  0  0  0
 14 16  1  0  0  0
 14 15  2  0  0  0
  5 11  1  0  0  0
  7 12  1  0  0  0
 16 17  1  0  0  0
 10 13  1  0  0  0
M  END
> <minimizedAffinity>
-9.23973

$$$$
4B6O_3DQ_A_1144


 26 27  0  0  0  0  0  0  0  0999 V2000
  -46.7250  -30.2326   -6.9941 C   0  0  0  0  0  0  0  0  0  0  0  0
  -45.7895  -29.4574   -6.0470 C   0  0  0  0  0  0  0  0  0  0  0  0
  -45.7845  -29.6680   -4.8172 O   0  0  0  0  0  0  0  0  0  0  0  0
  -44.8733  -28.3988   -6.6740 C   0  0  0  0  0  0  0  0  0  0  0  0
  -43.9195  -27.8885   -5.7127 O   0  0  0  0  0  0  0  0  0  0  0  0
  -44.1409  -29.0167   -7.8752 C   0  0  0  0  0  0  0  0  0  0  0  0
  -43.3831  -27.9884   -8.5211 O   0  0  0  0  0  0  0  0  0  0  0  0
  -45.1276  -29.6151   -8.8846 C   0  0  0  0  0  0  0  0  0  0  0  0
  -45.9168  -30.7736   -8.2374 C   0  0  0  0  0  0  0  0  0  0  0  0
  -44.9419  -31.7670   -7.7619 O   0  0  0  0  0  0  0  0  0  0  0  0
  -43.3581  -28.6141   -5.3977 H   0  0  0  0  0  0  0  0  0  0  0  0
  -43.9822  -27.2910   -8.8302 H   0  0  0  0  0  0  0  0  0  0  0  0
  -44.3332  -31.3477   -7.1337 H   0  0  0  0  0  0  0  0  0  0  0  0
  -46.8818  -31.4444   -9.2352 C   0  0  0  0  0  0  0  0  0  0  0  0
  -47.6616  -32.3417   -8.8007 O   0  0  0  0  0  0  0  0  0  0  0  0
  -46.8261  -31.0583  -10.4377 O   0  0  0  0  0  0  0  0  0  0  0  0
  -46.2218  -30.3869  -10.6867 H   0  0  0  0  0  0  0  0  0  0  0  0
  -47.9016  -29.3155   -7.3939 C   0  0  0  0  0  0  0  0  0  0  0  0
  -51.6622  -31.0877   -6.2629 C   0  0  0  0  0  0  0  0  0  0  0  0
  -51.6111  -30.0881   -7.2168 C   0  0  0  0  0  0  0  0  0  0  0  0
  -50.4009  -29.5001   -7.5743 C   0  0  0  0  0  0  0  0  0  0  0  0
  -50.4699  -31.5048   -5.6810 C   0  0  0  0  0  0  0  0  0  0  0  0
  -49.2601  -30.9321   -6.0414 C   0  0  0  0  0  0  0  0  0  0  0  0
  -49.2291  -29.9338   -7.0070 C   0  0  0  0  0  0  0  0  0  0  0  0
  -52.9944  -32.0515   -4.4696 C   0  0  0  0  0  0  0  0  0  0  0  0
  -52.8278  -31.6956   -5.8655 O   0  0  0  0  0  0  0  0  0  0  0  0
 25 26  1  0  0  0
 26 19  1  0  0  0
 19 20  1  0  0  0
 19 22  2  0  0  0
 20 21  2  0  0  0
 21 24  1  0  0  0
 22 23  1  0  0  0
 23 24  2  0  0  0
 24 18  1  0  0  0
 18  1  1  0  0  0
  1  2  1  0  0  0
  1  9  1  0  0  0
  2  3  2  0  0  0
  2  4  1  0  0  0
  4  5  1  0  0  0
  4  6  1  0  0  0
  6  7  1  0  0  0
  6  8  1  0  0  0
  8  9  1  0  0  0
  9 14  1  0  0  0
  9 10  1  0  0  0
 14 16  1  0  0  0
 14 15  2  0  0  0
  5 11  1  0  0  0
  7 12  1  0  0  0
 16 17  1  0  0  0
 10 13  1  0  0  0
M  END
> <minimizedAffinity>
-9.20185

$$$$
4B6O_3DQ_A_1144


 26 27  0  0  0  0  0  0  0  0999 V2000
  -49.3444  -30.7613   -5.9988 C   0  0  0  0  0  0  0  0  0  0  0  0
  -49.3052  -31.0827   -7.5049 C   0  0  0  0  0  0  0  0  0  0  0  0
  -48.4184  -31.8113   -7.9944 O   0  0  0  0  0  0  0  0  0  0  0  0
  -50.3922  -30.4551   -8.3868 C   0  0  0  0  0  0  0  0  0  0  0  0
  -50.3550  -30.9881   -9.7318 O   0  0  0  0  0  0  0  0  0  0  0  0
  -51.7664  -30.7121   -7.7493 C   0  0  0  0  0  0  0  0  0  0  0  0
  -52.7576  -30.0210   -8.5165 O   0  0  0  0  0  0  0  0  0  0  0  0
  -51.8155  -30.2060   -6.3030 C   0  0  0  0  0  0  0  0  0  0  0  0
  -50.8015  -30.9788   -5.4320 C   0  0  0  0  0  0  0  0  0  0  0  0
  -51.1293  -32.4094   -5.5285 O   0  0  0  0  0  0  0  0  0  0  0  0
  -50.5138  -31.9446   -9.7050 H   0  0  0  0  0  0  0  0  0  0  0  0
  -52.5685  -29.0697   -8.5071 H   0  0  0  0  0  0  0  0  0  0  0  0
  -51.0950  -32.6871   -6.4573 H   0  0  0  0  0  0  0  0  0  0  0  0
  -50.8572  -30.5422   -3.9545 C   0  0  0  0  0  0  0  0  0  0  0  0
  -50.5147  -29.3578   -3.6684 O   0  0  0  0  0  0  0  0  0  0  0  0
  -51.2364  -31.4061   -3.1131 O   0  0  0  0  0  0  0  0  0  0  0  0
  -51.4752  -32.2657   -3.3994 H   0  0  0  0  0  0  0  0  0  0  0  0
  -48.8226  -29.3239   -5.7818 C   0  0  0  0  0  0  0  0  0  0  0  0
  -44.5349  -29.2582   -5.3656 C   0  0  0  0  0  0  0  0  0  0  0  0
  -45.3317  -29.8103   -4.3797 C   0  0  0  0  0  0  0  0  0  0  0  0
  -46.7186  -29.8194   -4.5010 C   0  0  0  0  0  0  0  0  0  0  0  0
  -45.1535  -28.7272   -6.4923 C   0  0  0  0  0  0  0  0  0  0  0  0
  -46.5333  -28.7442   -6.6249 C   0  0  0  0  0  0  0  0  0  0  0  0
  -47.3159  -29.3099   -5.6263 C   0  0  0  0  0  0  0  0  0  0  0  0
  -42.3848  -29.8910   -6.3125 C   0  0  0  0  0  0  0  0  0  0  0  0
  -43.1641  -29.2137   -5.2941 O   0  0  0  0  0  0  0  0  0  0  0  0
 25 26  1  0  0  0
 26 19  1  0  0  0
 19 20  1  0  0  0
 19 22  2  0  0  0
 20 21  2  0  0  0
 21 24  1  0  0  0
 22 23  1  0  0  0
 23 24  2  0  0  0
 24 18  1  0  0  0
 18  1  1  0  0  0
  1  2  1  0  0  0
  1  9  1  0  0  0
  2  3  2  0  0  0
  2  4  1  0  0  0
  4  5  1  0  0  0
  4  6  1  0  0  0
  6  7  1  0  0  0
  6  8  1  0  0  0
  8  9  1  0  0  0
  9 14  1  0  0  0
  9 10  1  0  0  0
 14 16  1  0  0  0
 14 15  2  0  0  0
  5 11  1  0  0  0
  7 12  1  0  0  0
 16 17  1  0  0  0
 10 13  1  0  0  0
M  END
> <minimizedAffinity>
-8.95166

$$$$
4B6O_3DQ_A_1144


 26 27  0  0  0  0  0  0  0  0999 V2000
  -48.7526  -30.5053   -7.2943 C   0  0  0  0  0  0  0  0  0  0  0  0
  -49.8497  -31.1904   -8.1309 C   0  0  0  0  0  0  0  0  0  0  0  0
  -49.6540  -32.2879   -8.6914 O   0  0  0  0  0  0  0  0  0  0  0  0
  -51.1920  -30.4600   -8.2643 C   0  0  0  0  0  0  0  0  0  0  0  0
  -52.1862  -31.2935   -8.9056 O   0  0  0  0  0  0  0  0  0  0  0  0
  -51.6731  -30.0345   -6.8684 C   0  0  0  0  0  0  0  0  0  0  0  0
  -52.8624  -29.2524   -7.0184 O   0  0  0  0  0  0  0  0  0  0  0  0
  -50.6145  -29.1951   -6.1436 C   0  0  0  0  0  0  0  0  0  0  0  0
  -49.3391  -30.0325   -5.9072 C   0  0  0  0  0  0  0  0  0  0  0  0
  -49.7239  -31.2236   -5.1347 O   0  0  0  0  0  0  0  0  0  0  0  0
  -52.3358  -32.0884   -8.3702 H   0  0  0  0  0  0  0  0  0  0  0  0
  -52.6661  -28.4639   -7.5481 H   0  0  0  0  0  0  0  0  0  0  0  0
  -50.3988  -31.7211   -5.6225 H   0  0  0  0  0  0  0  0  0  0  0  0
  -48.2665  -29.2452   -5.1282 C   0  0  0  0  0  0  0  0  0  0  0  0
  -47.2554  -29.8756   -4.7012 O   0  0  0  0  0  0  0  0  0  0  0  0
  -48.4715  -28.0097   -4.9558 O   0  0  0  0  0  0  0  0  0  0  0  0
  -49.2452  -27.6104   -5.3020 H   0  0  0  0  0  0  0  0  0  0  0  0
  -48.1474  -29.3473   -8.1179 C   0  0  0  0  0  0  0  0  0  0  0  0
  -43.8560  -29.6530   -8.3466 C   0  0  0  0  0  0  0  0  0  0  0  0
  -44.6285  -30.7621   -8.0552 C   0  0  0  0  0  0  0  0  0  0  0  0
  -46.0143  -30.6660   -7.9636 C   0  0  0  0  0  0  0  0  0  0  0  0
  -44.5004  -28.4399   -8.5642 C   0  0  0  0  0  0  0  0  0  0  0  0
  -45.8809  -28.3400   -8.4866 C   0  0  0  0  0  0  0  0  0  0  0  0
  -46.6397  -29.4676   -8.1994 C   0  0  0  0  0  0  0  0  0  0  0  0
  -41.7973  -28.5868   -9.0846 C   0  0  0  0  0  0  0  0  0  0  0  0
  -42.4863  -29.6882   -8.4401 O   0  0  0  0  0  0  0  0  0  0  0  0
 25 26  1  0  0  0
 26 19  1  0  0  0
 19 20  1  0  0  0
 19 22  2  0  0  0
 20 21  2  0  0  0
 21 24  1  0  0  0
 22 23  1  0  0  0
 23 24  2  0  0  0
 24 18  1  0  0  0
 18  1  1  0  0  0
  1  2  1  0  0  0
  1  9  1  0  0  0
  2  3  2  0  0  0
  2  4  1  0  0  0
  4  5  1  0  0  0
  4  6  1  0  0  0
  6  7  1  0  0  0
  6  8  1  0  0  0
  8  9  1  0  0  0
  9 14  1  0  0  0
  9 10  1  0  0  0
 14 16  1  0  0  0
 14 15  2  0  0  0
  5 11  1  0  0  0
  7 12  1  0  0  0
 16 17  1  0  0  0
 10 13  1  0  0  0
M  END
> <minimizedAffinity>
-8.44273

$$$$
4B6O_3DQ_A_1144


 26 27  0  0  0  0  0  0  0  0999 V2000
  -44.4511  -30.4146   -8.1466 C   0  0  0  0  0  0  0  0  0  0  0  0
  -44.7095  -29.6182   -6.8535 C   0  0  0  0  0  0  0  0  0  0  0  0
  -45.2650  -30.1395   -5.8653 O   0  0  0  0  0  0  0  0  0  0  0  0
  -44.2723  -28.1479   -6.8334 C   0  0  0  0  0  0  0  0  0  0  0  0
  -44.3946  -27.5779   -5.5088 O   0  0  0  0  0  0  0  0  0  0  0  0
  -42.8196  -28.0494   -7.3242 C   0  0  0  0  0  0  0  0  0  0  0  0
  -42.4651  -26.6655   -7.4140 O   0  0  0  0  0  0  0  0  0  0  0  0
  -42.6501  -28.6961   -8.7039 C   0  0  0  0  0  0  0  0  0  0  0  0
  -42.9622  -30.2063   -8.6276 C   0  0  0  0  0  0  0  0  0  0  0  0
  -42.0626  -30.7980   -7.6255 O   0  0  0  0  0  0  0  0  0  0  0  0
  -43.8226  -28.0632   -4.8939 H   0  0  0  0  0  0  0  0  0  0  0  0
  -43.0518  -26.2218   -8.0462 H   0  0  0  0  0  0  0  0  0  0  0  0
  -42.1950  -30.3570   -6.7717 H   0  0  0  0  0  0  0  0  0  0  0  0
  -42.7483  -30.9102   -9.9825 C   0  0  0  0  0  0  0  0  0  0  0  0
  -42.6477  -32.1719   -9.9907 O   0  0  0  0  0  0  0  0  0  0  0  0
  -42.6772  -30.1747  -11.0082 O   0  0  0  0  0  0  0  0  0  0  0  0
  -42.7611  -29.2452  -10.9248 H   0  0  0  0  0  0  0  0  0  0  0  0
  -45.4910  -29.9933   -9.2080 C   0  0  0  0  0  0  0  0  0  0  0  0
  -49.4983  -30.5559   -7.7291 C   0  0  0  0  0  0  0  0  0  0  0  0
  -48.9595  -29.2878   -7.8438 C   0  0  0  0  0  0  0  0  0  0  0  0
  -47.6593  -29.1008   -8.3053 C   0  0  0  0  0  0  0  0  0  0  0  0
  -48.7140  -31.6415   -8.1040 C   0  0  0  0  0  0  0  0  0  0  0  0
  -47.4231  -31.4615   -8.5759 C   0  0  0  0  0  0  0  0  0  0  0  0
  -46.9024  -30.1787   -8.6903 C   0  0  0  0  0  0  0  0  0  0  0  0
  -51.8464  -29.9201   -7.6865 C   0  0  0  0  0  0  0  0  0  0  0  0
  -50.7702  -30.7991   -7.2716 O   0  0  0  0  0  0  0  0  0  0  0  0
 25 26  1  0  0  0
 26 19  1  0  0  0
 19 20  1  0  0  0
 19 22  2  0  0  0
 20 21  2  0  0  0
 21 24  1  0  0  0
 22 23  1  0  0  0
 23 24  2  0  0  0
 24 18  1  0  0  0
 18  1  1  0  0  0
  1  2  1  0  0  0
  1  9  1  0  0  0
  2  3  2  0  0  0
  2  4  1  0  0  0
  4  5  1  0  0  0
  4  6  1  0  0  0
  6  7  1  0  0  0
  6  8  1  0  0  0
  8  9  1  0  0  0
  9 14  1  0  0  0
  9 10  1  0  0  0
 14 16  1  0  0  0
 14 15  2  0  0  0
  5 11  1  0  0  0
  7 12  1  0  0  0
 16 17  1  0  0  0
 10 13  1  0  0  0
M  END
> <minimizedAffinity>
-8.07423

$$$$
4B6O_3DQ_A_1144


 26 27  0  0  0  0  0  0  0  0999 V2000
  -48.5103  -29.7682   -7.1255 C   0  0  0  0  0  0  0  0  0  0  0  0
  -48.8059  -28.8700   -5.9095 C   0  0  0  0  0  0  0  0  0  0  0  0
  -48.5347  -27.6521   -5.9158 O   0  0  0  0  0  0  0  0  0  0  0  0
  -49.4324  -29.5365   -4.6780 C   0  0  0  0  0  0  0  0  0  0  0  0
  -49.8328  -28.5558   -3.6921 O   0  0  0  0  0  0  0  0  0  0  0  0
  -50.6433  -30.3723   -5.1210 C   0  0  0  0  0  0  0  0  0  0  0  0
  -51.1442  -31.0817   -3.9833 O   0  0  0  0  0  0  0  0  0  0  0  0
  -50.2579  -31.3836   -6.2069 C   0  0  0  0  0  0  0  0  0  0  0  0
  -49.7740  -30.6473   -7.4748 C   0  0  0  0  0  0  0  0  0  0  0  0
  -50.8565  -29.7525   -7.9119 O   0  0  0  0  0  0  0  0  0  0  0  0
  -50.4982  -27.9638   -4.0765 H   0  0  0  0  0  0  0  0  0  0  0  0
  -50.4534  -31.6690   -3.6385 H   0  0  0  0  0  0  0  0  0  0  0  0
  -51.0752  -29.1358   -7.1959 H   0  0  0  0  0  0  0  0  0  0  0  0
  -49.4299  -31.6254   -8.6158 C   0  0  0  0  0  0  0  0  0  0  0  0
  -49.4492  -32.8659   -8.3652 O   0  0  0  0  0  0  0  0  0  0  0  0
  -49.1387  -31.1211   -9.7379 O   0  0  0  0  0  0  0  0  0  0  0  0
  -49.1455  -30.1908   -9.8493 H   0  0  0  0  0  0  0  0  0  0  0  0
  -47.2528  -30.6139   -6.8270 C   0  0  0  0  0  0  0  0  0  0  0  0
  -43.9173  -29.2628   -9.1957 C   0  0  0  0  0  0  0  0  0  0  0  0
  -43.8744  -30.4830   -8.5470 C   0  0  0  0  0  0  0  0  0  0  0  0
  -44.9425  -30.9175   -7.7667 C   0  0  0  0  0  0  0  0  0  0  0  0
  -45.0635  -28.4862   -9.0637 C   0  0  0  0  0  0  0  0  0  0  0  0
  -46.1353  -28.9185   -8.2984 C   0  0  0  0  0  0  0  0  0  0  0  0
  -46.0756  -30.1509   -7.6602 C   0  0  0  0  0  0  0  0  0  0  0  0
  -41.8609  -27.9711   -9.3467 C   0  0  0  0  0  0  0  0  0  0  0  0
  -42.8902  -28.7807   -9.9697 O   0  0  0  0  0  0  0  0  0  0  0  0
 25 26  1  0  0  0
 26 19  1  0  0  0
 19 20  1  0  0  0
 19 22  2  0  0  0
 20 21  2  0  0  0
 21 24  1  0  0  0
 22 23  1  0  0  0
 23 24  2  0  0  0
 24 18  1  0  0  0
 18  1  1  0  0  0
  1  2  1  0  0  0
  1  9  1  0  0  0
  2  3  2  0  0  0
  2  4  1  0  0  0
  4  5  1  0  0  0
  4  6  1  0  0  0
  6  7  1  0  0  0
  6  8  1  0  0  0
  8  9  1  0  0  0
  9 14  1  0  0  0
  9 10  1  0  0  0
 14 16  1  0  0  0
 14 15  2  0  0  0
  5 11  1  0  0  0
  7 12  1  0  0  0
 16 17  1  0  0  0
 10 13  1  0  0  0
M  END
> <minimizedAffinity>
-7.86502

$$$$
