2WK6_IUR_A_1482


 11 11  0  0  0  0  0  0  0  0999 V2000
   20.7861   16.8166   44.8488 N   0  0  0  0  0  0  0  0  0  0  0  0
   20.6916   18.0976   44.2352 C   0  0  0  0  0  0  0  0  0  0  0  0
   21.5774   18.6920   43.6736 O   0  0  0  0  0  0  0  0  0  0  0  0
   19.3999   18.6844   44.3206 N   0  0  0  0  0  0  0  0  0  0  0  0
   18.2322   18.1607   44.9360 C   0  0  0  0  0  0  0  0  0  0  0  0
   17.1807   18.7961   44.9297 O   0  0  0  0  0  0  0  0  0  0  0  0
   18.4233   16.8331   45.5511 C   0  0  0  0  0  0  0  0  0  0  0  0
   19.6848   16.2179   45.4837 C   0  0  0  0  0  0  0  0  0  0  0  0
   16.7999   15.9137   46.5272 I   0  0  0  0  0  0  0  0  0  0  0  0
   21.6459   16.3374   44.8277 H   0  0  0  0  0  0  0  0  0  0  0  0
   19.3021   19.5684   43.8984 H   0  0  0  0  0  0  0  0  0  0  0  0
  1  2  1  0  0  0
  1  8  1  0  0  0
  2  3  2  0  0  0
  2  4  1  0  0  0
  4  5  1  0  0  0
  5  6  2  0  0  0
  5  7  1  0  0  0
  7  8  2  0  0  0
  7  9  1  0  0  0
  1 10  1  0  0  0
  4 11  1  0  0  0
M  END
> <minimizedAffinity>
-5.04921

$$$$
2WK6_IUR_A_1482


 11 11  0  0  0  0  0  0  0  0999 V2000
   22.0266   16.7924   45.0806 N   0  0  0  0  0  0  0  0  0  0  0  0
   21.4923   17.5372   46.1698 C   0  0  0  0  0  0  0  0  0  0  0  0
   21.9281   17.5800   47.2930 O   0  0  0  0  0  0  0  0  0  0  0  0
   20.3321   18.2893   45.8405 N   0  0  0  0  0  0  0  0  0  0  0  0
   19.6605   18.3733   44.5921 C   0  0  0  0  0  0  0  0  0  0  0  0
   18.6571   19.0709   44.4651 O   0  0  0  0  0  0  0  0  0  0  0  0
   20.2790   17.5655   43.5235 C   0  0  0  0  0  0  0  0  0  0  0  0
   21.4301   16.8117   43.8086 C   0  0  0  0  0  0  0  0  0  0  0  0
   19.4018   17.5559   41.6093 I   0  0  0  0  0  0  0  0  0  0  0  0
   22.8354   16.2494   45.2224 H   0  0  0  0  0  0  0  0  0  0  0  0
   19.9439   18.8207   46.5726 H   0  0  0  0  0  0  0  0  0  0  0  0
  1  2  1  0  0  0
  1  8  1  0  0  0
  2  3  2  0  0  0
  2  4  1  0  0  0
  4  5  1  0  0  0
  5  6  2  0  0  0
  5  7  1  0  0  0
  7  8  2  0  0  0
  7  9  1  0  0  0
  1 10  1  0  0  0
  4 11  1  0  0  0
M  END
> <minimizedAffinity>
-4.90983

$$$$
2WK6_IUR_A_1482


 11 11  0  0  0  0  0  0  0  0999 V2000
   16.9513   16.2109   45.7959 N   0  0  0  0  0  0  0  0  0  0  0  0
   15.7028   16.7827   46.1708 C   0  0  0  0  0  0  0  0  0  0  0  0
   15.1316   17.6876   45.6155 O   0  0  0  0  0  0  0  0  0  0  0  0
   15.1156   16.1846   47.3186 N   0  0  0  0  0  0  0  0  0  0  0  0
   15.6194   15.1221   48.1148 C   0  0  0  0  0  0  0  0  0  0  0  0
   14.9902   14.7144   49.0881 O   0  0  0  0  0  0  0  0  0  0  0  0
   16.9195   14.5952   47.6573 C   0  0  0  0  0  0  0  0  0  0  0  0
   17.5300   15.1572   46.5233 C   0  0  0  0  0  0  0  0  0  0  0  0
   17.8254   13.0286   48.7338 I   0  0  0  0  0  0  0  0  0  0  0  0
   17.4218   16.5630   45.0060 H   0  0  0  0  0  0  0  0  0  0  0  0
   14.2471   16.5548   47.5979 H   0  0  0  0  0  0  0  0  0  0  0  0
  1  2  1  0  0  0
  1  8  1  0  0  0
  2  3  2  0  0  0
  2  4  1  0  0  0
  4  5  1  0  0  0
  5  6  2  0  0  0
  5  7  1  0  0  0
  7  8  2  0  0  0
  7  9  1  0  0  0
  1 10  1  0  0  0
  4 11  1  0  0  0
M  END
> <minimizedAffinity>
-4.66145

$$$$
2WK6_IUR_A_1482


 11 11  0  0  0  0  0  0  0  0999 V2000
   18.6969   15.7225   46.4061 N   0  0  0  0  0  0  0  0  0  0  0  0
   17.4669   16.4379   46.3643 C   0  0  0  0  0  0  0  0  0  0  0  0
   16.4785   16.2054   47.0142 O   0  0  0  0  0  0  0  0  0  0  0  0
   17.4633   17.5267   45.4508 N   0  0  0  0  0  0  0  0  0  0  0  0
   18.5092   17.9636   44.5953 C   0  0  0  0  0  0  0  0  0  0  0  0
   18.3501   18.9291   43.8523 O   0  0  0  0  0  0  0  0  0  0  0  0
   19.7433   17.1616   44.7001 C   0  0  0  0  0  0  0  0  0  0  0  0
   19.7877   16.0796   45.5955 C   0  0  0  0  0  0  0  0  0  0  0  0
   21.3919   17.6564   43.4873 I   0  0  0  0  0  0  0  0  0  0  0  0
   18.7857   14.9574   47.0191 H   0  0  0  0  0  0  0  0  0  0  0  0
   16.6276   18.0451   45.4052 H   0  0  0  0  0  0  0  0  0  0  0  0
  1  2  1  0  0  0
  1  8  1  0  0  0
  2  3  2  0  0  0
  2  4  1  0  0  0
  4  5  1  0  0  0
  5  6  2  0  0  0
  5  7  1  0  0  0
  7  8  2  0  0  0
  7  9  1  0  0  0
  1 10  1  0  0  0
  4 11  1  0  0  0
M  END
> <minimizedAffinity>
-4.62469

$$$$
2WK6_IUR_A_1482


 11 11  0  0  0  0  0  0  0  0999 V2000
   19.7282   18.0313   43.3665 N   0  0  0  0  0  0  0  0  0  0  0  0
   21.1055   17.9542   43.7181 C   0  0  0  0  0  0  0  0  0  0  0  0
   22.0306   18.4254   43.1053 O   0  0  0  0  0  0  0  0  0  0  0  0
   21.3544   17.2428   44.9231 N   0  0  0  0  0  0  0  0  0  0  0  0
   20.4181   16.6120   45.7844 C   0  0  0  0  0  0  0  0  0  0  0  0
   20.7927   16.0270   46.7978 O   0  0  0  0  0  0  0  0  0  0  0  0
   19.0167   16.7368   45.3399 C   0  0  0  0  0  0  0  0  0  0  0  0
   18.7293   17.4368   44.1559 C   0  0  0  0  0  0  0  0  0  0  0  0
   17.4949   15.8428   46.4882 I   0  0  0  0  0  0  0  0  0  0  0  0
   19.4687   18.5139   42.5486 H   0  0  0  0  0  0  0  0  0  0  0  0
   22.2982   17.1790   45.1959 H   0  0  0  0  0  0  0  0  0  0  0  0
  1  2  1  0  0  0
  1  8  1  0  0  0
  2  3  2  0  0  0
  2  4  1  0  0  0
  4  5  1  0  0  0
  5  6  2  0  0  0
  5  7  1  0  0  0
  7  8  2  0  0  0
  7  9  1  0  0  0
  1 10  1  0  0  0
  4 11  1  0  0  0
M  END
> <minimizedAffinity>
-4.55363

$$$$
2WK6_IUR_A_1482


 11 11  0  0  0  0  0  0  0  0999 V2000
   18.7132   18.3837   44.4844 N   0  0  0  0  0  0  0  0  0  0  0  0
   20.1160   18.5046   44.6940 C   0  0  0  0  0  0  0  0  0  0  0  0
   20.8494   19.3196   44.1926 O   0  0  0  0  0  0  0  0  0  0  0  0
   20.6493   17.5453   45.5969 N   0  0  0  0  0  0  0  0  0  0  0  0
   19.9673   16.5072   46.2851 C   0  0  0  0  0  0  0  0  0  0  0  0
   20.5743   15.7481   47.0366 O   0  0  0  0  0  0  0  0  0  0  0  0
   18.5198   16.4524   46.0040 C   0  0  0  0  0  0  0  0  0  0  0  0
   17.9540   17.3868   45.1201 C   0  0  0  0  0  0  0  0  0  0  0  0
   17.3537   14.9604   46.9247 I   0  0  0  0  0  0  0  0  0  0  0  0
   18.2631   19.0152   43.8779 H   0  0  0  0  0  0  0  0  0  0  0  0
   21.6169   17.6088   45.7674 H   0  0  0  0  0  0  0  0  0  0  0  0
  1  2  1  0  0  0
  1  8  1  0  0  0
  2  3  2  0  0  0
  2  4  1  0  0  0
  4  5  1  0  0  0
  5  6  2  0  0  0
  5  7  1  0  0  0
  7  8  2  0  0  0
  7  9  1  0  0  0
  1 10  1  0  0  0
  4 11  1  0  0  0
M  END
> <minimizedAffinity>
-4.53403

$$$$
2WK6_IUR_A_1482


 11 11  0  0  0  0  0  0  0  0999 V2000
   20.2376   17.0846   45.2962 N   0  0  0  0  0  0  0  0  0  0  0  0
   19.5867   18.2261   44.7488 C   0  0  0  0  0  0  0  0  0  0  0  0
   20.1116   19.1412   44.1652 O   0  0  0  0  0  0  0  0  0  0  0  0
   18.1777   18.2317   44.9353 N   0  0  0  0  0  0  0  0  0  0  0  0
   17.3712   17.2649   45.5921 C   0  0  0  0  0  0  0  0  0  0  0  0
   16.1546   17.4148   45.6756 O   0  0  0  0  0  0  0  0  0  0  0  0
   18.1291   16.1204   46.1332 C   0  0  0  0  0  0  0  0  0  0  0  0
   19.5234   16.0762   45.9650 C   0  0  0  0  0  0  0  0  0  0  0  0
   17.0942   14.5994   47.1575 I   0  0  0  0  0  0  0  0  0  0  0  0
   21.2140   16.9993   45.2036 H   0  0  0  0  0  0  0  0  0  0  0  0
   17.6989   19.0061   44.5607 H   0  0  0  0  0  0  0  0  0  0  0  0
  1  2  1  0  0  0
  1  8  1  0  0  0
  2  3  2  0  0  0
  2  4  1  0  0  0
  4  5  1  0  0  0
  5  6  2  0  0  0
  5  7  1  0  0  0
  7  8  2  0  0  0
  7  9  1  0  0  0
  1 10  1  0  0  0
  4 11  1  0  0  0
M  END
> <minimizedAffinity>
-4.41310

$$$$
2WK6_IUR_A_1482


 11 11  0  0  0  0  0  0  0  0999 V2000
   16.6694   14.5156   47.9666 N   0  0  0  0  0  0  0  0  0  0  0  0
   15.3968   15.1336   48.1249 C   0  0  0  0  0  0  0  0  0  0  0  0
   14.5151   14.7819   48.8680 O   0  0  0  0  0  0  0  0  0  0  0  0
   15.2042   16.2768   47.3026 N   0  0  0  0  0  0  0  0  0  0  0  0
   16.1030   16.8499   46.3644 C   0  0  0  0  0  0  0  0  0  0  0  0
   15.7863   17.8470   45.7202 O   0  0  0  0  0  0  0  0  0  0  0  0
   17.3935   16.1419   46.2616 C   0  0  0  0  0  0  0  0  0  0  0  0
   17.6238   15.0098   47.0615 C   0  0  0  0  0  0  0  0  0  0  0  0
   18.8407   16.8434   44.9025 I   0  0  0  0  0  0  0  0  0  0  0  0
   16.8865   13.7208   48.5055 H   0  0  0  0  0  0  0  0  0  0  0  0
   14.3352   16.7300   47.3956 H   0  0  0  0  0  0  0  0  0  0  0  0
  1  2  1  0  0  0
  1  8  1  0  0  0
  2  3  2  0  0  0
  2  4  1  0  0  0
  4  5  1  0  0  0
  5  6  2  0  0  0
  5  7  1  0  0  0
  7  8  2  0  0  0
  7  9  1  0  0  0
  1 10  1  0  0  0
  4 11  1  0  0  0
M  END
> <minimizedAffinity>
-4.31083

$$$$
2WK6_IUR_A_1482


 11 11  0  0  0  0  0  0  0  0999 V2000
   21.5372   16.5764   46.5809 N   0  0  0  0  0  0  0  0  0  0  0  0
   20.6403   15.6797   47.2274 C   0  0  0  0  0  0  0  0  0  0  0  0
   20.8954   14.9533   48.1551 O   0  0  0  0  0  0  0  0  0  0  0  0
   19.3263   15.6873   46.6856 N   0  0  0  0  0  0  0  0  0  0  0  0
   18.8236   16.4552   45.6020 C   0  0  0  0  0  0  0  0  0  0  0  0
   17.6529   16.3461   45.2455 O   0  0  0  0  0  0  0  0  0  0  0  0
   19.8225   17.3513   44.9885 C   0  0  0  0  0  0  0  0  0  0  0  0
   21.1314   17.3759   45.4990 C   0  0  0  0  0  0  0  0  0  0  0  0
   19.2548   18.5506   43.3536 I   0  0  0  0  0  0  0  0  0  0  0  0
   22.4664   16.6380   46.9002 H   0  0  0  0  0  0  0  0  0  0  0  0
   18.6812   15.0819   47.1175 H   0  0  0  0  0  0  0  0  0  0  0  0
  1  2  1  0  0  0
  1  8  1  0  0  0
  2  3  2  0  0  0
  2  4  1  0  0  0
  4  5  1  0  0  0
  5  6  2  0  0  0
  5  7  1  0  0  0
  7  8  2  0  0  0
  7  9  1  0  0  0
  1 10  1  0  0  0
  4 11  1  0  0  0
M  END
> <minimizedAffinity>
-4.23145

$$$$
2WK6_IUR_A_1482


 11 11  0  0  0  0  0  0  0  0999 V2000
   17.0821   15.9262   45.8233 N   0  0  0  0  0  0  0  0  0  0  0  0
   17.5968   15.0754   46.8419 C   0  0  0  0  0  0  0  0  0  0  0  0
   16.9754   14.2647   47.4824 O   0  0  0  0  0  0  0  0  0  0  0  0
   18.9881   15.2387   47.0818 N   0  0  0  0  0  0  0  0  0  0  0  0
   19.8934   16.1312   46.4490 C   0  0  0  0  0  0  0  0  0  0  0  0
   21.0783   16.1573   46.7727 O   0  0  0  0  0  0  0  0  0  0  0  0
   19.2732   16.9781   45.4120 C   0  0  0  0  0  0  0  0  0  0  0  0
   17.9008   16.8429   45.1423 C   0  0  0  0  0  0  0  0  0  0  0  0
   20.4656   18.3760   44.3836 I   0  0  0  0  0  0  0  0  0  0  0  0
   16.1273   15.8709   45.5898 H   0  0  0  0  0  0  0  0  0  0  0  0
   19.3742   14.6580   47.7767 H   0  0  0  0  0  0  0  0  0  0  0  0
  1  2  1  0  0  0
  1  8  1  0  0  0
  2  3  2  0  0  0
  2  4  1  0  0  0
  4  5  1  0  0  0
  5  6  2  0  0  0
  5  7  1  0  0  0
  7  8  2  0  0  0
  7  9  1  0  0  0
  1 10  1  0  0  0
  4 11  1  0  0  0
M  END
> <minimizedAffinity>
-4.14462

$$$$
