4IVC_1J6_A_1201


 26 29  0  0  0  0  0  0  0  0999 V2000
    8.5162   57.5647   -0.5177 C   0  0  0  0  0  0  0  0  0  0  0  0
    7.3781   57.1680    0.1216 N   0  0  0  0  0  0  0  0  0  0  0  0
    6.5782   58.2992    0.2396 C   0  0  0  0  0  0  0  0  0  0  0  0
    7.2929   59.3549   -0.3683 C   0  0  0  0  0  0  0  0  0  0  0  0
    8.4688   58.8368   -0.7968 N   0  0  0  0  0  0  0  0  0  0  0  0
    6.7336   60.6368   -0.4218 C   0  0  0  0  0  0  0  0  0  0  0  0
    5.5466   60.9011    0.0748 N   0  0  0  0  0  0  0  0  0  0  0  0
    4.8267   59.9347    0.6427 C   0  0  0  0  0  0  0  0  0  0  0  0
    5.3131   58.6142    0.7516 C   0  0  0  0  0  0  0  0  0  0  0  0
    4.2600   57.8437    1.4100 C   0  0  0  0  0  0  0  0  0  0  0  0
    3.2538   58.6884    1.6513 C   0  0  0  0  0  0  0  0  0  0  0  0
    3.5986   59.9446    1.2090 N   0  0  0  0  0  0  0  0  0  0  0  0
    3.0285   60.7427    1.2934 H   0  0  0  0  0  0  0  0  0  0  0  0
    7.1186   55.7992    0.5844 C   0  0  0  0  0  0  0  0  0  0  0  0
    6.8653   55.8011    2.1030 C   0  0  0  0  0  0  0  0  0  0  0  0
    6.5916   54.3714    2.5832 C   0  0  0  0  0  0  0  0  0  0  0  0
    5.4741   53.6628    1.8020 C   0  0  0  0  0  0  0  0  0  0  0  0
    5.6712   53.7489    0.2667 C   0  0  0  0  0  0  0  0  0  0  0  0
    5.9240   55.1965   -0.1657 C   0  0  0  0  0  0  0  0  0  0  0  0
    5.4247   52.1908    2.2858 C   0  0  0  0  0  0  0  0  0  0  0  0
    4.1837   51.5691    1.7401 C   0  0  0  0  0  0  0  0  0  0  0  0
    3.2213   51.2018    1.2284 N   0  0  0  0  0  0  0  0  0  0  0  0
   10.5247   57.1802   -1.9974 C   0  0  0  0  0  0  0  0  0  0  0  0
    9.6706   56.6521   -0.8344 C   0  0  0  0  0  0  0  0  0  0  0  0
   10.4360   56.5178    0.3696 O   0  0  0  0  0  0  0  0  0  0  0  0
   10.7530   57.3905    0.6502 H   0  0  0  0  0  0  0  0  0  0  0  0
 23 24  1  0  0  0
  5  1  2  0  0  0
  5  4  1  0  0  0
 24  1  1  0  0  0
 24 25  1  0  0  0
  6  4  1  0  0  0
  6  7  2  0  0  0
  1  2  1  0  0  0
  4  3  2  0  0  0
 19 18  1  0  0  0
 19 14  1  0  0  0
  7  8  1  0  0  0
  2  3  1  0  0  0
  2 14  1  0  0  0
  3  9  1  0  0  0
 18 17  1  0  0  0
  8  9  2  0  0  0
  8 12  1  0  0  0
 14 15  1  0  0  0
  9 10  1  0  0  0
 12 11  1  0  0  0
 22 21  3  0  0  0
 10 11  2  0  0  0
 21 20  1  0  0  0
 17 20  1  0  0  0
 17 16  1  0  0  0
 15 16  1  0  0  0
 25 26  1  0  0  0
 12 13  1  0  0  0
M  END
> <minimizedAffinity>
-9.72472

$$$$
4IVC_1J6_A_1201


 26 29  0  0  0  0  0  0  0  0999 V2000
    9.5518   55.2241    0.2224 C   0  0  0  0  0  0  0  0  0  0  0  0
    8.2081   55.3140    0.4417 N   0  0  0  0  0  0  0  0  0  0  0  0
    7.8572   56.6373    0.1984 C   0  0  0  0  0  0  0  0  0  0  0  0
    9.0456   57.2986   -0.1824 C   0  0  0  0  0  0  0  0  0  0  0  0
   10.0390   56.3790   -0.1344 N   0  0  0  0  0  0  0  0  0  0  0  0
    9.0133   58.6590   -0.5101 C   0  0  0  0  0  0  0  0  0  0  0  0
    7.9007   59.3568   -0.4826 N   0  0  0  0  0  0  0  0  0  0  0  0
    6.7512   58.7733   -0.1466 C   0  0  0  0  0  0  0  0  0  0  0  0
    6.6884   57.4089    0.2095 C   0  0  0  0  0  0  0  0  0  0  0  0
    5.2840   57.1266    0.5000 C   0  0  0  0  0  0  0  0  0  0  0  0
    4.6127   58.2667    0.3168 C   0  0  0  0  0  0  0  0  0  0  0  0
    5.4921   59.2580   -0.0526 N   0  0  0  0  0  0  0  0  0  0  0  0
    5.2391   60.1936   -0.2253 H   0  0  0  0  0  0  0  0  0  0  0  0
    7.3587   54.1950    0.8676 C   0  0  0  0  0  0  0  0  0  0  0  0
    6.9116   54.4049    2.3258 C   0  0  0  0  0  0  0  0  0  0  0  0
    6.0224   53.2368    2.7671 C   0  0  0  0  0  0  0  0  0  0  0  0
    4.8398   52.9722    1.8222 C   0  0  0  0  0  0  0  0  0  0  0  0
    5.2736   52.8640    0.3378 C   0  0  0  0  0  0  0  0  0  0  0  0
    6.1442   54.0600   -0.0597 C   0  0  0  0  0  0  0  0  0  0  0  0
    4.1361   51.6774    2.3033 C   0  0  0  0  0  0  0  0  0  0  0  0
    3.1160   51.3021    1.2821 C   0  0  0  0  0  0  0  0  0  0  0  0
    2.4197   50.9065    0.4565 N   0  0  0  0  0  0  0  0  0  0  0  0
   10.9950   53.5012   -0.9264 C   0  0  0  0  0  0  0  0  0  0  0  0
   10.3541   53.9619    0.3918 C   0  0  0  0  0  0  0  0  0  0  0  0
   11.3392   54.2281    1.3979 O   0  0  0  0  0  0  0  0  0  0  0  0
   11.9056   54.9610    1.1098 H   0  0  0  0  0  0  0  0  0  0  0  0
 23 24  1  0  0  0
  5  1  2  0  0  0
  5  4  1  0  0  0
 24  1  1  0  0  0
 24 25  1  0  0  0
  6  4  1  0  0  0
  6  7  2  0  0  0
  1  2  1  0  0  0
  4  3  2  0  0  0
 19 18  1  0  0  0
 19 14  1  0  0  0
  7  8  1  0  0  0
  2  3  1  0  0  0
  2 14  1  0  0  0
  3  9  1  0  0  0
 18 17  1  0  0  0
  8  9  2  0  0  0
  8 12  1  0  0  0
 14 15  1  0  0  0
  9 10  1  0  0  0
 12 11  1  0  0  0
 22 21  3  0  0  0
 10 11  2  0  0  0
 21 20  1  0  0  0
 17 20  1  0  0  0
 17 16  1  0  0  0
 15 16  1  0  0  0
 25 26  1  0  0  0
 12 13  1  0  0  0
M  END
> <minimizedAffinity>
-8.34301

$$$$
4IVC_1J6_A_1201


 26 29  0  0  0  0  0  0  0  0999 V2000
    5.7539   52.3212    1.6185 C   0  0  0  0  0  0  0  0  0  0  0  0
    6.3648   53.5069    1.3314 N   0  0  0  0  0  0  0  0  0  0  0  0
    7.7269   53.2390    1.2525 C   0  0  0  0  0  0  0  0  0  0  0  0
    7.8726   51.8545    1.4902 C   0  0  0  0  0  0  0  0  0  0  0  0
    6.6310   51.3625    1.7166 N   0  0  0  0  0  0  0  0  0  0  0  0
    9.1447   51.2713    1.4622 C   0  0  0  0  0  0  0  0  0  0  0  0
   10.2278   51.9719    1.2136 N   0  0  0  0  0  0  0  0  0  0  0  0
   10.1396   53.2779    0.9661 C   0  0  0  0  0  0  0  0  0  0  0  0
    8.9008   53.9540    0.9833 C   0  0  0  0  0  0  0  0  0  0  0  0
    9.1922   55.3496    0.6611 C   0  0  0  0  0  0  0  0  0  0  0  0
   10.5124   55.4385    0.4787 C   0  0  0  0  0  0  0  0  0  0  0  0
   11.0834   54.2030    0.6788 N   0  0  0  0  0  0  0  0  0  0  0  0
   12.0485   54.0174    0.6207 H   0  0  0  0  0  0  0  0  0  0  0  0
    5.6625   54.7856    1.1672 C   0  0  0  0  0  0  0  0  0  0  0  0
    5.9615   55.7029    2.3670 C   0  0  0  0  0  0  0  0  0  0  0  0
    5.2296   57.0383    2.1917 C   0  0  0  0  0  0  0  0  0  0  0  0
    5.5107   57.7223    0.8447 C   0  0  0  0  0  0  0  0  0  0  0  0
    5.3112   56.7699   -0.3622 C   0  0  0  0  0  0  0  0  0  0  0  0
    6.0740   55.4589   -0.1482 C   0  0  0  0  0  0  0  0  0  0  0  0
    4.5864   58.9629    0.7470 C   0  0  0  0  0  0  0  0  0  0  0  0
    5.4095   60.1134    0.2745 C   0  0  0  0  0  0  0  0  0  0  0  0
    6.1594   60.9223   -0.0512 N   0  0  0  0  0  0  0  0  0  0  0  0
    3.5531   51.7793    0.5075 C   0  0  0  0  0  0  0  0  0  0  0  0
    4.2699   52.1592    1.8124 C   0  0  0  0  0  0  0  0  0  0  0  0
    4.0903   51.1638    2.8274 O   0  0  0  0  0  0  0  0  0  0  0  0
    4.4935   50.3304    2.5380 H   0  0  0  0  0  0  0  0  0  0  0  0
 23 24  1  0  0  0
  5  1  2  0  0  0
  5  4  1  0  0  0
 24  1  1  0  0  0
 24 25  1  0  0  0
  6  4  1  0  0  0
  6  7  2  0  0  0
  1  2  1  0  0  0
  4  3  2  0  0  0
 19 18  1  0  0  0
 19 14  1  0  0  0
  7  8  1  0  0  0
  2  3  1  0  0  0
  2 14  1  0  0  0
  3  9  1  0  0  0
 18 17  1  0  0  0
  8  9  2  0  0  0
  8 12  1  0  0  0
 14 15  1  0  0  0
  9 10  1  0  0  0
 12 11  1  0  0  0
 22 21  3  0  0  0
 10 11  2  0  0  0
 21 20  1  0  0  0
 17 20  1  0  0  0
 17 16  1  0  0  0
 15 16  1  0  0  0
 25 26  1  0  0  0
 12 13  1  0  0  0
M  END
> <minimizedAffinity>
-7.99179

$$$$
4IVC_1J6_A_1201


 26 29  0  0  0  0  0  0  0  0999 V2000
    5.0507   58.3904    0.8175 C   0  0  0  0  0  0  0  0  0  0  0  0
    5.9395   57.3596    0.7232 N   0  0  0  0  0  0  0  0  0  0  0  0
    7.0284   57.8431    0.0063 C   0  0  0  0  0  0  0  0  0  0  0  0
    6.7375   59.1922   -0.2938 C   0  0  0  0  0  0  0  0  0  0  0  0
    5.5122   59.4532    0.2212 N   0  0  0  0  0  0  0  0  0  0  0  0
    7.6626   59.9641   -1.0060 C   0  0  0  0  0  0  0  0  0  0  0  0
    8.8141   59.4769   -1.4091 N   0  0  0  0  0  0  0  0  0  0  0  0
    9.1412   58.2150   -1.1350 C   0  0  0  0  0  0  0  0  0  0  0  0
    8.2675   57.3584   -0.4314 C   0  0  0  0  0  0  0  0  0  0  0  0
    8.9601   56.0770   -0.3113 C   0  0  0  0  0  0  0  0  0  0  0  0
   10.1440   56.2175   -0.9136 C   0  0  0  0  0  0  0  0  0  0  0  0
   10.2467   57.4911   -1.4232 N   0  0  0  0  0  0  0  0  0  0  0  0
   11.0202   57.8299   -1.9293 H   0  0  0  0  0  0  0  0  0  0  0  0
    5.7196   56.0188    1.2790 C   0  0  0  0  0  0  0  0  0  0  0  0
    5.7590   54.9730    0.1498 C   0  0  0  0  0  0  0  0  0  0  0  0
    5.5322   53.5737    0.7330 C   0  0  0  0  0  0  0  0  0  0  0  0
    6.4836   53.2267    1.8886 C   0  0  0  0  0  0  0  0  0  0  0  0
    6.5256   54.3277    2.9792 C   0  0  0  0  0  0  0  0  0  0  0  0
    6.7711   55.7027    2.3501 C   0  0  0  0  0  0  0  0  0  0  0  0
    6.0317   51.8646    2.4750 C   0  0  0  0  0  0  0  0  0  0  0  0
    7.2546   51.0692    2.7851 C   0  0  0  0  0  0  0  0  0  0  0  0
    8.1162   50.3387    3.0014 N   0  0  0  0  0  0  0  0  0  0  0  0
    3.0972   59.6773    1.7659 C   0  0  0  0  0  0  0  0  0  0  0  0
    3.7138   58.2947    1.5028 C   0  0  0  0  0  0  0  0  0  0  0  0
    2.8752   57.4887    0.6658 O   0  0  0  0  0  0  0  0  0  0  0  0
    2.7877   57.9084   -0.2043 H   0  0  0  0  0  0  0  0  0  0  0  0
 23 24  1  0  0  0
  5  1  2  0  0  0
  5  4  1  0  0  0
 24  1  1  0  0  0
 24 25  1  0  0  0
  6  4  1  0  0  0
  6  7  2  0  0  0
  1  2  1  0  0  0
  4  3  2  0  0  0
 19 18  1  0  0  0
 19 14  1  0  0  0
  7  8  1  0  0  0
  2  3  1  0  0  0
  2 14  1  0  0  0
  3  9  1  0  0  0
 18 17  1  0  0  0
  8  9  2  0  0  0
  8 12  1  0  0  0
 14 15  1  0  0  0
  9 10  1  0  0  0
 12 11  1  0  0  0
 22 21  3  0  0  0
 10 11  2  0  0  0
 21 20  1  0  0  0
 17 20  1  0  0  0
 17 16  1  0  0  0
 15 16  1  0  0  0
 25 26  1  0  0  0
 12 13  1  0  0  0
M  END
> <minimizedAffinity>
-7.93182

$$$$
4IVC_1J6_A_1201


 26 29  0  0  0  0  0  0  0  0999 V2000
    6.2324   57.1521    0.2426 C   0  0  0  0  0  0  0  0  0  0  0  0
    6.6594   55.8929    0.5486 N   0  0  0  0  0  0  0  0  0  0  0  0
    8.0160   55.8529    0.2465 C   0  0  0  0  0  0  0  0  0  0  0  0
    8.3538   57.1389   -0.2297 C   0  0  0  0  0  0  0  0  0  0  0  0
    7.2161   57.8739   -0.2152 N   0  0  0  0  0  0  0  0  0  0  0  0
    9.6721   57.4198   -0.6066 C   0  0  0  0  0  0  0  0  0  0  0  0
   10.6265   56.5205   -0.5286 N   0  0  0  0  0  0  0  0  0  0  0  0
   10.3608   55.2987   -0.0694 C   0  0  0  0  0  0  0  0  0  0  0  0
    9.0589   54.9211    0.3241 C   0  0  0  0  0  0  0  0  0  0  0  0
    9.1541   53.5340    0.7748 C   0  0  0  0  0  0  0  0  0  0  0  0
   10.4312   53.1677    0.6369 C   0  0  0  0  0  0  0  0  0  0  0  0
   11.1514   54.2169    0.1146 N   0  0  0  0  0  0  0  0  0  0  0  0
   12.1125   54.1848   -0.0966 H   0  0  0  0  0  0  0  0  0  0  0  0
    5.7972   54.8280    1.0756 C   0  0  0  0  0  0  0  0  0  0  0  0
    5.6648   53.7009    0.0350 C   0  0  0  0  0  0  0  0  0  0  0  0
    4.7668   52.5889    0.5888 C   0  0  0  0  0  0  0  0  0  0  0  0
    5.2090   52.0687    1.9654 C   0  0  0  0  0  0  0  0  0  0  0  0
    5.4446   53.2098    2.9880 C   0  0  0  0  0  0  0  0  0  0  0  0
    6.3597   54.2861    2.3958 C   0  0  0  0  0  0  0  0  0  0  0  0
    4.1258   51.0770    2.4619 C   0  0  0  0  0  0  0  0  0  0  0  0
    4.7034   50.2930    3.5915 C   0  0  0  0  0  0  0  0  0  0  0  0
    5.2781   49.7208    4.4070 N   0  0  0  0  0  0  0  0  0  0  0  0
    4.4401   57.8674    1.8697 C   0  0  0  0  0  0  0  0  0  0  0  0
    4.8120   57.6251    0.3987 C   0  0  0  0  0  0  0  0  0  0  0  0
    4.6829   58.8172   -0.3860 O   0  0  0  0  0  0  0  0  0  0  0  0
    5.3068   59.4860   -0.0630 H   0  0  0  0  0  0  0  0  0  0  0  0
 23 24  1  0  0  0
  5  1  2  0  0  0
  5  4  1  0  0  0
 24  1  1  0  0  0
 24 25  1  0  0  0
  6  4  1  0  0  0
  6  7  2  0  0  0
  1  2  1  0  0  0
  4  3  2  0  0  0
 19 18  1  0  0  0
 19 14  1  0  0  0
  7  8  1  0  0  0
  2  3  1  0  0  0
  2 14  1  0  0  0
  3  9  1  0  0  0
 18 17  1  0  0  0
  8  9  2  0  0  0
  8 12  1  0  0  0
 14 15  1  0  0  0
  9 10  1  0  0  0
 12 11  1  0  0  0
 22 21  3  0  0  0
 10 11  2  0  0  0
 21 20  1  0  0  0
 17 20  1  0  0  0
 17 16  1  0  0  0
 15 16  1  0  0  0
 25 26  1  0  0  0
 12 13  1  0  0  0
M  END
> <minimizedAffinity>
-7.81857

$$$$
4IVC_1J6_A_1201


 26 29  0  0  0  0  0  0  0  0999 V2000
    9.7014   55.2362    0.4413 C   0  0  0  0  0  0  0  0  0  0  0  0
    8.4379   54.9857    0.8910 N   0  0  0  0  0  0  0  0  0  0  0  0
    8.4051   53.6413    1.2444 C   0  0  0  0  0  0  0  0  0  0  0  0
    9.6995   53.1345    0.9946 C   0  0  0  0  0  0  0  0  0  0  0  0
   10.4324   54.1588    0.4960 N   0  0  0  0  0  0  0  0  0  0  0  0
    9.9888   51.7927    1.2684 C   0  0  0  0  0  0  0  0  0  0  0  0
    9.0898   50.9723    1.7627 N   0  0  0  0  0  0  0  0  0  0  0  0
    7.8600   51.4079    2.0314 C   0  0  0  0  0  0  0  0  0  0  0  0
    7.4738   52.7417    1.7784 C   0  0  0  0  0  0  0  0  0  0  0  0
    6.0795   52.8512    2.2028 C   0  0  0  0  0  0  0  0  0  0  0  0
    5.7175   51.6498    2.6609 C   0  0  0  0  0  0  0  0  0  0  0  0
    6.7766   50.7798    2.5422 N   0  0  0  0  0  0  0  0  0  0  0  0
    6.7494   49.8287    2.7949 H   0  0  0  0  0  0  0  0  0  0  0  0
    7.3629   55.9838    0.9487 C   0  0  0  0  0  0  0  0  0  0  0  0
    6.3162   55.6868   -0.1407 C   0  0  0  0  0  0  0  0  0  0  0  0
    5.1934   56.7283   -0.0765 C   0  0  0  0  0  0  0  0  0  0  0  0
    4.5652   56.8712    1.3185 C   0  0  0  0  0  0  0  0  0  0  0  0
    5.6243   57.0664    2.4337 C   0  0  0  0  0  0  0  0  0  0  0  0
    6.7137   55.9938    2.3384 C   0  0  0  0  0  0  0  0  0  0  0  0
    3.5716   58.0599    1.2657 C   0  0  0  0  0  0  0  0  0  0  0  0
    4.3371   59.2825    0.8867 C   0  0  0  0  0  0  0  0  0  0  0  0
    4.9644   60.1538    0.4743 N   0  0  0  0  0  0  0  0  0  0  0  0
    9.7371   56.8281   -1.5173 C   0  0  0  0  0  0  0  0  0  0  0  0
   10.1695   56.5743   -0.0649 C   0  0  0  0  0  0  0  0  0  0  0  0
    9.6421   57.5634    0.8278 O   0  0  0  0  0  0  0  0  0  0  0  0
    8.6733   57.5145    0.8287 H   0  0  0  0  0  0  0  0  0  0  0  0
 23 24  1  0  0  0
  5  1  2  0  0  0
  5  4  1  0  0  0
 24  1  1  0  0  0
 24 25  1  0  0  0
  6  4  1  0  0  0
  6  7  2  0  0  0
  1  2  1  0  0  0
  4  3  2  0  0  0
 19 18  1  0  0  0
 19 14  1  0  0  0
  7  8  1  0  0  0
  2  3  1  0  0  0
  2 14  1  0  0  0
  3  9  1  0  0  0
 18 17  1  0  0  0
  8  9  2  0  0  0
  8 12  1  0  0  0
 14 15  1  0  0  0
  9 10  1  0  0  0
 12 11  1  0  0  0
 22 21  3  0  0  0
 10 11  2  0  0  0
 21 20  1  0  0  0
 17 20  1  0  0  0
 17 16  1  0  0  0
 15 16  1  0  0  0
 25 26  1  0  0  0
 12 13  1  0  0  0
M  END
> <minimizedAffinity>
-7.57032

$$$$
4IVC_1J6_A_1201


 26 29  0  0  0  0  0  0  0  0999 V2000
    5.8934   56.4854    1.5171 C   0  0  0  0  0  0  0  0  0  0  0  0
    6.9844   56.4979    0.6979 N   0  0  0  0  0  0  0  0  0  0  0  0
    7.0481   57.7727    0.1464 C   0  0  0  0  0  0  0  0  0  0  0  0
    5.9628   58.4943    0.6905 C   0  0  0  0  0  0  0  0  0  0  0  0
    5.2966   57.6439    1.5078 N   0  0  0  0  0  0  0  0  0  0  0  0
    5.7648   59.8329    0.3328 C   0  0  0  0  0  0  0  0  0  0  0  0
    6.5659   60.4581   -0.4997 N   0  0  0  0  0  0  0  0  0  0  0  0
    7.6133   59.8250   -1.0256 C   0  0  0  0  0  0  0  0  0  0  0  0
    7.8864   58.4718   -0.7313 C   0  0  0  0  0  0  0  0  0  0  0  0
    9.1004   58.1297   -1.4697 C   0  0  0  0  0  0  0  0  0  0  0  0
    9.4739   59.2274   -2.1328 C   0  0  0  0  0  0  0  0  0  0  0  0
    8.5746   60.2380   -1.8826 N   0  0  0  0  0  0  0  0  0  0  0  0
    8.6242   61.1398   -2.2743 H   0  0  0  0  0  0  0  0  0  0  0  0
    7.8687   55.3477    0.4736 C   0  0  0  0  0  0  0  0  0  0  0  0
    9.0818   55.4303    1.4181 C   0  0  0  0  0  0  0  0  0  0  0  0
   10.0019   54.2268    1.1841 C   0  0  0  0  0  0  0  0  0  0  0  0
    9.2797   52.8733    1.2723 C   0  0  0  0  0  0  0  0  0  0  0  0
    7.9978   52.8222    0.4018 C   0  0  0  0  0  0  0  0  0  0  0  0
    7.1045   54.0343    0.6833 C   0  0  0  0  0  0  0  0  0  0  0  0
   10.2912   51.7744    0.8573 C   0  0  0  0  0  0  0  0  0  0  0  0
    9.5433   50.7166    0.1183 C   0  0  0  0  0  0  0  0  0  0  0  0
    9.0937   49.8338   -0.4659 N   0  0  0  0  0  0  0  0  0  0  0  0
    6.0895   55.2247    3.6950 C   0  0  0  0  0  0  0  0  0  0  0  0
    5.4399   55.2850    2.3039 C   0  0  0  0  0  0  0  0  0  0  0  0
    4.0112   55.3587    2.3867 O   0  0  0  0  0  0  0  0  0  0  0  0
    3.7551   56.1808    2.8333 H   0  0  0  0  0  0  0  0  0  0  0  0
 23 24  1  0  0  0
  5  1  2  0  0  0
  5  4  1  0  0  0
 24  1  1  0  0  0
 24 25  1  0  0  0
  6  4  1  0  0  0
  6  7  2  0  0  0
  1  2  1  0  0  0
  4  3  2  0  0  0
 19 18  1  0  0  0
 19 14  1  0  0  0
  7  8  1  0  0  0
  2  3  1  0  0  0
  2 14  1  0  0  0
  3  9  1  0  0  0
 18 17  1  0  0  0
  8  9  2  0  0  0
  8 12  1  0  0  0
 14 15  1  0  0  0
  9 10  1  0  0  0
 12 11  1  0  0  0
 22 21  3  0  0  0
 10 11  2  0  0  0
 21 20  1  0  0  0
 17 20  1  0  0  0
 17 16  1  0  0  0
 15 16  1  0  0  0
 25 26  1  0  0  0
 12 13  1  0  0  0
M  END
> <minimizedAffinity>
-7.46464

$$$$
4IVC_1J6_A_1201


 26 29  0  0  0  0  0  0  0  0999 V2000
    6.5356   51.6167    2.5451 C   0  0  0  0  0  0  0  0  0  0  0  0
    7.1483   52.6329    1.8718 N   0  0  0  0  0  0  0  0  0  0  0  0
    8.4315   52.1892    1.5719 C   0  0  0  0  0  0  0  0  0  0  0  0
    8.5267   50.8767    2.0849 C   0  0  0  0  0  0  0  0  0  0  0  0
    7.3389   50.5987    2.6740 N   0  0  0  0  0  0  0  0  0  0  0  0
    9.7112   50.1486    1.9247 C   0  0  0  0  0  0  0  0  0  0  0  0
   10.7552   50.6440    1.3000 N   0  0  0  0  0  0  0  0  0  0  0  0
   10.7079   51.8710    0.7836 C   0  0  0  0  0  0  0  0  0  0  0  0
    9.5599   52.6831    0.9052 C   0  0  0  0  0  0  0  0  0  0  0  0
    9.8699   53.9350    0.2175 C   0  0  0  0  0  0  0  0  0  0  0  0
   11.1146   53.8212   -0.2537 C   0  0  0  0  0  0  0  0  0  0  0  0
   11.6243   52.5934    0.0999 N   0  0  0  0  0  0  0  0  0  0  0  0
   12.5333   52.2826   -0.1157 H   0  0  0  0  0  0  0  0  0  0  0  0
    6.5227   53.9262    1.5700 C   0  0  0  0  0  0  0  0  0  0  0  0
    7.2743   55.0529    2.3021 C   0  0  0  0  0  0  0  0  0  0  0  0
    6.6211   56.4024    1.9830 C   0  0  0  0  0  0  0  0  0  0  0  0
    6.4750   56.6751    0.4778 C   0  0  0  0  0  0  0  0  0  0  0  0
    5.8119   55.4971   -0.2813 C   0  0  0  0  0  0  0  0  0  0  0  0
    6.5089   54.1755    0.0565 C   0  0  0  0  0  0  0  0  0  0  0  0
    5.6610   57.9843    0.3154 C   0  0  0  0  0  0  0  0  0  0  0  0
    4.3349   57.7851    0.9681 C   0  0  0  0  0  0  0  0  0  0  0  0
    3.2988   57.7753    1.4675 N   0  0  0  0  0  0  0  0  0  0  0  0
    4.0904   51.2666    2.0257 C   0  0  0  0  0  0  0  0  0  0  0  0
    5.1295   51.6820    3.0785 C   0  0  0  0  0  0  0  0  0  0  0  0
    5.0842   50.8353    4.2338 O   0  0  0  0  0  0  0  0  0  0  0  0
    5.3148   49.9282    3.9791 H   0  0  0  0  0  0  0  0  0  0  0  0
 23 24  1  0  0  0
  5  1  2  0  0  0
  5  4  1  0  0  0
 24  1  1  0  0  0
 24 25  1  0  0  0
  6  4  1  0  0  0
  6  7  2  0  0  0
  1  2  1  0  0  0
  4  3  2  0  0  0
 19 18  1  0  0  0
 19 14  1  0  0  0
  7  8  1  0  0  0
  2  3  1  0  0  0
  2 14  1  0  0  0
  3  9  1  0  0  0
 18 17  1  0  0  0
  8  9  2  0  0  0
  8 12  1  0  0  0
 14 15  1  0  0  0
  9 10  1  0  0  0
 12 11  1  0  0  0
 22 21  3  0  0  0
 10 11  2  0  0  0
 21 20  1  0  0  0
 17 20  1  0  0  0
 17 16  1  0  0  0
 15 16  1  0  0  0
 25 26  1  0  0  0
 12 13  1  0  0  0
M  END
> <minimizedAffinity>
-7.21942

$$$$
4IVC_1J6_A_1201


 26 29  0  0  0  0  0  0  0  0999 V2000
    7.4885   53.2969    1.9419 C   0  0  0  0  0  0  0  0  0  0  0  0
    8.4030   53.6224    0.9832 N   0  0  0  0  0  0  0  0  0  0  0  0
    9.2405   52.5208    0.8478 C   0  0  0  0  0  0  0  0  0  0  0  0
    8.7638   51.5472    1.7531 C   0  0  0  0  0  0  0  0  0  0  0  0
    7.7022   52.0932    2.3933 N   0  0  0  0  0  0  0  0  0  0  0  0
    9.4002   50.3036    1.8401 C   0  0  0  0  0  0  0  0  0  0  0  0
   10.4388   49.9981    1.0960 N   0  0  0  0  0  0  0  0  0  0  0  0
   10.9144   50.8768    0.2151 C   0  0  0  0  0  0  0  0  0  0  0  0
   10.3441   52.1592    0.0648 C   0  0  0  0  0  0  0  0  0  0  0  0
   11.1115   52.8275   -0.9843 C   0  0  0  0  0  0  0  0  0  0  0  0
   12.0496   51.9665   -1.3877 C   0  0  0  0  0  0  0  0  0  0  0  0
   11.9447   50.8049   -0.6581 N   0  0  0  0  0  0  0  0  0  0  0  0
   12.5392   50.0266   -0.7581 H   0  0  0  0  0  0  0  0  0  0  0  0
    8.4486   54.9109    0.2812 C   0  0  0  0  0  0  0  0  0  0  0  0
    7.0178   55.3844   -0.0337 C   0  0  0  0  0  0  0  0  0  0  0  0
    7.0679   56.7312   -0.7639 C   0  0  0  0  0  0  0  0  0  0  0  0
    7.8920   57.7998   -0.0287 C   0  0  0  0  0  0  0  0  0  0  0  0
    9.2976   57.2918    0.3830 C   0  0  0  0  0  0  0  0  0  0  0  0
    9.1940   55.9545    1.1228 C   0  0  0  0  0  0  0  0  0  0  0  0
    7.9857   59.0391   -0.9553 C   0  0  0  0  0  0  0  0  0  0  0  0
    7.0880   60.0945   -0.4035 C   0  0  0  0  0  0  0  0  0  0  0  0
    6.2862   60.8287   -0.0282 N   0  0  0  0  0  0  0  0  0  0  0  0
    5.0102   53.5637    2.3399 C   0  0  0  0  0  0  0  0  0  0  0  0
    6.3980   54.2185    2.4187 C   0  0  0  0  0  0  0  0  0  0  0  0
    6.7319   54.5978    3.7596 O   0  0  0  0  0  0  0  0  0  0  0  0
    6.7821   53.8054    4.3168 H   0  0  0  0  0  0  0  0  0  0  0  0
 23 24  1  0  0  0
  5  1  2  0  0  0
  5  4  1  0  0  0
 24  1  1  0  0  0
 24 25  1  0  0  0
  6  4  1  0  0  0
  6  7  2  0  0  0
  1  2  1  0  0  0
  4  3  2  0  0  0
 19 18  1  0  0  0
 19 14  1  0  0  0
  7  8  1  0  0  0
  2  3  1  0  0  0
  2 14  1  0  0  0
  3  9  1  0  0  0
 18 17  1  0  0  0
  8  9  2  0  0  0
  8 12  1  0  0  0
 14 15  1  0  0  0
  9 10  1  0  0  0
 12 11  1  0  0  0
 22 21  3  0  0  0
 10 11  2  0  0  0
 21 20  1  0  0  0
 17 20  1  0  0  0
 17 16  1  0  0  0
 15 16  1  0  0  0
 25 26  1  0  0  0
 12 13  1  0  0  0
M  END
> <minimizedAffinity>
-7.13732

$$$$
4IVC_1J6_A_1201


 26 29  0  0  0  0  0  0  0  0999 V2000
    6.4664   56.3267    1.5840 C   0  0  0  0  0  0  0  0  0  0  0  0
    7.6448   56.0036    0.9770 N   0  0  0  0  0  0  0  0  0  0  0  0
    7.9329   57.0423    0.0986 C   0  0  0  0  0  0  0  0  0  0  0  0
    6.8846   57.9788    0.2352 C   0  0  0  0  0  0  0  0  0  0  0  0
    6.0220   57.4717    1.1482 N   0  0  0  0  0  0  0  0  0  0  0  0
    6.8987   59.1575   -0.5194 C   0  0  0  0  0  0  0  0  0  0  0  0
    7.8684   59.4354   -1.3609 N   0  0  0  0  0  0  0  0  0  0  0  0
    8.8879   58.5914   -1.5117 C   0  0  0  0  0  0  0  0  0  0  0  0
    8.9540   57.3736   -0.8010 C   0  0  0  0  0  0  0  0  0  0  0  0
   10.1999   56.7284   -1.2105 C   0  0  0  0  0  0  0  0  0  0  0  0
   10.7853   57.5404   -2.0949 C   0  0  0  0  0  0  0  0  0  0  0  0
    9.9925   58.6476   -2.2901 N   0  0  0  0  0  0  0  0  0  0  0  0
   10.2009   59.3815   -2.9122 H   0  0  0  0  0  0  0  0  0  0  0  0
    8.4025   54.7729    1.2346 C   0  0  0  0  0  0  0  0  0  0  0  0
    7.9193   53.6557    0.2918 C   0  0  0  0  0  0  0  0  0  0  0  0
    8.7139   52.3728    0.5606 C   0  0  0  0  0  0  0  0  0  0  0  0
   10.2370   52.5693    0.5067 C   0  0  0  0  0  0  0  0  0  0  0  0
   10.7168   53.7610    1.3745 C   0  0  0  0  0  0  0  0  0  0  0  0
    9.9058   55.0213    1.0581 C   0  0  0  0  0  0  0  0  0  0  0  0
   10.8973   51.2399    0.9539 C   0  0  0  0  0  0  0  0  0  0  0  0
   11.9686   50.9056   -0.0283 C   0  0  0  0  0  0  0  0  0  0  0  0
   12.7075   50.5419   -0.8312 N   0  0  0  0  0  0  0  0  0  0  0  0
    6.3557   55.6468    4.0123 C   0  0  0  0  0  0  0  0  0  0  0  0
    5.7740   55.4611    2.6024 C   0  0  0  0  0  0  0  0  0  0  0  0
    4.3814   55.7952    2.5531 O   0  0  0  0  0  0  0  0  0  0  0  0
    4.2667   56.7350    2.7640 H   0  0  0  0  0  0  0  0  0  0  0  0
 23 24  1  0  0  0
  5  1  2  0  0  0
  5  4  1  0  0  0
 24  1  1  0  0  0
 24 25  1  0  0  0
  6  4  1  0  0  0
  6  7  2  0  0  0
  1  2  1  0  0  0
  4  3  2  0  0  0
 19 18  1  0  0  0
 19 14  1  0  0  0
  7  8  1  0  0  0
  2  3  1  0  0  0
  2 14  1  0  0  0
  3  9  1  0  0  0
 18 17  1  0  0  0
  8  9  2  0  0  0
  8 12  1  0  0  0
 14 15  1  0  0  0
  9 10  1  0  0  0
 12 11  1  0  0  0
 22 21  3  0  0  0
 10 11  2  0  0  0
 21 20  1  0  0  0
 17 20  1  0  0  0
 17 16  1  0  0  0
 15 16  1  0  0  0
 25 26  1  0  0  0
 12 13  1  0  0  0
M  END
> <minimizedAffinity>
-6.92895

$$$$
