3F33_PFL_A_2001


 14 14  0  0  0  0  0  0  0  0999 V2000
   33.9101    0.4408   33.7073 O   0  0  0  0  0  0  0  0  0  0  0  0
   35.1596    0.3541   34.1318 C   0  0  0  0  0  0  0  0  0  0  0  0
   35.4684   -0.0590   35.4283 C   0  0  0  0  0  0  0  0  0  0  0  0
   36.1482    0.7012   33.2204 C   0  0  0  0  0  0  0  0  0  0  0  0
   36.8041   -0.1221   35.7928 C   0  0  0  0  0  0  0  0  0  0  0  0
   37.8022    0.2132   34.8849 C   0  0  0  0  0  0  0  0  0  0  0  0
   37.4764    0.6228   33.5956 C   0  0  0  0  0  0  0  0  0  0  0  0
   33.2038    0.2184   34.2814 H   0  0  0  0  0  0  0  0  0  0  0  0
   34.4188   -0.4506   36.4933 C   0  0  0  0  0  0  0  0  0  0  0  0
   33.9205    0.7943   37.2272 C   0  0  0  0  0  0  0  0  0  0  0  0
   34.9601   -1.4744   37.4826 C   0  0  0  0  0  0  0  0  0  0  0  0
   35.7755    1.1333   31.7929 C   0  0  0  0  0  0  0  0  0  0  0  0
   36.7235    0.4447   30.8089 C   0  0  0  0  0  0  0  0  0  0  0  0
   35.8818    2.6550   31.6532 C   0  0  0  0  0  0  0  0  0  0  0  0
  1  2  1  0  0  0
  2  3  2  0  0  0
  2  4  1  0  0  0
  3  5  1  0  0  0
  3  9  1  0  0  0
  4  7  2  0  0  0
  4 12  1  0  0  0
  5  6  2  0  0  0
  9 10  1  0  0  0
  9 11  1  0  0  0
  6  7  1  0  0  0
 12 13  1  0  0  0
 12 14  1  0  0  0
  1  8  1  0  0  0
M  END
> <minimizedAffinity>
-6.78459

$$$$
3F33_PFL_A_2001


 14 14  0  0  0  0  0  0  0  0999 V2000
   33.7002   -0.3742   33.9157 O   0  0  0  0  0  0  0  0  0  0  0  0
   34.1359   -0.3300   35.1635 C   0  0  0  0  0  0  0  0  0  0  0  0
   35.4337    0.0772   35.4749 C   0  0  0  0  0  0  0  0  0  0  0  0
   33.2350   -0.7156   36.1475 C   0  0  0  0  0  0  0  0  0  0  0  0
   35.8103    0.0944   36.8086 C   0  0  0  0  0  0  0  0  0  0  0  0
   34.9129   -0.2796   37.8025 C   0  0  0  0  0  0  0  0  0  0  0  0
   33.6222   -0.6827   37.4741 C   0  0  0  0  0  0  0  0  0  0  0  0
   34.2669   -0.1246   33.2124 H   0  0  0  0  0  0  0  0  0  0  0  0
   36.4874    0.5100   34.4302 C   0  0  0  0  0  0  0  0  0  0  0  0
   37.2019   -0.7156   33.8609 C   0  0  0  0  0  0  0  0  0  0  0  0
   37.4944    1.4969   35.0063 C   0  0  0  0  0  0  0  0  0  0  0  0
   31.8057   -1.1401   35.7728 C   0  0  0  0  0  0  0  0  0  0  0  0
   30.8250   -0.4566   36.7278 C   0  0  0  0  0  0  0  0  0  0  0  0
   31.6615   -2.6621   35.8660 C   0  0  0  0  0  0  0  0  0  0  0  0
  1  2  1  0  0  0
  2  3  2  0  0  0
  2  4  1  0  0  0
  3  5  1  0  0  0
  3  9  1  0  0  0
  4  7  2  0  0  0
  4 12  1  0  0  0
  5  6  2  0  0  0
  9 10  1  0  0  0
  9 11  1  0  0  0
  6  7  1  0  0  0
 12 13  1  0  0  0
 12 14  1  0  0  0
  1  8  1  0  0  0
M  END
> <minimizedAffinity>
-6.77950

$$$$
3F33_PFL_A_2001


 14 14  0  0  0  0  0  0  0  0999 V2000
   34.2866   -1.2779   34.0201 O   0  0  0  0  0  0  0  0  0  0  0  0
   34.3193   -0.6541   35.1858 C   0  0  0  0  0  0  0  0  0  0  0  0
   33.2039   -0.6011   36.0225 C   0  0  0  0  0  0  0  0  0  0  0  0
   35.5211   -0.0499   35.5307 C   0  0  0  0  0  0  0  0  0  0  0  0
   33.3230    0.0736   37.2273 C   0  0  0  0  0  0  0  0  0  0  0  0
   34.5247    0.6731   37.5872 C   0  0  0  0  0  0  0  0  0  0  0  0
   35.6273    0.6101   36.7408 C   0  0  0  0  0  0  0  0  0  0  0  0
   33.5006   -1.7027   33.7380 H   0  0  0  0  0  0  0  0  0  0  0  0
   31.8363   -1.2432   35.6964 C   0  0  0  0  0  0  0  0  0  0  0  0
   30.7260   -0.5537   36.4891 C   0  0  0  0  0  0  0  0  0  0  0  0
   31.8297   -2.7433   35.9599 C   0  0  0  0  0  0  0  0  0  0  0  0
   36.7376   -0.1437   34.5954 C   0  0  0  0  0  0  0  0  0  0  0  0
   37.9122   -0.7360   35.3766 C   0  0  0  0  0  0  0  0  0  0  0  0
   37.1043    1.2436   34.0594 C   0  0  0  0  0  0  0  0  0  0  0  0
  1  2  1  0  0  0
  2  3  2  0  0  0
  2  4  1  0  0  0
  3  5  1  0  0  0
  3  9  1  0  0  0
  4  7  2  0  0  0
  4 12  1  0  0  0
  5  6  2  0  0  0
  9 10  1  0  0  0
  9 11  1  0  0  0
  6  7  1  0  0  0
 12 13  1  0  0  0
 12 14  1  0  0  0
  1  8  1  0  0  0
M  END
> <minimizedAffinity>
-6.69925

$$$$
3F33_PFL_A_2001


 14 14  0  0  0  0  0  0  0  0999 V2000
   34.0063    1.2560   34.3115 O   0  0  0  0  0  0  0  0  0  0  0  0
   35.1719    0.6317   34.3347 C   0  0  0  0  0  0  0  0  0  0  0  0
   36.0059    0.5906   33.2168 C   0  0  0  0  0  0  0  0  0  0  0  0
   35.5195    0.0145   35.5291 C   0  0  0  0  0  0  0  0  0  0  0  0
   37.2109   -0.0855   33.3258 C   0  0  0  0  0  0  0  0  0  0  0  0
   37.5735   -0.6980   34.5201 C   0  0  0  0  0  0  0  0  0  0  0  0
   36.7296   -0.6468   35.6253 C   0  0  0  0  0  0  0  0  0  0  0  0
   33.7224    1.6894   33.5307 H   0  0  0  0  0  0  0  0  0  0  0  0
   35.6768    1.2475   31.8570 C   0  0  0  0  0  0  0  0  0  0  0  0
   36.4377    0.5451   30.7325 C   0  0  0  0  0  0  0  0  0  0  0  0
   35.9761    2.7409   31.8542 C   0  0  0  0  0  0  0  0  0  0  0  0
   34.5870    0.0953   36.7487 C   0  0  0  0  0  0  0  0  0  0  0  0
   35.3463    0.7510   37.9039 C   0  0  0  0  0  0  0  0  0  0  0  0
   34.1166   -1.3055   37.1520 C   0  0  0  0  0  0  0  0  0  0  0  0
  1  2  1  0  0  0
  2  3  2  0  0  0
  2  4  1  0  0  0
  3  5  1  0  0  0
  3  9  1  0  0  0
  4  7  2  0  0  0
  4 12  1  0  0  0
  5  6  2  0  0  0
  9 10  1  0  0  0
  9 11  1  0  0  0
  6  7  1  0  0  0
 12 13  1  0  0  0
 12 14  1  0  0  0
  1  8  1  0  0  0
M  END
> <minimizedAffinity>
-6.69750

$$$$
3F33_PFL_A_2001


 14 14  0  0  0  0  0  0  0  0999 V2000
   35.0329   -1.8987   33.6863 O   0  0  0  0  0  0  0  0  0  0  0  0
   34.7180   -0.6945   34.1332 C   0  0  0  0  0  0  0  0  0  0  0  0
   33.8648   -0.5147   35.2225 C   0  0  0  0  0  0  0  0  0  0  0  0
   35.2774    0.3820   33.4575 C   0  0  0  0  0  0  0  0  0  0  0  0
   33.5861    0.7814   35.6267 C   0  0  0  0  0  0  0  0  0  0  0  0
   34.1491    1.8661   34.9638 C   0  0  0  0  0  0  0  0  0  0  0  0
   34.9984    1.6685   33.8794 C   0  0  0  0  0  0  0  0  0  0  0  0
   34.6832   -2.6602   34.1055 H   0  0  0  0  0  0  0  0  0  0  0  0
   33.2026   -1.6665   36.0125 C   0  0  0  0  0  0  0  0  0  0  0  0
   31.6814   -1.5915   35.8811 C   0  0  0  0  0  0  0  0  0  0  0  0
   33.6137   -1.6666   37.4790 C   0  0  0  0  0  0  0  0  0  0  0  0
   36.2298    0.1495   32.2732 C   0  0  0  0  0  0  0  0  0  0  0  0
   37.6310    0.6173   32.6717 C   0  0  0  0  0  0  0  0  0  0  0  0
   35.7447    0.9204   31.0417 C   0  0  0  0  0  0  0  0  0  0  0  0
  1  2  1  0  0  0
  2  3  2  0  0  0
  2  4  1  0  0  0
  3  5  1  0  0  0
  3  9  1  0  0  0
  4  7  2  0  0  0
  4 12  1  0  0  0
  5  6  2  0  0  0
  9 10  1  0  0  0
  9 11  1  0  0  0
  6  7  1  0  0  0
 12 13  1  0  0  0
 12 14  1  0  0  0
  1  8  1  0  0  0
M  END
> <minimizedAffinity>
-6.67082

$$$$
3F33_PFL_A_2001


 14 14  0  0  0  0  0  0  0  0999 V2000
   33.7528    1.8993   35.1286 O   0  0  0  0  0  0  0  0  0  0  0  0
   34.1675    0.6953   34.7714 C   0  0  0  0  0  0  0  0  0  0  0  0
   35.2351    0.5169   33.8909 C   0  0  0  0  0  0  0  0  0  0  0  0
   33.4805   -0.3822   35.3150 C   0  0  0  0  0  0  0  0  0  0  0  0
   35.6057   -0.7791   33.5683 C   0  0  0  0  0  0  0  0  0  0  0  0
   34.9315   -1.8651   34.1150 C   0  0  0  0  0  0  0  0  0  0  0  0
   33.8691   -1.6689   34.9920 C   0  0  0  0  0  0  0  0  0  0  0  0
   34.1810    2.6614   34.7912 H   0  0  0  0  0  0  0  0  0  0  0  0
   36.0358    1.6700   33.2443 C   0  0  0  0  0  0  0  0  0  0  0  0
   35.8942    1.6238   31.7229 C   0  0  0  0  0  0  0  0  0  0  0  0
   37.5047    1.6441   33.6461 C   0  0  0  0  0  0  0  0  0  0  0  0
   32.3211   -0.1518   36.2980 C   0  0  0  0  0  0  0  0  0  0  0  0
   32.7226   -0.7030   37.6676 C   0  0  0  0  0  0  0  0  0  0  0  0
   31.0530   -0.8503   35.7974 C   0  0  0  0  0  0  0  0  0  0  0  0
  1  2  1  0  0  0
  2  3  2  0  0  0
  2  4  1  0  0  0
  3  5  1  0  0  0
  3  9  1  0  0  0
  4  7  2  0  0  0
  4 12  1  0  0  0
  5  6  2  0  0  0
  9 10  1  0  0  0
  9 11  1  0  0  0
  6  7  1  0  0  0
 12 13  1  0  0  0
 12 14  1  0  0  0
  1  8  1  0  0  0
M  END
> <minimizedAffinity>
-6.66223

$$$$
3F33_PFL_A_2001


 14 14  0  0  0  0  0  0  0  0999 V2000
   33.8209    1.9238   35.0139 O   0  0  0  0  0  0  0  0  0  0  0  0
   34.1534    0.6676   34.7682 C   0  0  0  0  0  0  0  0  0  0  0  0
   33.4452   -0.4013   35.3185 C   0  0  0  0  0  0  0  0  0  0  0  0
   35.2483    0.4685   33.9375 C   0  0  0  0  0  0  0  0  0  0  0  0
   33.8602   -1.6873   35.0102 C   0  0  0  0  0  0  0  0  0  0  0  0
   34.9486   -1.8979   34.1713 C   0  0  0  0  0  0  0  0  0  0  0  0
   35.6433   -0.8202   33.6307 C   0  0  0  0  0  0  0  0  0  0  0  0
   33.0899    2.1151   35.5681 H   0  0  0  0  0  0  0  0  0  0  0  0
   32.2253   -0.2505   36.2556 C   0  0  0  0  0  0  0  0  0  0  0  0
   32.6143   -0.6043   37.6910 C   0  0  0  0  0  0  0  0  0  0  0  0
   31.0429   -1.0945   35.7980 C   0  0  0  0  0  0  0  0  0  0  0  0
   35.9951    1.6678   33.3311 C   0  0  0  0  0  0  0  0  0  0  0  0
   35.8762    1.5998   31.8072 C   0  0  0  0  0  0  0  0  0  0  0  0
   37.4686    1.6429   33.7487 C   0  0  0  0  0  0  0  0  0  0  0  0
  1  2  1  0  0  0
  2  3  2  0  0  0
  2  4  1  0  0  0
  3  5  1  0  0  0
  3  9  1  0  0  0
  4  7  2  0  0  0
  4 12  1  0  0  0
  5  6  2  0  0  0
  9 10  1  0  0  0
  9 11  1  0  0  0
  6  7  1  0  0  0
 12 13  1  0  0  0
 12 14  1  0  0  0
  1  8  1  0  0  0
M  END
> <minimizedAffinity>
-6.60728

$$$$
3F33_PFL_A_2001


 14 14  0  0  0  0  0  0  0  0999 V2000
   34.9637   -1.4195   37.0428 O   0  0  0  0  0  0  0  0  0  0  0  0
   34.4775   -0.6765   36.0627 C   0  0  0  0  0  0  0  0  0  0  0  0
   33.1086   -0.6093   35.8011 C   0  0  0  0  0  0  0  0  0  0  0  0
   35.4021    0.0293   35.3041 C   0  0  0  0  0  0  0  0  0  0  0  0
   32.6825    0.1935   34.7547 C   0  0  0  0  0  0  0  0  0  0  0  0
   33.5988    0.9125   33.9955 C   0  0  0  0  0  0  0  0  0  0  0  0
   34.9605    0.8342   34.2706 C   0  0  0  0  0  0  0  0  0  0  0  0
   34.3840   -1.9164   37.5858 H   0  0  0  0  0  0  0  0  0  0  0  0
   32.0284   -1.3741   36.5993 C   0  0  0  0  0  0  0  0  0  0  0  0
   31.7220   -2.7121   35.9264 C   0  0  0  0  0  0  0  0  0  0  0  0
   30.7546   -0.5566   36.7694 C   0  0  0  0  0  0  0  0  0  0  0  0
   36.9022   -0.0507   35.6310 C   0  0  0  0  0  0  0  0  0  0  0  0
   37.5816    1.2259   35.1313 C   0  0  0  0  0  0  0  0  0  0  0  0
   37.5271   -1.2791   34.9626 C   0  0  0  0  0  0  0  0  0  0  0  0
  1  2  1  0  0  0
  2  3  2  0  0  0
  2  4  1  0  0  0
  3  5  1  0  0  0
  3  9  1  0  0  0
  4  7  2  0  0  0
  4 12  1  0  0  0
  5  6  2  0  0  0
  9 10  1  0  0  0
  9 11  1  0  0  0
  6  7  1  0  0  0
 12 13  1  0  0  0
 12 14  1  0  0  0
  1  8  1  0  0  0
M  END
> <minimizedAffinity>
-5.92647

$$$$
3F33_PFL_A_2001


 14 14  0  0  0  0  0  0  0  0999 V2000
   34.8586   -1.8853   33.6521 O   0  0  0  0  0  0  0  0  0  0  0  0
   34.6742   -0.6434   34.0676 C   0  0  0  0  0  0  0  0  0  0  0  0
   35.0442    0.4543   33.2897 C   0  0  0  0  0  0  0  0  0  0  0  0
   34.0975   -0.4896   35.3215 C   0  0  0  0  0  0  0  0  0  0  0  0
   34.8161    1.7226   33.8000 C   0  0  0  0  0  0  0  0  0  0  0  0
   34.2298    1.8881   35.0497 C   0  0  0  0  0  0  0  0  0  0  0  0
   33.8666    0.7820   35.8120 C   0  0  0  0  0  0  0  0  0  0  0  0
   35.2440   -2.0464   32.8134 H   0  0  0  0  0  0  0  0  0  0  0  0
   35.6970    0.3541   31.8923 C   0  0  0  0  0  0  0  0  0  0  0  0
   36.2694    1.7096   31.4778 C   0  0  0  0  0  0  0  0  0  0  0  0
   34.7233   -0.1600   30.8400 C   0  0  0  0  0  0  0  0  0  0  0  0
   33.6829   -1.7197   36.1451 C   0  0  0  0  0  0  0  0  0  0  0  0
   32.1659   -1.8904   36.0416 C   0  0  0  0  0  0  0  0  0  0  0  0
   34.0970   -1.5435   37.6092 C   0  0  0  0  0  0  0  0  0  0  0  0
  1  2  1  0  0  0
  2  3  2  0  0  0
  2  4  1  0  0  0
  3  5  1  0  0  0
  3  9  1  0  0  0
  4  7  2  0  0  0
  4 12  1  0  0  0
  5  6  2  0  0  0
  9 10  1  0  0  0
  9 11  1  0  0  0
  6  7  1  0  0  0
 12 13  1  0  0  0
 12 14  1  0  0  0
  1  8  1  0  0  0
M  END
> <minimizedAffinity>
-5.91275

$$$$
3F33_PFL_A_2001


 14 14  0  0  0  0  0  0  0  0999 V2000
   33.9447   -0.2245   33.7497 O   0  0  0  0  0  0  0  0  0  0  0  0
   34.0631   -0.3717   35.0586 C   0  0  0  0  0  0  0  0  0  0  0  0
   32.9541   -0.5894   35.8770 C   0  0  0  0  0  0  0  0  0  0  0  0
   35.3492   -0.2926   35.5763 C   0  0  0  0  0  0  0  0  0  0  0  0
   33.1661   -0.7328   37.2392 C   0  0  0  0  0  0  0  0  0  0  0  0
   34.4506   -0.6659   37.7667 C   0  0  0  0  0  0  0  0  0  0  0  0
   35.5454   -0.4485   36.9358 C   0  0  0  0  0  0  0  0  0  0  0  0
   33.0994   -0.2689   33.3478 H   0  0  0  0  0  0  0  0  0  0  0  0
   31.4975   -0.6794   35.3681 C   0  0  0  0  0  0  0  0  0  0  0  0
   31.1582    0.5443   34.5170 C   0  0  0  0  0  0  0  0  0  0  0  0
   30.4998   -0.8312   36.5089 C   0  0  0  0  0  0  0  0  0  0  0  0
   36.5523   -0.0716   34.6450 C   0  0  0  0  0  0  0  0  0  0  0  0
   37.6960   -0.9818   35.0971 C   0  0  0  0  0  0  0  0  0  0  0  0
   36.9945    1.3943   34.6866 C   0  0  0  0  0  0  0  0  0  0  0  0
  1  2  1  0  0  0
  2  3  2  0  0  0
  2  4  1  0  0  0
  3  5  1  0  0  0
  3  9  1  0  0  0
  4  7  2  0  0  0
  4 12  1  0  0  0
  5  6  2  0  0  0
  9 10  1  0  0  0
  9 11  1  0  0  0
  6  7  1  0  0  0
 12 13  1  0  0  0
 12 14  1  0  0  0
  1  8  1  0  0  0
M  END
> <minimizedAffinity>
-5.90124

$$$$
