1MET_DMP_A_323


 46 50  0  0  0  0  0  0  0  0999 V2000
   -8.7593   14.9749   27.6228 C   0  0  0  0  0  0  0  0  0  0  0  0
   -8.9247   17.1535   26.4198 C   0  0  0  0  0  0  0  0  0  0  0  0
  -10.2642   17.7399   26.8297 C   0  0  0  0  0  0  0  0  0  0  0  0
  -10.4324   17.6715   28.3294 C   0  0  0  0  0  0  0  0  0  0  0  0
  -10.6375   16.2311   28.7499 C   0  0  0  0  0  0  0  0  0  0  0  0
   -8.7713   15.6859   26.4786 N   0  0  0  0  0  0  0  0  0  0  0  0
   -9.4612   15.3213   28.7184 N   0  0  0  0  0  0  0  0  0  0  0  0
   -8.0747   13.9637   27.6718 O   0  0  0  0  0  0  0  0  0  0  0  0
  -10.2527   19.0614   26.3577 O   0  0  0  0  0  0  0  0  0  0  0  0
  -11.5983   18.3024   28.7403 O   0  0  0  0  0  0  0  0  0  0  0  0
   -9.4974   19.5348   26.7402 H   0  0  0  0  0  0  0  0  0  0  0  0
  -12.3632   17.8625   28.3375 H   0  0  0  0  0  0  0  0  0  0  0  0
   -8.3751   14.9532   25.2787 C   0  0  0  0  0  0  0  0  0  0  0  0
   -8.6766   15.5562   23.9354 C   0  0  0  0  0  0  0  0  0  0  0  0
   -9.9909   15.7924   23.4566 C   0  0  0  0  0  0  0  0  0  0  0  0
  -10.1713   16.2926   22.1410 C   0  0  0  0  0  0  0  0  0  0  0  0
   -9.0330   16.5565   21.3300 C   0  0  0  0  0  0  0  0  0  0  0  0
   -7.7389   16.3115   21.8351 C   0  0  0  0  0  0  0  0  0  0  0  0
   -7.5580   15.8222   23.1323 C   0  0  0  0  0  0  0  0  0  0  0  0
   -9.1909   17.0959   19.9212 C   0  0  0  0  0  0  0  0  0  0  0  0
   -8.5777   18.3869   19.7786 O   0  0  0  0  0  0  0  0  0  0  0  0
   -9.0029   19.0153   20.3830 H   0  0  0  0  0  0  0  0  0  0  0  0
   -7.6960   17.8170   27.0774 C   0  0  0  0  0  0  0  0  0  0  0  0
   -6.5207   17.9178   26.1313 C   0  0  0  0  0  0  0  0  0  0  0  0
   -5.3685   17.1395   26.3624 C   0  0  0  0  0  0  0  0  0  0  0  0
   -4.3040   17.1917   25.4456 C   0  0  0  0  0  0  0  0  0  0  0  0
   -4.3992   18.0155   24.3045 C   0  0  0  0  0  0  0  0  0  0  0  0
   -5.5522   18.8048   24.0740 C   0  0  0  0  0  0  0  0  0  0  0  0
   -6.6155   18.7627   24.9940 C   0  0  0  0  0  0  0  0  0  0  0  0
  -11.8628   15.5402   28.0980 C   0  0  0  0  0  0  0  0  0  0  0  0
  -12.4059   14.5425   29.0655 C   0  0  0  0  0  0  0  0  0  0  0  0
  -12.8577   14.9909   30.3374 C   0  0  0  0  0  0  0  0  0  0  0  0
  -13.1743   14.0452   31.3348 C   0  0  0  0  0  0  0  0  0  0  0  0
  -13.0580   12.6646   31.0394 C   0  0  0  0  0  0  0  0  0  0  0  0
  -12.6366   12.2280   29.7618 C   0  0  0  0  0  0  0  0  0  0  0  0
  -12.3079   13.1715   28.7680 C   0  0  0  0  0  0  0  0  0  0  0  0
   -9.0911   14.5829   29.9125 C   0  0  0  0  0  0  0  0  0  0  0  0
   -9.1763   15.3145   31.2098 C   0  0  0  0  0  0  0  0  0  0  0  0
   -9.8739   14.6387   32.2223 C   0  0  0  0  0  0  0  0  0  0  0  0
   -9.9651   15.2253   33.4839 C   0  0  0  0  0  0  0  0  0  0  0  0
   -9.3673   16.4823   33.7367 C   0  0  0  0  0  0  0  0  0  0  0  0
   -8.6653   17.1732   32.7079 C   0  0  0  0  0  0  0  0  0  0  0  0
   -8.5710   16.5776   31.4308 C   0  0  0  0  0  0  0  0  0  0  0  0
   -9.4594   17.0741   35.1214 C   0  0  0  0  0  0  0  0  0  0  0  0
  -10.8273   17.3169   35.4957 O   0  0  0  0  0  0  0  0  0  0  0  0
  -11.2251   17.9477   34.8754 H   0  0  0  0  0  0  0  0  0  0  0  0
  1  6  1  0  0  0
  1  7  1  0  0  0
  1  8  2  0  0  0
  2  3  1  0  0  0
  2 23  1  0  0  0
  2  6  1  0  0  0
  3  4  1  0  0  0
  3  9  1  0  0  0
  4  5  1  0  0  0
  4 10  1  0  0  0
  5 30  1  0  0  0
  5  7  1  0  0  0
 13 14  1  0  0  0
 13  6  1  0  0  0
 14 15  2  0  0  0
 14 19  1  0  0  0
 15 16  1  0  0  0
 16 17  2  0  0  0
 17 18  1  0  0  0
 17 20  1  0  0  0
 18 19  2  0  0  0
 20 21  1  0  0  0
 23 24  1  0  0  0
 24 25  2  0  0  0
 24 29  1  0  0  0
 25 26  1  0  0  0
 26 27  2  0  0  0
 27 28  1  0  0  0
 28 29  2  0  0  0
 30 31  1  0  0  0
 31 32  2  0  0  0
 31 36  1  0  0  0
 32 33  1  0  0  0
 33 34  2  0  0  0
 34 35  1  0  0  0
 35 36  2  0  0  0
 37 38  1  0  0  0
 37  7  1  0  0  0
 38 39  2  0  0  0
 38 43  1  0  0  0
 39 40  1  0  0  0
 40 41  2  0  0  0
 41 42  1  0  0  0
 41 44  1  0  0  0
 42 43  2  0  0  0
 44 45  1  0  0  0
  9 11  1  0  0  0
 10 12  1  0  0  0
 21 22  1  0  0  0
 45 46  1  0  0  0
M  END
> <minimizedAffinity>
-12.64324

$$$$
1MET_DMP_A_323


 46 50  0  0  0  0  0  0  0  0999 V2000
   -8.8002   14.9228   27.4902 C   0  0  0  0  0  0  0  0  0  0  0  0
  -10.5168   16.2468   28.7237 C   0  0  0  0  0  0  0  0  0  0  0  0
  -10.3819   17.6668   28.2027 C   0  0  0  0  0  0  0  0  0  0  0  0
  -10.3413   17.6723   26.6926 C   0  0  0  0  0  0  0  0  0  0  0  0
   -9.0236   17.0938   26.2203 C   0  0  0  0  0  0  0  0  0  0  0  0
   -9.3301   15.3713   28.6447 N   0  0  0  0  0  0  0  0  0  0  0  0
   -8.8235   15.6249   26.3416 N   0  0  0  0  0  0  0  0  0  0  0  0
   -8.2725   13.8205   27.4822 O   0  0  0  0  0  0  0  0  0  0  0  0
  -11.4965   18.3556   28.7051 O   0  0  0  0  0  0  0  0  0  0  0  0
  -10.3316   18.9651   26.1882 O   0  0  0  0  0  0  0  0  0  0  0  0
  -12.3088   17.9169   28.4073 H   0  0  0  0  0  0  0  0  0  0  0  0
   -9.5420   19.4303   26.5061 H   0  0  0  0  0  0  0  0  0  0  0  0
   -8.8134   14.7451   29.8589 C   0  0  0  0  0  0  0  0  0  0  0  0
   -8.9904   15.4608   31.1687 C   0  0  0  0  0  0  0  0  0  0  0  0
   -8.4195   16.7273   31.4561 C   0  0  0  0  0  0  0  0  0  0  0  0
   -8.5795   17.2833   32.7517 C   0  0  0  0  0  0  0  0  0  0  0  0
   -9.3160   16.5667   33.7351 C   0  0  0  0  0  0  0  0  0  0  0  0
   -9.8719   15.3095   33.4184 C   0  0  0  0  0  0  0  0  0  0  0  0
   -9.7189   14.7609   32.1414 C   0  0  0  0  0  0  0  0  0  0  0  0
   -9.5096   17.1350   35.1280 C   0  0  0  0  0  0  0  0  0  0  0  0
  -10.9016   17.2978   35.4428 O   0  0  0  0  0  0  0  0  0  0  0  0
  -11.3049   17.9170   34.8143 H   0  0  0  0  0  0  0  0  0  0  0  0
  -11.7486   15.4770   28.2016 C   0  0  0  0  0  0  0  0  0  0  0  0
  -12.2721   14.4773   29.2082 C   0  0  0  0  0  0  0  0  0  0  0  0
  -12.2141   13.0989   28.9194 C   0  0  0  0  0  0  0  0  0  0  0  0
  -12.6456   12.1720   29.8844 C   0  0  0  0  0  0  0  0  0  0  0  0
  -13.1266   12.6270   31.1299 C   0  0  0  0  0  0  0  0  0  0  0  0
  -13.1937   14.0116   31.4197 C   0  0  0  0  0  0  0  0  0  0  0  0
  -12.7719   14.9426   30.4532 C   0  0  0  0  0  0  0  0  0  0  0  0
   -7.7702   17.8465   26.7365 C   0  0  0  0  0  0  0  0  0  0  0  0
   -6.7893   17.9429   25.6164 C   0  0  0  0  0  0  0  0  0  0  0  0
   -5.5123   17.3343   25.7640 C   0  0  0  0  0  0  0  0  0  0  0  0
   -4.5053   17.5931   24.8108 C   0  0  0  0  0  0  0  0  0  0  0  0
   -4.7959   18.4371   23.7109 C   0  0  0  0  0  0  0  0  0  0  0  0
   -6.0782   19.0140   23.5566 C   0  0  0  0  0  0  0  0  0  0  0  0
   -7.0817   18.7665   24.5145 C   0  0  0  0  0  0  0  0  0  0  0  0
   -8.4524   14.8508   25.1706 C   0  0  0  0  0  0  0  0  0  0  0  0
   -8.7197   15.4716   23.8407 C   0  0  0  0  0  0  0  0  0  0  0  0
   -7.5910   15.6133   23.0195 C   0  0  0  0  0  0  0  0  0  0  0  0
   -7.7520   16.1415   21.7392 C   0  0  0  0  0  0  0  0  0  0  0  0
   -9.0316   16.5309   21.2783 C   0  0  0  0  0  0  0  0  0  0  0  0
  -10.1773   16.3949   22.1136 C   0  0  0  0  0  0  0  0  0  0  0  0
  -10.0142   15.8576   23.4094 C   0  0  0  0  0  0  0  0  0  0  0  0
   -9.1745   17.0705   19.8767 C   0  0  0  0  0  0  0  0  0  0  0  0
   -8.5902   18.3800   19.7591 O   0  0  0  0  0  0  0  0  0  0  0  0
   -9.0431   18.9914   20.3608 H   0  0  0  0  0  0  0  0  0  0  0  0
  1  6  1  0  0  0
  1  7  1  0  0  0
  1  8  2  0  0  0
  2  3  1  0  0  0
  2 23  1  0  0  0
  2  6  1  0  0  0
  3  4  1  0  0  0
  3  9  1  0  0  0
  4  5  1  0  0  0
  4 10  1  0  0  0
  5 30  1  0  0  0
  5  7  1  0  0  0
 13 14  1  0  0  0
 13  6  1  0  0  0
 14 15  2  0  0  0
 14 19  1  0  0  0
 15 16  1  0  0  0
 16 17  2  0  0  0
 17 18  1  0  0  0
 17 20  1  0  0  0
 18 19  2  0  0  0
 20 21  1  0  0  0
 23 24  1  0  0  0
 24 25  2  0  0  0
 24 29  1  0  0  0
 25 26  1  0  0  0
 26 27  2  0  0  0
 27 28  1  0  0  0
 28 29  2  0  0  0
 30 31  1  0  0  0
 31 32  2  0  0  0
 31 36  1  0  0  0
 32 33  1  0  0  0
 33 34  2  0  0  0
 34 35  1  0  0  0
 35 36  2  0  0  0
 37 38  1  0  0  0
 37  7  1  0  0  0
 38 39  2  0  0  0
 38 43  1  0  0  0
 39 40  1  0  0  0
 40 41  2  0  0  0
 41 42  1  0  0  0
 41 44  1  0  0  0
 42 43  2  0  0  0
 44 45  1  0  0  0
  9 11  1  0  0  0
 10 12  1  0  0  0
 21 22  1  0  0  0
 45 46  1  0  0  0
M  END
> <minimizedAffinity>
-12.47939

$$$$
1MET_DMP_A_323


 46 50  0  0  0  0  0  0  0  0999 V2000
  -10.0027   17.5527   27.4350 C   0  0  0  0  0  0  0  0  0  0  0  0
   -9.2935   15.5880   28.7980 C   0  0  0  0  0  0  0  0  0  0  0  0
   -8.8291   14.5473   27.7943 C   0  0  0  0  0  0  0  0  0  0  0  0
   -7.8891   15.1685   26.7881 C   0  0  0  0  0  0  0  0  0  0  0  0
   -8.6670   16.0886   25.8704 C   0  0  0  0  0  0  0  0  0  0  0  0
  -10.2742   16.5929   28.3405 N   0  0  0  0  0  0  0  0  0  0  0  0
   -9.1336   17.3898   26.4197 N   0  0  0  0  0  0  0  0  0  0  0  0
  -10.5722   18.6289   27.5401 O   0  0  0  0  0  0  0  0  0  0  0  0
   -8.2047   13.5476   28.5558 O   0  0  0  0  0  0  0  0  0  0  0  0
   -7.3622   14.2156   25.9276 O   0  0  0  0  0  0  0  0  0  0  0  0
   -7.4763   13.9365   29.0648 H   0  0  0  0  0  0  0  0  0  0  0  0
   -8.0822   13.7911   25.4354 H   0  0  0  0  0  0  0  0  0  0  0  0
  -11.5428   16.7381   29.0498 C   0  0  0  0  0  0  0  0  0  0  0  0
  -12.0036   15.6157   29.9368 C   0  0  0  0  0  0  0  0  0  0  0  0
  -12.2890   14.3082   29.4662 C   0  0  0  0  0  0  0  0  0  0  0  0
  -12.7949   13.3394   30.3712 C   0  0  0  0  0  0  0  0  0  0  0  0
  -12.9979   13.6929   31.7339 C   0  0  0  0  0  0  0  0  0  0  0  0
  -12.7042   15.0014   32.1712 C   0  0  0  0  0  0  0  0  0  0  0  0
  -12.2022   15.9570   31.2824 C   0  0  0  0  0  0  0  0  0  0  0  0
  -13.5329   12.6798   32.7280 C   0  0  0  0  0  0  0  0  0  0  0  0
  -13.2133   11.3357   32.3352 O   0  0  0  0  0  0  0  0  0  0  0  0
  -13.6187   11.1452   31.4748 H   0  0  0  0  0  0  0  0  0  0  0  0
   -8.1606   16.3006   29.5668 C   0  0  0  0  0  0  0  0  0  0  0  0
   -8.4263   16.3657   31.0540 C   0  0  0  0  0  0  0  0  0  0  0  0
   -8.3358   17.6010   31.7269 C   0  0  0  0  0  0  0  0  0  0  0  0
   -8.6439   17.6657   33.0971 C   0  0  0  0  0  0  0  0  0  0  0  0
   -9.0436   16.4998   33.7832 C   0  0  0  0  0  0  0  0  0  0  0  0
   -9.1274   15.2558   33.1117 C   0  0  0  0  0  0  0  0  0  0  0  0
   -8.8107   15.1850   31.7429 C   0  0  0  0  0  0  0  0  0  0  0  0
   -9.8150   15.3971   25.0908 C   0  0  0  0  0  0  0  0  0  0  0  0
   -9.5903   15.6208   23.6328 C   0  0  0  0  0  0  0  0  0  0  0  0
   -8.3311   15.2761   23.0686 C   0  0  0  0  0  0  0  0  0  0  0  0
   -8.0296   15.6725   21.7490 C   0  0  0  0  0  0  0  0  0  0  0  0
   -8.9997   16.3868   21.0036 C   0  0  0  0  0  0  0  0  0  0  0  0
  -10.2607   16.6989   21.5632 C   0  0  0  0  0  0  0  0  0  0  0  0
  -10.5590   16.3145   22.8857 C   0  0  0  0  0  0  0  0  0  0  0  0
   -8.7856   18.6239   25.7386 C   0  0  0  0  0  0  0  0  0  0  0  0
   -7.4788   18.6507   25.0196 C   0  0  0  0  0  0  0  0  0  0  0  0
   -7.5771   18.7166   23.6216 C   0  0  0  0  0  0  0  0  0  0  0  0
   -6.4069   18.7925   22.8672 C   0  0  0  0  0  0  0  0  0  0  0  0
   -5.1424   18.7991   23.5015 C   0  0  0  0  0  0  0  0  0  0  0  0
   -5.0406   18.7244   24.9202 C   0  0  0  0  0  0  0  0  0  0  0  0
   -6.2261   18.6501   25.6841 C   0  0  0  0  0  0  0  0  0  0  0  0
   -3.8977   18.9126   22.6567 C   0  0  0  0  0  0  0  0  0  0  0  0
   -3.8585   20.1653   21.9500 O   0  0  0  0  0  0  0  0  0  0  0  0
   -4.6256   20.2275   21.3595 H   0  0  0  0  0  0  0  0  0  0  0  0
  1  6  1  0  0  0
  1  7  1  0  0  0
  1  8  2  0  0  0
  2  3  1  0  0  0
  2 23  1  0  0  0
  2  6  1  0  0  0
  3  4  1  0  0  0
  3  9  1  0  0  0
  4  5  1  0  0  0
  4 10  1  0  0  0
  5 30  1  0  0  0
  5  7  1  0  0  0
 13 14  1  0  0  0
 13  6  1  0  0  0
 14 15  2  0  0  0
 14 19  1  0  0  0
 15 16  1  0  0  0
 16 17  2  0  0  0
 17 18  1  0  0  0
 17 20  1  0  0  0
 18 19  2  0  0  0
 20 21  1  0  0  0
 23 24  1  0  0  0
 24 25  2  0  0  0
 24 29  1  0  0  0
 25 26  1  0  0  0
 26 27  2  0  0  0
 27 28  1  0  0  0
 28 29  2  0  0  0
 30 31  1  0  0  0
 31 32  2  0  0  0
 31 36  1  0  0  0
 32 33  1  0  0  0
 33 34  2  0  0  0
 34 35  1  0  0  0
 35 36  2  0  0  0
 37 38  1  0  0  0
 37  7  1  0  0  0
 38 39  2  0  0  0
 38 43  1  0  0  0
 39 40  1  0  0  0
 40 41  2  0  0  0
 41 42  1  0  0  0
 41 44  1  0  0  0
 42 43  2  0  0  0
 44 45  1  0  0  0
  9 11  1  0  0  0
 10 12  1  0  0  0
 21 22  1  0  0  0
 45 46  1  0  0  0
M  END
> <minimizedAffinity>
-9.66969

$$$$
