3PPQ_CHT_A_401


  8  7  0  0  0  0  0  0  0  0999 V2000
   29.8928   29.3902    9.8027 C   0  0  0  0  0  0  0  0  0  0  0  0
   28.2971   29.2667    8.1701 C   0  0  0  0  0  0  0  0  0  0  0  0
   29.8382   31.0078    8.1282 C   0  0  0  0  0  0  0  0  0  0  0  0
   28.0536   31.1649    9.5483 C   0  0  0  0  0  0  0  0  0  0  0  0
   29.0031   30.2249    8.9812 N   0  0  0  0  0  0  0  0  0  0  0  0
   30.8171   28.4041    9.0801 C   0  0  0  0  0  0  0  0  0  0  0  0
   31.3660   27.5489    9.7650 O   0  0  0  0  0  0  0  0  0  0  0  0
   31.9674   27.9760   10.3948 H   0  0  0  0  0  0  0  0  0  0  0  0
  6  1  1  0  0  0
  6  7  1  0  0  0
  1  5  1  0  0  0
  2  5  1  0  0  0
  3  5  1  0  0  0
  4  5  1  0  0  0
  7  8  1  0  0  0
M  CHG 1   5   1
M  END
> <minimizedAffinity>
-3.91424

$$$$
3PPQ_CHT_A_401


  8  7  0  0  0  0  0  0  0  0999 V2000
   29.9770   30.3527    8.3500 C   0  0  0  0  0  0  0  0  0  0  0  0
   30.9435   28.2839    8.4635 C   0  0  0  0  0  0  0  0  0  0  0  0
   28.7916   28.4911    7.6066 C   0  0  0  0  0  0  0  0  0  0  0  0
   29.0671   28.4978    9.8759 C   0  0  0  0  0  0  0  0  0  0  0  0
   29.6738   28.9419    8.6344 N   0  0  0  0  0  0  0  0  0  0  0  0
   29.3795   31.4142    9.2801 C   0  0  0  0  0  0  0  0  0  0  0  0
   30.0610   31.7669   10.2355 O   0  0  0  0  0  0  0  0  0  0  0  0
   30.1928   31.0149   10.8339 H   0  0  0  0  0  0  0  0  0  0  0  0
  6  1  1  0  0  0
  6  7  1  0  0  0
  1  5  1  0  0  0
  2  5  1  0  0  0
  3  5  1  0  0  0
  4  5  1  0  0  0
  7  8  1  0  0  0
M  CHG 1   5   1
M  END
> <minimizedAffinity>
-3.78505

$$$$
3PPQ_CHT_A_401


  8  7  0  0  0  0  0  0  0  0999 V2000
   29.9839   30.3470    8.4538 C   0  0  0  0  0  0  0  0  0  0  0  0
   29.1402   28.7179    9.8180 C   0  0  0  0  0  0  0  0  0  0  0  0
   30.9597   28.2324    8.4535 C   0  0  0  0  0  0  0  0  0  0  0  0
   28.8697   28.2263    7.5274 C   0  0  0  0  0  0  0  0  0  0  0  0
   29.7013   28.9045    8.5047 N   0  0  0  0  0  0  0  0  0  0  0  0
   29.2968   31.2473    9.4864 C   0  0  0  0  0  0  0  0  0  0  0  0
   30.0202   31.9383   10.1942 O   0  0  0  0  0  0  0  0  0  0  0  0
   30.5713   31.3654   10.7500 H   0  0  0  0  0  0  0  0  0  0  0  0
  6  1  1  0  0  0
  6  7  1  0  0  0
  1  5  1  0  0  0
  2  5  1  0  0  0
  3  5  1  0  0  0
  4  5  1  0  0  0
  7  8  1  0  0  0
M  CHG 1   5   1
M  END
> <minimizedAffinity>
-3.76696

$$$$
3PPQ_CHT_A_401


  8  7  0  0  0  0  0  0  0  0999 V2000
   30.2422   29.3149    8.1857 C   0  0  0  0  0  0  0  0  0  0  0  0
   28.9177   28.7936    9.9748 C   0  0  0  0  0  0  0  0  0  0  0  0
   28.0798   28.5307    7.8214 C   0  0  0  0  0  0  0  0  0  0  0  0
   28.1031   30.6265    8.7344 C   0  0  0  0  0  0  0  0  0  0  0  0
   28.8530   29.3858    8.6635 N   0  0  0  0  0  0  0  0  0  0  0  0
   31.1119   28.1558    8.6847 C   0  0  0  0  0  0  0  0  0  0  0  0
   31.2349   27.1896    7.9411 O   0  0  0  0  0  0  0  0  0  0  0  0
   30.3716   26.7649    7.8173 H   0  0  0  0  0  0  0  0  0  0  0  0
  6  1  1  0  0  0
  6  7  1  0  0  0
  1  5  1  0  0  0
  2  5  1  0  0  0
  3  5  1  0  0  0
  4  5  1  0  0  0
  7  8  1  0  0  0
M  CHG 1   5   1
M  END
> <minimizedAffinity>
-3.71487

$$$$
3PPQ_CHT_A_401


  8  7  0  0  0  0  0  0  0  0999 V2000
   28.9366   30.4141    8.0827 C   0  0  0  0  0  0  0  0  0  0  0  0
   28.3695   28.2227    7.7617 C   0  0  0  0  0  0  0  0  0  0  0  0
   29.0440   28.9279    9.8725 C   0  0  0  0  0  0  0  0  0  0  0  0
   30.6479   28.5108    8.2978 C   0  0  0  0  0  0  0  0  0  0  0  0
   29.3108   29.0468    8.4751 N   0  0  0  0  0  0  0  0  0  0  0  0
   27.9541   31.1726    8.9818 C   0  0  0  0  0  0  0  0  0  0  0  0
   26.9161   31.5690    8.4650 O   0  0  0  0  0  0  0  0  0  0  0  0
   27.1251   32.2260    7.7826 H   0  0  0  0  0  0  0  0  0  0  0  0
  6  1  1  0  0  0
  6  7  1  0  0  0
  1  5  1  0  0  0
  2  5  1  0  0  0
  3  5  1  0  0  0
  4  5  1  0  0  0
  7  8  1  0  0  0
M  CHG 1   5   1
M  END
> <minimizedAffinity>
-3.56670

$$$$
3PPQ_CHT_A_401


  8  7  0  0  0  0  0  0  0  0999 V2000
   28.7343   29.7335    7.6625 C   0  0  0  0  0  0  0  0  0  0  0  0
   29.7685   31.7213    8.1164 C   0  0  0  0  0  0  0  0  0  0  0  0
   29.8896   29.9932    9.6678 C   0  0  0  0  0  0  0  0  0  0  0  0
   27.9866   31.2576    9.5900 C   0  0  0  0  0  0  0  0  0  0  0  0
   29.0218   30.6707    8.7590 N   0  0  0  0  0  0  0  0  0  0  0  0
   28.5456   28.2544    8.0168 C   0  0  0  0  0  0  0  0  0  0  0  0
   29.2772   27.4479    7.4546 O   0  0  0  0  0  0  0  0  0  0  0  0
   29.0985   27.4590    6.5013 H   0  0  0  0  0  0  0  0  0  0  0  0
  6  1  1  0  0  0
  6  7  1  0  0  0
  1  5  1  0  0  0
  2  5  1  0  0  0
  3  5  1  0  0  0
  4  5  1  0  0  0
  7  8  1  0  0  0
M  CHG 1   5   1
M  END
> <minimizedAffinity>
-3.50662

$$$$
3PPQ_CHT_A_401


  8  7  0  0  0  0  0  0  0  0999 V2000
   28.2937   29.8255    7.9347 C   0  0  0  0  0  0  0  0  0  0  0  0
   29.8805   30.1003    9.5576 C   0  0  0  0  0  0  0  0  0  0  0  0
   27.9863   31.4493    9.5756 C   0  0  0  0  0  0  0  0  0  0  0  0
   29.6856   31.9745    8.1394 C   0  0  0  0  0  0  0  0  0  0  0  0
   28.9743   30.8569    8.7325 N   0  0  0  0  0  0  0  0  0  0  0  0
   28.9482   28.4425    7.8459 C   0  0  0  0  0  0  0  0  0  0  0  0
   28.2625   27.4786    8.1661 O   0  0  0  0  0  0  0  0  0  0  0  0
   28.0347   27.5421    9.1068 H   0  0  0  0  0  0  0  0  0  0  0  0
  6  1  1  0  0  0
  6  7  1  0  0  0
  1  5  1  0  0  0
  2  5  1  0  0  0
  3  5  1  0  0  0
  4  5  1  0  0  0
  7  8  1  0  0  0
M  CHG 1   5   1
M  END
> <minimizedAffinity>
-3.45574

$$$$
3PPQ_CHT_A_401


  8  7  0  0  0  0  0  0  0  0999 V2000
   29.2009   32.5525    7.5661 C   0  0  0  0  0  0  0  0  0  0  0  0
   27.7110   31.0445    8.4223 C   0  0  0  0  0  0  0  0  0  0  0  0
   29.4255   31.8458    9.7738 C   0  0  0  0  0  0  0  0  0  0  0  0
   29.9026   30.1859    8.2760 C   0  0  0  0  0  0  0  0  0  0  0  0
   29.1093   31.3875    8.4592 N   0  0  0  0  0  0  0  0  0  0  0  0
   30.3542   33.5367    7.7904 C   0  0  0  0  0  0  0  0  0  0  0  0
   31.4546   33.2152    7.3576 O   0  0  0  0  0  0  0  0  0  0  0  0
   31.7646   32.4210    7.8202 H   0  0  0  0  0  0  0  0  0  0  0  0
  6  1  1  0  0  0
  6  7  1  0  0  0
  1  5  1  0  0  0
  2  5  1  0  0  0
  3  5  1  0  0  0
  4  5  1  0  0  0
  7  8  1  0  0  0
M  CHG 1   5   1
M  END
> <minimizedAffinity>
-3.30748

$$$$
3PPQ_CHT_A_401


  8  7  0  0  0  0  0  0  0  0999 V2000
   27.4812   31.8085    9.5013 C   0  0  0  0  0  0  0  0  0  0  0  0
   29.5389   32.8019    9.4254 C   0  0  0  0  0  0  0  0  0  0  0  0
   28.8112   31.5474    7.6075 C   0  0  0  0  0  0  0  0  0  0  0  0
   29.6574   30.4465    9.4235 C   0  0  0  0  0  0  0  0  0  0  0  0
   28.8590   31.5942    9.0335 N   0  0  0  0  0  0  0  0  0  0  0  0
   27.0963   33.2154    9.9718 C   0  0  0  0  0  0  0  0  0  0  0  0
   25.9025   33.4916    9.9883 O   0  0  0  0  0  0  0  0  0  0  0  0
   25.5533   33.4709    9.0836 H   0  0  0  0  0  0  0  0  0  0  0  0
  6  1  1  0  0  0
  6  7  1  0  0  0
  1  5  1  0  0  0
  2  5  1  0  0  0
  3  5  1  0  0  0
  4  5  1  0  0  0
  7  8  1  0  0  0
M  CHG 1   5   1
M  END
> <minimizedAffinity>
-3.24482

$$$$
3PPQ_CHT_A_401


  8  7  0  0  0  0  0  0  0  0999 V2000
   29.5629   30.8133    9.4601 C   0  0  0  0  0  0  0  0  0  0  0  0
   27.5048   31.8079    9.5065 C   0  0  0  0  0  0  0  0  0  0  0  0
   28.7378   31.8313    7.5348 C   0  0  0  0  0  0  0  0  0  0  0  0
   29.2591   33.3467    9.1652 C   0  0  0  0  0  0  0  0  0  0  0  0
   28.8232   31.9787    8.9522 N   0  0  0  0  0  0  0  0  0  0  0  0
   28.8546   29.4543    9.4444 C   0  0  0  0  0  0  0  0  0  0  0  0
   29.0471   28.7132   10.4012 O   0  0  0  0  0  0  0  0  0  0  0  0
   29.9832   28.4608   10.4315 H   0  0  0  0  0  0  0  0  0  0  0  0
  6  1  1  0  0  0
  6  7  1  0  0  0
  1  5  1  0  0  0
  2  5  1  0  0  0
  3  5  1  0  0  0
  4  5  1  0  0  0
  7  8  1  0  0  0
M  CHG 1   5   1
M  END
> <minimizedAffinity>
-3.18033

$$$$
