5L4M_SBK_A_201


 15 15  0  0  0  0  0  0  0  0999 V2000
  -20.3429   -2.2480  -24.0732 C   0  0  0  0  0  0  0  0  0  0  0  0
  -21.1627   -1.2869  -23.4032 C   0  0  0  0  0  0  0  0  0  0  0  0
  -21.6714   -0.2006  -24.1499 C   0  0  0  0  0  0  0  0  0  0  0  0
  -21.4104   -0.0514  -25.4321 N   0  0  0  0  0  0  0  0  0  0  0  0
  -20.6441   -0.9450  -26.0597 C   0  0  0  0  0  0  0  0  0  0  0  0
  -20.0663   -2.0753  -25.4427 C   0  0  0  0  0  0  0  0  0  0  0  0
  -19.0674   -3.2328  -26.3316 Cl  0  0  0  0  0  0  0  0  0  0  0  0
  -20.3667   -0.6253  -27.7392 Cl  0  0  0  0  0  0  0  0  0  0  0  0
  -21.5250   -1.4675  -21.6903 Cl  0  0  0  0  0  0  0  0  0  0  0  0
  -22.4559    0.6935  -23.5107 O   0  0  0  0  0  0  0  0  0  0  0  0
  -22.0611    2.0927  -23.5765 C   0  0  0  0  0  0  0  0  0  0  0  0
  -21.2216    2.4575  -22.3885 C   0  0  0  0  0  0  0  0  0  0  0  0
  -20.3821    3.4537  -22.4670 O   0  0  0  0  0  0  0  0  0  0  0  0
  -21.3333    1.8047  -21.3654 O   0  0  0  0  0  0  0  0  0  0  0  0
  -20.3101    3.9441  -23.2622 H   0  0  0  0  0  0  0  0  0  0  0  0
 14 12  2  0  0  0
 12 11  1  0  0  0
 12 13  1  0  0  0
 11 10  1  0  0  0
 10  3  1  0  0  0
  4  3  2  0  0  0
  4  5  1  0  0  0
  3  2  1  0  0  0
  8  5  1  0  0  0
  5  6  2  0  0  0
  9  2  1  0  0  0
  2  1  2  0  0  0
  6  1  1  0  0  0
  6  7  1  0  0  0
 13 15  1  0  0  0
M  END
> <minimizedAffinity>
-6.78754

$$$$
5L4M_SBK_A_201


 15 15  0  0  0  0  0  0  0  0999 V2000
  -22.1821    2.2436  -24.1026 C   0  0  0  0  0  0  0  0  0  0  0  0
  -21.3659    1.2819  -23.4290 C   0  0  0  0  0  0  0  0  0  0  0  0
  -20.8700    0.1852  -24.1691 C   0  0  0  0  0  0  0  0  0  0  0  0
  -21.1396    0.0269  -25.4483 N   0  0  0  0  0  0  0  0  0  0  0  0
  -21.9026    0.9209  -26.0794 C   0  0  0  0  0  0  0  0  0  0  0  0
  -22.4680    2.0611  -25.4690 C   0  0  0  0  0  0  0  0  0  0  0  0
  -23.4629    3.2186  -26.3622 Cl  0  0  0  0  0  0  0  0  0  0  0  0
  -22.1922    0.5888  -27.7544 Cl  0  0  0  0  0  0  0  0  0  0  0  0
  -20.9922    1.4746  -21.7198 Cl  0  0  0  0  0  0  0  0  0  0  0  0
  -20.0888   -0.7094  -23.5265 O   0  0  0  0  0  0  0  0  0  0  0  0
  -20.4873   -2.1077  -23.5893 C   0  0  0  0  0  0  0  0  0  0  0  0
  -21.3203   -2.4701  -22.3960 C   0  0  0  0  0  0  0  0  0  0  0  0
  -22.1470   -3.4777  -22.4621 O   0  0  0  0  0  0  0  0  0  0  0  0
  -21.2153   -1.8046  -21.3803 O   0  0  0  0  0  0  0  0  0  0  0  0
  -22.2139   -3.9778  -23.2516 H   0  0  0  0  0  0  0  0  0  0  0  0
 14 12  2  0  0  0
 12 11  1  0  0  0
 12 13  1  0  0  0
 11 10  1  0  0  0
 10  3  1  0  0  0
  4  3  2  0  0  0
  4  5  1  0  0  0
  3  2  1  0  0  0
  8  5  1  0  0  0
  5  6  2  0  0  0
  9  2  1  0  0  0
  2  1  2  0  0  0
  6  1  1  0  0  0
  6  7  1  0  0  0
 13 15  1  0  0  0
M  END
> <minimizedAffinity>
-6.78421

$$$$
5L4M_SBK_A_201


 15 15  0  0  0  0  0  0  0  0999 V2000
  -21.9802    1.1080  -26.5470 C   0  0  0  0  0  0  0  0  0  0  0  0
  -22.1598    0.9879  -25.1334 C   0  0  0  0  0  0  0  0  0  0  0  0
  -21.5857   -0.1226  -24.4752 C   0  0  0  0  0  0  0  0  0  0  0  0
  -20.8992   -1.0406  -25.1235 N   0  0  0  0  0  0  0  0  0  0  0  0
  -20.7316   -0.9329  -26.4426 C   0  0  0  0  0  0  0  0  0  0  0  0
  -21.2491    0.1179  -27.2303 C   0  0  0  0  0  0  0  0  0  0  0  0
  -20.9829    0.2126  -28.9761 Cl  0  0  0  0  0  0  0  0  0  0  0  0
  -19.8225   -2.2122  -27.1753 Cl  0  0  0  0  0  0  0  0  0  0  0  0
  -23.0727    2.2039  -24.2469 Cl  0  0  0  0  0  0  0  0  0  0  0  0
  -21.7495   -0.2189  -23.1381 O   0  0  0  0  0  0  0  0  0  0  0  0
  -20.9396   -1.2042  -22.4373 C   0  0  0  0  0  0  0  0  0  0  0  0
  -21.8125   -2.2465  -21.8042 C   0  0  0  0  0  0  0  0  0  0  0  0
  -22.0357   -3.3723  -22.4255 O   0  0  0  0  0  0  0  0  0  0  0  0
  -22.3094   -2.0167  -20.7153 O   0  0  0  0  0  0  0  0  0  0  0  0
  -21.6449   -3.5311  -23.2622 H   0  0  0  0  0  0  0  0  0  0  0  0
 14 12  2  0  0  0
 12 11  1  0  0  0
 12 13  1  0  0  0
 11 10  1  0  0  0
 10  3  1  0  0  0
  4  3  2  0  0  0
  4  5  1  0  0  0
  3  2  1  0  0  0
  8  5  1  0  0  0
  5  6  2  0  0  0
  9  2  1  0  0  0
  2  1  2  0  0  0
  6  1  1  0  0  0
  6  7  1  0  0  0
 13 15  1  0  0  0
M  END
> <minimizedAffinity>
-6.32614

$$$$
5L4M_SBK_A_201


 15 15  0  0  0  0  0  0  0  0999 V2000
  -20.6143   -1.1374  -26.5416 C   0  0  0  0  0  0  0  0  0  0  0  0
  -20.4192   -1.0145  -25.1304 C   0  0  0  0  0  0  0  0  0  0  0  0
  -20.9725    0.1058  -24.4707 C   0  0  0  0  0  0  0  0  0  0  0  0
  -21.6533    1.0302  -25.1158 N   0  0  0  0  0  0  0  0  0  0  0  0
  -21.8352    0.9198  -26.4327 C   0  0  0  0  0  0  0  0  0  0  0  0
  -21.3391   -0.1404  -27.2215 C   0  0  0  0  0  0  0  0  0  0  0  0
  -21.6236   -0.2380  -28.9642 Cl  0  0  0  0  0  0  0  0  0  0  0  0
  -22.7348    2.2082  -27.1613 Cl  0  0  0  0  0  0  0  0  0  0  0  0
  -19.5135   -2.2390  -24.2482 Cl  0  0  0  0  0  0  0  0  0  0  0  0
  -20.7943    0.2047  -23.1357 O   0  0  0  0  0  0  0  0  0  0  0  0
  -21.5984    1.1898  -22.4278 C   0  0  0  0  0  0  0  0  0  0  0  0
  -20.7210    2.2388  -21.8121 C   0  0  0  0  0  0  0  0  0  0  0  0
  -20.4878    3.3504  -22.4548 O   0  0  0  0  0  0  0  0  0  0  0  0
  -20.2299    2.0274  -20.7169 O   0  0  0  0  0  0  0  0  0  0  0  0
  -20.8742    3.4951  -23.2961 H   0  0  0  0  0  0  0  0  0  0  0  0
 14 12  2  0  0  0
 12 11  1  0  0  0
 12 13  1  0  0  0
 11 10  1  0  0  0
 10  3  1  0  0  0
  4  3  2  0  0  0
  4  5  1  0  0  0
  3  2  1  0  0  0
  8  5  1  0  0  0
  5  6  2  0  0  0
  9  2  1  0  0  0
  2  1  2  0  0  0
  6  1  1  0  0  0
  6  7  1  0  0  0
 13 15  1  0  0  0
M  END
> <minimizedAffinity>
-6.31493

$$$$
5L4M_SBK_A_201


 15 15  0  0  0  0  0  0  0  0999 V2000
  -21.8698    1.1446  -26.4067 C   0  0  0  0  0  0  0  0  0  0  0  0
  -22.1772    0.9061  -25.0308 C   0  0  0  0  0  0  0  0  0  0  0  0
  -21.7100   -0.2869  -24.4350 C   0  0  0  0  0  0  0  0  0  0  0  0
  -21.0087   -1.1755  -25.1079 N   0  0  0  0  0  0  0  0  0  0  0  0
  -20.7220   -0.9571  -26.3923 C   0  0  0  0  0  0  0  0  0  0  0  0
  -21.1240    0.1852  -27.1175 C   0  0  0  0  0  0  0  0  0  0  0  0
  -20.7024    0.4244  -28.8183 Cl  0  0  0  0  0  0  0  0  0  0  0  0
  -19.8068   -2.2085  -27.1646 Cl  0  0  0  0  0  0  0  0  0  0  0  0
  -23.1123    2.0808  -24.1123 Cl  0  0  0  0  0  0  0  0  0  0  0  0
  -21.9940   -0.4956  -23.1314 O   0  0  0  0  0  0  0  0  0  0  0  0
  -20.8690   -0.6324  -22.2184 C   0  0  0  0  0  0  0  0  0  0  0  0
  -20.9819    0.3547  -21.0950 C   0  0  0  0  0  0  0  0  0  0  0  0
  -20.5835    1.5853  -21.2684 O   0  0  0  0  0  0  0  0  0  0  0  0
  -21.4392   -0.0168  -20.0280 O   0  0  0  0  0  0  0  0  0  0  0  0
  -20.2346    1.8525  -22.0960 H   0  0  0  0  0  0  0  0  0  0  0  0
 14 12  2  0  0  0
 12 11  1  0  0  0
 12 13  1  0  0  0
 11 10  1  0  0  0
 10  3  1  0  0  0
  4  3  2  0  0  0
  4  5  1  0  0  0
  3  2  1  0  0  0
  8  5  1  0  0  0
  5  6  2  0  0  0
  9  2  1  0  0  0
  2  1  2  0  0  0
  6  1  1  0  0  0
  6  7  1  0  0  0
 13 15  1  0  0  0
M  END
> <minimizedAffinity>
-6.17364

$$$$
5L4M_SBK_A_201


 15 15  0  0  0  0  0  0  0  0999 V2000
  -20.7723   -1.1120  -26.2345 C   0  0  0  0  0  0  0  0  0  0  0  0
  -20.2722   -0.7846  -24.9355 C   0  0  0  0  0  0  0  0  0  0  0  0
  -20.6044    0.4736  -24.3853 C   0  0  0  0  0  0  0  0  0  0  0  0
  -21.3523    1.3434  -25.0321 N   0  0  0  0  0  0  0  0  0  0  0  0
  -21.8186    1.0420  -26.2451 C   0  0  0  0  0  0  0  0  0  0  0  0
  -21.5665   -0.1724  -26.9188 C   0  0  0  0  0  0  0  0  0  0  0  0
  -22.2234   -0.5194  -28.5237 Cl  0  0  0  0  0  0  0  0  0  0  0  0
  -22.7764    2.2766  -26.9923 Cl  0  0  0  0  0  0  0  0  0  0  0  0
  -19.2717   -1.9326  -24.0529 Cl  0  0  0  0  0  0  0  0  0  0  0  0
  -20.1384    0.7670  -23.1522 O   0  0  0  0  0  0  0  0  0  0  0  0
  -21.1170    1.1419  -22.1423 C   0  0  0  0  0  0  0  0  0  0  0  0
  -21.4729   -0.0410  -21.2918 C   0  0  0  0  0  0  0  0  0  0  0  0
  -22.1272   -1.0429  -21.8127 O   0  0  0  0  0  0  0  0  0  0  0  0
  -21.1494   -0.0404  -20.1168 O   0  0  0  0  0  0  0  0  0  0  0  0
  -22.3674   -1.0255  -22.7182 H   0  0  0  0  0  0  0  0  0  0  0  0
 14 12  2  0  0  0
 12 11  1  0  0  0
 12 13  1  0  0  0
 11 10  1  0  0  0
 10  3  1  0  0  0
  4  3  2  0  0  0
  4  5  1  0  0  0
  3  2  1  0  0  0
  8  5  1  0  0  0
  5  6  2  0  0  0
  9  2  1  0  0  0
  2  1  2  0  0  0
  6  1  1  0  0  0
  6  7  1  0  0  0
 13 15  1  0  0  0
M  END
> <minimizedAffinity>
-6.12496

$$$$
5L4M_SBK_A_201


 15 15  0  0  0  0  0  0  0  0999 V2000
  -21.1900   -1.7535  -25.3806 C   0  0  0  0  0  0  0  0  0  0  0  0
  -20.7196   -1.2505  -24.1274 C   0  0  0  0  0  0  0  0  0  0  0  0
  -20.2045    0.0644  -24.0819 C   0  0  0  0  0  0  0  0  0  0  0  0
  -20.1451    0.8286  -25.1527 N   0  0  0  0  0  0  0  0  0  0  0  0
  -20.5810    0.3617  -26.3239 C   0  0  0  0  0  0  0  0  0  0  0  0
  -21.1167   -0.9294  -26.5196 C   0  0  0  0  0  0  0  0  0  0  0  0
  -21.6901   -1.4880  -28.0966 Cl  0  0  0  0  0  0  0  0  0  0  0  0
  -20.4341    1.4608  -27.6544 Cl  0  0  0  0  0  0  0  0  0  0  0  0
  -20.7906   -2.2545  -22.6835 Cl  0  0  0  0  0  0  0  0  0  0  0  0
  -19.7759    0.5344  -22.8907 O   0  0  0  0  0  0  0  0  0  0  0  0
  -20.7726    1.1265  -22.0109 C   0  0  0  0  0  0  0  0  0  0  0  0
  -21.1865    2.4753  -22.5196 C   0  0  0  0  0  0  0  0  0  0  0  0
  -20.4176    3.5103  -22.3175 O   0  0  0  0  0  0  0  0  0  0  0  0
  -22.2476    2.5822  -23.1096 O   0  0  0  0  0  0  0  0  0  0  0  0
  -19.6052    3.4086  -21.8618 H   0  0  0  0  0  0  0  0  0  0  0  0
 14 12  2  0  0  0
 12 11  1  0  0  0
 12 13  1  0  0  0
 11 10  1  0  0  0
 10  3  1  0  0  0
  4  3  2  0  0  0
  4  5  1  0  0  0
  3  2  1  0  0  0
  8  5  1  0  0  0
  5  6  2  0  0  0
  9  2  1  0  0  0
  2  1  2  0  0  0
  6  1  1  0  0  0
  6  7  1  0  0  0
 13 15  1  0  0  0
M  END
> <minimizedAffinity>
-5.82879

$$$$
5L4M_SBK_A_201


 15 15  0  0  0  0  0  0  0  0999 V2000
  -20.8437   -0.6270  -26.7212 C   0  0  0  0  0  0  0  0  0  0  0  0
  -21.6530    0.4429  -26.2259 C   0  0  0  0  0  0  0  0  0  0  0  0
  -21.9994    0.4446  -24.8561 C   0  0  0  0  0  0  0  0  0  0  0  0
  -21.6024   -0.5045  -24.0341 N   0  0  0  0  0  0  0  0  0  0  0  0
  -20.8492   -1.5053  -24.4933 C   0  0  0  0  0  0  0  0  0  0  0  0
  -20.4297   -1.6389  -25.8344 C   0  0  0  0  0  0  0  0  0  0  0  0
  -19.4202   -2.9839  -26.3816 Cl  0  0  0  0  0  0  0  0  0  0  0  0
  -20.4072   -2.6941  -23.3139 Cl  0  0  0  0  0  0  0  0  0  0  0  0
  -22.1938    1.7224  -27.3068 Cl  0  0  0  0  0  0  0  0  0  0  0  0
  -22.7522    1.4670  -24.3959 O   0  0  0  0  0  0  0  0  0  0  0  0
  -22.0627    2.7048  -24.0638 C   0  0  0  0  0  0  0  0  0  0  0  0
  -21.4816    2.6277  -22.6834 C   0  0  0  0  0  0  0  0  0  0  0  0
  -20.4028    3.3025  -22.3936 O   0  0  0  0  0  0  0  0  0  0  0  0
  -22.0276    1.9222  -21.8529 O   0  0  0  0  0  0  0  0  0  0  0  0
  -19.9970    3.8397  -23.0453 H   0  0  0  0  0  0  0  0  0  0  0  0
 14 12  2  0  0  0
 12 11  1  0  0  0
 12 13  1  0  0  0
 11 10  1  0  0  0
 10  3  1  0  0  0
  4  3  2  0  0  0
  4  5  1  0  0  0
  3  2  1  0  0  0
  8  5  1  0  0  0
  5  6  2  0  0  0
  9  2  1  0  0  0
  2  1  2  0  0  0
  6  1  1  0  0  0
  6  7  1  0  0  0
 13 15  1  0  0  0
M  END
> <minimizedAffinity>
-5.61868

$$$$
5L4M_SBK_A_201


 15 15  0  0  0  0  0  0  0  0999 V2000
  -22.4259    1.2576  -24.1241 C   0  0  0  0  0  0  0  0  0  0  0  0
  -22.2817    1.6566  -25.4897 C   0  0  0  0  0  0  0  0  0  0  0  0
  -21.3834    0.9364  -26.3087 C   0  0  0  0  0  0  0  0  0  0  0  0
  -20.6819   -0.0796  -25.8508 N   0  0  0  0  0  0  0  0  0  0  0  0
  -20.8123   -0.4531  -24.5768 C   0  0  0  0  0  0  0  0  0  0  0  0
  -21.6669    0.1734  -23.6443 C   0  0  0  0  0  0  0  0  0  0  0  0
  -21.8058   -0.3757  -21.9689 Cl  0  0  0  0  0  0  0  0  0  0  0  0
  -19.8241   -1.7926  -24.0982 Cl  0  0  0  0  0  0  0  0  0  0  0  0
  -23.2103    3.0111  -26.1228 Cl  0  0  0  0  0  0  0  0  0  0  0  0
  -21.2653    1.3127  -27.6003 O   0  0  0  0  0  0  0  0  0  0  0  0
  -20.2078    0.6889  -28.3816 C   0  0  0  0  0  0  0  0  0  0  0  0
  -19.2926    1.7309  -28.9524 C   0  0  0  0  0  0  0  0  0  0  0  0
  -18.0517    1.4293  -29.2214 O   0  0  0  0  0  0  0  0  0  0  0  0
  -19.7265    2.8530  -29.1473 O   0  0  0  0  0  0  0  0  0  0  0  0
  -17.7361    0.5610  -29.0649 H   0  0  0  0  0  0  0  0  0  0  0  0
 14 12  2  0  0  0
 12 11  1  0  0  0
 12 13  1  0  0  0
 11 10  1  0  0  0
 10  3  1  0  0  0
  4  3  2  0  0  0
  4  5  1  0  0  0
  3  2  1  0  0  0
  8  5  1  0  0  0
  5  6  2  0  0  0
  9  2  1  0  0  0
  2  1  2  0  0  0
  6  1  1  0  0  0
  6  7  1  0  0  0
 13 15  1  0  0  0
M  END
> <minimizedAffinity>
-5.52744

$$$$
5L4M_SBK_A_201


 15 15  0  0  0  0  0  0  0  0999 V2000
  -20.1049    0.7387  -26.3583 C   0  0  0  0  0  0  0  0  0  0  0  0
  -20.3753    0.1724  -25.0734 C   0  0  0  0  0  0  0  0  0  0  0  0
  -21.4436   -0.7447  -24.9547 C   0  0  0  0  0  0  0  0  0  0  0  0
  -22.1894   -1.0853  -25.9853 N   0  0  0  0  0  0  0  0  0  0  0  0
  -21.9413   -0.5571  -27.1849 C   0  0  0  0  0  0  0  0  0  0  0  0
  -20.9121    0.3713  -27.4516 C   0  0  0  0  0  0  0  0  0  0  0  0
  -20.6244    1.0281  -29.0681 Cl  0  0  0  0  0  0  0  0  0  0  0  0
  -23.0029   -1.0768  -28.4510 Cl  0  0  0  0  0  0  0  0  0  0  0  0
  -19.3904    0.6128  -23.6828 Cl  0  0  0  0  0  0  0  0  0  0  0  0
  -21.6814   -1.2841  -23.7398 O   0  0  0  0  0  0  0  0  0  0  0  0
  -22.3161   -0.4318  -22.7454 C   0  0  0  0  0  0  0  0  0  0  0  0
  -21.8968   -0.8359  -21.3634 C   0  0  0  0  0  0  0  0  0  0  0  0
  -21.2552    0.0106  -20.6051 O   0  0  0  0  0  0  0  0  0  0  0  0
  -22.1574   -1.9611  -20.9740 O   0  0  0  0  0  0  0  0  0  0  0  0
  -21.0638    0.8715  -20.9217 H   0  0  0  0  0  0  0  0  0  0  0  0
 14 12  2  0  0  0
 12 11  1  0  0  0
 12 13  1  0  0  0
 11 10  1  0  0  0
 10  3  1  0  0  0
  4  3  2  0  0  0
  4  5  1  0  0  0
  3  2  1  0  0  0
  8  5  1  0  0  0
  5  6  2  0  0  0
  9  2  1  0  0  0
  2  1  2  0  0  0
  6  1  1  0  0  0
  6  7  1  0  0  0
 13 15  1  0  0  0
M  END
> <minimizedAffinity>
-5.52633

$$$$
