1MAI_I3P_A_200


 33 33  0  0  0  0  0  0  0  0999 V2000
   31.7823   10.4485    9.0507 C   0  0  0  0  0  0  0  0  0  0  0  0
   32.1096    9.5338   10.2387 C   0  0  0  0  0  0  0  0  0  0  0  0
   33.0310   10.2399   11.2122 C   0  0  0  0  0  0  0  0  0  0  0  0
   32.3659   11.5241   11.7030 C   0  0  0  0  0  0  0  0  0  0  0  0
   32.0372   12.4381   10.5111 C   0  0  0  0  0  0  0  0  0  0  0  0
   31.1084   11.7279    9.5360 C   0  0  0  0  0  0  0  0  0  0  0  0
   30.9237    9.1401   10.9105 O   0  0  0  0  0  0  0  0  0  0  0  0
   33.2855    9.3857   12.3070 O   0  0  0  0  0  0  0  0  0  0  0  0
   30.7893   12.5611    8.4285 O   0  0  0  0  0  0  0  0  0  0  0  0
   30.4731    9.9256   11.2583 H   0  0  0  0  0  0  0  0  0  0  0  0
   32.4491    9.1639   12.7453 H   0  0  0  0  0  0  0  0  0  0  0  0
   31.6023   12.7909    7.9519 H   0  0  0  0  0  0  0  0  0  0  0  0
   30.8429    9.8900    8.0495 O   0  0  0  0  0  0  0  0  0  0  0  0
   31.2392    9.6617    6.5286 P   0  0  0  0  0  0  0  0  0  0  0  0
   30.9683   10.9482    5.8383 O   0  0  0  0  0  0  0  0  0  0  0  0
   30.3645    8.5347    6.1062 O   0  0  0  0  0  0  0  0  0  0  0  0
   32.6311    9.2603    6.6899 O   0  0  0  0  0  0  0  0  0  0  0  0
   29.4523    8.8509    6.0129 H   0  0  0  0  0  0  0  0  0  0  0  0
   33.1588   10.0264    6.9648 H   0  0  0  0  0  0  0  0  0  0  0  0
   33.2483   12.1622   12.7194 O   0  0  0  0  0  0  0  0  0  0  0  0
   34.8473   12.3229   12.6310 P   0  0  0  0  0  0  0  0  0  0  0  0
   34.9275   13.0644   11.3433 O   0  0  0  0  0  0  0  0  0  0  0  0
   35.1534   13.1467   13.8078 O   0  0  0  0  0  0  0  0  0  0  0  0
   35.4893   10.9835   12.6821 O   0  0  0  0  0  0  0  0  0  0  0  0
   34.7120   14.0064   13.7243 H   0  0  0  0  0  0  0  0  0  0  0  0
   35.2560   10.4824   11.8850 H   0  0  0  0  0  0  0  0  0  0  0  0
   31.3127   13.6091   10.9970 O   0  0  0  0  0  0  0  0  0  0  0  0
   31.7131   15.1378   10.7339 P   0  0  0  0  0  0  0  0  0  0  0  0
   31.6256   15.1855    9.2540 O   0  0  0  0  0  0  0  0  0  0  0  0
   30.6793   15.8927   11.5028 O   0  0  0  0  0  0  0  0  0  0  0  0
   33.0695   15.1673   11.2927 O   0  0  0  0  0  0  0  0  0  0  0  0
   29.8219   15.8132   11.0561 H   0  0  0  0  0  0  0  0  0  0  0  0
   33.6641   14.6518   10.7255 H   0  0  0  0  0  0  0  0  0  0  0  0
  1  2  1  0  0  0
  1  6  1  0  0  0
  1 13  1  0  0  0
  2  3  1  0  0  0
  2  7  1  0  0  0
  3  4  1  0  0  0
  3  8  1  0  0  0
  4  5  1  0  0  0
  4 20  1  0  0  0
  5  6  1  0  0  0
  5 27  1  0  0  0
  6  9  1  0  0  0
 13 14  1  0  0  0
 20 21  1  0  0  0
 27 28  1  0  0  0
 14 15  2  0  0  0
 14 16  1  0  0  0
 14 17  1  0  0  0
 21 22  2  0  0  0
 21 23  1  0  0  0
 21 24  1  0  0  0
 28 29  2  0  0  0
 28 30  1  0  0  0
 28 31  1  0  0  0
  7 10  1  0  0  0
  8 11  1  0  0  0
  9 12  1  0  0  0
 16 18  1  0  0  0
 17 19  1  0  0  0
 23 25  1  0  0  0
 24 26  1  0  0  0
 30 32  1  0  0  0
 31 33  1  0  0  0
M  END
> <minimizedAffinity>
-7.15873

$$$$
1MAI_I3P_A_200


 33 33  0  0  0  0  0  0  0  0999 V2000
   33.5852   17.8138    3.6408 C   0  0  0  0  0  0  0  0  0  0  0  0
   34.1142   18.4897    4.9129 C   0  0  0  0  0  0  0  0  0  0  0  0
   33.0884   18.4026    6.0244 C   0  0  0  0  0  0  0  0  0  0  0  0
   32.7621   16.9367    6.3027 C   0  0  0  0  0  0  0  0  0  0  0  0
   32.2340   16.2612    5.0264 C   0  0  0  0  0  0  0  0  0  0  0  0
   33.2678   16.3468    3.9121 C   0  0  0  0  0  0  0  0  0  0  0  0
   35.3243   17.8828    5.3374 O   0  0  0  0  0  0  0  0  0  0  0  0
   33.6177   19.0028    7.1873 O   0  0  0  0  0  0  0  0  0  0  0  0
   32.7981   15.7219    2.7241 O   0  0  0  0  0  0  0  0  0  0  0  0
   35.1624   16.9492    5.5449 H   0  0  0  0  0  0  0  0  0  0  0  0
   34.4289   18.5400    7.4494 H   0  0  0  0  0  0  0  0  0  0  0  0
   31.9937   16.1702    2.4193 H   0  0  0  0  0  0  0  0  0  0  0  0
   34.5208   17.7857    2.4916 O   0  0  0  0  0  0  0  0  0  0  0  0
   34.1211   18.2956    1.0416 P   0  0  0  0  0  0  0  0  0  0  0  0
   35.2573   19.1295    0.5740 O   0  0  0  0  0  0  0  0  0  0  0  0
   32.8559   19.0437    1.2721 O   0  0  0  0  0  0  0  0  0  0  0  0
   33.9023   17.0165    0.3777 O   0  0  0  0  0  0  0  0  0  0  0  0
   33.0533   19.8841    1.7144 H   0  0  0  0  0  0  0  0  0  0  0  0
   34.7532   16.5686    0.2503 H   0  0  0  0  0  0  0  0  0  0  0  0
   31.8158   16.8664    7.4509 O   0  0  0  0  0  0  0  0  0  0  0  0
   32.0426   16.0660    8.8287 P   0  0  0  0  0  0  0  0  0  0  0  0
   33.2627   16.7746    9.3017 O   0  0  0  0  0  0  0  0  0  0  0  0
   30.8333   16.3951    9.5947 O   0  0  0  0  0  0  0  0  0  0  0  0
   32.1697   14.6120    8.5487 O   0  0  0  0  0  0  0  0  0  0  0  0
   30.7991   17.3521    9.7495 H   0  0  0  0  0  0  0  0  0  0  0  0
   32.9813   14.4499    8.0428 H   0  0  0  0  0  0  0  0  0  0  0  0
   32.0269   14.8405    5.2928 O   0  0  0  0  0  0  0  0  0  0  0  0
   30.8218   13.9454    4.7332 P   0  0  0  0  0  0  0  0  0  0  0  0
   31.4176   13.4588    3.4650 O   0  0  0  0  0  0  0  0  0  0  0  0
   30.6167   12.9417    5.8196 O   0  0  0  0  0  0  0  0  0  0  0  0
   29.7685   14.9574    4.5945 O   0  0  0  0  0  0  0  0  0  0  0  0
   31.3614   12.3202    5.8305 H   0  0  0  0  0  0  0  0  0  0  0  0
   29.9919   15.5590    3.8671 H   0  0  0  0  0  0  0  0  0  0  0  0
  1  2  1  0  0  0
  1  6  1  0  0  0
  1 13  1  0  0  0
  2  3  1  0  0  0
  2  7  1  0  0  0
  3  4  1  0  0  0
  3  8  1  0  0  0
  4  5  1  0  0  0
  4 20  1  0  0  0
  5  6  1  0  0  0
  5 27  1  0  0  0
  6  9  1  0  0  0
 13 14  1  0  0  0
 20 21  1  0  0  0
 27 28  1  0  0  0
 14 15  2  0  0  0
 14 16  1  0  0  0
 14 17  1  0  0  0
 21 22  2  0  0  0
 21 23  1  0  0  0
 21 24  1  0  0  0
 28 29  2  0  0  0
 28 30  1  0  0  0
 28 31  1  0  0  0
  7 10  1  0  0  0
  8 11  1  0  0  0
  9 12  1  0  0  0
 16 18  1  0  0  0
 17 19  1  0  0  0
 23 25  1  0  0  0
 24 26  1  0  0  0
 30 32  1  0  0  0
 31 33  1  0  0  0
M  END
> <minimizedAffinity>
-7.13181

$$$$
1MAI_I3P_A_200


 33 33  0  0  0  0  0  0  0  0999 V2000
   33.6332   18.1674    4.0145 C   0  0  0  0  0  0  0  0  0  0  0  0
   34.1151   18.7112    5.3662 C   0  0  0  0  0  0  0  0  0  0  0  0
   33.0655   18.4805    6.4342 C   0  0  0  0  0  0  0  0  0  0  0  0
   32.7689   16.9862    6.5424 C   0  0  0  0  0  0  0  0  0  0  0  0
   32.2880   16.4432    5.1866 C   0  0  0  0  0  0  0  0  0  0  0  0
   33.3456   16.6729    4.1159 C   0  0  0  0  0  0  0  0  0  0  0  0
   35.3293   18.0880    5.7538 O   0  0  0  0  0  0  0  0  0  0  0  0
   33.5521   18.9612    7.6691 O   0  0  0  0  0  0  0  0  0  0  0  0
   32.9197   16.1718    2.8549 O   0  0  0  0  0  0  0  0  0  0  0  0
   35.1854   17.1340    5.8540 H   0  0  0  0  0  0  0  0  0  0  0  0
   34.3680   18.4903    7.9005 H   0  0  0  0  0  0  0  0  0  0  0  0
   32.1121   16.6331    2.5797 H   0  0  0  0  0  0  0  0  0  0  0  0
   34.5963   18.2857    2.8941 O   0  0  0  0  0  0  0  0  0  0  0  0
   34.3512   19.2326    1.6429 P   0  0  0  0  0  0  0  0  0  0  0  0
   32.9733   18.9402    1.1729 O   0  0  0  0  0  0  0  0  0  0  0  0
   35.4271   18.8402    0.6932 O   0  0  0  0  0  0  0  0  0  0  0  0
   34.5946   20.5307    2.2596 O   0  0  0  0  0  0  0  0  0  0  0  0
   35.2203   17.9731    0.3107 H   0  0  0  0  0  0  0  0  0  0  0  0
   33.8688   20.7410    2.8676 H   0  0  0  0  0  0  0  0  0  0  0  0
   31.7975   16.7699    7.6508 O   0  0  0  0  0  0  0  0  0  0  0  0
   32.0823   15.9983    9.0342 P   0  0  0  0  0  0  0  0  0  0  0  0
   30.7949   16.2882    9.7220 O   0  0  0  0  0  0  0  0  0  0  0  0
   32.2198   14.6015    8.6011 O   0  0  0  0  0  0  0  0  0  0  0  0
   33.3198   16.5321    9.6605 O   0  0  0  0  0  0  0  0  0  0  0  0
   31.3878   14.3036    8.2012 H   0  0  0  0  0  0  0  0  0  0  0  0
   33.1757   17.4535    9.9271 H   0  0  0  0  0  0  0  0  0  0  0  0
   32.1096   14.9977    5.2911 O   0  0  0  0  0  0  0  0  0  0  0  0
   30.9189   14.1481    4.6376 P   0  0  0  0  0  0  0  0  0  0  0  0
   29.8592   15.1837    4.5686 O   0  0  0  0  0  0  0  0  0  0  0  0
   31.5063   13.6862    3.3448 O   0  0  0  0  0  0  0  0  0  0  0  0
   30.7292   13.1103    5.6574 O   0  0  0  0  0  0  0  0  0  0  0  0
   31.5915   14.4403    2.7406 H   0  0  0  0  0  0  0  0  0  0  0  0
   30.3451   13.5070    6.4549 H   0  0  0  0  0  0  0  0  0  0  0  0
  1  2  1  0  0  0
  1  6  1  0  0  0
  1 13  1  0  0  0
  2  3  1  0  0  0
  2  7  1  0  0  0
  3  4  1  0  0  0
  3  8  1  0  0  0
  4  5  1  0  0  0
  4 20  1  0  0  0
  5  6  1  0  0  0
  5 27  1  0  0  0
  6  9  1  0  0  0
 13 14  1  0  0  0
 20 21  1  0  0  0
 27 28  1  0  0  0
 14 15  2  0  0  0
 14 16  1  0  0  0
 14 17  1  0  0  0
 21 22  2  0  0  0
 21 23  1  0  0  0
 21 24  1  0  0  0
 28 29  2  0  0  0
 28 30  1  0  0  0
 28 31  1  0  0  0
  7 10  1  0  0  0
  8 11  1  0  0  0
  9 12  1  0  0  0
 16 18  1  0  0  0
 17 19  1  0  0  0
 23 25  1  0  0  0
 24 26  1  0  0  0
 30 32  1  0  0  0
 31 33  1  0  0  0
M  END
> <minimizedAffinity>
-6.95701

$$$$
1MAI_I3P_A_200


 33 33  0  0  0  0  0  0  0  0999 V2000
   32.8270   12.4844   10.5437 C   0  0  0  0  0  0  0  0  0  0  0  0
   33.9315   12.6848   11.5901 C   0  0  0  0  0  0  0  0  0  0  0  0
   35.0437   13.5460   11.0275 C   0  0  0  0  0  0  0  0  0  0  0  0
   34.4742   14.8960   10.5966 C   0  0  0  0  0  0  0  0  0  0  0  0
   33.3667   14.6928    9.5497 C   0  0  0  0  0  0  0  0  0  0  0  0
   32.2485   13.8302   10.1184 C   0  0  0  0  0  0  0  0  0  0  0  0
   33.4092   13.2921   12.7611 O   0  0  0  0  0  0  0  0  0  0  0  0
   36.0256   13.7380   12.0233 O   0  0  0  0  0  0  0  0  0  0  0  0
   31.2117   13.6356    9.1646 O   0  0  0  0  0  0  0  0  0  0  0  0
   33.0506   14.1658   12.5397 H   0  0  0  0  0  0  0  0  0  0  0  0
   35.6259   14.1750   12.7915 H   0  0  0  0  0  0  0  0  0  0  0  0
   31.5702   13.1829    8.3852 H   0  0  0  0  0  0  0  0  0  0  0  0
   31.6522   11.6994   10.9917 O   0  0  0  0  0  0  0  0  0  0  0  0
   31.2491   10.3059   10.3454 P   0  0  0  0  0  0  0  0  0  0  0  0
   31.3407   10.4956    8.8754 O   0  0  0  0  0  0  0  0  0  0  0  0
   29.8716   10.0708   10.8559 O   0  0  0  0  0  0  0  0  0  0  0  0
   32.2364    9.4408   10.9789 O   0  0  0  0  0  0  0  0  0  0  0  0
   29.2536   10.6678   10.4058 H   0  0  0  0  0  0  0  0  0  0  0  0
   33.1148    9.6314   10.6141 H   0  0  0  0  0  0  0  0  0  0  0  0
   35.5927   15.7584   10.1230 O   0  0  0  0  0  0  0  0  0  0  0  0
   36.0460   17.1679   10.7540 P   0  0  0  0  0  0  0  0  0  0  0  0
   36.9957   17.5947    9.6908 O   0  0  0  0  0  0  0  0  0  0  0  0
   34.7919   17.9323   10.7681 O   0  0  0  0  0  0  0  0  0  0  0  0
   36.6048   16.9519   12.1140 O   0  0  0  0  0  0  0  0  0  0  0  0
   34.4714   18.0445    9.8595 H   0  0  0  0  0  0  0  0  0  0  0  0
   37.4289   16.4445   12.0482 H   0  0  0  0  0  0  0  0  0  0  0  0
   32.7715   15.9877    9.2315 O   0  0  0  0  0  0  0  0  0  0  0  0
   32.7745   16.6956    7.7943 P   0  0  0  0  0  0  0  0  0  0  0  0
   31.3256   16.9658    7.6272 O   0  0  0  0  0  0  0  0  0  0  0  0
   33.6685   17.8734    8.0021 O   0  0  0  0  0  0  0  0  0  0  0  0
   33.3219   15.6206    6.9590 O   0  0  0  0  0  0  0  0  0  0  0  0
   33.2198   18.5248    8.5636 H   0  0  0  0  0  0  0  0  0  0  0  0
   32.6706   14.9056    6.8843 H   0  0  0  0  0  0  0  0  0  0  0  0
  1  2  1  0  0  0
  1  6  1  0  0  0
  1 13  1  0  0  0
  2  3  1  0  0  0
  2  7  1  0  0  0
  3  4  1  0  0  0
  3  8  1  0  0  0
  4  5  1  0  0  0
  4 20  1  0  0  0
  5  6  1  0  0  0
  5 27  1  0  0  0
  6  9  1  0  0  0
 13 14  1  0  0  0
 20 21  1  0  0  0
 27 28  1  0  0  0
 14 15  2  0  0  0
 14 16  1  0  0  0
 14 17  1  0  0  0
 21 22  2  0  0  0
 21 23  1  0  0  0
 21 24  1  0  0  0
 28 29  2  0  0  0
 28 30  1  0  0  0
 28 31  1  0  0  0
  7 10  1  0  0  0
  8 11  1  0  0  0
  9 12  1  0  0  0
 16 18  1  0  0  0
 17 19  1  0  0  0
 23 25  1  0  0  0
 24 26  1  0  0  0
 30 32  1  0  0  0
 31 33  1  0  0  0
M  END
> <minimizedAffinity>
-6.12531

$$$$
1MAI_I3P_A_200


 33 33  0  0  0  0  0  0  0  0999 V2000
   34.9452   18.3003    5.6659 C   0  0  0  0  0  0  0  0  0  0  0  0
   34.5544   17.8073    4.2662 C   0  0  0  0  0  0  0  0  0  0  0  0
   34.1059   16.3612    4.3204 C   0  0  0  0  0  0  0  0  0  0  0  0
   32.9211   16.2309    5.2753 C   0  0  0  0  0  0  0  0  0  0  0  0
   33.3143   16.7270    6.6765 C   0  0  0  0  0  0  0  0  0  0  0  0
   33.7613   18.1813    6.6202 C   0  0  0  0  0  0  0  0  0  0  0  0
   33.5135   18.6055    3.7255 O   0  0  0  0  0  0  0  0  0  0  0  0
   33.7229   15.9494    3.0256 O   0  0  0  0  0  0  0  0  0  0  0  0
   34.1243   18.6592    7.9095 O   0  0  0  0  0  0  0  0  0  0  0  0
   32.7284   18.5396    4.2914 H   0  0  0  0  0  0  0  0  0  0  0  0
   32.9962   16.5090    2.7100 H   0  0  0  0  0  0  0  0  0  0  0  0
   34.8636   18.1334    8.2528 H   0  0  0  0  0  0  0  0  0  0  0  0
   35.3537   19.7223    5.7554 O   0  0  0  0  0  0  0  0  0  0  0  0
   36.8717   20.1874    5.7163 P   0  0  0  0  0  0  0  0  0  0  0  0
   37.2566   20.2058    4.2822 O   0  0  0  0  0  0  0  0  0  0  0  0
   37.5718   19.1601    6.5336 O   0  0  0  0  0  0  0  0  0  0  0  0
   36.7591   21.4681    6.4032 O   0  0  0  0  0  0  0  0  0  0  0  0
   37.6214   18.3293    6.0353 H   0  0  0  0  0  0  0  0  0  0  0  0
   36.2974   22.1018    5.8321 H   0  0  0  0  0  0  0  0  0  0  0  0
   32.4417   14.8207    5.2539 O   0  0  0  0  0  0  0  0  0  0  0  0
   31.1577   14.2596    4.4621 P   0  0  0  0  0  0  0  0  0  0  0  0
   30.2179   15.3806    4.7356 O   0  0  0  0  0  0  0  0  0  0  0  0
   31.6322   14.2114    3.0729 O   0  0  0  0  0  0  0  0  0  0  0  0
   30.7876   12.9212    4.9917 O   0  0  0  0  0  0  0  0  0  0  0  0
   31.8594   15.1070    2.7775 H   0  0  0  0  0  0  0  0  0  0  0  0
   30.4824   13.0093    5.9082 H   0  0  0  0  0  0  0  0  0  0  0  0
   32.1383   16.6870    7.5411 O   0  0  0  0  0  0  0  0  0  0  0  0
   32.0360   15.9393    8.9543 P   0  0  0  0  0  0  0  0  0  0  0  0
   33.2722   16.4341    9.6079 O   0  0  0  0  0  0  0  0  0  0  0  0
   30.7342   16.4277    9.4990 O   0  0  0  0  0  0  0  0  0  0  0  0
   32.0604   14.5362    8.5259 O   0  0  0  0  0  0  0  0  0  0  0  0
   30.8193   17.3601    9.7527 H   0  0  0  0  0  0  0  0  0  0  0  0
   32.9432   14.3160    8.1898 H   0  0  0  0  0  0  0  0  0  0  0  0
  1  2  1  0  0  0
  1  6  1  0  0  0
  1 13  1  0  0  0
  2  3  1  0  0  0
  2  7  1  0  0  0
  3  4  1  0  0  0
  3  8  1  0  0  0
  4  5  1  0  0  0
  4 20  1  0  0  0
  5  6  1  0  0  0
  5 27  1  0  0  0
  6  9  1  0  0  0
 13 14  1  0  0  0
 20 21  1  0  0  0
 27 28  1  0  0  0
 14 15  2  0  0  0
 14 16  1  0  0  0
 14 17  1  0  0  0
 21 22  2  0  0  0
 21 23  1  0  0  0
 21 24  1  0  0  0
 28 29  2  0  0  0
 28 30  1  0  0  0
 28 31  1  0  0  0
  7 10  1  0  0  0
  8 11  1  0  0  0
  9 12  1  0  0  0
 16 18  1  0  0  0
 17 19  1  0  0  0
 23 25  1  0  0  0
 24 26  1  0  0  0
 30 32  1  0  0  0
 31 33  1  0  0  0
M  END
> <minimizedAffinity>
-6.03784

$$$$
1MAI_I3P_A_200


 33 33  0  0  0  0  0  0  0  0999 V2000
   32.4974   16.2364    5.8659 C   0  0  0  0  0  0  0  0  0  0  0  0
   33.0847   17.3664    5.0097 C   0  0  0  0  0  0  0  0  0  0  0  0
   33.1177   18.6623    5.7940 C   0  0  0  0  0  0  0  0  0  0  0  0
   33.9518   18.4709    7.0590 C   0  0  0  0  0  0  0  0  0  0  0  0
   33.3626   17.3371    7.9142 C   0  0  0  0  0  0  0  0  0  0  0  0
   33.3338   16.0353    7.1255 C   0  0  0  0  0  0  0  0  0  0  0  0
   34.3968   17.0402    4.5798 O   0  0  0  0  0  0  0  0  0  0  0  0
   33.6924   19.6714    4.9914 O   0  0  0  0  0  0  0  0  0  0  0  0
   32.7960   14.9731    7.9033 O   0  0  0  0  0  0  0  0  0  0  0  0
   34.9715   16.9266    5.3529 H   0  0  0  0  0  0  0  0  0  0  0  0
   34.5936   19.4127    4.7428 H   0  0  0  0  0  0  0  0  0  0  0  0
   31.8848   15.1877    8.1575 H   0  0  0  0  0  0  0  0  0  0  0  0
   32.4597   14.8994    5.2270 O   0  0  0  0  0  0  0  0  0  0  0  0
   31.2667   14.4235    4.2930 P   0  0  0  0  0  0  0  0  0  0  0  0
   31.7545   14.5741    2.8985 O   0  0  0  0  0  0  0  0  0  0  0  0
   30.1506   15.3355    4.6618 O   0  0  0  0  0  0  0  0  0  0  0  0
   31.0755   13.0706    4.8006 O   0  0  0  0  0  0  0  0  0  0  0  0
   30.3235   16.2198    4.3027 H   0  0  0  0  0  0  0  0  0  0  0  0
   31.8261   12.5165    4.5351 H   0  0  0  0  0  0  0  0  0  0  0  0
   34.0417   19.7741    7.7749 O   0  0  0  0  0  0  0  0  0  0  0  0
   35.3889   20.5847    8.1190 P   0  0  0  0  0  0  0  0  0  0  0  0
   34.7899   21.6848    8.9223 O   0  0  0  0  0  0  0  0  0  0  0  0
   36.1516   19.6167    8.9181 O   0  0  0  0  0  0  0  0  0  0  0  0
   36.0806   20.9649    6.8597 O   0  0  0  0  0  0  0  0  0  0  0  0
   35.6578   19.4034    9.7253 H   0  0  0  0  0  0  0  0  0  0  0  0
   35.5368   21.6031    6.3721 H   0  0  0  0  0  0  0  0  0  0  0  0
   34.2343   17.1076    9.0631 O   0  0  0  0  0  0  0  0  0  0  0  0
   33.8289   16.3463   10.4131 P   0  0  0  0  0  0  0  0  0  0  0  0
   32.3504   16.3619   10.2943 O   0  0  0  0  0  0  0  0  0  0  0  0
   34.5106   15.0254   10.2713 O   0  0  0  0  0  0  0  0  0  0  0  0
   34.3960   17.2505   11.4200 O   0  0  0  0  0  0  0  0  0  0  0  0
   34.0648   14.5034    9.5859 H   0  0  0  0  0  0  0  0  0  0  0  0
   33.8874   18.0763   11.4361 H   0  0  0  0  0  0  0  0  0  0  0  0
  1  2  1  0  0  0
  1  6  1  0  0  0
  1 13  1  0  0  0
  2  3  1  0  0  0
  2  7  1  0  0  0
  3  4  1  0  0  0
  3  8  1  0  0  0
  4  5  1  0  0  0
  4 20  1  0  0  0
  5  6  1  0  0  0
  5 27  1  0  0  0
  6  9  1  0  0  0
 13 14  1  0  0  0
 20 21  1  0  0  0
 27 28  1  0  0  0
 14 15  2  0  0  0
 14 16  1  0  0  0
 14 17  1  0  0  0
 21 22  2  0  0  0
 21 23  1  0  0  0
 21 24  1  0  0  0
 28 29  2  0  0  0
 28 30  1  0  0  0
 28 31  1  0  0  0
  7 10  1  0  0  0
  8 11  1  0  0  0
  9 12  1  0  0  0
 16 18  1  0  0  0
 17 19  1  0  0  0
 23 25  1  0  0  0
 24 26  1  0  0  0
 30 32  1  0  0  0
 31 33  1  0  0  0
M  END
> <minimizedAffinity>
-6.01131

$$$$
1MAI_I3P_A_200


 33 33  0  0  0  0  0  0  0  0999 V2000
   32.6983   16.2009    5.5263 C   0  0  0  0  0  0  0  0  0  0  0  0
   33.1687   16.9609    4.2788 C   0  0  0  0  0  0  0  0  0  0  0  0
   33.5495   18.3827    4.6375 C   0  0  0  0  0  0  0  0  0  0  0  0
   34.6548   18.3635    5.6913 C   0  0  0  0  0  0  0  0  0  0  0  0
   34.1821   17.6001    6.9394 C   0  0  0  0  0  0  0  0  0  0  0  0
   33.8033   16.1707    6.5773 C   0  0  0  0  0  0  0  0  0  0  0  0
   34.2795   16.3094    3.6835 O   0  0  0  0  0  0  0  0  0  0  0  0
   34.0079   19.0430    3.4770 O   0  0  0  0  0  0  0  0  0  0  0  0
   33.3680   15.4472    7.7217 O   0  0  0  0  0  0  0  0  0  0  0  0
   35.0177   16.2893    4.3124 H   0  0  0  0  0  0  0  0  0  0  0  0
   34.7790   18.5741    3.1215 H   0  0  0  0  0  0  0  0  0  0  0  0
   32.5837   15.8773    8.0971 H   0  0  0  0  0  0  0  0  0  0  0  0
   32.3458   14.7766    5.3161 O   0  0  0  0  0  0  0  0  0  0  0  0
   31.1947   14.3103    4.3263 P   0  0  0  0  0  0  0  0  0  0  0  0
   31.7538   14.4449    2.9572 O   0  0  0  0  0  0  0  0  0  0  0  0
   30.0741   15.2396    4.6330 O   0  0  0  0  0  0  0  0  0  0  0  0
   30.9598   12.9636    4.8319 O   0  0  0  0  0  0  0  0  0  0  0  0
   30.2769   16.1191    4.2776 H   0  0  0  0  0  0  0  0  0  0  0  0
   31.7151   12.3977    4.6079 H   0  0  0  0  0  0  0  0  0  0  0  0
   35.0735   19.7653    5.9716 O   0  0  0  0  0  0  0  0  0  0  0  0
   36.5807   20.3300    5.9758 P   0  0  0  0  0  0  0  0  0  0  0  0
   36.4538   21.3001    7.0971 O   0  0  0  0  0  0  0  0  0  0  0  0
   37.3700   19.1378    6.3119 O   0  0  0  0  0  0  0  0  0  0  0  0
   36.9127   20.8826    4.6367 O   0  0  0  0  0  0  0  0  0  0  0  0
   37.1152   18.8188    7.1918 H   0  0  0  0  0  0  0  0  0  0  0  0
   36.3658   21.6651    4.4651 H   0  0  0  0  0  0  0  0  0  0  0  0
   35.2891   17.5092    7.8873 O   0  0  0  0  0  0  0  0  0  0  0  0
   35.3186   18.1373    9.3608 P   0  0  0  0  0  0  0  0  0  0  0  0
   36.6989   17.7844    9.7735 O   0  0  0  0  0  0  0  0  0  0  0  0
   35.0282   19.5815    9.1159 O   0  0  0  0  0  0  0  0  0  0  0  0
   34.2458   17.3732   10.0074 O   0  0  0  0  0  0  0  0  0  0  0  0
   35.7931   19.9970    8.6877 H   0  0  0  0  0  0  0  0  0  0  0  0
   34.5286   16.4525   10.1223 H   0  0  0  0  0  0  0  0  0  0  0  0
  1  2  1  0  0  0
  1  6  1  0  0  0
  1 13  1  0  0  0
  2  3  1  0  0  0
  2  7  1  0  0  0
  3  4  1  0  0  0
  3  8  1  0  0  0
  4  5  1  0  0  0
  4 20  1  0  0  0
  5  6  1  0  0  0
  5 27  1  0  0  0
  6  9  1  0  0  0
 13 14  1  0  0  0
 20 21  1  0  0  0
 27 28  1  0  0  0
 14 15  2  0  0  0
 14 16  1  0  0  0
 14 17  1  0  0  0
 21 22  2  0  0  0
 21 23  1  0  0  0
 21 24  1  0  0  0
 28 29  2  0  0  0
 28 30  1  0  0  0
 28 31  1  0  0  0
  7 10  1  0  0  0
  8 11  1  0  0  0
  9 12  1  0  0  0
 16 18  1  0  0  0
 17 19  1  0  0  0
 23 25  1  0  0  0
 24 26  1  0  0  0
 30 32  1  0  0  0
 31 33  1  0  0  0
M  END
> <minimizedAffinity>
-5.97555

$$$$
1MAI_I3P_A_200


 33 33  0  0  0  0  0  0  0  0999 V2000
   33.1867   15.9828    7.4202 C   0  0  0  0  0  0  0  0  0  0  0  0
   34.1542   17.1245    7.7601 C   0  0  0  0  0  0  0  0  0  0  0  0
   35.1917   17.2820    6.6674 C   0  0  0  0  0  0  0  0  0  0  0  0
   34.4932   17.5608    5.3381 C   0  0  0  0  0  0  0  0  0  0  0  0
   33.5231   16.4166    5.0005 C   0  0  0  0  0  0  0  0  0  0  0  0
   32.4794   16.2625    6.0981 C   0  0  0  0  0  0  0  0  0  0  0  0
   33.4512   18.3458    7.9245 O   0  0  0  0  0  0  0  0  0  0  0  0
   36.0440   18.3590    6.9938 O   0  0  0  0  0  0  0  0  0  0  0  0
   31.5695   15.2110    5.8001 O   0  0  0  0  0  0  0  0  0  0  0  0
   33.0036   18.5754    7.0952 H   0  0  0  0  0  0  0  0  0  0  0  0
   35.5214   19.1724    7.0729 H   0  0  0  0  0  0  0  0  0  0  0  0
   32.0544   14.3738    5.7304 H   0  0  0  0  0  0  0  0  0  0  0  0
   32.0882   15.7613    8.3903 O   0  0  0  0  0  0  0  0  0  0  0  0
   32.2962   15.0032    9.7702 P   0  0  0  0  0  0  0  0  0  0  0  0
   32.5997   16.0556   10.7729 O   0  0  0  0  0  0  0  0  0  0  0  0
   33.4212   14.0711    9.4892 O   0  0  0  0  0  0  0  0  0  0  0  0
   31.0141   14.3179    9.8754 O   0  0  0  0  0  0  0  0  0  0  0  0
   34.2492   14.5726    9.4285 H   0  0  0  0  0  0  0  0  0  0  0  0
   30.3154   14.9655   10.0583 H   0  0  0  0  0  0  0  0  0  0  0  0
   35.5285   17.7939    4.2928 O   0  0  0  0  0  0  0  0  0  0  0  0
   35.5532   18.9966    3.2234 P   0  0  0  0  0  0  0  0  0  0  0  0
   35.9548   18.2187    2.0201 O   0  0  0  0  0  0  0  0  0  0  0  0
   34.1521   19.4370    3.2023 O   0  0  0  0  0  0  0  0  0  0  0  0
   36.4845   20.0588    3.6850 O   0  0  0  0  0  0  0  0  0  0  0  0
   33.5890   18.7094    2.8950 H   0  0  0  0  0  0  0  0  0  0  0  0
   37.3924   19.7172    3.6802 H   0  0  0  0  0  0  0  0  0  0  0  0
   32.7960   16.7558    3.7805 O   0  0  0  0  0  0  0  0  0  0  0  0
   32.8360   15.9366    2.4043 P   0  0  0  0  0  0  0  0  0  0  0  0
   32.0292   14.7491    2.7773 O   0  0  0  0  0  0  0  0  0  0  0  0
   32.2328   16.8915    1.4275 O   0  0  0  0  0  0  0  0  0  0  0  0
   34.2783   15.7071    2.2622 O   0  0  0  0  0  0  0  0  0  0  0  0
   31.2824   16.9755    1.6023 H   0  0  0  0  0  0  0  0  0  0  0  0
   34.5733   15.0762    2.9375 H   0  0  0  0  0  0  0  0  0  0  0  0
  1  2  1  0  0  0
  1  6  1  0  0  0
  1 13  1  0  0  0
  2  3  1  0  0  0
  2  7  1  0  0  0
  3  4  1  0  0  0
  3  8  1  0  0  0
  4  5  1  0  0  0
  4 20  1  0  0  0
  5  6  1  0  0  0
  5 27  1  0  0  0
  6  9  1  0  0  0
 13 14  1  0  0  0
 20 21  1  0  0  0
 27 28  1  0  0  0
 14 15  2  0  0  0
 14 16  1  0  0  0
 14 17  1  0  0  0
 21 22  2  0  0  0
 21 23  1  0  0  0
 21 24  1  0  0  0
 28 29  2  0  0  0
 28 30  1  0  0  0
 28 31  1  0  0  0
  7 10  1  0  0  0
  8 11  1  0  0  0
  9 12  1  0  0  0
 16 18  1  0  0  0
 17 19  1  0  0  0
 23 25  1  0  0  0
 24 26  1  0  0  0
 30 32  1  0  0  0
 31 33  1  0  0  0
M  END
> <minimizedAffinity>
-5.95971

$$$$
1MAI_I3P_A_200


 33 33  0  0  0  0  0  0  0  0999 V2000
   33.0518   16.0143    2.2859 C   0  0  0  0  0  0  0  0  0  0  0  0
   34.4456   15.8898    2.9160 C   0  0  0  0  0  0  0  0  0  0  0  0
   35.5135   15.8818    1.8414 C   0  0  0  0  0  0  0  0  0  0  0  0
   35.4189   17.1658    1.0198 C   0  0  0  0  0  0  0  0  0  0  0  0
   34.0213   17.2894    0.3911 C   0  0  0  0  0  0  0  0  0  0  0  0
   32.9501   17.3007    1.4728 C   0  0  0  0  0  0  0  0  0  0  0  0
   34.6872   16.9602    3.8152 O   0  0  0  0  0  0  0  0  0  0  0  0
   36.7825   15.7997    2.4543 O   0  0  0  0  0  0  0  0  0  0  0  0
   31.6497   17.4197    0.9093 O   0  0  0  0  0  0  0  0  0  0  0  0
   34.6557   17.8011    3.3327 H   0  0  0  0  0  0  0  0  0  0  0  0
   36.9087   16.5627    3.0398 H   0  0  0  0  0  0  0  0  0  0  0  0
   31.4785   16.6620    0.3285 H   0  0  0  0  0  0  0  0  0  0  0  0
   31.9196   16.0865    3.2398 O   0  0  0  0  0  0  0  0  0  0  0  0
   31.5782   14.9205    4.2625 P   0  0  0  0  0  0  0  0  0  0  0  0
   32.5807   15.0268    5.3529 O   0  0  0  0  0  0  0  0  0  0  0  0
   31.6889   13.6886    3.4358 O   0  0  0  0  0  0  0  0  0  0  0  0
   30.1965   15.2608    4.5782 O   0  0  0  0  0  0  0  0  0  0  0  0
   32.6237   13.5048    3.2530 H   0  0  0  0  0  0  0  0  0  0  0  0
   30.1770   16.0676    5.1163 H   0  0  0  0  0  0  0  0  0  0  0  0
   36.5256   17.1789    0.0228 O   0  0  0  0  0  0  0  0  0  0  0  0
   37.5559   18.3859   -0.2457 P   0  0  0  0  0  0  0  0  0  0  0  0
   37.6523   18.2734   -1.7264 O   0  0  0  0  0  0  0  0  0  0  0  0
   36.8010   19.5606    0.2100 O   0  0  0  0  0  0  0  0  0  0  0  0
   38.8021   18.1638    0.5328 O   0  0  0  0  0  0  0  0  0  0  0  0
   36.0006   19.6597   -0.3289 H   0  0  0  0  0  0  0  0  0  0  0  0
   39.2604   17.3795    0.1927 H   0  0  0  0  0  0  0  0  0  0  0  0
   33.9249   18.5707   -0.3026 O   0  0  0  0  0  0  0  0  0  0  0  0
   33.9129   18.7810   -1.8907 P   0  0  0  0  0  0  0  0  0  0  0  0
   34.6006   20.0914   -1.9913 O   0  0  0  0  0  0  0  0  0  0  0  0
   34.6500   17.5836   -2.3934 O   0  0  0  0  0  0  0  0  0  0  0  0
   32.4698   18.7976   -2.1555 O   0  0  0  0  0  0  0  0  0  0  0  0
   35.5906   17.6659   -2.1709 H   0  0  0  0  0  0  0  0  0  0  0  0
   32.0838   19.6102   -1.7926 H   0  0  0  0  0  0  0  0  0  0  0  0
  1  2  1  0  0  0
  1  6  1  0  0  0
  1 13  1  0  0  0
  2  3  1  0  0  0
  2  7  1  0  0  0
  3  4  1  0  0  0
  3  8  1  0  0  0
  4  5  1  0  0  0
  4 20  1  0  0  0
  5  6  1  0  0  0
  5 27  1  0  0  0
  6  9  1  0  0  0
 13 14  1  0  0  0
 20 21  1  0  0  0
 27 28  1  0  0  0
 14 15  2  0  0  0
 14 16  1  0  0  0
 14 17  1  0  0  0
 21 22  2  0  0  0
 21 23  1  0  0  0
 21 24  1  0  0  0
 28 29  2  0  0  0
 28 30  1  0  0  0
 28 31  1  0  0  0
  7 10  1  0  0  0
  8 11  1  0  0  0
  9 12  1  0  0  0
 16 18  1  0  0  0
 17 19  1  0  0  0
 23 25  1  0  0  0
 24 26  1  0  0  0
 30 32  1  0  0  0
 31 33  1  0  0  0
M  END
> <minimizedAffinity>
-5.93171

$$$$
1MAI_I3P_A_200


 33 33  0  0  0  0  0  0  0  0999 V2000
   32.6882   16.6172    3.2399 C   0  0  0  0  0  0  0  0  0  0  0  0
   32.7649   16.7048    1.7097 C   0  0  0  0  0  0  0  0  0  0  0  0
   32.7816   18.1522    1.2625 C   0  0  0  0  0  0  0  0  0  0  0  0
   33.9760   18.8661    1.8922 C   0  0  0  0  0  0  0  0  0  0  0  0
   33.8980   18.7755    3.4251 C   0  0  0  0  0  0  0  0  0  0  0  0
   33.8849   17.3202    3.8723 C   0  0  0  0  0  0  0  0  0  0  0  0
   33.9256   16.0472    1.2270 O   0  0  0  0  0  0  0  0  0  0  0  0
   32.8857   18.1981   -0.1445 O   0  0  0  0  0  0  0  0  0  0  0  0
   33.8181   17.2170    5.2891 O   0  0  0  0  0  0  0  0  0  0  0  0
   34.7157   16.4796    1.5872 H   0  0  0  0  0  0  0  0  0  0  0  0
   33.7036   17.7569   -0.4228 H   0  0  0  0  0  0  0  0  0  0  0  0
   33.0011   17.6332    5.6055 H   0  0  0  0  0  0  0  0  0  0  0  0
   32.7183   15.2482    3.8073 O   0  0  0  0  0  0  0  0  0  0  0  0
   31.5449   14.6592    4.7008 P   0  0  0  0  0  0  0  0  0  0  0  0
   31.3921   13.2401    4.2908 O   0  0  0  0  0  0  0  0  0  0  0  0
   30.3845   15.5292    4.3693 O   0  0  0  0  0  0  0  0  0  0  0  0
   32.0833   14.9256    6.0289 O   0  0  0  0  0  0  0  0  0  0  0  0
   30.0633   15.3147    3.4795 H   0  0  0  0  0  0  0  0  0  0  0  0
   32.8348   14.3359    6.1974 H   0  0  0  0  0  0  0  0  0  0  0  0
   34.0241   20.2634    1.3783 O   0  0  0  0  0  0  0  0  0  0  0  0
   35.2071   20.9214    0.5077 P   0  0  0  0  0  0  0  0  0  0  0  0
   34.6121   22.2699    0.3035 O   0  0  0  0  0  0  0  0  0  0  0  0
   36.3395   20.9102    1.4431 O   0  0  0  0  0  0  0  0  0  0  0  0
   35.4535   20.0992   -0.7056 O   0  0  0  0  0  0  0  0  0  0  0  0
   36.1275   21.4595    2.2139 H   0  0  0  0  0  0  0  0  0  0  0  0
   34.6784   20.1408   -1.2873 H   0  0  0  0  0  0  0  0  0  0  0  0
   35.1001   19.3752    3.9975 O   0  0  0  0  0  0  0  0  0  0  0  0
   35.1460   20.6633    4.9488 P   0  0  0  0  0  0  0  0  0  0  0  0
   34.0868   20.3112    5.9257 O   0  0  0  0  0  0  0  0  0  0  0  0
   36.5553   20.6661    5.4424 O   0  0  0  0  0  0  0  0  0  0  0  0
   34.8040   21.7234    3.9937 O   0  0  0  0  0  0  0  0  0  0  0  0
   36.6815   19.9326    6.0644 H   0  0  0  0  0  0  0  0  0  0  0  0
   33.8733   21.6370    3.7343 H   0  0  0  0  0  0  0  0  0  0  0  0
  1  2  1  0  0  0
  1  6  1  0  0  0
  1 13  1  0  0  0
  2  3  1  0  0  0
  2  7  1  0  0  0
  3  4  1  0  0  0
  3  8  1  0  0  0
  4  5  1  0  0  0
  4 20  1  0  0  0
  5  6  1  0  0  0
  5 27  1  0  0  0
  6  9  1  0  0  0
 13 14  1  0  0  0
 20 21  1  0  0  0
 27 28  1  0  0  0
 14 15  2  0  0  0
 14 16  1  0  0  0
 14 17  1  0  0  0
 21 22  2  0  0  0
 21 23  1  0  0  0
 21 24  1  0  0  0
 28 29  2  0  0  0
 28 30  1  0  0  0
 28 31  1  0  0  0
  7 10  1  0  0  0
  8 11  1  0  0  0
  9 12  1  0  0  0
 16 18  1  0  0  0
 17 19  1  0  0  0
 23 25  1  0  0  0
 24 26  1  0  0  0
 30 32  1  0  0  0
 31 33  1  0  0  0
M  END
> <minimizedAffinity>
-5.58311

$$$$
