4G5F_0JD_A_402


 14 15  0  0  0  0  0  0  0  0999 V2000
   16.8607   11.2544    0.7648 C   0  0  0  0  0  0  0  0  0  0  0  0
   15.9637   11.3900    1.8417 O   0  0  0  0  0  0  0  0  0  0  0  0
   14.9583   10.4778    1.8066 C   0  0  0  0  0  0  0  0  0  0  0  0
   14.1721   10.3588    2.9079 C   0  0  0  0  0  0  0  0  0  0  0  0
   13.2452    9.3514    2.9658 C   0  0  0  0  0  0  0  0  0  0  0  0
   13.1048    8.4873    1.9288 C   0  0  0  0  0  0  0  0  0  0  0  0
   13.8822    8.6104    0.8040 C   0  0  0  0  0  0  0  0  0  0  0  0
   14.8023    9.6096    0.7410 C   0  0  0  0  0  0  0  0  0  0  0  0
   15.4239    9.8136   -0.4549 O   0  0  0  0  0  0  0  0  0  0  0  0
   16.1669   11.0094   -0.5358 C   0  0  0  0  0  0  0  0  0  0  0  0
   18.0111   13.1260    1.7097 O   0  0  0  0  0  0  0  0  0  0  0  0
   17.7733   12.4666    0.7832 C   0  0  0  0  0  0  0  0  0  0  0  0
   18.2582   12.6478   -0.3290 O   0  0  0  0  0  0  0  0  0  0  0  0
   17.6087   12.9375    2.5346 H   0  0  0  0  0  0  0  0  0  0  0  0
 13 12  2  0  0  0
 12 11  1  0  0  0
 12  1  1  0  0  0
 10  1  1  0  0  0
 10  9  1  0  0  0
  1  2  1  0  0  0
  9  8  1  0  0  0
  2  3  1  0  0  0
  8  3  2  0  0  0
  8  7  1  0  0  0
  3  4  1  0  0  0
  7  6  2  0  0  0
  4  5  2  0  0  0
  6  5  1  0  0  0
 11 14  1  0  0  0
M  END
> <minimizedAffinity>
-6.65124

$$$$
4G5F_0JD_A_402


 14 15  0  0  0  0  0  0  0  0999 V2000
   14.7913   10.3986    4.3435 C   0  0  0  0  0  0  0  0  0  0  0  0
   14.4902   11.0001    5.5805 O   0  0  0  0  0  0  0  0  0  0  0  0
   14.0961   10.1020    6.5197 C   0  0  0  0  0  0  0  0  0  0  0  0
   14.0065   10.5287    7.8063 C   0  0  0  0  0  0  0  0  0  0  0  0
   13.7564    9.6190    8.7998 C   0  0  0  0  0  0  0  0  0  0  0  0
   13.5879    8.3058    8.5017 C   0  0  0  0  0  0  0  0  0  0  0  0
   13.6587    7.8675    7.2025 C   0  0  0  0  0  0  0  0  0  0  0  0
   13.9049    8.7668    6.2127 C   0  0  0  0  0  0  0  0  0  0  0  0
   13.7867    8.3302    4.9268 O   0  0  0  0  0  0  0  0  0  0  0  0
   13.7983    9.3518    3.9549 C   0  0  0  0  0  0  0  0  0  0  0  0
   15.2966   12.6045    3.5702 O   0  0  0  0  0  0  0  0  0  0  0  0
   14.9712   11.5151    3.3316 C   0  0  0  0  0  0  0  0  0  0  0  0
   14.7474   11.0995    2.1993 O   0  0  0  0  0  0  0  0  0  0  0  0
   15.4533   12.8631    4.4570 H   0  0  0  0  0  0  0  0  0  0  0  0
 13 12  2  0  0  0
 12 11  1  0  0  0
 12  1  1  0  0  0
 10  1  1  0  0  0
 10  9  1  0  0  0
  1  2  1  0  0  0
  9  8  1  0  0  0
  2  3  1  0  0  0
  8  3  2  0  0  0
  8  7  1  0  0  0
  3  4  1  0  0  0
  7  6  2  0  0  0
  4  5  2  0  0  0
  6  5  1  0  0  0
 11 14  1  0  0  0
M  END
> <minimizedAffinity>
-6.48826

$$$$
4G5F_0JD_A_402


 14 15  0  0  0  0  0  0  0  0999 V2000
   17.1555   11.5169    1.5356 C   0  0  0  0  0  0  0  0  0  0  0  0
   16.0972   11.2362    0.6501 O   0  0  0  0  0  0  0  0  0  0  0  0
   15.2039   10.3510    1.1624 C   0  0  0  0  0  0  0  0  0  0  0  0
   14.0281   10.1839    0.5028 C   0  0  0  0  0  0  0  0  0  0  0  0
   13.0453    9.4136    1.0666 C   0  0  0  0  0  0  0  0  0  0  0  0
   13.2473    8.8131    2.2667 C   0  0  0  0  0  0  0  0  0  0  0  0
   14.4388    8.9613    2.9326 C   0  0  0  0  0  0  0  0  0  0  0  0
   15.4180    9.7234    2.3764 C   0  0  0  0  0  0  0  0  0  0  0  0
   16.6440    9.6992    2.9716 O   0  0  0  0  0  0  0  0  0  0  0  0
   17.6766   10.2934    2.2171 C   0  0  0  0  0  0  0  0  0  0  0  0
   18.0120   12.8768   -0.2354 O   0  0  0  0  0  0  0  0  0  0  0  0
   18.1936   12.3073    0.7608 C   0  0  0  0  0  0  0  0  0  0  0  0
   19.2685   12.2864    1.3516 O   0  0  0  0  0  0  0  0  0  0  0  0
   17.1671   12.8554   -0.6400 H   0  0  0  0  0  0  0  0  0  0  0  0
 13 12  2  0  0  0
 12 11  1  0  0  0
 12  1  1  0  0  0
 10  1  1  0  0  0
 10  9  1  0  0  0
  1  2  1  0  0  0
  9  8  1  0  0  0
  2  3  1  0  0  0
  8  3  2  0  0  0
  8  7  1  0  0  0
  3  4  1  0  0  0
  7  6  2  0  0  0
  4  5  2  0  0  0
  6  5  1  0  0  0
 11 14  1  0  0  0
M  END
> <minimizedAffinity>
-6.25808

$$$$
4G5F_0JD_A_402


 14 15  0  0  0  0  0  0  0  0999 V2000
   14.2931    9.4324    3.7363 C   0  0  0  0  0  0  0  0  0  0  0  0
   14.0941    8.3921    4.6641 O   0  0  0  0  0  0  0  0  0  0  0  0
   13.9747    8.8412    5.9400 C   0  0  0  0  0  0  0  0  0  0  0  0
   13.5488    7.9621    6.8840 C   0  0  0  0  0  0  0  0  0  0  0  0
   13.2754    8.4141    8.1482 C   0  0  0  0  0  0  0  0  0  0  0  0
   13.4394    9.7248    8.4590 C   0  0  0  0  0  0  0  0  0  0  0  0
   13.8867   10.6177    7.5170 C   0  0  0  0  0  0  0  0  0  0  0  0
   14.1610   10.1738    6.2613 C   0  0  0  0  0  0  0  0  0  0  0  0
   14.7732   11.0442    5.4095 O   0  0  0  0  0  0  0  0  0  0  0  0
   15.2623   10.4607    4.2226 C   0  0  0  0  0  0  0  0  0  0  0  0
   15.4183    9.2052    1.6383 O   0  0  0  0  0  0  0  0  0  0  0  0
   14.6555    8.7902    2.4100 C   0  0  0  0  0  0  0  0  0  0  0  0
   14.0415    7.7376    2.2683 O   0  0  0  0  0  0  0  0  0  0  0  0
   15.8568   10.0167    1.8029 H   0  0  0  0  0  0  0  0  0  0  0  0
 13 12  2  0  0  0
 12 11  1  0  0  0
 12  1  1  0  0  0
 10  1  1  0  0  0
 10  9  1  0  0  0
  1  2  1  0  0  0
  9  8  1  0  0  0
  2  3  1  0  0  0
  8  3  2  0  0  0
  8  7  1  0  0  0
  3  4  1  0  0  0
  7  6  2  0  0  0
  4  5  2  0  0  0
  6  5  1  0  0  0
 11 14  1  0  0  0
M  END
> <minimizedAffinity>
-6.18880

$$$$
4G5F_0JD_A_402


 14 15  0  0  0  0  0  0  0  0999 V2000
   14.6457    9.6598    6.5001 C   0  0  0  0  0  0  0  0  0  0  0  0
   13.4754   10.1964    7.0703 O   0  0  0  0  0  0  0  0  0  0  0  0
   13.6409   10.5571    8.3690 C   0  0  0  0  0  0  0  0  0  0  0  0
   12.6613   11.2967    8.9510 C   0  0  0  0  0  0  0  0  0  0  0  0
   12.8592   11.8027   10.2088 C   0  0  0  0  0  0  0  0  0  0  0  0
   14.0173   11.5585   10.8726 C   0  0  0  0  0  0  0  0  0  0  0  0
   15.0060   10.7972   10.3001 C   0  0  0  0  0  0  0  0  0  0  0  0
   14.8137   10.2912    9.0527 C   0  0  0  0  0  0  0  0  0  0  0  0
   15.7316    9.3947    8.5926 O   0  0  0  0  0  0  0  0  0  0  0  0
   15.3524    8.7148    7.4168 C   0  0  0  0  0  0  0  0  0  0  0  0
   15.0027    8.7468    4.3188 O   0  0  0  0  0  0  0  0  0  0  0  0
   14.2637    9.0765    5.1523 C   0  0  0  0  0  0  0  0  0  0  0  0
   13.0443    8.9728    5.0668 O   0  0  0  0  0  0  0  0  0  0  0  0
   15.9256    8.8515    4.4427 H   0  0  0  0  0  0  0  0  0  0  0  0
 13 12  2  0  0  0
 12 11  1  0  0  0
 12  1  1  0  0  0
 10  1  1  0  0  0
 10  9  1  0  0  0
  1  2  1  0  0  0
  9  8  1  0  0  0
  2  3  1  0  0  0
  8  3  2  0  0  0
  8  7  1  0  0  0
  3  4  1  0  0  0
  7  6  2  0  0  0
  4  5  2  0  0  0
  6  5  1  0  0  0
 11 14  1  0  0  0
M  END
> <minimizedAffinity>
-6.18486

$$$$
4G5F_0JD_A_402


 14 15  0  0  0  0  0  0  0  0999 V2000
   15.4033   10.8910    4.6935 C   0  0  0  0  0  0  0  0  0  0  0  0
   14.2433   10.1240    4.9140 O   0  0  0  0  0  0  0  0  0  0  0  0
   14.4003    9.2054    5.9018 C   0  0  0  0  0  0  0  0  0  0  0  0
   13.2894    8.5730    6.3614 C   0  0  0  0  0  0  0  0  0  0  0  0
   13.3875    7.7517    7.4536 C   0  0  0  0  0  0  0  0  0  0  0  0
   14.5844    7.5615    8.0642 C   0  0  0  0  0  0  0  0  0  0  0  0
   15.7162    8.1819    7.5963 C   0  0  0  0  0  0  0  0  0  0  0  0
   15.6244    8.9966    6.5115 C   0  0  0  0  0  0  0  0  0  0  0  0
   16.7898    9.4472    5.9667 O   0  0  0  0  0  0  0  0  0  0  0  0
   16.6502   10.0675    4.7081 C   0  0  0  0  0  0  0  0  0  0  0  0
   14.7516   11.2767    2.4251 O   0  0  0  0  0  0  0  0  0  0  0  0
   15.1805   11.6898    3.4227 C   0  0  0  0  0  0  0  0  0  0  0  0
   15.4963   12.8620    3.5992 O   0  0  0  0  0  0  0  0  0  0  0  0
   14.5284   10.3697    2.3510 H   0  0  0  0  0  0  0  0  0  0  0  0
 13 12  2  0  0  0
 12 11  1  0  0  0
 12  1  1  0  0  0
 10  1  1  0  0  0
 10  9  1  0  0  0
  1  2  1  0  0  0
  9  8  1  0  0  0
  2  3  1  0  0  0
  8  3  2  0  0  0
  8  7  1  0  0  0
  3  4  1  0  0  0
  7  6  2  0  0  0
  4  5  2  0  0  0
  6  5  1  0  0  0
 11 14  1  0  0  0
M  END
> <minimizedAffinity>
-6.06786

$$$$
4G5F_0JD_A_402


 14 15  0  0  0  0  0  0  0  0999 V2000
   14.9562    8.8774    6.2262 C   0  0  0  0  0  0  0  0  0  0  0  0
   14.0226    8.2956    5.3472 O   0  0  0  0  0  0  0  0  0  0  0  0
   13.7096    9.1042    4.3022 C   0  0  0  0  0  0  0  0  0  0  0  0
   13.0066    8.5653    3.2723 C   0  0  0  0  0  0  0  0  0  0  0  0
   12.8009    9.3068    2.1387 C   0  0  0  0  0  0  0  0  0  0  0  0
   13.2840   10.5717    2.0488 C   0  0  0  0  0  0  0  0  0  0  0  0
   13.9802   11.1317    3.0912 C   0  0  0  0  0  0  0  0  0  0  0  0
   14.1855   10.4005    4.2190 C   0  0  0  0  0  0  0  0  0  0  0  0
   14.7163   11.0464    5.2957 O   0  0  0  0  0  0  0  0  0  0  0  0
   14.6683   10.3175    6.5019 C   0  0  0  0  0  0  0  0  0  0  0  0
   15.9984    7.6580    7.9999 O   0  0  0  0  0  0  0  0  0  0  0  0
   15.0273    7.9933    7.4576 C   0  0  0  0  0  0  0  0  0  0  0  0
   13.8971    7.6933    7.8285 O   0  0  0  0  0  0  0  0  0  0  0  0
   16.8347    7.9196    7.6680 H   0  0  0  0  0  0  0  0  0  0  0  0
 13 12  2  0  0  0
 12 11  1  0  0  0
 12  1  1  0  0  0
 10  1  1  0  0  0
 10  9  1  0  0  0
  1  2  1  0  0  0
  9  8  1  0  0  0
  2  3  1  0  0  0
  8  3  2  0  0  0
  8  7  1  0  0  0
  3  4  1  0  0  0
  7  6  2  0  0  0
  4  5  2  0  0  0
  6  5  1  0  0  0
 11 14  1  0  0  0
M  END
> <minimizedAffinity>
-6.06382

$$$$
4G5F_0JD_A_402


 14 15  0  0  0  0  0  0  0  0999 V2000
   16.7753   11.3137    0.9359 C   0  0  0  0  0  0  0  0  0  0  0  0
   15.5170   10.8925    0.4647 O   0  0  0  0  0  0  0  0  0  0  0  0
   14.8018   10.2209    1.4036 C   0  0  0  0  0  0  0  0  0  0  0  0
   13.4916    9.9729    1.1446 C   0  0  0  0  0  0  0  0  0  0  0  0
   12.7038    9.4309    2.1258 C   0  0  0  0  0  0  0  0  0  0  0  0
   13.2287    9.1333    3.3413 C   0  0  0  0  0  0  0  0  0  0  0  0
   14.5558    9.3635    3.6069 C   0  0  0  0  0  0  0  0  0  0  0  0
   15.3422    9.8996    2.6358 C   0  0  0  0  0  0  0  0  0  0  0  0
   16.6843    9.9435    2.8705 O   0  0  0  0  0  0  0  0  0  0  0  0
   17.4687   10.2650    1.7436 C   0  0  0  0  0  0  0  0  0  0  0  0
   17.6633   11.2789   -1.2843 O   0  0  0  0  0  0  0  0  0  0  0  0
   17.5586   11.8194   -0.2613 C   0  0  0  0  0  0  0  0  0  0  0  0
   18.0573   12.9116   -0.0095 O   0  0  0  0  0  0  0  0  0  0  0  0
   17.2587   10.4442   -1.4167 H   0  0  0  0  0  0  0  0  0  0  0  0
 13 12  2  0  0  0
 12 11  1  0  0  0
 12  1  1  0  0  0
 10  1  1  0  0  0
 10  9  1  0  0  0
  1  2  1  0  0  0
  9  8  1  0  0  0
  2  3  1  0  0  0
  8  3  2  0  0  0
  8  7  1  0  0  0
  3  4  1  0  0  0
  7  6  2  0  0  0
  4  5  2  0  0  0
  6  5  1  0  0  0
 11 14  1  0  0  0
M  END
> <minimizedAffinity>
-6.05014

$$$$
4G5F_0JD_A_402


 14 15  0  0  0  0  0  0  0  0999 V2000
   13.5117    9.4221    3.0144 C   0  0  0  0  0  0  0  0  0  0  0  0
   14.7359    9.8718    2.4834 O   0  0  0  0  0  0  0  0  0  0  0  0
   14.7136    9.9806    1.1300 C   0  0  0  0  0  0  0  0  0  0  0  0
   15.7487   10.6228    0.5288 C   0  0  0  0  0  0  0  0  0  0  0  0
   15.6891   10.8812   -0.8154 C   0  0  0  0  0  0  0  0  0  0  0  0
   14.6125   10.4895   -1.5427 C   0  0  0  0  0  0  0  0  0  0  0  0
   13.5695    9.8239   -0.9477 C   0  0  0  0  0  0  0  0  0  0  0  0
   13.6246    9.5636    0.3858 C   0  0  0  0  0  0  0  0  0  0  0  0
   12.6649    8.7461    0.9040 O   0  0  0  0  0  0  0  0  0  0  0  0
   12.9144    8.3061    2.2204 C   0  0  0  0  0  0  0  0  0  0  0  0
   12.9704    9.2419    5.3369 O   0  0  0  0  0  0  0  0  0  0  0  0
   13.7446    9.1090    4.4809 C   0  0  0  0  0  0  0  0  0  0  0  0
   14.8757    8.6629    4.6435 O   0  0  0  0  0  0  0  0  0  0  0  0
   12.1203    9.5888    5.1500 H   0  0  0  0  0  0  0  0  0  0  0  0
 13 12  2  0  0  0
 12 11  1  0  0  0
 12  1  1  0  0  0
 10  1  1  0  0  0
 10  9  1  0  0  0
  1  2  1  0  0  0
  9  8  1  0  0  0
  2  3  1  0  0  0
  8  3  2  0  0  0
  8  7  1  0  0  0
  3  4  1  0  0  0
  7  6  2  0  0  0
  4  5  2  0  0  0
  6  5  1  0  0  0
 11 14  1  0  0  0
M  END
> <minimizedAffinity>
-5.90914

$$$$
4G5F_0JD_A_402


 14 15  0  0  0  0  0  0  0  0999 V2000
   14.4229    8.7411    2.0847 C   0  0  0  0  0  0  0  0  0  0  0  0
   14.8297    9.3618    0.8880 O   0  0  0  0  0  0  0  0  0  0  0  0
   15.7065   10.3780    1.0945 C   0  0  0  0  0  0  0  0  0  0  0  0
   16.3449   10.8938    0.0121 C   0  0  0  0  0  0  0  0  0  0  0  0
   17.3418   11.8154    0.1963 C   0  0  0  0  0  0  0  0  0  0  0  0
   17.6812   12.2189    1.4467 C   0  0  0  0  0  0  0  0  0  0  0  0
   17.0297   11.7169    2.5460 C   0  0  0  0  0  0  0  0  0  0  0  0
   16.0384   10.8033    2.3683 C   0  0  0  0  0  0  0  0  0  0  0  0
   15.2945   10.4666    3.4598 O   0  0  0  0  0  0  0  0  0  0  0  0
   14.1313    9.7228    3.1729 C   0  0  0  0  0  0  0  0  0  0  0  0
   13.3636    6.6697    1.5310 O   0  0  0  0  0  0  0  0  0  0  0  0
   13.2758    7.8089    1.7414 C   0  0  0  0  0  0  0  0  0  0  0  0
   12.2155    8.4259    1.7402 O   0  0  0  0  0  0  0  0  0  0  0  0
   14.2031    6.2539    1.5460 H   0  0  0  0  0  0  0  0  0  0  0  0
 13 12  2  0  0  0
 12 11  1  0  0  0
 12  1  1  0  0  0
 10  1  1  0  0  0
 10  9  1  0  0  0
  1  2  1  0  0  0
  9  8  1  0  0  0
  2  3  1  0  0  0
  8  3  2  0  0  0
  8  7  1  0  0  0
  3  4  1  0  0  0
  7  6  2  0  0  0
  4  5  2  0  0  0
  6  5  1  0  0  0
 11 14  1  0  0  0
M  END
> <minimizedAffinity>
-5.86833

$$$$
