3COY_53H_A_301


 38 40  0  0  0  0  0  0  0  0999 V2000
   14.2564    7.4315    0.0325 O   0  0  0  0  0  0  0  0  0  0  0  0
   12.9425   10.3711    1.7789 C   0  0  0  0  0  0  0  0  0  0  0  0
   13.4787    8.9472    1.8409 C   0  0  0  0  0  0  0  0  0  0  0  0
   12.3941    8.0373    1.8690 O   0  0  0  0  0  0  0  0  0  0  0  0
   14.2328    8.7796    0.5320 C   0  0  0  0  0  0  0  0  0  0  0  0
   13.4728    9.7395   -0.3819 C   0  0  0  0  0  0  0  0  0  0  0  0
   13.1771   10.8530    0.4427 O   0  0  0  0  0  0  0  0  0  0  0  0
   14.7493    6.8670    0.6484 H   0  0  0  0  0  0  0  0  0  0  0  0
   11.8296    8.1830    1.0937 H   0  0  0  0  0  0  0  0  0  0  0  0
   12.6908    9.3832   -4.7030 C   0  0  0  0  0  0  0  0  0  0  0  0
   13.9389    9.9584   -2.8135 C   0  0  0  0  0  0  0  0  0  0  0  0
   14.9926   10.4200   -3.6048 C   0  0  0  0  0  0  0  0  0  0  0  0
   14.8525   10.3398   -4.9780 C   0  0  0  0  0  0  0  0  0  0  0  0
   13.6928    9.8193   -5.4848 N   0  0  0  0  0  0  0  0  0  0  0  0
   15.5498   10.6738   -1.5095 C   0  0  0  0  0  0  0  0  0  0  0  0
   12.7979    9.4426   -3.3718 N   0  0  0  0  0  0  0  0  0  0  0  0
   14.3146   10.1190   -1.5430 N   0  0  0  0  0  0  0  0  0  0  0  0
   15.9794   10.8680   -2.7875 N   0  0  0  0  0  0  0  0  0  0  0  0
   15.8616   10.7526   -5.7930 N   0  0  0  0  0  0  0  0  0  0  0  0
   16.6869   11.1238   -5.4054 H   0  0  0  0  0  0  0  0  0  0  0  0
   15.7661   10.6799   -6.7702 H   0  0  0  0  0  0  0  0  0  0  0  0
   13.6912   11.2759    2.7321 C   0  0  0  0  0  0  0  0  0  0  0  0
   15.0786   11.1912    2.3767 O   0  0  0  0  0  0  0  0  0  0  0  0
   16.1860   11.7384    3.4437 S   0  0  0  0  0  0  0  0  0  0  0  0
   17.4321   11.3251    2.8793 O   0  0  0  0  0  0  0  0  0  0  0  0
   16.0205   13.1701    3.4698 O   0  0  0  0  0  0  0  0  0  0  0  0
   16.0138    9.8139    5.1720 C   0  0  0  0  0  0  0  0  0  0  0  0
   16.0380   11.1382    4.8575 N   0  0  0  0  0  0  0  0  0  0  0  0
   16.1155    8.9155    4.3364 O   0  0  0  0  0  0  0  0  0  0  0  0
   15.9528   11.7743    5.6041 H   0  0  0  0  0  0  0  0  0  0  0  0
   15.9295    9.4514    6.6404 C   0  0  0  0  0  0  0  0  0  0  0  0
   16.7371    8.1911    6.9735 N   0  0  0  0  0  0  0  0  0  0  0  0
   16.3094    7.3835    6.5205 H   0  0  0  0  0  0  0  0  0  0  0  0
   16.7453    8.0497    7.9836 H   0  0  0  0  0  0  0  0  0  0  0  0
   14.5196    9.3497    7.2484 C   0  0  0  0  0  0  0  0  0  0  0  0
   14.4642    8.3389    8.3639 C   0  0  0  0  0  0  0  0  0  0  0  0
   14.1502   10.6946    7.8499 C   0  0  0  0  0  0  0  0  0  0  0  0
   13.4354    9.0068    6.2235 C   0  0  0  0  0  0  0  0  0  0  0  0
 27 31  1  0  0  0
 27 28  1  0  0  0
 27 29  2  0  0  0
 10 14  2  0  0  0
 10 16  1  0  0  0
 31 35  1  0  0  0
 31 32  1  0  0  0
 11 12  1  0  0  0
 11 16  2  0  0  0
 11 17  1  0  0  0
 12 13  2  0  0  0
 12 18  1  0  0  0
 13 14  1  0  0  0
 13 19  1  0  0  0
 35 36  1  0  0  0
 35 37  1  0  0  0
 35 38  1  0  0  0
 28 24  1  0  0  0
 15 17  1  0  0  0
 15 18  2  0  0  0
  1  5  1  0  0  0
 24 25  2  0  0  0
 24 26  2  0  0  0
 24 23  1  0  0  0
 23 22  1  0  0  0
 22  2  1  0  0  0
  2  3  1  0  0  0
  2  7  1  0  0  0
  3  4  1  0  0  0
  3  5  1  0  0  0
  5  6  1  0  0  0
  6  7  1  0  0  0
  6 17  1  0  0  0
 28 30  1  0  0  0
  1  8  1  0  0  0
 32 33  1  0  0  0
 32 34  1  0  0  0
  4  9  1  0  0  0
 19 20  1  0  0  0
 19 21  1  0  0  0
M  END
> <minimizedAffinity>
-11.49596

$$$$
3COY_53H_A_301


 38 40  0  0  0  0  0  0  0  0999 V2000
   14.2465    7.3793   -0.0441 O   0  0  0  0  0  0  0  0  0  0  0  0
   13.1575   10.3298    1.8340 C   0  0  0  0  0  0  0  0  0  0  0  0
   13.6190    8.8785    1.8350 C   0  0  0  0  0  0  0  0  0  0  0  0
   12.4893    8.0261    1.8801 O   0  0  0  0  0  0  0  0  0  0  0  0
   14.3135    8.7112    0.4935 C   0  0  0  0  0  0  0  0  0  0  0  0
   13.5719    9.7364   -0.3628 C   0  0  0  0  0  0  0  0  0  0  0  0
   13.3671   10.8386    0.5036 O   0  0  0  0  0  0  0  0  0  0  0  0
   14.7314    6.7716    0.5361 H   0  0  0  0  0  0  0  0  0  0  0  0
   11.9047    8.2242    1.1318 H   0  0  0  0  0  0  0  0  0  0  0  0
   12.6771    9.3900   -4.6627 C   0  0  0  0  0  0  0  0  0  0  0  0
   13.9791    9.9502   -2.8054 C   0  0  0  0  0  0  0  0  0  0  0  0
   15.0179   10.3995   -3.6231 C   0  0  0  0  0  0  0  0  0  0  0  0
   14.8422   10.3211   -4.9923 C   0  0  0  0  0  0  0  0  0  0  0  0
   13.6640    9.8145   -5.4696 N   0  0  0  0  0  0  0  0  0  0  0  0
   15.6307   10.6464   -1.5426 C   0  0  0  0  0  0  0  0  0  0  0  0
   12.8184    9.4480   -3.3347 N   0  0  0  0  0  0  0  0  0  0  0  0
   14.3886   10.1061   -1.5448 N   0  0  0  0  0  0  0  0  0  0  0  0
   16.0302   10.8356   -2.8310 N   0  0  0  0  0  0  0  0  0  0  0  0
   15.8353   10.7221   -5.8326 N   0  0  0  0  0  0  0  0  0  0  0  0
   16.6744   11.0835   -5.4659 H   0  0  0  0  0  0  0  0  0  0  0  0
   15.7143   10.6507   -6.8070 H   0  0  0  0  0  0  0  0  0  0  0  0
   13.9886   11.1652    2.7821 C   0  0  0  0  0  0  0  0  0  0  0  0
   15.1072   10.3560    3.1721 O   0  0  0  0  0  0  0  0  0  0  0  0
   16.2343   11.0138    4.1526 S   0  0  0  0  0  0  0  0  0  0  0  0
   15.7692   12.3500    4.3533 O   0  0  0  0  0  0  0  0  0  0  0  0
   16.2116   10.2172    5.3536 O   0  0  0  0  0  0  0  0  0  0  0  0
   18.0093   11.6652    2.3791 C   0  0  0  0  0  0  0  0  0  0  0  0
   17.6494   11.0491    3.5385 N   0  0  0  0  0  0  0  0  0  0  0  0
   17.2208   12.2885    1.6681 O   0  0  0  0  0  0  0  0  0  0  0  0
   18.3606   10.5810    4.0328 H   0  0  0  0  0  0  0  0  0  0  0  0
   19.4759   11.6298    2.0013 C   0  0  0  0  0  0  0  0  0  0  0  0
   19.8941   12.8593    1.1858 N   0  0  0  0  0  0  0  0  0  0  0  0
   19.4304   12.8386    0.2776 H   0  0  0  0  0  0  0  0  0  0  0  0
   20.9052   12.8504    1.0516 H   0  0  0  0  0  0  0  0  0  0  0  0
   19.9844   10.3475    1.3196 C   0  0  0  0  0  0  0  0  0  0  0  0
   19.2103   10.0373    0.0652 C   0  0  0  0  0  0  0  0  0  0  0  0
   21.4315   10.5557    0.9076 C   0  0  0  0  0  0  0  0  0  0  0  0
   19.9529    9.1175    2.2304 C   0  0  0  0  0  0  0  0  0  0  0  0
 27 31  1  0  0  0
 27 28  1  0  0  0
 27 29  2  0  0  0
 10 14  2  0  0  0
 10 16  1  0  0  0
 31 35  1  0  0  0
 31 32  1  0  0  0
 11 12  1  0  0  0
 11 16  2  0  0  0
 11 17  1  0  0  0
 12 13  2  0  0  0
 12 18  1  0  0  0
 13 14  1  0  0  0
 13 19  1  0  0  0
 35 36  1  0  0  0
 35 37  1  0  0  0
 35 38  1  0  0  0
 28 24  1  0  0  0
 15 17  1  0  0  0
 15 18  2  0  0  0
  1  5  1  0  0  0
 24 25  2  0  0  0
 24 26  2  0  0  0
 24 23  1  0  0  0
 23 22  1  0  0  0
 22  2  1  0  0  0
  2  3  1  0  0  0
  2  7  1  0  0  0
  3  4  1  0  0  0
  3  5  1  0  0  0
  5  6  1  0  0  0
  6  7  1  0  0  0
  6 17  1  0  0  0
 28 30  1  0  0  0
  1  8  1  0  0  0
 32 33  1  0  0  0
 32 34  1  0  0  0
  4  9  1  0  0  0
 19 20  1  0  0  0
 19 21  1  0  0  0
M  END
> <minimizedAffinity>
-10.51278

$$$$
3COY_53H_A_301


 38 40  0  0  0  0  0  0  0  0999 V2000
   18.9457   13.5389   -0.6090 O   0  0  0  0  0  0  0  0  0  0  0  0
   19.2731   10.8745    1.8835 C   0  0  0  0  0  0  0  0  0  0  0  0
   19.4541   12.3388    1.5062 C   0  0  0  0  0  0  0  0  0  0  0  0
   20.7867   12.5526    1.0781 O   0  0  0  0  0  0  0  0  0  0  0  0
   18.5166   12.5343    0.3260 C   0  0  0  0  0  0  0  0  0  0  0  0
   18.4915   11.1312   -0.2782 C   0  0  0  0  0  0  0  0  0  0  0  0
   18.4884   10.2640    0.8422 O   0  0  0  0  0  0  0  0  0  0  0  0
   18.9431   14.4065   -0.1752 H   0  0  0  0  0  0  0  0  0  0  0  0
   20.9889   11.9562    0.3402 H   0  0  0  0  0  0  0  0  0  0  0  0
   14.2765   10.5844    0.8814 C   0  0  0  0  0  0  0  0  0  0  0  0
   16.0513   10.8068   -0.6217 C   0  0  0  0  0  0  0  0  0  0  0  0
   15.1933   10.6604   -1.7134 C   0  0  0  0  0  0  0  0  0  0  0  0
   13.8482   10.4693   -1.4567 C   0  0  0  0  0  0  0  0  0  0  0  0
   13.4319   10.4389   -0.1534 N   0  0  0  0  0  0  0  0  0  0  0  0
   17.2239   10.9210   -2.4707 C   0  0  0  0  0  0  0  0  0  0  0  0
   15.5834   10.7656    0.6663 N   0  0  0  0  0  0  0  0  0  0  0  0
   17.2814   10.9545   -1.1179 N   0  0  0  0  0  0  0  0  0  0  0  0
   15.9284   10.7415   -2.8515 N   0  0  0  0  0  0  0  0  0  0  0  0
   12.9741   10.2955   -2.4857 N   0  0  0  0  0  0  0  0  0  0  0  0
   13.2969   10.3215   -3.4155 H   0  0  0  0  0  0  0  0  0  0  0  0
   12.0192   10.1438   -2.3002 H   0  0  0  0  0  0  0  0  0  0  0  0
   18.5041   10.7380    3.1788 C   0  0  0  0  0  0  0  0  0  0  0  0
   18.9202    9.5022    3.7768 O   0  0  0  0  0  0  0  0  0  0  0  0
   17.7933    8.3508    4.0389 S   0  0  0  0  0  0  0  0  0  0  0  0
   16.7919    8.6285    3.0580 O   0  0  0  0  0  0  0  0  0  0  0  0
   18.4682    7.0956    3.8230 O   0  0  0  0  0  0  0  0  0  0  0  0
   16.4208    9.4258    5.9575 C   0  0  0  0  0  0  0  0  0  0  0  0
   17.1630    8.4055    5.4463 N   0  0  0  0  0  0  0  0  0  0  0  0
   16.1559   10.4526    5.3320 O   0  0  0  0  0  0  0  0  0  0  0  0
   17.3119    7.6274    6.0309 H   0  0  0  0  0  0  0  0  0  0  0  0
   15.8406    9.2344    7.3436 C   0  0  0  0  0  0  0  0  0  0  0  0
   16.1966    7.8660    7.9371 N   0  0  0  0  0  0  0  0  0  0  0  0
   15.7350    7.1320    7.3999 H   0  0  0  0  0  0  0  0  0  0  0  0
   15.8847    7.8246    8.9073 H   0  0  0  0  0  0  0  0  0  0  0  0
   14.3344    9.5038    7.5069 C   0  0  0  0  0  0  0  0  0  0  0  0
   13.5524    9.0512    6.3018 C   0  0  0  0  0  0  0  0  0  0  0  0
   13.8225    8.7053    8.6934 C   0  0  0  0  0  0  0  0  0  0  0  0
   14.0027   10.9727    7.7817 C   0  0  0  0  0  0  0  0  0  0  0  0
 27 31  1  0  0  0
 27 28  1  0  0  0
 27 29  2  0  0  0
 10 14  2  0  0  0
 10 16  1  0  0  0
 31 35  1  0  0  0
 31 32  1  0  0  0
 11 12  1  0  0  0
 11 16  2  0  0  0
 11 17  1  0  0  0
 12 13  2  0  0  0
 12 18  1  0  0  0
 13 14  1  0  0  0
 13 19  1  0  0  0
 35 36  1  0  0  0
 35 37  1  0  0  0
 35 38  1  0  0  0
 28 24  1  0  0  0
 15 17  1  0  0  0
 15 18  2  0  0  0
  1  5  1  0  0  0
 24 25  2  0  0  0
 24 26  2  0  0  0
 24 23  1  0  0  0
 23 22  1  0  0  0
 22  2  1  0  0  0
  2  3  1  0  0  0
  2  7  1  0  0  0
  3  4  1  0  0  0
  3  5  1  0  0  0
  5  6  1  0  0  0
  6  7  1  0  0  0
  6 17  1  0  0  0
 28 30  1  0  0  0
  1  8  1  0  0  0
 32 33  1  0  0  0
 32 34  1  0  0  0
  4  9  1  0  0  0
 19 20  1  0  0  0
 19 21  1  0  0  0
M  END
> <minimizedAffinity>
-9.64285

$$$$
3COY_53H_A_301


 38 40  0  0  0  0  0  0  0  0999 V2000
   18.8574   13.6848   -0.0406 O   0  0  0  0  0  0  0  0  0  0  0  0
   20.6253   10.7549    1.2667 C   0  0  0  0  0  0  0  0  0  0  0  0
   20.5366   12.2681    1.1196 C   0  0  0  0  0  0  0  0  0  0  0  0
   21.3473   12.6832    0.0355 O   0  0  0  0  0  0  0  0  0  0  0  0
   19.0783   12.5202    0.7735 C   0  0  0  0  0  0  0  0  0  0  0  0
   18.7046   11.2193    0.0647 C   0  0  0  0  0  0  0  0  0  0  0  0
   19.3770   10.2112    0.7987 O   0  0  0  0  0  0  0  0  0  0  0  0
   19.1100   14.4789    0.4559 H   0  0  0  0  0  0  0  0  0  0  0  0
   21.0713   12.2198   -0.7707 H   0  0  0  0  0  0  0  0  0  0  0  0
   15.8512   10.7761   -3.2627 C   0  0  0  0  0  0  0  0  0  0  0  0
   16.4908   10.8988   -1.0189 C   0  0  0  0  0  0  0  0  0  0  0  0
   15.1687   10.7488   -0.5957 C   0  0  0  0  0  0  0  0  0  0  0  0
   14.1915   10.6154   -1.5647 C   0  0  0  0  0  0  0  0  0  0  0  0
   14.5714   10.6327   -2.8792 N   0  0  0  0  0  0  0  0  0  0  0  0
   16.4331   10.9510    1.1722 C   0  0  0  0  0  0  0  0  0  0  0  0
   16.8184   10.9124   -2.3501 N   0  0  0  0  0  0  0  0  0  0  0  0
   17.2335   11.0285    0.0823 N   0  0  0  0  0  0  0  0  0  0  0  0
   15.1465   10.7739    0.7612 N   0  0  0  0  0  0  0  0  0  0  0  0
   12.8845   10.4923   -1.2045 N   0  0  0  0  0  0  0  0  0  0  0  0
   12.6351   10.4823   -0.2522 H   0  0  0  0  0  0  0  0  0  0  0  0
   12.1886   10.4133   -1.8965 H   0  0  0  0  0  0  0  0  0  0  0  0
   20.7845   10.3582    2.7175 C   0  0  0  0  0  0  0  0  0  0  0  0
   19.5659    9.7066    3.1028 O   0  0  0  0  0  0  0  0  0  0  0  0
   19.6158    8.6369    4.3346 S   0  0  0  0  0  0  0  0  0  0  0  0
   19.3098    7.3883    3.7105 O   0  0  0  0  0  0  0  0  0  0  0  0
   20.9617    8.7020    4.8466 O   0  0  0  0  0  0  0  0  0  0  0  0
   17.2311    8.9105    5.3138 C   0  0  0  0  0  0  0  0  0  0  0  0
   18.5858    8.9209    5.4479 N   0  0  0  0  0  0  0  0  0  0  0  0
   16.6554    8.6603    4.2546 O   0  0  0  0  0  0  0  0  0  0  0  0
   18.9427    9.1297    6.3414 H   0  0  0  0  0  0  0  0  0  0  0  0
   16.4087    9.1509    6.5630 C   0  0  0  0  0  0  0  0  0  0  0  0
   16.2676    7.8848    7.4166 N   0  0  0  0  0  0  0  0  0  0  0  0
   15.7096    7.1955    6.9127 H   0  0  0  0  0  0  0  0  0  0  0  0
   15.8072    8.1175    8.2965 H   0  0  0  0  0  0  0  0  0  0  0  0
   15.0327    9.8119    6.3694 C   0  0  0  0  0  0  0  0  0  0  0  0
   13.9670    8.7980    6.0447 C   0  0  0  0  0  0  0  0  0  0  0  0
   14.6262   10.4812    7.6709 C   0  0  0  0  0  0  0  0  0  0  0  0
   15.0221   10.8958    5.2885 C   0  0  0  0  0  0  0  0  0  0  0  0
 27 31  1  0  0  0
 27 28  1  0  0  0
 27 29  2  0  0  0
 10 14  2  0  0  0
 10 16  1  0  0  0
 31 35  1  0  0  0
 31 32  1  0  0  0
 11 12  1  0  0  0
 11 16  2  0  0  0
 11 17  1  0  0  0
 12 13  2  0  0  0
 12 18  1  0  0  0
 13 14  1  0  0  0
 13 19  1  0  0  0
 35 36  1  0  0  0
 35 37  1  0  0  0
 35 38  1  0  0  0
 28 24  1  0  0  0
 15 17  1  0  0  0
 15 18  2  0  0  0
  1  5  1  0  0  0
 24 25  2  0  0  0
 24 26  2  0  0  0
 24 23  1  0  0  0
 23 22  1  0  0  0
 22  2  1  0  0  0
  2  3  1  0  0  0
  2  7  1  0  0  0
  3  4  1  0  0  0
  3  5  1  0  0  0
  5  6  1  0  0  0
  6  7  1  0  0  0
  6 17  1  0  0  0
 28 30  1  0  0  0
  1  8  1  0  0  0
 32 33  1  0  0  0
 32 34  1  0  0  0
  4  9  1  0  0  0
 19 20  1  0  0  0
 19 21  1  0  0  0
M  END
> <minimizedAffinity>
-9.61533

$$$$
3COY_53H_A_301


 38 40  0  0  0  0  0  0  0  0999 V2000
   12.8763    7.9537    1.6358 O   0  0  0  0  0  0  0  0  0  0  0  0
   14.2925   10.8082    3.4426 C   0  0  0  0  0  0  0  0  0  0  0  0
   13.9040    9.3358    3.4264 C   0  0  0  0  0  0  0  0  0  0  0  0
   12.6232    9.1812    4.0101 O   0  0  0  0  0  0  0  0  0  0  0  0
   13.8200    8.9926    1.9482 C   0  0  0  0  0  0  0  0  0  0  0  0
   13.4397   10.3432    1.3435 C   0  0  0  0  0  0  0  0  0  0  0  0
   14.1881   11.2874    2.0890 O   0  0  0  0  0  0  0  0  0  0  0  0
   13.1650    7.1217    2.0425 H   0  0  0  0  0  0  0  0  0  0  0  0
   11.9829    9.7345    3.5361 H   0  0  0  0  0  0  0  0  0  0  0  0
   17.2572   11.2810   -0.6457 C   0  0  0  0  0  0  0  0  0  0  0  0
   15.0029   10.6733   -0.5605 C   0  0  0  0  0  0  0  0  0  0  0  0
   14.9294   10.6100   -1.9534 C   0  0  0  0  0  0  0  0  0  0  0  0
   16.0727   10.9008   -2.6744 C   0  0  0  0  0  0  0  0  0  0  0  0
   17.2099   11.2287   -1.9875 N   0  0  0  0  0  0  0  0  0  0  0  0
   12.9634   10.1177   -1.1425 C   0  0  0  0  0  0  0  0  0  0  0  0
   16.1675   11.0102    0.0797 N   0  0  0  0  0  0  0  0  0  0  0  0
   13.7864   10.3769   -0.0985 N   0  0  0  0  0  0  0  0  0  0  0  0
   13.6658   10.2570   -2.3013 N   0  0  0  0  0  0  0  0  0  0  0  0
   16.0464   10.8784   -4.0353 N   0  0  0  0  0  0  0  0  0  0  0  0
   15.2165   10.6394   -4.5077 H   0  0  0  0  0  0  0  0  0  0  0  0
   16.8575   11.1012   -4.5470 H   0  0  0  0  0  0  0  0  0  0  0  0
   15.7281   10.9867    3.8842 C   0  0  0  0  0  0  0  0  0  0  0  0
   16.4179    9.7760    3.5428 O   0  0  0  0  0  0  0  0  0  0  0  0
   17.4657    9.1499    4.6265 S   0  0  0  0  0  0  0  0  0  0  0  0
   17.4946    7.7582    4.3035 O   0  0  0  0  0  0  0  0  0  0  0  0
   18.7193    9.8172    4.3795 O   0  0  0  0  0  0  0  0  0  0  0  0
   15.8393    8.9276    6.6329 C   0  0  0  0  0  0  0  0  0  0  0  0
   17.0238    9.3277    6.0941 N   0  0  0  0  0  0  0  0  0  0  0  0
   14.9594    8.3554    5.9894 O   0  0  0  0  0  0  0  0  0  0  0  0
   17.6597    9.7733    6.6993 H   0  0  0  0  0  0  0  0  0  0  0  0
   15.6457    9.1434    8.1197 C   0  0  0  0  0  0  0  0  0  0  0  0
   15.4497    7.8239    8.8761 N   0  0  0  0  0  0  0  0  0  0  0  0
   14.5653    7.3998    8.5964 H   0  0  0  0  0  0  0  0  0  0  0  0
   15.4371    8.0060    9.8797 H   0  0  0  0  0  0  0  0  0  0  0  0
   14.5647   10.1557    8.5374 C   0  0  0  0  0  0  0  0  0  0  0  0
   14.1386   11.0254    7.3837 C   0  0  0  0  0  0  0  0  0  0  0  0
   13.3339    9.3928    8.9959 C   0  0  0  0  0  0  0  0  0  0  0  0
   14.9886   11.0577    9.6993 C   0  0  0  0  0  0  0  0  0  0  0  0
 27 31  1  0  0  0
 27 28  1  0  0  0
 27 29  2  0  0  0
 10 14  2  0  0  0
 10 16  1  0  0  0
 31 35  1  0  0  0
 31 32  1  0  0  0
 11 12  1  0  0  0
 11 16  2  0  0  0
 11 17  1  0  0  0
 12 13  2  0  0  0
 12 18  1  0  0  0
 13 14  1  0  0  0
 13 19  1  0  0  0
 35 36  1  0  0  0
 35 37  1  0  0  0
 35 38  1  0  0  0
 28 24  1  0  0  0
 15 17  1  0  0  0
 15 18  2  0  0  0
  1  5  1  0  0  0
 24 25  2  0  0  0
 24 26  2  0  0  0
 24 23  1  0  0  0
 23 22  1  0  0  0
 22  2  1  0  0  0
  2  3  1  0  0  0
  2  7  1  0  0  0
  3  4  1  0  0  0
  3  5  1  0  0  0
  5  6  1  0  0  0
  6  7  1  0  0  0
  6 17  1  0  0  0
 28 30  1  0  0  0
  1  8  1  0  0  0
 32 33  1  0  0  0
 32 34  1  0  0  0
  4  9  1  0  0  0
 19 20  1  0  0  0
 19 21  1  0  0  0
M  END
> <minimizedAffinity>
-9.07282

$$$$
3COY_53H_A_301


 38 40  0  0  0  0  0  0  0  0999 V2000
   18.8848   12.8247    0.5783 O   0  0  0  0  0  0  0  0  0  0  0  0
   17.2982   10.8899    3.2536 C   0  0  0  0  0  0  0  0  0  0  0  0
   18.0769   12.1251    2.8211 C   0  0  0  0  0  0  0  0  0  0  0  0
   19.4596   11.9079    3.0354 O   0  0  0  0  0  0  0  0  0  0  0  0
   17.8156   12.2215    1.3270 C   0  0  0  0  0  0  0  0  0  0  0  0
   17.5878   10.7552    0.9629 C   0  0  0  0  0  0  0  0  0  0  0  0
   16.8522   10.2303    2.0541 O   0  0  0  0  0  0  0  0  0  0  0  0
   18.9858   13.7510    0.8479 H   0  0  0  0  0  0  0  0  0  0  0  0
   19.7398   11.1119    2.5571 H   0  0  0  0  0  0  0  0  0  0  0  0
   13.2685   10.2796    0.2365 C   0  0  0  0  0  0  0  0  0  0  0  0
   15.5094   10.5187   -0.3797 C   0  0  0  0  0  0  0  0  0  0  0  0
   15.1825   10.4478   -1.7353 C   0  0  0  0  0  0  0  0  0  0  0  0
   13.8511   10.2847   -2.0709 C   0  0  0  0  0  0  0  0  0  0  0  0
   12.9301   10.2066   -1.0618 N   0  0  0  0  0  0  0  0  0  0  0  0
   17.3460   10.6833   -1.5659 C   0  0  0  0  0  0  0  0  0  0  0  0
   14.5477   10.4321    0.5935 N   0  0  0  0  0  0  0  0  0  0  0  0
   16.8355   10.6529   -0.3116 N   0  0  0  0  0  0  0  0  0  0  0  0
   16.3251   10.5595   -2.4593 N   0  0  0  0  0  0  0  0  0  0  0  0
   13.4833   10.1840   -3.3777 N   0  0  0  0  0  0  0  0  0  0  0  0
   14.1639   10.2433   -4.0866 H   0  0  0  0  0  0  0  0  0  0  0  0
   12.5367   10.0521   -3.6138 H   0  0  0  0  0  0  0  0  0  0  0  0
   16.0714   11.2724    4.0513 C   0  0  0  0  0  0  0  0  0  0  0  0
   15.2792   10.0838    4.1845 O   0  0  0  0  0  0  0  0  0  0  0  0
   15.2632    9.3216    5.6278 S   0  0  0  0  0  0  0  0  0  0  0  0
   14.1879    8.3883    5.5051 O   0  0  0  0  0  0  0  0  0  0  0  0
   16.5537    8.6902    5.7439 O   0  0  0  0  0  0  0  0  0  0  0  0
   15.2401    9.9826    8.1343 C   0  0  0  0  0  0  0  0  0  0  0  0
   14.9959   10.2590    6.8239 N   0  0  0  0  0  0  0  0  0  0  0  0
   15.7224    8.9197    8.5257 O   0  0  0  0  0  0  0  0  0  0  0  0
   14.6117   11.1422    6.6197 H   0  0  0  0  0  0  0  0  0  0  0  0
   14.9636   11.0828    9.1382 C   0  0  0  0  0  0  0  0  0  0  0  0
   16.0655   11.1895   10.1993 N   0  0  0  0  0  0  0  0  0  0  0  0
   16.0597   10.3516   10.7810 H   0  0  0  0  0  0  0  0  0  0  0  0
   15.8978   12.0094   10.7825 H   0  0  0  0  0  0  0  0  0  0  0  0
   13.5810   11.0722    9.8137 C   0  0  0  0  0  0  0  0  0  0  0  0
   13.6456   11.5915   11.2261 C   0  0  0  0  0  0  0  0  0  0  0  0
   12.6551   11.9973    9.0429 C   0  0  0  0  0  0  0  0  0  0  0  0
   12.9195    9.6918    9.8299 C   0  0  0  0  0  0  0  0  0  0  0  0
 27 31  1  0  0  0
 27 28  1  0  0  0
 27 29  2  0  0  0
 10 14  2  0  0  0
 10 16  1  0  0  0
 31 35  1  0  0  0
 31 32  1  0  0  0
 11 12  1  0  0  0
 11 16  2  0  0  0
 11 17  1  0  0  0
 12 13  2  0  0  0
 12 18  1  0  0  0
 13 14  1  0  0  0
 13 19  1  0  0  0
 35 36  1  0  0  0
 35 37  1  0  0  0
 35 38  1  0  0  0
 28 24  1  0  0  0
 15 17  1  0  0  0
 15 18  2  0  0  0
  1  5  1  0  0  0
 24 25  2  0  0  0
 24 26  2  0  0  0
 24 23  1  0  0  0
 23 22  1  0  0  0
 22  2  1  0  0  0
  2  3  1  0  0  0
  2  7  1  0  0  0
  3  4  1  0  0  0
  3  5  1  0  0  0
  5  6  1  0  0  0
  6  7  1  0  0  0
  6 17  1  0  0  0
 28 30  1  0  0  0
  1  8  1  0  0  0
 32 33  1  0  0  0
 32 34  1  0  0  0
  4  9  1  0  0  0
 19 20  1  0  0  0
 19 21  1  0  0  0
M  END
> <minimizedAffinity>
-9.00182

$$$$
3COY_53H_A_301


 38 40  0  0  0  0  0  0  0  0999 V2000
   15.0287   11.9473    2.7120 O   0  0  0  0  0  0  0  0  0  0  0  0
   18.3693   10.6756    1.9109 C   0  0  0  0  0  0  0  0  0  0  0  0
   17.3900   11.2113    2.9469 C   0  0  0  0  0  0  0  0  0  0  0  0
   17.6009   12.6009    3.1186 O   0  0  0  0  0  0  0  0  0  0  0  0
   16.0260   10.9911    2.3137 C   0  0  0  0  0  0  0  0  0  0  0  0
   16.3650   11.0697    0.8260 C   0  0  0  0  0  0  0  0  0  0  0  0
   17.6150   10.4124    0.7132 O   0  0  0  0  0  0  0  0  0  0  0  0
   14.8523   11.8541    3.6613 H   0  0  0  0  0  0  0  0  0  0  0  0
   17.5115   13.0496    2.2632 H   0  0  0  0  0  0  0  0  0  0  0  0
   15.7299   10.9882   -3.5328 C   0  0  0  0  0  0  0  0  0  0  0  0
   15.2506   10.4556   -1.3091 C   0  0  0  0  0  0  0  0  0  0  0  0
   14.1286    9.7165   -1.6895 C   0  0  0  0  0  0  0  0  0  0  0  0
   13.8327    9.6395   -3.0378 C   0  0  0  0  0  0  0  0  0  0  0  0
   14.6537   10.2844   -3.9226 N   0  0  0  0  0  0  0  0  0  0  0  0
   14.2876    9.6457    0.4865 C   0  0  0  0  0  0  0  0  0  0  0  0
   16.0397   11.0859   -2.2361 N   0  0  0  0  0  0  0  0  0  0  0  0
   15.3131   10.3995    0.0229 N   0  0  0  0  0  0  0  0  0  0  0  0
   13.5463    9.2134   -0.5714 N   0  0  0  0  0  0  0  0  0  0  0  0
   12.7351    8.9527   -3.4583 N   0  0  0  0  0  0  0  0  0  0  0  0
   12.1591    8.4965   -2.8031 H   0  0  0  0  0  0  0  0  0  0  0  0
   12.5174    8.9123   -4.4176 H   0  0  0  0  0  0  0  0  0  0  0  0
   18.9810    9.3692    2.3656 C   0  0  0  0  0  0  0  0  0  0  0  0
   19.3556    9.5454    3.7392 O   0  0  0  0  0  0  0  0  0  0  0  0
   19.1264    8.3008    4.7701 S   0  0  0  0  0  0  0  0  0  0  0  0
   18.5481    7.2841    3.9491 O   0  0  0  0  0  0  0  0  0  0  0  0
   20.4387    7.9592    5.2587 O   0  0  0  0  0  0  0  0  0  0  0  0
   16.8210    8.7936    5.8483 C   0  0  0  0  0  0  0  0  0  0  0  0
   18.1691    8.6262    5.9358 N   0  0  0  0  0  0  0  0  0  0  0  0
   16.1915    8.6965    4.7947 O   0  0  0  0  0  0  0  0  0  0  0  0
   18.5722    8.7219    6.8289 H   0  0  0  0  0  0  0  0  0  0  0  0
   16.0676    9.0400    7.1392 C   0  0  0  0  0  0  0  0  0  0  0  0
   16.0325    7.7967    8.0361 N   0  0  0  0  0  0  0  0  0  0  0  0
   15.4738    7.0702    7.5883 H   0  0  0  0  0  0  0  0  0  0  0  0
   15.6177    8.0383    8.9361 H   0  0  0  0  0  0  0  0  0  0  0  0
   14.6558    9.6390    7.0134 C   0  0  0  0  0  0  0  0  0  0  0  0
   13.6374    8.5943    6.6388 C   0  0  0  0  0  0  0  0  0  0  0  0
   14.2417   10.1981    8.3636 C   0  0  0  0  0  0  0  0  0  0  0  0
   14.5678   10.7902    6.0082 C   0  0  0  0  0  0  0  0  0  0  0  0
 27 31  1  0  0  0
 27 28  1  0  0  0
 27 29  2  0  0  0
 10 14  2  0  0  0
 10 16  1  0  0  0
 31 35  1  0  0  0
 31 32  1  0  0  0
 11 12  1  0  0  0
 11 16  2  0  0  0
 11 17  1  0  0  0
 12 13  2  0  0  0
 12 18  1  0  0  0
 13 14  1  0  0  0
 13 19  1  0  0  0
 35 36  1  0  0  0
 35 37  1  0  0  0
 35 38  1  0  0  0
 28 24  1  0  0  0
 15 17  1  0  0  0
 15 18  2  0  0  0
  1  5  1  0  0  0
 24 25  2  0  0  0
 24 26  2  0  0  0
 24 23  1  0  0  0
 23 22  1  0  0  0
 22  2  1  0  0  0
  2  3  1  0  0  0
  2  7  1  0  0  0
  3  4  1  0  0  0
  3  5  1  0  0  0
  5  6  1  0  0  0
  6  7  1  0  0  0
  6 17  1  0  0  0
 28 30  1  0  0  0
  1  8  1  0  0  0
 32 33  1  0  0  0
 32 34  1  0  0  0
  4  9  1  0  0  0
 19 20  1  0  0  0
 19 21  1  0  0  0
M  END
> <minimizedAffinity>
-8.86147

$$$$
3COY_53H_A_301


 38 40  0  0  0  0  0  0  0  0999 V2000
   18.4945   13.2881    1.1341 O   0  0  0  0  0  0  0  0  0  0  0  0
   19.8355    9.9426    1.7881 C   0  0  0  0  0  0  0  0  0  0  0  0
   20.0675   11.4437    1.6787 C   0  0  0  0  0  0  0  0  0  0  0  0
   20.5648   11.7497    0.3887 O   0  0  0  0  0  0  0  0  0  0  0  0
   18.6793   12.0436    1.8302 C   0  0  0  0  0  0  0  0  0  0  0  0
   17.8009   10.9196    1.2830 C   0  0  0  0  0  0  0  0  0  0  0  0
   18.4117    9.7318    1.7555 O   0  0  0  0  0  0  0  0  0  0  0  0
   19.0735   13.9637    1.5204 H   0  0  0  0  0  0  0  0  0  0  0  0
   19.9443   11.4248   -0.2824 H   0  0  0  0  0  0  0  0  0  0  0  0
   14.0522    9.1195   -0.1719 C   0  0  0  0  0  0  0  0  0  0  0  0
   15.3620   10.4424    1.2398 C   0  0  0  0  0  0  0  0  0  0  0  0
   14.2407   10.8336    1.9742 C   0  0  0  0  0  0  0  0  0  0  0  0
   13.0102   10.3340    1.5896 C   0  0  0  0  0  0  0  0  0  0  0  0
   12.9586    9.4838    0.5185 N   0  0  0  0  0  0  0  0  0  0  0  0
   15.9938   11.8124    2.8308 C   0  0  0  0  0  0  0  0  0  0  0  0
   15.2556    9.5893    0.1719 N   0  0  0  0  0  0  0  0  0  0  0  0
   16.4114   11.0635    1.7822 N   0  0  0  0  0  0  0  0  0  0  0  0
   14.6449   11.6737    2.9606 N   0  0  0  0  0  0  0  0  0  0  0  0
   11.8832   10.7052    2.2568 N   0  0  0  0  0  0  0  0  0  0  0  0
   11.9452   11.3181    3.0247 H   0  0  0  0  0  0  0  0  0  0  0  0
   11.0062   10.3607    1.9715 H   0  0  0  0  0  0  0  0  0  0  0  0
   20.3495    9.4078    3.1063 C   0  0  0  0  0  0  0  0  0  0  0  0
   19.2319    9.3846    4.0055 O   0  0  0  0  0  0  0  0  0  0  0  0
   18.9245    8.0057    4.8232 S   0  0  0  0  0  0  0  0  0  0  0  0
   18.4030    7.1287    3.8228 O   0  0  0  0  0  0  0  0  0  0  0  0
   20.1971    7.5776    5.3476 O   0  0  0  0  0  0  0  0  0  0  0  0
   16.9128    9.1188    6.0210 C   0  0  0  0  0  0  0  0  0  0  0  0
   17.8871    8.1703    5.9535 N   0  0  0  0  0  0  0  0  0  0  0  0
   16.7407    9.9781    5.1564 O   0  0  0  0  0  0  0  0  0  0  0  0
   17.9344    7.5275    6.6977 H   0  0  0  0  0  0  0  0  0  0  0  0
   15.9571    9.0488    7.1941 C   0  0  0  0  0  0  0  0  0  0  0  0
   16.1281    7.7585    8.0049 N   0  0  0  0  0  0  0  0  0  0  0  0
   15.8423    6.9603    7.4379 H   0  0  0  0  0  0  0  0  0  0  0  0
   15.5492    7.8046    8.8434 H   0  0  0  0  0  0  0  0  0  0  0  0
   14.4676    9.2856    6.8887 C   0  0  0  0  0  0  0  0  0  0  0  0
   14.0484   10.6956    7.2131 C   0  0  0  0  0  0  0  0  0  0  0  0
   14.2376    9.0857    5.4007 C   0  0  0  0  0  0  0  0  0  0  0  0
   13.5328    8.3174    7.6182 C   0  0  0  0  0  0  0  0  0  0  0  0
 27 31  1  0  0  0
 27 28  1  0  0  0
 27 29  2  0  0  0
 10 14  2  0  0  0
 10 16  1  0  0  0
 31 35  1  0  0  0
 31 32  1  0  0  0
 11 12  1  0  0  0
 11 16  2  0  0  0
 11 17  1  0  0  0
 12 13  2  0  0  0
 12 18  1  0  0  0
 13 14  1  0  0  0
 13 19  1  0  0  0
 35 36  1  0  0  0
 35 37  1  0  0  0
 35 38  1  0  0  0
 28 24  1  0  0  0
 15 17  1  0  0  0
 15 18  2  0  0  0
  1  5  1  0  0  0
 24 25  2  0  0  0
 24 26  2  0  0  0
 24 23  1  0  0  0
 23 22  1  0  0  0
 22  2  1  0  0  0
  2  3  1  0  0  0
  2  7  1  0  0  0
  3  4  1  0  0  0
  3  5  1  0  0  0
  5  6  1  0  0  0
  6  7  1  0  0  0
  6 17  1  0  0  0
 28 30  1  0  0  0
  1  8  1  0  0  0
 32 33  1  0  0  0
 32 34  1  0  0  0
  4  9  1  0  0  0
 19 20  1  0  0  0
 19 21  1  0  0  0
M  END
> <minimizedAffinity>
-8.72575

$$$$
