4L4V_1VY_A_301


 29 30  0  0  0  0  0  0  0  0999 V2000
  -88.7608   68.3395   95.7511 O   0  0  0  0  0  0  0  0  0  0  0  0
  -89.9019   67.8990   95.1411 C   0  0  0  0  0  0  0  0  0  0  0  0
  -90.5820   68.8262   94.3556 C   0  0  0  0  0  0  0  0  0  0  0  0
  -90.1056   70.1563   94.2595 C   0  0  0  0  0  0  0  0  0  0  0  0
  -91.6885   68.4334   93.6899 N   0  0  0  0  0  0  0  0  0  0  0  0
  -92.1296   67.1527   93.7717 C   0  0  0  0  0  0  0  0  0  0  0  0
  -93.3343   66.7639   93.1628 C   0  0  0  0  0  0  0  0  0  0  0  0
  -94.0464   67.5954   92.5892 O   0  0  0  0  0  0  0  0  0  0  0  0
  -93.8131   65.5097   93.3558 N   0  0  0  0  0  0  0  0  0  0  0  0
  -93.0914   64.6056   94.0752 C   0  0  0  0  0  0  0  0  0  0  0  0
  -93.4488   63.4294   94.1818 O   0  0  0  0  0  0  0  0  0  0  0  0
  -91.9367   64.9773   94.6748 N   0  0  0  0  0  0  0  0  0  0  0  0
  -91.4355   66.2259   94.5601 C   0  0  0  0  0  0  0  0  0  0  0  0
  -90.3094   66.6140   95.2305 N   0  0  0  0  0  0  0  0  0  0  0  0
  -88.5033   69.2369   95.6713 H   0  0  0  0  0  0  0  0  0  0  0  0
  -94.6838   65.2522   92.9753 H   0  0  0  0  0  0  0  0  0  0  0  0
  -89.6301   65.7331   96.2113 C   0  0  0  0  0  0  0  0  0  0  0  0
  -88.3661   65.0026   95.8007 C   0  0  0  0  0  0  0  0  0  0  0  0
  -87.7261   65.6651   94.6823 O   0  0  0  0  0  0  0  0  0  0  0  0
  -88.3258   65.6645   93.9199 H   0  0  0  0  0  0  0  0  0  0  0  0
  -88.6730   63.5298   95.5156 C   0  0  0  0  0  0  0  0  0  0  0  0
  -90.0192   63.1643   95.9644 O   0  0  0  0  0  0  0  0  0  0  0  0
  -90.0804   63.2745   96.9262 H   0  0  0  0  0  0  0  0  0  0  0  0
  -87.5752   62.6024   96.0921 C   0  0  0  0  0  0  0  0  0  0  0  0
  -86.5695   63.4584   96.5566 O   0  0  0  0  0  0  0  0  0  0  0  0
  -86.2376   63.9965   95.8209 H   0  0  0  0  0  0  0  0  0  0  0  0
  -86.9150   61.7524   95.0187 C   0  0  0  0  0  0  0  0  0  0  0  0
  -86.1104   62.4773   94.0624 O   0  0  0  0  0  0  0  0  0  0  0  0
  -86.6737   63.0905   93.5647 H   0  0  0  0  0  0  0  0  0  0  0  0
  8  7  2  0  0  0
  7  9  1  0  0  0
  7  6  1  0  0  0
  5  6  2  0  0  0
  5  3  1  0  0  0
  9 10  1  0  0  0
  6 13  1  0  0  0
  4  3  1  0  0  0
  3  2  2  0  0  0
 25 24  1  0  0  0
 10 11  2  0  0  0
 10 12  1  0  0  0
 13 12  2  0  0  0
 13 14  1  0  0  0
 19 18  1  0  0  0
  2 14  1  0  0  0
  2  1  1  0  0  0
 21 24  1  0  0  0
 21 22  1  0  0  0
 21 18  1  0  0  0
 24 27  1  0  0  0
 14 17  1  0  0  0
 18 17  1  0  0  0
 27 28  1  0  0  0
  1 15  1  0  0  0
  9 16  1  0  0  0
 19 20  1  0  0  0
 22 23  1  0  0  0
 25 26  1  0  0  0
 28 29  1  0  0  0
M  END
> <minimizedAffinity>
-10.51730

$$$$
4L4V_1VY_A_301


 29 30  0  0  0  0  0  0  0  0999 V2000
  -91.3605   63.0346   95.8461 O   0  0  0  0  0  0  0  0  0  0  0  0
  -91.1921   64.3347   95.4594 C   0  0  0  0  0  0  0  0  0  0  0  0
  -92.1494   64.8516   94.5901 C   0  0  0  0  0  0  0  0  0  0  0  0
  -93.1987   64.0243   94.1211 C   0  0  0  0  0  0  0  0  0  0  0  0
  -92.0611   66.1446   94.2134 N   0  0  0  0  0  0  0  0  0  0  0  0
  -91.0635   66.9370   94.6807 C   0  0  0  0  0  0  0  0  0  0  0  0
  -90.9089   68.2533   94.2148 C   0  0  0  0  0  0  0  0  0  0  0  0
  -91.6442   68.6965   93.3259 O   0  0  0  0  0  0  0  0  0  0  0  0
  -89.8375   68.9860   94.6080 N   0  0  0  0  0  0  0  0  0  0  0  0
  -88.9542   68.4754   95.5107 C   0  0  0  0  0  0  0  0  0  0  0  0
  -88.0290   69.1531   95.9661 O   0  0  0  0  0  0  0  0  0  0  0  0
  -89.0903   67.2040   95.9536 N   0  0  0  0  0  0  0  0  0  0  0  0
  -90.1084   66.4095   95.5591 C   0  0  0  0  0  0  0  0  0  0  0  0
  -90.1958   65.1032   95.9518 N   0  0  0  0  0  0  0  0  0  0  0  0
  -92.0609   62.5261   95.4872 H   0  0  0  0  0  0  0  0  0  0  0  0
  -89.6978   69.8885   94.2405 H   0  0  0  0  0  0  0  0  0  0  0  0
  -89.1274   64.4409   96.7387 C   0  0  0  0  0  0  0  0  0  0  0  0
  -87.7482   64.2813   96.1288 C   0  0  0  0  0  0  0  0  0  0  0  0
  -87.7308   64.7525   94.7588 O   0  0  0  0  0  0  0  0  0  0  0  0
  -88.3488   64.2259   94.2279 H   0  0  0  0  0  0  0  0  0  0  0  0
  -87.2749   62.8308   96.2588 C   0  0  0  0  0  0  0  0  0  0  0  0
  -85.9895   62.7452   96.9571 O   0  0  0  0  0  0  0  0  0  0  0  0
  -85.3104   63.2086   96.4423 H   0  0  0  0  0  0  0  0  0  0  0  0
  -87.2612   62.1161   94.8853 C   0  0  0  0  0  0  0  0  0  0  0  0
  -88.5715   61.6650   94.6862 O   0  0  0  0  0  0  0  0  0  0  0  0
  -88.8184   61.0616   95.4045 H   0  0  0  0  0  0  0  0  0  0  0  0
  -86.4019   60.8623   94.8951 C   0  0  0  0  0  0  0  0  0  0  0  0
  -86.3225   60.1757   96.1639 O   0  0  0  0  0  0  0  0  0  0  0  0
  -85.9028   60.7548   96.8192 H   0  0  0  0  0  0  0  0  0  0  0  0
  8  7  2  0  0  0
  7  9  1  0  0  0
  7  6  1  0  0  0
  5  6  2  0  0  0
  5  3  1  0  0  0
  9 10  1  0  0  0
  6 13  1  0  0  0
  4  3  1  0  0  0
  3  2  2  0  0  0
 25 24  1  0  0  0
 10 11  2  0  0  0
 10 12  1  0  0  0
 13 12  2  0  0  0
 13 14  1  0  0  0
 19 18  1  0  0  0
  2 14  1  0  0  0
  2  1  1  0  0  0
 21 24  1  0  0  0
 21 22  1  0  0  0
 21 18  1  0  0  0
 24 27  1  0  0  0
 14 17  1  0  0  0
 18 17  1  0  0  0
 27 28  1  0  0  0
  1 15  1  0  0  0
  9 16  1  0  0  0
 19 20  1  0  0  0
 22 23  1  0  0  0
 25 26  1  0  0  0
 28 29  1  0  0  0
M  END
> <minimizedAffinity>
-9.75094

$$$$
4L4V_1VY_A_301


 29 30  0  0  0  0  0  0  0  0999 V2000
  -92.4021   64.4802   94.1293 O   0  0  0  0  0  0  0  0  0  0  0  0
  -91.7549   65.6811   94.2132 C   0  0  0  0  0  0  0  0  0  0  0  0
  -92.4755   66.8027   93.8106 C   0  0  0  0  0  0  0  0  0  0  0  0
  -93.7897   66.6546   93.3045 C   0  0  0  0  0  0  0  0  0  0  0  0
  -91.9040   68.0208   93.9178 N   0  0  0  0  0  0  0  0  0  0  0  0
  -90.6511   68.1577   94.4205 C   0  0  0  0  0  0  0  0  0  0  0  0
  -90.0144   69.4098   94.4411 C   0  0  0  0  0  0  0  0  0  0  0  0
  -90.5615   70.4020   93.9476 O   0  0  0  0  0  0  0  0  0  0  0  0
  -88.7213   69.5019   94.8395 N   0  0  0  0  0  0  0  0  0  0  0  0
  -88.0643   68.3969   95.2902 C   0  0  0  0  0  0  0  0  0  0  0  0
  -86.9237   68.4665   95.7558 O   0  0  0  0  0  0  0  0  0  0  0  0
  -88.6675   67.1860   95.2610 N   0  0  0  0  0  0  0  0  0  0  0  0
  -89.9363   67.0241   94.8280 C   0  0  0  0  0  0  0  0  0  0  0  0
  -90.5113   65.7879   94.7304 N   0  0  0  0  0  0  0  0  0  0  0  0
  -93.2646   64.4371   93.7657 H   0  0  0  0  0  0  0  0  0  0  0  0
  -88.2565   70.3690   94.8030 H   0  0  0  0  0  0  0  0  0  0  0  0
  -89.7507   64.5399   94.9823 C   0  0  0  0  0  0  0  0  0  0  0  0
  -89.4549   64.1279   96.4115 C   0  0  0  0  0  0  0  0  0  0  0  0
  -90.0094   65.0821   97.3502 O   0  0  0  0  0  0  0  0  0  0  0  0
  -89.6035   65.9512   97.2057 H   0  0  0  0  0  0  0  0  0  0  0  0
  -87.9500   63.9196   96.6032 C   0  0  0  0  0  0  0  0  0  0  0  0
  -87.1698   64.8673   95.8031 O   0  0  0  0  0  0  0  0  0  0  0  0
  -87.3479   64.7187   94.8612 H   0  0  0  0  0  0  0  0  0  0  0  0
  -87.5473   62.4459   96.3507 C   0  0  0  0  0  0  0  0  0  0  0  0
  -86.2496   62.3209   96.8611 O   0  0  0  0  0  0  0  0  0  0  0  0
  -85.6605   62.9397   96.4018 H   0  0  0  0  0  0  0  0  0  0  0  0
  -87.4290   62.1251   94.8696 C   0  0  0  0  0  0  0  0  0  0  0  0
  -86.3615   62.8044   94.1721 O   0  0  0  0  0  0  0  0  0  0  0  0
  -86.5182   63.7614   94.1946 H   0  0  0  0  0  0  0  0  0  0  0  0
  8  7  2  0  0  0
  7  9  1  0  0  0
  7  6  1  0  0  0
  5  6  2  0  0  0
  5  3  1  0  0  0
  9 10  1  0  0  0
  6 13  1  0  0  0
  4  3  1  0  0  0
  3  2  2  0  0  0
 25 24  1  0  0  0
 10 11  2  0  0  0
 10 12  1  0  0  0
 13 12  2  0  0  0
 13 14  1  0  0  0
 19 18  1  0  0  0
  2 14  1  0  0  0
  2  1  1  0  0  0
 21 24  1  0  0  0
 21 22  1  0  0  0
 21 18  1  0  0  0
 24 27  1  0  0  0
 14 17  1  0  0  0
 18 17  1  0  0  0
 27 28  1  0  0  0
  1 15  1  0  0  0
  9 16  1  0  0  0
 19 20  1  0  0  0
 22 23  1  0  0  0
 25 26  1  0  0  0
 28 29  1  0  0  0
M  END
> <minimizedAffinity>
-9.50159

$$$$
4L4V_1VY_A_301


 29 30  0  0  0  0  0  0  0  0999 V2000
  -90.4915   63.2088   95.1838 O   0  0  0  0  0  0  0  0  0  0  0  0
  -90.1800   64.5374   95.1058 C   0  0  0  0  0  0  0  0  0  0  0  0
  -91.2471   65.4148   94.9302 C   0  0  0  0  0  0  0  0  0  0  0  0
  -92.5634   64.9097   94.7983 C   0  0  0  0  0  0  0  0  0  0  0  0
  -91.0041   66.7420   94.8955 N   0  0  0  0  0  0  0  0  0  0  0  0
  -89.7426   67.2206   95.0407 C   0  0  0  0  0  0  0  0  0  0  0  0
  -89.4709   68.5922   94.9054 C   0  0  0  0  0  0  0  0  0  0  0  0
  -90.3676   69.3834   94.5933 O   0  0  0  0  0  0  0  0  0  0  0  0
  -88.1883   69.0317   94.9386 N   0  0  0  0  0  0  0  0  0  0  0  0
  -87.1718   68.1570   95.1780 C   0  0  0  0  0  0  0  0  0  0  0  0
  -86.0071   68.5400   95.3170 O   0  0  0  0  0  0  0  0  0  0  0  0
  -87.4254   66.8331   95.2965 N   0  0  0  0  0  0  0  0  0  0  0  0
  -88.6765   66.3304   95.2223 C   0  0  0  0  0  0  0  0  0  0  0  0
  -88.9155   64.9854   95.2669 N   0  0  0  0  0  0  0  0  0  0  0  0
  -91.3778   62.9278   95.0676 H   0  0  0  0  0  0  0  0  0  0  0  0
  -87.9916   69.9848   94.7895 H   0  0  0  0  0  0  0  0  0  0  0  0
  -87.8186   63.9874   95.2849 C   0  0  0  0  0  0  0  0  0  0  0  0
  -88.1603   62.5113   95.3488 C   0  0  0  0  0  0  0  0  0  0  0  0
  -88.2191   62.0531   96.7221 O   0  0  0  0  0  0  0  0  0  0  0  0
  -87.3517   62.1716   97.1399 H   0  0  0  0  0  0  0  0  0  0  0  0
  -87.1767   61.7015   94.4993 C   0  0  0  0  0  0  0  0  0  0  0  0
  -87.7770   61.2895   93.2277 O   0  0  0  0  0  0  0  0  0  0  0  0
  -88.5325   60.7062   93.4008 H   0  0  0  0  0  0  0  0  0  0  0  0
  -86.5862   60.5135   95.2978 C   0  0  0  0  0  0  0  0  0  0  0  0
  -85.7524   61.0902   96.2633 O   0  0  0  0  0  0  0  0  0  0  0  0
  -85.0605   61.6094   95.8244 H   0  0  0  0  0  0  0  0  0  0  0  0
  -85.6747   59.6428   94.4483 C   0  0  0  0  0  0  0  0  0  0  0  0
  -85.1441   58.4725   95.1088 O   0  0  0  0  0  0  0  0  0  0  0  0
  -84.5837   58.7466   95.8515 H   0  0  0  0  0  0  0  0  0  0  0  0
  8  7  2  0  0  0
  7  9  1  0  0  0
  7  6  1  0  0  0
  5  6  2  0  0  0
  5  3  1  0  0  0
  9 10  1  0  0  0
  6 13  1  0  0  0
  4  3  1  0  0  0
  3  2  2  0  0  0
 25 24  1  0  0  0
 10 11  2  0  0  0
 10 12  1  0  0  0
 13 12  2  0  0  0
 13 14  1  0  0  0
 19 18  1  0  0  0
  2 14  1  0  0  0
  2  1  1  0  0  0
 21 24  1  0  0  0
 21 22  1  0  0  0
 21 18  1  0  0  0
 24 27  1  0  0  0
 14 17  1  0  0  0
 18 17  1  0  0  0
 27 28  1  0  0  0
  1 15  1  0  0  0
  9 16  1  0  0  0
 19 20  1  0  0  0
 22 23  1  0  0  0
 25 26  1  0  0  0
 28 29  1  0  0  0
M  END
> <minimizedAffinity>
-8.87133

$$$$
4L4V_1VY_A_301


 29 30  0  0  0  0  0  0  0  0999 V2000
  -87.5708   65.7824   95.5293 O   0  0  0  0  0  0  0  0  0  0  0  0
  -88.8409   65.2872   95.4305 C   0  0  0  0  0  0  0  0  0  0  0  0
  -89.0762   64.0584   96.0419 C   0  0  0  0  0  0  0  0  0  0  0  0
  -88.0153   63.3721   96.6813 C   0  0  0  0  0  0  0  0  0  0  0  0
  -90.3239   63.5441   96.0185 N   0  0  0  0  0  0  0  0  0  0  0  0
  -91.3400   64.2153   95.4200 C   0  0  0  0  0  0  0  0  0  0  0  0
  -92.6165   63.6399   95.3052 C   0  0  0  0  0  0  0  0  0  0  0  0
  -92.8238   62.4859   95.6960 O   0  0  0  0  0  0  0  0  0  0  0  0
  -93.5833   64.2796   94.6014 N   0  0  0  0  0  0  0  0  0  0  0  0
  -93.3418   65.5109   94.0711 C   0  0  0  0  0  0  0  0  0  0  0  0
  -94.2303   66.1625   93.5156 O   0  0  0  0  0  0  0  0  0  0  0  0
  -92.1110   66.0650   94.1671 N   0  0  0  0  0  0  0  0  0  0  0  0
  -91.0946   65.4533   94.8123 C   0  0  0  0  0  0  0  0  0  0  0  0
  -89.8356   65.9847   94.8391 N   0  0  0  0  0  0  0  0  0  0  0  0
  -86.9013   65.2755   95.9451 H   0  0  0  0  0  0  0  0  0  0  0  0
  -94.4615   63.8532   94.4735 H   0  0  0  0  0  0  0  0  0  0  0  0
  -89.4743   67.2013   94.0719 C   0  0  0  0  0  0  0  0  0  0  0  0
  -89.3435   68.5252   94.7999 C   0  0  0  0  0  0  0  0  0  0  0  0
  -89.1718   68.3177   96.2236 O   0  0  0  0  0  0  0  0  0  0  0  0
  -89.9507   67.8627   96.5803 H   0  0  0  0  0  0  0  0  0  0  0  0
  -90.5363   69.4291   94.4761 C   0  0  0  0  0  0  0  0  0  0  0  0
  -91.4358   68.8044   93.5026 O   0  0  0  0  0  0  0  0  0  0  0  0
  -90.9628   68.6672   92.6670 H   0  0  0  0  0  0  0  0  0  0  0  0
  -90.0731   70.8425   94.0455 C   0  0  0  0  0  0  0  0  0  0  0  0
  -88.7156   70.9089   94.3812 O   0  0  0  0  0  0  0  0  0  0  0  0
  -88.6115   70.7703   95.3356 H   0  0  0  0  0  0  0  0  0  0  0  0
  -90.7416   71.9412   94.8558 C   0  0  0  0  0  0  0  0  0  0  0  0
  -92.0614   72.3241   94.4098 O   0  0  0  0  0  0  0  0  0  0  0  0
  -92.0059   72.6919   93.5140 H   0  0  0  0  0  0  0  0  0  0  0  0
  8  7  2  0  0  0
  7  9  1  0  0  0
  7  6  1  0  0  0
  5  6  2  0  0  0
  5  3  1  0  0  0
  9 10  1  0  0  0
  6 13  1  0  0  0
  4  3  1  0  0  0
  3  2  2  0  0  0
 25 24  1  0  0  0
 10 11  2  0  0  0
 10 12  1  0  0  0
 13 12  2  0  0  0
 13 14  1  0  0  0
 19 18  1  0  0  0
  2 14  1  0  0  0
  2  1  1  0  0  0
 21 24  1  0  0  0
 21 22  1  0  0  0
 21 18  1  0  0  0
 24 27  1  0  0  0
 14 17  1  0  0  0
 18 17  1  0  0  0
 27 28  1  0  0  0
  1 15  1  0  0  0
  9 16  1  0  0  0
 19 20  1  0  0  0
 22 23  1  0  0  0
 25 26  1  0  0  0
 28 29  1  0  0  0
M  END
> <minimizedAffinity>
-8.69670

$$$$
4L4V_1VY_A_301


 29 30  0  0  0  0  0  0  0  0999 V2000
  -87.2654   65.9089   95.7871 O   0  0  0  0  0  0  0  0  0  0  0  0
  -88.5519   66.0502   95.3476 C   0  0  0  0  0  0  0  0  0  0  0  0
  -88.9395   67.3326   94.9676 C   0  0  0  0  0  0  0  0  0  0  0  0
  -88.0306   68.4115   95.0902 C   0  0  0  0  0  0  0  0  0  0  0  0
  -90.1834   67.5225   94.4793 N   0  0  0  0  0  0  0  0  0  0  0  0
  -91.0436   66.4813   94.3473 C   0  0  0  0  0  0  0  0  0  0  0  0
  -92.3703   66.6888   93.9346 C   0  0  0  0  0  0  0  0  0  0  0  0
  -92.7969   67.8322   93.7397 O   0  0  0  0  0  0  0  0  0  0  0  0
  -93.2426   65.6504   93.9224 N   0  0  0  0  0  0  0  0  0  0  0  0
  -92.8160   64.3954   94.2364 C   0  0  0  0  0  0  0  0  0  0  0  0
  -93.5581   63.4148   94.1348 O   0  0  0  0  0  0  0  0  0  0  0  0
  -91.5429   64.1908   94.6468 N   0  0  0  0  0  0  0  0  0  0  0  0
  -90.6426   65.1940   94.7271 C   0  0  0  0  0  0  0  0  0  0  0  0
  -89.3817   64.9922   95.2147 N   0  0  0  0  0  0  0  0  0  0  0  0
  -86.7131   66.6613   95.8692 H   0  0  0  0  0  0  0  0  0  0  0  0
  -94.1859   65.8040   93.6862 H   0  0  0  0  0  0  0  0  0  0  0  0
  -88.9551   63.6940   95.7910 C   0  0  0  0  0  0  0  0  0  0  0  0
  -87.5614   63.1741   95.4958 C   0  0  0  0  0  0  0  0  0  0  0  0
  -87.1150   63.6057   94.1866 O   0  0  0  0  0  0  0  0  0  0  0  0
  -87.7103   63.2499   93.5085 H   0  0  0  0  0  0  0  0  0  0  0  0
  -87.5164   61.6525   95.6614 C   0  0  0  0  0  0  0  0  0  0  0  0
  -86.6751   61.2596   96.7949 O   0  0  0  0  0  0  0  0  0  0  0  0
  -85.7618   61.5436   96.6334 H   0  0  0  0  0  0  0  0  0  0  0  0
  -87.1106   60.9526   94.3410 C   0  0  0  0  0  0  0  0  0  0  0  0
  -88.2227   60.1892   93.9661 O   0  0  0  0  0  0  0  0  0  0  0  0
  -88.4263   59.5492   94.6660 H   0  0  0  0  0  0  0  0  0  0  0  0
  -85.9847   59.9511   94.5406 C   0  0  0  0  0  0  0  0  0  0  0  0
  -86.3076   58.8135   95.3706 O   0  0  0  0  0  0  0  0  0  0  0  0
  -86.5156   59.1167   96.2682 H   0  0  0  0  0  0  0  0  0  0  0  0
  8  7  2  0  0  0
  7  9  1  0  0  0
  7  6  1  0  0  0
  5  6  2  0  0  0
  5  3  1  0  0  0
  9 10  1  0  0  0
  6 13  1  0  0  0
  4  3  1  0  0  0
  3  2  2  0  0  0
 25 24  1  0  0  0
 10 11  2  0  0  0
 10 12  1  0  0  0
 13 12  2  0  0  0
 13 14  1  0  0  0
 19 18  1  0  0  0
  2 14  1  0  0  0
  2  1  1  0  0  0
 21 24  1  0  0  0
 21 22  1  0  0  0
 21 18  1  0  0  0
 24 27  1  0  0  0
 14 17  1  0  0  0
 18 17  1  0  0  0
 27 28  1  0  0  0
  1 15  1  0  0  0
  9 16  1  0  0  0
 19 20  1  0  0  0
 22 23  1  0  0  0
 25 26  1  0  0  0
 28 29  1  0  0  0
M  END
> <minimizedAffinity>
-8.47469

$$$$
