5MJN_7O8_A_302


 20 21  0  0  0  0  0  0  0  0999 V2000
   -4.5815    3.5771   14.2745 C   0  0  0  0  0  0  0  0  0  0  0  0
   -5.5662    4.4148   14.7599 C   0  0  0  0  0  0  0  0  0  0  0  0
   -6.4034    3.8301   15.6848 C   0  0  0  0  0  0  0  0  0  0  0  0
   -4.5490    2.1222   15.1453 S   0  0  0  0  0  0  0  0  0  0  0  0
   -5.7302    2.5846   16.1561 C   0  0  0  0  0  0  0  0  0  0  0  0
   -6.4511    1.4545   17.3244 S   0  0  0  0  0  0  0  0  0  0  0  0
   -6.2930    2.0477   18.5870 O   0  0  0  0  0  0  0  0  0  0  0  0
   -7.7283    1.1835   16.8276 O   0  0  0  0  0  0  0  0  0  0  0  0
   -5.5676    0.0744   17.1704 N   0  0  0  0  0  0  0  0  0  0  0  0
   -5.7128   -0.3204   16.2412 H   0  0  0  0  0  0  0  0  0  0  0  0
   -5.8640   -0.5996   17.8763 H   0  0  0  0  0  0  0  0  0  0  0  0
   -3.4228    4.0825   13.0960 S   0  0  0  0  0  0  0  0  0  0  0  0
   -4.3539    3.2897   11.6567 C   0  0  0  0  0  0  0  0  0  0  0  0
   -2.9268   -2.4129   11.1502 Cl  0  0  0  0  0  0  0  0  0  0  0  0
   -3.0408   -0.6326   11.2083 C   0  0  0  0  0  0  0  0  0  0  0  0
   -2.0203    0.3647   11.1180 C   0  0  0  0  0  0  0  0  0  0  0  0
   -2.4661    1.7205   11.2510 C   0  0  0  0  0  0  0  0  0  0  0  0
   -4.4080   -0.4320   11.3909 C   0  0  0  0  0  0  0  0  0  0  0  0
   -4.7922    0.8420   11.6024 C   0  0  0  0  0  0  0  0  0  0  0  0
   -3.9592    1.8927   11.3662 C   0  0  0  0  0  0  0  0  0  0  0  0
 16 17  2  0  0  0
 16 15  1  0  0  0
 17 20  1  0  0  0
 15 14  1  0  0  0
 15 18  2  0  0  0
 20 13  1  0  0  0
 20 19  2  0  0  0
 13 12  1  0  0  0
 12  1  1  0  0  0
  1  2  2  0  0  0
  1  4  1  0  0  0
 18 19  1  0  0  0
  2  3  1  0  0  0
  4  5  1  0  0  0
  3  5  2  0  0  0
  5  6  1  0  0  0
  9  6  1  0  0  0
  8  6  2  0  0  0
  6  7  2  0  0  0
  9 10  1  0  0  0
  9 11  1  0  0  0
M  END
> <minimizedAffinity>
-7.90780

$$$$
5MJN_7O8_A_302


 20 21  0  0  0  0  0  0  0  0999 V2000
   -3.0728    3.4901   12.2071 C   0  0  0  0  0  0  0  0  0  0  0  0
   -1.8837    3.0642   11.6488 C   0  0  0  0  0  0  0  0  0  0  0  0
   -1.8975    1.7574   11.2128 C   0  0  0  0  0  0  0  0  0  0  0  0
   -4.2914    2.3334   11.9771 S   0  0  0  0  0  0  0  0  0  0  0  0
   -3.3278    1.3403   11.1308 C   0  0  0  0  0  0  0  0  0  0  0  0
   -3.8548   -0.2919   10.6620 S   0  0  0  0  0  0  0  0  0  0  0  0
   -2.9640   -0.7159    9.6632 O   0  0  0  0  0  0  0  0  0  0  0  0
   -3.9573   -0.9996   11.8621 O   0  0  0  0  0  0  0  0  0  0  0  0
   -5.3834   -0.0883   10.0867 N   0  0  0  0  0  0  0  0  0  0  0  0
   -5.9937    0.2188   10.8441 H   0  0  0  0  0  0  0  0  0  0  0  0
   -5.7260   -0.9727    9.7114 H   0  0  0  0  0  0  0  0  0  0  0  0
   -3.2908    5.0850   12.8361 S   0  0  0  0  0  0  0  0  0  0  0  0
   -2.8987    4.5742   14.6116 C   0  0  0  0  0  0  0  0  0  0  0  0
   -7.3257    1.4783   16.9843 Cl  0  0  0  0  0  0  0  0  0  0  0  0
   -6.2160    2.6584   16.2348 C   0  0  0  0  0  0  0  0  0  0  0  0
   -6.4850    3.9158   15.6096 C   0  0  0  0  0  0  0  0  0  0  0  0
   -5.3451    4.5930   15.0653 C   0  0  0  0  0  0  0  0  0  0  0  0
   -4.9785    2.0353   16.3872 C   0  0  0  0  0  0  0  0  0  0  0  0
   -3.9357    2.6454   15.7908 C   0  0  0  0  0  0  0  0  0  0  0  0
   -4.0205    3.9214   15.3239 C   0  0  0  0  0  0  0  0  0  0  0  0
 16 17  2  0  0  0
 16 15  1  0  0  0
 17 20  1  0  0  0
 15 14  1  0  0  0
 15 18  2  0  0  0
 20 13  1  0  0  0
 20 19  2  0  0  0
 13 12  1  0  0  0
 12  1  1  0  0  0
  1  2  2  0  0  0
  1  4  1  0  0  0
 18 19  1  0  0  0
  2  3  1  0  0  0
  4  5  1  0  0  0
  3  5  2  0  0  0
  5  6  1  0  0  0
  9  6  1  0  0  0
  8  6  2  0  0  0
  6  7  2  0  0  0
  9 10  1  0  0  0
  9 11  1  0  0  0
M  END
> <minimizedAffinity>
-7.11703

$$$$
5MJN_7O8_A_302


 20 21  0  0  0  0  0  0  0  0999 V2000
   -4.3949    3.8110   14.6465 C   0  0  0  0  0  0  0  0  0  0  0  0
   -5.4925    4.5674   15.0073 C   0  0  0  0  0  0  0  0  0  0  0  0
   -6.3934    3.9102   15.8164 C   0  0  0  0  0  0  0  0  0  0  0  0
   -4.3637    2.3506   15.5081 S   0  0  0  0  0  0  0  0  0  0  0  0
   -5.6938    2.7111   16.3635 C   0  0  0  0  0  0  0  0  0  0  0  0
   -6.4694    1.5152   17.4265 S   0  0  0  0  0  0  0  0  0  0  0  0
   -6.3339    2.0109   18.7330 O   0  0  0  0  0  0  0  0  0  0  0  0
   -7.7379    1.3100   16.8782 O   0  0  0  0  0  0  0  0  0  0  0  0
   -5.6106    0.1305   17.1942 N   0  0  0  0  0  0  0  0  0  0  0  0
   -5.7383   -0.1920   16.2350 H   0  0  0  0  0  0  0  0  0  0  0  0
   -5.9400   -0.5865   17.8406 H   0  0  0  0  0  0  0  0  0  0  0  0
   -3.1382    4.4163   13.6261 S   0  0  0  0  0  0  0  0  0  0  0  0
   -3.6547    6.2194   13.8471 C   0  0  0  0  0  0  0  0  0  0  0  0
    0.2910   10.3623   15.2894 Cl  0  0  0  0  0  0  0  0  0  0  0  0
   -0.7195    9.0771   14.5730 C   0  0  0  0  0  0  0  0  0  0  0  0
   -0.7107    8.5165   13.2578 C   0  0  0  0  0  0  0  0  0  0  0  0
   -1.7056    7.5162   13.0045 C   0  0  0  0  0  0  0  0  0  0  0  0
   -1.5677    8.7481   15.6289 C   0  0  0  0  0  0  0  0  0  0  0  0
   -2.5504    7.8719   15.3424 C   0  0  0  0  0  0  0  0  0  0  0  0
   -2.5463    7.1363   14.1968 C   0  0  0  0  0  0  0  0  0  0  0  0
 16 17  2  0  0  0
 16 15  1  0  0  0
 17 20  1  0  0  0
 15 14  1  0  0  0
 15 18  2  0  0  0
 20 13  1  0  0  0
 20 19  2  0  0  0
 13 12  1  0  0  0
 12  1  1  0  0  0
  1  2  2  0  0  0
  1  4  1  0  0  0
 18 19  1  0  0  0
  2  3  1  0  0  0
  4  5  1  0  0  0
  3  5  2  0  0  0
  5  6  1  0  0  0
  9  6  1  0  0  0
  8  6  2  0  0  0
  6  7  2  0  0  0
  9 10  1  0  0  0
  9 11  1  0  0  0
M  END
> <minimizedAffinity>
-6.85122

$$$$
5MJN_7O8_A_302


 20 21  0  0  0  0  0  0  0  0999 V2000
   -3.9270    4.0155   12.1210 C   0  0  0  0  0  0  0  0  0  0  0  0
   -2.5735    3.9091   11.8692 C   0  0  0  0  0  0  0  0  0  0  0  0
   -2.1444    2.6267   11.6056 C   0  0  0  0  0  0  0  0  0  0  0  0
   -4.7142    2.5485   11.7982 S   0  0  0  0  0  0  0  0  0  0  0  0
   -3.3579    1.8169   11.2921 C   0  0  0  0  0  0  0  0  0  0  0  0
   -3.3173    0.0755   10.9346 S   0  0  0  0  0  0  0  0  0  0  0  0
   -3.9599   -0.0820    9.6965 O   0  0  0  0  0  0  0  0  0  0  0  0
   -1.9791   -0.2958   11.0869 O   0  0  0  0  0  0  0  0  0  0  0  0
   -4.1578   -0.6233   12.1652 N   0  0  0  0  0  0  0  0  0  0  0  0
   -3.6554   -0.4844   13.0420 H   0  0  0  0  0  0  0  0  0  0  0  0
   -4.2571   -1.6223   11.9848 H   0  0  0  0  0  0  0  0  0  0  0  0
   -4.6929    5.5203   12.4899 S   0  0  0  0  0  0  0  0  0  0  0  0
   -4.3197    5.4012   14.3375 C   0  0  0  0  0  0  0  0  0  0  0  0
   -6.7915    1.1121   17.5477 Cl  0  0  0  0  0  0  0  0  0  0  0  0
   -5.7769    2.2054   16.5674 C   0  0  0  0  0  0  0  0  0  0  0  0
   -4.3848    2.1397   16.2480 C   0  0  0  0  0  0  0  0  0  0  0  0
   -3.8780    3.2263   15.4625 C   0  0  0  0  0  0  0  0  0  0  0  0
   -6.6881    3.1893   16.1875 C   0  0  0  0  0  0  0  0  0  0  0  0
   -6.1726    4.2445   15.5270 C   0  0  0  0  0  0  0  0  0  0  0  0
   -4.9139    4.2229   15.0085 C   0  0  0  0  0  0  0  0  0  0  0  0
 16 17  2  0  0  0
 16 15  1  0  0  0
 17 20  1  0  0  0
 15 14  1  0  0  0
 15 18  2  0  0  0
 20 13  1  0  0  0
 20 19  2  0  0  0
 13 12  1  0  0  0
 12  1  1  0  0  0
  1  2  2  0  0  0
  1  4  1  0  0  0
 18 19  1  0  0  0
  2  3  1  0  0  0
  4  5  1  0  0  0
  3  5  2  0  0  0
  5  6  1  0  0  0
  9  6  1  0  0  0
  8  6  2  0  0  0
  6  7  2  0  0  0
  9 10  1  0  0  0
  9 11  1  0  0  0
M  END
> <minimizedAffinity>
-6.84741

$$$$
5MJN_7O8_A_302


 20 21  0  0  0  0  0  0  0  0999 V2000
   -4.2124    2.9560   12.1288 C   0  0  0  0  0  0  0  0  0  0  0  0
   -4.3164    1.6103   11.8370 C   0  0  0  0  0  0  0  0  0  0  0  0
   -4.2778    0.7858   12.9401 C   0  0  0  0  0  0  0  0  0  0  0  0
   -4.3023    3.2153   13.8023 S   0  0  0  0  0  0  0  0  0  0  0  0
   -4.5286    1.6440   14.1347 C   0  0  0  0  0  0  0  0  0  0  0  0
   -4.5238    1.0359   15.8056 S   0  0  0  0  0  0  0  0  0  0  0  0
   -4.8056   -0.3368   15.7203 O   0  0  0  0  0  0  0  0  0  0  0  0
   -3.3139    1.4748   16.3488 O   0  0  0  0  0  0  0  0  0  0  0  0
   -5.7253    1.8721   16.5581 N   0  0  0  0  0  0  0  0  0  0  0  0
   -5.4783    2.8609   16.5972 H   0  0  0  0  0  0  0  0  0  0  0  0
   -5.8467    1.5142   17.5055 H   0  0  0  0  0  0  0  0  0  0  0  0
   -4.2228    4.1797   10.9085 S   0  0  0  0  0  0  0  0  0  0  0  0
   -4.6299    5.5661   12.1247 C   0  0  0  0  0  0  0  0  0  0  0  0
   -6.0492   10.9322   10.1242 Cl  0  0  0  0  0  0  0  0  0  0  0  0
   -5.9514    9.2536   10.7229 C   0  0  0  0  0  0  0  0  0  0  0  0
   -6.9817    8.3654   11.1631 C   0  0  0  0  0  0  0  0  0  0  0  0
   -6.5376    7.0846   11.6289 C   0  0  0  0  0  0  0  0  0  0  0  0
   -4.5803    9.0065   10.6805 C   0  0  0  0  0  0  0  0  0  0  0  0
   -4.1781    7.8325   11.2054 C   0  0  0  0  0  0  0  0  0  0  0  0
   -5.0578    6.8331   11.4896 C   0  0  0  0  0  0  0  0  0  0  0  0
 16 17  2  0  0  0
 16 15  1  0  0  0
 17 20  1  0  0  0
 15 14  1  0  0  0
 15 18  2  0  0  0
 20 13  1  0  0  0
 20 19  2  0  0  0
 13 12  1  0  0  0
 12  1  1  0  0  0
  1  2  2  0  0  0
  1  4  1  0  0  0
 18 19  1  0  0  0
  2  3  1  0  0  0
  4  5  1  0  0  0
  3  5  2  0  0  0
  5  6  1  0  0  0
  9  6  1  0  0  0
  8  6  2  0  0  0
  6  7  2  0  0  0
  9 10  1  0  0  0
  9 11  1  0  0  0
M  END
> <minimizedAffinity>
-6.50204

$$$$
5MJN_7O8_A_302


 20 21  0  0  0  0  0  0  0  0999 V2000
   -1.3942    3.5747   11.5469 C   0  0  0  0  0  0  0  0  0  0  0  0
   -0.8399    2.4481   10.9722 C   0  0  0  0  0  0  0  0  0  0  0  0
   -1.7006    1.3762   10.8797 C   0  0  0  0  0  0  0  0  0  0  0  0
   -3.0651    3.3783   11.7610 S   0  0  0  0  0  0  0  0  0  0  0  0
   -3.0809    1.9073   11.0778 C   0  0  0  0  0  0  0  0  0  0  0  0
   -4.5375    0.8877   11.0969 S   0  0  0  0  0  0  0  0  0  0  0  0
   -4.4575    0.0746    9.9553 O   0  0  0  0  0  0  0  0  0  0  0  0
   -4.5635    0.3144   12.3706 O   0  0  0  0  0  0  0  0  0  0  0  0
   -5.7922    1.9501   11.0173 N   0  0  0  0  0  0  0  0  0  0  0  0
   -5.8113    2.5178   11.8645 H   0  0  0  0  0  0  0  0  0  0  0  0
   -6.6688    1.4354   10.9331 H   0  0  0  0  0  0  0  0  0  0  0  0
   -0.5044    5.0376   11.7814 S   0  0  0  0  0  0  0  0  0  0  0  0
   -1.9355    5.9180   12.6437 C   0  0  0  0  0  0  0  0  0  0  0  0
    0.1211   10.6936   15.4323 Cl  0  0  0  0  0  0  0  0  0  0  0  0
   -0.7552    9.2695   14.8078 C   0  0  0  0  0  0  0  0  0  0  0  0
   -1.8759    8.5624   15.3446 C   0  0  0  0  0  0  0  0  0  0  0  0
   -2.3027    7.4178   14.5948 C   0  0  0  0  0  0  0  0  0  0  0  0
   -0.0522    8.9818   13.6391 C   0  0  0  0  0  0  0  0  0  0  0  0
   -0.4130    7.8524   12.9991 C   0  0  0  0  0  0  0  0  0  0  0  0
   -1.5656    7.1929   13.2991 C   0  0  0  0  0  0  0  0  0  0  0  0
 16 17  2  0  0  0
 16 15  1  0  0  0
 17 20  1  0  0  0
 15 14  1  0  0  0
 15 18  2  0  0  0
 20 13  1  0  0  0
 20 19  2  0  0  0
 13 12  1  0  0  0
 12  1  1  0  0  0
  1  2  2  0  0  0
  1  4  1  0  0  0
 18 19  1  0  0  0
  2  3  1  0  0  0
  4  5  1  0  0  0
  3  5  2  0  0  0
  5  6  1  0  0  0
  9  6  1  0  0  0
  8  6  2  0  0  0
  6  7  2  0  0  0
  9 10  1  0  0  0
  9 11  1  0  0  0
M  END
> <minimizedAffinity>
-6.41275

$$$$
5MJN_7O8_A_302


 20 21  0  0  0  0  0  0  0  0999 V2000
   -3.5842    3.8802   12.7779 C   0  0  0  0  0  0  0  0  0  0  0  0
   -4.0826    2.8010   12.0751 C   0  0  0  0  0  0  0  0  0  0  0  0
   -4.3215    1.6838   12.8452 C   0  0  0  0  0  0  0  0  0  0  0  0
   -3.6323    3.5829   14.4468 S   0  0  0  0  0  0  0  0  0  0  0  0
   -4.3305    2.1297   14.2691 C   0  0  0  0  0  0  0  0  0  0  0  0
   -4.5500    1.0276   15.6472 S   0  0  0  0  0  0  0  0  0  0  0  0
   -4.6426   -0.2627   15.1018 O   0  0  0  0  0  0  0  0  0  0  0  0
   -3.5193    1.3457   16.5349 O   0  0  0  0  0  0  0  0  0  0  0  0
   -5.9595    1.5097   16.3472 N   0  0  0  0  0  0  0  0  0  0  0  0
   -5.8460    2.4490   16.7283 H   0  0  0  0  0  0  0  0  0  0  0  0
   -6.2037    0.8650   17.0990 H   0  0  0  0  0  0  0  0  0  0  0  0
   -3.1950    5.3861   12.0245 S   0  0  0  0  0  0  0  0  0  0  0  0
   -4.7934    6.2226   12.5832 C   0  0  0  0  0  0  0  0  0  0  0  0
   -8.5667    7.9911    8.4063 Cl  0  0  0  0  0  0  0  0  0  0  0  0
   -7.2294    7.3684    9.4111 C   0  0  0  0  0  0  0  0  0  0  0  0
   -6.0659    6.6220    9.0459 C   0  0  0  0  0  0  0  0  0  0  0  0
   -5.2097    6.2402   10.1302 C   0  0  0  0  0  0  0  0  0  0  0  0
   -7.6081    7.7763   10.6890 C   0  0  0  0  0  0  0  0  0  0  0  0
   -6.8376    7.3310   11.7007 C   0  0  0  0  0  0  0  0  0  0  0  0
   -5.6162    6.7709   11.4814 C   0  0  0  0  0  0  0  0  0  0  0  0
 16 17  2  0  0  0
 16 15  1  0  0  0
 17 20  1  0  0  0
 15 14  1  0  0  0
 15 18  2  0  0  0
 20 13  1  0  0  0
 20 19  2  0  0  0
 13 12  1  0  0  0
 12  1  1  0  0  0
  1  2  2  0  0  0
  1  4  1  0  0  0
 18 19  1  0  0  0
  2  3  1  0  0  0
  4  5  1  0  0  0
  3  5  2  0  0  0
  5  6  1  0  0  0
  9  6  1  0  0  0
  8  6  2  0  0  0
  6  7  2  0  0  0
  9 10  1  0  0  0
  9 11  1  0  0  0
M  END
> <minimizedAffinity>
-6.37915

$$$$
5MJN_7O8_A_302


 20 21  0  0  0  0  0  0  0  0999 V2000
   -3.9138    3.8957   12.7970 C   0  0  0  0  0  0  0  0  0  0  0  0
   -4.3940    2.8029   12.1026 C   0  0  0  0  0  0  0  0  0  0  0  0
   -4.5189    1.6591   12.8604 C   0  0  0  0  0  0  0  0  0  0  0  0
   -3.8377    3.5642   14.4584 S   0  0  0  0  0  0  0  0  0  0  0  0
   -4.4619    2.0764   14.2919 C   0  0  0  0  0  0  0  0  0  0  0  0
   -4.5294    0.9372   15.6556 S   0  0  0  0  0  0  0  0  0  0  0  0
   -4.5633   -0.3464   15.0881 O   0  0  0  0  0  0  0  0  0  0  0  0
   -3.4756    1.3102   16.4934 O   0  0  0  0  0  0  0  0  0  0  0  0
   -5.9279    1.3076   16.4405 N   0  0  0  0  0  0  0  0  0  0  0  0
   -5.8580    2.2455   16.8353 H   0  0  0  0  0  0  0  0  0  0  0  0
   -6.0856    0.6341   17.1901 H   0  0  0  0  0  0  0  0  0  0  0  0
   -3.6602    5.4359   12.0551 S   0  0  0  0  0  0  0  0  0  0  0  0
   -3.8189    6.3853   13.6800 C   0  0  0  0  0  0  0  0  0  0  0  0
    0.4284   10.2167   15.1268 Cl  0  0  0  0  0  0  0  0  0  0  0  0
   -0.6863    9.0265   14.4010 C   0  0  0  0  0  0  0  0  0  0  0  0
   -0.7616    8.5221   13.0653 C   0  0  0  0  0  0  0  0  0  0  0  0
   -1.8256    7.5956   12.8124 C   0  0  0  0  0  0  0  0  0  0  0  0
   -1.5133    8.7055   15.4760 C   0  0  0  0  0  0  0  0  0  0  0  0
   -2.5587    7.9034   15.1944 C   0  0  0  0  0  0  0  0  0  0  0  0
   -2.6432    7.2178   14.0213 C   0  0  0  0  0  0  0  0  0  0  0  0
 16 17  2  0  0  0
 16 15  1  0  0  0
 17 20  1  0  0  0
 15 14  1  0  0  0
 15 18  2  0  0  0
 20 13  1  0  0  0
 20 19  2  0  0  0
 13 12  1  0  0  0
 12  1  1  0  0  0
  1  2  2  0  0  0
  1  4  1  0  0  0
 18 19  1  0  0  0
  2  3  1  0  0  0
  4  5  1  0  0  0
  3  5  2  0  0  0
  5  6  1  0  0  0
  9  6  1  0  0  0
  8  6  2  0  0  0
  6  7  2  0  0  0
  9 10  1  0  0  0
  9 11  1  0  0  0
M  END
> <minimizedAffinity>
-6.36464

$$$$
5MJN_7O8_A_302


 20 21  0  0  0  0  0  0  0  0999 V2000
   -1.7534    3.7437   11.1035 C   0  0  0  0  0  0  0  0  0  0  0  0
   -0.8799    2.6764   11.1720 C   0  0  0  0  0  0  0  0  0  0  0  0
   -1.4932    1.4464   11.2682 C   0  0  0  0  0  0  0  0  0  0  0  0
   -3.3499    3.2012   10.9215 S   0  0  0  0  0  0  0  0  0  0  0  0
   -2.9190    1.6382   10.8726 C   0  0  0  0  0  0  0  0  0  0  0  0
   -4.1314    0.3375   10.8885 S   0  0  0  0  0  0  0  0  0  0  0  0
   -3.9046   -0.4191    9.7279 O   0  0  0  0  0  0  0  0  0  0  0  0
   -4.0147   -0.2529   12.1492 O   0  0  0  0  0  0  0  0  0  0  0  0
   -5.5807    1.1167   10.8498 N   0  0  0  0  0  0  0  0  0  0  0  0
   -5.7021    1.6517   11.7098 H   0  0  0  0  0  0  0  0  0  0  0  0
   -6.3324    0.4325   10.7660 H   0  0  0  0  0  0  0  0  0  0  0  0
   -1.2180    5.3831   10.9919 S   0  0  0  0  0  0  0  0  0  0  0  0
   -1.0807    5.5979   12.8632 C   0  0  0  0  0  0  0  0  0  0  0  0
   -6.2467    4.4680   15.4801 Cl  0  0  0  0  0  0  0  0  0  0  0  0
   -4.8452    5.0729   14.5550 C   0  0  0  0  0  0  0  0  0  0  0  0
   -4.7667    6.0844   13.5476 C   0  0  0  0  0  0  0  0  0  0  0  0
   -3.4691    6.2866   12.9731 C   0  0  0  0  0  0  0  0  0  0  0  0
   -3.8066    4.2841   15.0468 C   0  0  0  0  0  0  0  0  0  0  0  0
   -2.6167    4.4283   14.4312 C   0  0  0  0  0  0  0  0  0  0  0  0
   -2.3635    5.4691   13.5910 C   0  0  0  0  0  0  0  0  0  0  0  0
 16 17  2  0  0  0
 16 15  1  0  0  0
 17 20  1  0  0  0
 15 14  1  0  0  0
 15 18  2  0  0  0
 20 13  1  0  0  0
 20 19  2  0  0  0
 13 12  1  0  0  0
 12  1  1  0  0  0
  1  2  2  0  0  0
  1  4  1  0  0  0
 18 19  1  0  0  0
  2  3  1  0  0  0
  4  5  1  0  0  0
  3  5  2  0  0  0
  5  6  1  0  0  0
  9  6  1  0  0  0
  8  6  2  0  0  0
  6  7  2  0  0  0
  9 10  1  0  0  0
  9 11  1  0  0  0
M  END
> <minimizedAffinity>
-6.22156

$$$$
5MJN_7O8_A_302


 20 21  0  0  0  0  0  0  0  0999 V2000
   -4.1489    3.5575   12.5064 C   0  0  0  0  0  0  0  0  0  0  0  0
   -4.4007    2.2943   12.0087 C   0  0  0  0  0  0  0  0  0  0  0  0
   -4.4013    1.2988   12.9613 C   0  0  0  0  0  0  0  0  0  0  0  0
   -4.1443    3.5440   14.2023 S   0  0  0  0  0  0  0  0  0  0  0  0
   -4.5153    1.9675   14.2903 C   0  0  0  0  0  0  0  0  0  0  0  0
   -4.5046    1.0937   15.8390 S   0  0  0  0  0  0  0  0  0  0  0  0
   -4.7990   -0.2442   15.5323 O   0  0  0  0  0  0  0  0  0  0  0  0
   -3.2873    1.4286   16.4370 O   0  0  0  0  0  0  0  0  0  0  0  0
   -5.6937    1.8044   16.7279 N   0  0  0  0  0  0  0  0  0  0  0  0
   -5.4378    2.7716   16.9264 H   0  0  0  0  0  0  0  0  0  0  0  0
   -5.8119    1.2971   17.6048 H   0  0  0  0  0  0  0  0  0  0  0  0
   -4.0844    4.9617   11.5009 S   0  0  0  0  0  0  0  0  0  0  0  0
   -3.0149    4.1264   10.1875 C   0  0  0  0  0  0  0  0  0  0  0  0
    2.7497    4.8325   11.2282 Cl  0  0  0  0  0  0  0  0  0  0  0  0
    1.1074    4.4026   10.6769 C   0  0  0  0  0  0  0  0  0  0  0  0
    0.6790    3.6572    9.5345 C   0  0  0  0  0  0  0  0  0  0  0  0
   -0.7398    3.5393    9.3687 C   0  0  0  0  0  0  0  0  0  0  0  0
    0.3059    5.0044   11.6455 C   0  0  0  0  0  0  0  0  0  0  0  0
   -1.0219    4.9574   11.4219 C   0  0  0  0  0  0  0  0  0  0  0  0
   -1.5639    4.1359   10.4811 C   0  0  0  0  0  0  0  0  0  0  0  0
 16 17  2  0  0  0
 16 15  1  0  0  0
 17 20  1  0  0  0
 15 14  1  0  0  0
 15 18  2  0  0  0
 20 13  1  0  0  0
 20 19  2  0  0  0
 13 12  1  0  0  0
 12  1  1  0  0  0
  1  2  2  0  0  0
  1  4  1  0  0  0
 18 19  1  0  0  0
  2  3  1  0  0  0
  4  5  1  0  0  0
  3  5  2  0  0  0
  5  6  1  0  0  0
  9  6  1  0  0  0
  8  6  2  0  0  0
  6  7  2  0  0  0
  9 10  1  0  0  0
  9 11  1  0  0  0
M  END
> <minimizedAffinity>
-6.07043

$$$$
