4UIN_QI9_H_1226


 25 28  0  0  0  0  0  0  0  0999 V2000
    5.2401   -7.2600  -57.1629 O   0  0  0  0  0  0  0  0  0  0  0  0
    4.8445   -7.1651  -55.8156 C   0  0  0  0  0  0  0  0  0  0  0  0
    5.5859   -8.1495  -57.3364 H   0  0  0  0  0  0  0  0  0  0  0  0
    4.2931   -5.8193  -55.4480 C   0  0  0  0  0  0  0  0  0  0  0  0
    4.6267   -4.6902  -56.2327 C   0  0  0  0  0  0  0  0  0  0  0  0
    4.1219   -3.4458  -55.8956 C   0  0  0  0  0  0  0  0  0  0  0  0
    3.3055   -3.2116  -54.8346 N   0  0  0  0  0  0  0  0  0  0  0  0
    2.9711   -4.3083  -54.0502 C   0  0  0  0  0  0  0  0  0  0  0  0
    3.4470   -5.6482  -54.3178 C   0  0  0  0  0  0  0  0  0  0  0  0
    3.0518   -6.6992  -53.4595 C   0  0  0  0  0  0  0  0  0  0  0  0
    2.1233   -4.0757  -52.9441 C   0  0  0  0  0  0  0  0  0  0  0  0
    1.7527   -5.1372  -52.1225 C   0  0  0  0  0  0  0  0  0  0  0  0
    2.2061   -6.4236  -52.3806 C   0  0  0  0  0  0  0  0  0  0  0  0
    1.8282   -7.4761  -51.5400 O   0  0  0  0  0  0  0  0  0  0  0  0
    1.2522   -8.6875  -51.9942 C   0  0  0  0  0  0  0  0  0  0  0  0
    6.0458   -7.5203  -54.8888 C   0  0  0  0  0  0  0  0  0  0  0  0
    6.0768   -9.0085  -54.4858 N   0  0  0  0  0  0  0  0  0  0  0  0
    6.6245   -9.9048  -55.6085 C   0  0  0  0  0  0  0  0  0  0  0  0
    8.0490   -9.4669  -55.9487 C   0  0  0  0  0  0  0  0  0  0  0  0
    7.0630   -9.1396  -53.2060 C   0  0  0  0  0  0  0  0  0  0  0  0
    8.4520   -8.6291  -53.6113 C   0  0  0  0  0  0  0  0  0  0  0  0
    8.4428   -8.2484  -55.1101 C   0  0  0  0  0  0  0  0  0  0  0  0
    7.4296   -7.1464  -55.4324 C   0  0  0  0  0  0  0  0  0  0  0  0
    9.0052   -7.4716  -52.8114 C   0  0  0  0  0  0  0  0  0  0  0  0
    8.4767   -6.8524  -51.7512 C   0  0  0  0  0  0  0  0  0  0  0  0
 20 17  1  0  0  0
 20 21  1  0  0  0
 17 18  1  0  0  0
 17 16  1  0  0  0
 18 19  1  0  0  0
 21 24  1  0  0  0
 21 22  1  0  0  0
 14 15  1  0  0  0
 14 13  1  0  0  0
 25 24  2  0  0  0
 19 22  1  0  0  0
 16  2  1  0  0  0
 16 23  1  0  0  0
 22 23  1  0  0  0
 13 10  2  0  0  0
 13 12  1  0  0  0
 10  9  1  0  0  0
  2  1  1  0  0  0
  2  4  1  0  0  0
 12 11  2  0  0  0
  9  4  2  0  0  0
  9  8  1  0  0  0
  4  5  1  0  0  0
 11  8  1  0  0  0
  8  7  2  0  0  0
  5  6  2  0  0  0
  7  6  1  0  0  0
  1  3  1  0  0  0
M  END
> <minimizedAffinity>
-8.59978

$$$$
4UIN_QI9_H_1226


 25 28  0  0  0  0  0  0  0  0999 V2000
    4.1087   -8.2245  -56.7947 O   0  0  0  0  0  0  0  0  0  0  0  0
    4.6196   -7.6308  -55.6254 C   0  0  0  0  0  0  0  0  0  0  0  0
    4.3401   -9.1664  -56.8067 H   0  0  0  0  0  0  0  0  0  0  0  0
    4.3118   -6.1668  -55.5149 C   0  0  0  0  0  0  0  0  0  0  0  0
    4.8678   -5.2640  -56.4519 C   0  0  0  0  0  0  0  0  0  0  0  0
    4.5883   -3.9116  -56.3521 C   0  0  0  0  0  0  0  0  0  0  0  0
    3.7979   -3.3609  -55.3934 N   0  0  0  0  0  0  0  0  0  0  0  0
    3.2471   -4.2322  -54.4621 C   0  0  0  0  0  0  0  0  0  0  0  0
    3.4789   -5.6603  -54.4795 C   0  0  0  0  0  0  0  0  0  0  0  0
    2.8745   -6.4640  -53.4864 C   0  0  0  0  0  0  0  0  0  0  0  0
    2.4243   -3.6699  -53.4605 C   0  0  0  0  0  0  0  0  0  0  0  0
    1.8432   -4.4944  -52.5004 C   0  0  0  0  0  0  0  0  0  0  0  0
    2.0624   -5.8650  -52.5185 C   0  0  0  0  0  0  0  0  0  0  0  0
    1.4752   -6.6763  -51.5416 O   0  0  0  0  0  0  0  0  0  0  0  0
    1.1997   -8.0546  -51.7146 C   0  0  0  0  0  0  0  0  0  0  0  0
    6.1592   -7.8591  -55.5497 C   0  0  0  0  0  0  0  0  0  0  0  0
    6.7906   -7.2886  -54.2635 N   0  0  0  0  0  0  0  0  0  0  0  0
    6.5542   -8.1970  -53.0460 C   0  0  0  0  0  0  0  0  0  0  0  0
    7.1698   -9.5694  -53.3183 C   0  0  0  0  0  0  0  0  0  0  0  0
    8.3884   -7.1861  -54.5169 C   0  0  0  0  0  0  0  0  0  0  0  0
    8.9181   -8.5897  -54.8385 C   0  0  0  0  0  0  0  0  0  0  0  0
    7.7638   -9.6129  -54.7284 C   0  0  0  0  0  0  0  0  0  0  0  0
    6.6170   -9.3146  -55.6983 C   0  0  0  0  0  0  0  0  0  0  0  0
    9.6046   -8.7620  -56.1746 C   0  0  0  0  0  0  0  0  0  0  0  0
   10.8987   -8.6250  -56.4797 C   0  0  0  0  0  0  0  0  0  0  0  0
 20 17  1  0  0  0
 20 21  1  0  0  0
 17 18  1  0  0  0
 17 16  1  0  0  0
 18 19  1  0  0  0
 21 24  1  0  0  0
 21 22  1  0  0  0
 14 15  1  0  0  0
 14 13  1  0  0  0
 25 24  2  0  0  0
 19 22  1  0  0  0
 16  2  1  0  0  0
 16 23  1  0  0  0
 22 23  1  0  0  0
 13 10  2  0  0  0
 13 12  1  0  0  0
 10  9  1  0  0  0
  2  1  1  0  0  0
  2  4  1  0  0  0
 12 11  2  0  0  0
  9  4  2  0  0  0
  9  8  1  0  0  0
  4  5  1  0  0  0
 11  8  1  0  0  0
  8  7  2  0  0  0
  5  6  2  0  0  0
  7  6  1  0  0  0
  1  3  1  0  0  0
M  END
> <minimizedAffinity>
-8.42040

$$$$
4UIN_QI9_H_1226


 25 28  0  0  0  0  0  0  0  0999 V2000
    4.5886   -8.0658  -56.6507 O   0  0  0  0  0  0  0  0  0  0  0  0
    5.1181   -7.2362  -55.6448 C   0  0  0  0  0  0  0  0  0  0  0  0
    4.7046   -8.9950  -56.3976 H   0  0  0  0  0  0  0  0  0  0  0  0
    4.9855   -5.7725  -55.9459 C   0  0  0  0  0  0  0  0  0  0  0  0
    5.7438   -5.2047  -56.9969 C   0  0  0  0  0  0  0  0  0  0  0  0
    5.6263   -3.8538  -57.2766 C   0  0  0  0  0  0  0  0  0  0  0  0
    4.8156   -2.9985  -56.5997 N   0  0  0  0  0  0  0  0  0  0  0  0
    4.0669   -3.5380  -55.5613 C   0  0  0  0  0  0  0  0  0  0  0  0
    4.1193   -4.9355  -55.1900 C   0  0  0  0  0  0  0  0  0  0  0  0
    3.3197   -5.3889  -54.1163 C   0  0  0  0  0  0  0  0  0  0  0  0
    3.2213   -2.6573  -54.8505 C   0  0  0  0  0  0  0  0  0  0  0  0
    2.4455   -3.1415  -53.8002 C   0  0  0  0  0  0  0  0  0  0  0  0
    2.4927   -4.4827  -53.4455 C   0  0  0  0  0  0  0  0  0  0  0  0
    1.7109   -4.9493  -52.3833 O   0  0  0  0  0  0  0  0  0  0  0  0
    1.3786   -6.3108  -52.1799 C   0  0  0  0  0  0  0  0  0  0  0  0
    6.6142   -7.5965  -55.3996 C   0  0  0  0  0  0  0  0  0  0  0  0
    7.0857   -7.2716  -53.9677 N   0  0  0  0  0  0  0  0  0  0  0  0
    6.6220   -8.3250  -52.9485 C   0  0  0  0  0  0  0  0  0  0  0  0
    7.1876   -9.6885  -53.3453 C   0  0  0  0  0  0  0  0  0  0  0  0
    8.7066   -7.2627  -53.9857 C   0  0  0  0  0  0  0  0  0  0  0  0
    9.1927   -8.6430  -54.4472 C   0  0  0  0  0  0  0  0  0  0  0  0
    7.9757   -9.5747  -54.6527 C   0  0  0  0  0  0  0  0  0  0  0  0
    7.0011   -9.0472  -55.7094 C   0  0  0  0  0  0  0  0  0  0  0  0
   10.0537   -8.6744  -55.6896 C   0  0  0  0  0  0  0  0  0  0  0  0
   10.0525   -7.8421  -56.7356 C   0  0  0  0  0  0  0  0  0  0  0  0
 20 17  1  0  0  0
 20 21  1  0  0  0
 17 18  1  0  0  0
 17 16  1  0  0  0
 18 19  1  0  0  0
 21 24  1  0  0  0
 21 22  1  0  0  0
 14 15  1  0  0  0
 14 13  1  0  0  0
 25 24  2  0  0  0
 19 22  1  0  0  0
 16  2  1  0  0  0
 16 23  1  0  0  0
 22 23  1  0  0  0
 13 10  2  0  0  0
 13 12  1  0  0  0
 10  9  1  0  0  0
  2  1  1  0  0  0
  2  4  1  0  0  0
 12 11  2  0  0  0
  9  4  2  0  0  0
  9  8  1  0  0  0
  4  5  1  0  0  0
 11  8  1  0  0  0
  8  7  2  0  0  0
  5  6  2  0  0  0
  7  6  1  0  0  0
  1  3  1  0  0  0
M  END
> <minimizedAffinity>
-7.47325

$$$$
4UIN_QI9_H_1226


 25 28  0  0  0  0  0  0  0  0999 V2000
    4.3737   -7.4550  -56.0841 O   0  0  0  0  0  0  0  0  0  0  0  0
    4.3239   -7.6739  -54.6948 C   0  0  0  0  0  0  0  0  0  0  0  0
    4.9062   -8.1497  -56.5020 H   0  0  0  0  0  0  0  0  0  0  0  0
    3.5188   -6.6459  -53.9562 C   0  0  0  0  0  0  0  0  0  0  0  0
    2.7730   -7.0301  -52.8168 C   0  0  0  0  0  0  0  0  0  0  0  0
    2.0266   -6.0851  -52.1336 C   0  0  0  0  0  0  0  0  0  0  0  0
    1.9474   -4.7736  -52.4809 N   0  0  0  0  0  0  0  0  0  0  0  0
    2.6698   -4.3794  -53.6001 C   0  0  0  0  0  0  0  0  0  0  0  0
    3.4785   -5.2896  -54.3818 C   0  0  0  0  0  0  0  0  0  0  0  0
    4.1761   -4.7925  -55.5060 C   0  0  0  0  0  0  0  0  0  0  0  0
    2.5938   -3.0181  -53.9704 C   0  0  0  0  0  0  0  0  0  0  0  0
    3.2979   -2.5643  -55.0829 C   0  0  0  0  0  0  0  0  0  0  0  0
    4.0768   -3.4362  -55.8313 C   0  0  0  0  0  0  0  0  0  0  0  0
    4.7718   -2.9630  -56.9495 O   0  0  0  0  0  0  0  0  0  0  0  0
    4.8538   -1.5971  -57.3140 C   0  0  0  0  0  0  0  0  0  0  0  0
    5.7710   -7.7317  -54.1197 C   0  0  0  0  0  0  0  0  0  0  0  0
    6.2490   -9.1698  -53.8338 N   0  0  0  0  0  0  0  0  0  0  0  0
    6.6835   -9.9043  -55.1126 C   0  0  0  0  0  0  0  0  0  0  0  0
    7.8312   -9.1350  -55.7664 C   0  0  0  0  0  0  0  0  0  0  0  0
    7.5327   -9.0631  -52.8497 C   0  0  0  0  0  0  0  0  0  0  0  0
    8.6136   -8.2316  -53.5530 C   0  0  0  0  0  0  0  0  0  0  0  0
    8.1326   -7.8599  -54.9749 C   0  0  0  0  0  0  0  0  0  0  0  0
    6.8434   -7.0337  -54.9641 C   0  0  0  0  0  0  0  0  0  0  0  0
    9.0687   -6.9772  -52.8423 C   0  0  0  0  0  0  0  0  0  0  0  0
    8.5933   -6.4253  -51.7215 C   0  0  0  0  0  0  0  0  0  0  0  0
 20 17  1  0  0  0
 20 21  1  0  0  0
 17 18  1  0  0  0
 17 16  1  0  0  0
 18 19  1  0  0  0
 21 24  1  0  0  0
 21 22  1  0  0  0
 14 15  1  0  0  0
 14 13  1  0  0  0
 25 24  2  0  0  0
 19 22  1  0  0  0
 16  2  1  0  0  0
 16 23  1  0  0  0
 22 23  1  0  0  0
 13 10  2  0  0  0
 13 12  1  0  0  0
 10  9  1  0  0  0
  2  1  1  0  0  0
  2  4  1  0  0  0
 12 11  2  0  0  0
  9  4  2  0  0  0
  9  8  1  0  0  0
  4  5  1  0  0  0
 11  8  1  0  0  0
  8  7  2  0  0  0
  5  6  2  0  0  0
  7  6  1  0  0  0
  1  3  1  0  0  0
M  END
> <minimizedAffinity>
-7.40337

$$$$
4UIN_QI9_H_1226


 25 28  0  0  0  0  0  0  0  0999 V2000
    9.7196   -6.8501  -56.2308 O   0  0  0  0  0  0  0  0  0  0  0  0
    8.5152   -7.4669  -56.6177 C   0  0  0  0  0  0  0  0  0  0  0  0
   10.1898   -6.5361  -57.0190 H   0  0  0  0  0  0  0  0  0  0  0  0
    7.7126   -7.9881  -55.4625 C   0  0  0  0  0  0  0  0  0  0  0  0
    8.2223   -9.0527  -54.6822 C   0  0  0  0  0  0  0  0  0  0  0  0
    7.4837   -9.5383  -53.6166 C   0  0  0  0  0  0  0  0  0  0  0  0
    6.2660   -9.0610  -53.2471 N   0  0  0  0  0  0  0  0  0  0  0  0
    5.7479   -8.0185  -54.0052 C   0  0  0  0  0  0  0  0  0  0  0  0
    6.4403   -7.4422  -55.1374 C   0  0  0  0  0  0  0  0  0  0  0  0
    5.8289   -6.3840  -55.8474 C   0  0  0  0  0  0  0  0  0  0  0  0
    4.4821   -7.5154  -53.6301 C   0  0  0  0  0  0  0  0  0  0  0  0
    3.9128   -6.4694  -54.3520 C   0  0  0  0  0  0  0  0  0  0  0  0
    4.5780   -5.9136  -55.4363 C   0  0  0  0  0  0  0  0  0  0  0  0
    3.9871   -4.8677  -56.1533 O   0  0  0  0  0  0  0  0  0  0  0  0
    4.1677   -3.4961  -55.8507 C   0  0  0  0  0  0  0  0  0  0  0  0
    8.8144   -8.6200  -57.6223 C   0  0  0  0  0  0  0  0  0  0  0  0
    7.5373   -9.2535  -58.2105 N   0  0  0  0  0  0  0  0  0  0  0  0
    6.9176   -8.3905  -59.3217 C   0  0  0  0  0  0  0  0  0  0  0  0
    7.9353   -8.2197  -60.4494 C   0  0  0  0  0  0  0  0  0  0  0  0
    7.9605  -10.6802  -58.8533 C   0  0  0  0  0  0  0  0  0  0  0  0
    9.0219  -10.4287  -59.9324 C   0  0  0  0  0  0  0  0  0  0  0  0
    9.2528   -8.9070  -60.0820 C   0  0  0  0  0  0  0  0  0  0  0  0
    9.7429   -8.2548  -58.7862 C   0  0  0  0  0  0  0  0  0  0  0  0
   10.3558  -11.1137  -59.7393 C   0  0  0  0  0  0  0  0  0  0  0  0
   10.6760  -12.3988  -59.9203 C   0  0  0  0  0  0  0  0  0  0  0  0
 20 17  1  0  0  0
 20 21  1  0  0  0
 17 18  1  0  0  0
 17 16  1  0  0  0
 18 19  1  0  0  0
 21 24  1  0  0  0
 21 22  1  0  0  0
 14 15  1  0  0  0
 14 13  1  0  0  0
 25 24  2  0  0  0
 19 22  1  0  0  0
 16  2  1  0  0  0
 16 23  1  0  0  0
 22 23  1  0  0  0
 13 10  2  0  0  0
 13 12  1  0  0  0
 10  9  1  0  0  0
  2  1  1  0  0  0
  2  4  1  0  0  0
 12 11  2  0  0  0
  9  4  2  0  0  0
  9  8  1  0  0  0
  4  5  1  0  0  0
 11  8  1  0  0  0
  8  7  2  0  0  0
  5  6  2  0  0  0
  7  6  1  0  0  0
  1  3  1  0  0  0
M  END
> <minimizedAffinity>
-6.23992

$$$$
4UIN_QI9_H_1226


 25 28  0  0  0  0  0  0  0  0999 V2000
    5.2189   -9.7825  -56.6042 O   0  0  0  0  0  0  0  0  0  0  0  0
    5.6835   -8.4554  -56.6644 C   0  0  0  0  0  0  0  0  0  0  0  0
    5.0623  -10.0286  -55.6791 H   0  0  0  0  0  0  0  0  0  0  0  0
    5.9558   -7.9802  -58.0610 C   0  0  0  0  0  0  0  0  0  0  0  0
    7.2902   -7.9074  -58.5258 C   0  0  0  0  0  0  0  0  0  0  0  0
    7.5462   -7.4670  -59.8132 C   0  0  0  0  0  0  0  0  0  0  0  0
    6.5876   -7.0839  -60.6971 N   0  0  0  0  0  0  0  0  0  0  0  0
    5.2717   -7.1445  -60.2561 C   0  0  0  0  0  0  0  0  0  0  0  0
    4.9003   -7.5892  -58.9302 C   0  0  0  0  0  0  0  0  0  0  0  0
    3.5327   -7.6139  -58.5745 C   0  0  0  0  0  0  0  0  0  0  0  0
    4.2671   -6.7476  -61.1669 C   0  0  0  0  0  0  0  0  0  0  0  0
    2.9296   -6.7887  -60.7814 C   0  0  0  0  0  0  0  0  0  0  0  0
    2.5723   -7.2184  -59.5107 C   0  0  0  0  0  0  0  0  0  0  0  0
    1.2238   -7.2466  -59.1395 O   0  0  0  0  0  0  0  0  0  0  0  0
    0.1556   -6.8959  -60.0006 C   0  0  0  0  0  0  0  0  0  0  0  0
    6.9658   -8.3074  -55.7914 C   0  0  0  0  0  0  0  0  0  0  0  0
    6.7769   -7.3450  -54.6013 N   0  0  0  0  0  0  0  0  0  0  0  0
    6.0112   -7.9986  -53.4394 C   0  0  0  0  0  0  0  0  0  0  0  0
    6.7884   -9.2216  -52.9527 C   0  0  0  0  0  0  0  0  0  0  0  0
    8.2544   -6.9406  -54.0709 C   0  0  0  0  0  0  0  0  0  0  0  0
    8.9874   -8.2234  -53.6567 C   0  0  0  0  0  0  0  0  0  0  0  0
    8.0364   -9.4327  -53.8135 C   0  0  0  0  0  0  0  0  0  0  0  0
    7.5512   -9.6183  -55.2540 C   0  0  0  0  0  0  0  0  0  0  0  0
   10.2853   -8.5199  -54.3732 C   0  0  0  0  0  0  0  0  0  0  0  0
   10.8424   -7.8789  -55.4054 C   0  0  0  0  0  0  0  0  0  0  0  0
 20 17  1  0  0  0
 20 21  1  0  0  0
 17 18  1  0  0  0
 17 16  1  0  0  0
 18 19  1  0  0  0
 21 24  1  0  0  0
 21 22  1  0  0  0
 14 15  1  0  0  0
 14 13  1  0  0  0
 25 24  2  0  0  0
 19 22  1  0  0  0
 16  2  1  0  0  0
 16 23  1  0  0  0
 22 23  1  0  0  0
 13 10  2  0  0  0
 13 12  1  0  0  0
 10  9  1  0  0  0
  2  1  1  0  0  0
  2  4  1  0  0  0
 12 11  2  0  0  0
  9  4  2  0  0  0
  9  8  1  0  0  0
  4  5  1  0  0  0
 11  8  1  0  0  0
  8  7  2  0  0  0
  5  6  2  0  0  0
  7  6  1  0  0  0
  1  3  1  0  0  0
M  END
> <minimizedAffinity>
-6.17172

$$$$
4UIN_QI9_H_1226


 25 28  0  0  0  0  0  0  0  0999 V2000
    5.1205   -9.3675  -56.6201 O   0  0  0  0  0  0  0  0  0  0  0  0
    5.5464   -8.0463  -56.3891 C   0  0  0  0  0  0  0  0  0  0  0  0
    5.0735   -9.8442  -55.7766 H   0  0  0  0  0  0  0  0  0  0  0  0
    5.6507   -7.2246  -57.6399 C   0  0  0  0  0  0  0  0  0  0  0  0
    6.0458   -7.8425  -58.8499 C   0  0  0  0  0  0  0  0  0  0  0  0
    6.1458   -7.0874  -60.0061 C   0  0  0  0  0  0  0  0  0  0  0  0
    5.8884   -5.7548  -60.0760 N   0  0  0  0  0  0  0  0  0  0  0  0
    5.5036   -5.1306  -58.8961 C   0  0  0  0  0  0  0  0  0  0  0  0
    5.3708   -5.8303  -57.6367 C   0  0  0  0  0  0  0  0  0  0  0  0
    4.9745   -5.1059  -56.4896 C   0  0  0  0  0  0  0  0  0  0  0  0
    5.2344   -3.7450  -58.9575 C   0  0  0  0  0  0  0  0  0  0  0  0
    4.8430   -3.0656  -57.8066 C   0  0  0  0  0  0  0  0  0  0  0  0
    4.7121   -3.7369  -56.5986 C   0  0  0  0  0  0  0  0  0  0  0  0
    4.3241   -3.0359  -55.4517 O   0  0  0  0  0  0  0  0  0  0  0  0
    3.1207   -3.2745  -54.7444 C   0  0  0  0  0  0  0  0  0  0  0  0
    6.9145   -8.0578  -55.6432 C   0  0  0  0  0  0  0  0  0  0  0  0
    6.8405   -7.4264  -54.2382 N   0  0  0  0  0  0  0  0  0  0  0  0
    6.2210   -8.3795  -53.2031 C   0  0  0  0  0  0  0  0  0  0  0  0
    7.0708   -9.6473  -53.1184 C   0  0  0  0  0  0  0  0  0  0  0  0
    8.3596   -7.0968  -53.7786 C   0  0  0  0  0  0  0  0  0  0  0  0
    9.1585   -8.4068  -53.7741 C   0  0  0  0  0  0  0  0  0  0  0  0
    8.2194   -9.5832  -54.1282 C   0  0  0  0  0  0  0  0  0  0  0  0
    7.5810   -9.4322  -55.5118 C   0  0  0  0  0  0  0  0  0  0  0  0
   10.3744   -8.4585  -54.6712 C   0  0  0  0  0  0  0  0  0  0  0  0
   11.6611   -8.2804  -54.3560 C   0  0  0  0  0  0  0  0  0  0  0  0
 20 17  1  0  0  0
 20 21  1  0  0  0
 17 18  1  0  0  0
 17 16  1  0  0  0
 18 19  1  0  0  0
 21 24  1  0  0  0
 21 22  1  0  0  0
 14 15  1  0  0  0
 14 13  1  0  0  0
 25 24  2  0  0  0
 19 22  1  0  0  0
 16  2  1  0  0  0
 16 23  1  0  0  0
 22 23  1  0  0  0
 13 10  2  0  0  0
 13 12  1  0  0  0
 10  9  1  0  0  0
  2  1  1  0  0  0
  2  4  1  0  0  0
 12 11  2  0  0  0
  9  4  2  0  0  0
  9  8  1  0  0  0
  4  5  1  0  0  0
 11  8  1  0  0  0
  8  7  2  0  0  0
  5  6  2  0  0  0
  7  6  1  0  0  0
  1  3  1  0  0  0
M  END
> <minimizedAffinity>
-6.09130

$$$$
4UIN_QI9_H_1226


 25 28  0  0  0  0  0  0  0  0999 V2000
    4.0914   -8.1912  -56.4768 O   0  0  0  0  0  0  0  0  0  0  0  0
    4.6264   -7.5059  -55.3701 C   0  0  0  0  0  0  0  0  0  0  0  0
    4.3317   -9.1294  -56.4231 H   0  0  0  0  0  0  0  0  0  0  0  0
    4.3072   -6.0402  -55.3633 C   0  0  0  0  0  0  0  0  0  0  0  0
    3.4532   -5.5164  -54.3640 C   0  0  0  0  0  0  0  0  0  0  0  0
    3.1540   -4.1647  -54.3555 C   0  0  0  0  0  0  0  0  0  0  0  0
    3.6282   -3.2689  -55.2609 N   0  0  0  0  0  0  0  0  0  0  0  0
    4.4646   -3.7664  -56.2522 C   0  0  0  0  0  0  0  0  0  0  0  0
    4.8364   -5.1614  -56.3483 C   0  0  0  0  0  0  0  0  0  0  0  0
    5.6928   -5.5711  -57.3954 C   0  0  0  0  0  0  0  0  0  0  0  0
    4.9626   -2.8437  -57.1992 C   0  0  0  0  0  0  0  0  0  0  0  0
    5.8069   -3.2842  -58.2152 C   0  0  0  0  0  0  0  0  0  0  0  0
    6.1668   -4.6218  -58.3061 C   0  0  0  0  0  0  0  0  0  0  0  0
    7.0109   -5.0465  -59.3377 O   0  0  0  0  0  0  0  0  0  0  0  0
    6.9057   -6.3024  -59.9836 C   0  0  0  0  0  0  0  0  0  0  0  0
    6.1697   -7.7156  -55.3180 C   0  0  0  0  0  0  0  0  0  0  0  0
    6.7890   -7.3008  -53.9679 N   0  0  0  0  0  0  0  0  0  0  0  0
    6.5666   -8.3592  -52.8752 C   0  0  0  0  0  0  0  0  0  0  0  0
    7.2064   -9.6757  -53.3158 C   0  0  0  0  0  0  0  0  0  0  0  0
    8.3852   -7.1401  -54.2004 C   0  0  0  0  0  0  0  0  0  0  0  0
    8.9397   -8.4828  -54.6942 C   0  0  0  0  0  0  0  0  0  0  0  0
    7.8032   -9.5312  -54.7179 C   0  0  0  0  0  0  0  0  0  0  0  0
    6.6529   -9.1328  -55.6468 C   0  0  0  0  0  0  0  0  0  0  0  0
    9.6311   -8.4738  -56.0387 C   0  0  0  0  0  0  0  0  0  0  0  0
    9.5983   -7.5411  -56.9957 C   0  0  0  0  0  0  0  0  0  0  0  0
 20 17  1  0  0  0
 20 21  1  0  0  0
 17 18  1  0  0  0
 17 16  1  0  0  0
 18 19  1  0  0  0
 21 24  1  0  0  0
 21 22  1  0  0  0
 14 15  1  0  0  0
 14 13  1  0  0  0
 25 24  2  0  0  0
 19 22  1  0  0  0
 16  2  1  0  0  0
 16 23  1  0  0  0
 22 23  1  0  0  0
 13 10  2  0  0  0
 13 12  1  0  0  0
 10  9  1  0  0  0
  2  1  1  0  0  0
  2  4  1  0  0  0
 12 11  2  0  0  0
  9  4  2  0  0  0
  9  8  1  0  0  0
  4  5  1  0  0  0
 11  8  1  0  0  0
  8  7  2  0  0  0
  5  6  2  0  0  0
  7  6  1  0  0  0
  1  3  1  0  0  0
M  END
> <minimizedAffinity>
-6.01405

$$$$
4UIN_QI9_H_1226


 25 28  0  0  0  0  0  0  0  0999 V2000
    5.2345   -9.7548  -56.6127 O   0  0  0  0  0  0  0  0  0  0  0  0
    5.6740   -8.4179  -56.6236 C   0  0  0  0  0  0  0  0  0  0  0  0
    5.1445  -10.0580  -55.6957 H   0  0  0  0  0  0  0  0  0  0  0  0
    5.8442   -7.8559  -58.0041 C   0  0  0  0  0  0  0  0  0  0  0  0
    5.1083   -6.7095  -58.3866 C   0  0  0  0  0  0  0  0  0  0  0  0
    5.2605   -6.1890  -59.6605 C   0  0  0  0  0  0  0  0  0  0  0  0
    6.0859   -6.7082  -60.6072 N   0  0  0  0  0  0  0  0  0  0  0  0
    6.8128   -7.8370  -60.2505 C   0  0  0  0  0  0  0  0  0  0  0  0
    6.7239   -8.4569  -58.9461 C   0  0  0  0  0  0  0  0  0  0  0  0
    7.5035   -9.6052  -58.6793 C   0  0  0  0  0  0  0  0  0  0  0  0
    7.6734   -8.3854  -61.2276 C   0  0  0  0  0  0  0  0  0  0  0  0
    8.4287   -9.5161  -60.9268 C   0  0  0  0  0  0  0  0  0  0  0  0
    8.3464  -10.1094  -59.6745 C   0  0  0  0  0  0  0  0  0  0  0  0
    9.1081  -11.2487  -59.3932 O   0  0  0  0  0  0  0  0  0  0  0  0
   10.3651  -11.5288  -59.9821 C   0  0  0  0  0  0  0  0  0  0  0  0
    7.0100   -8.2973  -55.8306 C   0  0  0  0  0  0  0  0  0  0  0  0
    6.9577   -7.2281  -54.7205 N   0  0  0  0  0  0  0  0  0  0  0  0
    6.2120   -7.7224  -53.4702 C   0  0  0  0  0  0  0  0  0  0  0  0
    6.9242   -8.9572  -52.9181 C   0  0  0  0  0  0  0  0  0  0  0  0
    8.4877   -6.8963  -54.3001 C   0  0  0  0  0  0  0  0  0  0  0  0
    9.1475   -8.1930  -53.8128 C   0  0  0  0  0  0  0  0  0  0  0  0
    8.1040   -9.3343  -53.8175 C   0  0  0  0  0  0  0  0  0  0  0  0
    7.5276   -9.6005  -55.2109 C   0  0  0  0  0  0  0  0  0  0  0  0
   10.3788   -8.6469  -54.5636 C   0  0  0  0  0  0  0  0  0  0  0  0
   11.6652   -8.3990  -54.2984 C   0  0  0  0  0  0  0  0  0  0  0  0
 20 17  1  0  0  0
 20 21  1  0  0  0
 17 18  1  0  0  0
 17 16  1  0  0  0
 18 19  1  0  0  0
 21 24  1  0  0  0
 21 22  1  0  0  0
 14 15  1  0  0  0
 14 13  1  0  0  0
 25 24  2  0  0  0
 19 22  1  0  0  0
 16  2  1  0  0  0
 16 23  1  0  0  0
 22 23  1  0  0  0
 13 10  2  0  0  0
 13 12  1  0  0  0
 10  9  1  0  0  0
  2  1  1  0  0  0
  2  4  1  0  0  0
 12 11  2  0  0  0
  9  4  2  0  0  0
  9  8  1  0  0  0
  4  5  1  0  0  0
 11  8  1  0  0  0
  8  7  2  0  0  0
  5  6  2  0  0  0
  7  6  1  0  0  0
  1  3  1  0  0  0
M  END
> <minimizedAffinity>
-5.75565

$$$$
4UIN_QI9_H_1226


 25 28  0  0  0  0  0  0  0  0999 V2000
    5.5945  -10.4742  -56.2308 O   0  0  0  0  0  0  0  0  0  0  0  0
    6.6471   -9.6227  -56.6150 C   0  0  0  0  0  0  0  0  0  0  0  0
    5.0488  -10.6834  -57.0050 H   0  0  0  0  0  0  0  0  0  0  0  0
    7.5513   -9.2407  -55.4806 C   0  0  0  0  0  0  0  0  0  0  0  0
    7.0149   -9.0937  -54.1795 C   0  0  0  0  0  0  0  0  0  0  0  0
    7.8454   -8.7389  -53.1301 C   0  0  0  0  0  0  0  0  0  0  0  0
    9.1795   -8.5103  -53.2519 N   0  0  0  0  0  0  0  0  0  0  0  0
    9.7225   -8.6455  -54.5234 C   0  0  0  0  0  0  0  0  0  0  0  0
    8.9399   -9.0112  -55.6841 C   0  0  0  0  0  0  0  0  0  0  0  0
    9.5844   -9.1220  -56.9371 C   0  0  0  0  0  0  0  0  0  0  0  0
   11.1087   -8.4093  -54.6613 C   0  0  0  0  0  0  0  0  0  0  0  0
   11.7093   -8.5313  -55.9118 C   0  0  0  0  0  0  0  0  0  0  0  0
   10.9597   -8.8854  -57.0252 C   0  0  0  0  0  0  0  0  0  0  0  0
   11.5797   -8.9967  -58.2744 O   0  0  0  0  0  0  0  0  0  0  0  0
   12.0399  -10.2169  -58.8266 C   0  0  0  0  0  0  0  0  0  0  0  0
    6.0681   -8.3428  -57.2895 C   0  0  0  0  0  0  0  0  0  0  0  0
    4.6046   -8.0618  -56.8927 N   0  0  0  0  0  0  0  0  0  0  0  0
    4.4909   -7.4279  -55.4968 C   0  0  0  0  0  0  0  0  0  0  0  0
    5.2571   -6.1052  -55.4836 C   0  0  0  0  0  0  0  0  0  0  0  0
    4.0056   -7.0146  -57.9754 C   0  0  0  0  0  0  0  0  0  0  0  0
    4.8607   -5.7411  -57.9409 C   0  0  0  0  0  0  0  0  0  0  0  0
    5.9349   -5.8726  -56.8362 C   0  0  0  0  0  0  0  0  0  0  0  0
    6.8755   -7.0588  -57.0668 C   0  0  0  0  0  0  0  0  0  0  0  0
    5.5310   -5.3432  -59.2363 C   0  0  0  0  0  0  0  0  0  0  0  0
    5.6618   -6.0451  -60.3664 C   0  0  0  0  0  0  0  0  0  0  0  0
 20 17  1  0  0  0
 20 21  1  0  0  0
 17 18  1  0  0  0
 17 16  1  0  0  0
 18 19  1  0  0  0
 21 24  1  0  0  0
 21 22  1  0  0  0
 14 15  1  0  0  0
 14 13  1  0  0  0
 25 24  2  0  0  0
 19 22  1  0  0  0
 16  2  1  0  0  0
 16 23  1  0  0  0
 22 23  1  0  0  0
 13 10  2  0  0  0
 13 12  1  0  0  0
 10  9  1  0  0  0
  2  1  1  0  0  0
  2  4  1  0  0  0
 12 11  2  0  0  0
  9  4  2  0  0  0
  9  8  1  0  0  0
  4  5  1  0  0  0
 11  8  1  0  0  0
  8  7  2  0  0  0
  5  6  2  0  0  0
  7  6  1  0  0  0
  1  3  1  0  0  0
M  END
> <minimizedAffinity>
-5.65488

$$$$
