1XAP_TTB_A_1


 27 29  0  0  0  0  0  0  0  0999 V2000
   43.6713   21.2069  100.0613 C   0  0  0  0  0  0  0  0  0  0  0  0
   44.7537   22.1035  100.2325 C   0  0  0  0  0  0  0  0  0  0  0  0
   45.9667   21.8960   99.5626 C   0  0  0  0  0  0  0  0  0  0  0  0
   46.1780   20.7789   98.6894 C   0  0  0  0  0  0  0  0  0  0  0  0
   45.0850   19.8479   98.4985 C   0  0  0  0  0  0  0  0  0  0  0  0
   43.8631   20.0928   99.1970 C   0  0  0  0  0  0  0  0  0  0  0  0
   45.2124   18.6011   97.5778 C   0  0  0  0  0  0  0  0  0  0  0  0
   44.5458   17.3871   98.2658 C   0  0  0  0  0  0  0  0  0  0  0  0
   44.5098   18.8122   96.2136 C   0  0  0  0  0  0  0  0  0  0  0  0
   46.7001   18.2326   97.2955 C   0  0  0  0  0  0  0  0  0  0  0  0
   47.5860   19.4500   96.9379 C   0  0  0  0  0  0  0  0  0  0  0  0
   47.5559   20.6142   97.9848 C   0  0  0  0  0  0  0  0  0  0  0  0
   47.9422   21.9217   97.2513 C   0  0  0  0  0  0  0  0  0  0  0  0
   48.6404   20.3080   99.0370 C   0  0  0  0  0  0  0  0  0  0  0  0
   41.4971   20.1664  100.9924 C   0  0  0  0  0  0  0  0  0  0  0  0
   42.3551   21.4236  100.7679 C   0  0  0  0  0  0  0  0  0  0  0  0
   42.0438   22.7213  101.1314 C   0  0  0  0  0  0  0  0  0  0  0  0
   40.8651   23.3394  101.8182 C   0  0  0  0  0  0  0  0  0  0  0  0
   40.5777   24.7138  101.5289 C   0  0  0  0  0  0  0  0  0  0  0  0
   39.4832   25.3812  102.1234 C   0  0  0  0  0  0  0  0  0  0  0  0
   38.6190   24.6976  103.0301 C   0  0  0  0  0  0  0  0  0  0  0  0
   38.9041   23.3358  103.3291 C   0  0  0  0  0  0  0  0  0  0  0  0
   40.0051   22.6722  102.7302 C   0  0  0  0  0  0  0  0  0  0  0  0
   37.4461   25.3889  103.6536 C   0  0  0  0  0  0  0  0  0  0  0  0
   36.7633   24.7916  104.4938 O   0  0  0  0  0  0  0  0  0  0  0  0
   37.1826   26.5521  103.3249 O   0  0  0  0  0  0  0  0  0  0  0  0
   36.9772   23.9107  104.7309 H   0  0  0  0  0  0  0  0  0  0  0  0
 15 16  1  0  0  0
 16 17  2  0  0  0
 16  1  1  0  0  0
 17 18  1  0  0  0
 18 19  2  0  0  0
 18 23  1  0  0  0
 19 20  1  0  0  0
 20 21  2  0  0  0
 21 24  1  0  0  0
 21 22  1  0  0  0
 24 25  1  0  0  0
 24 26  2  0  0  0
 22 23  2  0  0  0
  1  2  2  0  0  0
  1  6  1  0  0  0
  2  3  1  0  0  0
  3  4  2  0  0  0
  4  5  1  0  0  0
  4 12  1  0  0  0
  5  6  2  0  0  0
  5  7  1  0  0  0
  7  8  1  0  0  0
  7  9  1  0  0  0
  7 10  1  0  0  0
 10 11  1  0  0  0
 11 12  1  0  0  0
 12 13  1  0  0  0
 12 14  1  0  0  0
 25 27  1  0  0  0
M  END
> <minimizedAffinity>
-14.88525

$$$$
1XAP_TTB_A_1


 27 29  0  0  0  0  0  0  0  0999 V2000
   43.6652   21.3435  100.0216 C   0  0  0  0  0  0  0  0  0  0  0  0
   43.1031   20.0529   99.8691 C   0  0  0  0  0  0  0  0  0  0  0  0
   43.7761   19.0613   99.1430 C   0  0  0  0  0  0  0  0  0  0  0  0
   45.0442   19.2975   98.5178 C   0  0  0  0  0  0  0  0  0  0  0  0
   45.6392   20.6104   98.6599 C   0  0  0  0  0  0  0  0  0  0  0  0
   44.9244   21.5953   99.4083 C   0  0  0  0  0  0  0  0  0  0  0  0
   47.0079   20.9718   98.0161 C   0  0  0  0  0  0  0  0  0  0  0  0
   46.9272   22.3903   97.4055 C   0  0  0  0  0  0  0  0  0  0  0  0
   48.1564   20.9724   99.0554 C   0  0  0  0  0  0  0  0  0  0  0  0
   47.3970   19.9826   96.8765 C   0  0  0  0  0  0  0  0  0  0  0  0
   47.1750   18.4950   97.2404 C   0  0  0  0  0  0  0  0  0  0  0  0
   45.7270   18.1462   97.7237 C   0  0  0  0  0  0  0  0  0  0  0  0
   45.8127   16.8706   98.5969 C   0  0  0  0  0  0  0  0  0  0  0  0
   44.8941   17.8208   96.4677 C   0  0  0  0  0  0  0  0  0  0  0  0
   43.8463   23.5501  101.3537 C   0  0  0  0  0  0  0  0  0  0  0  0
   42.9570   22.4185  100.8100 C   0  0  0  0  0  0  0  0  0  0  0  0
   41.5913   22.2778  100.9769 C   0  0  0  0  0  0  0  0  0  0  0  0
   40.5546   23.0964  101.6829 C   0  0  0  0  0  0  0  0  0  0  0  0
   40.5000   24.4967  101.3805 C   0  0  0  0  0  0  0  0  0  0  0  0
   39.5524   25.3486  101.9914 C   0  0  0  0  0  0  0  0  0  0  0  0
   38.6077   24.8332  102.9286 C   0  0  0  0  0  0  0  0  0  0  0  0
   38.6625   23.4458  103.2405 C   0  0  0  0  0  0  0  0  0  0  0  0
   39.6171   22.5965  102.6250 C   0  0  0  0  0  0  0  0  0  0  0  0
   37.5877   25.7222  103.5700 C   0  0  0  0  0  0  0  0  0  0  0  0
   37.6426   26.9437  103.3859 O   0  0  0  0  0  0  0  0  0  0  0  0
   36.6987   25.2198  104.2685 O   0  0  0  0  0  0  0  0  0  0  0  0
   38.3229   27.3072  102.8540 H   0  0  0  0  0  0  0  0  0  0  0  0
 15 16  1  0  0  0
 16 17  2  0  0  0
 16  1  1  0  0  0
 17 18  1  0  0  0
 18 19  2  0  0  0
 18 23  1  0  0  0
 19 20  1  0  0  0
 20 21  2  0  0  0
 21 24  1  0  0  0
 21 22  1  0  0  0
 24 25  1  0  0  0
 24 26  2  0  0  0
 22 23  2  0  0  0
  1  2  2  0  0  0
  1  6  1  0  0  0
  2  3  1  0  0  0
  3  4  2  0  0  0
  4  5  1  0  0  0
  4 12  1  0  0  0
  5  6  2  0  0  0
  5  7  1  0  0  0
  7  8  1  0  0  0
  7  9  1  0  0  0
  7 10  1  0  0  0
 10 11  1  0  0  0
 11 12  1  0  0  0
 12 13  1  0  0  0
 12 14  1  0  0  0
 25 27  1  0  0  0
M  END
> <minimizedAffinity>
-14.35058

$$$$
1XAP_TTB_A_1


 27 29  0  0  0  0  0  0  0  0999 V2000
   43.2235   20.6671   99.8873 C   0  0  0  0  0  0  0  0  0  0  0  0
   43.1853   19.4401  100.5928 C   0  0  0  0  0  0  0  0  0  0  0  0
   43.6572   18.2606  100.0017 C   0  0  0  0  0  0  0  0  0  0  0  0
   44.1869   18.2301   98.6700 C   0  0  0  0  0  0  0  0  0  0  0  0
   44.2363   19.4732   97.9284 C   0  0  0  0  0  0  0  0  0  0  0  0
   43.7474   20.6556   98.5642 C   0  0  0  0  0  0  0  0  0  0  0  0
   44.7863   19.5480   96.4757 C   0  0  0  0  0  0  0  0  0  0  0  0
   43.8762   20.4699   95.6311 C   0  0  0  0  0  0  0  0  0  0  0  0
   46.2205   20.1311   96.4270 C   0  0  0  0  0  0  0  0  0  0  0  0
   44.8173   18.1490   95.7899 C   0  0  0  0  0  0  0  0  0  0  0  0
   45.3894   17.0271   96.6893 C   0  0  0  0  0  0  0  0  0  0  0  0
   44.6872   16.8791   98.0811 C   0  0  0  0  0  0  0  0  0  0  0  0
   45.6925   16.2115   99.0509 C   0  0  0  0  0  0  0  0  0  0  0  0
   43.4910   15.9256   97.8882 C   0  0  0  0  0  0  0  0  0  0  0  0
   43.7941   23.0285  100.7674 C   0  0  0  0  0  0  0  0  0  0  0  0
   42.7288   21.9477  100.5150 C   0  0  0  0  0  0  0  0  0  0  0  0
   41.3799   22.0211  100.8117 C   0  0  0  0  0  0  0  0  0  0  0  0
   40.5223   23.0808  101.4321 C   0  0  0  0  0  0  0  0  0  0  0  0
   39.5712   22.6659  102.4213 C   0  0  0  0  0  0  0  0  0  0  0  0
   38.7231   23.5938  103.0664 C   0  0  0  0  0  0  0  0  0  0  0  0
   38.7957   24.9847  102.7558 C   0  0  0  0  0  0  0  0  0  0  0  0
   39.7310   25.4023  101.7679 C   0  0  0  0  0  0  0  0  0  0  0  0
   40.5784   24.4656  101.1230 C   0  0  0  0  0  0  0  0  0  0  0  0
   37.9142   25.9801  103.4446 C   0  0  0  0  0  0  0  0  0  0  0  0
   38.2056   27.1811  103.4059 O   0  0  0  0  0  0  0  0  0  0  0  0
   36.9010   25.5864  104.0354 O   0  0  0  0  0  0  0  0  0  0  0  0
   38.9769   27.4617  102.9538 H   0  0  0  0  0  0  0  0  0  0  0  0
 15 16  1  0  0  0
 16 17  2  0  0  0
 16  1  1  0  0  0
 17 18  1  0  0  0
 18 19  2  0  0  0
 18 23  1  0  0  0
 19 20  1  0  0  0
 20 21  2  0  0  0
 21 24  1  0  0  0
 21 22  1  0  0  0
 24 25  1  0  0  0
 24 26  2  0  0  0
 22 23  2  0  0  0
  1  2  2  0  0  0
  1  6  1  0  0  0
  2  3  1  0  0  0
  3  4  2  0  0  0
  4  5  1  0  0  0
  4 12  1  0  0  0
  5  6  2  0  0  0
  5  7  1  0  0  0
  7  8  1  0  0  0
  7  9  1  0  0  0
  7 10  1  0  0  0
 10 11  1  0  0  0
 11 12  1  0  0  0
 12 13  1  0  0  0
 12 14  1  0  0  0
 25 27  1  0  0  0
M  END
> <minimizedAffinity>
-13.70304

$$$$
1XAP_TTB_A_1


 27 29  0  0  0  0  0  0  0  0999 V2000
   43.3550   20.9902   99.8512 C   0  0  0  0  0  0  0  0  0  0  0  0
   43.6160   19.6929   99.3475 C   0  0  0  0  0  0  0  0  0  0  0  0
   44.7727   19.4357   98.5996 C   0  0  0  0  0  0  0  0  0  0  0  0
   45.7341   20.4561   98.3007 C   0  0  0  0  0  0  0  0  0  0  0  0
   45.4887   21.7914   98.8054 C   0  0  0  0  0  0  0  0  0  0  0  0
   44.2996   22.0154   99.5650 C   0  0  0  0  0  0  0  0  0  0  0  0
   46.4652   22.9706   98.5328 C   0  0  0  0  0  0  0  0  0  0  0  0
   45.6509   24.2417   98.1969 C   0  0  0  0  0  0  0  0  0  0  0  0
   47.3481   23.2902   99.7647 C   0  0  0  0  0  0  0  0  0  0  0  0
   47.4126   22.6787   97.3304 C   0  0  0  0  0  0  0  0  0  0  0  0
   48.0308   21.2602   97.3548 C   0  0  0  0  0  0  0  0  0  0  0  0
   46.9921   20.0930   97.4595 C   0  0  0  0  0  0  0  0  0  0  0  0
   47.7138   18.8697   98.0756 C   0  0  0  0  0  0  0  0  0  0  0  0
   46.5656   19.7332   96.0222 C   0  0  0  0  0  0  0  0  0  0  0  0
   41.3035   20.0531  101.1120 C   0  0  0  0  0  0  0  0  0  0  0  0
   42.1187   21.2797  100.6675 C   0  0  0  0  0  0  0  0  0  0  0  0
   41.8333   22.6084  100.9247 C   0  0  0  0  0  0  0  0  0  0  0  0
   40.7271   23.2952  101.6650 C   0  0  0  0  0  0  0  0  0  0  0  0
   40.5138   24.6864  101.3924 C   0  0  0  0  0  0  0  0  0  0  0  0
   39.4907   25.4176  102.0367 C   0  0  0  0  0  0  0  0  0  0  0  0
   38.6264   24.7844  102.9793 C   0  0  0  0  0  0  0  0  0  0  0  0
   38.8387   23.4059  103.2619 C   0  0  0  0  0  0  0  0  0  0  0  0
   39.8684   22.6781  102.6127 C   0  0  0  0  0  0  0  0  0  0  0  0
   37.5279   25.5442  103.6563 C   0  0  0  0  0  0  0  0  0  0  0  0
   36.6547   24.9279  104.2780 O   0  0  0  0  0  0  0  0  0  0  0  0
   37.5152   26.7796  103.5908 O   0  0  0  0  0  0  0  0  0  0  0  0
   36.6798   23.9920  104.3173 H   0  0  0  0  0  0  0  0  0  0  0  0
 15 16  1  0  0  0
 16 17  2  0  0  0
 16  1  1  0  0  0
 17 18  1  0  0  0
 18 19  2  0  0  0
 18 23  1  0  0  0
 19 20  1  0  0  0
 20 21  2  0  0  0
 21 24  1  0  0  0
 21 22  1  0  0  0
 24 25  1  0  0  0
 24 26  2  0  0  0
 22 23  2  0  0  0
  1  2  2  0  0  0
  1  6  1  0  0  0
  2  3  1  0  0  0
  3  4  2  0  0  0
  4  5  1  0  0  0
  4 12  1  0  0  0
  5  6  2  0  0  0
  5  7  1  0  0  0
  7  8  1  0  0  0
  7  9  1  0  0  0
  7 10  1  0  0  0
 10 11  1  0  0  0
 11 12  1  0  0  0
 12 13  1  0  0  0
 12 14  1  0  0  0
 25 27  1  0  0  0
M  END
> <minimizedAffinity>
-13.21550

$$$$
