3D8W_D8W_A_301


 22 23  0  0  0  0  0  0  0  0999 V2000
   -3.9176    2.4751   13.6626 N   0  0  0  0  0  0  0  0  0  0  0  0
   -3.7784    1.5031   13.7343 H   0  0  0  0  0  0  0  0  0  0  0  0
   -3.9465    2.9815   12.4024 C   0  0  0  0  0  0  0  0  0  0  0  0
   -2.8841    4.1967   11.8426 S   0  0  0  0  0  0  0  0  0  0  0  0
   -4.8218    2.5679   11.4546 N   0  0  0  0  0  0  0  0  0  0  0  0
   -4.6357    3.2730   10.2349 N   0  0  0  0  0  0  0  0  0  0  0  0
   -3.6372    4.1720   10.2836 C   0  0  0  0  0  0  0  0  0  0  0  0
   -2.9976    4.9557    8.9578 S   0  0  0  0  0  0  0  0  0  0  0  0
   -2.6291    6.2677    9.3998 O   0  0  0  0  0  0  0  0  0  0  0  0
   -1.8798    4.2034    8.5386 O   0  0  0  0  0  0  0  0  0  0  0  0
   -4.1300    5.0544    7.8548 N   0  0  0  0  0  0  0  0  0  0  0  0
   -4.9079    5.6074    8.2147 H   0  0  0  0  0  0  0  0  0  0  0  0
   -4.4587    4.1177    7.6203 H   0  0  0  0  0  0  0  0  0  0  0  0
   -4.0734    3.2219   14.9701 S   0  0  0  0  0  0  0  0  0  0  0  0
   -4.6174    4.5677   14.9530 O   0  0  0  0  0  0  0  0  0  0  0  0
   -2.7644    3.2160   15.6729 O   0  0  0  0  0  0  0  0  0  0  0  0
   -6.3847    2.9066   16.0565 C   0  0  0  0  0  0  0  0  0  0  0  0
   -7.3115    2.1891   16.8079 C   0  0  0  0  0  0  0  0  0  0  0  0
   -6.9378    0.9427   17.3050 C   0  0  0  0  0  0  0  0  0  0  0  0
   -5.6736    0.4050   17.0845 C   0  0  0  0  0  0  0  0  0  0  0  0
   -4.7471    1.1221   16.3191 C   0  0  0  0  0  0  0  0  0  0  0  0
   -5.1395    2.3492   15.8110 C   0  0  0  0  0  0  0  0  0  0  0  0
 17 18  2  0  0  0
 17 22  1  0  0  0
 18 19  1  0  0  0
 19 20  2  0  0  0
 20 21  1  0  0  0
 21 22  2  0  0  0
 22 14  1  0  0  0
 14 15  2  0  0  0
 14 16  2  0  0  0
 14  1  1  0  0  0
  1  3  1  0  0  0
  3  4  1  0  0  0
  3  5  2  0  0  0
  4  7  1  0  0  0
  5  6  1  0  0  0
  6  7  2  0  0  0
  7  8  1  0  0  0
  8  9  2  0  0  0
  8 10  2  0  0  0
  8 11  1  0  0  0
  1  2  1  0  0  0
 11 12  1  0  0  0
 11 13  1  0  0  0
M  END
> <minimizedAffinity>
-7.46474

$$$$
3D8W_D8W_A_301


 22 23  0  0  0  0  0  0  0  0999 V2000
   -4.4638    2.3781   12.3033 N   0  0  0  0  0  0  0  0  0  0  0  0
   -5.1891    2.2948   11.6428 H   0  0  0  0  0  0  0  0  0  0  0  0
   -4.6677    1.7563   13.4937 C   0  0  0  0  0  0  0  0  0  0  0  0
   -5.4982    2.4671   14.8066 S   0  0  0  0  0  0  0  0  0  0  0  0
   -4.2357    0.5001   13.7601 N   0  0  0  0  0  0  0  0  0  0  0  0
   -4.5758    0.1051   15.0821 N   0  0  0  0  0  0  0  0  0  0  0  0
   -5.2543    1.0448   15.7634 C   0  0  0  0  0  0  0  0  0  0  0  0
   -6.0234    0.7929   17.2216 S   0  0  0  0  0  0  0  0  0  0  0  0
   -5.8363   -0.5898   17.5464 O   0  0  0  0  0  0  0  0  0  0  0  0
   -5.4075    1.6469   18.1611 O   0  0  0  0  0  0  0  0  0  0  0  0
   -7.5646    1.0979   17.0206 N   0  0  0  0  0  0  0  0  0  0  0  0
   -7.9523    0.4515   16.3333 H   0  0  0  0  0  0  0  0  0  0  0  0
   -7.6813    2.0558   16.6901 H   0  0  0  0  0  0  0  0  0  0  0  0
   -3.2582    3.1833   11.8677 S   0  0  0  0  0  0  0  0  0  0  0  0
   -3.1208    3.5465   10.4689 O   0  0  0  0  0  0  0  0  0  0  0  0
   -2.0329    2.4810   12.3290 O   0  0  0  0  0  0  0  0  0  0  0  0
   -2.4750    4.8744   13.6422 C   0  0  0  0  0  0  0  0  0  0  0  0
   -2.5957    6.0624   14.3580 C   0  0  0  0  0  0  0  0  0  0  0  0
   -3.6642    6.9064   14.0643 C   0  0  0  0  0  0  0  0  0  0  0  0
   -4.6115    6.5936   13.0944 C   0  0  0  0  0  0  0  0  0  0  0  0
   -4.4822    5.4047   12.3675 C   0  0  0  0  0  0  0  0  0  0  0  0
   -3.4023    4.5861   12.6530 C   0  0  0  0  0  0  0  0  0  0  0  0
 17 18  2  0  0  0
 17 22  1  0  0  0
 18 19  1  0  0  0
 19 20  2  0  0  0
 20 21  1  0  0  0
 21 22  2  0  0  0
 22 14  1  0  0  0
 14 15  2  0  0  0
 14 16  2  0  0  0
 14  1  1  0  0  0
  1  3  1  0  0  0
  3  4  1  0  0  0
  3  5  2  0  0  0
  4  7  1  0  0  0
  5  6  1  0  0  0
  6  7  2  0  0  0
  7  8  1  0  0  0
  8  9  2  0  0  0
  8 10  2  0  0  0
  8 11  1  0  0  0
  1  2  1  0  0  0
 11 12  1  0  0  0
 11 13  1  0  0  0
M  END
> <minimizedAffinity>
-7.34995

$$$$
3D8W_D8W_A_301


 22 23  0  0  0  0  0  0  0  0999 V2000
   -4.9995    5.8436   13.5128 N   0  0  0  0  0  0  0  0  0  0  0  0
   -5.1641    6.6649   14.0301 H   0  0  0  0  0  0  0  0  0  0  0  0
   -5.1988    4.6733   14.1733 C   0  0  0  0  0  0  0  0  0  0  0  0
   -3.9634    3.5340   14.4807 S   0  0  0  0  0  0  0  0  0  0  0  0
   -6.4029    4.2916   14.6632 N   0  0  0  0  0  0  0  0  0  0  0  0
   -6.3252    3.0218   15.2965 N   0  0  0  0  0  0  0  0  0  0  0  0
   -5.0895    2.4924   15.2839 C   0  0  0  0  0  0  0  0  0  0  0  0
   -4.6167    1.1599   16.1682 S   0  0  0  0  0  0  0  0  0  0  0  0
   -4.9309    0.0112   15.3718 O   0  0  0  0  0  0  0  0  0  0  0  0
   -3.2291    1.2884   16.3903 O   0  0  0  0  0  0  0  0  0  0  0  0
   -5.4614    1.1373   17.5078 N   0  0  0  0  0  0  0  0  0  0  0  0
   -6.4520    1.0430   17.2835 H   0  0  0  0  0  0  0  0  0  0  0  0
   -5.3100    2.0062   18.0200 H   0  0  0  0  0  0  0  0  0  0  0  0
   -4.5556    6.0397   12.0789 S   0  0  0  0  0  0  0  0  0  0  0  0
   -4.8791    5.0222   11.0952 O   0  0  0  0  0  0  0  0  0  0  0  0
   -3.0931    6.3010   12.0718 O   0  0  0  0  0  0  0  0  0  0  0  0
   -6.7213    7.3806   11.7133 C   0  0  0  0  0  0  0  0  0  0  0  0
   -7.4264    8.4951   11.2673 C   0  0  0  0  0  0  0  0  0  0  0  0
   -6.7126    9.5420   10.6887 C   0  0  0  0  0  0  0  0  0  0  0  0
   -5.3304    9.5009   10.5343 C   0  0  0  0  0  0  0  0  0  0  0  0
   -4.6216    8.3851   10.9938 C   0  0  0  0  0  0  0  0  0  0  0  0
   -5.3408    7.3618   11.5885 C   0  0  0  0  0  0  0  0  0  0  0  0
 17 18  2  0  0  0
 17 22  1  0  0  0
 18 19  1  0  0  0
 19 20  2  0  0  0
 20 21  1  0  0  0
 21 22  2  0  0  0
 22 14  1  0  0  0
 14 15  2  0  0  0
 14 16  2  0  0  0
 14  1  1  0  0  0
  1  3  1  0  0  0
  3  4  1  0  0  0
  3  5  2  0  0  0
  4  7  1  0  0  0
  5  6  1  0  0  0
  6  7  2  0  0  0
  7  8  1  0  0  0
  8  9  2  0  0  0
  8 10  2  0  0  0
  8 11  1  0  0  0
  1  2  1  0  0  0
 11 12  1  0  0  0
 11 13  1  0  0  0
M  END
> <minimizedAffinity>
-7.15812

$$$$
3D8W_D8W_A_301


 22 23  0  0  0  0  0  0  0  0999 V2000
   -4.2643    3.6358   13.2072 N   0  0  0  0  0  0  0  0  0  0  0  0
   -4.2330    4.6190   13.2480 H   0  0  0  0  0  0  0  0  0  0  0  0
   -4.4648    2.9964   14.3889 C   0  0  0  0  0  0  0  0  0  0  0  0
   -5.9766    2.9161   15.1807 S   0  0  0  0  0  0  0  0  0  0  0  0
   -3.4821    2.3490   15.0601 N   0  0  0  0  0  0  0  0  0  0  0  0
   -3.9682    1.7809   16.2686 N   0  0  0  0  0  0  0  0  0  0  0  0
   -5.2800    1.9946   16.4706 C   0  0  0  0  0  0  0  0  0  0  0  0
   -6.1977    1.2388   17.6401 S   0  0  0  0  0  0  0  0  0  0  0  0
   -5.5093    0.0287   17.9780 O   0  0  0  0  0  0  0  0  0  0  0  0
   -6.2778    2.1270   18.7337 O   0  0  0  0  0  0  0  0  0  0  0  0
   -7.6106    0.8998   17.0096 N   0  0  0  0  0  0  0  0  0  0  0  0
   -7.4883    0.2567   16.2273 H   0  0  0  0  0  0  0  0  0  0  0  0
   -8.0500    1.7586   16.6783 H   0  0  0  0  0  0  0  0  0  0  0  0
   -4.0831    3.0221   11.8353 S   0  0  0  0  0  0  0  0  0  0  0  0
   -5.0902    3.2609   10.8173 O   0  0  0  0  0  0  0  0  0  0  0  0
   -3.8683    1.5612   11.9991 O   0  0  0  0  0  0  0  0  0  0  0  0
   -1.5866    3.6151   12.0298 C   0  0  0  0  0  0  0  0  0  0  0  0
   -0.4197    4.2224   11.5738 C   0  0  0  0  0  0  0  0  0  0  0  0
   -0.4630    4.9175   10.3675 C   0  0  0  0  0  0  0  0  0  0  0  0
   -1.6303    5.0314    9.6188 C   0  0  0  0  0  0  0  0  0  0  0  0
   -2.7996    4.4106   10.0725 C   0  0  0  0  0  0  0  0  0  0  0  0
   -2.7369    3.7029   11.2612 C   0  0  0  0  0  0  0  0  0  0  0  0
 17 18  2  0  0  0
 17 22  1  0  0  0
 18 19  1  0  0  0
 19 20  2  0  0  0
 20 21  1  0  0  0
 21 22  2  0  0  0
 22 14  1  0  0  0
 14 15  2  0  0  0
 14 16  2  0  0  0
 14  1  1  0  0  0
  1  3  1  0  0  0
  3  4  1  0  0  0
  3  5  2  0  0  0
  4  7  1  0  0  0
  5  6  1  0  0  0
  6  7  2  0  0  0
  7  8  1  0  0  0
  8  9  2  0  0  0
  8 10  2  0  0  0
  8 11  1  0  0  0
  1  2  1  0  0  0
 11 12  1  0  0  0
 11 13  1  0  0  0
M  END
> <minimizedAffinity>
-7.01303

$$$$
3D8W_D8W_A_301


 22 23  0  0  0  0  0  0  0  0999 V2000
   -3.5324    3.1874   14.2299 N   0  0  0  0  0  0  0  0  0  0  0  0
   -3.5582    3.6026   15.1222 H   0  0  0  0  0  0  0  0  0  0  0  0
   -2.6039    3.6806   13.3697 C   0  0  0  0  0  0  0  0  0  0  0  0
   -1.8635    5.2102   13.5460 S   0  0  0  0  0  0  0  0  0  0  0  0
   -2.1641    3.0034   12.2818 N   0  0  0  0  0  0  0  0  0  0  0  0
   -1.2040    3.7583   11.5553 N   0  0  0  0  0  0  0  0  0  0  0  0
   -0.9357    4.9548   12.1066 C   0  0  0  0  0  0  0  0  0  0  0  0
    0.3248    5.9488   11.6549 S   0  0  0  0  0  0  0  0  0  0  0  0
    0.1932    6.1566   10.2436 O   0  0  0  0  0  0  0  0  0  0  0  0
    0.1803    7.1484   12.3838 O   0  0  0  0  0  0  0  0  0  0  0  0
    1.6805    5.1914   11.9664 N   0  0  0  0  0  0  0  0  0  0  0  0
    1.7272    4.3362   11.4124 H   0  0  0  0  0  0  0  0  0  0  0  0
    1.7187    4.9565   12.9582 H   0  0  0  0  0  0  0  0  0  0  0  0
   -4.5323    2.0775   13.9849 S   0  0  0  0  0  0  0  0  0  0  0  0
   -4.0453    0.7403   13.6980 O   0  0  0  0  0  0  0  0  0  0  0  0
   -5.4659    2.5144   12.9149 O   0  0  0  0  0  0  0  0  0  0  0  0
   -6.2606    2.9250   15.6927 C   0  0  0  0  0  0  0  0  0  0  0  0
   -6.9438    2.8496   16.9035 C   0  0  0  0  0  0  0  0  0  0  0  0
   -6.6508    1.7943   17.7642 C   0  0  0  0  0  0  0  0  0  0  0  0
   -5.6959    0.8301   17.4570 C   0  0  0  0  0  0  0  0  0  0  0  0
   -5.0185    0.9004   16.2345 C   0  0  0  0  0  0  0  0  0  0  0  0
   -5.3362    1.9411   15.3778 C   0  0  0  0  0  0  0  0  0  0  0  0
 17 18  2  0  0  0
 17 22  1  0  0  0
 18 19  1  0  0  0
 19 20  2  0  0  0
 20 21  1  0  0  0
 21 22  2  0  0  0
 22 14  1  0  0  0
 14 15  2  0  0  0
 14 16  2  0  0  0
 14  1  1  0  0  0
  1  3  1  0  0  0
  3  4  1  0  0  0
  3  5  2  0  0  0
  4  7  1  0  0  0
  5  6  1  0  0  0
  6  7  2  0  0  0
  7  8  1  0  0  0
  8  9  2  0  0  0
  8 10  2  0  0  0
  8 11  1  0  0  0
  1  2  1  0  0  0
 11 12  1  0  0  0
 11 13  1  0  0  0
M  END
> <minimizedAffinity>
-6.92852

$$$$
3D8W_D8W_A_301


 22 23  0  0  0  0  0  0  0  0999 V2000
   -4.6663    4.3402   13.2545 N   0  0  0  0  0  0  0  0  0  0  0  0
   -4.9142    3.9927   12.3674 H   0  0  0  0  0  0  0  0  0  0  0  0
   -4.7969    3.4730   14.2920 C   0  0  0  0  0  0  0  0  0  0  0  0
   -6.1912    3.3700   15.2739 S   0  0  0  0  0  0  0  0  0  0  0  0
   -3.8316    2.5931   14.6516 N   0  0  0  0  0  0  0  0  0  0  0  0
   -4.2298    1.8181   15.7743 N   0  0  0  0  0  0  0  0  0  0  0  0
   -5.4642    2.1133   16.2175 C   0  0  0  0  0  0  0  0  0  0  0  0
   -6.3166    1.2096   17.3301 S   0  0  0  0  0  0  0  0  0  0  0  0
   -6.1906    1.8869   18.5862 O   0  0  0  0  0  0  0  0  0  0  0  0
   -7.6541    1.1662   16.8823 O   0  0  0  0  0  0  0  0  0  0  0  0
   -5.6431   -0.2213   17.4167 N   0  0  0  0  0  0  0  0  0  0  0  0
   -4.6820   -0.1254   17.7447 H   0  0  0  0  0  0  0  0  0  0  0  0
   -5.6456   -0.6548   16.4934 H   0  0  0  0  0  0  0  0  0  0  0  0
   -4.1863    5.7753   13.2951 S   0  0  0  0  0  0  0  0  0  0  0  0
   -3.0423    6.1593   12.4880 O   0  0  0  0  0  0  0  0  0  0  0  0
   -3.9522    6.1522   14.7130 O   0  0  0  0  0  0  0  0  0  0  0  0
   -6.6594    6.4861   13.3126 C   0  0  0  0  0  0  0  0  0  0  0  0
   -7.7488    7.1884   12.8044 C   0  0  0  0  0  0  0  0  0  0  0  0
   -7.5526    7.9964   11.6869 C   0  0  0  0  0  0  0  0  0  0  0  0
   -6.3142    8.1109   11.0629 C   0  0  0  0  0  0  0  0  0  0  0  0
   -5.2174    7.4136   11.5818 C   0  0  0  0  0  0  0  0  0  0  0  0
   -5.4210    6.6327   12.7072 C   0  0  0  0  0  0  0  0  0  0  0  0
 17 18  2  0  0  0
 17 22  1  0  0  0
 18 19  1  0  0  0
 19 20  2  0  0  0
 20 21  1  0  0  0
 21 22  2  0  0  0
 22 14  1  0  0  0
 14 15  2  0  0  0
 14 16  2  0  0  0
 14  1  1  0  0  0
  1  3  1  0  0  0
  3  4  1  0  0  0
  3  5  2  0  0  0
  4  7  1  0  0  0
  5  6  1  0  0  0
  6  7  2  0  0  0
  7  8  1  0  0  0
  8  9  2  0  0  0
  8 10  2  0  0  0
  8 11  1  0  0  0
  1  2  1  0  0  0
 11 12  1  0  0  0
 11 13  1  0  0  0
M  END
> <minimizedAffinity>
-6.92169

$$$$
3D8W_D8W_A_301


 22 23  0  0  0  0  0  0  0  0999 V2000
   -5.0092    3.0145   13.3275 N   0  0  0  0  0  0  0  0  0  0  0  0
   -5.5331    2.2220   13.0693 H   0  0  0  0  0  0  0  0  0  0  0  0
   -3.9217    3.2859   12.5599 C   0  0  0  0  0  0  0  0  0  0  0  0
   -3.9622    4.2857   11.1752 S   0  0  0  0  0  0  0  0  0  0  0  0
   -2.6867    2.7931   12.8195 N   0  0  0  0  0  0  0  0  0  0  0  0
   -1.7417    3.2283   11.8514 N   0  0  0  0  0  0  0  0  0  0  0  0
   -2.2693    4.0334   10.9129 C   0  0  0  0  0  0  0  0  0  0  0  0
   -1.3833    4.9177    9.8110 S   0  0  0  0  0  0  0  0  0  0  0  0
   -1.7639    6.2874    9.9889 O   0  0  0  0  0  0  0  0  0  0  0  0
   -0.0221    4.7014   10.1138 O   0  0  0  0  0  0  0  0  0  0  0  0
   -1.7824    4.4294    8.3582 N   0  0  0  0  0  0  0  0  0  0  0  0
   -2.7733    4.6114    8.1985 H   0  0  0  0  0  0  0  0  0  0  0  0
   -1.6028    3.4288    8.2744 H   0  0  0  0  0  0  0  0  0  0  0  0
   -5.5143    3.7812   14.5311 S   0  0  0  0  0  0  0  0  0  0  0  0
   -6.7589    4.5208   14.4245 O   0  0  0  0  0  0  0  0  0  0  0  0
   -4.4311    4.6823   15.0021 O   0  0  0  0  0  0  0  0  0  0  0  0
   -4.9633    1.5382   15.6658 C   0  0  0  0  0  0  0  0  0  0  0  0
   -5.2030    0.5297   16.5952 C   0  0  0  0  0  0  0  0  0  0  0  0
   -6.2891    0.6676   17.4563 C   0  0  0  0  0  0  0  0  0  0  0  0
   -7.1400    1.7674   17.4065 C   0  0  0  0  0  0  0  0  0  0  0  0
   -6.8910    2.7860   16.4797 C   0  0  0  0  0  0  0  0  0  0  0  0
   -5.7941    2.6477   15.6456 C   0  0  0  0  0  0  0  0  0  0  0  0
 17 18  2  0  0  0
 17 22  1  0  0  0
 18 19  1  0  0  0
 19 20  2  0  0  0
 20 21  1  0  0  0
 21 22  2  0  0  0
 22 14  1  0  0  0
 14 15  2  0  0  0
 14 16  2  0  0  0
 14  1  1  0  0  0
  1  3  1  0  0  0
  3  4  1  0  0  0
  3  5  2  0  0  0
  4  7  1  0  0  0
  5  6  1  0  0  0
  6  7  2  0  0  0
  7  8  1  0  0  0
  8  9  2  0  0  0
  8 10  2  0  0  0
  8 11  1  0  0  0
  1  2  1  0  0  0
 11 12  1  0  0  0
 11 13  1  0  0  0
M  END
> <minimizedAffinity>
-6.75996

$$$$
3D8W_D8W_A_301


 22 23  0  0  0  0  0  0  0  0999 V2000
   -3.9939    5.6082   13.1109 N   0  0  0  0  0  0  0  0  0  0  0  0
   -4.7516    6.2263   13.2251 H   0  0  0  0  0  0  0  0  0  0  0  0
   -4.2185    4.3174   13.4701 C   0  0  0  0  0  0  0  0  0  0  0  0
   -3.7527    3.6554   14.9746 S   0  0  0  0  0  0  0  0  0  0  0  0
   -4.8434    3.4208   12.6694 N   0  0  0  0  0  0  0  0  0  0  0  0
   -4.9336    2.1461   13.2912 N   0  0  0  0  0  0  0  0  0  0  0  0
   -4.4002    2.1138   14.5249 C   0  0  0  0  0  0  0  0  0  0  0  0
   -4.5859    0.8600   15.6087 S   0  0  0  0  0  0  0  0  0  0  0  0
   -4.6847   -0.3388   14.8305 O   0  0  0  0  0  0  0  0  0  0  0  0
   -3.4431    0.8629   16.4364 O   0  0  0  0  0  0  0  0  0  0  0  0
   -5.9327    1.0994   16.4072 N   0  0  0  0  0  0  0  0  0  0  0  0
   -6.7196    1.0866   15.7583 H   0  0  0  0  0  0  0  0  0  0  0  0
   -5.8936    2.0043   16.8763 H   0  0  0  0  0  0  0  0  0  0  0  0
   -2.7215    6.2126   12.5567 S   0  0  0  0  0  0  0  0  0  0  0  0
   -2.7606    6.8783   11.2671 O   0  0  0  0  0  0  0  0  0  0  0  0
   -1.6676    5.1655   12.5519 O   0  0  0  0  0  0  0  0  0  0  0  0
   -1.1448    8.0603   13.4063 C   0  0  0  0  0  0  0  0  0  0  0  0
   -0.7645    9.0388   14.3208 C   0  0  0  0  0  0  0  0  0  0  0  0
   -1.5821    9.2661   15.4254 C   0  0  0  0  0  0  0  0  0  0  0  0
   -2.7498    8.5422   15.6451 C   0  0  0  0  0  0  0  0  0  0  0  0
   -3.1370    7.5671   14.7189 C   0  0  0  0  0  0  0  0  0  0  0  0
   -2.3276    7.3677   13.6131 C   0  0  0  0  0  0  0  0  0  0  0  0
 17 18  2  0  0  0
 17 22  1  0  0  0
 18 19  1  0  0  0
 19 20  2  0  0  0
 20 21  1  0  0  0
 21 22  2  0  0  0
 22 14  1  0  0  0
 14 15  2  0  0  0
 14 16  2  0  0  0
 14  1  1  0  0  0
  1  3  1  0  0  0
  3  4  1  0  0  0
  3  5  2  0  0  0
  4  7  1  0  0  0
  5  6  1  0  0  0
  6  7  2  0  0  0
  7  8  1  0  0  0
  8  9  2  0  0  0
  8 10  2  0  0  0
  8 11  1  0  0  0
  1  2  1  0  0  0
 11 12  1  0  0  0
 11 13  1  0  0  0
M  END
> <minimizedAffinity>
-6.58995

$$$$
3D8W_D8W_A_301


 22 23  0  0  0  0  0  0  0  0999 V2000
   -3.5953    3.2602   13.4060 N   0  0  0  0  0  0  0  0  0  0  0  0
   -3.7798    2.9331   12.4959 H   0  0  0  0  0  0  0  0  0  0  0  0
   -4.5161    2.9405   14.3522 C   0  0  0  0  0  0  0  0  0  0  0  0
   -4.5134    1.4698   15.2214 S   0  0  0  0  0  0  0  0  0  0  0  0
   -5.5322    3.7627   14.7087 N   0  0  0  0  0  0  0  0  0  0  0  0
   -6.3483    3.1725   15.7113 N   0  0  0  0  0  0  0  0  0  0  0  0
   -5.9308    1.9523   16.0911 C   0  0  0  0  0  0  0  0  0  0  0  0
   -6.5031    1.1221   17.4194 S   0  0  0  0  0  0  0  0  0  0  0  0
   -6.2559    1.9562   18.5576 O   0  0  0  0  0  0  0  0  0  0  0  0
   -7.8818    0.9104   17.2058 O   0  0  0  0  0  0  0  0  0  0  0  0
   -5.6795   -0.2248   17.5463 N   0  0  0  0  0  0  0  0  0  0  0  0
   -4.6946   -0.0080   17.6989 H   0  0  0  0  0  0  0  0  0  0  0  0
   -5.7793   -0.7666   16.6878 H   0  0  0  0  0  0  0  0  0  0  0  0
   -2.3203    4.0577   13.5792 S   0  0  0  0  0  0  0  0  0  0  0  0
   -1.1830    3.7632   12.7263 O   0  0  0  0  0  0  0  0  0  0  0  0
   -1.9123    3.9867   15.0060 O   0  0  0  0  0  0  0  0  0  0  0  0
   -2.5456    6.5501   14.1786 C   0  0  0  0  0  0  0  0  0  0  0  0
   -2.9276    7.8599   13.9015 C   0  0  0  0  0  0  0  0  0  0  0  0
   -3.5121    8.1318   12.6668 C   0  0  0  0  0  0  0  0  0  0  0  0
   -3.7340    7.1397   11.7168 C   0  0  0  0  0  0  0  0  0  0  0  0
   -3.3387    5.8258   11.9919 C   0  0  0  0  0  0  0  0  0  0  0  0
   -2.7373    5.5735   13.2136 C   0  0  0  0  0  0  0  0  0  0  0  0
 17 18  2  0  0  0
 17 22  1  0  0  0
 18 19  1  0  0  0
 19 20  2  0  0  0
 20 21  1  0  0  0
 21 22  2  0  0  0
 22 14  1  0  0  0
 14 15  2  0  0  0
 14 16  2  0  0  0
 14  1  1  0  0  0
  1  3  1  0  0  0
  3  4  1  0  0  0
  3  5  2  0  0  0
  4  7  1  0  0  0
  5  6  1  0  0  0
  6  7  2  0  0  0
  7  8  1  0  0  0
  8  9  2  0  0  0
  8 10  2  0  0  0
  8 11  1  0  0  0
  1  2  1  0  0  0
 11 12  1  0  0  0
 11 13  1  0  0  0
M  END
> <minimizedAffinity>
-6.58703

$$$$
3D8W_D8W_A_301


 22 23  0  0  0  0  0  0  0  0999 V2000
   -4.5860    4.9419   12.1792 N   0  0  0  0  0  0  0  0  0  0  0  0
   -4.1499    4.9426   11.2966 H   0  0  0  0  0  0  0  0  0  0  0  0
   -4.5889    3.7559   12.8416 C   0  0  0  0  0  0  0  0  0  0  0  0
   -4.1470    3.5836   14.4829 S   0  0  0  0  0  0  0  0  0  0  0  0
   -4.9502    2.5837   12.2662 N   0  0  0  0  0  0  0  0  0  0  0  0
   -4.8495    1.5037   13.1843 N   0  0  0  0  0  0  0  0  0  0  0  0
   -4.4383    1.8784   14.4082 C   0  0  0  0  0  0  0  0  0  0  0  0
   -4.4785    0.9076   15.7636 S   0  0  0  0  0  0  0  0  0  0  0  0
   -4.4925   -0.4458   15.2940 O   0  0  0  0  0  0  0  0  0  0  0  0
   -3.3163    1.1988   16.5091 O   0  0  0  0  0  0  0  0  0  0  0  0
   -5.8169    1.2215   16.5502 N   0  0  0  0  0  0  0  0  0  0  0  0
   -6.6184    0.9917   15.9627 H   0  0  0  0  0  0  0  0  0  0  0  0
   -5.8451    2.2121   16.7916 H   0  0  0  0  0  0  0  0  0  0  0  0
   -5.1711    6.2627   12.6317 S   0  0  0  0  0  0  0  0  0  0  0  0
   -4.2757    7.3148   13.0776 O   0  0  0  0  0  0  0  0  0  0  0  0
   -6.1902    5.9909   13.6780 O   0  0  0  0  0  0  0  0  0  0  0  0
   -5.3612    6.5326   10.0797 C   0  0  0  0  0  0  0  0  0  0  0  0
   -5.9459    7.0591    8.9310 C   0  0  0  0  0  0  0  0  0  0  0  0
   -7.0355    7.9147    9.0755 C   0  0  0  0  0  0  0  0  0  0  0  0
   -7.5435    8.2644   10.3228 C   0  0  0  0  0  0  0  0  0  0  0  0
   -6.9623    7.7251   11.4760 C   0  0  0  0  0  0  0  0  0  0  0  0
   -5.8948    6.8573   11.3172 C   0  0  0  0  0  0  0  0  0  0  0  0
 17 18  2  0  0  0
 17 22  1  0  0  0
 18 19  1  0  0  0
 19 20  2  0  0  0
 20 21  1  0  0  0
 21 22  2  0  0  0
 22 14  1  0  0  0
 14 15  2  0  0  0
 14 16  2  0  0  0
 14  1  1  0  0  0
  1  3  1  0  0  0
  3  4  1  0  0  0
  3  5  2  0  0  0
  4  7  1  0  0  0
  5  6  1  0  0  0
  6  7  2  0  0  0
  7  8  1  0  0  0
  8  9  2  0  0  0
  8 10  2  0  0  0
  8 11  1  0  0  0
  1  2  1  0  0  0
 11 12  1  0  0  0
 11 13  1  0  0  0
M  END
> <minimizedAffinity>
-6.57007

$$$$
