3BXG_BG6_A_401


 22 22  0  0  0  0  0  0  0  0999 V2000
   68.5103   85.3723   60.4267 C   0  0  0  0  0  0  0  0  0  0  0  0
   67.6940   85.7339   61.6733 C   0  0  0  0  0  0  0  0  0  0  0  0
   67.9018   85.8643   59.2466 O   0  0  0  0  0  0  0  0  0  0  0  0
   68.7595   83.9506   60.4177 O   0  0  0  0  0  0  0  0  0  0  0  0
   68.6234   85.5896   62.8820 C   0  0  0  0  0  0  0  0  0  0  0  0
   67.1298   87.0593   61.5925 O   0  0  0  0  0  0  0  0  0  0  0  0
   69.4027   84.2430   62.7621 C   0  0  0  0  0  0  0  0  0  0  0  0
   67.7923   85.5801   64.0971 O   0  0  0  0  0  0  0  0  0  0  0  0
   69.8024   83.6953   61.3661 C   0  0  0  0  0  0  0  0  0  0  0  0
   70.6025   84.3190   63.5395 O   0  0  0  0  0  0  0  0  0  0  0  0
   67.0229   85.4662   59.1459 H   0  0  0  0  0  0  0  0  0  0  0  0
   67.8441   87.7103   61.5093 H   0  0  0  0  0  0  0  0  0  0  0  0
   67.1606   84.8454   64.0510 H   0  0  0  0  0  0  0  0  0  0  0  0
   71.2015   84.9731   63.1466 H   0  0  0  0  0  0  0  0  0  0  0  0
   70.1551   82.2017   61.4541 C   0  0  0  0  0  0  0  0  0  0  0  0
   70.0141   81.6542   62.7835 O   0  0  0  0  0  0  0  0  0  0  0  0
   69.1780   80.3100   63.0760 P   0  0  0  0  0  0  0  0  0  0  0  0
   69.6056   79.9403   64.4819 O   0  0  0  0  0  0  0  0  0  0  0  0
   67.7177   80.6894   62.9988 O   0  0  0  0  0  0  0  0  0  0  0  0
   69.6351   79.3018   62.0275 O   0  0  0  0  0  0  0  0  0  0  0  0
   69.2888   80.6139   65.1038 H   0  0  0  0  0  0  0  0  0  0  0  0
   67.5129   81.3307   63.6972 H   0  0  0  0  0  0  0  0  0  0  0  0
  1  2  1  0  0  0
  1  3  1  0  0  0
  1  4  1  0  0  0
  2  5  1  0  0  0
  2  6  1  0  0  0
  4  9  1  0  0  0
  5  7  1  0  0  0
  5  8  1  0  0  0
  7  9  1  0  0  0
  7 10  1  0  0  0
  9 15  1  0  0  0
 15 16  1  0  0  0
 16 17  1  0  0  0
 17 18  1  0  0  0
 17 19  1  0  0  0
 17 20  2  0  0  0
  3 11  1  0  0  0
  6 12  1  0  0  0
  8 13  1  0  0  0
 10 14  1  0  0  0
 18 21  1  0  0  0
 19 22  1  0  0  0
M  END
> <minimizedAffinity>
-8.58597

$$$$
3BXG_BG6_A_401


 22 22  0  0  0  0  0  0  0  0999 V2000
   68.5079   85.3659   60.4247 C   0  0  0  0  0  0  0  0  0  0  0  0
   67.7006   85.7386   61.6738 C   0  0  0  0  0  0  0  0  0  0  0  0
   67.8966   85.8567   59.2456 O   0  0  0  0  0  0  0  0  0  0  0  0
   68.7473   83.9425   60.4208 O   0  0  0  0  0  0  0  0  0  0  0  0
   68.6353   85.5933   62.8783 C   0  0  0  0  0  0  0  0  0  0  0  0
   67.1451   87.0675   61.5901 O   0  0  0  0  0  0  0  0  0  0  0  0
   69.4047   84.2408   62.7605 C   0  0  0  0  0  0  0  0  0  0  0  0
   67.8105   85.5949   64.0978 O   0  0  0  0  0  0  0  0  0  0  0  0
   69.7934   83.6841   61.3649 C   0  0  0  0  0  0  0  0  0  0  0  0
   70.6090   84.3120   63.5313 O   0  0  0  0  0  0  0  0  0  0  0  0
   67.0145   85.4643   59.1512 H   0  0  0  0  0  0  0  0  0  0  0  0
   67.8634   87.7132   61.5002 H   0  0  0  0  0  0  0  0  0  0  0  0
   67.1736   84.8644   64.0583 H   0  0  0  0  0  0  0  0  0  0  0  0
   71.2104   84.9602   63.1324 H   0  0  0  0  0  0  0  0  0  0  0  0
   70.1362   82.1886   61.4577 C   0  0  0  0  0  0  0  0  0  0  0  0
   70.0729   81.6659   62.8030 O   0  0  0  0  0  0  0  0  0  0  0  0
   69.2522   80.3303   63.1692 P   0  0  0  0  0  0  0  0  0  0  0  0
   67.8079   80.7688   63.0352 O   0  0  0  0  0  0  0  0  0  0  0  0
   69.6380   79.2952   62.1386 O   0  0  0  0  0  0  0  0  0  0  0  0
   69.6416   79.9849   64.6023 O   0  0  0  0  0  0  0  0  0  0  0  0
   67.6174   80.9749   62.1067 H   0  0  0  0  0  0  0  0  0  0  0  0
   69.3548   79.5926   61.2598 H   0  0  0  0  0  0  0  0  0  0  0  0
  1  2  1  0  0  0
  1  3  1  0  0  0
  1  4  1  0  0  0
  2  5  1  0  0  0
  2  6  1  0  0  0
  4  9  1  0  0  0
  5  7  1  0  0  0
  5  8  1  0  0  0
  7  9  1  0  0  0
  7 10  1  0  0  0
  9 15  1  0  0  0
 15 16  1  0  0  0
 16 17  1  0  0  0
 17 18  1  0  0  0
 17 19  1  0  0  0
 17 20  2  0  0  0
  3 11  1  0  0  0
  6 12  1  0  0  0
  8 13  1  0  0  0
 10 14  1  0  0  0
 18 21  1  0  0  0
 19 22  1  0  0  0
M  END
> <minimizedAffinity>
-8.58148

$$$$
3BXG_BG6_A_401


 22 22  0  0  0  0  0  0  0  0999 V2000
   69.1844   83.1416   61.7490 C   0  0  0  0  0  0  0  0  0  0  0  0
   70.3334   83.5770   62.6663 C   0  0  0  0  0  0  0  0  0  0  0  0
   69.5449   82.0221   60.9606 O   0  0  0  0  0  0  0  0  0  0  0  0
   68.7255   84.2797   60.9891 O   0  0  0  0  0  0  0  0  0  0  0  0
   69.7268   84.4453   63.7725 C   0  0  0  0  0  0  0  0  0  0  0  0
   71.0559   82.4526   63.2098 O   0  0  0  0  0  0  0  0  0  0  0  0
   68.7451   85.4725   63.1274 C   0  0  0  0  0  0  0  0  0  0  0  0
   70.8250   85.1580   64.4459 O   0  0  0  0  0  0  0  0  0  0  0  0
   67.9281   85.0839   61.8664 C   0  0  0  0  0  0  0  0  0  0  0  0
   67.8056   85.9137   64.1135 O   0  0  0  0  0  0  0  0  0  0  0  0
   70.2983   82.2539   60.3953 H   0  0  0  0  0  0  0  0  0  0  0  0
   70.4523   81.9035   63.7343 H   0  0  0  0  0  0  0  0  0  0  0  0
   71.3042   85.6989   63.7988 H   0  0  0  0  0  0  0  0  0  0  0  0
   67.2349   85.1728   64.3708 H   0  0  0  0  0  0  0  0  0  0  0  0
   67.3837   86.3407   61.1687 C   0  0  0  0  0  0  0  0  0  0  0  0
   66.3529   86.0586   60.1965 O   0  0  0  0  0  0  0  0  0  0  0  0
   66.6656   85.9364   58.6222 P   0  0  0  0  0  0  0  0  0  0  0  0
   67.1436   84.5058   58.4783 O   0  0  0  0  0  0  0  0  0  0  0  0
   65.3582   86.1819   57.9061 O   0  0  0  0  0  0  0  0  0  0  0  0
   67.7563   86.9628   58.3358 O   0  0  0  0  0  0  0  0  0  0  0  0
   66.4115   83.8994   58.6713 H   0  0  0  0  0  0  0  0  0  0  0  0
   64.7243   85.4870   58.1432 H   0  0  0  0  0  0  0  0  0  0  0  0
  1  2  1  0  0  0
  1  3  1  0  0  0
  1  4  1  0  0  0
  2  5  1  0  0  0
  2  6  1  0  0  0
  4  9  1  0  0  0
  5  7  1  0  0  0
  5  8  1  0  0  0
  7  9  1  0  0  0
  7 10  1  0  0  0
  9 15  1  0  0  0
 15 16  1  0  0  0
 16 17  1  0  0  0
 17 18  1  0  0  0
 17 19  1  0  0  0
 17 20  2  0  0  0
  3 11  1  0  0  0
  6 12  1  0  0  0
  8 13  1  0  0  0
 10 14  1  0  0  0
 18 21  1  0  0  0
 19 22  1  0  0  0
M  END
> <minimizedAffinity>
-6.98521

$$$$
3BXG_BG6_A_401


 22 22  0  0  0  0  0  0  0  0999 V2000
   69.7926   84.5118   63.3971 C   0  0  0  0  0  0  0  0  0  0  0  0
   69.4127   84.8840   61.9590 C   0  0  0  0  0  0  0  0  0  0  0  0
   70.0940   85.6602   64.1685 O   0  0  0  0  0  0  0  0  0  0  0  0
   70.8433   83.5224   63.3701 O   0  0  0  0  0  0  0  0  0  0  0  0
   68.6728   83.6841   61.3600 C   0  0  0  0  0  0  0  0  0  0  0  0
   68.6150   86.0846   61.8970 O   0  0  0  0  0  0  0  0  0  0  0  0
   69.4638   82.3824   61.6990 C   0  0  0  0  0  0  0  0  0  0  0  0
   68.6136   83.8677   59.9005 O   0  0  0  0  0  0  0  0  0  0  0  0
   70.2375   82.2670   63.0393 C   0  0  0  0  0  0  0  0  0  0  0  0
   68.5791   81.2589   61.6300 O   0  0  0  0  0  0  0  0  0  0  0  0
   70.8510   86.1233   63.7768 H   0  0  0  0  0  0  0  0  0  0  0  0
   67.7925   85.9524   62.3940 H   0  0  0  0  0  0  0  0  0  0  0  0
   69.5141   83.9366   59.5465 H   0  0  0  0  0  0  0  0  0  0  0  0
   67.9186   81.3235   62.3374 H   0  0  0  0  0  0  0  0  0  0  0  0
   71.2649   81.1257   62.9719 C   0  0  0  0  0  0  0  0  0  0  0  0
   70.6709   79.8292   62.7414 O   0  0  0  0  0  0  0  0  0  0  0  0
   71.3005   78.7657   61.7100 P   0  0  0  0  0  0  0  0  0  0  0  0
   70.4973   78.9980   60.4463 O   0  0  0  0  0  0  0  0  0  0  0  0
   72.7550   79.1392   61.5451 O   0  0  0  0  0  0  0  0  0  0  0  0
   71.0568   77.3939   62.3295 O   0  0  0  0  0  0  0  0  0  0  0  0
   70.6914   79.8822   60.0978 H   0  0  0  0  0  0  0  0  0  0  0  0
   72.8191   80.0212   61.1465 H   0  0  0  0  0  0  0  0  0  0  0  0
  1  2  1  0  0  0
  1  3  1  0  0  0
  1  4  1  0  0  0
  2  5  1  0  0  0
  2  6  1  0  0  0
  4  9  1  0  0  0
  5  7  1  0  0  0
  5  8  1  0  0  0
  7  9  1  0  0  0
  7 10  1  0  0  0
  9 15  1  0  0  0
 15 16  1  0  0  0
 16 17  1  0  0  0
 17 18  1  0  0  0
 17 19  1  0  0  0
 17 20  2  0  0  0
  3 11  1  0  0  0
  6 12  1  0  0  0
  8 13  1  0  0  0
 10 14  1  0  0  0
 18 21  1  0  0  0
 19 22  1  0  0  0
M  END
> <minimizedAffinity>
-6.64497

$$$$
3BXG_BG6_A_401


 22 22  0  0  0  0  0  0  0  0999 V2000
   67.7981   84.8273   59.5397 C   0  0  0  0  0  0  0  0  0  0  0  0
   66.7508   85.8299   60.0387 C   0  0  0  0  0  0  0  0  0  0  0  0
   67.3854   84.1991   58.3397 O   0  0  0  0  0  0  0  0  0  0  0  0
   68.1260   83.9120   60.6065 O   0  0  0  0  0  0  0  0  0  0  0  0
   67.4534   86.7667   61.0257 C   0  0  0  0  0  0  0  0  0  0  0  0
   66.1354   86.5617   58.9583 O   0  0  0  0  0  0  0  0  0  0  0  0
   68.3175   85.9127   62.0050 C   0  0  0  0  0  0  0  0  0  0  0  0
   66.4186   87.4956   61.7775 O   0  0  0  0  0  0  0  0  0  0  0  0
   68.9935   84.6059   61.5112 C   0  0  0  0  0  0  0  0  0  0  0  0
   69.3509   86.7318   62.5626 O   0  0  0  0  0  0  0  0  0  0  0  0
   66.5635   83.7087   58.4976 H   0  0  0  0  0  0  0  0  0  0  0  0
   66.8144   87.0601   58.4773 H   0  0  0  0  0  0  0  0  0  0  0  0
   65.8488   86.8618   62.2407 H   0  0  0  0  0  0  0  0  0  0  0  0
   69.9724   86.9886   61.8636 H   0  0  0  0  0  0  0  0  0  0  0  0
   69.4095   83.7303   62.7041 C   0  0  0  0  0  0  0  0  0  0  0  0
   70.1737   82.5647   62.3239 O   0  0  0  0  0  0  0  0  0  0  0  0
   69.6749   81.0677   62.6426 P   0  0  0  0  0  0  0  0  0  0  0  0
   70.3065   80.7760   63.9887 O   0  0  0  0  0  0  0  0  0  0  0  0
   68.1669   81.1254   62.7140 O   0  0  0  0  0  0  0  0  0  0  0  0
   70.2311   80.1983   61.5203 O   0  0  0  0  0  0  0  0  0  0  0  0
   69.9161   81.3557   64.6614 H   0  0  0  0  0  0  0  0  0  0  0  0
   67.8997   81.6964   63.4512 H   0  0  0  0  0  0  0  0  0  0  0  0
  1  2  1  0  0  0
  1  3  1  0  0  0
  1  4  1  0  0  0
  2  5  1  0  0  0
  2  6  1  0  0  0
  4  9  1  0  0  0
  5  7  1  0  0  0
  5  8  1  0  0  0
  7  9  1  0  0  0
  7 10  1  0  0  0
  9 15  1  0  0  0
 15 16  1  0  0  0
 16 17  1  0  0  0
 17 18  1  0  0  0
 17 19  1  0  0  0
 17 20  2  0  0  0
  3 11  1  0  0  0
  6 12  1  0  0  0
  8 13  1  0  0  0
 10 14  1  0  0  0
 18 21  1  0  0  0
 19 22  1  0  0  0
M  END
> <minimizedAffinity>
-6.53864

$$$$
3BXG_BG6_A_401


 22 22  0  0  0  0  0  0  0  0999 V2000
   68.4484   81.1836   62.8537 C   0  0  0  0  0  0  0  0  0  0  0  0
   69.8059   80.4746   62.9278 C   0  0  0  0  0  0  0  0  0  0  0  0
   67.3762   80.2626   62.9371 O   0  0  0  0  0  0  0  0  0  0  0  0
   68.4163   82.0276   61.6832 O   0  0  0  0  0  0  0  0  0  0  0  0
   70.8505   81.5319   63.2976 C   0  0  0  0  0  0  0  0  0  0  0  0
   69.8015   79.3808   63.8686 O   0  0  0  0  0  0  0  0  0  0  0  0
   70.6226   82.7979   62.4142 C   0  0  0  0  0  0  0  0  0  0  0  0
   72.1839   80.9682   63.0293 O   0  0  0  0  0  0  0  0  0  0  0  0
   69.1871   83.1979   61.9809 C   0  0  0  0  0  0  0  0  0  0  0  0
   71.1953   83.9381   63.0635 O   0  0  0  0  0  0  0  0  0  0  0  0
   67.4233   79.6432   62.1921 H   0  0  0  0  0  0  0  0  0  0  0  0
   69.5963   79.7175   64.7549 H   0  0  0  0  0  0  0  0  0  0  0  0
   72.2491   80.7236   62.0929 H   0  0  0  0  0  0  0  0  0  0  0  0
   70.7032   84.1277   63.8775 H   0  0  0  0  0  0  0  0  0  0  0  0
   69.2348   84.1788   60.7984 C   0  0  0  0  0  0  0  0  0  0  0  0
   69.2333   85.5663   61.2009 O   0  0  0  0  0  0  0  0  0  0  0  0
   67.9179   86.2931   61.7776 P   0  0  0  0  0  0  0  0  0  0  0  0
   68.2451   87.7647   61.6241 O   0  0  0  0  0  0  0  0  0  0  0  0
   66.7697   85.8630   60.8948 O   0  0  0  0  0  0  0  0  0  0  0  0
   67.8070   85.8541   63.2335 O   0  0  0  0  0  0  0  0  0  0  0  0
   68.3030   87.9864   60.6815 H   0  0  0  0  0  0  0  0  0  0  0  0
   66.9196   86.1820   59.9911 H   0  0  0  0  0  0  0  0  0  0  0  0
  1  2  1  0  0  0
  1  3  1  0  0  0
  1  4  1  0  0  0
  2  5  1  0  0  0
  2  6  1  0  0  0
  4  9  1  0  0  0
  5  7  1  0  0  0
  5  8  1  0  0  0
  7  9  1  0  0  0
  7 10  1  0  0  0
  9 15  1  0  0  0
 15 16  1  0  0  0
 16 17  1  0  0  0
 17 18  1  0  0  0
 17 19  1  0  0  0
 17 20  2  0  0  0
  3 11  1  0  0  0
  6 12  1  0  0  0
  8 13  1  0  0  0
 10 14  1  0  0  0
 18 21  1  0  0  0
 19 22  1  0  0  0
M  END
> <minimizedAffinity>
-6.16957

$$$$
3BXG_BG6_A_401


 22 22  0  0  0  0  0  0  0  0999 V2000
   70.1848   84.6663   60.6317 C   0  0  0  0  0  0  0  0  0  0  0  0
   68.7347   84.9783   60.2431 C   0  0  0  0  0  0  0  0  0  0  0  0
   71.0625   84.8234   59.5319 O   0  0  0  0  0  0  0  0  0  0  0  0
   70.2405   83.3653   61.2545 O   0  0  0  0  0  0  0  0  0  0  0  0
   67.9633   85.2389   61.5403 C   0  0  0  0  0  0  0  0  0  0  0  0
   68.6398   86.0957   59.3353 O   0  0  0  0  0  0  0  0  0  0  0  0
   68.3245   84.1279   62.5748 C   0  0  0  0  0  0  0  0  0  0  0  0
   66.5245   85.1873   61.2329 O   0  0  0  0  0  0  0  0  0  0  0  0
   69.7491   83.5124   62.5922 C   0  0  0  0  0  0  0  0  0  0  0  0
   68.0616   84.6084   63.8975 O   0  0  0  0  0  0  0  0  0  0  0  0
   70.8102   84.2075   58.8263 H   0  0  0  0  0  0  0  0  0  0  0  0
   69.0084   86.8874   59.7573 H   0  0  0  0  0  0  0  0  0  0  0  0
   66.3039   84.3184   60.8624 H   0  0  0  0  0  0  0  0  0  0  0  0
   68.6732   85.3318   64.1062 H   0  0  0  0  0  0  0  0  0  0  0  0
   69.7518   82.1818   63.3619 C   0  0  0  0  0  0  0  0  0  0  0  0
   70.6556   81.1992   62.8098 O   0  0  0  0  0  0  0  0  0  0  0  0
   70.1324   79.8595   62.0869 P   0  0  0  0  0  0  0  0  0  0  0  0
   70.3163   80.1706   60.6154 O   0  0  0  0  0  0  0  0  0  0  0  0
   71.0327   78.7407   62.5562 O   0  0  0  0  0  0  0  0  0  0  0  0
   68.6687   79.7165   62.4893 O   0  0  0  0  0  0  0  0  0  0  0  0
   71.2625   80.2502   60.4175 H   0  0  0  0  0  0  0  0  0  0  0  0
   71.9404   78.9099   62.2588 H   0  0  0  0  0  0  0  0  0  0  0  0
  1  2  1  0  0  0
  1  3  1  0  0  0
  1  4  1  0  0  0
  2  5  1  0  0  0
  2  6  1  0  0  0
  4  9  1  0  0  0
  5  7  1  0  0  0
  5  8  1  0  0  0
  7  9  1  0  0  0
  7 10  1  0  0  0
  9 15  1  0  0  0
 15 16  1  0  0  0
 16 17  1  0  0  0
 17 18  1  0  0  0
 17 19  1  0  0  0
 17 20  2  0  0  0
  3 11  1  0  0  0
  6 12  1  0  0  0
  8 13  1  0  0  0
 10 14  1  0  0  0
 18 21  1  0  0  0
 19 22  1  0  0  0
M  END
> <minimizedAffinity>
-6.10665

$$$$
3BXG_BG6_A_401


 22 22  0  0  0  0  0  0  0  0999 V2000
   69.9935   82.7021   61.7364 C   0  0  0  0  0  0  0  0  0  0  0  0
   68.5295   82.5480   62.1654 C   0  0  0  0  0  0  0  0  0  0  0  0
   70.2008   83.9056   61.0198 O   0  0  0  0  0  0  0  0  0  0  0  0
   70.4102   81.5129   61.0324 O   0  0  0  0  0  0  0  0  0  0  0  0
   68.4934   81.5106   63.2915 C   0  0  0  0  0  0  0  0  0  0  0  0
   67.9455   83.8009   62.5787 O   0  0  0  0  0  0  0  0  0  0  0  0
   69.3708   80.2875   62.8801 C   0  0  0  0  0  0  0  0  0  0  0  0
   67.0960   81.0849   63.4741 O   0  0  0  0  0  0  0  0  0  0  0  0
   70.6421   80.4961   62.0147 C   0  0  0  0  0  0  0  0  0  0  0  0
   69.7782   79.5796   64.0559 O   0  0  0  0  0  0  0  0  0  0  0  0
   69.6595   83.8999   60.2149 H   0  0  0  0  0  0  0  0  0  0  0  0
   68.4387   84.1533   63.3359 H   0  0  0  0  0  0  0  0  0  0  0  0
   66.7603   80.7125   62.6437 H   0  0  0  0  0  0  0  0  0  0  0  0
   70.3791   80.1356   64.5761 H   0  0  0  0  0  0  0  0  0  0  0  0
   71.0872   79.1677   61.3821 C   0  0  0  0  0  0  0  0  0  0  0  0
   72.3683   78.7027   61.8613 O   0  0  0  0  0  0  0  0  0  0  0  0
   72.8996   77.2086   61.5842 P   0  0  0  0  0  0  0  0  0  0  0  0
   72.4307   76.4465   62.8070 O   0  0  0  0  0  0  0  0  0  0  0  0
   72.2204   76.7410   60.3183 O   0  0  0  0  0  0  0  0  0  0  0  0
   74.4177   77.3190   61.4944 O   0  0  0  0  0  0  0  0  0  0  0  0
   71.4615   76.4079   62.8120 H   0  0  0  0  0  0  0  0  0  0  0  0
   71.2620   76.6992   60.4621 H   0  0  0  0  0  0  0  0  0  0  0  0
  1  2  1  0  0  0
  1  3  1  0  0  0
  1  4  1  0  0  0
  2  5  1  0  0  0
  2  6  1  0  0  0
  4  9  1  0  0  0
  5  7  1  0  0  0
  5  8  1  0  0  0
  7  9  1  0  0  0
  7 10  1  0  0  0
  9 15  1  0  0  0
 15 16  1  0  0  0
 16 17  1  0  0  0
 17 18  1  0  0  0
 17 19  1  0  0  0
 17 20  2  0  0  0
  3 11  1  0  0  0
  6 12  1  0  0  0
  8 13  1  0  0  0
 10 14  1  0  0  0
 18 21  1  0  0  0
 19 22  1  0  0  0
M  END
> <minimizedAffinity>
-5.64601

$$$$
