4OCQ_A2G_A_401


 20 20  0  0  0  0  0  0  0  0999 V2000
   86.6440   83.8332  118.6559 O   0  0  0  0  0  0  0  0  0  0  0  0
   87.0319   83.8073  117.2602 C   0  0  0  0  0  0  0  0  0  0  0  0
   86.2124   84.7325  116.4933 O   0  0  0  0  0  0  0  0  0  0  0  0
   86.9144   82.3712  116.7053 C   0  0  0  0  0  0  0  0  0  0  0  0
   85.5222   81.7601  117.0135 C   0  0  0  0  0  0  0  0  0  0  0  0
   85.4598   80.4072  116.5220 O   0  0  0  0  0  0  0  0  0  0  0  0
   85.2951   81.7823  118.5147 C   0  0  0  0  0  0  0  0  0  0  0  0
   86.3294   80.9970  119.1720 O   0  0  0  0  0  0  0  0  0  0  0  0
   85.3446   83.2652  118.9390 C   0  0  0  0  0  0  0  0  0  0  0  0
   85.2810   84.4692  116.5576 H   0  0  0  0  0  0  0  0  0  0  0  0
   86.1458   79.8744  116.9538 H   0  0  0  0  0  0  0  0  0  0  0  0
   87.2014   81.3562  118.9451 H   0  0  0  0  0  0  0  0  0  0  0  0
   87.2089   82.3378  115.2618 N   0  0  0  0  0  0  0  0  0  0  0  0
   88.0165   81.4020  114.7382 C   0  0  0  0  0  0  0  0  0  0  0  0
   88.5413   80.4964  115.3928 O   0  0  0  0  0  0  0  0  0  0  0  0
   88.2530   81.5176  113.2294 C   0  0  0  0  0  0  0  0  0  0  0  0
   86.8061   83.0142  114.6706 H   0  0  0  0  0  0  0  0  0  0  0  0
   85.0799   83.4503  120.4231 C   0  0  0  0  0  0  0  0  0  0  0  0
   84.3207   84.6565  120.5929 O   0  0  0  0  0  0  0  0  0  0  0  0
   84.8225   85.4070  120.2382 H   0  0  0  0  0  0  0  0  0  0  0  0
  1  9  1  0  0  0
  2  1  1  0  0  0
  2  4  1  0  0  0
  3  2  1  0  0  0
  4  5  1  0  0  0
 13  4  1  0  0  0
  5  7  1  0  0  0
  5  6  1  0  0  0
  7  8  1  0  0  0
  9  7  1  0  0  0
  9 18  1  0  0  0
 18 19  1  0  0  0
 14 13  1  0  0  0
 15 14  2  0  0  0
 16 14  1  0  0  0
  3 10  1  0  0  0
 13 17  1  0  0  0
  6 11  1  0  0  0
  8 12  1  0  0  0
 19 20  1  0  0  0
M  END
> <minimizedAffinity>
-7.68728

$$$$
4OCQ_A2G_A_401


 20 20  0  0  0  0  0  0  0  0999 V2000
   85.3857   84.3122  117.7784 O   0  0  0  0  0  0  0  0  0  0  0  0
   84.7430   83.2097  118.4642 C   0  0  0  0  0  0  0  0  0  0  0  0
   85.1213   83.2021  119.8688 O   0  0  0  0  0  0  0  0  0  0  0  0
   85.1138   81.8747  117.7827 C   0  0  0  0  0  0  0  0  0  0  0  0
   86.6494   81.7376  117.6099 C   0  0  0  0  0  0  0  0  0  0  0  0
   86.9594   80.5040  116.9333 O   0  0  0  0  0  0  0  0  0  0  0  0
   87.1626   82.9188  116.8054 C   0  0  0  0  0  0  0  0  0  0  0  0
   86.5230   82.9280  115.4980 O   0  0  0  0  0  0  0  0  0  0  0  0
   86.8174   84.1822  117.6215 C   0  0  0  0  0  0  0  0  0  0  0  0
   86.0820   83.0919  119.9443 H   0  0  0  0  0  0  0  0  0  0  0  0
   86.5374   80.4994  116.0599 H   0  0  0  0  0  0  0  0  0  0  0  0
   85.5605   82.9728  115.6093 H   0  0  0  0  0  0  0  0  0  0  0  0
   84.5514   80.7309  118.5224 N   0  0  0  0  0  0  0  0  0  0  0  0
   83.7439   79.8430  117.9211 C   0  0  0  0  0  0  0  0  0  0  0  0
   83.4363   79.8861  116.7262 O   0  0  0  0  0  0  0  0  0  0  0  0
   83.2126   78.7290  118.8279 C   0  0  0  0  0  0  0  0  0  0  0  0
   84.7721   80.6157  119.4749 H   0  0  0  0  0  0  0  0  0  0  0  0
   87.3205   85.4530  116.9590 C   0  0  0  0  0  0  0  0  0  0  0  0
   86.3690   85.8391  115.9562 O   0  0  0  0  0  0  0  0  0  0  0  0
   86.2782   85.1261  115.3049 H   0  0  0  0  0  0  0  0  0  0  0  0
  1  9  1  0  0  0
  2  1  1  0  0  0
  2  4  1  0  0  0
  3  2  1  0  0  0
  4  5  1  0  0  0
 13  4  1  0  0  0
  5  7  1  0  0  0
  5  6  1  0  0  0
  7  8  1  0  0  0
  9  7  1  0  0  0
  9 18  1  0  0  0
 18 19  1  0  0  0
 14 13  1  0  0  0
 15 14  2  0  0  0
 16 14  1  0  0  0
  3 10  1  0  0  0
 13 17  1  0  0  0
  6 11  1  0  0  0
  8 12  1  0  0  0
 19 20  1  0  0  0
M  END
> <minimizedAffinity>
-6.33414

$$$$
4OCQ_A2G_A_401


 20 20  0  0  0  0  0  0  0  0999 V2000
   84.2531   81.1185  116.9629 O   0  0  0  0  0  0  0  0  0  0  0  0
   85.4028   80.8980  116.1094 C   0  0  0  0  0  0  0  0  0  0  0  0
   86.0485   79.6400  116.4505 O   0  0  0  0  0  0  0  0  0  0  0  0
   86.3889   82.0795  116.2348 C   0  0  0  0  0  0  0  0  0  0  0  0
   86.7196   82.3824  117.7199 C   0  0  0  0  0  0  0  0  0  0  0  0
   87.6059   83.5150  117.8047 O   0  0  0  0  0  0  0  0  0  0  0  0
   85.4278   82.6720  118.4637 C   0  0  0  0  0  0  0  0  0  0  0  0
   84.7727   83.8253  117.8643 O   0  0  0  0  0  0  0  0  0  0  0  0
   84.5650   81.3979  118.3471 C   0  0  0  0  0  0  0  0  0  0  0  0
   86.3518   79.6715  117.3714 H   0  0  0  0  0  0  0  0  0  0  0  0
   87.1789   84.2901  117.4075 H   0  0  0  0  0  0  0  0  0  0  0  0
   84.6036   83.6494  116.9255 H   0  0  0  0  0  0  0  0  0  0  0  0
   87.6120   81.8311  115.4512 N   0  0  0  0  0  0  0  0  0  0  0  0
   87.6017   81.8854  114.1099 C   0  0  0  0  0  0  0  0  0  0  0  0
   86.6069   82.1707  113.4368 O   0  0  0  0  0  0  0  0  0  0  0  0
   88.9409   81.5718  113.4362 C   0  0  0  0  0  0  0  0  0  0  0  0
   88.4520   81.6215  115.9199 H   0  0  0  0  0  0  0  0  0  0  0  0
   83.2488   81.5213  119.0949 C   0  0  0  0  0  0  0  0  0  0  0  0
   82.3618   82.3273  118.3053 O   0  0  0  0  0  0  0  0  0  0  0  0
   82.7586   83.2010  118.1637 H   0  0  0  0  0  0  0  0  0  0  0  0
  1  9  1  0  0  0
  2  1  1  0  0  0
  2  4  1  0  0  0
  3  2  1  0  0  0
  4  5  1  0  0  0
 13  4  1  0  0  0
  5  7  1  0  0  0
  5  6  1  0  0  0
  7  8  1  0  0  0
  9  7  1  0  0  0
  9 18  1  0  0  0
 18 19  1  0  0  0
 14 13  1  0  0  0
 15 14  2  0  0  0
 16 14  1  0  0  0
  3 10  1  0  0  0
 13 17  1  0  0  0
  6 11  1  0  0  0
  8 12  1  0  0  0
 19 20  1  0  0  0
M  END
> <minimizedAffinity>
-6.19698

$$$$
4OCQ_A2G_A_401


 20 20  0  0  0  0  0  0  0  0999 V2000
   86.4540   80.7192  117.0623 O   0  0  0  0  0  0  0  0  0  0  0  0
   87.0825   81.2216  115.8576 C   0  0  0  0  0  0  0  0  0  0  0  0
   88.5290   81.1086  115.9604 O   0  0  0  0  0  0  0  0  0  0  0  0
   86.6566   82.6850  115.6099 C   0  0  0  0  0  0  0  0  0  0  0  0
   86.8692   83.5558  116.8760 C   0  0  0  0  0  0  0  0  0  0  0  0
   86.4227   84.9027  116.6266 O   0  0  0  0  0  0  0  0  0  0  0  0
   86.0869   82.9504  118.0281 C   0  0  0  0  0  0  0  0  0  0  0  0
   84.6719   82.9195  117.6886 O   0  0  0  0  0  0  0  0  0  0  0  0
   86.6565   81.5320  118.2411 C   0  0  0  0  0  0  0  0  0  0  0  0
   88.8419   81.6357  116.7121 H   0  0  0  0  0  0  0  0  0  0  0  0
   85.4799   84.8939  116.3989 H   0  0  0  0  0  0  0  0  0  0  0  0
   84.5460   82.4085  116.8739 H   0  0  0  0  0  0  0  0  0  0  0  0
   87.3606   83.2491  114.4446 N   0  0  0  0  0  0  0  0  0  0  0  0
   86.9548   82.9858  113.1924 C   0  0  0  0  0  0  0  0  0  0  0  0
   85.9687   82.2966  112.9153 O   0  0  0  0  0  0  0  0  0  0  0  0
   87.8065   83.6165  112.0867 C   0  0  0  0  0  0  0  0  0  0  0  0
   88.1428   83.8297  114.5871 H   0  0  0  0  0  0  0  0  0  0  0  0
   85.9991   80.8150  119.4076 C   0  0  0  0  0  0  0  0  0  0  0  0
   84.8108   80.1726  118.9229 O   0  0  0  0  0  0  0  0  0  0  0  0
   84.2126   80.8386  118.5492 H   0  0  0  0  0  0  0  0  0  0  0  0
  1  9  1  0  0  0
  2  1  1  0  0  0
  2  4  1  0  0  0
  3  2  1  0  0  0
  4  5  1  0  0  0
 13  4  1  0  0  0
  5  7  1  0  0  0
  5  6  1  0  0  0
  7  8  1  0  0  0
  9  7  1  0  0  0
  9 18  1  0  0  0
 18 19  1  0  0  0
 14 13  1  0  0  0
 15 14  2  0  0  0
 16 14  1  0  0  0
  3 10  1  0  0  0
 13 17  1  0  0  0
  6 11  1  0  0  0
  8 12  1  0  0  0
 19 20  1  0  0  0
M  END
> <minimizedAffinity>
-5.91906

$$$$
4OCQ_A2G_A_401


 20 20  0  0  0  0  0  0  0  0999 V2000
   85.7936   80.3556  116.3976 O   0  0  0  0  0  0  0  0  0  0  0  0
   84.6009   79.7111  116.9084 C   0  0  0  0  0  0  0  0  0  0  0  0
   83.4753   79.9609  116.0216 O   0  0  0  0  0  0  0  0  0  0  0  0
   84.3016   80.2099  118.3386 C   0  0  0  0  0  0  0  0  0  0  0  0
   84.2922   81.7598  118.4046 C   0  0  0  0  0  0  0  0  0  0  0  0
   84.0538   82.1925  119.7580 O   0  0  0  0  0  0  0  0  0  0  0  0
   85.6319   82.2823  117.9167 C   0  0  0  0  0  0  0  0  0  0  0  0
   86.6925   81.7637  118.7680 O   0  0  0  0  0  0  0  0  0  0  0  0
   85.7803   81.8004  116.4582 C   0  0  0  0  0  0  0  0  0  0  0  0
   83.3099   80.9153  115.9700 H   0  0  0  0  0  0  0  0  0  0  0  0
   84.7554   81.8519  120.3347 H   0  0  0  0  0  0  0  0  0  0  0  0
   86.6706   80.7941  118.7573 H   0  0  0  0  0  0  0  0  0  0  0  0
   83.0378   79.6425  118.8414 N   0  0  0  0  0  0  0  0  0  0  0  0
   82.9773   78.3859  119.3097 C   0  0  0  0  0  0  0  0  0  0  0  0
   83.9498   77.6293  119.3883 O   0  0  0  0  0  0  0  0  0  0  0  0
   81.5887   77.9281  119.7657 C   0  0  0  0  0  0  0  0  0  0  0  0
   82.2231   80.1951  118.8338 H   0  0  0  0  0  0  0  0  0  0  0  0
   87.0637   82.2954  115.8142 C   0  0  0  0  0  0  0  0  0  0  0  0
   88.0983   81.3399  116.0912 O   0  0  0  0  0  0  0  0  0  0  0  0
   88.2084   81.2518  117.0509 H   0  0  0  0  0  0  0  0  0  0  0  0
  1  9  1  0  0  0
  2  1  1  0  0  0
  2  4  1  0  0  0
  3  2  1  0  0  0
  4  5  1  0  0  0
 13  4  1  0  0  0
  5  7  1  0  0  0
  5  6  1  0  0  0
  7  8  1  0  0  0
  9  7  1  0  0  0
  9 18  1  0  0  0
 18 19  1  0  0  0
 14 13  1  0  0  0
 15 14  2  0  0  0
 16 14  1  0  0  0
  3 10  1  0  0  0
 13 17  1  0  0  0
  6 11  1  0  0  0
  8 12  1  0  0  0
 19 20  1  0  0  0
M  END
> <minimizedAffinity>
-5.91280

$$$$
4OCQ_A2G_A_401


 20 20  0  0  0  0  0  0  0  0999 V2000
   86.3662   81.3996  118.2681 O   0  0  0  0  0  0  0  0  0  0  0  0
   85.3896   80.3297  118.2439 C   0  0  0  0  0  0  0  0  0  0  0  0
   85.2244   79.8303  116.8877 O   0  0  0  0  0  0  0  0  0  0  0  0
   84.0459   80.8270  118.8193 C   0  0  0  0  0  0  0  0  0  0  0  0
   83.5949   82.1460  118.1384 C   0  0  0  0  0  0  0  0  0  0  0  0
   82.3627   82.6061  118.7264 O   0  0  0  0  0  0  0  0  0  0  0  0
   84.6823   83.1906  118.3179 C   0  0  0  0  0  0  0  0  0  0  0  0
   84.8993   83.4237  119.7381 O   0  0  0  0  0  0  0  0  0  0  0  0
   85.9434   82.6266  117.6302 C   0  0  0  0  0  0  0  0  0  0  0  0
   84.9084   80.5469  116.3155 H   0  0  0  0  0  0  0  0  0  0  0  0
   82.4961   82.7645  119.6740 H   0  0  0  0  0  0  0  0  0  0  0  0
   85.1417   82.5893  120.1694 H   0  0  0  0  0  0  0  0  0  0  0  0
   83.0090   79.7852  118.7136 N   0  0  0  0  0  0  0  0  0  0  0  0
   83.2458   78.5253  119.1117 C   0  0  0  0  0  0  0  0  0  0  0  0
   84.3077   78.1470  119.6151 O   0  0  0  0  0  0  0  0  0  0  0  0
   82.0828   77.5497  118.9084 C   0  0  0  0  0  0  0  0  0  0  0  0
   82.1264   80.0175  118.3444 H   0  0  0  0  0  0  0  0  0  0  0  0
   87.1125   83.5947  117.6843 C   0  0  0  0  0  0  0  0  0  0  0  0
   86.5846   84.9288  117.7223 O   0  0  0  0  0  0  0  0  0  0  0  0
   86.0459   85.0860  116.9310 H   0  0  0  0  0  0  0  0  0  0  0  0
  1  9  1  0  0  0
  2  1  1  0  0  0
  2  4  1  0  0  0
  3  2  1  0  0  0
  4  5  1  0  0  0
 13  4  1  0  0  0
  5  7  1  0  0  0
  5  6  1  0  0  0
  7  8  1  0  0  0
  9  7  1  0  0  0
  9 18  1  0  0  0
 18 19  1  0  0  0
 14 13  1  0  0  0
 15 14  2  0  0  0
 16 14  1  0  0  0
  3 10  1  0  0  0
 13 17  1  0  0  0
  6 11  1  0  0  0
  8 12  1  0  0  0
 19 20  1  0  0  0
M  END
> <minimizedAffinity>
-5.26446

$$$$
4OCQ_A2G_A_401


 20 20  0  0  0  0  0  0  0  0999 V2000
   84.4960   79.7532  119.4267 O   0  0  0  0  0  0  0  0  0  0  0  0
   84.9143   81.0977  119.0856 C   0  0  0  0  0  0  0  0  0  0  0  0
   83.9511   82.0662  119.5857 O   0  0  0  0  0  0  0  0  0  0  0  0
   85.0868   81.2258  117.5566 C   0  0  0  0  0  0  0  0  0  0  0  0
   83.8304   80.7158  116.8029 C   0  0  0  0  0  0  0  0  0  0  0  0
   84.0396   80.8080  115.3804 O   0  0  0  0  0  0  0  0  0  0  0  0
   83.5682   79.2739  117.2007 C   0  0  0  0  0  0  0  0  0  0  0  0
   84.7179   78.4565  116.8424 O   0  0  0  0  0  0  0  0  0  0  0  0
   83.3230   79.2821  118.7243 C   0  0  0  0  0  0  0  0  0  0  0  0
   83.0861   81.9016  119.1788 H   0  0  0  0  0  0  0  0  0  0  0  0
   84.8046   80.2665  115.1304 H   0  0  0  0  0  0  0  0  0  0  0  0
   85.5101   78.8020  117.2828 H   0  0  0  0  0  0  0  0  0  0  0  0
   85.4161   82.6113  117.1772 N   0  0  0  0  0  0  0  0  0  0  0  0
   86.6835   83.0534  117.1900 C   0  0  0  0  0  0  0  0  0  0  0  0
   87.6577   82.3526  117.4801 O   0  0  0  0  0  0  0  0  0  0  0  0
   86.8630   84.5243  116.8031 C   0  0  0  0  0  0  0  0  0  0  0  0
   84.6933   83.2238  116.9095 H   0  0  0  0  0  0  0  0  0  0  0  0
   82.9930   77.9010  119.2635 C   0  0  0  0  0  0  0  0  0  0  0  0
   84.2238   77.1810  119.4270 O   0  0  0  0  0  0  0  0  0  0  0  0
   84.6762   77.1156  118.5714 H   0  0  0  0  0  0  0  0  0  0  0  0
  1  9  1  0  0  0
  2  1  1  0  0  0
  2  4  1  0  0  0
  3  2  1  0  0  0
  4  5  1  0  0  0
 13  4  1  0  0  0
  5  7  1  0  0  0
  5  6  1  0  0  0
  7  8  1  0  0  0
  9  7  1  0  0  0
  9 18  1  0  0  0
 18 19  1  0  0  0
 14 13  1  0  0  0
 15 14  2  0  0  0
 16 14  1  0  0  0
  3 10  1  0  0  0
 13 17  1  0  0  0
  6 11  1  0  0  0
  8 12  1  0  0  0
 19 20  1  0  0  0
M  END
> <minimizedAffinity>
-5.08674

$$$$
4OCQ_A2G_A_401


 20 20  0  0  0  0  0  0  0  0999 V2000
   84.7390   82.5880  117.2148 O   0  0  0  0  0  0  0  0  0  0  0  0
   83.6909   81.7342  117.7356 C   0  0  0  0  0  0  0  0  0  0  0  0
   82.8214   82.4899  118.6236 O   0  0  0  0  0  0  0  0  0  0  0  0
   84.3097   80.5219  118.4647 C   0  0  0  0  0  0  0  0  0  0  0  0
   85.3707   80.9706  119.5037 C   0  0  0  0  0  0  0  0  0  0  0  0
   85.9593   79.8167  120.1344 O   0  0  0  0  0  0  0  0  0  0  0  0
   86.4410   81.7830  118.7963 C   0  0  0  0  0  0  0  0  0  0  0  0
   87.0745   80.9626  117.7745 O   0  0  0  0  0  0  0  0  0  0  0  0
   85.7248   83.0064  118.1867 C   0  0  0  0  0  0  0  0  0  0  0  0
   83.3388   82.8303  119.3702 H   0  0  0  0  0  0  0  0  0  0  0  0
   86.3846   79.2622  119.4617 H   0  0  0  0  0  0  0  0  0  0  0  0
   86.4027   80.6496  117.1487 H   0  0  0  0  0  0  0  0  0  0  0  0
   83.2641   79.6913  119.0880 N   0  0  0  0  0  0  0  0  0  0  0  0
   83.3242   78.3508  119.0468 C   0  0  0  0  0  0  0  0  0  0  0  0
   84.2469   77.7154  118.5283 O   0  0  0  0  0  0  0  0  0  0  0  0
   82.1484   77.6266  119.7093 C   0  0  0  0  0  0  0  0  0  0  0  0
   82.5077   80.1274  119.5429 H   0  0  0  0  0  0  0  0  0  0  0  0
   86.6872   83.9477  117.4833 C   0  0  0  0  0  0  0  0  0  0  0  0
   86.7924   83.5347  116.1128 O   0  0  0  0  0  0  0  0  0  0  0  0
   87.1169   82.6214  116.0744 H   0  0  0  0  0  0  0  0  0  0  0  0
  1  9  1  0  0  0
  2  1  1  0  0  0
  2  4  1  0  0  0
  3  2  1  0  0  0
  4  5  1  0  0  0
 13  4  1  0  0  0
  5  7  1  0  0  0
  5  6  1  0  0  0
  7  8  1  0  0  0
  9  7  1  0  0  0
  9 18  1  0  0  0
 18 19  1  0  0  0
 14 13  1  0  0  0
 15 14  2  0  0  0
 16 14  1  0  0  0
  3 10  1  0  0  0
 13 17  1  0  0  0
  6 11  1  0  0  0
  8 12  1  0  0  0
 19 20  1  0  0  0
M  END
> <minimizedAffinity>
-4.84745

$$$$
4OCQ_A2G_A_401


 20 20  0  0  0  0  0  0  0  0999 V2000
   84.2107   79.9007  117.2591 O   0  0  0  0  0  0  0  0  0  0  0  0
   85.0548   80.9877  116.8067 C   0  0  0  0  0  0  0  0  0  0  0  0
   86.4559   80.6557  117.0127 O   0  0  0  0  0  0  0  0  0  0  0  0
   84.6794   82.2910  117.5446 C   0  0  0  0  0  0  0  0  0  0  0  0
   84.6454   82.0791  119.0810 C   0  0  0  0  0  0  0  0  0  0  0  0
   84.2504   83.2997  119.7367 O   0  0  0  0  0  0  0  0  0  0  0  0
   83.6606   80.9693  119.4041 C   0  0  0  0  0  0  0  0  0  0  0  0
   82.3358   81.3462  118.9338 O   0  0  0  0  0  0  0  0  0  0  0  0
   84.1836   79.7044  118.6916 C   0  0  0  0  0  0  0  0  0  0  0  0
   86.6190   80.5140  117.9583 H   0  0  0  0  0  0  0  0  0  0  0  0
   83.3678   83.5605  119.4301 H   0  0  0  0  0  0  0  0  0  0  0  0
   82.3681   81.5179  117.9797 H   0  0  0  0  0  0  0  0  0  0  0  0
   85.5899   83.3886  117.1730 N   0  0  0  0  0  0  0  0  0  0  0  0
   86.6841   83.6612  117.9012 C   0  0  0  0  0  0  0  0  0  0  0  0
   87.0312   83.0176  118.8959 O   0  0  0  0  0  0  0  0  0  0  0  0
   87.5131   84.8511  117.4087 C   0  0  0  0  0  0  0  0  0  0  0  0
   85.3921   83.9318  116.3761 H   0  0  0  0  0  0  0  0  0  0  0  0
   83.3190   78.4866  118.9684 C   0  0  0  0  0  0  0  0  0  0  0  0
   84.1814   77.4077  119.3587 O   0  0  0  0  0  0  0  0  0  0  0  0
   84.8130   77.2245  118.6457 H   0  0  0  0  0  0  0  0  0  0  0  0
  1  9  1  0  0  0
  2  1  1  0  0  0
  2  4  1  0  0  0
  3  2  1  0  0  0
  4  5  1  0  0  0
 13  4  1  0  0  0
  5  7  1  0  0  0
  5  6  1  0  0  0
  7  8  1  0  0  0
  9  7  1  0  0  0
  9 18  1  0  0  0
 18 19  1  0  0  0
 14 13  1  0  0  0
 15 14  2  0  0  0
 16 14  1  0  0  0
  3 10  1  0  0  0
 13 17  1  0  0  0
  6 11  1  0  0  0
  8 12  1  0  0  0
 19 20  1  0  0  0
M  END
> <minimizedAffinity>
-4.71131

$$$$
