1MFI_FHC_A_115


 14 14  0  0  0  0  0  0  0  0999 V2000
   -9.2567   28.3958   13.7870 C   0  0  0  0  0  0  0  0  0  0  0  0
   -9.1109   27.0025   13.7309 C   0  0  0  0  0  0  0  0  0  0  0  0
   -8.2168   26.4001   12.7873 C   0  0  0  0  0  0  0  0  0  0  0  0
   -7.4656   27.2351   11.9540 C   0  0  0  0  0  0  0  0  0  0  0  0
   -6.5430   26.7863   11.0226 O   0  0  0  0  0  0  0  0  0  0  0  0
   -7.6399   28.5920   12.0045 C   0  0  0  0  0  0  0  0  0  0  0  0
   -8.4932   29.1560   12.9125 C   0  0  0  0  0  0  0  0  0  0  0  0
   -6.3744   25.8688   10.9348 H   0  0  0  0  0  0  0  0  0  0  0  0
  -10.1305   29.1222   14.7672 C   0  0  0  0  0  0  0  0  0  0  0  0
  -10.8453   28.6296   15.8411 C   0  0  0  0  0  0  0  0  0  0  0  0
  -11.5462   29.5602   16.6343 F   0  0  0  0  0  0  0  0  0  0  0  0
  -10.9871   27.1631   16.1944 C   0  0  0  0  0  0  0  0  0  0  0  0
  -10.6656   26.8588   17.3865 O   0  0  0  0  0  0  0  0  0  0  0  0
  -11.4793   26.3415   15.3689 O   0  0  0  0  0  0  0  0  0  0  0  0
  1  9  1  0  0  0
  1  2  1  0  0  0
  1  7  2  0  0  0
  9 10  2  0  0  0
 10 12  1  0  0  0
 10 11  1  0  0  0
 12 13  2  0  0  0
 12 14  1  0  0  0
  2  3  2  0  0  0
  3  4  1  0  0  0
  4  5  1  0  0  0
  4  6  2  0  0  0
  6  7  1  0  0  0
  5  8  1  0  0  0
M  CHG 1  14  -1
M  END
> <minimizedAffinity>
-8.03174

$$$$
1MFI_FHC_A_115


 14 14  0  0  0  0  0  0  0  0999 V2000
   -9.2594   28.6434   13.6970 C   0  0  0  0  0  0  0  0  0  0  0  0
   -9.3345   28.9576   12.3327 C   0  0  0  0  0  0  0  0  0  0  0  0
   -8.4353   28.3543   11.3946 C   0  0  0  0  0  0  0  0  0  0  0  0
   -7.5105   27.4170   11.8661 C   0  0  0  0  0  0  0  0  0  0  0  0
   -6.6080   26.7366   11.0644 O   0  0  0  0  0  0  0  0  0  0  0  0
   -7.4338   27.1418   13.2049 C   0  0  0  0  0  0  0  0  0  0  0  0
   -8.3005   27.7208   14.0905 C   0  0  0  0  0  0  0  0  0  0  0  0
   -6.6054   26.8775   10.1380 H   0  0  0  0  0  0  0  0  0  0  0  0
  -10.1828   29.1858   14.7483 C   0  0  0  0  0  0  0  0  0  0  0  0
  -10.8563   28.5216   15.7544 C   0  0  0  0  0  0  0  0  0  0  0  0
  -11.6229   29.3005   16.6443 F   0  0  0  0  0  0  0  0  0  0  0  0
  -10.8872   27.0179   15.9369 C   0  0  0  0  0  0  0  0  0  0  0  0
  -10.8474   26.6169   17.1431 O   0  0  0  0  0  0  0  0  0  0  0  0
  -11.0345   26.2469   14.9457 O   0  0  0  0  0  0  0  0  0  0  0  0
  1  9  1  0  0  0
  1  2  1  0  0  0
  1  7  2  0  0  0
  9 10  2  0  0  0
 10 12  1  0  0  0
 10 11  1  0  0  0
 12 13  2  0  0  0
 12 14  1  0  0  0
  2  3  2  0  0  0
  3  4  1  0  0  0
  4  5  1  0  0  0
  4  6  2  0  0  0
  6  7  1  0  0  0
  5  8  1  0  0  0
M  CHG 1  14  -1
M  END
> <minimizedAffinity>
-7.43226

$$$$
1MFI_FHC_A_115


 14 14  0  0  0  0  0  0  0  0999 V2000
   -9.7062   28.6640   14.6241 C   0  0  0  0  0  0  0  0  0  0  0  0
   -9.9850   27.2982   14.7738 C   0  0  0  0  0  0  0  0  0  0  0  0
  -10.9804   26.8546   15.7039 C   0  0  0  0  0  0  0  0  0  0  0  0
  -11.6927   27.8167   16.4271 C   0  0  0  0  0  0  0  0  0  0  0  0
  -12.7012   27.5271   17.3321 O   0  0  0  0  0  0  0  0  0  0  0  0
  -11.3892   29.1442   16.2873 C   0  0  0  0  0  0  0  0  0  0  0  0
  -10.4400   29.5562   15.3930 C   0  0  0  0  0  0  0  0  0  0  0  0
  -12.9597   26.6382   17.4770 H   0  0  0  0  0  0  0  0  0  0  0  0
   -8.7175   29.2296   13.6471 C   0  0  0  0  0  0  0  0  0  0  0  0
   -8.0581   28.6090   12.6045 C   0  0  0  0  0  0  0  0  0  0  0  0
   -7.2153   29.4068   11.8048 F   0  0  0  0  0  0  0  0  0  0  0  0
   -8.1198   27.1275   12.2934 C   0  0  0  0  0  0  0  0  0  0  0  0
   -8.8757   26.8082   11.3219 O   0  0  0  0  0  0  0  0  0  0  0  0
   -7.3896   26.3031   12.9147 O   0  0  0  0  0  0  0  0  0  0  0  0
  1  9  1  0  0  0
  1  2  1  0  0  0
  1  7  2  0  0  0
  9 10  2  0  0  0
 10 12  1  0  0  0
 10 11  1  0  0  0
 12 13  2  0  0  0
 12 14  1  0  0  0
  2  3  2  0  0  0
  3  4  1  0  0  0
  4  5  1  0  0  0
  4  6  2  0  0  0
  6  7  1  0  0  0
  5  8  1  0  0  0
M  CHG 1  14  -1
M  END
> <minimizedAffinity>
-7.41394

$$$$
1MFI_FHC_A_115


 14 14  0  0  0  0  0  0  0  0999 V2000
  -10.6249   28.7009   16.2022 C   0  0  0  0  0  0  0  0  0  0  0  0
  -10.0127   28.3245   17.4060 C   0  0  0  0  0  0  0  0  0  0  0  0
  -10.7987   27.8575   18.5091 C   0  0  0  0  0  0  0  0  0  0  0  0
  -12.1830   27.7486   18.3424 C   0  0  0  0  0  0  0  0  0  0  0  0
  -13.0538   27.2817   19.3139 O   0  0  0  0  0  0  0  0  0  0  0  0
  -12.7663   28.1452   17.1691 C   0  0  0  0  0  0  0  0  0  0  0  0
  -12.0054   28.5853   16.1214 C   0  0  0  0  0  0  0  0  0  0  0  0
  -12.7218   26.9939   20.1414 H   0  0  0  0  0  0  0  0  0  0  0  0
   -9.8873   29.1581   14.9778 C   0  0  0  0  0  0  0  0  0  0  0  0
   -9.3939   28.4185   13.9213 C   0  0  0  0  0  0  0  0  0  0  0  0
   -8.7830   29.1248   12.8657 F   0  0  0  0  0  0  0  0  0  0  0  0
   -9.4003   26.9057   13.8385 C   0  0  0  0  0  0  0  0  0  0  0  0
   -8.3523   26.3851   13.3408 O   0  0  0  0  0  0  0  0  0  0  0  0
  -10.3560   26.2335   14.3219 O   0  0  0  0  0  0  0  0  0  0  0  0
  1  9  1  0  0  0
  1  2  1  0  0  0
  1  7  2  0  0  0
  9 10  2  0  0  0
 10 12  1  0  0  0
 10 11  1  0  0  0
 12 13  2  0  0  0
 12 14  1  0  0  0
  2  3  2  0  0  0
  3  4  1  0  0  0
  4  5  1  0  0  0
  4  6  2  0  0  0
  6  7  1  0  0  0
  5  8  1  0  0  0
M  CHG 1  14  -1
M  END
> <minimizedAffinity>
-7.14331

$$$$
1MFI_FHC_A_115


 14 14  0  0  0  0  0  0  0  0999 V2000
  -10.6148   28.1120   15.2526 C   0  0  0  0  0  0  0  0  0  0  0  0
   -9.8491   29.2172   14.8552 C   0  0  0  0  0  0  0  0  0  0  0  0
   -8.7636   29.0590   13.9335 C   0  0  0  0  0  0  0  0  0  0  0  0
   -8.5131   27.7862   13.4109 C   0  0  0  0  0  0  0  0  0  0  0  0
   -7.5187   27.5007   12.4891 O   0  0  0  0  0  0  0  0  0  0  0  0
   -9.2540   26.7141   13.8300 C   0  0  0  0  0  0  0  0  0  0  0  0
  -10.2907   26.8779   14.7070 C   0  0  0  0  0  0  0  0  0  0  0  0
   -6.9738   28.1881   12.1597 H   0  0  0  0  0  0  0  0  0  0  0  0
  -11.7966   28.1816   16.1748 C   0  0  0  0  0  0  0  0  0  0  0  0
  -11.8500   28.0426   17.5476 C   0  0  0  0  0  0  0  0  0  0  0  0
  -13.1045   28.2115   18.1674 F   0  0  0  0  0  0  0  0  0  0  0  0
  -10.6800   27.6598   18.4308 C   0  0  0  0  0  0  0  0  0  0  0  0
  -10.6440   26.4388   18.7845 O   0  0  0  0  0  0  0  0  0  0  0  0
   -9.7721   28.4964   18.7036 O   0  0  0  0  0  0  0  0  0  0  0  0
  1  9  1  0  0  0
  1  2  1  0  0  0
  1  7  2  0  0  0
  9 10  2  0  0  0
 10 12  1  0  0  0
 10 11  1  0  0  0
 12 13  2  0  0  0
 12 14  1  0  0  0
  2  3  2  0  0  0
  3  4  1  0  0  0
  4  5  1  0  0  0
  4  6  2  0  0  0
  6  7  1  0  0  0
  5  8  1  0  0  0
M  CHG 1  14  -1
M  END
> <minimizedAffinity>
-6.98314

$$$$
1MFI_FHC_A_115


 14 14  0  0  0  0  0  0  0  0999 V2000
   -9.5134   27.3377   14.2597 C   0  0  0  0  0  0  0  0  0  0  0  0
   -9.5216   28.6991   14.5946 C   0  0  0  0  0  0  0  0  0  0  0  0
  -10.4566   29.2088   15.5530 C   0  0  0  0  0  0  0  0  0  0  0  0
  -11.3310   28.3110   16.1738 C   0  0  0  0  0  0  0  0  0  0  0  0
  -12.2598   28.6645   17.1395 O   0  0  0  0  0  0  0  0  0  0  0  0
  -11.3267   26.9898   15.8155 C   0  0  0  0  0  0  0  0  0  0  0  0
  -10.4265   26.5138   14.9025 C   0  0  0  0  0  0  0  0  0  0  0  0
  -12.3171   29.5530   17.4314 H   0  0  0  0  0  0  0  0  0  0  0  0
   -8.5466   26.7010   13.3047 C   0  0  0  0  0  0  0  0  0  0  0  0
   -7.9128   27.2423   12.2038 C   0  0  0  0  0  0  0  0  0  0  0  0
   -7.0020   26.4195   11.5111 F   0  0  0  0  0  0  0  0  0  0  0  0
   -8.1677   28.6275   11.6453 C   0  0  0  0  0  0  0  0  0  0  0  0
   -7.1321   29.3492   11.4909 O   0  0  0  0  0  0  0  0  0  0  0  0
   -9.3274   28.9778   11.2832 O   0  0  0  0  0  0  0  0  0  0  0  0
  1  9  1  0  0  0
  1  2  1  0  0  0
  1  7  2  0  0  0
  9 10  2  0  0  0
 10 12  1  0  0  0
 10 11  1  0  0  0
 12 13  2  0  0  0
 12 14  1  0  0  0
  2  3  2  0  0  0
  3  4  1  0  0  0
  4  5  1  0  0  0
  4  6  2  0  0  0
  6  7  1  0  0  0
  5  8  1  0  0  0
M  CHG 1  14  -1
M  END
> <minimizedAffinity>
-6.71191

$$$$
1MFI_FHC_A_115


 14 14  0  0  0  0  0  0  0  0999 V2000
   -9.4158   27.4176   14.0385 C   0  0  0  0  0  0  0  0  0  0  0  0
   -9.0140   26.6122   12.9635 C   0  0  0  0  0  0  0  0  0  0  0  0
   -8.1681   27.1387   11.9339 C   0  0  0  0  0  0  0  0  0  0  0  0
   -7.7219   28.4593   12.0484 C   0  0  0  0  0  0  0  0  0  0  0  0
   -6.8763   29.0807   11.1435 O   0  0  0  0  0  0  0  0  0  0  0  0
   -8.1453   29.2390   13.0909 C   0  0  0  0  0  0  0  0  0  0  0  0
   -8.9493   28.7241   14.0702 C   0  0  0  0  0  0  0  0  0  0  0  0
   -6.5486   28.6050   10.4056 H   0  0  0  0  0  0  0  0  0  0  0  0
  -10.2606   26.9473   15.1862 C   0  0  0  0  0  0  0  0  0  0  0  0
  -11.1214   27.6623   15.9952 C   0  0  0  0  0  0  0  0  0  0  0  0
  -11.8363   26.9442   16.9747 F   0  0  0  0  0  0  0  0  0  0  0  0
  -11.3086   29.1653   15.9548 C   0  0  0  0  0  0  0  0  0  0  0  0
  -11.8503   29.6162   14.8963 O   0  0  0  0  0  0  0  0  0  0  0  0
  -11.0202   29.8822   16.9556 O   0  0  0  0  0  0  0  0  0  0  0  0
  1  9  1  0  0  0
  1  2  1  0  0  0
  1  7  2  0  0  0
  9 10  2  0  0  0
 10 12  1  0  0  0
 10 11  1  0  0  0
 12 13  2  0  0  0
 12 14  1  0  0  0
  2  3  2  0  0  0
  3  4  1  0  0  0
  4  5  1  0  0  0
  4  6  2  0  0  0
  6  7  1  0  0  0
  5  8  1  0  0  0
M  CHG 1  14  -1
M  END
> <minimizedAffinity>
-6.55182

$$$$
1MFI_FHC_A_115


 14 14  0  0  0  0  0  0  0  0999 V2000
  -10.4619   28.4441   15.3500 C   0  0  0  0  0  0  0  0  0  0  0  0
  -10.3311   27.1008   14.9706 C   0  0  0  0  0  0  0  0  0  0  0  0
   -9.4056   26.7191   13.9457 C   0  0  0  0  0  0  0  0  0  0  0  0
   -8.6097   27.7108   13.3633 C   0  0  0  0  0  0  0  0  0  0  0  0
   -7.6545   27.4748   12.3877 O   0  0  0  0  0  0  0  0  0  0  0  0
   -8.7693   29.0208   13.7276 C   0  0  0  0  0  0  0  0  0  0  0  0
   -9.6529   29.3727   14.7104 C   0  0  0  0  0  0  0  0  0  0  0  0
   -7.4937   26.6006   12.0912 H   0  0  0  0  0  0  0  0  0  0  0  0
  -11.3671   28.9372   16.4407 C   0  0  0  0  0  0  0  0  0  0  0  0
  -11.3530   28.6509   17.7915 C   0  0  0  0  0  0  0  0  0  0  0  0
  -12.3009   29.3068   18.6025 F   0  0  0  0  0  0  0  0  0  0  0  0
  -10.4423   27.6404   18.4586 C   0  0  0  0  0  0  0  0  0  0  0  0
   -9.4986   28.1355   19.1525 O   0  0  0  0  0  0  0  0  0  0  0  0
  -10.6842   26.4015   18.3857 O   0  0  0  0  0  0  0  0  0  0  0  0
  1  9  1  0  0  0
  1  2  1  0  0  0
  1  7  2  0  0  0
  9 10  2  0  0  0
 10 12  1  0  0  0
 10 11  1  0  0  0
 12 13  2  0  0  0
 12 14  1  0  0  0
  2  3  2  0  0  0
  3  4  1  0  0  0
  4  5  1  0  0  0
  4  6  2  0  0  0
  6  7  1  0  0  0
  5  8  1  0  0  0
M  CHG 1  14  -1
M  END
> <minimizedAffinity>
-6.52290

$$$$
1MFI_FHC_A_115


 14 14  0  0  0  0  0  0  0  0999 V2000
  -11.0822   27.6820   17.4435 C   0  0  0  0  0  0  0  0  0  0  0  0
  -10.1450   28.1692   18.3653 C   0  0  0  0  0  0  0  0  0  0  0  0
  -10.5737   28.8519   19.5497 C   0  0  0  0  0  0  0  0  0  0  0  0
  -11.9463   28.9844   19.7827 C   0  0  0  0  0  0  0  0  0  0  0  0
  -12.4952   29.5915   20.9009 O   0  0  0  0  0  0  0  0  0  0  0  0
  -12.8468   28.5257   18.8592 C   0  0  0  0  0  0  0  0  0  0  0  0
  -12.4258   27.8716   17.7342 C   0  0  0  0  0  0  0  0  0  0  0  0
  -11.9360   29.9284   21.5731 H   0  0  0  0  0  0  0  0  0  0  0  0
  -10.7359   26.9163   16.2002 C   0  0  0  0  0  0  0  0  0  0  0  0
  -10.2453   27.3745   14.9934 C   0  0  0  0  0  0  0  0  0  0  0  0
   -9.9555   26.4126   14.0049 F   0  0  0  0  0  0  0  0  0  0  0  0
  -10.0556   28.8323   14.6270 C   0  0  0  0  0  0  0  0  0  0  0  0
  -11.0805   29.5688   14.7833 O   0  0  0  0  0  0  0  0  0  0  0  0
   -8.9218   29.2720   14.2806 O   0  0  0  0  0  0  0  0  0  0  0  0
  1  9  1  0  0  0
  1  2  1  0  0  0
  1  7  2  0  0  0
  9 10  2  0  0  0
 10 12  1  0  0  0
 10 11  1  0  0  0
 12 13  2  0  0  0
 12 14  1  0  0  0
  2  3  2  0  0  0
  3  4  1  0  0  0
  4  5  1  0  0  0
  4  6  2  0  0  0
  6  7  1  0  0  0
  5  8  1  0  0  0
M  CHG 1  14  -1
M  END
> <minimizedAffinity>
-6.33523

$$$$
1MFI_FHC_A_115


 14 14  0  0  0  0  0  0  0  0999 V2000
  -10.5084   27.7152   15.7531 C   0  0  0  0  0  0  0  0  0  0  0  0
  -10.9166   29.0490   15.6113 C   0  0  0  0  0  0  0  0  0  0  0  0
  -11.2369   29.8400   16.7621 C   0  0  0  0  0  0  0  0  0  0  0  0
  -11.0941   29.2631   18.0281 C   0  0  0  0  0  0  0  0  0  0  0  0
  -11.3377   29.9243   19.2213 O   0  0  0  0  0  0  0  0  0  0  0  0
  -10.7196   27.9517   18.1467 C   0  0  0  0  0  0  0  0  0  0  0  0
  -10.4121   27.2076   17.0411 C   0  0  0  0  0  0  0  0  0  0  0  0
  -11.5980   30.8244   19.2134 H   0  0  0  0  0  0  0  0  0  0  0  0
  -10.1086   26.8211   14.6161 C   0  0  0  0  0  0  0  0  0  0  0  0
   -9.3833   27.1162   13.4786 C   0  0  0  0  0  0  0  0  0  0  0  0
   -9.1061   26.0548   12.5938 F   0  0  0  0  0  0  0  0  0  0  0  0
   -8.9187   28.5011   13.0764 C   0  0  0  0  0  0  0  0  0  0  0  0
   -8.1403   29.0735   13.9031 O   0  0  0  0  0  0  0  0  0  0  0  0
   -9.2274   28.9875   11.9508 O   0  0  0  0  0  0  0  0  0  0  0  0
  1  9  1  0  0  0
  1  2  1  0  0  0
  1  7  2  0  0  0
  9 10  2  0  0  0
 10 12  1  0  0  0
 10 11  1  0  0  0
 12 13  2  0  0  0
 12 14  1  0  0  0
  2  3  2  0  0  0
  3  4  1  0  0  0
  4  5  1  0  0  0
  4  6  2  0  0  0
  6  7  1  0  0  0
  5  8  1  0  0  0
M  CHG 1  14  -1
M  END
> <minimizedAffinity>
-5.66538

$$$$
