1G98_PA5_A_558


 21 20  0  0  0  0  0  0  0  0999 V2000
   17.6412    8.7764   28.3378 C   0  0  0  0  0  0  0  0  0  0  0  0
   17.8028    7.5258   29.0196 O   0  0  0  0  0  0  0  0  0  0  0  0
   17.9964    7.6905   29.9557 H   0  0  0  0  0  0  0  0  0  0  0  0
   16.5038    9.5226   29.1163 C   0  0  0  0  0  0  0  0  0  0  0  0
   17.1830   10.3306   30.0534 O   0  0  0  0  0  0  0  0  0  0  0  0
   17.7885   10.9276   29.5867 H   0  0  0  0  0  0  0  0  0  0  0  0
   15.6695   10.4185   28.1450 C   0  0  0  0  0  0  0  0  0  0  0  0
   15.7490   11.7745   28.6362 O   0  0  0  0  0  0  0  0  0  0  0  0
   15.4838   11.7965   29.5690 H   0  0  0  0  0  0  0  0  0  0  0  0
   13.6169   10.1605   27.1166 O   0  0  0  0  0  0  0  0  0  0  0  0
   14.2857    9.6903   28.1597 C   0  0  0  0  0  0  0  0  0  0  0  0
   13.7762    8.8487   28.8895 O   0  0  0  0  0  0  0  0  0  0  0  0
   14.2514    8.5181   29.6263 H   0  0  0  0  0  0  0  0  0  0  0  0
   18.9301    9.6354   28.4530 C   0  0  0  0  0  0  0  0  0  0  0  0
   20.0365    8.6303   28.5422 O   0  0  0  0  0  0  0  0  0  0  0  0
   20.7144    8.7815   30.0155 P   0  0  0  0  0  0  0  0  0  0  0  0
   21.8519    9.8254   29.9790 O   0  0  0  0  0  0  0  0  0  0  0  0
   19.6994    9.3138   31.0145 O   0  0  0  0  0  0  0  0  0  0  0  0
   21.1871    7.3702   30.4003 O   0  0  0  0  0  0  0  0  0  0  0  0
   19.4191   10.2033   30.7478 H   0  0  0  0  0  0  0  0  0  0  0  0
   21.8323    7.0562   29.7476 H   0  0  0  0  0  0  0  0  0  0  0  0
 10 11  2  0  0  0
 11 12  1  0  0  0
 11  7  1  0  0  0
  7  8  1  0  0  0
  7  4  1  0  0  0
  4  5  1  0  0  0
  4  1  1  0  0  0
  1  2  1  0  0  0
  1 14  1  0  0  0
 14 15  1  0  0  0
 15 16  1  0  0  0
 16 17  2  0  0  0
 16 18  1  0  0  0
 16 19  1  0  0  0
 12 13  1  0  0  0
  8  9  1  0  0  0
  5  6  1  0  0  0
  2  3  1  0  0  0
 18 20  1  0  0  0
 19 21  1  0  0  0
M  END
> <minimizedAffinity>
-8.48848

$$$$
1G98_PA5_A_558


 21 20  0  0  0  0  0  0  0  0999 V2000
   17.3329    9.1068   30.5560 C   0  0  0  0  0  0  0  0  0  0  0  0
   16.2909    8.1387   30.7355 O   0  0  0  0  0  0  0  0  0  0  0  0
   16.1133    7.6947   29.8916 H   0  0  0  0  0  0  0  0  0  0  0  0
   18.5454    8.2998   29.9772 C   0  0  0  0  0  0  0  0  0  0  0  0
   17.9582    7.3090   29.1612 O   0  0  0  0  0  0  0  0  0  0  0  0
   17.4142    7.7326   28.4790 H   0  0  0  0  0  0  0  0  0  0  0  0
   19.4611    9.2271   29.1148 C   0  0  0  0  0  0  0  0  0  0  0  0
   19.2865    8.8398   27.7342 O   0  0  0  0  0  0  0  0  0  0  0  0
   19.4406    7.8864   27.6439 H   0  0  0  0  0  0  0  0  0  0  0  0
   20.8719    7.7391   30.1791 O   0  0  0  0  0  0  0  0  0  0  0  0
   20.8541    9.0059   29.7903 C   0  0  0  0  0  0  0  0  0  0  0  0
   21.8242    9.7259   29.9925 O   0  0  0  0  0  0  0  0  0  0  0  0
   21.8087   10.6212   29.7165 H   0  0  0  0  0  0  0  0  0  0  0  0
   16.9234   10.1643   29.4947 C   0  0  0  0  0  0  0  0  0  0  0  0
   16.1647    9.3818   28.4680 O   0  0  0  0  0  0  0  0  0  0  0  0
   14.6428    9.9619   28.4400 P   0  0  0  0  0  0  0  0  0  0  0  0
   14.5665   11.3067   29.1954 O   0  0  0  0  0  0  0  0  0  0  0  0
   14.2176   10.2672   27.0126 O   0  0  0  0  0  0  0  0  0  0  0  0
   13.7681    8.8590   29.0578 O   0  0  0  0  0  0  0  0  0  0  0  0
   14.7849   10.9646   26.6484 H   0  0  0  0  0  0  0  0  0  0  0  0
   14.0608    8.6850   29.9661 H   0  0  0  0  0  0  0  0  0  0  0  0
 10 11  2  0  0  0
 11 12  1  0  0  0
 11  7  1  0  0  0
  7  8  1  0  0  0
  7  4  1  0  0  0
  4  5  1  0  0  0
  4  1  1  0  0  0
  1  2  1  0  0  0
  1 14  1  0  0  0
 14 15  1  0  0  0
 15 16  1  0  0  0
 16 17  2  0  0  0
 16 18  1  0  0  0
 16 19  1  0  0  0
 12 13  1  0  0  0
  8  9  1  0  0  0
  5  6  1  0  0  0
  2  3  1  0  0  0
 18 20  1  0  0  0
 19 21  1  0  0  0
M  END
> <minimizedAffinity>
-8.36103

$$$$
1G98_PA5_A_558


 21 20  0  0  0  0  0  0  0  0999 V2000
   17.0312    9.8279   30.2843 C   0  0  0  0  0  0  0  0  0  0  0  0
   17.5388   11.0054   29.6431 O   0  0  0  0  0  0  0  0  0  0  0  0
   17.8392   10.7822   28.7482 H   0  0  0  0  0  0  0  0  0  0  0  0
   15.9044    9.2977   29.3327 C   0  0  0  0  0  0  0  0  0  0  0  0
   14.9895    8.6486   30.1894 O   0  0  0  0  0  0  0  0  0  0  0  0
   14.6694    9.2764   30.8560 H   0  0  0  0  0  0  0  0  0  0  0  0
   15.1996   10.4849   28.6007 C   0  0  0  0  0  0  0  0  0  0  0  0
   14.7700   11.4203   29.6141 O   0  0  0  0  0  0  0  0  0  0  0  0
   14.2390   10.9550   30.2793 H   0  0  0  0  0  0  0  0  0  0  0  0
   13.7390   10.5822   26.8134 O   0  0  0  0  0  0  0  0  0  0  0  0
   14.1165    9.7339   27.7590 C   0  0  0  0  0  0  0  0  0  0  0  0
   13.6187    8.6163   27.8183 O   0  0  0  0  0  0  0  0  0  0  0  0
   13.8876    8.0186   28.4880 H   0  0  0  0  0  0  0  0  0  0  0  0
   18.1285    8.7319   30.3685 C   0  0  0  0  0  0  0  0  0  0  0  0
   19.3803    9.4873   30.6919 O   0  0  0  0  0  0  0  0  0  0  0  0
   20.5956    8.7972   29.8552 P   0  0  0  0  0  0  0  0  0  0  0  0
   20.8630    7.3682   30.3763 O   0  0  0  0  0  0  0  0  0  0  0  0
   20.2094    8.6366   28.3936 O   0  0  0  0  0  0  0  0  0  0  0  0
   21.7965    9.7439   30.0131 O   0  0  0  0  0  0  0  0  0  0  0  0
   19.4511    8.0358   28.3237 H   0  0  0  0  0  0  0  0  0  0  0  0
   22.0207    9.8278   30.9531 H   0  0  0  0  0  0  0  0  0  0  0  0
 10 11  2  0  0  0
 11 12  1  0  0  0
 11  7  1  0  0  0
  7  8  1  0  0  0
  7  4  1  0  0  0
  4  5  1  0  0  0
  4  1  1  0  0  0
  1  2  1  0  0  0
  1 14  1  0  0  0
 14 15  1  0  0  0
 15 16  1  0  0  0
 16 17  2  0  0  0
 16 18  1  0  0  0
 16 19  1  0  0  0
 12 13  1  0  0  0
  8  9  1  0  0  0
  5  6  1  0  0  0
  2  3  1  0  0  0
 18 20  1  0  0  0
 19 21  1  0  0  0
M  END
> <minimizedAffinity>
-8.23824

$$$$
1G98_PA5_A_558


 21 20  0  0  0  0  0  0  0  0999 V2000
   17.7456    8.7019   28.2446 C   0  0  0  0  0  0  0  0  0  0  0  0
   17.6876    7.6625   29.2301 O   0  0  0  0  0  0  0  0  0  0  0  0
   17.6946    8.0565   30.1164 H   0  0  0  0  0  0  0  0  0  0  0  0
   16.5201    9.6284   28.5548 C   0  0  0  0  0  0  0  0  0  0  0  0
   15.5419    8.7607   29.0863 O   0  0  0  0  0  0  0  0  0  0  0  0
   15.8976    8.3140   29.8704 H   0  0  0  0  0  0  0  0  0  0  0  0
   16.9043   10.7116   29.6137 C   0  0  0  0  0  0  0  0  0  0  0  0
   16.7227   10.1199   30.9188 O   0  0  0  0  0  0  0  0  0  0  0  0
   15.8258    9.7570   30.9874 H   0  0  0  0  0  0  0  0  0  0  0  0
   14.7414   11.4474   29.2706 O   0  0  0  0  0  0  0  0  0  0  0  0
   15.9834   11.9025   29.1902 C   0  0  0  0  0  0  0  0  0  0  0  0
   16.1949   13.0573   28.8408 O   0  0  0  0  0  0  0  0  0  0  0  0
   17.0741   13.3763   28.7848 H   0  0  0  0  0  0  0  0  0  0  0  0
   19.0332    9.5529   28.4188 C   0  0  0  0  0  0  0  0  0  0  0  0
   20.1261    8.5411   28.5727 O   0  0  0  0  0  0  0  0  0  0  0  0
   20.7580    8.7291   30.0623 P   0  0  0  0  0  0  0  0  0  0  0  0
   21.9037    9.7642   30.0331 O   0  0  0  0  0  0  0  0  0  0  0  0
   19.7157    9.2957   31.0130 O   0  0  0  0  0  0  0  0  0  0  0  0
   21.2078    7.3262   30.5011 O   0  0  0  0  0  0  0  0  0  0  0  0
   19.4506   10.1792   30.7129 H   0  0  0  0  0  0  0  0  0  0  0  0
   21.8711    6.9897   29.8783 H   0  0  0  0  0  0  0  0  0  0  0  0
 10 11  2  0  0  0
 11 12  1  0  0  0
 11  7  1  0  0  0
  7  8  1  0  0  0
  7  4  1  0  0  0
  4  5  1  0  0  0
  4  1  1  0  0  0
  1  2  1  0  0  0
  1 14  1  0  0  0
 14 15  1  0  0  0
 15 16  1  0  0  0
 16 17  2  0  0  0
 16 18  1  0  0  0
 16 19  1  0  0  0
 12 13  1  0  0  0
  8  9  1  0  0  0
  5  6  1  0  0  0
  2  3  1  0  0  0
 18 20  1  0  0  0
 19 21  1  0  0  0
M  END
> <minimizedAffinity>
-8.15122

$$$$
1G98_PA5_A_558


 21 20  0  0  0  0  0  0  0  0999 V2000
   18.3812    9.6998   29.2210 C   0  0  0  0  0  0  0  0  0  0  0  0
   19.2446   10.7905   29.5676 O   0  0  0  0  0  0  0  0  0  0  0  0
   19.1783   10.9654   30.5194 H   0  0  0  0  0  0  0  0  0  0  0  0
   18.8375    8.5109   30.1347 C   0  0  0  0  0  0  0  0  0  0  0  0
   18.3062    7.3596   29.5147 O   0  0  0  0  0  0  0  0  0  0  0  0
   18.6392    7.2990   28.6057 H   0  0  0  0  0  0  0  0  0  0  0  0
   20.3969    8.4204   30.1808 C   0  0  0  0  0  0  0  0  0  0  0  0
   20.8659    8.3866   28.8150 O   0  0  0  0  0  0  0  0  0  0  0  0
   20.4123    7.6762   28.3349 H   0  0  0  0  0  0  0  0  0  0  0  0
   21.7775    7.3388   31.6846 O   0  0  0  0  0  0  0  0  0  0  0  0
   20.6100    7.1611   31.0833 C   0  0  0  0  0  0  0  0  0  0  0  0
   19.9495    6.1539   31.3059 O   0  0  0  0  0  0  0  0  0  0  0  0
   19.1243    6.0309   30.8793 H   0  0  0  0  0  0  0  0  0  0  0  0
   16.9070   10.0300   29.5818 C   0  0  0  0  0  0  0  0  0  0  0  0
   16.1042    9.3313   28.5285 O   0  0  0  0  0  0  0  0  0  0  0  0
   14.5675    9.8556   28.6595 P   0  0  0  0  0  0  0  0  0  0  0  0
   13.9698   10.1226   27.2608 O   0  0  0  0  0  0  0  0  0  0  0  0
   13.6915    8.7807   29.2829 O   0  0  0  0  0  0  0  0  0  0  0  0
   14.6318   11.1072   29.5498 O   0  0  0  0  0  0  0  0  0  0  0  0
   13.6690    8.0046   28.7015 H   0  0  0  0  0  0  0  0  0  0  0  0
   15.1957   11.7748   29.1290 H   0  0  0  0  0  0  0  0  0  0  0  0
 10 11  2  0  0  0
 11 12  1  0  0  0
 11  7  1  0  0  0
  7  8  1  0  0  0
  7  4  1  0  0  0
  4  5  1  0  0  0
  4  1  1  0  0  0
  1  2  1  0  0  0
  1 14  1  0  0  0
 14 15  1  0  0  0
 15 16  1  0  0  0
 16 17  2  0  0  0
 16 18  1  0  0  0
 16 19  1  0  0  0
 12 13  1  0  0  0
  8  9  1  0  0  0
  5  6  1  0  0  0
  2  3  1  0  0  0
 18 20  1  0  0  0
 19 21  1  0  0  0
M  END
> <minimizedAffinity>
-7.89740

$$$$
1G98_PA5_A_558


 21 20  0  0  0  0  0  0  0  0999 V2000
   17.6711   11.3195   27.8405 C   0  0  0  0  0  0  0  0  0  0  0  0
   17.3899   11.6496   26.4741 O   0  0  0  0  0  0  0  0  0  0  0  0
   17.2683   10.8343   25.9629 H   0  0  0  0  0  0  0  0  0  0  0  0
   16.4635   10.4345   28.3041 C   0  0  0  0  0  0  0  0  0  0  0  0
   16.9944    9.1306   28.4056 O   0  0  0  0  0  0  0  0  0  0  0  0
   17.7362    9.1312   29.0306 H   0  0  0  0  0  0  0  0  0  0  0  0
   15.9394   10.9070   29.6985 C   0  0  0  0  0  0  0  0  0  0  0  0
   16.8291   11.9462   30.1623 O   0  0  0  0  0  0  0  0  0  0  0  0
   17.7435   11.6234   30.1383 H   0  0  0  0  0  0  0  0  0  0  0  0
   16.9227    9.5691   31.3048 O   0  0  0  0  0  0  0  0  0  0  0  0
   15.8820    9.5563   30.4845 C   0  0  0  0  0  0  0  0  0  0  0  0
   15.1184    8.5986   30.4732 O   0  0  0  0  0  0  0  0  0  0  0  0
   14.3833    8.5923   29.8922 H   0  0  0  0  0  0  0  0  0  0  0  0
   18.9553   10.4519   27.9429 C   0  0  0  0  0  0  0  0  0  0  0  0
   19.5145   10.7786   29.2929 O   0  0  0  0  0  0  0  0  0  0  0  0
   20.4151    9.5071   29.7680 P   0  0  0  0  0  0  0  0  0  0  0  0
   20.4453    8.4277   28.6640 O   0  0  0  0  0  0  0  0  0  0  0  0
   21.8617    9.9281   29.9715 O   0  0  0  0  0  0  0  0  0  0  0  0
   19.7856    9.0229   31.0842 O   0  0  0  0  0  0  0  0  0  0  0  0
   22.2329   10.2283   29.1272 H   0  0  0  0  0  0  0  0  0  0  0  0
   18.8651    8.7613   30.9254 H   0  0  0  0  0  0  0  0  0  0  0  0
 10 11  2  0  0  0
 11 12  1  0  0  0
 11  7  1  0  0  0
  7  8  1  0  0  0
  7  4  1  0  0  0
  4  5  1  0  0  0
  4  1  1  0  0  0
  1  2  1  0  0  0
  1 14  1  0  0  0
 14 15  1  0  0  0
 15 16  1  0  0  0
 16 17  2  0  0  0
 16 18  1  0  0  0
 16 19  1  0  0  0
 12 13  1  0  0  0
  8  9  1  0  0  0
  5  6  1  0  0  0
  2  3  1  0  0  0
 18 20  1  0  0  0
 19 21  1  0  0  0
M  END
> <minimizedAffinity>
-7.80820

$$$$
1G98_PA5_A_558


 21 20  0  0  0  0  0  0  0  0999 V2000
   17.7068    8.0858   29.1314 C   0  0  0  0  0  0  0  0  0  0  0  0
   17.9349    8.0305   27.7172 O   0  0  0  0  0  0  0  0  0  0  0  0
   18.2225    8.9015   27.4018 H   0  0  0  0  0  0  0  0  0  0  0  0
   19.0597    8.5861   29.7445 C   0  0  0  0  0  0  0  0  0  0  0  0
   18.8753    9.9727   29.9332 O   0  0  0  0  0  0  0  0  0  0  0  0
   18.1102   10.1215   30.5107 H   0  0  0  0  0  0  0  0  0  0  0  0
   19.3303    7.8922   31.1183 C   0  0  0  0  0  0  0  0  0  0  0  0
   18.9971    8.8433   32.1531 O   0  0  0  0  0  0  0  0  0  0  0  0
   19.4730    9.6735   31.9946 H   0  0  0  0  0  0  0  0  0  0  0  0
   21.4253    8.4319   30.3079 O   0  0  0  0  0  0  0  0  0  0  0  0
   20.8202    7.4461   30.9546 C   0  0  0  0  0  0  0  0  0  0  0  0
   21.4511    6.4516   31.2912 O   0  0  0  0  0  0  0  0  0  0  0  0
   21.0206    5.7561   31.7483 H   0  0  0  0  0  0  0  0  0  0  0  0
   16.6189    9.1409   29.4715 C   0  0  0  0  0  0  0  0  0  0  0  0
   16.0905    9.5691   28.1375 O   0  0  0  0  0  0  0  0  0  0  0  0
   14.4930    9.8371   28.3094 P   0  0  0  0  0  0  0  0  0  0  0  0
   14.0520   11.0328   27.4372 O   0  0  0  0  0  0  0  0  0  0  0  0
   13.6975    8.6440   27.8045 O   0  0  0  0  0  0  0  0  0  0  0  0
   14.2702   10.0584   29.8143 O   0  0  0  0  0  0  0  0  0  0  0  0
   13.8565    8.5280   26.8547 H   0  0  0  0  0  0  0  0  0  0  0  0
   14.7882   10.8238   30.1087 H   0  0  0  0  0  0  0  0  0  0  0  0
 10 11  2  0  0  0
 11 12  1  0  0  0
 11  7  1  0  0  0
  7  8  1  0  0  0
  7  4  1  0  0  0
  4  5  1  0  0  0
  4  1  1  0  0  0
  1  2  1  0  0  0
  1 14  1  0  0  0
 14 15  1  0  0  0
 15 16  1  0  0  0
 16 17  2  0  0  0
 16 18  1  0  0  0
 16 19  1  0  0  0
 12 13  1  0  0  0
  8  9  1  0  0  0
  5  6  1  0  0  0
  2  3  1  0  0  0
 18 20  1  0  0  0
 19 21  1  0  0  0
M  END
> <minimizedAffinity>
-7.80594

$$$$
1G98_PA5_A_558


 21 20  0  0  0  0  0  0  0  0999 V2000
   17.4572    8.5270   30.0320 C   0  0  0  0  0  0  0  0  0  0  0  0
   17.9052    7.5015   29.1360 O   0  0  0  0  0  0  0  0  0  0  0  0
   18.4726    7.8934   28.4538 H   0  0  0  0  0  0  0  0  0  0  0  0
   18.7665    9.1933   30.5782 C   0  0  0  0  0  0  0  0  0  0  0  0
   18.9079    8.6831   31.8866 O   0  0  0  0  0  0  0  0  0  0  0  0
   18.9515    7.7147   31.8531 H   0  0  0  0  0  0  0  0  0  0  0  0
   19.9973    8.7800   29.7086 C   0  0  0  0  0  0  0  0  0  0  0  0
   20.5423    7.5715   30.2821 O   0  0  0  0  0  0  0  0  0  0  0  0
   20.7159    7.7114   31.2262 H   0  0  0  0  0  0  0  0  0  0  0  0
   22.0867    9.7031   30.0544 O   0  0  0  0  0  0  0  0  0  0  0  0
   20.8567   10.0861   29.7433 C   0  0  0  0  0  0  0  0  0  0  0  0
   20.6112   11.2701   29.5477 O   0  0  0  0  0  0  0  0  0  0  0  0
   19.7406   11.5379   29.3279 H   0  0  0  0  0  0  0  0  0  0  0  0
   16.6607    9.6175   29.2646 C   0  0  0  0  0  0  0  0  0  0  0  0
   17.4127   10.8834   29.5364 O   0  0  0  0  0  0  0  0  0  0  0  0
   16.3535   12.1149   29.4149 P   0  0  0  0  0  0  0  0  0  0  0  0
   16.5423   12.8556   28.0730 O   0  0  0  0  0  0  0  0  0  0  0  0
   14.9274   11.5884   29.3971 O   0  0  0  0  0  0  0  0  0  0  0  0
   16.6050   13.0000   30.6464 O   0  0  0  0  0  0  0  0  0  0  0  0
   14.7970   11.0346   28.6115 H   0  0  0  0  0  0  0  0  0  0  0  0
   17.5201   13.3214   30.6322 H   0  0  0  0  0  0  0  0  0  0  0  0
 10 11  2  0  0  0
 11 12  1  0  0  0
 11  7  1  0  0  0
  7  8  1  0  0  0
  7  4  1  0  0  0
  4  5  1  0  0  0
  4  1  1  0  0  0
  1  2  1  0  0  0
  1 14  1  0  0  0
 14 15  1  0  0  0
 15 16  1  0  0  0
 16 17  2  0  0  0
 16 18  1  0  0  0
 16 19  1  0  0  0
 12 13  1  0  0  0
  8  9  1  0  0  0
  5  6  1  0  0  0
  2  3  1  0  0  0
 18 20  1  0  0  0
 19 21  1  0  0  0
M  END
> <minimizedAffinity>
-7.79697

$$$$
1G98_PA5_A_558


 21 20  0  0  0  0  0  0  0  0999 V2000
   17.0174    9.3954   30.7611 C   0  0  0  0  0  0  0  0  0  0  0  0
   16.2494    8.1973   30.5884 O   0  0  0  0  0  0  0  0  0  0  0  0
   16.0548    8.0709   29.6466 H   0  0  0  0  0  0  0  0  0  0  0  0
   18.2820    9.2045   29.8551 C   0  0  0  0  0  0  0  0  0  0  0  0
   18.7274   10.5158   29.5823 O   0  0  0  0  0  0  0  0  0  0  0  0
   18.9146   10.9738   30.4166 H   0  0  0  0  0  0  0  0  0  0  0  0
   19.3913    8.4127   30.6197 C   0  0  0  0  0  0  0  0  0  0  0  0
   19.1938    8.6506   32.0307 O   0  0  0  0  0  0  0  0  0  0  0  0
   19.1620    9.6058   32.1962 H   0  0  0  0  0  0  0  0  0  0  0  0
   20.6660    8.4954   28.6947 O   0  0  0  0  0  0  0  0  0  0  0  0
   20.6893    8.9559   29.9372 C   0  0  0  0  0  0  0  0  0  0  0  0
   21.6167    9.6609   30.3155 O   0  0  0  0  0  0  0  0  0  0  0  0
   21.6305    9.9850   31.1946 H   0  0  0  0  0  0  0  0  0  0  0  0
   16.2391   10.6287   30.2266 C   0  0  0  0  0  0  0  0  0  0  0  0
   15.8594   10.2479   28.8291 O   0  0  0  0  0  0  0  0  0  0  0  0
   15.5313   11.6239   28.0214 P   0  0  0  0  0  0  0  0  0  0  0  0
   16.3890   11.7122   26.7401 O   0  0  0  0  0  0  0  0  0  0  0  0
   14.0859   11.6307   27.5501 O   0  0  0  0  0  0  0  0  0  0  0  0
   15.7972   12.7628   29.0190 O   0  0  0  0  0  0  0  0  0  0  0  0
   13.9467   10.9036   26.9233 H   0  0  0  0  0  0  0  0  0  0  0  0
   16.7244   12.7347   29.3023 H   0  0  0  0  0  0  0  0  0  0  0  0
 10 11  2  0  0  0
 11 12  1  0  0  0
 11  7  1  0  0  0
  7  8  1  0  0  0
  7  4  1  0  0  0
  4  5  1  0  0  0
  4  1  1  0  0  0
  1  2  1  0  0  0
  1 14  1  0  0  0
 14 15  1  0  0  0
 15 16  1  0  0  0
 16 17  2  0  0  0
 16 18  1  0  0  0
 16 19  1  0  0  0
 12 13  1  0  0  0
  8  9  1  0  0  0
  5  6  1  0  0  0
  2  3  1  0  0  0
 18 20  1  0  0  0
 19 21  1  0  0  0
M  END
> <minimizedAffinity>
-7.72952

$$$$
1G98_PA5_A_558


 21 20  0  0  0  0  0  0  0  0999 V2000
   17.7624   11.6436   29.0246 C   0  0  0  0  0  0  0  0  0  0  0  0
   17.2826   12.9818   28.8396 O   0  0  0  0  0  0  0  0  0  0  0  0
   17.1966   13.1662   27.8912 H   0  0  0  0  0  0  0  0  0  0  0  0
   16.7308   10.7322   28.2751 C   0  0  0  0  0  0  0  0  0  0  0  0
   17.4665   10.1542   27.2183 O   0  0  0  0  0  0  0  0  0  0  0  0
   18.2229    9.6663   27.5798 H   0  0  0  0  0  0  0  0  0  0  0  0
   16.1938    9.6138   29.2253 C   0  0  0  0  0  0  0  0  0  0  0  0
   17.0256    8.4489   29.0310 O   0  0  0  0  0  0  0  0  0  0  0  0
   17.0560    8.2272   28.0872 H   0  0  0  0  0  0  0  0  0  0  0  0
   14.4994   10.5505   27.9648 O   0  0  0  0  0  0  0  0  0  0  0  0
   14.6886    9.5447   28.8067 C   0  0  0  0  0  0  0  0  0  0  0  0
   13.7611    8.7969   29.0913 O   0  0  0  0  0  0  0  0  0  0  0  0
   13.8979    8.0865   29.6868 H   0  0  0  0  0  0  0  0  0  0  0  0
   19.1421   11.4547   28.3366 C   0  0  0  0  0  0  0  0  0  0  0  0
   20.1100   11.3487   29.4742 O   0  0  0  0  0  0  0  0  0  0  0  0
   20.4235    9.7665   29.7013 P   0  0  0  0  0  0  0  0  0  0  0  0
   19.5541    9.2056   30.8478 O   0  0  0  0  0  0  0  0  0  0  0  0
   20.0409    8.9671   28.4660 O   0  0  0  0  0  0  0  0  0  0  0  0
   21.9336    9.6790   29.9754 O   0  0  0  0  0  0  0  0  0  0  0  0
   19.0851    9.0398   28.3171 H   0  0  0  0  0  0  0  0  0  0  0  0
   22.1491   10.1967   30.7669 H   0  0  0  0  0  0  0  0  0  0  0  0
 10 11  2  0  0  0
 11 12  1  0  0  0
 11  7  1  0  0  0
  7  8  1  0  0  0
  7  4  1  0  0  0
  4  5  1  0  0  0
  4  1  1  0  0  0
  1  2  1  0  0  0
  1 14  1  0  0  0
 14 15  1  0  0  0
 15 16  1  0  0  0
 16 17  2  0  0  0
 16 18  1  0  0  0
 16 19  1  0  0  0
 12 13  1  0  0  0
  8  9  1  0  0  0
  5  6  1  0  0  0
  2  3  1  0  0  0
 18 20  1  0  0  0
 19 21  1  0  0  0
M  END
> <minimizedAffinity>
-7.66773

$$$$
