2RKA_PGA_A_623


 12 11  0  0  0  0  0  0  0  0999 V2000
   11.9335    3.0232   19.9710 P   0  0  0  0  0  0  0  0  0  0  0  0
   12.0046    3.5161   18.5450 O   0  0  0  0  0  0  0  0  0  0  0  0
   13.3150    2.6879   20.4756 O   0  0  0  0  0  0  0  0  0  0  0  0
   11.3474    4.0919   20.8616 O   0  0  0  0  0  0  0  0  0  0  0  0
   13.7068    2.0014   19.9134 H   0  0  0  0  0  0  0  0  0  0  0  0
   10.4573    4.3197   20.5505 H   0  0  0  0  0  0  0  0  0  0  0  0
   11.0499    1.6798   19.9941 O   0  0  0  0  0  0  0  0  0  0  0  0
    9.6500    1.7041   20.1182 C   0  0  0  0  0  0  0  0  0  0  0  0
    9.2854    1.5557   21.5710 C   0  0  0  0  0  0  0  0  0  0  0  0
    8.0884    1.4348   21.8736 O   0  0  0  0  0  0  0  0  0  0  0  0
   10.1508    1.5492   22.4779 O   0  0  0  0  0  0  0  0  0  0  0  0
   11.0578    1.6398   22.2607 H   0  0  0  0  0  0  0  0  0  0  0  0
  1  7  1  0  0  0
  1  2  2  0  0  0
  1  3  1  0  0  0
  1  4  1  0  0  0
  7  8  1  0  0  0
  8  9  1  0  0  0
  9 10  2  0  0  0
  9 11  1  0  0  0
  3  5  1  0  0  0
  4  6  1  0  0  0
 11 12  1  0  0  0
M  END
> <minimizedAffinity>
-5.20083

$$$$
2RKA_PGA_A_623


 12 11  0  0  0  0  0  0  0  0999 V2000
   10.4548    3.2722   22.2765 P   0  0  0  0  0  0  0  0  0  0  0  0
   11.7768    3.6189   22.9195 O   0  0  0  0  0  0  0  0  0  0  0  0
   10.1502    1.8074   22.4692 O   0  0  0  0  0  0  0  0  0  0  0  0
    9.3437    4.0767   22.9065 O   0  0  0  0  0  0  0  0  0  0  0  0
   10.8557    1.2752   22.0694 H   0  0  0  0  0  0  0  0  0  0  0  0
    9.5241    5.0228   22.7914 H   0  0  0  0  0  0  0  0  0  0  0  0
   10.5742    3.5577   20.6984 O   0  0  0  0  0  0  0  0  0  0  0  0
   11.2016    2.6589   19.8184 C   0  0  0  0  0  0  0  0  0  0  0  0
   12.6441    3.0576   19.6588 C   0  0  0  0  0  0  0  0  0  0  0  0
   12.9673    3.7351   18.6711 O   0  0  0  0  0  0  0  0  0  0  0  0
   13.5224    2.7283   20.4904 O   0  0  0  0  0  0  0  0  0  0  0  0
   13.2895    2.2167   21.2401 H   0  0  0  0  0  0  0  0  0  0  0  0
  1  7  1  0  0  0
  1  2  2  0  0  0
  1  3  1  0  0  0
  1  4  1  0  0  0
  7  8  1  0  0  0
  8  9  1  0  0  0
  9 10  2  0  0  0
  9 11  1  0  0  0
  3  5  1  0  0  0
  4  6  1  0  0  0
 11 12  1  0  0  0
M  END
> <minimizedAffinity>
-5.18348

$$$$
2RKA_PGA_A_623


 12 11  0  0  0  0  0  0  0  0999 V2000
   12.0083    2.9950   19.8917 P   0  0  0  0  0  0  0  0  0  0  0  0
   11.2272    1.7063   19.7874 O   0  0  0  0  0  0  0  0  0  0  0  0
   11.2044    4.0323   20.6357 O   0  0  0  0  0  0  0  0  0  0  0  0
   13.2969    2.7623   20.6426 O   0  0  0  0  0  0  0  0  0  0  0  0
   10.3715    4.1941   20.1657 H   0  0  0  0  0  0  0  0  0  0  0  0
   13.8269    2.0966   20.1769 H   0  0  0  0  0  0  0  0  0  0  0  0
   12.2779    3.5402   18.4031 O   0  0  0  0  0  0  0  0  0  0  0  0
   12.2952    2.6900   17.2839 C   0  0  0  0  0  0  0  0  0  0  0  0
   13.5411    1.8466   17.3300 C   0  0  0  0  0  0  0  0  0  0  0  0
   14.6060    2.3377   16.9253 O   0  0  0  0  0  0  0  0  0  0  0  0
   13.5340    0.6706   17.7640 O   0  0  0  0  0  0  0  0  0  0  0  0
   12.7353    0.2897   18.0721 H   0  0  0  0  0  0  0  0  0  0  0  0
  1  7  1  0  0  0
  1  2  2  0  0  0
  1  3  1  0  0  0
  1  4  1  0  0  0
  7  8  1  0  0  0
  8  9  1  0  0  0
  9 10  2  0  0  0
  9 11  1  0  0  0
  3  5  1  0  0  0
  4  6  1  0  0  0
 11 12  1  0  0  0
M  END
> <minimizedAffinity>
-5.15732

$$$$
2RKA_PGA_A_623


 12 11  0  0  0  0  0  0  0  0999 V2000
   12.1675    2.9563   19.5389 P   0  0  0  0  0  0  0  0  0  0  0  0
   11.4935    1.6603   19.1549 O   0  0  0  0  0  0  0  0  0  0  0  0
   13.3029    2.6892   20.4956 O   0  0  0  0  0  0  0  0  0  0  0  0
   12.7279    3.6341   18.3120 O   0  0  0  0  0  0  0  0  0  0  0  0
   12.9596    2.2530   21.2911 H   0  0  0  0  0  0  0  0  0  0  0  0
   12.0097    3.8133   17.6852 H   0  0  0  0  0  0  0  0  0  0  0  0
   11.0862    3.8816   20.2876 O   0  0  0  0  0  0  0  0  0  0  0  0
    9.9234    3.3528   20.8741 C   0  0  0  0  0  0  0  0  0  0  0  0
   10.2297    2.9527   22.2924 C   0  0  0  0  0  0  0  0  0  0  0  0
   11.2393    3.4243   22.8376 O   0  0  0  0  0  0  0  0  0  0  0  0
    9.4981    2.1632   22.9349 O   0  0  0  0  0  0  0  0  0  0  0  0
    8.7331    1.8011   22.5328 H   0  0  0  0  0  0  0  0  0  0  0  0
  1  7  1  0  0  0
  1  2  2  0  0  0
  1  3  1  0  0  0
  1  4  1  0  0  0
  7  8  1  0  0  0
  8  9  1  0  0  0
  9 10  2  0  0  0
  9 11  1  0  0  0
  3  5  1  0  0  0
  4  6  1  0  0  0
 11 12  1  0  0  0
M  END
> <minimizedAffinity>
-5.07544

$$$$
2RKA_PGA_A_623


 12 11  0  0  0  0  0  0  0  0999 V2000
    9.5193    3.5790   21.1169 P   0  0  0  0  0  0  0  0  0  0  0  0
    8.1460    3.0295   20.8109 O   0  0  0  0  0  0  0  0  0  0  0  0
    9.7877    4.8054   20.2806 O   0  0  0  0  0  0  0  0  0  0  0  0
    9.6117    3.9658   22.5731 O   0  0  0  0  0  0  0  0  0  0  0  0
    9.7322    4.5740   19.3402 H   0  0  0  0  0  0  0  0  0  0  0  0
    9.4414    3.1872   23.1259 H   0  0  0  0  0  0  0  0  0  0  0  0
   10.6058    2.4585   20.7295 O   0  0  0  0  0  0  0  0  0  0  0  0
   11.2039    2.4005   19.4587 C   0  0  0  0  0  0  0  0  0  0  0  0
   12.5861    2.9903   19.5417 C   0  0  0  0  0  0  0  0  0  0  0  0
   12.9590    3.7587   18.6419 O   0  0  0  0  0  0  0  0  0  0  0  0
   13.3658    2.7304   20.4882 O   0  0  0  0  0  0  0  0  0  0  0  0
   13.0946    2.1514   21.1731 H   0  0  0  0  0  0  0  0  0  0  0  0
  1  7  1  0  0  0
  1  2  2  0  0  0
  1  3  1  0  0  0
  1  4  1  0  0  0
  7  8  1  0  0  0
  8  9  1  0  0  0
  9 10  2  0  0  0
  9 11  1  0  0  0
  3  5  1  0  0  0
  4  6  1  0  0  0
 11 12  1  0  0  0
M  END
> <minimizedAffinity>
-5.04801

$$$$
2RKA_PGA_A_623


 12 11  0  0  0  0  0  0  0  0999 V2000
   12.2263    3.0163   19.6981 P   0  0  0  0  0  0  0  0  0  0  0  0
   11.4482    1.7575   19.3956 O   0  0  0  0  0  0  0  0  0  0  0  0
   11.3422    4.0201   20.3956 O   0  0  0  0  0  0  0  0  0  0  0  0
   13.3938    2.7011   20.6015 O   0  0  0  0  0  0  0  0  0  0  0  0
   10.5855    4.2341   19.8277 H   0  0  0  0  0  0  0  0  0  0  0  0
   13.9736    2.0558   20.1674 H   0  0  0  0  0  0  0  0  0  0  0  0
   12.7092    3.6550   18.3035 O   0  0  0  0  0  0  0  0  0  0  0  0
   13.9019    3.2629   17.6714 C   0  0  0  0  0  0  0  0  0  0  0  0
   14.9460    4.3233   17.8966 C   0  0  0  0  0  0  0  0  0  0  0  0
   16.1252    4.0662   17.6097 O   0  0  0  0  0  0  0  0  0  0  0  0
   14.6601    5.4520   18.3612 O   0  0  0  0  0  0  0  0  0  0  0  0
   13.7727    5.6569   18.5813 H   0  0  0  0  0  0  0  0  0  0  0  0
  1  7  1  0  0  0
  1  2  2  0  0  0
  1  3  1  0  0  0
  1  4  1  0  0  0
  7  8  1  0  0  0
  8  9  1  0  0  0
  9 10  2  0  0  0
  9 11  1  0  0  0
  3  5  1  0  0  0
  4  6  1  0  0  0
 11 12  1  0  0  0
M  END
> <minimizedAffinity>
-4.96723

$$$$
2RKA_PGA_A_623


 12 11  0  0  0  0  0  0  0  0999 V2000
   15.7398    6.7622   15.9605 P   0  0  0  0  0  0  0  0  0  0  0  0
   14.7572    7.5308   16.8120 O   0  0  0  0  0  0  0  0  0  0  0  0
   15.1844    6.5679   14.5714 O   0  0  0  0  0  0  0  0  0  0  0  0
   17.0393    7.5224   15.8519 O   0  0  0  0  0  0  0  0  0  0  0  0
   14.3476    6.0800   14.6230 H   0  0  0  0  0  0  0  0  0  0  0  0
   17.4107    7.6562   16.7379 H   0  0  0  0  0  0  0  0  0  0  0  0
   15.9526    5.3129   16.6242 O   0  0  0  0  0  0  0  0  0  0  0  0
   14.9253    4.6443   17.3122 C   0  0  0  0  0  0  0  0  0  0  0  0
   15.1602    4.7790   18.7927 C   0  0  0  0  0  0  0  0  0  0  0  0
   14.1951    4.6502   19.5614 O   0  0  0  0  0  0  0  0  0  0  0  0
   16.2958    5.0145   19.2685 O   0  0  0  0  0  0  0  0  0  0  0  0
   17.0318    5.1137   18.6972 H   0  0  0  0  0  0  0  0  0  0  0  0
  1  7  1  0  0  0
  1  2  2  0  0  0
  1  3  1  0  0  0
  1  4  1  0  0  0
  7  8  1  0  0  0
  8  9  1  0  0  0
  9 10  2  0  0  0
  9 11  1  0  0  0
  3  5  1  0  0  0
  4  6  1  0  0  0
 11 12  1  0  0  0
M  END
> <minimizedAffinity>
-4.82799

$$$$
2RKA_PGA_A_623


 12 11  0  0  0  0  0  0  0  0999 V2000
   12.9134    2.9560   19.1481 P   0  0  0  0  0  0  0  0  0  0  0  0
   13.1103    1.6788   18.3661 O   0  0  0  0  0  0  0  0  0  0  0  0
   13.4709    2.8046   20.5416 O   0  0  0  0  0  0  0  0  0  0  0  0
   13.6316    4.0970   18.4692 O   0  0  0  0  0  0  0  0  0  0  0  0
   13.0195    2.0742   20.9929 H   0  0  0  0  0  0  0  0  0  0  0  0
   13.2845    4.2083   17.5702 H   0  0  0  0  0  0  0  0  0  0  0  0
   11.3339    3.2339   19.2659 O   0  0  0  0  0  0  0  0  0  0  0  0
   10.5579    2.7203   20.3194 C   0  0  0  0  0  0  0  0  0  0  0  0
   10.1702    1.3026   19.9949 C   0  0  0  0  0  0  0  0  0  0  0  0
    9.1166    1.1028   19.3713 O   0  0  0  0  0  0  0  0  0  0  0  0
   10.8775    0.3243   20.3330 O   0  0  0  0  0  0  0  0  0  0  0  0
   11.6753    0.4636   20.8043 H   0  0  0  0  0  0  0  0  0  0  0  0
  1  7  1  0  0  0
  1  2  2  0  0  0
  1  3  1  0  0  0
  1  4  1  0  0  0
  7  8  1  0  0  0
  8  9  1  0  0  0
  9 10  2  0  0  0
  9 11  1  0  0  0
  3  5  1  0  0  0
  4  6  1  0  0  0
 11 12  1  0  0  0
M  END
> <minimizedAffinity>
-4.81833

$$$$
2RKA_PGA_A_623


 12 11  0  0  0  0  0  0  0  0999 V2000
   14.2891    3.9263   17.0726 P   0  0  0  0  0  0  0  0  0  0  0  0
   14.2182    3.9985   15.5656 O   0  0  0  0  0  0  0  0  0  0  0  0
   12.9426    3.5513   17.6400 O   0  0  0  0  0  0  0  0  0  0  0  0
   15.2924    2.8810   17.4962 O   0  0  0  0  0  0  0  0  0  0  0  0
   12.2849    4.2140   17.3768 H   0  0  0  0  0  0  0  0  0  0  0  0
   16.1654    3.1072   17.1391 H   0  0  0  0  0  0  0  0  0  0  0  0
   14.6800    5.3844   17.6269 O   0  0  0  0  0  0  0  0  0  0  0  0
   15.9615    5.9349   17.4527 C   0  0  0  0  0  0  0  0  0  0  0  0
   15.8766    7.0687   16.4664 C   0  0  0  0  0  0  0  0  0  0  0  0
   14.7636    7.5562   16.2162 O   0  0  0  0  0  0  0  0  0  0  0  0
   16.8915    7.5326   15.8953 O   0  0  0  0  0  0  0  0  0  0  0  0
   17.7371    7.1720   16.0768 H   0  0  0  0  0  0  0  0  0  0  0  0
  1  7  1  0  0  0
  1  2  2  0  0  0
  1  3  1  0  0  0
  1  4  1  0  0  0
  7  8  1  0  0  0
  8  9  1  0  0  0
  9 10  2  0  0  0
  9 11  1  0  0  0
  3  5  1  0  0  0
  4  6  1  0  0  0
 11 12  1  0  0  0
M  END
> <minimizedAffinity>
-4.67522

$$$$
2RKA_PGA_A_623


 12 11  0  0  0  0  0  0  0  0999 V2000
   13.1877    2.9906   18.9281 P   0  0  0  0  0  0  0  0  0  0  0  0
   13.3327    1.6969   18.1620 O   0  0  0  0  0  0  0  0  0  0  0  0
   13.2358    2.7250   20.4123 O   0  0  0  0  0  0  0  0  0  0  0  0
   14.3138    3.9322   18.5760 O   0  0  0  0  0  0  0  0  0  0  0  0
   12.5175    2.1205   20.6561 H   0  0  0  0  0  0  0  0  0  0  0  0
   14.2974    4.1138   17.6233 H   0  0  0  0  0  0  0  0  0  0  0  0
   11.7517    3.6236   18.5768 O   0  0  0  0  0  0  0  0  0  0  0  0
   10.5487    2.9432   18.8327 C   0  0  0  0  0  0  0  0  0  0  0  0
    9.8497    3.6044   19.9901 C   0  0  0  0  0  0  0  0  0  0  0  0
    9.2830    2.8880   20.8295 O   0  0  0  0  0  0  0  0  0  0  0  0
    9.8252    4.8498   20.1304 O   0  0  0  0  0  0  0  0  0  0  0  0
   10.2499    5.4005   19.5024 H   0  0  0  0  0  0  0  0  0  0  0  0
  1  7  1  0  0  0
  1  2  2  0  0  0
  1  3  1  0  0  0
  1  4  1  0  0  0
  7  8  1  0  0  0
  8  9  1  0  0  0
  9 10  2  0  0  0
  9 11  1  0  0  0
  3  5  1  0  0  0
  4  6  1  0  0  0
 11 12  1  0  0  0
M  END
> <minimizedAffinity>
-4.62737

$$$$
