1TKB_N1T_A_681


 30 31  0  0  0  0  0  0  0  0999 V2000
   -5.9310   58.1227   17.3509 N   0  0  0  0  0  0  0  0  0  0  0  0
   -5.7541   56.8259   17.1233 C   0  0  0  0  0  0  0  0  0  0  0  0
   -5.3035   56.4736   15.5516 S   0  0  0  0  0  0  0  0  0  0  0  0
   -5.3815   58.1273   15.1750 C   0  0  0  0  0  0  0  0  0  0  0  0
   -5.7678   58.8757   16.2663 C   0  0  0  0  0  0  0  0  0  0  0  0
   -5.9700   60.3677   16.3097 C   0  0  0  0  0  0  0  0  0  0  0  0
   -6.2658   58.6797   18.7180 C   0  0  0  0  0  0  0  0  0  0  0  0
   -3.4259   60.8082   20.0405 C   0  0  0  0  0  0  0  0  0  0  0  0
   -2.4517   59.7972   20.3933 C   0  0  0  0  0  0  0  0  0  0  0  0
   -1.1417   60.2241   20.9075 C   0  0  0  0  0  0  0  0  0  0  0  0
   -2.8395   58.5151   20.4350 N   0  0  0  0  0  0  0  0  0  0  0  0
   -4.1133   58.1646   20.0499 C   0  0  0  0  0  0  0  0  0  0  0  0
   -4.3614   56.8570   20.0743 N   0  0  0  0  0  0  0  0  0  0  0  0
   -5.0088   59.0887   19.4147 C   0  0  0  0  0  0  0  0  0  0  0  0
   -4.7329   60.3838   19.5433 C   0  0  0  0  0  0  0  0  0  0  0  0
   -3.7305   56.2444   20.5169 H   0  0  0  0  0  0  0  0  0  0  0  0
   -5.1759   56.5025   19.6497 H   0  0  0  0  0  0  0  0  0  0  0  0
   -5.0958   58.5818   13.7738 C   0  0  0  0  0  0  0  0  0  0  0  0
   -5.4011   57.4732   12.8187 C   0  0  0  0  0  0  0  0  0  0  0  0
   -4.3730   57.5995   11.8464 O   0  0  0  0  0  0  0  0  0  0  0  0
   -3.6903   56.3496   11.1776 P   0  0  0  0  0  0  0  0  0  0  0  0
   -2.3808   55.9173   11.7303 O   0  0  0  0  0  0  0  0  0  0  0  0
   -3.5524   56.9132    9.7851 O   0  0  0  0  0  0  0  0  0  0  0  0
   -2.8764   57.6088    9.7834 H   0  0  0  0  0  0  0  0  0  0  0  0
   -4.7924   55.2274   11.1415 O   0  0  0  0  0  0  0  0  0  0  0  0
   -5.2656   54.2679   10.0076 P   0  0  0  0  0  0  0  0  0  0  0  0
   -3.9999   53.8638    9.3085 O   0  0  0  0  0  0  0  0  0  0  0  0
   -6.1269   55.0718    9.1314 O   0  0  0  0  0  0  0  0  0  0  0  0
   -5.9566   53.2253   10.7271 O   0  0  0  0  0  0  0  0  0  0  0  0
   -5.3244   52.7411   11.2810 H   0  0  0  0  0  0  0  0  0  0  0  0
  8  9  1  0  0  0
  8 15  2  0  0  0
  9 10  1  0  0  0
  9 11  2  0  0  0
 11 12  1  0  0  0
 12 13  1  0  0  0
 12 14  2  0  0  0
 14 15  1  0  0  0
 14  7  1  0  0  0
  7  1  1  0  0  0
  1  2  2  0  0  0
  1  5  1  0  0  0
  2  3  1  0  0  0
  3  4  1  0  0  0
  4  5  2  0  0  0
  4 18  1  0  0  0
  5  6  1  0  0  0
 18 19  1  0  0  0
 19 20  1  0  0  0
 20 21  1  0  0  0
 21 22  2  0  0  0
 21 23  1  0  0  0
 21 25  1  0  0  0
 25 26  1  0  0  0
 26 27  2  0  0  0
 26 28  1  0  0  0
 26 29  1  0  0  0
 13 16  1  0  0  0
 13 17  1  0  0  0
 23 24  1  0  0  0
 29 30  1  0  0  0
M  CHG 1   1   1
M  CHG 1  28  -1
M  END
> <minimizedAffinity>
-11.04786

$$$$
1TKB_N1T_A_681


 30 31  0  0  0  0  0  0  0  0999 V2000
   -5.7356   58.4276   17.1966 N   0  0  0  0  0  0  0  0  0  0  0  0
   -5.6632   59.5552   16.4980 C   0  0  0  0  0  0  0  0  0  0  0  0
   -5.4447   59.3178   14.8569 S   0  0  0  0  0  0  0  0  0  0  0  0
   -5.4215   57.6403   15.1185 C   0  0  0  0  0  0  0  0  0  0  0  0
   -5.5637   57.3362   16.4556 C   0  0  0  0  0  0  0  0  0  0  0  0
   -5.5659   55.9616   17.0716 C   0  0  0  0  0  0  0  0  0  0  0  0
   -6.0070   58.3983   18.6855 C   0  0  0  0  0  0  0  0  0  0  0  0
   -3.8461   61.0421   20.3241 C   0  0  0  0  0  0  0  0  0  0  0  0
   -2.5827   60.3453   20.4421 C   0  0  0  0  0  0  0  0  0  0  0  0
   -1.4251   61.0651   20.9941 C   0  0  0  0  0  0  0  0  0  0  0  0
   -2.5556   59.0209   20.2395 N   0  0  0  0  0  0  0  0  0  0  0  0
   -3.6907   58.3605   19.8282 C   0  0  0  0  0  0  0  0  0  0  0  0
   -3.5250   57.0596   19.5996 N   0  0  0  0  0  0  0  0  0  0  0  0
   -4.8780   59.0519   19.4140 C   0  0  0  0  0  0  0  0  0  0  0  0
   -5.0001   60.3224   19.7893 C   0  0  0  0  0  0  0  0  0  0  0  0
   -2.7007   56.6091   19.8942 H   0  0  0  0  0  0  0  0  0  0  0  0
   -4.2269   56.5479   19.1361 H   0  0  0  0  0  0  0  0  0  0  0  0
   -5.2086   56.7130   13.9583 C   0  0  0  0  0  0  0  0  0  0  0  0
   -4.6484   57.4799   12.8040 C   0  0  0  0  0  0  0  0  0  0  0  0
   -4.7136   56.5426   11.7384 O   0  0  0  0  0  0  0  0  0  0  0  0
   -3.4259   56.0087   11.0085 P   0  0  0  0  0  0  0  0  0  0  0  0
   -2.1733   55.9469   11.8049 O   0  0  0  0  0  0  0  0  0  0  0  0
   -3.3527   57.0602    9.9292 O   0  0  0  0  0  0  0  0  0  0  0  0
   -3.0943   57.9088   10.3215 H   0  0  0  0  0  0  0  0  0  0  0  0
   -3.8465   54.6499   10.3363 O   0  0  0  0  0  0  0  0  0  0  0  0
   -3.0607   53.6417    9.4439 P   0  0  0  0  0  0  0  0  0  0  0  0
   -4.1234   52.7660    8.8458 O   0  0  0  0  0  0  0  0  0  0  0  0
   -2.1950   52.8842   10.3564 O   0  0  0  0  0  0  0  0  0  0  0  0
   -2.3513   54.4998    8.5260 O   0  0  0  0  0  0  0  0  0  0  0  0
   -2.9877   54.9638    7.9597 H   0  0  0  0  0  0  0  0  0  0  0  0
  8  9  1  0  0  0
  8 15  2  0  0  0
  9 10  1  0  0  0
  9 11  2  0  0  0
 11 12  1  0  0  0
 12 13  1  0  0  0
 12 14  2  0  0  0
 14 15  1  0  0  0
 14  7  1  0  0  0
  7  1  1  0  0  0
  1  2  2  0  0  0
  1  5  1  0  0  0
  2  3  1  0  0  0
  3  4  1  0  0  0
  4  5  2  0  0  0
  4 18  1  0  0  0
  5  6  1  0  0  0
 18 19  1  0  0  0
 19 20  1  0  0  0
 20 21  1  0  0  0
 21 22  2  0  0  0
 21 23  1  0  0  0
 21 25  1  0  0  0
 25 26  1  0  0  0
 26 27  2  0  0  0
 26 28  1  0  0  0
 26 29  1  0  0  0
 13 16  1  0  0  0
 13 17  1  0  0  0
 23 24  1  0  0  0
 29 30  1  0  0  0
M  CHG 1   1   1
M  CHG 1  28  -1
M  END
> <minimizedAffinity>
-10.63060

$$$$
1TKB_N1T_A_681


 30 31  0  0  0  0  0  0  0  0999 V2000
   -6.1021   58.2496   17.5045 N   0  0  0  0  0  0  0  0  0  0  0  0
   -6.2558   56.9305   17.5366 C   0  0  0  0  0  0  0  0  0  0  0  0
   -5.9990   56.1866   16.0606 S   0  0  0  0  0  0  0  0  0  0  0  0
   -5.7005   57.7062   15.3644 C   0  0  0  0  0  0  0  0  0  0  0  0
   -5.8289   58.7194   16.2902 C   0  0  0  0  0  0  0  0  0  0  0  0
   -5.6641   60.1954   16.0391 C   0  0  0  0  0  0  0  0  0  0  0  0
   -6.2100   59.1205   18.7379 C   0  0  0  0  0  0  0  0  0  0  0  0
   -2.7185   58.7547   20.1593 C   0  0  0  0  0  0  0  0  0  0  0  0
   -2.4166   60.1212   20.5300 C   0  0  0  0  0  0  0  0  0  0  0  0
   -1.1350   60.4095   21.1910 C   0  0  0  0  0  0  0  0  0  0  0  0
   -3.2125   61.1016   20.0815 N   0  0  0  0  0  0  0  0  0  0  0  0
   -4.3497   60.7980   19.3684 C   0  0  0  0  0  0  0  0  0  0  0  0
   -5.0920   61.8504   19.0313 N   0  0  0  0  0  0  0  0  0  0  0  0
   -4.8419   59.4566   19.2358 C   0  0  0  0  0  0  0  0  0  0  0  0
   -3.9857   58.4703   19.4891 C   0  0  0  0  0  0  0  0  0  0  0  0
   -4.7303   62.7605   19.1320 H   0  0  0  0  0  0  0  0  0  0  0  0
   -6.0026   61.7185   18.6812 H   0  0  0  0  0  0  0  0  0  0  0  0
   -5.3994   57.8021   13.8976 C   0  0  0  0  0  0  0  0  0  0  0  0
   -4.5012   56.6758   13.4988 C   0  0  0  0  0  0  0  0  0  0  0  0
   -4.4375   56.8055   12.0854 O   0  0  0  0  0  0  0  0  0  0  0  0
   -3.3534   56.0617   11.2210 P   0  0  0  0  0  0  0  0  0  0  0  0
   -2.0107   55.8795   11.8301 O   0  0  0  0  0  0  0  0  0  0  0  0
   -3.3173   57.0283   10.0634 O   0  0  0  0  0  0  0  0  0  0  0  0
   -2.8987   57.8563   10.3464 H   0  0  0  0  0  0  0  0  0  0  0  0
   -4.0372   54.7343   10.7255 O   0  0  0  0  0  0  0  0  0  0  0  0
   -3.5440   53.5991    9.7776 P   0  0  0  0  0  0  0  0  0  0  0  0
   -4.8055   52.9845    9.2438 O   0  0  0  0  0  0  0  0  0  0  0  0
   -2.8074   52.6550   10.6273 O   0  0  0  0  0  0  0  0  0  0  0  0
   -2.7243   54.3032    8.8213 O   0  0  0  0  0  0  0  0  0  0  0  0
   -3.2792   54.9045    8.3004 H   0  0  0  0  0  0  0  0  0  0  0  0
  8  9  1  0  0  0
  8 15  2  0  0  0
  9 10  1  0  0  0
  9 11  2  0  0  0
 11 12  1  0  0  0
 12 13  1  0  0  0
 12 14  2  0  0  0
 14 15  1  0  0  0
 14  7  1  0  0  0
  7  1  1  0  0  0
  1  2  2  0  0  0
  1  5  1  0  0  0
  2  3  1  0  0  0
  3  4  1  0  0  0
  4  5  2  0  0  0
  4 18  1  0  0  0
  5  6  1  0  0  0
 18 19  1  0  0  0
 19 20  1  0  0  0
 20 21  1  0  0  0
 21 22  2  0  0  0
 21 23  1  0  0  0
 21 25  1  0  0  0
 25 26  1  0  0  0
 26 27  2  0  0  0
 26 28  1  0  0  0
 26 29  1  0  0  0
 13 16  1  0  0  0
 13 17  1  0  0  0
 23 24  1  0  0  0
 29 30  1  0  0  0
M  CHG 1   1   1
M  CHG 1  28  -1
M  END
> <minimizedAffinity>
-10.07310

$$$$
1TKB_N1T_A_681


 30 31  0  0  0  0  0  0  0  0999 V2000
   -5.5901   58.0111   17.3756 N   0  0  0  0  0  0  0  0  0  0  0  0
   -5.5447   59.3346   17.2712 C   0  0  0  0  0  0  0  0  0  0  0  0
   -5.5683   59.8867   15.6925 S   0  0  0  0  0  0  0  0  0  0  0  0
   -5.6129   58.2793   15.1475 C   0  0  0  0  0  0  0  0  0  0  0  0
   -5.5890   57.3889   16.1997 C   0  0  0  0  0  0  0  0  0  0  0  0
   -5.5914   55.8854   16.1079 C   0  0  0  0  0  0  0  0  0  0  0  0
   -5.6560   57.2927   18.7064 C   0  0  0  0  0  0  0  0  0  0  0  0
   -9.4089   56.8388   18.9393 C   0  0  0  0  0  0  0  0  0  0  0  0
   -9.5008   55.5279   19.5465 C   0  0  0  0  0  0  0  0  0  0  0  0
  -10.8301   54.9877   19.8690 C   0  0  0  0  0  0  0  0  0  0  0  0
   -8.3991   54.7674   19.6080 N   0  0  0  0  0  0  0  0  0  0  0  0
   -7.1872   55.2700   19.1927 C   0  0  0  0  0  0  0  0  0  0  0  0
   -6.1562   54.4448   19.3604 N   0  0  0  0  0  0  0  0  0  0  0  0
   -6.9976   56.6544   18.8658 C   0  0  0  0  0  0  0  0  0  0  0  0
   -8.0888   57.3694   18.6053 C   0  0  0  0  0  0  0  0  0  0  0  0
   -6.3139   53.4992   19.5844 H   0  0  0  0  0  0  0  0  0  0  0  0
   -5.2360   54.7802   19.2606 H   0  0  0  0  0  0  0  0  0  0  0  0
   -5.6187   57.9971   13.6739 C   0  0  0  0  0  0  0  0  0  0  0  0
   -4.2655   57.5221   13.2524 C   0  0  0  0  0  0  0  0  0  0  0  0
   -4.5625   56.3858   12.4530 O   0  0  0  0  0  0  0  0  0  0  0  0
   -4.0137   56.2223   10.9875 P   0  0  0  0  0  0  0  0  0  0  0  0
   -3.0149   57.2196   10.5238 O   0  0  0  0  0  0  0  0  0  0  0  0
   -5.3278   56.3654   10.2605 O   0  0  0  0  0  0  0  0  0  0  0  0
   -5.6326   57.2842   10.3214 H   0  0  0  0  0  0  0  0  0  0  0  0
   -3.5520   54.7232   10.8674 O   0  0  0  0  0  0  0  0  0  0  0  0
   -3.1905   53.8397    9.6349 P   0  0  0  0  0  0  0  0  0  0  0  0
   -4.5150   53.3479    9.1271 O   0  0  0  0  0  0  0  0  0  0  0  0
   -2.3740   52.7357   10.1548 O   0  0  0  0  0  0  0  0  0  0  0  0
   -2.4777   54.7528    8.7744 O   0  0  0  0  0  0  0  0  0  0  0  0
   -3.0806   55.4503    8.4730 H   0  0  0  0  0  0  0  0  0  0  0  0
  8  9  1  0  0  0
  8 15  2  0  0  0
  9 10  1  0  0  0
  9 11  2  0  0  0
 11 12  1  0  0  0
 12 13  1  0  0  0
 12 14  2  0  0  0
 14 15  1  0  0  0
 14  7  1  0  0  0
  7  1  1  0  0  0
  1  2  2  0  0  0
  1  5  1  0  0  0
  2  3  1  0  0  0
  3  4  1  0  0  0
  4  5  2  0  0  0
  4 18  1  0  0  0
  5  6  1  0  0  0
 18 19  1  0  0  0
 19 20  1  0  0  0
 20 21  1  0  0  0
 21 22  2  0  0  0
 21 23  1  0  0  0
 21 25  1  0  0  0
 25 26  1  0  0  0
 26 27  2  0  0  0
 26 28  1  0  0  0
 26 29  1  0  0  0
 13 16  1  0  0  0
 13 17  1  0  0  0
 23 24  1  0  0  0
 29 30  1  0  0  0
M  CHG 1   1   1
M  CHG 1  28  -1
M  END
> <minimizedAffinity>
-9.03896

$$$$
1TKB_N1T_A_681


 30 31  0  0  0  0  0  0  0  0999 V2000
   -5.7372   58.5980   17.4043 N   0  0  0  0  0  0  0  0  0  0  0  0
   -5.8781   59.7548   16.7665 C   0  0  0  0  0  0  0  0  0  0  0  0
   -5.7356   59.6290   15.1047 S   0  0  0  0  0  0  0  0  0  0  0  0
   -5.4480   57.9640   15.2709 C   0  0  0  0  0  0  0  0  0  0  0  0
   -5.4554   57.5804   16.5950 C   0  0  0  0  0  0  0  0  0  0  0  0
   -5.2142   56.1942   17.1328 C   0  0  0  0  0  0  0  0  0  0  0  0
   -5.9025   58.4593   18.9025 C   0  0  0  0  0  0  0  0  0  0  0  0
   -3.7217   61.1906   20.3614 C   0  0  0  0  0  0  0  0  0  0  0  0
   -2.4746   60.4834   20.5624 C   0  0  0  0  0  0  0  0  0  0  0  0
   -1.3139   61.2256   21.0768 C   0  0  0  0  0  0  0  0  0  0  0  0
   -2.4697   59.1465   20.4704 N   0  0  0  0  0  0  0  0  0  0  0  0
   -3.6095   58.4747   20.0917 C   0  0  0  0  0  0  0  0  0  0  0  0
   -3.4650   57.1566   19.9748 N   0  0  0  0  0  0  0  0  0  0  0  0
   -4.7750   59.1507   19.5977 C   0  0  0  0  0  0  0  0  0  0  0  0
   -4.8792   60.4499   19.8642 C   0  0  0  0  0  0  0  0  0  0  0  0
   -2.6554   56.7174   20.3224 H   0  0  0  0  0  0  0  0  0  0  0  0
   -4.1678   56.6210   19.5407 H   0  0  0  0  0  0  0  0  0  0  0  0
   -5.1776   57.1340   14.0506 C   0  0  0  0  0  0  0  0  0  0  0  0
   -4.4359   57.9541   13.0448 C   0  0  0  0  0  0  0  0  0  0  0  0
   -4.7208   57.2903   11.8214 O   0  0  0  0  0  0  0  0  0  0  0  0
   -3.6543   56.4046   11.0773 P   0  0  0  0  0  0  0  0  0  0  0  0
   -3.4204   56.6928    9.6388 O   0  0  0  0  0  0  0  0  0  0  0  0
   -4.3229   55.0675   11.2796 O   0  0  0  0  0  0  0  0  0  0  0  0
   -5.1237   55.0206   10.7343 H   0  0  0  0  0  0  0  0  0  0  0  0
   -2.3631   56.4438   11.9752 O   0  0  0  0  0  0  0  0  0  0  0  0
   -1.6080   55.3308   12.7636 P   0  0  0  0  0  0  0  0  0  0  0  0
   -0.2121   55.8624   12.9147 O   0  0  0  0  0  0  0  0  0  0  0  0
   -1.6362   54.1388   11.9068 O   0  0  0  0  0  0  0  0  0  0  0  0
   -2.3781   55.2090   13.9779 O   0  0  0  0  0  0  0  0  0  0  0  0
   -2.3105   56.0316   14.4875 H   0  0  0  0  0  0  0  0  0  0  0  0
  8  9  1  0  0  0
  8 15  2  0  0  0
  9 10  1  0  0  0
  9 11  2  0  0  0
 11 12  1  0  0  0
 12 13  1  0  0  0
 12 14  2  0  0  0
 14 15  1  0  0  0
 14  7  1  0  0  0
  7  1  1  0  0  0
  1  2  2  0  0  0
  1  5  1  0  0  0
  2  3  1  0  0  0
  3  4  1  0  0  0
  4  5  2  0  0  0
  4 18  1  0  0  0
  5  6  1  0  0  0
 18 19  1  0  0  0
 19 20  1  0  0  0
 20 21  1  0  0  0
 21 22  2  0  0  0
 21 23  1  0  0  0
 21 25  1  0  0  0
 25 26  1  0  0  0
 26 27  2  0  0  0
 26 28  1  0  0  0
 26 29  1  0  0  0
 13 16  1  0  0  0
 13 17  1  0  0  0
 23 24  1  0  0  0
 29 30  1  0  0  0
M  CHG 1   1   1
M  CHG 1  28  -1
M  END
> <minimizedAffinity>
-8.27862

$$$$
1TKB_N1T_A_681


 30 31  0  0  0  0  0  0  0  0999 V2000
   -6.4959   58.0221   18.6801 N   0  0  0  0  0  0  0  0  0  0  0  0
   -7.0349   56.9209   19.1916 C   0  0  0  0  0  0  0  0  0  0  0  0
   -6.9560   55.5968   18.1726 S   0  0  0  0  0  0  0  0  0  0  0  0
   -6.1947   56.5626   17.0020 C   0  0  0  0  0  0  0  0  0  0  0  0
   -6.0510   57.8630   17.4365 C   0  0  0  0  0  0  0  0  0  0  0  0
   -5.4467   59.0083   16.6672 C   0  0  0  0  0  0  0  0  0  0  0  0
   -6.3861   59.3193   19.4525 C   0  0  0  0  0  0  0  0  0  0  0  0
   -2.7600   58.8867   20.4568 C   0  0  0  0  0  0  0  0  0  0  0  0
   -2.3417   60.2635   20.6163 C   0  0  0  0  0  0  0  0  0  0  0  0
   -0.9705   60.5395   21.0703 C   0  0  0  0  0  0  0  0  0  0  0  0
   -3.1389   61.2369   20.1549 N   0  0  0  0  0  0  0  0  0  0  0  0
   -4.3749   60.9301   19.6333 C   0  0  0  0  0  0  0  0  0  0  0  0
   -5.1004   61.9840   19.2660 N   0  0  0  0  0  0  0  0  0  0  0  0
   -4.9485   59.6182   19.7291 C   0  0  0  0  0  0  0  0  0  0  0  0
   -4.1180   58.6126   19.9915 C   0  0  0  0  0  0  0  0  0  0  0  0
   -4.6824   62.8734   19.2082 H   0  0  0  0  0  0  0  0  0  0  0  0
   -6.0551   61.8740   19.0522 H   0  0  0  0  0  0  0  0  0  0  0  0
   -5.8248   55.9655   15.6762 C   0  0  0  0  0  0  0  0  0  0  0  0
   -5.9301   57.0104   14.6125 C   0  0  0  0  0  0  0  0  0  0  0  0
   -4.6426   56.9838   14.0125 O   0  0  0  0  0  0  0  0  0  0  0  0
   -4.4306   57.1921   12.4674 P   0  0  0  0  0  0  0  0  0  0  0  0
   -3.7388   58.4358   12.0410 O   0  0  0  0  0  0  0  0  0  0  0  0
   -5.8832   57.1909   12.0604 O   0  0  0  0  0  0  0  0  0  0  0  0
   -6.3078   58.0043   12.3751 H   0  0  0  0  0  0  0  0  0  0  0  0
   -3.7768   55.8615   11.9412 O   0  0  0  0  0  0  0  0  0  0  0  0
   -3.6816   55.2405   10.5144 P   0  0  0  0  0  0  0  0  0  0  0  0
   -2.9595   53.9405   10.7207 O   0  0  0  0  0  0  0  0  0  0  0  0
   -2.8785   56.1776    9.7188 O   0  0  0  0  0  0  0  0  0  0  0  0
   -5.0621   55.1444   10.1056 O   0  0  0  0  0  0  0  0  0  0  0  0
   -5.5245   54.5098   10.6751 H   0  0  0  0  0  0  0  0  0  0  0  0
  8  9  1  0  0  0
  8 15  2  0  0  0
  9 10  1  0  0  0
  9 11  2  0  0  0
 11 12  1  0  0  0
 12 13  1  0  0  0
 12 14  2  0  0  0
 14 15  1  0  0  0
 14  7  1  0  0  0
  7  1  1  0  0  0
  1  2  2  0  0  0
  1  5  1  0  0  0
  2  3  1  0  0  0
  3  4  1  0  0  0
  4  5  2  0  0  0
  4 18  1  0  0  0
  5  6  1  0  0  0
 18 19  1  0  0  0
 19 20  1  0  0  0
 20 21  1  0  0  0
 21 22  2  0  0  0
 21 23  1  0  0  0
 21 25  1  0  0  0
 25 26  1  0  0  0
 26 27  2  0  0  0
 26 28  1  0  0  0
 26 29  1  0  0  0
 13 16  1  0  0  0
 13 17  1  0  0  0
 23 24  1  0  0  0
 29 30  1  0  0  0
M  CHG 1   1   1
M  CHG 1  28  -1
M  END
> <minimizedAffinity>
-8.10180

$$$$
1TKB_N1T_A_681


 30 31  0  0  0  0  0  0  0  0999 V2000
   -5.3281   57.7850   14.9578 N   0  0  0  0  0  0  0  0  0  0  0  0
   -5.3897   56.4902   15.2484 C   0  0  0  0  0  0  0  0  0  0  0  0
   -5.9043   56.1739   16.8081 S   0  0  0  0  0  0  0  0  0  0  0  0
   -6.0156   57.8440   17.0934 C   0  0  0  0  0  0  0  0  0  0  0  0
   -5.6355   58.5715   15.9858 C   0  0  0  0  0  0  0  0  0  0  0  0
   -5.5801   60.0722   15.8692 C   0  0  0  0  0  0  0  0  0  0  0  0
   -4.9621   58.3031   13.5834 C   0  0  0  0  0  0  0  0  0  0  0  0
   -2.6189   55.7499   12.0554 C   0  0  0  0  0  0  0  0  0  0  0  0
   -3.3754   55.3257   10.8964 C   0  0  0  0  0  0  0  0  0  0  0  0
   -2.7730   54.3509    9.9747 C   0  0  0  0  0  0  0  0  0  0  0  0
   -4.6669   55.6721   10.8075 N   0  0  0  0  0  0  0  0  0  0  0  0
   -5.2279   56.5002   11.7527 C   0  0  0  0  0  0  0  0  0  0  0  0
   -6.4986   56.8242   11.5242 N   0  0  0  0  0  0  0  0  0  0  0  0
   -4.4450   57.1795   12.7452 C   0  0  0  0  0  0  0  0  0  0  0  0
   -3.2234   56.7075   12.9792 C   0  0  0  0  0  0  0  0  0  0  0  0
   -7.0136   56.3423   10.8374 H   0  0  0  0  0  0  0  0  0  0  0  0
   -6.9234   57.5458   12.0420 H   0  0  0  0  0  0  0  0  0  0  0  0
   -6.4356   58.3375   18.4467 C   0  0  0  0  0  0  0  0  0  0  0  0
   -5.2554   58.3406   19.3640 C   0  0  0  0  0  0  0  0  0  0  0  0
   -4.5824   59.5412   19.0116 O   0  0  0  0  0  0  0  0  0  0  0  0
   -4.7520   60.8722   19.8333 P   0  0  0  0  0  0  0  0  0  0  0  0
   -5.9881   61.0133   20.6452 O   0  0  0  0  0  0  0  0  0  0  0  0
   -4.7322   61.8334   18.6707 O   0  0  0  0  0  0  0  0  0  0  0  0
   -5.5510   61.7392   18.1593 H   0  0  0  0  0  0  0  0  0  0  0  0
   -3.4119   61.0533   20.6372 O   0  0  0  0  0  0  0  0  0  0  0  0
   -1.9668   60.5250   20.3864 P   0  0  0  0  0  0  0  0  0  0  0  0
   -1.8632   60.4169   18.8926 O   0  0  0  0  0  0  0  0  0  0  0  0
   -1.9035   59.2036   21.0236 O   0  0  0  0  0  0  0  0  0  0  0  0
   -1.1379   61.5272   21.0116 O   0  0  0  0  0  0  0  0  0  0  0  0
   -1.2332   62.3676   20.5368 H   0  0  0  0  0  0  0  0  0  0  0  0
  8  9  1  0  0  0
  8 15  2  0  0  0
  9 10  1  0  0  0
  9 11  2  0  0  0
 11 12  1  0  0  0
 12 13  1  0  0  0
 12 14  2  0  0  0
 14 15  1  0  0  0
 14  7  1  0  0  0
  7  1  1  0  0  0
  1  2  2  0  0  0
  1  5  1  0  0  0
  2  3  1  0  0  0
  3  4  1  0  0  0
  4  5  2  0  0  0
  4 18  1  0  0  0
  5  6  1  0  0  0
 18 19  1  0  0  0
 19 20  1  0  0  0
 20 21  1  0  0  0
 21 22  2  0  0  0
 21 23  1  0  0  0
 21 25  1  0  0  0
 25 26  1  0  0  0
 26 27  2  0  0  0
 26 28  1  0  0  0
 26 29  1  0  0  0
 13 16  1  0  0  0
 13 17  1  0  0  0
 23 24  1  0  0  0
 29 30  1  0  0  0
M  CHG 1   1   1
M  CHG 1  28  -1
M  END
> <minimizedAffinity>
-8.08318

$$$$
