1G53_F6B_A_555


 25 26  0  0  0  0  0  0  0  0999 V2000
   -4.5439    5.5498   13.3120 C   0  0  0  0  0  0  0  0  0  0  0  0
   -3.4307    5.3643   12.8375 O   0  0  0  0  0  0  0  0  0  0  0  0
   -5.2665    6.7057   12.8728 N   0  0  0  0  0  0  0  0  0  0  0  0
   -5.9449    7.1536   13.4281 H   0  0  0  0  0  0  0  0  0  0  0  0
   -4.1652    3.4356   14.7105 C   0  0  0  0  0  0  0  0  0  0  0  0
   -4.5697    2.4697   15.6375 C   0  0  0  0  0  0  0  0  0  0  0  0
   -5.8658    2.5645   16.2121 C   0  0  0  0  0  0  0  0  0  0  0  0
   -6.6764    3.6403   15.8262 C   0  0  0  0  0  0  0  0  0  0  0  0
   -6.2365    4.5879   14.9103 C   0  0  0  0  0  0  0  0  0  0  0  0
   -4.9888    4.5020   14.3363 C   0  0  0  0  0  0  0  0  0  0  0  0
   -6.3907    1.3118   17.3870 S   0  0  0  0  0  0  0  0  0  0  0  0
   -5.4821   -0.0623   17.2047 N   0  0  0  0  0  0  0  0  0  0  0  0
   -7.8132    1.2272   17.0984 O   0  0  0  0  0  0  0  0  0  0  0  0
   -6.2089    1.9581   18.6764 O   0  0  0  0  0  0  0  0  0  0  0  0
   -5.6552   -0.4646   16.2835 H   0  0  0  0  0  0  0  0  0  0  0  0
   -5.7390   -0.7378   17.9245 H   0  0  0  0  0  0  0  0  0  0  0  0
   -4.9140    7.1626   11.5373 C   0  0  0  0  0  0  0  0  0  0  0  0
   -5.8797    7.2589   10.5233 C   0  0  0  0  0  0  0  0  0  0  0  0
   -5.7097    6.4841    9.3329 C   0  0  0  0  0  0  0  0  0  0  0  0
   -6.7100    6.5935    8.3057 C   0  0  0  0  0  0  0  0  0  0  0  0
   -7.8478    7.4692    8.4960 C   0  0  0  0  0  0  0  0  0  0  0  0
   -7.9975    8.2393    9.7020 C   0  0  0  0  0  0  0  0  0  0  0  0
   -7.0202    8.1385   10.7102 C   0  0  0  0  0  0  0  0  0  0  0  0
   -4.6512    5.6778    9.1728 F   0  0  0  0  0  0  0  0  0  0  0  0
   -7.1754    8.8634   11.8272 F   0  0  0  0  0  0  0  0  0  0  0  0
  5  6  2  0  0  0
  5 10  1  0  0  0
  6  7  1  0  0  0
  7  8  2  0  0  0
  7 11  1  0  0  0
  8  9  1  0  0  0
  9 10  2  0  0  0
 10  1  1  0  0  0
  1  2  2  0  0  0
  1  3  1  0  0  0
  3 17  1  0  0  0
 17 18  1  0  0  0
 11 12  1  0  0  0
 11 13  2  0  0  0
 11 14  2  0  0  0
 18 19  2  0  0  0
 18 23  1  0  0  0
 19 20  1  0  0  0
 19 24  1  0  0  0
 20 21  2  0  0  0
 21 22  1  0  0  0
 22 23  2  0  0  0
 23 25  1  0  0  0
  3  4  1  0  0  0
 12 15  1  0  0  0
 12 16  1  0  0  0
M  END
> <minimizedAffinity>
-7.97050

$$$$
1G53_F6B_A_555


 25 26  0  0  0  0  0  0  0  0999 V2000
   -4.6188    5.4645   13.1428 C   0  0  0  0  0  0  0  0  0  0  0  0
   -3.6029    5.1550   12.5336 O   0  0  0  0  0  0  0  0  0  0  0  0
   -5.2136    6.7311   12.8378 N   0  0  0  0  0  0  0  0  0  0  0  0
   -5.7555    7.2360   13.4864 H   0  0  0  0  0  0  0  0  0  0  0  0
   -6.2311    4.6363   14.9548 C   0  0  0  0  0  0  0  0  0  0  0  0
   -6.6625    3.7020   15.9018 C   0  0  0  0  0  0  0  0  0  0  0  0
   -5.9136    2.5083   16.0846 C   0  0  0  0  0  0  0  0  0  0  0  0
   -4.7760    2.3203   15.2885 C   0  0  0  0  0  0  0  0  0  0  0  0
   -4.3838    3.2658   14.3491 C   0  0  0  0  0  0  0  0  0  0  0  0
   -5.0919    4.4320   14.1699 C   0  0  0  0  0  0  0  0  0  0  0  0
   -6.4580    1.3193   17.3155 S   0  0  0  0  0  0  0  0  0  0  0  0
   -5.5351   -0.0548   17.2333 N   0  0  0  0  0  0  0  0  0  0  0  0
   -7.8723    1.2061   16.9977 O   0  0  0  0  0  0  0  0  0  0  0  0
   -6.3129    2.0390   18.5703 O   0  0  0  0  0  0  0  0  0  0  0  0
   -5.6824   -0.5100   16.3325 H   0  0  0  0  0  0  0  0  0  0  0  0
   -5.8046   -0.6908   17.9838 H   0  0  0  0  0  0  0  0  0  0  0  0
   -4.9499    7.2092   11.4892 C   0  0  0  0  0  0  0  0  0  0  0  0
   -5.9633    7.2430   10.5188 C   0  0  0  0  0  0  0  0  0  0  0  0
   -7.1310    8.0309   10.7679 C   0  0  0  0  0  0  0  0  0  0  0  0
   -8.1579    8.0556    9.7615 C   0  0  0  0  0  0  0  0  0  0  0  0
   -7.9900    7.2967    8.5394 C   0  0  0  0  0  0  0  0  0  0  0  0
   -6.8066    6.5109    8.3111 C   0  0  0  0  0  0  0  0  0  0  0  0
   -5.7988    6.4806    9.2936 C   0  0  0  0  0  0  0  0  0  0  0  0
   -7.2705    8.7281   11.9039 F   0  0  0  0  0  0  0  0  0  0  0  0
   -4.7032    5.7429    9.0645 F   0  0  0  0  0  0  0  0  0  0  0  0
  5  6  2  0  0  0
  5 10  1  0  0  0
  6  7  1  0  0  0
  7  8  2  0  0  0
  7 11  1  0  0  0
  8  9  1  0  0  0
  9 10  2  0  0  0
 10  1  1  0  0  0
  1  2  2  0  0  0
  1  3  1  0  0  0
  3 17  1  0  0  0
 17 18  1  0  0  0
 11 12  1  0  0  0
 11 13  2  0  0  0
 11 14  2  0  0  0
 18 19  2  0  0  0
 18 23  1  0  0  0
 19 20  1  0  0  0
 19 24  1  0  0  0
 20 21  2  0  0  0
 21 22  1  0  0  0
 22 23  2  0  0  0
 23 25  1  0  0  0
  3  4  1  0  0  0
 12 15  1  0  0  0
 12 16  1  0  0  0
M  END
> <minimizedAffinity>
-7.94916

$$$$
1G53_F6B_A_555


 25 26  0  0  0  0  0  0  0  0999 V2000
   -4.1291    5.5615   13.6844 C   0  0  0  0  0  0  0  0  0  0  0  0
   -4.9482    6.2135   13.0497 O   0  0  0  0  0  0  0  0  0  0  0  0
   -2.7434    5.8593   13.4788 N   0  0  0  0  0  0  0  0  0  0  0  0
   -2.0296    5.1942   13.6104 H   0  0  0  0  0  0  0  0  0  0  0  0
   -6.0444    4.5780   15.0748 C   0  0  0  0  0  0  0  0  0  0  0  0
   -6.5958    3.6129   15.9235 C   0  0  0  0  0  0  0  0  0  0  0  0
   -5.7925    2.5150   16.3342 C   0  0  0  0  0  0  0  0  0  0  0  0
   -4.4787    2.4479   15.8519 C   0  0  0  0  0  0  0  0  0  0  0  0
   -3.9682    3.4199   15.0004 C   0  0  0  0  0  0  0  0  0  0  0  0
   -4.7302    4.4951   14.6044 C   0  0  0  0  0  0  0  0  0  0  0  0
   -6.4962    1.2876   17.4404 S   0  0  0  0  0  0  0  0  0  0  0  0
   -5.6312   -0.1237   17.3560 N   0  0  0  0  0  0  0  0  0  0  0  0
   -7.8803    1.2621   16.9958 O   0  0  0  0  0  0  0  0  0  0  0  0
   -6.4313    1.9282   18.7438 O   0  0  0  0  0  0  0  0  0  0  0  0
   -5.7180   -0.5202   16.4202 H   0  0  0  0  0  0  0  0  0  0  0  0
   -5.9943   -0.7864   18.0411 H   0  0  0  0  0  0  0  0  0  0  0  0
   -2.4790    7.2271   13.0593 C   0  0  0  0  0  0  0  0  0  0  0  0
   -1.7120    8.0952   13.8518 C   0  0  0  0  0  0  0  0  0  0  0  0
   -0.4699    8.5833   13.3368 C   0  0  0  0  0  0  0  0  0  0  0  0
    0.3015    9.4735   14.1615 C   0  0  0  0  0  0  0  0  0  0  0  0
   -0.1877    9.8505   15.4716 C   0  0  0  0  0  0  0  0  0  0  0  0
   -1.4403    9.3464   15.9687 C   0  0  0  0  0  0  0  0  0  0  0  0
   -2.1988    8.4725   15.1671 C   0  0  0  0  0  0  0  0  0  0  0  0
   -0.0317    8.2253   12.1219 F   0  0  0  0  0  0  0  0  0  0  0  0
   -3.3631    8.0122   15.6462 F   0  0  0  0  0  0  0  0  0  0  0  0
  5  6  2  0  0  0
  5 10  1  0  0  0
  6  7  1  0  0  0
  7  8  2  0  0  0
  7 11  1  0  0  0
  8  9  1  0  0  0
  9 10  2  0  0  0
 10  1  1  0  0  0
  1  2  2  0  0  0
  1  3  1  0  0  0
  3 17  1  0  0  0
 17 18  1  0  0  0
 11 12  1  0  0  0
 11 13  2  0  0  0
 11 14  2  0  0  0
 18 19  2  0  0  0
 18 23  1  0  0  0
 19 20  1  0  0  0
 19 24  1  0  0  0
 20 21  2  0  0  0
 21 22  1  0  0  0
 22 23  2  0  0  0
 23 25  1  0  0  0
  3  4  1  0  0  0
 12 15  1  0  0  0
 12 16  1  0  0  0
M  END
> <minimizedAffinity>
-7.77279

$$$$
1G53_F6B_A_555


 25 26  0  0  0  0  0  0  0  0999 V2000
   -4.1253    5.5960   13.7186 C   0  0  0  0  0  0  0  0  0  0  0  0
   -4.9619    6.2691   13.1305 O   0  0  0  0  0  0  0  0  0  0  0  0
   -2.7458    5.8773   13.4559 N   0  0  0  0  0  0  0  0  0  0  0  0
   -2.0367    5.2002   13.5459 H   0  0  0  0  0  0  0  0  0  0  0  0
   -3.9451    3.4255   15.0697 C   0  0  0  0  0  0  0  0  0  0  0  0
   -4.4680    2.4381   15.9107 C   0  0  0  0  0  0  0  0  0  0  0  0
   -5.8168    2.5446   16.3448 C   0  0  0  0  0  0  0  0  0  0  0  0
   -6.5581    3.6528   15.9141 C   0  0  0  0  0  0  0  0  0  0  0  0
   -6.0015    4.6208   15.0873 C   0  0  0  0  0  0  0  0  0  0  0  0
   -4.7007    4.5243   14.6488 C   0  0  0  0  0  0  0  0  0  0  0  0
   -6.4924    1.2648   17.4083 S   0  0  0  0  0  0  0  0  0  0  0  0
   -5.6080   -0.1292   17.2613 N   0  0  0  0  0  0  0  0  0  0  0  0
   -7.8801    1.2362   16.9752 O   0  0  0  0  0  0  0  0  0  0  0  0
   -6.4246    1.8551   18.7351 O   0  0  0  0  0  0  0  0  0  0  0  0
   -5.6978   -0.4902   16.3116 H   0  0  0  0  0  0  0  0  0  0  0  0
   -5.9551   -0.8234   17.9232 H   0  0  0  0  0  0  0  0  0  0  0  0
   -2.4800    7.2474   13.0450 C   0  0  0  0  0  0  0  0  0  0  0  0
   -1.7052    8.1072   13.8390 C   0  0  0  0  0  0  0  0  0  0  0  0
   -2.1952    8.4833   15.1293 C   0  0  0  0  0  0  0  0  0  0  0  0
   -1.3871    9.3630   15.9298 C   0  0  0  0  0  0  0  0  0  0  0  0
   -0.1173    9.8396   15.4218 C   0  0  0  0  0  0  0  0  0  0  0  0
    0.3549    9.4479   14.1204 C   0  0  0  0  0  0  0  0  0  0  0  0
   -0.4328    8.5890   13.3308 C   0  0  0  0  0  0  0  0  0  0  0  0
   -3.3722    8.0328   15.5849 F   0  0  0  0  0  0  0  0  0  0  0  0
    0.0224    8.2346   12.1207 F   0  0  0  0  0  0  0  0  0  0  0  0
  5  6  2  0  0  0
  5 10  1  0  0  0
  6  7  1  0  0  0
  7  8  2  0  0  0
  7 11  1  0  0  0
  8  9  1  0  0  0
  9 10  2  0  0  0
 10  1  1  0  0  0
  1  2  2  0  0  0
  1  3  1  0  0  0
  3 17  1  0  0  0
 17 18  1  0  0  0
 11 12  1  0  0  0
 11 13  2  0  0  0
 11 14  2  0  0  0
 18 19  2  0  0  0
 18 23  1  0  0  0
 19 20  1  0  0  0
 19 24  1  0  0  0
 20 21  2  0  0  0
 21 22  1  0  0  0
 22 23  2  0  0  0
 23 25  1  0  0  0
  3  4  1  0  0  0
 12 15  1  0  0  0
 12 16  1  0  0  0
M  END
> <minimizedAffinity>
-7.69334

$$$$
1G53_F6B_A_555


 25 26  0  0  0  0  0  0  0  0999 V2000
   -3.1548    3.7508   12.8422 C   0  0  0  0  0  0  0  0  0  0  0  0
   -4.0736    4.0352   12.0847 O   0  0  0  0  0  0  0  0  0  0  0  0
   -3.4966    3.2114   14.1242 N   0  0  0  0  0  0  0  0  0  0  0  0
   -2.9194    3.3099   14.9156 H   0  0  0  0  0  0  0  0  0  0  0  0
   -1.1324    3.1951   11.3691 C   0  0  0  0  0  0  0  0  0  0  0  0
    0.1495    3.4487   10.8711 C   0  0  0  0  0  0  0  0  0  0  0  0
    0.8518    4.5974   11.3256 C   0  0  0  0  0  0  0  0  0  0  0  0
    0.2114    5.4337   12.2497 C   0  0  0  0  0  0  0  0  0  0  0  0
   -1.0683    5.1559   12.7140 C   0  0  0  0  0  0  0  0  0  0  0  0
   -1.7553    4.0407   12.2924 C   0  0  0  0  0  0  0  0  0  0  0  0
    2.5059    4.9102   10.7002 S   0  0  0  0  0  0  0  0  0  0  0  0
    3.5957    4.9367   11.9485 N   0  0  0  0  0  0  0  0  0  0  0  0
    2.3011    6.1404    9.9527 O   0  0  0  0  0  0  0  0  0  0  0  0
    2.7264    3.8205    9.7634 O   0  0  0  0  0  0  0  0  0  0  0  0
    3.3864    5.7210   12.5661 H   0  0  0  0  0  0  0  0  0  0  0  0
    4.5389    5.0409   11.5743 H   0  0  0  0  0  0  0  0  0  0  0  0
   -4.7684    2.5056   14.1590 C   0  0  0  0  0  0  0  0  0  0  0  0
   -5.4138    2.2299   15.3744 C   0  0  0  0  0  0  0  0  0  0  0  0
   -6.3268    3.1948   15.9051 C   0  0  0  0  0  0  0  0  0  0  0  0
   -6.9807    2.8945   17.1502 C   0  0  0  0  0  0  0  0  0  0  0  0
   -6.7061    1.6437   17.8269 C   0  0  0  0  0  0  0  0  0  0  0  0
   -5.7833    0.6884   17.2739 C   0  0  0  0  0  0  0  0  0  0  0  0
   -5.1381    0.9777   16.0566 C   0  0  0  0  0  0  0  0  0  0  0  0
   -6.5704    4.3473   15.2660 F   0  0  0  0  0  0  0  0  0  0  0  0
   -4.2812    0.0764   15.5562 F   0  0  0  0  0  0  0  0  0  0  0  0
  5  6  2  0  0  0
  5 10  1  0  0  0
  6  7  1  0  0  0
  7  8  2  0  0  0
  7 11  1  0  0  0
  8  9  1  0  0  0
  9 10  2  0  0  0
 10  1  1  0  0  0
  1  2  2  0  0  0
  1  3  1  0  0  0
  3 17  1  0  0  0
 17 18  1  0  0  0
 11 12  1  0  0  0
 11 13  2  0  0  0
 11 14  2  0  0  0
 18 19  2  0  0  0
 18 23  1  0  0  0
 19 20  1  0  0  0
 19 24  1  0  0  0
 20 21  2  0  0  0
 21 22  1  0  0  0
 22 23  2  0  0  0
 23 25  1  0  0  0
  3  4  1  0  0  0
 12 15  1  0  0  0
 12 16  1  0  0  0
M  END
> <minimizedAffinity>
-7.65981

$$$$
1G53_F6B_A_555


 25 26  0  0  0  0  0  0  0  0999 V2000
   -2.9951    3.9802   13.1239 C   0  0  0  0  0  0  0  0  0  0  0  0
   -3.8994    4.6584   12.6537 O   0  0  0  0  0  0  0  0  0  0  0  0
   -3.3278    3.0770   14.1844 N   0  0  0  0  0  0  0  0  0  0  0  0
   -2.6774    2.7925   14.8666 H   0  0  0  0  0  0  0  0  0  0  0  0
   -0.9979    3.2781   11.6792 C   0  0  0  0  0  0  0  0  0  0  0  0
    0.2643    3.4910   11.1159 C   0  0  0  0  0  0  0  0  0  0  0  0
    0.9492    4.7042   11.3954 C   0  0  0  0  0  0  0  0  0  0  0  0
    0.3122    5.6413   12.2197 C   0  0  0  0  0  0  0  0  0  0  0  0
   -0.9479    5.4000   12.7529 C   0  0  0  0  0  0  0  0  0  0  0  0
   -1.6177    4.2247   12.5011 C   0  0  0  0  0  0  0  0  0  0  0  0
    2.5786    4.9668   10.6874 S   0  0  0  0  0  0  0  0  0  0  0  0
    2.6827    6.4871   10.0357 N   0  0  0  0  0  0  0  0  0  0  0  0
    2.6835    3.8330    9.7832 O   0  0  0  0  0  0  0  0  0  0  0  0
    3.4754    4.7574   11.8122 O   0  0  0  0  0  0  0  0  0  0  0  0
    2.0314    6.5677    9.2549 H   0  0  0  0  0  0  0  0  0  0  0  0
    3.6333    6.6503    9.7037 H   0  0  0  0  0  0  0  0  0  0  0  0
   -4.7073    2.6150   14.1692 C   0  0  0  0  0  0  0  0  0  0  0  0
   -5.3765    2.2844   15.3578 C   0  0  0  0  0  0  0  0  0  0  0  0
   -5.1010    1.0247   15.9771 C   0  0  0  0  0  0  0  0  0  0  0  0
   -5.7941    0.7037   17.1955 C   0  0  0  0  0  0  0  0  0  0  0  0
   -6.7381    1.6464   17.7592 C   0  0  0  0  0  0  0  0  0  0  0  0
   -6.9993    2.9077   17.1181 C   0  0  0  0  0  0  0  0  0  0  0  0
   -6.3259    3.2266   15.9238 C   0  0  0  0  0  0  0  0  0  0  0  0
   -4.2238    0.1638   15.4428 F   0  0  0  0  0  0  0  0  0  0  0  0
   -6.5816    4.4058   15.3397 F   0  0  0  0  0  0  0  0  0  0  0  0
  5  6  2  0  0  0
  5 10  1  0  0  0
  6  7  1  0  0  0
  7  8  2  0  0  0
  7 11  1  0  0  0
  8  9  1  0  0  0
  9 10  2  0  0  0
 10  1  1  0  0  0
  1  2  2  0  0  0
  1  3  1  0  0  0
  3 17  1  0  0  0
 17 18  1  0  0  0
 11 12  1  0  0  0
 11 13  2  0  0  0
 11 14  2  0  0  0
 18 19  2  0  0  0
 18 23  1  0  0  0
 19 20  1  0  0  0
 19 24  1  0  0  0
 20 21  2  0  0  0
 21 22  1  0  0  0
 22 23  2  0  0  0
 23 25  1  0  0  0
  3  4  1  0  0  0
 12 15  1  0  0  0
 12 16  1  0  0  0
M  END
> <minimizedAffinity>
-7.63699

$$$$
1G53_F6B_A_555


 25 26  0  0  0  0  0  0  0  0999 V2000
   -4.2266    5.3536   13.3082 C   0  0  0  0  0  0  0  0  0  0  0  0
   -3.2980    4.9326   12.6304 O   0  0  0  0  0  0  0  0  0  0  0  0
   -4.6463    6.7053   13.0892 N   0  0  0  0  0  0  0  0  0  0  0  0
   -5.0763    7.2501   13.7874 H   0  0  0  0  0  0  0  0  0  0  0  0
   -6.1295    4.3837   14.7249 C   0  0  0  0  0  0  0  0  0  0  0  0
   -6.6495    3.4769   15.6540 C   0  0  0  0  0  0  0  0  0  0  0  0
   -5.7900    2.4943   16.2150 C   0  0  0  0  0  0  0  0  0  0  0  0
   -4.4537    2.4754   15.7939 C   0  0  0  0  0  0  0  0  0  0  0  0
   -3.9747    3.3855   14.8598 C   0  0  0  0  0  0  0  0  0  0  0  0
   -4.7922    4.3504   14.3175 C   0  0  0  0  0  0  0  0  0  0  0  0
   -6.4551    1.3439   17.4231 S   0  0  0  0  0  0  0  0  0  0  0  0
   -5.5871   -0.0679   17.4093 N   0  0  0  0  0  0  0  0  0  0  0  0
   -7.8517    1.2850   17.0231 O   0  0  0  0  0  0  0  0  0  0  0  0
   -6.3541    2.0724   18.6771 O   0  0  0  0  0  0  0  0  0  0  0  0
   -5.7001   -0.5278   16.5059 H   0  0  0  0  0  0  0  0  0  0  0  0
   -5.9266   -0.6830   18.1488 H   0  0  0  0  0  0  0  0  0  0  0  0
   -4.3841    7.2058   11.7485 C   0  0  0  0  0  0  0  0  0  0  0  0
   -4.7819    8.4954   11.3632 C   0  0  0  0  0  0  0  0  0  0  0  0
   -3.7845    9.5103   11.2172 C   0  0  0  0  0  0  0  0  0  0  0  0
   -4.2100   10.8251   10.8196 C   0  0  0  0  0  0  0  0  0  0  0  0
   -5.6138   11.0879   10.5790 C   0  0  0  0  0  0  0  0  0  0  0  0
   -6.5994   10.0510   10.7325 C   0  0  0  0  0  0  0  0  0  0  0  0
   -6.1894    8.7625   11.1241 C   0  0  0  0  0  0  0  0  0  0  0  0
   -2.4893    9.2504   11.4430 F   0  0  0  0  0  0  0  0  0  0  0  0
   -7.1210    7.8087   11.2627 F   0  0  0  0  0  0  0  0  0  0  0  0
  5  6  2  0  0  0
  5 10  1  0  0  0
  6  7  1  0  0  0
  7  8  2  0  0  0
  7 11  1  0  0  0
  8  9  1  0  0  0
  9 10  2  0  0  0
 10  1  1  0  0  0
  1  2  2  0  0  0
  1  3  1  0  0  0
  3 17  1  0  0  0
 17 18  1  0  0  0
 11 12  1  0  0  0
 11 13  2  0  0  0
 11 14  2  0  0  0
 18 19  2  0  0  0
 18 23  1  0  0  0
 19 20  1  0  0  0
 19 24  1  0  0  0
 20 21  2  0  0  0
 21 22  1  0  0  0
 22 23  2  0  0  0
 23 25  1  0  0  0
  3  4  1  0  0  0
 12 15  1  0  0  0
 12 16  1  0  0  0
M  END
> <minimizedAffinity>
-7.29037

$$$$
1G53_F6B_A_555


 25 26  0  0  0  0  0  0  0  0999 V2000
   -3.5438    3.5988   12.7405 C   0  0  0  0  0  0  0  0  0  0  0  0
   -4.5676    4.1211   12.3187 O   0  0  0  0  0  0  0  0  0  0  0  0
   -3.6479    2.7996   13.9244 N   0  0  0  0  0  0  0  0  0  0  0  0
   -2.8958    2.6657   14.5455 H   0  0  0  0  0  0  0  0  0  0  0  0
   -1.6415    5.1455   11.9939 C   0  0  0  0  0  0  0  0  0  0  0  0
   -0.4962    5.4349   11.2453 C   0  0  0  0  0  0  0  0  0  0  0  0
    0.0293    4.4415   10.3758 C   0  0  0  0  0  0  0  0  0  0  0  0
   -0.6264    3.2044   10.3223 C   0  0  0  0  0  0  0  0  0  0  0  0
   -1.7560    2.9485   11.0897 C   0  0  0  0  0  0  0  0  0  0  0  0
   -2.2835    3.9051   11.9265 C   0  0  0  0  0  0  0  0  0  0  0  0
    1.4882    4.8223    9.4001 S   0  0  0  0  0  0  0  0  0  0  0  0
    2.7973    3.9838    9.9744 N   0  0  0  0  0  0  0  0  0  0  0  0
    1.5204    6.2733    9.4885 O   0  0  0  0  0  0  0  0  0  0  0  0
    1.1036    4.4406    8.0511 O   0  0  0  0  0  0  0  0  0  0  0  0
    3.0139    4.2979   10.9204 H   0  0  0  0  0  0  0  0  0  0  0  0
    3.6006    4.1509    9.3684 H   0  0  0  0  0  0  0  0  0  0  0  0
   -4.9580    2.2021   14.1324 C   0  0  0  0  0  0  0  0  0  0  0  0
   -5.5076    2.0847   15.4185 C   0  0  0  0  0  0  0  0  0  0  0  0
   -5.2104    0.9186   16.1920 C   0  0  0  0  0  0  0  0  0  0  0  0
   -5.7803    0.8163   17.5083 C   0  0  0  0  0  0  0  0  0  0  0  0
   -6.6267    1.8776   18.0133 C   0  0  0  0  0  0  0  0  0  0  0  0
   -6.9120    3.0412   17.2168 C   0  0  0  0  0  0  0  0  0  0  0  0
   -6.3591    3.1460   15.9264 C   0  0  0  0  0  0  0  0  0  0  0  0
   -4.4245   -0.0542   15.7101 F   0  0  0  0  0  0  0  0  0  0  0  0
   -6.6358    4.2368   15.1979 F   0  0  0  0  0  0  0  0  0  0  0  0
  5  6  2  0  0  0
  5 10  1  0  0  0
  6  7  1  0  0  0
  7  8  2  0  0  0
  7 11  1  0  0  0
  8  9  1  0  0  0
  9 10  2  0  0  0
 10  1  1  0  0  0
  1  2  2  0  0  0
  1  3  1  0  0  0
  3 17  1  0  0  0
 17 18  1  0  0  0
 11 12  1  0  0  0
 11 13  2  0  0  0
 11 14  2  0  0  0
 18 19  2  0  0  0
 18 23  1  0  0  0
 19 20  1  0  0  0
 19 24  1  0  0  0
 20 21  2  0  0  0
 21 22  1  0  0  0
 22 23  2  0  0  0
 23 25  1  0  0  0
  3  4  1  0  0  0
 12 15  1  0  0  0
 12 16  1  0  0  0
M  END
> <minimizedAffinity>
-7.26424

$$$$
1G53_F6B_A_555


 25 26  0  0  0  0  0  0  0  0999 V2000
   -4.9509    5.8884   13.9209 C   0  0  0  0  0  0  0  0  0  0  0  0
   -5.2124    5.5040   12.7883 O   0  0  0  0  0  0  0  0  0  0  0  0
   -5.7167    5.3393   14.9994 N   0  0  0  0  0  0  0  0  0  0  0  0
   -5.8701    5.8211   15.8442 H   0  0  0  0  0  0  0  0  0  0  0  0
   -3.2866    7.5239   12.8606 C   0  0  0  0  0  0  0  0  0  0  0  0
   -2.2589    8.4699   12.9289 C   0  0  0  0  0  0  0  0  0  0  0  0
   -1.7412    8.8361   14.2006 C   0  0  0  0  0  0  0  0  0  0  0  0
   -2.3022    8.2337   15.3345 C   0  0  0  0  0  0  0  0  0  0  0  0
   -3.3307    7.3056   15.2288 C   0  0  0  0  0  0  0  0  0  0  0  0
   -3.8334    6.9321   14.0035 C   0  0  0  0  0  0  0  0  0  0  0  0
   -0.4076   10.0359   14.2846 S   0  0  0  0  0  0  0  0  0  0  0  0
   -0.6857   11.2780   13.2231 N   0  0  0  0  0  0  0  0  0  0  0  0
    0.7524    9.1910   14.0507 O   0  0  0  0  0  0  0  0  0  0  0  0
   -0.4137   10.4534   15.6771 O   0  0  0  0  0  0  0  0  0  0  0  0
   -0.6684   10.9195   12.2683 H   0  0  0  0  0  0  0  0  0  0  0  0
    0.0386   11.9877   13.3329 H   0  0  0  0  0  0  0  0  0  0  0  0
   -6.2490    4.0100   14.7422 C   0  0  0  0  0  0  0  0  0  0  0  0
   -6.0418    2.9564   15.6462 C   0  0  0  0  0  0  0  0  0  0  0  0
   -6.7351    2.9746   16.8973 C   0  0  0  0  0  0  0  0  0  0  0  0
   -6.5124    1.8859   17.8101 C   0  0  0  0  0  0  0  0  0  0  0  0
   -5.6082    0.8138   17.4487 C   0  0  0  0  0  0  0  0  0  0  0  0
   -4.9216    0.8172   16.1844 C   0  0  0  0  0  0  0  0  0  0  0  0
   -5.1333    1.8815   15.2876 C   0  0  0  0  0  0  0  0  0  0  0  0
   -7.5692    3.9739   17.2161 F   0  0  0  0  0  0  0  0  0  0  0  0
   -4.4851    1.8688   14.1143 F   0  0  0  0  0  0  0  0  0  0  0  0
  5  6  2  0  0  0
  5 10  1  0  0  0
  6  7  1  0  0  0
  7  8  2  0  0  0
  7 11  1  0  0  0
  8  9  1  0  0  0
  9 10  2  0  0  0
 10  1  1  0  0  0
  1  2  2  0  0  0
  1  3  1  0  0  0
  3 17  1  0  0  0
 17 18  1  0  0  0
 11 12  1  0  0  0
 11 13  2  0  0  0
 11 14  2  0  0  0
 18 19  2  0  0  0
 18 23  1  0  0  0
 19 20  1  0  0  0
 19 24  1  0  0  0
 20 21  2  0  0  0
 21 22  1  0  0  0
 22 23  2  0  0  0
 23 25  1  0  0  0
  3  4  1  0  0  0
 12 15  1  0  0  0
 12 16  1  0  0  0
M  END
> <minimizedAffinity>
-7.14939

$$$$
1G53_F6B_A_555


 25 26  0  0  0  0  0  0  0  0999 V2000
   -4.0213    5.2857   13.5734 C   0  0  0  0  0  0  0  0  0  0  0  0
   -3.5254    6.2771   14.0931 O   0  0  0  0  0  0  0  0  0  0  0  0
   -3.9943    5.2042   12.1438 N   0  0  0  0  0  0  0  0  0  0  0  0
   -4.6609    4.6978   11.6257 H   0  0  0  0  0  0  0  0  0  0  0  0
   -5.9508    4.3564   14.9813 C   0  0  0  0  0  0  0  0  0  0  0  0
   -6.5014    3.4441   15.8870 C   0  0  0  0  0  0  0  0  0  0  0  0
   -5.6813    2.4058   16.4054 C   0  0  0  0  0  0  0  0  0  0  0  0
   -4.3519    2.3407   15.9676 C   0  0  0  0  0  0  0  0  0  0  0  0
   -3.8422    3.2584   15.0575 C   0  0  0  0  0  0  0  0  0  0  0  0
   -4.6209    4.2764   14.5567 C   0  0  0  0  0  0  0  0  0  0  0  0
   -6.3848    1.2475   17.5838 S   0  0  0  0  0  0  0  0  0  0  0  0
   -6.3406    1.8863   19.1125 N   0  0  0  0  0  0  0  0  0  0  0  0
   -5.5915    0.0572   17.3232 O   0  0  0  0  0  0  0  0  0  0  0  0
   -7.7337    1.0335   17.0856 O   0  0  0  0  0  0  0  0  0  0  0  0
   -5.3702    2.0111   19.4009 H   0  0  0  0  0  0  0  0  0  0  0  0
   -6.8088    1.2521   19.7597 H   0  0  0  0  0  0  0  0  0  0  0  0
   -2.8993    5.9324   11.5214 C   0  0  0  0  0  0  0  0  0  0  0  0
   -1.7687    5.2629   11.0280 C   0  0  0  0  0  0  0  0  0  0  0  0
   -1.7951    4.7583    9.6897 C   0  0  0  0  0  0  0  0  0  0  0  0
   -0.6270    4.0772    9.2003 C   0  0  0  0  0  0  0  0  0  0  0  0
    0.5301    3.9208   10.0572 C   0  0  0  0  0  0  0  0  0  0  0  0
    0.5334    4.4367   11.4003 C   0  0  0  0  0  0  0  0  0  0  0  0
   -0.6080    5.1021   11.8862 C   0  0  0  0  0  0  0  0  0  0  0  0
   -2.8737    4.9120    8.9094 F   0  0  0  0  0  0  0  0  0  0  0  0
   -0.5877    5.5760   13.1400 F   0  0  0  0  0  0  0  0  0  0  0  0
  5  6  2  0  0  0
  5 10  1  0  0  0
  6  7  1  0  0  0
  7  8  2  0  0  0
  7 11  1  0  0  0
  8  9  1  0  0  0
  9 10  2  0  0  0
 10  1  1  0  0  0
  1  2  2  0  0  0
  1  3  1  0  0  0
  3 17  1  0  0  0
 17 18  1  0  0  0
 11 12  1  0  0  0
 11 13  2  0  0  0
 11 14  2  0  0  0
 18 19  2  0  0  0
 18 23  1  0  0  0
 19 20  1  0  0  0
 19 24  1  0  0  0
 20 21  2  0  0  0
 21 22  1  0  0  0
 22 23  2  0  0  0
 23 25  1  0  0  0
  3  4  1  0  0  0
 12 15  1  0  0  0
 12 16  1  0  0  0
M  END
> <minimizedAffinity>
-7.06536

$$$$
