1QL9_ZEN_A_999


 34 38  0  0  0  0  0  0  0  0999 V2000
   10.9031   49.8828   62.6114 C   0  0  0  0  0  0  0  0  0  0  0  0
   10.9653   51.0562   62.9754 O   0  0  0  0  0  0  0  0  0  0  0  0
    9.7446   49.3104   62.3708 N   0  0  0  0  0  0  0  0  0  0  0  0
    9.6067   47.8910   61.9335 C   0  0  0  0  0  0  0  0  0  0  0  0
    8.6943   47.8194   60.6848 C   0  0  0  0  0  0  0  0  0  0  0  0
    7.6654   49.9727   61.2510 C   0  0  0  0  0  0  0  0  0  0  0  0
    8.4930   50.0747   62.5593 C   0  0  0  0  0  0  0  0  0  0  0  0
    7.4345   48.5375   60.9751 N   0  0  0  0  0  0  0  0  0  0  0  0
   15.1031   49.1729   61.7593 N   0  0  0  0  0  0  0  0  0  0  0  0
   14.7032   48.9999   63.1819 C   0  0  0  0  0  0  0  0  0  0  0  0
   13.3179   49.6586   63.4511 C   0  0  0  0  0  0  0  0  0  0  0  0
   12.7777   49.4859   60.9874 C   0  0  0  0  0  0  0  0  0  0  0  0
   14.1142   48.7565   60.7430 C   0  0  0  0  0  0  0  0  0  0  0  0
   12.2433   49.1835   62.4242 C   0  0  0  0  0  0  0  0  0  0  0  0
   18.7158   51.0107   60.6825 N   0  0  0  0  0  0  0  0  0  0  0  0
   17.9507   50.4497   59.7148 C   0  0  0  0  0  0  0  0  0  0  0  0
   16.7396   49.8254   60.0441 C   0  0  0  0  0  0  0  0  0  0  0  0
   17.1437   50.3888   62.3689 C   0  0  0  0  0  0  0  0  0  0  0  0
   18.3431   50.9968   61.9815 C   0  0  0  0  0  0  0  0  0  0  0  0
   16.3332   49.7919   61.3913 C   0  0  0  0  0  0  0  0  0  0  0  0
    6.2774   48.2658   59.8403 S   0  0  0  0  0  0  0  0  0  0  0  0
    5.2414   49.2763   59.9974 O   0  0  0  0  0  0  0  0  0  0  0  0
    5.8601   46.9000   60.0209 O   0  0  0  0  0  0  0  0  0  0  0  0
    6.9460   48.4294   58.1929 C   0  0  0  0  0  0  0  0  0  0  0  0
    7.0101   49.6951   57.5764 C   0  0  0  0  0  0  0  0  0  0  0  0
    7.4304   47.2977   57.5099 C   0  0  0  0  0  0  0  0  0  0  0  0
    7.9596   47.4222   56.2164 C   0  0  0  0  0  0  0  0  0  0  0  0
    7.5379   49.8308   56.2779 C   0  0  0  0  0  0  0  0  0  0  0  0
    8.0130   48.6827   55.5954 C   0  0  0  0  0  0  0  0  0  0  0  0
    8.5380   48.8106   54.3131 C   0  0  0  0  0  0  0  0  0  0  0  0
    8.1198   51.2088   54.3614 C   0  0  0  0  0  0  0  0  0  0  0  0
    7.5900   51.0903   55.6509 C   0  0  0  0  0  0  0  0  0  0  0  0
    8.5961   50.0638   53.6959 C   0  0  0  0  0  0  0  0  0  0  0  0
    9.2720   50.1910   52.0923 Cl  0  0  0  0  0  0  0  0  0  0  0  0
 15 16  2  0  0  0
 15 19  1  0  0  0
 16 17  1  0  0  0
 17 20  2  0  0  0
 18 19  2  0  0  0
 18 20  1  0  0  0
 20  9  1  0  0  0
  9 10  1  0  0  0
  9 13  1  0  0  0
 10 11  1  0  0  0
 11 14  1  0  0  0
 12 13  1  0  0  0
 12 14  1  0  0  0
 14  1  1  0  0  0
  1  2  2  0  0  0
  1  3  1  0  0  0
  3  4  1  0  0  0
  3  7  1  0  0  0
  4  5  1  0  0  0
  5  8  1  0  0  0
  6  7  1  0  0  0
  6  8  1  0  0  0
  8 21  1  0  0  0
 21 22  2  0  0  0
 21 23  2  0  0  0
 21 24  1  0  0  0
 24 25  2  0  0  0
 24 26  1  0  0  0
 25 28  1  0  0  0
 26 27  2  0  0  0
 27 29  1  0  0  0
 28 29  2  0  0  0
 28 32  1  0  0  0
 29 30  1  0  0  0
 30 33  2  0  0  0
 31 32  2  0  0  0
 31 33  1  0  0  0
 33 34  1  0  0  0
M  END
> <minimizedAffinity>
-10.04688

$$$$
1QL9_ZEN_A_999


 34 38  0  0  0  0  0  0  0  0999 V2000
    9.2955   46.1188   60.0660 C   0  0  0  0  0  0  0  0  0  0  0  0
    9.7293   45.0552   59.6258 O   0  0  0  0  0  0  0  0  0  0  0  0
    9.7233   46.6008   61.2115 N   0  0  0  0  0  0  0  0  0  0  0  0
    9.2300   47.8807   61.7977 C   0  0  0  0  0  0  0  0  0  0  0  0
   10.4352   48.7675   62.1952 C   0  0  0  0  0  0  0  0  0  0  0  0
   11.9024   46.8058   62.3185 C   0  0  0  0  0  0  0  0  0  0  0  0
   10.7239   45.8489   61.9986 C   0  0  0  0  0  0  0  0  0  0  0  0
   11.3510   47.9728   63.0419 N   0  0  0  0  0  0  0  0  0  0  0  0
    7.5740   48.5620   56.9135 N   0  0  0  0  0  0  0  0  0  0  0  0
    7.3174   47.1009   56.7997 C   0  0  0  0  0  0  0  0  0  0  0  0
    8.2900   46.2956   57.7113 C   0  0  0  0  0  0  0  0  0  0  0  0
    8.6292   48.3555   59.1373 C   0  0  0  0  0  0  0  0  0  0  0  0
    7.5994   49.1204   58.2816 C   0  0  0  0  0  0  0  0  0  0  0  0
    8.2850   46.8318   59.1767 C   0  0  0  0  0  0  0  0  0  0  0  0
    8.4694   50.9255   53.5669 N   0  0  0  0  0  0  0  0  0  0  0  0
    7.9102   51.5112   54.6535 C   0  0  0  0  0  0  0  0  0  0  0  0
    7.5967   50.7468   55.7860 C   0  0  0  0  0  0  0  0  0  0  0  0
    8.4590   48.7913   54.6379 C   0  0  0  0  0  0  0  0  0  0  0  0
    8.7491   49.6036   53.5360 C   0  0  0  0  0  0  0  0  0  0  0  0
    7.8721   49.3665   55.7753 C   0  0  0  0  0  0  0  0  0  0  0  0
   12.4996   48.8965   63.7685 S   0  0  0  0  0  0  0  0  0  0  0  0
   13.0617   48.1349   64.8745 O   0  0  0  0  0  0  0  0  0  0  0  0
   11.8496   50.1321   64.1186 O   0  0  0  0  0  0  0  0  0  0  0  0
   13.8303   49.2693   62.6382 C   0  0  0  0  0  0  0  0  0  0  0  0
   15.0516   49.7781   63.1239 C   0  0  0  0  0  0  0  0  0  0  0  0
   13.6728   49.0380   61.2584 C   0  0  0  0  0  0  0  0  0  0  0  0
   14.7170   49.3266   60.3669 C   0  0  0  0  0  0  0  0  0  0  0  0
   16.1053   50.0725   62.2374 C   0  0  0  0  0  0  0  0  0  0  0  0
   15.9318   49.8457   60.8489 C   0  0  0  0  0  0  0  0  0  0  0  0
   16.9703   50.1322   59.9681 C   0  0  0  0  0  0  0  0  0  0  0  0
   18.3603   50.8804   61.8218 C   0  0  0  0  0  0  0  0  0  0  0  0
   17.3219   50.5957   62.7153 C   0  0  0  0  0  0  0  0  0  0  0  0
   18.1803   50.6440   60.4461 C   0  0  0  0  0  0  0  0  0  0  0  0
   19.4665   50.9805   59.3161 Cl  0  0  0  0  0  0  0  0  0  0  0  0
 15 16  2  0  0  0
 15 19  1  0  0  0
 16 17  1  0  0  0
 17 20  2  0  0  0
 18 19  2  0  0  0
 18 20  1  0  0  0
 20  9  1  0  0  0
  9 10  1  0  0  0
  9 13  1  0  0  0
 10 11  1  0  0  0
 11 14  1  0  0  0
 12 13  1  0  0  0
 12 14  1  0  0  0
 14  1  1  0  0  0
  1  2  2  0  0  0
  1  3  1  0  0  0
  3  4  1  0  0  0
  3  7  1  0  0  0
  4  5  1  0  0  0
  5  8  1  0  0  0
  6  7  1  0  0  0
  6  8  1  0  0  0
  8 21  1  0  0  0
 21 22  2  0  0  0
 21 23  2  0  0  0
 21 24  1  0  0  0
 24 25  2  0  0  0
 24 26  1  0  0  0
 25 28  1  0  0  0
 26 27  2  0  0  0
 27 29  1  0  0  0
 28 29  2  0  0  0
 28 32  1  0  0  0
 29 30  1  0  0  0
 30 33  2  0  0  0
 31 32  2  0  0  0
 31 33  1  0  0  0
 33 34  1  0  0  0
M  END
> <minimizedAffinity>
-9.13783

$$$$
1QL9_ZEN_A_999


 34 38  0  0  0  0  0  0  0  0999 V2000
   11.5279   48.9113   62.7625 C   0  0  0  0  0  0  0  0  0  0  0  0
   11.5157   49.9597   63.4058 O   0  0  0  0  0  0  0  0  0  0  0  0
   10.4110   48.2772   62.4826 N   0  0  0  0  0  0  0  0  0  0  0  0
   10.3641   47.0005   61.7125 C   0  0  0  0  0  0  0  0  0  0  0  0
    9.3293   47.1233   60.5675 C   0  0  0  0  0  0  0  0  0  0  0  0
    8.1652   48.9324   61.7458 C   0  0  0  0  0  0  0  0  0  0  0  0
    9.1198   48.8140   62.9630 C   0  0  0  0  0  0  0  0  0  0  0  0
    8.0459   47.5899   61.1351 N   0  0  0  0  0  0  0  0  0  0  0  0
   15.6978   48.9353   61.5456 N   0  0  0  0  0  0  0  0  0  0  0  0
   15.4152   48.2563   62.8390 C   0  0  0  0  0  0  0  0  0  0  0  0
   14.0066   48.6500   63.3742 C   0  0  0  0  0  0  0  0  0  0  0  0
   13.3061   49.2653   61.0243 C   0  0  0  0  0  0  0  0  0  0  0  0
   14.6732   48.7923   60.4903 C   0  0  0  0  0  0  0  0  0  0  0  0
   12.9005   48.4474   62.2923 C   0  0  0  0  0  0  0  0  0  0  0  0
   19.0911   51.3374   60.9943 N   0  0  0  0  0  0  0  0  0  0  0  0
   18.6113   51.1570   62.2488 C   0  0  0  0  0  0  0  0  0  0  0  0
   17.4770   50.3622   62.4645 C   0  0  0  0  0  0  0  0  0  0  0  0
   17.3737   49.9563   60.0749 C   0  0  0  0  0  0  0  0  0  0  0  0
   18.5081   50.7610   59.9199 C   0  0  0  0  0  0  0  0  0  0  0  0
   16.8478   49.7567   61.3604 C   0  0  0  0  0  0  0  0  0  0  0  0
    6.8013   47.4625   60.0696 S   0  0  0  0  0  0  0  0  0  0  0  0
    5.6269   48.0809   60.6675 O   0  0  0  0  0  0  0  0  0  0  0  0
    6.6886   46.0614   59.7596 O   0  0  0  0  0  0  0  0  0  0  0  0
    7.1619   48.3392   58.5567 C   0  0  0  0  0  0  0  0  0  0  0  0
    7.6781   47.6477   57.4424 C   0  0  0  0  0  0  0  0  0  0  0  0
    6.9137   49.7218   58.4634 C   0  0  0  0  0  0  0  0  0  0  0  0
    7.1927   50.4142   57.2753 C   0  0  0  0  0  0  0  0  0  0  0  0
    7.9629   48.3334   56.2459 C   0  0  0  0  0  0  0  0  0  0  0  0
    7.7190   49.7276   56.1668 C   0  0  0  0  0  0  0  0  0  0  0  0
    7.9961   50.4104   54.9864 C   0  0  0  0  0  0  0  0  0  0  0  0
    8.7685   48.3459   53.9521 C   0  0  0  0  0  0  0  0  0  0  0  0
    8.4934   47.6506   55.1347 C   0  0  0  0  0  0  0  0  0  0  0  0
    8.5152   49.7286   53.8817 C   0  0  0  0  0  0  0  0  0  0  0  0
    8.8395   50.6125   52.4126 Cl  0  0  0  0  0  0  0  0  0  0  0  0
 15 16  2  0  0  0
 15 19  1  0  0  0
 16 17  1  0  0  0
 17 20  2  0  0  0
 18 19  2  0  0  0
 18 20  1  0  0  0
 20  9  1  0  0  0
  9 10  1  0  0  0
  9 13  1  0  0  0
 10 11  1  0  0  0
 11 14  1  0  0  0
 12 13  1  0  0  0
 12 14  1  0  0  0
 14  1  1  0  0  0
  1  2  2  0  0  0
  1  3  1  0  0  0
  3  4  1  0  0  0
  3  7  1  0  0  0
  4  5  1  0  0  0
  5  8  1  0  0  0
  6  7  1  0  0  0
  6  8  1  0  0  0
  8 21  1  0  0  0
 21 22  2  0  0  0
 21 23  2  0  0  0
 21 24  1  0  0  0
 24 25  2  0  0  0
 24 26  1  0  0  0
 25 28  1  0  0  0
 26 27  2  0  0  0
 27 29  1  0  0  0
 28 29  2  0  0  0
 28 32  1  0  0  0
 29 30  1  0  0  0
 30 33  2  0  0  0
 31 32  2  0  0  0
 31 33  1  0  0  0
 33 34  1  0  0  0
M  END
> <minimizedAffinity>
-8.69372

$$$$
1QL9_ZEN_A_999


 34 38  0  0  0  0  0  0  0  0999 V2000
    7.2862   48.3778   62.2810 C   0  0  0  0  0  0  0  0  0  0  0  0
    6.4541   48.2741   63.1811 O   0  0  0  0  0  0  0  0  0  0  0  0
    8.5181   48.7560   62.5399 N   0  0  0  0  0  0  0  0  0  0  0  0
    9.5674   48.9054   61.4903 C   0  0  0  0  0  0  0  0  0  0  0  0
   10.8450   48.1453   61.9223 C   0  0  0  0  0  0  0  0  0  0  0  0
   10.1732   48.2534   64.2788 C   0  0  0  0  0  0  0  0  0  0  0  0
    8.9110   49.0841   63.9270 C   0  0  0  0  0  0  0  0  0  0  0  0
   11.2192   48.5812   63.2850 N   0  0  0  0  0  0  0  0  0  0  0  0
    6.8950   48.1666   57.9599 N   0  0  0  0  0  0  0  0  0  0  0  0
    7.3798   46.9232   58.6175 C   0  0  0  0  0  0  0  0  0  0  0  0
    7.8680   47.2181   60.0667 C   0  0  0  0  0  0  0  0  0  0  0  0
    6.4360   49.3013   60.1054 C   0  0  0  0  0  0  0  0  0  0  0  0
    5.8918   48.9560   58.7045 C   0  0  0  0  0  0  0  0  0  0  0  0
    6.7962   47.9986   60.8895 C   0  0  0  0  0  0  0  0  0  0  0  0
    8.4623   49.5182   54.3123 N   0  0  0  0  0  0  0  0  0  0  0  0
    8.6203   48.2159   54.6524 C   0  0  0  0  0  0  0  0  0  0  0  0
    8.1103   47.7353   55.8664 C   0  0  0  0  0  0  0  0  0  0  0  0
    7.2793   49.9653   56.3378 C   0  0  0  0  0  0  0  0  0  0  0  0
    7.8105   50.3889   55.1145 C   0  0  0  0  0  0  0  0  0  0  0  0
    7.4336   48.6246   56.7222 C   0  0  0  0  0  0  0  0  0  0  0  0
   12.7199   48.0724   63.7205 S   0  0  0  0  0  0  0  0  0  0  0  0
   12.7247   46.6167   63.7156 O   0  0  0  0  0  0  0  0  0  0  0  0
   12.9984   48.7007   64.9852 O   0  0  0  0  0  0  0  0  0  0  0  0
   13.9473   48.6203   62.5454 C   0  0  0  0  0  0  0  0  0  0  0  0
   15.0977   49.3034   62.9884 C   0  0  0  0  0  0  0  0  0  0  0  0
   13.7813   48.3550   61.1728 C   0  0  0  0  0  0  0  0  0  0  0  0
   14.7449   48.7810   60.2462 C   0  0  0  0  0  0  0  0  0  0  0  0
   16.0700   49.7366   62.0665 C   0  0  0  0  0  0  0  0  0  0  0  0
   15.8873   49.4733   60.6856 C   0  0  0  0  0  0  0  0  0  0  0  0
   16.8458   49.8966   59.7700 C   0  0  0  0  0  0  0  0  0  0  0  0
   18.1718   50.8546   61.5734 C   0  0  0  0  0  0  0  0  0  0  0  0
   17.2135   50.4332   62.5018 C   0  0  0  0  0  0  0  0  0  0  0  0
   17.9844   50.5810   60.2056 C   0  0  0  0  0  0  0  0  0  0  0  0
   19.1730   51.0867   59.0325 Cl  0  0  0  0  0  0  0  0  0  0  0  0
 15 16  2  0  0  0
 15 19  1  0  0  0
 16 17  1  0  0  0
 17 20  2  0  0  0
 18 19  2  0  0  0
 18 20  1  0  0  0
 20  9  1  0  0  0
  9 10  1  0  0  0
  9 13  1  0  0  0
 10 11  1  0  0  0
 11 14  1  0  0  0
 12 13  1  0  0  0
 12 14  1  0  0  0
 14  1  1  0  0  0
  1  2  2  0  0  0
  1  3  1  0  0  0
  3  4  1  0  0  0
  3  7  1  0  0  0
  4  5  1  0  0  0
  5  8  1  0  0  0
  6  7  1  0  0  0
  6  8  1  0  0  0
  8 21  1  0  0  0
 21 22  2  0  0  0
 21 23  2  0  0  0
 21 24  1  0  0  0
 24 25  2  0  0  0
 24 26  1  0  0  0
 25 28  1  0  0  0
 26 27  2  0  0  0
 27 29  1  0  0  0
 28 29  2  0  0  0
 28 32  1  0  0  0
 29 30  1  0  0  0
 30 33  2  0  0  0
 31 32  2  0  0  0
 31 33  1  0  0  0
 33 34  1  0  0  0
M  END
> <minimizedAffinity>
-8.54371

$$$$
1QL9_ZEN_A_999


 34 38  0  0  0  0  0  0  0  0999 V2000
    7.9960   48.2955   60.1080 C   0  0  0  0  0  0  0  0  0  0  0  0
    8.0436   48.7734   58.9755 O   0  0  0  0  0  0  0  0  0  0  0  0
    9.0867   47.8802   60.7126 N   0  0  0  0  0  0  0  0  0  0  0  0
    9.0900   47.2871   62.0813 C   0  0  0  0  0  0  0  0  0  0  0  0
   10.1594   47.9934   62.9499 C   0  0  0  0  0  0  0  0  0  0  0  0
   11.3811   48.7145   60.9490 C   0  0  0  0  0  0  0  0  0  0  0  0
   10.3900   47.9654   60.0196 C   0  0  0  0  0  0  0  0  0  0  0  0
   11.4492   47.9714   62.2267 N   0  0  0  0  0  0  0  0  0  0  0  0
    4.0917   49.5381   61.5512 N   0  0  0  0  0  0  0  0  0  0  0  0
    4.0753   48.5797   60.4133 C   0  0  0  0  0  0  0  0  0  0  0  0
    5.4688   48.5194   59.7206 C   0  0  0  0  0  0  0  0  0  0  0  0
    6.5398   49.3834   61.8415 C   0  0  0  0  0  0  0  0  0  0  0  0
    5.1689   49.3581   62.5470 C   0  0  0  0  0  0  0  0  0  0  0  0
    6.6147   48.2682   60.7496 C   0  0  0  0  0  0  0  0  0  0  0  0
    1.3925   52.7400   61.7752 N   0  0  0  0  0  0  0  0  0  0  0  0
    2.6781   52.9885   61.4259 C   0  0  0  0  0  0  0  0  0  0  0  0
    3.6043   51.9393   61.3456 C   0  0  0  0  0  0  0  0  0  0  0  0
    1.8380   50.4033   61.9830 C   0  0  0  0  0  0  0  0  0  0  0  0
    0.9584   51.4896   62.0482 C   0  0  0  0  0  0  0  0  0  0  0  0
    3.1778   50.6289   61.6321 C   0  0  0  0  0  0  0  0  0  0  0  0
   12.7134   48.4165   63.1775 S   0  0  0  0  0  0  0  0  0  0  0  0
   13.1063   47.2659   63.9780 O   0  0  0  0  0  0  0  0  0  0  0  0
   12.2687   49.5732   63.9098 O   0  0  0  0  0  0  0  0  0  0  0  0
   14.1215   48.8924   62.1884 C   0  0  0  0  0  0  0  0  0  0  0  0
   15.2142   49.5546   62.7829 C   0  0  0  0  0  0  0  0  0  0  0  0
   14.1553   48.5906   60.8137 C   0  0  0  0  0  0  0  0  0  0  0  0
   15.2612   48.9599   60.0332 C   0  0  0  0  0  0  0  0  0  0  0  0
   16.3283   49.9310   62.0083 C   0  0  0  0  0  0  0  0  0  0  0  0
   16.3469   49.6314   60.6228 C   0  0  0  0  0  0  0  0  0  0  0  0
   17.4461   49.9984   59.8525 C   0  0  0  0  0  0  0  0  0  0  0  0
   18.5167   50.9714   61.8109 C   0  0  0  0  0  0  0  0  0  0  0  0
   17.4159   50.6067   62.5938 C   0  0  0  0  0  0  0  0  0  0  0  0
   18.5284   50.6621   60.4379 C   0  0  0  0  0  0  0  0  0  0  0  0
   19.8964   51.0969   59.4459 Cl  0  0  0  0  0  0  0  0  0  0  0  0
 15 16  2  0  0  0
 15 19  1  0  0  0
 16 17  1  0  0  0
 17 20  2  0  0  0
 18 19  2  0  0  0
 18 20  1  0  0  0
 20  9  1  0  0  0
  9 10  1  0  0  0
  9 13  1  0  0  0
 10 11  1  0  0  0
 11 14  1  0  0  0
 12 13  1  0  0  0
 12 14  1  0  0  0
 14  1  1  0  0  0
  1  2  2  0  0  0
  1  3  1  0  0  0
  3  4  1  0  0  0
  3  7  1  0  0  0
  4  5  1  0  0  0
  5  8  1  0  0  0
  6  7  1  0  0  0
  6  8  1  0  0  0
  8 21  1  0  0  0
 21 22  2  0  0  0
 21 23  2  0  0  0
 21 24  1  0  0  0
 24 25  2  0  0  0
 24 26  1  0  0  0
 25 28  1  0  0  0
 26 27  2  0  0  0
 27 29  1  0  0  0
 28 29  2  0  0  0
 28 32  1  0  0  0
 29 30  1  0  0  0
 30 33  2  0  0  0
 31 32  2  0  0  0
 31 33  1  0  0  0
 33 34  1  0  0  0
M  END
> <minimizedAffinity>
-8.02547

$$$$
1QL9_ZEN_A_999


 34 38  0  0  0  0  0  0  0  0999 V2000
   11.6417   46.5480   63.7147 C   0  0  0  0  0  0  0  0  0  0  0  0
   11.4008   45.8151   64.6728 O   0  0  0  0  0  0  0  0  0  0  0  0
   10.9312   46.4734   62.6114 N   0  0  0  0  0  0  0  0  0  0  0  0
   11.1803   47.3308   61.4165 C   0  0  0  0  0  0  0  0  0  0  0  0
    9.8524   47.9828   60.9601 C   0  0  0  0  0  0  0  0  0  0  0  0
    8.5496   46.2308   62.0777 C   0  0  0  0  0  0  0  0  0  0  0  0
    9.8395   45.4820   62.5049 C   0  0  0  0  0  0  0  0  0  0  0  0
    8.8329   46.9234   60.8013 N   0  0  0  0  0  0  0  0  0  0  0  0
   15.0643   49.1210   62.9830 N   0  0  0  0  0  0  0  0  0  0  0  0
   13.7824   49.8266   63.2522 C   0  0  0  0  0  0  0  0  0  0  0  0
   12.5737   48.8574   63.0942 C   0  0  0  0  0  0  0  0  0  0  0  0
   14.1190   46.8957   63.4885 C   0  0  0  0  0  0  0  0  0  0  0  0
   15.2932   47.8659   63.7290 C   0  0  0  0  0  0  0  0  0  0  0  0
   12.7690   47.5507   63.9246 C   0  0  0  0  0  0  0  0  0  0  0  0
   17.7714   50.4438   60.0658 N   0  0  0  0  0  0  0  0  0  0  0  0
   17.9943   50.7669   61.3629 C   0  0  0  0  0  0  0  0  0  0  0  0
   17.1056   50.3420   62.3602 C   0  0  0  0  0  0  0  0  0  0  0  0
   15.7843   49.2518   60.6424 C   0  0  0  0  0  0  0  0  0  0  0  0
   16.7042   49.7046   59.6900 C   0  0  0  0  0  0  0  0  0  0  0  0
   15.9828   49.5767   61.9929 C   0  0  0  0  0  0  0  0  0  0  0  0
    7.4829   47.4572   60.0312 S   0  0  0  0  0  0  0  0  0  0  0  0
    7.0286   48.6685   60.6987 O   0  0  0  0  0  0  0  0  0  0  0  0
    6.5623   46.3507   60.0353 O   0  0  0  0  0  0  0  0  0  0  0  0
    7.8390   47.8776   58.3330 C   0  0  0  0  0  0  0  0  0  0  0  0
    7.5626   49.1725   57.8503 C   0  0  0  0  0  0  0  0  0  0  0  0
    8.4161   46.9235   57.4736 C   0  0  0  0  0  0  0  0  0  0  0  0
    8.7006   47.2505   56.1392 C   0  0  0  0  0  0  0  0  0  0  0  0
    7.8428   49.5105   56.5123 C   0  0  0  0  0  0  0  0  0  0  0  0
    8.4141   48.5385   55.6530 C   0  0  0  0  0  0  0  0  0  0  0  0
    8.6957   48.8672   54.3305 C   0  0  0  0  0  0  0  0  0  0  0  0
    7.8411   51.1188   54.6891 C   0  0  0  0  0  0  0  0  0  0  0  0
    7.5542   50.7978   56.0204 C   0  0  0  0  0  0  0  0  0  0  0  0
    8.4156   50.1487   53.8466 C   0  0  0  0  0  0  0  0  0  0  0  0
    8.7928   50.5317   52.1866 Cl  0  0  0  0  0  0  0  0  0  0  0  0
 15 16  2  0  0  0
 15 19  1  0  0  0
 16 17  1  0  0  0
 17 20  2  0  0  0
 18 19  2  0  0  0
 18 20  1  0  0  0
 20  9  1  0  0  0
  9 10  1  0  0  0
  9 13  1  0  0  0
 10 11  1  0  0  0
 11 14  1  0  0  0
 12 13  1  0  0  0
 12 14  1  0  0  0
 14  1  1  0  0  0
  1  2  2  0  0  0
  1  3  1  0  0  0
  3  4  1  0  0  0
  3  7  1  0  0  0
  4  5  1  0  0  0
  5  8  1  0  0  0
  6  7  1  0  0  0
  6  8  1  0  0  0
  8 21  1  0  0  0
 21 22  2  0  0  0
 21 23  2  0  0  0
 21 24  1  0  0  0
 24 25  2  0  0  0
 24 26  1  0  0  0
 25 28  1  0  0  0
 26 27  2  0  0  0
 27 29  1  0  0  0
 28 29  2  0  0  0
 28 32  1  0  0  0
 29 30  1  0  0  0
 30 33  2  0  0  0
 31 32  2  0  0  0
 31 33  1  0  0  0
 33 34  1  0  0  0
M  END
> <minimizedAffinity>
-7.81066

$$$$
1QL9_ZEN_A_999


 34 38  0  0  0  0  0  0  0  0999 V2000
   10.8025   48.5568   63.4943 C   0  0  0  0  0  0  0  0  0  0  0  0
   10.6848   49.0952   64.5940 O   0  0  0  0  0  0  0  0  0  0  0  0
    9.7457   48.1738   62.8129 N   0  0  0  0  0  0  0  0  0  0  0  0
    9.8265   47.5112   61.4789 C   0  0  0  0  0  0  0  0  0  0  0  0
    8.8836   48.2312   60.4843 C   0  0  0  0  0  0  0  0  0  0  0  0
    7.5371   49.1248   62.3295 C   0  0  0  0  0  0  0  0  0  0  0  0
    8.3941   48.3698   63.3794 C   0  0  0  0  0  0  0  0  0  0  0  0
    7.5362   48.3212   61.0871 N   0  0  0  0  0  0  0  0  0  0  0  0
   15.1342   48.2498   63.3855 N   0  0  0  0  0  0  0  0  0  0  0  0
   14.3979   47.0162   62.9987 C   0  0  0  0  0  0  0  0  0  0  0  0
   12.9107   47.0938   63.4545 C   0  0  0  0  0  0  0  0  0  0  0  0
   13.0801   49.6155   63.5151 C   0  0  0  0  0  0  0  0  0  0  0  0
   14.5243   49.5337   62.9809 C   0  0  0  0  0  0  0  0  0  0  0  0
   12.2306   48.4168   62.9833 C   0  0  0  0  0  0  0  0  0  0  0  0
   18.5973   48.1121   65.7470 N   0  0  0  0  0  0  0  0  0  0  0  0
   18.1906   49.3043   65.2471 C   0  0  0  0  0  0  0  0  0  0  0  0
   17.0388   49.3816   64.4519 C   0  0  0  0  0  0  0  0  0  0  0  0
   16.7572   46.9872   64.7220 C   0  0  0  0  0  0  0  0  0  0  0  0
   17.9147   46.9704   65.5081 C   0  0  0  0  0  0  0  0  0  0  0  0
   16.3147   48.2049   64.1831 C   0  0  0  0  0  0  0  0  0  0  0  0
    6.3907   48.7878   60.0052 S   0  0  0  0  0  0  0  0  0  0  0  0
    5.9986   50.1539   60.3202 O   0  0  0  0  0  0  0  0  0  0  0  0
    5.3484   47.7980   60.0819 O   0  0  0  0  0  0  0  0  0  0  0  0
    7.0411   48.7824   58.3425 C   0  0  0  0  0  0  0  0  0  0  0  0
    7.1198   49.9827   57.6081 C   0  0  0  0  0  0  0  0  0  0  0  0
    7.4967   47.5823   57.7646 C   0  0  0  0  0  0  0  0  0  0  0  0
    8.0116   47.5739   56.4594 C   0  0  0  0  0  0  0  0  0  0  0  0
    7.6334   49.9850   56.2970 C   0  0  0  0  0  0  0  0  0  0  0  0
    8.0795   48.7689   55.7212 C   0  0  0  0  0  0  0  0  0  0  0  0
    8.5903   48.7651   54.4269 C   0  0  0  0  0  0  0  0  0  0  0  0
    8.2153   51.1645   54.2523 C   0  0  0  0  0  0  0  0  0  0  0  0
    7.6998   51.1785   55.5530 C   0  0  0  0  0  0  0  0  0  0  0  0
    8.6628   49.9529   53.6931 C   0  0  0  0  0  0  0  0  0  0  0  0
    9.3204   49.9152   52.0773 Cl  0  0  0  0  0  0  0  0  0  0  0  0
 15 16  2  0  0  0
 15 19  1  0  0  0
 16 17  1  0  0  0
 17 20  2  0  0  0
 18 19  2  0  0  0
 18 20  1  0  0  0
 20  9  1  0  0  0
  9 10  1  0  0  0
  9 13  1  0  0  0
 10 11  1  0  0  0
 11 14  1  0  0  0
 12 13  1  0  0  0
 12 14  1  0  0  0
 14  1  1  0  0  0
  1  2  2  0  0  0
  1  3  1  0  0  0
  3  4  1  0  0  0
  3  7  1  0  0  0
  4  5  1  0  0  0
  5  8  1  0  0  0
  6  7  1  0  0  0
  6  8  1  0  0  0
  8 21  1  0  0  0
 21 22  2  0  0  0
 21 23  2  0  0  0
 21 24  1  0  0  0
 24 25  2  0  0  0
 24 26  1  0  0  0
 25 28  1  0  0  0
 26 27  2  0  0  0
 27 29  1  0  0  0
 28 29  2  0  0  0
 28 32  1  0  0  0
 29 30  1  0  0  0
 30 33  2  0  0  0
 31 32  2  0  0  0
 31 33  1  0  0  0
 33 34  1  0  0  0
M  END
> <minimizedAffinity>
-7.70882

$$$$
1QL9_ZEN_A_999


 34 38  0  0  0  0  0  0  0  0999 V2000
   10.5319   50.3719   62.7834 C   0  0  0  0  0  0  0  0  0  0  0  0
   10.3250   51.5512   63.0653 O   0  0  0  0  0  0  0  0  0  0  0  0
    9.5354   49.5516   62.5349 N   0  0  0  0  0  0  0  0  0  0  0  0
    9.7244   48.1117   62.1942 C   0  0  0  0  0  0  0  0  0  0  0  0
    8.9201   47.7714   60.9158 C   0  0  0  0  0  0  0  0  0  0  0  0
    7.4306   49.6853   61.2827 C   0  0  0  0  0  0  0  0  0  0  0  0
    8.1423   50.0407   62.6146 C   0  0  0  0  0  0  0  0  0  0  0  0
    7.5230   48.2199   61.1000 N   0  0  0  0  0  0  0  0  0  0  0  0
   14.2203   48.1232   63.2411 N   0  0  0  0  0  0  0  0  0  0  0  0
   13.7117   48.2366   61.8475 C   0  0  0  0  0  0  0  0  0  0  0  0
   12.2207   48.6865   61.8377 C   0  0  0  0  0  0  0  0  0  0  0  0
   12.5221   49.6716   64.1465 C   0  0  0  0  0  0  0  0  0  0  0  0
   14.0181   49.2996   64.1126 C   0  0  0  0  0  0  0  0  0  0  0  0
   11.9977   49.9651   62.7041 C   0  0  0  0  0  0  0  0  0  0  0  0
   15.8792   44.5689   64.7253 N   0  0  0  0  0  0  0  0  0  0  0  0
   16.6289   45.6978   64.7361 C   0  0  0  0  0  0  0  0  0  0  0  0
   16.1031   46.9004   64.2439 C   0  0  0  0  0  0  0  0  0  0  0  0
   14.0352   45.7316   63.7508 C   0  0  0  0  0  0  0  0  0  0  0  0
   14.6128   44.5603   64.2536 C   0  0  0  0  0  0  0  0  0  0  0  0
   14.7885   46.9154   63.7408 C   0  0  0  0  0  0  0  0  0  0  0  0
    6.5155   47.6390   59.9389 S   0  0  0  0  0  0  0  0  0  0  0  0
    5.2400   48.3304   60.0574 O   0  0  0  0  0  0  0  0  0  0  0  0
    6.4801   46.2121   60.1246 O   0  0  0  0  0  0  0  0  0  0  0  0
    7.1604   47.9713   58.3076 C   0  0  0  0  0  0  0  0  0  0  0  0
    7.0241   49.2537   57.7391 C   0  0  0  0  0  0  0  0  0  0  0  0
    7.8256   46.9594   57.5897 C   0  0  0  0  0  0  0  0  0  0  0  0
    8.3367   47.2170   56.3087 C   0  0  0  0  0  0  0  0  0  0  0  0
    7.5321   49.5223   56.4535 C   0  0  0  0  0  0  0  0  0  0  0  0
    8.1908   48.4927   55.7354 C   0  0  0  0  0  0  0  0  0  0  0  0
    8.6972   48.7526   54.4656 C   0  0  0  0  0  0  0  0  0  0  0  0
    7.8977   51.0487   54.5969 C   0  0  0  0  0  0  0  0  0  0  0  0
    7.3849   50.7971   55.8742 C   0  0  0  0  0  0  0  0  0  0  0  0
    8.5569   50.0216   53.8959 C   0  0  0  0  0  0  0  0  0  0  0  0
    9.2146   50.3175   52.3070 Cl  0  0  0  0  0  0  0  0  0  0  0  0
 15 16  2  0  0  0
 15 19  1  0  0  0
 16 17  1  0  0  0
 17 20  2  0  0  0
 18 19  2  0  0  0
 18 20  1  0  0  0
 20  9  1  0  0  0
  9 10  1  0  0  0
  9 13  1  0  0  0
 10 11  1  0  0  0
 11 14  1  0  0  0
 12 13  1  0  0  0
 12 14  1  0  0  0
 14  1  1  0  0  0
  1  2  2  0  0  0
  1  3  1  0  0  0
  3  4  1  0  0  0
  3  7  1  0  0  0
  4  5  1  0  0  0
  5  8  1  0  0  0
  6  7  1  0  0  0
  6  8  1  0  0  0
  8 21  1  0  0  0
 21 22  2  0  0  0
 21 23  2  0  0  0
 21 24  1  0  0  0
 24 25  2  0  0  0
 24 26  1  0  0  0
 25 28  1  0  0  0
 26 27  2  0  0  0
 27 29  1  0  0  0
 28 29  2  0  0  0
 28 32  1  0  0  0
 29 30  1  0  0  0
 30 33  2  0  0  0
 31 32  2  0  0  0
 31 33  1  0  0  0
 33 34  1  0  0  0
M  END
> <minimizedAffinity>
-7.54034

$$$$
1QL9_ZEN_A_999


 34 38  0  0  0  0  0  0  0  0999 V2000
   11.4665   46.5581   62.7040 C   0  0  0  0  0  0  0  0  0  0  0  0
   11.0192   45.7885   63.5530 O   0  0  0  0  0  0  0  0  0  0  0  0
   10.9620   46.5930   61.4907 N   0  0  0  0  0  0  0  0  0  0  0  0
   11.4665   47.4996   60.4190 C   0  0  0  0  0  0  0  0  0  0  0  0
   10.2784   48.2611   59.7823 C   0  0  0  0  0  0  0  0  0  0  0  0
    8.7049   46.5356   60.5325 C   0  0  0  0  0  0  0  0  0  0  0  0
    9.8557   45.6818   61.1273 C   0  0  0  0  0  0  0  0  0  0  0  0
    9.2488   47.2806   59.3756 N   0  0  0  0  0  0  0  0  0  0  0  0
   15.0259   49.0480   62.7252 N   0  0  0  0  0  0  0  0  0  0  0  0
   13.7424   49.7690   62.9407 C   0  0  0  0  0  0  0  0  0  0  0  0
   12.5331   48.8848   62.5152 C   0  0  0  0  0  0  0  0  0  0  0  0
   13.9622   46.8204   62.8108 C   0  0  0  0  0  0  0  0  0  0  0  0
   15.1275   47.6961   63.3136 C   0  0  0  0  0  0  0  0  0  0  0  0
   12.5898   47.4722   63.1758 C   0  0  0  0  0  0  0  0  0  0  0  0
   18.0987   50.6216   60.3440 N   0  0  0  0  0  0  0  0  0  0  0  0
   18.1496   50.8035   61.6859 C   0  0  0  0  0  0  0  0  0  0  0  0
   17.1356   50.2920   62.5077 C   0  0  0  0  0  0  0  0  0  0  0  0
   16.0489   49.4103   60.5260 C   0  0  0  0  0  0  0  0  0  0  0  0
   17.0880   49.9442   59.7557 C   0  0  0  0  0  0  0  0  0  0  0  0
   16.0686   49.5888   61.9177 C   0  0  0  0  0  0  0  0  0  0  0  0
    8.0889   47.9437   58.4188 S   0  0  0  0  0  0  0  0  0  0  0  0
    7.3827   46.8629   57.7463 O   0  0  0  0  0  0  0  0  0  0  0  0
    8.7699   48.8809   57.5645 O   0  0  0  0  0  0  0  0  0  0  0  0
    6.8947   48.8454   59.3925 C   0  0  0  0  0  0  0  0  0  0  0  0
    5.5885   48.3421   59.5566 C   0  0  0  0  0  0  0  0  0  0  0  0
    7.2582   50.0535   60.0174 C   0  0  0  0  0  0  0  0  0  0  0  0
    6.3238   50.7638   60.7862 C   0  0  0  0  0  0  0  0  0  0  0  0
    4.6427   49.0480   60.3248 C   0  0  0  0  0  0  0  0  0  0  0  0
    5.0167   50.2688   60.9407 C   0  0  0  0  0  0  0  0  0  0  0  0
    4.0873   50.9697   61.7032 C   0  0  0  0  0  0  0  0  0  0  0  0
    2.4046   49.2698   61.2479 C   0  0  0  0  0  0  0  0  0  0  0  0
    3.3319   48.5579   60.4791 C   0  0  0  0  0  0  0  0  0  0  0  0
    2.7886   50.4768   61.8616 C   0  0  0  0  0  0  0  0  0  0  0  0
    1.6516   51.3741   62.8346 Cl  0  0  0  0  0  0  0  0  0  0  0  0
 15 16  2  0  0  0
 15 19  1  0  0  0
 16 17  1  0  0  0
 17 20  2  0  0  0
 18 19  2  0  0  0
 18 20  1  0  0  0
 20  9  1  0  0  0
  9 10  1  0  0  0
  9 13  1  0  0  0
 10 11  1  0  0  0
 11 14  1  0  0  0
 12 13  1  0  0  0
 12 14  1  0  0  0
 14  1  1  0  0  0
  1  2  2  0  0  0
  1  3  1  0  0  0
  3  4  1  0  0  0
  3  7  1  0  0  0
  4  5  1  0  0  0
  5  8  1  0  0  0
  6  7  1  0  0  0
  6  8  1  0  0  0
  8 21  1  0  0  0
 21 22  2  0  0  0
 21 23  2  0  0  0
 21 24  1  0  0  0
 24 25  2  0  0  0
 24 26  1  0  0  0
 25 28  1  0  0  0
 26 27  2  0  0  0
 27 29  1  0  0  0
 28 29  2  0  0  0
 28 32  1  0  0  0
 29 30  1  0  0  0
 30 33  2  0  0  0
 31 32  2  0  0  0
 31 33  1  0  0  0
 33 34  1  0  0  0
M  END
> <minimizedAffinity>
-7.19935

$$$$
