5HCY_60D_A_1102


 41 46  0  0  0  0  0  0  0  0999 V2000
  -51.6346   -0.8045  -19.0674 C   0  0  0  0  0  0  0  0  0  0  0  0
  -52.2165    0.3355  -18.5838 C   0  0  0  0  0  0  0  0  0  0  0  0
  -53.0181    0.8853  -19.6991 C   0  0  0  0  0  0  0  0  0  0  0  0
  -52.8101    0.0196  -20.8070 C   0  0  0  0  0  0  0  0  0  0  0  0
  -53.4501    0.3290  -22.0182 C   0  0  0  0  0  0  0  0  0  0  0  0
  -54.2954    1.4445  -22.0718 C   0  0  0  0  0  0  0  0  0  0  0  0
  -53.8365    2.0070  -19.8579 C   0  0  0  0  0  0  0  0  0  0  0  0
  -51.9560   -0.9819  -20.3888 N   0  0  0  0  0  0  0  0  0  0  0  0
  -54.4317    2.2484  -21.0168 N   0  0  0  0  0  0  0  0  0  0  0  0
  -52.1279    0.8922  -17.2187 C   0  0  0  0  0  0  0  0  0  0  0  0
  -53.0826    1.4840  -16.7285 O   0  0  0  0  0  0  0  0  0  0  0  0
  -50.9777    0.7599  -16.5189 N   0  0  0  0  0  0  0  0  0  0  0  0
  -50.2068    0.3183  -16.9432 H   0  0  0  0  0  0  0  0  0  0  0  0
  -50.8487    1.2555  -15.1486 C   0  0  0  0  0  0  0  0  0  0  0  0
  -51.1433    0.0465  -14.2347 C   0  0  0  0  0  0  0  0  0  0  0  0
  -50.9196    0.4272  -12.7661 C   0  0  0  0  0  0  0  0  0  0  0  0
  -49.5631    0.8788  -12.6424 O   0  0  0  0  0  0  0  0  0  0  0  0
  -49.2202    2.0475  -13.4183 C   0  0  0  0  0  0  0  0  0  0  0  0
  -49.4255    1.7829  -14.9210 C   0  0  0  0  0  0  0  0  0  0  0  0
  -51.6221   -3.4167  -20.5204 C   0  0  0  0  0  0  0  0  0  0  0  0
  -50.1299   -1.8924  -21.8805 C   0  0  0  0  0  0  0  0  0  0  0  0
  -51.5218   -2.0843  -21.2704 C   0  0  0  0  0  0  0  0  0  0  0  0
  -54.9895    1.8318  -23.2295 N   0  0  0  0  0  0  0  0  0  0  0  0
  -55.3005    2.7655  -23.2556 H   0  0  0  0  0  0  0  0  0  0  0  0
  -55.2895    1.0591  -24.3389 C   0  0  0  0  0  0  0  0  0  0  0  0
  -56.5637    1.1844  -24.9135 C   0  0  0  0  0  0  0  0  0  0  0  0
  -56.8454    0.4288  -26.0472 C   0  0  0  0  0  0  0  0  0  0  0  0
  -55.9130   -0.3902  -26.5360 N   0  0  0  0  0  0  0  0  0  0  0  0
  -54.6998   -0.4838  -25.9864 C   0  0  0  0  0  0  0  0  0  0  0  0
  -54.3876    0.2400  -24.9075 N   0  0  0  0  0  0  0  0  0  0  0  0
  -53.7104   -1.4399  -26.5370 C   0  0  0  0  0  0  0  0  0  0  0  0
  -53.5976   -1.9008  -27.8658 C   0  0  0  0  0  0  0  0  0  0  0  0
  -52.6200   -2.7648  -27.9129 N   0  0  0  0  0  0  0  0  0  0  0  0
  -52.0711   -2.9010  -26.6280 N   0  0  0  0  0  0  0  0  0  0  0  0
  -52.7644   -2.0922  -25.8045 C   0  0  0  0  0  0  0  0  0  0  0  0
  -50.8433   -3.9394  -26.1603 S   0  0  0  0  0  0  0  0  0  0  0  0
  -50.3472   -4.4568  -27.3925 O   0  0  0  0  0  0  0  0  0  0  0  0
  -50.0174   -3.1727  -25.2812 O   0  0  0  0  0  0  0  0  0  0  0  0
  -51.7034   -5.2562  -25.2368 C   0  0  0  0  0  0  0  0  0  0  0  0
  -50.8479   -6.2363  -24.4294 C   0  0  0  0  0  0  0  0  0  0  0  0
  -51.7161   -5.2046  -23.7095 C   0  0  0  0  0  0  0  0  0  0  0  0
 32 33  2  0  0  0
 32 31  1  0  0  0
 33 34  1  0  0  0
 37 36  2  0  0  0
 28 27  2  0  0  0
 28 29  1  0  0  0
 31 29  1  0  0  0
 31 35  2  0  0  0
 34 36  1  0  0  0
 34 35  1  0  0  0
 27 26  1  0  0  0
 29 30  2  0  0  0
 36 39  1  0  0  0
 36 38  2  0  0  0
 39 40  1  0  0  0
 39 41  1  0  0  0
 26 25  2  0  0  0
 40 41  1  0  0  0
 30 25  1  0  0  0
 25 23  1  0  0  0
 23  6  1  0  0  0
  6  5  2  0  0  0
  6  9  1  0  0  0
  5  4  1  0  0  0
 22 20  1  0  0  0
 22 21  1  0  0  0
 22  8  1  0  0  0
  9  7  2  0  0  0
  4  8  1  0  0  0
  4  3  2  0  0  0
  8  1  1  0  0  0
  7  3  1  0  0  0
  3  2  1  0  0  0
  1  2  2  0  0  0
  2 10  1  0  0  0
 10 11  2  0  0  0
 10 12  1  0  0  0
 12 14  1  0  0  0
 14 19  1  0  0  0
 14 15  1  0  0  0
 19 18  1  0  0  0
 15 16  1  0  0  0
 16 17  1  0  0  0
 18 17  1  0  0  0
 23 24  1  0  0  0
 12 13  1  0  0  0
M  END
> <minimizedAffinity>
-9.88479

$$$$
5HCY_60D_A_1102


 41 46  0  0  0  0  0  0  0  0999 V2000
  -52.6197    1.0837  -18.2772 C   0  0  0  0  0  0  0  0  0  0  0  0
  -52.0891    0.6049  -17.1104 C   0  0  0  0  0  0  0  0  0  0  0  0
  -51.1006   -0.4220  -17.5066 C   0  0  0  0  0  0  0  0  0  0  0  0
  -51.1527   -0.5024  -18.9247 C   0  0  0  0  0  0  0  0  0  0  0  0
  -50.3154   -1.4295  -19.5663 C   0  0  0  0  0  0  0  0  0  0  0  0
  -49.4385   -2.1996  -18.7918 C   0  0  0  0  0  0  0  0  0  0  0  0
  -50.2330   -1.2674  -16.8098 C   0  0  0  0  0  0  0  0  0  0  0  0
  -52.0939    0.4136  -19.3520 N   0  0  0  0  0  0  0  0  0  0  0  0
  -49.4505   -2.1153  -17.4611 N   0  0  0  0  0  0  0  0  0  0  0  0
  -52.3808    1.0459  -15.7314 C   0  0  0  0  0  0  0  0  0  0  0  0
  -53.0597    0.3465  -14.9884 O   0  0  0  0  0  0  0  0  0  0  0  0
  -51.9078    2.2375  -15.2991 N   0  0  0  0  0  0  0  0  0  0  0  0
  -51.3995    2.8056  -15.9221 H   0  0  0  0  0  0  0  0  0  0  0  0
  -52.1316    2.7043  -13.9310 C   0  0  0  0  0  0  0  0  0  0  0  0
  -50.7321    2.8055  -13.2870 C   0  0  0  0  0  0  0  0  0  0  0  0
  -50.8404    3.4022  -11.8785 C   0  0  0  0  0  0  0  0  0  0  0  0
  -51.4703    4.6854  -12.0039 O   0  0  0  0  0  0  0  0  0  0  0  0
  -52.8108    4.6738  -12.5407 C   0  0  0  0  0  0  0  0  0  0  0  0
  -52.8247    4.0734  -13.9583 C   0  0  0  0  0  0  0  0  0  0  0  0
  -53.3669    1.8186  -20.9212 C   0  0  0  0  0  0  0  0  0  0  0  0
  -52.9579   -0.6111  -21.4949 C   0  0  0  0  0  0  0  0  0  0  0  0
  -52.4131    0.6280  -20.7779 C   0  0  0  0  0  0  0  0  0  0  0  0
  -48.5541   -3.1444  -19.3369 N   0  0  0  0  0  0  0  0  0  0  0  0
  -47.5966   -2.9221  -19.2835 H   0  0  0  0  0  0  0  0  0  0  0  0
  -48.8660   -4.3511  -19.9406 C   0  0  0  0  0  0  0  0  0  0  0  0
  -48.7216   -5.5283  -19.1906 C   0  0  0  0  0  0  0  0  0  0  0  0
  -49.0684   -6.7331  -19.7940 C   0  0  0  0  0  0  0  0  0  0  0  0
  -49.5069   -6.7316  -21.0536 N   0  0  0  0  0  0  0  0  0  0  0  0
  -49.6546   -5.5999  -21.7465 C   0  0  0  0  0  0  0  0  0  0  0  0
  -49.3484   -4.4226  -21.1935 N   0  0  0  0  0  0  0  0  0  0  0  0
  -50.1031   -5.6502  -23.1581 C   0  0  0  0  0  0  0  0  0  0  0  0
  -49.9999   -6.7288  -24.0620 C   0  0  0  0  0  0  0  0  0  0  0  0
  -50.4776   -6.3393  -25.2129 N   0  0  0  0  0  0  0  0  0  0  0  0
  -50.8985   -5.0046  -25.1025 N   0  0  0  0  0  0  0  0  0  0  0  0
  -50.6454   -4.6039  -23.8423 C   0  0  0  0  0  0  0  0  0  0  0  0
  -51.5173   -4.0378  -26.3219 S   0  0  0  0  0  0  0  0  0  0  0  0
  -50.6415   -4.2744  -27.4215 O   0  0  0  0  0  0  0  0  0  0  0  0
  -52.9082   -4.3597  -26.3872 O   0  0  0  0  0  0  0  0  0  0  0  0
  -51.2869   -2.3385  -25.7008 C   0  0  0  0  0  0  0  0  0  0  0  0
  -51.9485   -1.1986  -26.4802 C   0  0  0  0  0  0  0  0  0  0  0  0
  -52.4833   -1.5976  -25.1049 C   0  0  0  0  0  0  0  0  0  0  0  0
 32 33  2  0  0  0
 32 31  1  0  0  0
 33 34  1  0  0  0
 37 36  2  0  0  0
 28 27  2  0  0  0
 28 29  1  0  0  0
 31 29  1  0  0  0
 31 35  2  0  0  0
 34 36  1  0  0  0
 34 35  1  0  0  0
 27 26  1  0  0  0
 29 30  2  0  0  0
 36 39  1  0  0  0
 36 38  2  0  0  0
 39 40  1  0  0  0
 39 41  1  0  0  0
 26 25  2  0  0  0
 40 41  1  0  0  0
 30 25  1  0  0  0
 25 23  1  0  0  0
 23  6  1  0  0  0
  6  5  2  0  0  0
  6  9  1  0  0  0
  5  4  1  0  0  0
 22 20  1  0  0  0
 22 21  1  0  0  0
 22  8  1  0  0  0
  9  7  2  0  0  0
  4  8  1  0  0  0
  4  3  2  0  0  0
  8  1  1  0  0  0
  7  3  1  0  0  0
  3  2  1  0  0  0
  1  2  2  0  0  0
  2 10  1  0  0  0
 10 11  2  0  0  0
 10 12  1  0  0  0
 12 14  1  0  0  0
 14 19  1  0  0  0
 14 15  1  0  0  0
 19 18  1  0  0  0
 15 16  1  0  0  0
 16 17  1  0  0  0
 18 17  1  0  0  0
 23 24  1  0  0  0
 12 13  1  0  0  0
M  END
> <minimizedAffinity>
-9.13985

$$$$
5HCY_60D_A_1102


 41 46  0  0  0  0  0  0  0  0999 V2000
  -50.2507   -1.3511  -18.0043 C   0  0  0  0  0  0  0  0  0  0  0  0
  -50.9626   -0.3902  -17.3394 C   0  0  0  0  0  0  0  0  0  0  0  0
  -51.7905    0.2823  -18.3646 C   0  0  0  0  0  0  0  0  0  0  0  0
  -51.4642   -0.3273  -19.6064 C   0  0  0  0  0  0  0  0  0  0  0  0
  -52.1036    0.1452  -20.7640 C   0  0  0  0  0  0  0  0  0  0  0  0
  -53.0615    1.1598  -20.6424 C   0  0  0  0  0  0  0  0  0  0  0  0
  -52.7198    1.3259  -18.3437 C   0  0  0  0  0  0  0  0  0  0  0  0
  -50.5187   -1.3004  -19.3483 N   0  0  0  0  0  0  0  0  0  0  0  0
  -53.3086    1.7264  -19.4610 N   0  0  0  0  0  0  0  0  0  0  0  0
  -50.9675   -0.1024  -15.8908 C   0  0  0  0  0  0  0  0  0  0  0  0
  -50.6343    1.0024  -15.4780 O   0  0  0  0  0  0  0  0  0  0  0  0
  -51.3255   -1.0740  -15.0200 N   0  0  0  0  0  0  0  0  0  0  0  0
  -51.5501   -1.9681  -15.3656 H   0  0  0  0  0  0  0  0  0  0  0  0
  -51.3877   -0.8317  -13.5788 C   0  0  0  0  0  0  0  0  0  0  0  0
  -52.7688   -1.3510  -13.1242 C   0  0  0  0  0  0  0  0  0  0  0  0
  -52.8946   -1.2527  -11.5991 C   0  0  0  0  0  0  0  0  0  0  0  0
  -51.8187   -2.0131  -11.0304 O   0  0  0  0  0  0  0  0  0  0  0  0
  -50.4888   -1.5538  -11.3554 C   0  0  0  0  0  0  0  0  0  0  0  0
  -50.2554   -1.5936  -12.8766 C   0  0  0  0  0  0  0  0  0  0  0  0
  -49.0368   -3.2194  -19.7706 C   0  0  0  0  0  0  0  0  0  0  0  0
  -49.2250   -1.3993  -21.5175 C   0  0  0  0  0  0  0  0  0  0  0  0
  -49.9478   -2.1622  -20.4031 C   0  0  0  0  0  0  0  0  0  0  0  0
  -53.7643    1.6926  -21.7352 N   0  0  0  0  0  0  0  0  0  0  0  0
  -54.1021    2.6109  -21.6264 H   0  0  0  0  0  0  0  0  0  0  0  0
  -54.0396    1.0825  -22.9476 C   0  0  0  0  0  0  0  0  0  0  0  0
  -55.1990    1.4665  -23.6387 C   0  0  0  0  0  0  0  0  0  0  0  0
  -55.4508    0.8723  -24.8713 C   0  0  0  0  0  0  0  0  0  0  0  0
  -54.6014   -0.0415  -25.3429 N   0  0  0  0  0  0  0  0  0  0  0  0
  -53.4938   -0.3821  -24.6796 C   0  0  0  0  0  0  0  0  0  0  0  0
  -53.2102    0.1808  -23.5014 N   0  0  0  0  0  0  0  0  0  0  0  0
  -52.6017   -1.4343  -25.2210 C   0  0  0  0  0  0  0  0  0  0  0  0
  -51.8050   -1.3804  -26.3843 C   0  0  0  0  0  0  0  0  0  0  0  0
  -51.2084   -2.5337  -26.5200 N   0  0  0  0  0  0  0  0  0  0  0  0
  -51.5966   -3.3736  -25.4643 N   0  0  0  0  0  0  0  0  0  0  0  0
  -52.4583   -2.6828  -24.6941 C   0  0  0  0  0  0  0  0  0  0  0  0
  -51.1574   -4.9731  -25.2337 S   0  0  0  0  0  0  0  0  0  0  0  0
  -52.3970   -5.6355  -24.9952 O   0  0  0  0  0  0  0  0  0  0  0  0
  -50.3340   -5.3020  -26.3547 O   0  0  0  0  0  0  0  0  0  0  0  0
  -50.1656   -4.9448  -23.7034 C   0  0  0  0  0  0  0  0  0  0  0  0
  -50.8930   -5.1852  -22.3777 C   0  0  0  0  0  0  0  0  0  0  0  0
  -49.9474   -6.2484  -22.9363 C   0  0  0  0  0  0  0  0  0  0  0  0
 32 33  2  0  0  0
 32 31  1  0  0  0
 33 34  1  0  0  0
 37 36  2  0  0  0
 28 27  2  0  0  0
 28 29  1  0  0  0
 31 29  1  0  0  0
 31 35  2  0  0  0
 34 36  1  0  0  0
 34 35  1  0  0  0
 27 26  1  0  0  0
 29 30  2  0  0  0
 36 39  1  0  0  0
 36 38  2  0  0  0
 39 40  1  0  0  0
 39 41  1  0  0  0
 26 25  2  0  0  0
 40 41  1  0  0  0
 30 25  1  0  0  0
 25 23  1  0  0  0
 23  6  1  0  0  0
  6  5  2  0  0  0
  6  9  1  0  0  0
  5  4  1  0  0  0
 22 20  1  0  0  0
 22 21  1  0  0  0
 22  8  1  0  0  0
  9  7  2  0  0  0
  4  8  1  0  0  0
  4  3  2  0  0  0
  8  1  1  0  0  0
  7  3  1  0  0  0
  3  2  1  0  0  0
  1  2  2  0  0  0
  2 10  1  0  0  0
 10 11  2  0  0  0
 10 12  1  0  0  0
 12 14  1  0  0  0
 14 19  1  0  0  0
 14 15  1  0  0  0
 19 18  1  0  0  0
 15 16  1  0  0  0
 16 17  1  0  0  0
 18 17  1  0  0  0
 23 24  1  0  0  0
 12 13  1  0  0  0
M  END
> <minimizedAffinity>
-8.85119

$$$$
5HCY_60D_A_1102


 41 46  0  0  0  0  0  0  0  0999 V2000
  -48.6626   -6.4960  -20.6234 C   0  0  0  0  0  0  0  0  0  0  0  0
  -48.0004   -6.1950  -19.4645 C   0  0  0  0  0  0  0  0  0  0  0  0
  -48.3304   -4.7845  -19.1643 C   0  0  0  0  0  0  0  0  0  0  0  0
  -49.1594   -4.3320  -20.2264 C   0  0  0  0  0  0  0  0  0  0  0  0
  -49.6047   -3.0005  -20.1974 C   0  0  0  0  0  0  0  0  0  0  0  0
  -49.2528   -2.1922  -19.1090 C   0  0  0  0  0  0  0  0  0  0  0  0
  -47.9849   -3.8927  -18.1452 C   0  0  0  0  0  0  0  0  0  0  0  0
  -49.3251   -5.3922  -21.0960 N   0  0  0  0  0  0  0  0  0  0  0  0
  -48.4431   -2.6496  -18.1535 N   0  0  0  0  0  0  0  0  0  0  0  0
  -47.1705   -7.0905  -18.6334 C   0  0  0  0  0  0  0  0  0  0  0  0
  -46.1225   -7.5487  -19.0735 O   0  0  0  0  0  0  0  0  0  0  0  0
  -47.5849   -7.4167  -17.3875 N   0  0  0  0  0  0  0  0  0  0  0  0
  -48.4495   -7.0734  -17.0650 H   0  0  0  0  0  0  0  0  0  0  0  0
  -46.7829   -8.2657  -16.5068 C   0  0  0  0  0  0  0  0  0  0  0  0
  -47.1153   -7.8126  -15.0687 C   0  0  0  0  0  0  0  0  0  0  0  0
  -46.4129   -8.7213  -14.0526 C   0  0  0  0  0  0  0  0  0  0  0  0
  -46.8462  -10.0653  -14.3083 O   0  0  0  0  0  0  0  0  0  0  0  0
  -46.5178  -10.5903  -15.6128 C   0  0  0  0  0  0  0  0  0  0  0  0
  -47.1618   -9.7374  -16.7210 C   0  0  0  0  0  0  0  0  0  0  0  0
  -51.6178   -5.1030  -21.9426 C   0  0  0  0  0  0  0  0  0  0  0  0
  -49.9739   -6.4828  -23.2820 C   0  0  0  0  0  0  0  0  0  0  0  0
  -50.1463   -5.3031  -22.3202 C   0  0  0  0  0  0  0  0  0  0  0  0
  -49.6561   -0.8533  -18.9799 N   0  0  0  0  0  0  0  0  0  0  0  0
  -48.9967   -0.2390  -18.5835 H   0  0  0  0  0  0  0  0  0  0  0  0
  -50.8693   -0.2924  -19.3426 C   0  0  0  0  0  0  0  0  0  0  0  0
  -51.6555    0.2994  -18.3422 C   0  0  0  0  0  0  0  0  0  0  0  0
  -52.8574    0.8894  -18.7205 C   0  0  0  0  0  0  0  0  0  0  0  0
  -53.2255    0.8607  -20.0022 N   0  0  0  0  0  0  0  0  0  0  0  0
  -52.4564    0.3083  -20.9435 C   0  0  0  0  0  0  0  0  0  0  0  0
  -51.2873   -0.2519  -20.6199 N   0  0  0  0  0  0  0  0  0  0  0  0
  -52.9263    0.2605  -22.3482 C   0  0  0  0  0  0  0  0  0  0  0  0
  -53.9091    1.0665  -22.9609 C   0  0  0  0  0  0  0  0  0  0  0  0
  -54.0478    0.6669  -24.1960 N   0  0  0  0  0  0  0  0  0  0  0  0
  -53.1739   -0.4072  -24.4274 N   0  0  0  0  0  0  0  0  0  0  0  0
  -52.5117   -0.6440  -23.2793 C   0  0  0  0  0  0  0  0  0  0  0  0
  -53.0295   -1.3054  -25.8334 S   0  0  0  0  0  0  0  0  0  0  0  0
  -54.3408   -1.2768  -26.3919 O   0  0  0  0  0  0  0  0  0  0  0  0
  -51.9080   -0.7479  -26.5219 O   0  0  0  0  0  0  0  0  0  0  0  0
  -52.6425   -2.9885  -25.2469 C   0  0  0  0  0  0  0  0  0  0  0  0
  -52.4306   -4.0795  -26.3001 C   0  0  0  0  0  0  0  0  0  0  0  0
  -51.2446   -3.5560  -25.4903 C   0  0  0  0  0  0  0  0  0  0  0  0
 32 33  2  0  0  0
 32 31  1  0  0  0
 33 34  1  0  0  0
 37 36  2  0  0  0
 28 27  2  0  0  0
 28 29  1  0  0  0
 31 29  1  0  0  0
 31 35  2  0  0  0
 34 36  1  0  0  0
 34 35  1  0  0  0
 27 26  1  0  0  0
 29 30  2  0  0  0
 36 39  1  0  0  0
 36 38  2  0  0  0
 39 40  1  0  0  0
 39 41  1  0  0  0
 26 25  2  0  0  0
 40 41  1  0  0  0
 30 25  1  0  0  0
 25 23  1  0  0  0
 23  6  1  0  0  0
  6  5  2  0  0  0
  6  9  1  0  0  0
  5  4  1  0  0  0
 22 20  1  0  0  0
 22 21  1  0  0  0
 22  8  1  0  0  0
  9  7  2  0  0  0
  4  8  1  0  0  0
  4  3  2  0  0  0
  8  1  1  0  0  0
  7  3  1  0  0  0
  3  2  1  0  0  0
  1  2  2  0  0  0
  2 10  1  0  0  0
 10 11  2  0  0  0
 10 12  1  0  0  0
 12 14  1  0  0  0
 14 19  1  0  0  0
 14 15  1  0  0  0
 19 18  1  0  0  0
 15 16  1  0  0  0
 16 17  1  0  0  0
 18 17  1  0  0  0
 23 24  1  0  0  0
 12 13  1  0  0  0
M  END
> <minimizedAffinity>
-8.80536

$$$$
5HCY_60D_A_1102


 41 46  0  0  0  0  0  0  0  0999 V2000
  -48.9090   -3.3934  -16.7580 C   0  0  0  0  0  0  0  0  0  0  0  0
  -48.9625   -3.7157  -18.0867 C   0  0  0  0  0  0  0  0  0  0  0  0
  -49.6947   -2.6100  -18.7423 C   0  0  0  0  0  0  0  0  0  0  0  0
  -50.0652   -1.7066  -17.7094 C   0  0  0  0  0  0  0  0  0  0  0  0
  -50.7991   -0.5625  -18.0623 C   0  0  0  0  0  0  0  0  0  0  0  0
  -51.0954   -0.3378  -19.4127 C   0  0  0  0  0  0  0  0  0  0  0  0
  -50.0794   -2.3331  -20.0570 C   0  0  0  0  0  0  0  0  0  0  0  0
  -49.5842   -2.2233  -16.5223 N   0  0  0  0  0  0  0  0  0  0  0  0
  -50.7582   -1.2317  -20.3429 N   0  0  0  0  0  0  0  0  0  0  0  0
  -48.3691   -4.8875  -18.7621 C   0  0  0  0  0  0  0  0  0  0  0  0
  -47.2074   -4.8551  -19.1511 O   0  0  0  0  0  0  0  0  0  0  0  0
  -49.1235   -5.9920  -18.9649 N   0  0  0  0  0  0  0  0  0  0  0  0
  -50.0669   -5.9861  -18.6836 H   0  0  0  0  0  0  0  0  0  0  0  0
  -48.5750   -7.1948  -19.5911 C   0  0  0  0  0  0  0  0  0  0  0  0
  -49.0225   -8.3740  -18.7006 C   0  0  0  0  0  0  0  0  0  0  0  0
  -48.5980   -9.7049  -19.3333 C   0  0  0  0  0  0  0  0  0  0  0  0
  -49.1849   -9.7640  -20.6414 O   0  0  0  0  0  0  0  0  0  0  0  0
  -48.7692   -8.7305  -21.5602 C   0  0  0  0  0  0  0  0  0  0  0  0
  -49.1326   -7.3377  -21.0139 C   0  0  0  0  0  0  0  0  0  0  0  0
  -48.4016   -1.3543  -14.5467 C   0  0  0  0  0  0  0  0  0  0  0  0
  -50.7591   -2.2337  -14.2844 C   0  0  0  0  0  0  0  0  0  0  0  0
  -49.7633   -1.5450  -15.2227 C   0  0  0  0  0  0  0  0  0  0  0  0
  -51.8124    0.7798  -19.8699 N   0  0  0  0  0  0  0  0  0  0  0  0
  -51.6568    1.6219  -19.3843 H   0  0  0  0  0  0  0  0  0  0  0  0
  -52.7118    0.8405  -20.9212 C   0  0  0  0  0  0  0  0  0  0  0  0
  -53.8494    1.6497  -20.7789 C   0  0  0  0  0  0  0  0  0  0  0  0
  -54.7309    1.7307  -21.8523 C   0  0  0  0  0  0  0  0  0  0  0  0
  -54.4772    1.0344  -22.9613 N   0  0  0  0  0  0  0  0  0  0  0  0
  -53.3806    0.2831  -23.0856 C   0  0  0  0  0  0  0  0  0  0  0  0
  -52.5026    0.1955  -22.0821 N   0  0  0  0  0  0  0  0  0  0  0  0
  -53.1622   -0.5080  -24.3195 C   0  0  0  0  0  0  0  0  0  0  0  0
  -53.9203   -0.4845  -25.5093 C   0  0  0  0  0  0  0  0  0  0  0  0
  -53.4133   -1.3644  -26.3298 N   0  0  0  0  0  0  0  0  0  0  0  0
  -52.3220   -1.9908  -25.7073 N   0  0  0  0  0  0  0  0  0  0  0  0
  -52.1995   -1.4598  -24.4761 C   0  0  0  0  0  0  0  0  0  0  0  0
  -51.3874   -3.2362  -26.3238 S   0  0  0  0  0  0  0  0  0  0  0  0
  -52.1048   -3.6596  -27.4806 O   0  0  0  0  0  0  0  0  0  0  0  0
  -50.0643   -2.7037  -26.4142 O   0  0  0  0  0  0  0  0  0  0  0  0
  -51.4660   -4.5280  -25.0387 C   0  0  0  0  0  0  0  0  0  0  0  0
  -50.4217   -5.6467  -25.0874 C   0  0  0  0  0  0  0  0  0  0  0  0
  -50.3634   -4.5921  -23.9825 C   0  0  0  0  0  0  0  0  0  0  0  0
 32 33  2  0  0  0
 32 31  1  0  0  0
 33 34  1  0  0  0
 37 36  2  0  0  0
 28 27  2  0  0  0
 28 29  1  0  0  0
 31 29  1  0  0  0
 31 35  2  0  0  0
 34 36  1  0  0  0
 34 35  1  0  0  0
 27 26  1  0  0  0
 29 30  2  0  0  0
 36 39  1  0  0  0
 36 38  2  0  0  0
 39 40  1  0  0  0
 39 41  1  0  0  0
 26 25  2  0  0  0
 40 41  1  0  0  0
 30 25  1  0  0  0
 25 23  1  0  0  0
 23  6  1  0  0  0
  6  5  2  0  0  0
  6  9  1  0  0  0
  5  4  1  0  0  0
 22 20  1  0  0  0
 22 21  1  0  0  0
 22  8  1  0  0  0
  9  7  2  0  0  0
  4  8  1  0  0  0
  4  3  2  0  0  0
  8  1  1  0  0  0
  7  3  1  0  0  0
  3  2  1  0  0  0
  1  2  2  0  0  0
  2 10  1  0  0  0
 10 11  2  0  0  0
 10 12  1  0  0  0
 12 14  1  0  0  0
 14 19  1  0  0  0
 14 15  1  0  0  0
 19 18  1  0  0  0
 15 16  1  0  0  0
 16 17  1  0  0  0
 18 17  1  0  0  0
 23 24  1  0  0  0
 12 13  1  0  0  0
M  END
> <minimizedAffinity>
-8.77689

$$$$
5HCY_60D_A_1102


 41 46  0  0  0  0  0  0  0  0999 V2000
  -51.7306   -4.7071  -25.5993 C   0  0  0  0  0  0  0  0  0  0  0  0
  -50.9682   -5.2985  -24.6291 C   0  0  0  0  0  0  0  0  0  0  0  0
  -50.6878   -4.2406  -23.6337 C   0  0  0  0  0  0  0  0  0  0  0  0
  -51.2938   -3.0539  -24.1285 C   0  0  0  0  0  0  0  0  0  0  0  0
  -51.1592   -1.8775  -23.3735 C   0  0  0  0  0  0  0  0  0  0  0  0
  -50.4764   -1.9313  -22.1517 C   0  0  0  0  0  0  0  0  0  0  0  0
  -49.9792   -4.1904  -22.4302 C   0  0  0  0  0  0  0  0  0  0  0  0
  -51.9020   -3.3742  -25.3264 N   0  0  0  0  0  0  0  0  0  0  0  0
  -49.8934   -3.0594  -21.7453 N   0  0  0  0  0  0  0  0  0  0  0  0
  -50.5483   -6.7116  -24.5389 C   0  0  0  0  0  0  0  0  0  0  0  0
  -50.8078   -7.3718  -23.5395 O   0  0  0  0  0  0  0  0  0  0  0  0
  -49.8583   -7.2679  -25.5611 N   0  0  0  0  0  0  0  0  0  0  0  0
  -49.6220   -6.7117  -26.3383 H   0  0  0  0  0  0  0  0  0  0  0  0
  -49.4539   -8.6735  -25.5423 C   0  0  0  0  0  0  0  0  0  0  0  0
  -49.4006   -9.1156  -27.0206 C   0  0  0  0  0  0  0  0  0  0  0  0
  -48.8698  -10.5506  -27.1243 C   0  0  0  0  0  0  0  0  0  0  0  0
  -47.5744  -10.5740  -26.5074 O   0  0  0  0  0  0  0  0  0  0  0  0
  -47.5441  -10.2337  -25.1044 C   0  0  0  0  0  0  0  0  0  0  0  0
  -48.0765   -8.8069  -24.8785 C   0  0  0  0  0  0  0  0  0  0  0  0
  -53.2336   -3.0732  -27.3741 C   0  0  0  0  0  0  0  0  0  0  0  0
  -51.8520   -1.1396  -26.5067 C   0  0  0  0  0  0  0  0  0  0  0  0
  -52.6533   -2.3900  -26.1314 C   0  0  0  0  0  0  0  0  0  0  0  0
  -50.2973   -0.8155  -21.3180 N   0  0  0  0  0  0  0  0  0  0  0  0
  -49.3697   -0.5070  -21.2012 H   0  0  0  0  0  0  0  0  0  0  0  0
  -51.2677   -0.0967  -20.6402 C   0  0  0  0  0  0  0  0  0  0  0  0
  -52.2588    0.5557  -21.3896 C   0  0  0  0  0  0  0  0  0  0  0  0
  -53.2486    1.2483  -20.6994 C   0  0  0  0  0  0  0  0  0  0  0  0
  -53.2156    1.2817  -19.3665 N   0  0  0  0  0  0  0  0  0  0  0  0
  -52.2747    0.6405  -18.6691 C   0  0  0  0  0  0  0  0  0  0  0  0
  -51.3185   -0.0496  -19.2975 N   0  0  0  0  0  0  0  0  0  0  0  0
  -52.2519    0.7419  -17.1908 C   0  0  0  0  0  0  0  0  0  0  0  0
  -52.5442    1.8700  -16.3952 C   0  0  0  0  0  0  0  0  0  0  0  0
  -52.3620    1.5415  -15.1448 N   0  0  0  0  0  0  0  0  0  0  0  0
  -51.9424    0.2033  -15.0826 N   0  0  0  0  0  0  0  0  0  0  0  0
  -51.8696   -0.2566  -16.3459 C   0  0  0  0  0  0  0  0  0  0  0  0
  -51.5148   -0.6572  -13.7110 S   0  0  0  0  0  0  0  0  0  0  0  0
  -50.4149    0.0765  -13.1780 O   0  0  0  0  0  0  0  0  0  0  0  0
  -52.7305   -0.8252  -12.9787 O   0  0  0  0  0  0  0  0  0  0  0  0
  -50.9348   -2.2614  -14.3565 C   0  0  0  0  0  0  0  0  0  0  0  0
  -51.0346   -3.4793  -13.4339 C   0  0  0  0  0  0  0  0  0  0  0  0
  -51.9584   -3.3587  -14.6458 C   0  0  0  0  0  0  0  0  0  0  0  0
 32 33  2  0  0  0
 32 31  1  0  0  0
 33 34  1  0  0  0
 37 36  2  0  0  0
 28 27  2  0  0  0
 28 29  1  0  0  0
 31 29  1  0  0  0
 31 35  2  0  0  0
 34 36  1  0  0  0
 34 35  1  0  0  0
 27 26  1  0  0  0
 29 30  2  0  0  0
 36 39  1  0  0  0
 36 38  2  0  0  0
 39 40  1  0  0  0
 39 41  1  0  0  0
 26 25  2  0  0  0
 40 41  1  0  0  0
 30 25  1  0  0  0
 25 23  1  0  0  0
 23  6  1  0  0  0
  6  5  2  0  0  0
  6  9  1  0  0  0
  5  4  1  0  0  0
 22 20  1  0  0  0
 22 21  1  0  0  0
 22  8  1  0  0  0
  9  7  2  0  0  0
  4  8  1  0  0  0
  4  3  2  0  0  0
  8  1  1  0  0  0
  7  3  1  0  0  0
  3  2  1  0  0  0
  1  2  2  0  0  0
  2 10  1  0  0  0
 10 11  2  0  0  0
 10 12  1  0  0  0
 12 14  1  0  0  0
 14 19  1  0  0  0
 14 15  1  0  0  0
 19 18  1  0  0  0
 15 16  1  0  0  0
 16 17  1  0  0  0
 18 17  1  0  0  0
 23 24  1  0  0  0
 12 13  1  0  0  0
M  END
> <minimizedAffinity>
-8.69091

$$$$
5HCY_60D_A_1102


 41 46  0  0  0  0  0  0  0  0999 V2000
  -47.7708   -6.5307  -18.3979 C   0  0  0  0  0  0  0  0  0  0  0  0
  -48.5979   -6.3993  -19.4800 C   0  0  0  0  0  0  0  0  0  0  0  0
  -49.0361   -4.9863  -19.4854 C   0  0  0  0  0  0  0  0  0  0  0  0
  -48.4455   -4.3791  -18.3440 C   0  0  0  0  0  0  0  0  0  0  0  0
  -48.7202   -3.0240  -18.0984 C   0  0  0  0  0  0  0  0  0  0  0  0
  -49.5229   -2.3205  -19.0054 C   0  0  0  0  0  0  0  0  0  0  0  0
  -49.8680   -4.2215  -20.3076 C   0  0  0  0  0  0  0  0  0  0  0  0
  -47.6996   -5.3497  -17.7044 N   0  0  0  0  0  0  0  0  0  0  0  0
  -50.0846   -2.9414  -20.0432 N   0  0  0  0  0  0  0  0  0  0  0  0
  -48.9495   -7.4234  -20.4844 C   0  0  0  0  0  0  0  0  0  0  0  0
  -49.6750   -8.3637  -20.1820 O   0  0  0  0  0  0  0  0  0  0  0  0
  -48.4496   -7.3261  -21.7378 N   0  0  0  0  0  0  0  0  0  0  0  0
  -47.8350   -6.5875  -21.9525 H   0  0  0  0  0  0  0  0  0  0  0  0
  -48.7978   -8.2888  -22.7826 C   0  0  0  0  0  0  0  0  0  0  0  0
  -49.4807   -7.4695  -23.8988 C   0  0  0  0  0  0  0  0  0  0  0  0
  -49.7840   -8.3680  -25.1039 C   0  0  0  0  0  0  0  0  0  0  0  0
  -48.5403   -8.9379  -25.5373 O   0  0  0  0  0  0  0  0  0  0  0  0
  -47.8654   -9.7730  -24.5718 C   0  0  0  0  0  0  0  0  0  0  0  0
  -47.5252   -8.9716  -23.3020 C   0  0  0  0  0  0  0  0  0  0  0  0
  -45.5869   -4.4257  -16.8444 C   0  0  0  0  0  0  0  0  0  0  0  0
  -46.7111   -6.3104  -15.5857 C   0  0  0  0  0  0  0  0  0  0  0  0
  -46.9215   -5.0830  -16.4778 C   0  0  0  0  0  0  0  0  0  0  0  0
  -49.8467   -0.9621  -18.8569 N   0  0  0  0  0  0  0  0  0  0  0  0
  -49.1736   -0.4037  -18.4049 H   0  0  0  0  0  0  0  0  0  0  0  0
  -50.9984   -0.3131  -19.2694 C   0  0  0  0  0  0  0  0  0  0  0  0
  -51.7452    0.3914  -18.3128 C   0  0  0  0  0  0  0  0  0  0  0  0
  -52.8829    1.0678  -18.7419 C   0  0  0  0  0  0  0  0  0  0  0  0
  -53.2303    1.0131  -20.0284 N   0  0  0  0  0  0  0  0  0  0  0  0
  -52.4981    0.3521  -20.9282 C   0  0  0  0  0  0  0  0  0  0  0  0
  -51.3895   -0.2942  -20.5557 N   0  0  0  0  0  0  0  0  0  0  0  0
  -52.9465    0.2818  -22.3389 C   0  0  0  0  0  0  0  0  0  0  0  0
  -53.8991    1.0965  -22.9868 C   0  0  0  0  0  0  0  0  0  0  0  0
  -54.0280    0.6706  -24.2141 N   0  0  0  0  0  0  0  0  0  0  0  0
  -53.1775   -0.4298  -24.4055 N   0  0  0  0  0  0  0  0  0  0  0  0
  -52.5397   -0.6549  -23.2412 C   0  0  0  0  0  0  0  0  0  0  0  0
  -53.0331   -1.3651  -25.7871 S   0  0  0  0  0  0  0  0  0  0  0  0
  -54.3356   -1.3225  -26.3647 O   0  0  0  0  0  0  0  0  0  0  0  0
  -51.8905   -0.8484  -26.4728 O   0  0  0  0  0  0  0  0  0  0  0  0
  -52.6903   -3.0411  -25.1545 C   0  0  0  0  0  0  0  0  0  0  0  0
  -52.4036   -4.1443  -26.1769 C   0  0  0  0  0  0  0  0  0  0  0  0
  -51.2788   -3.6110  -25.2897 C   0  0  0  0  0  0  0  0  0  0  0  0
 32 33  2  0  0  0
 32 31  1  0  0  0
 33 34  1  0  0  0
 37 36  2  0  0  0
 28 27  2  0  0  0
 28 29  1  0  0  0
 31 29  1  0  0  0
 31 35  2  0  0  0
 34 36  1  0  0  0
 34 35  1  0  0  0
 27 26  1  0  0  0
 29 30  2  0  0  0
 36 39  1  0  0  0
 36 38  2  0  0  0
 39 40  1  0  0  0
 39 41  1  0  0  0
 26 25  2  0  0  0
 40 41  1  0  0  0
 30 25  1  0  0  0
 25 23  1  0  0  0
 23  6  1  0  0  0
  6  5  2  0  0  0
  6  9  1  0  0  0
  5  4  1  0  0  0
 22 20  1  0  0  0
 22 21  1  0  0  0
 22  8  1  0  0  0
  9  7  2  0  0  0
  4  8  1  0  0  0
  4  3  2  0  0  0
  8  1  1  0  0  0
  7  3  1  0  0  0
  3  2  1  0  0  0
  1  2  2  0  0  0
  2 10  1  0  0  0
 10 11  2  0  0  0
 10 12  1  0  0  0
 12 14  1  0  0  0
 14 19  1  0  0  0
 14 15  1  0  0  0
 19 18  1  0  0  0
 15 16  1  0  0  0
 16 17  1  0  0  0
 18 17  1  0  0  0
 23 24  1  0  0  0
 12 13  1  0  0  0
M  END
> <minimizedAffinity>
-8.68708

$$$$
5HCY_60D_A_1102


 41 46  0  0  0  0  0  0  0  0999 V2000
  -49.5609   -7.4182  -22.0932 C   0  0  0  0  0  0  0  0  0  0  0  0
  -49.8022   -6.1285  -22.4813 C   0  0  0  0  0  0  0  0  0  0  0  0
  -49.4509   -5.2835  -21.3189 C   0  0  0  0  0  0  0  0  0  0  0  0
  -49.0524   -6.1719  -20.2835 C   0  0  0  0  0  0  0  0  0  0  0  0
  -48.6814   -5.6219  -19.0457 C   0  0  0  0  0  0  0  0  0  0  0  0
  -48.6771   -4.2291  -18.8975 C   0  0  0  0  0  0  0  0  0  0  0  0
  -49.4676   -3.9092  -21.0657 C   0  0  0  0  0  0  0  0  0  0  0  0
  -49.1465   -7.4547  -20.7865 N   0  0  0  0  0  0  0  0  0  0  0  0
  -49.0935   -3.4367  -19.8858 N   0  0  0  0  0  0  0  0  0  0  0  0
  -50.2610   -5.6473  -23.8001 C   0  0  0  0  0  0  0  0  0  0  0  0
  -50.2731   -6.4030  -24.7649 O   0  0  0  0  0  0  0  0  0  0  0  0
  -50.6511   -4.3594  -23.9403 N   0  0  0  0  0  0  0  0  0  0  0  0
  -50.5957   -3.7550  -23.1651 H   0  0  0  0  0  0  0  0  0  0  0  0
  -51.1531   -3.8410  -25.2127 C   0  0  0  0  0  0  0  0  0  0  0  0
  -52.6863   -4.0152  -25.1623 C   0  0  0  0  0  0  0  0  0  0  0  0
  -53.3302   -3.3924  -26.4070 C   0  0  0  0  0  0  0  0  0  0  0  0
  -52.9454   -2.0103  -26.4423 O   0  0  0  0  0  0  0  0  0  0  0  0
  -51.5278   -1.7589  -26.5535 C   0  0  0  0  0  0  0  0  0  0  0  0
  -50.7723   -2.3610  -25.3548 C   0  0  0  0  0  0  0  0  0  0  0  0
  -48.3930   -9.7926  -20.9384 C   0  0  0  0  0  0  0  0  0  0  0  0
  -49.8797   -9.0992  -19.0125 C   0  0  0  0  0  0  0  0  0  0  0  0
  -48.7947   -8.6523  -19.9971 C   0  0  0  0  0  0  0  0  0  0  0  0
  -48.3119   -3.5809  -17.7064 N   0  0  0  0  0  0  0  0  0  0  0  0
  -47.4637   -3.8701  -17.2989 H   0  0  0  0  0  0  0  0  0  0  0  0
  -49.0007   -2.5841  -17.0358 C   0  0  0  0  0  0  0  0  0  0  0  0
  -48.7490   -2.4054  -15.6669 C   0  0  0  0  0  0  0  0  0  0  0  0
  -49.4209   -1.3805  -15.0082 C   0  0  0  0  0  0  0  0  0  0  0  0
  -50.2820   -0.6208  -15.6867 N   0  0  0  0  0  0  0  0  0  0  0  0
  -50.4962   -0.7940  -16.9931 C   0  0  0  0  0  0  0  0  0  0  0  0
  -49.8554   -1.7567  -17.6625 N   0  0  0  0  0  0  0  0  0  0  0  0
  -51.4949    0.0452  -17.6964 C   0  0  0  0  0  0  0  0  0  0  0  0
  -52.1229    1.2192  -17.2293 C   0  0  0  0  0  0  0  0  0  0  0  0
  -52.9647    1.6190  -18.1435 N   0  0  0  0  0  0  0  0  0  0  0  0
  -52.9204    0.7249  -19.2249 N   0  0  0  0  0  0  0  0  0  0  0  0
  -52.0258   -0.2341  -18.9200 C   0  0  0  0  0  0  0  0  0  0  0  0
  -53.8626    0.7677  -20.6087 S   0  0  0  0  0  0  0  0  0  0  0  0
  -54.6727   -0.4007  -20.5052 O   0  0  0  0  0  0  0  0  0  0  0  0
  -54.4339    2.0775  -20.6339 O   0  0  0  0  0  0  0  0  0  0  0  0
  -52.6630    0.5715  -21.9685 C   0  0  0  0  0  0  0  0  0  0  0  0
  -52.4587   -0.8334  -22.5419 C   0  0  0  0  0  0  0  0  0  0  0  0
  -53.1763    0.2341  -23.3678 C   0  0  0  0  0  0  0  0  0  0  0  0
 32 33  2  0  0  0
 32 31  1  0  0  0
 33 34  1  0  0  0
 37 36  2  0  0  0
 28 27  2  0  0  0
 28 29  1  0  0  0
 31 29  1  0  0  0
 31 35  2  0  0  0
 34 36  1  0  0  0
 34 35  1  0  0  0
 27 26  1  0  0  0
 29 30  2  0  0  0
 36 39  1  0  0  0
 36 38  2  0  0  0
 39 40  1  0  0  0
 39 41  1  0  0  0
 26 25  2  0  0  0
 40 41  1  0  0  0
 30 25  1  0  0  0
 25 23  1  0  0  0
 23  6  1  0  0  0
  6  5  2  0  0  0
  6  9  1  0  0  0
  5  4  1  0  0  0
 22 20  1  0  0  0
 22 21  1  0  0  0
 22  8  1  0  0  0
  9  7  2  0  0  0
  4  8  1  0  0  0
  4  3  2  0  0  0
  8  1  1  0  0  0
  7  3  1  0  0  0
  3  2  1  0  0  0
  1  2  2  0  0  0
  2 10  1  0  0  0
 10 11  2  0  0  0
 10 12  1  0  0  0
 12 14  1  0  0  0
 14 19  1  0  0  0
 14 15  1  0  0  0
 19 18  1  0  0  0
 15 16  1  0  0  0
 16 17  1  0  0  0
 18 17  1  0  0  0
 23 24  1  0  0  0
 12 13  1  0  0  0
M  END
> <minimizedAffinity>
-8.59288

$$$$
5HCY_60D_A_1102


 41 46  0  0  0  0  0  0  0  0999 V2000
  -50.2436   -1.3443  -18.1810 C   0  0  0  0  0  0  0  0  0  0  0  0
  -50.9286   -0.3910  -17.4780 C   0  0  0  0  0  0  0  0  0  0  0  0
  -51.8192    0.2715  -18.4560 C   0  0  0  0  0  0  0  0  0  0  0  0
  -51.5550   -0.3353  -19.7139 C   0  0  0  0  0  0  0  0  0  0  0  0
  -52.2623    0.1293  -20.8346 C   0  0  0  0  0  0  0  0  0  0  0  0
  -53.2234    1.1332  -20.6605 C   0  0  0  0  0  0  0  0  0  0  0  0
  -52.7576    1.3046  -18.3841 C   0  0  0  0  0  0  0  0  0  0  0  0
  -50.5858   -1.2976  -19.5082 N   0  0  0  0  0  0  0  0  0  0  0  0
  -53.4115    1.6977  -19.4673 N   0  0  0  0  0  0  0  0  0  0  0  0
  -50.8570   -0.1023  -16.0313 C   0  0  0  0  0  0  0  0  0  0  0  0
  -51.7523   -0.4733  -15.2811 O   0  0  0  0  0  0  0  0  0  0  0  0
  -49.8036    0.5914  -15.5419 N   0  0  0  0  0  0  0  0  0  0  0  0
  -49.1142    0.9179  -16.1643 H   0  0  0  0  0  0  0  0  0  0  0  0
  -49.6616    0.8692  -14.1128 C   0  0  0  0  0  0  0  0  0  0  0  0
  -48.5354   -0.0614  -13.6133 C   0  0  0  0  0  0  0  0  0  0  0  0
  -48.2209    0.2324  -12.1415 C   0  0  0  0  0  0  0  0  0  0  0  0
  -47.8566    1.6173  -12.0492 O   0  0  0  0  0  0  0  0  0  0  0  0
  -48.8791    2.5598  -12.4386 C   0  0  0  0  0  0  0  0  0  0  0  0
  -49.2883    2.3436  -13.9069 C   0  0  0  0  0  0  0  0  0  0  0  0
  -49.2871   -3.3307  -19.9944 C   0  0  0  0  0  0  0  0  0  0  0  0
  -49.2278   -1.4078  -21.6372 C   0  0  0  0  0  0  0  0  0  0  0  0
  -50.0642   -2.1535  -20.5928 C   0  0  0  0  0  0  0  0  0  0  0  0
  -53.9913    1.6573  -21.7130 N   0  0  0  0  0  0  0  0  0  0  0  0
  -54.4147    2.5304  -21.5467 H   0  0  0  0  0  0  0  0  0  0  0  0
  -54.2249    1.0945  -22.9566 C   0  0  0  0  0  0  0  0  0  0  0  0
  -55.3683    1.4947  -23.6649 C   0  0  0  0  0  0  0  0  0  0  0  0
  -55.5780    0.9489  -24.9274 C   0  0  0  0  0  0  0  0  0  0  0  0
  -54.7052    0.0638  -25.4109 N   0  0  0  0  0  0  0  0  0  0  0  0
  -53.6132   -0.2923  -24.7301 C   0  0  0  0  0  0  0  0  0  0  0  0
  -53.3698    0.2247  -23.5222 N   0  0  0  0  0  0  0  0  0  0  0  0
  -52.6941   -1.3124  -25.2877 C   0  0  0  0  0  0  0  0  0  0  0  0
  -51.8619   -1.2013  -26.4217 C   0  0  0  0  0  0  0  0  0  0  0  0
  -51.2498   -2.3424  -26.5879 N   0  0  0  0  0  0  0  0  0  0  0  0
  -51.6626   -3.2306  -25.5821 N   0  0  0  0  0  0  0  0  0  0  0  0
  -52.5549   -2.5813  -24.8107 C   0  0  0  0  0  0  0  0  0  0  0  0
  -51.2149   -4.8348  -25.4068 S   0  0  0  0  0  0  0  0  0  0  0  0
  -52.4532   -5.5149  -25.2164 O   0  0  0  0  0  0  0  0  0  0  0  0
  -50.3696   -5.1133  -26.5250 O   0  0  0  0  0  0  0  0  0  0  0  0
  -50.2500   -4.8596  -23.8592 C   0  0  0  0  0  0  0  0  0  0  0  0
  -50.9881   -5.2103  -22.5643 C   0  0  0  0  0  0  0  0  0  0  0  0
  -49.9898   -6.1977  -23.1684 C   0  0  0  0  0  0  0  0  0  0  0  0
 32 33  2  0  0  0
 32 31  1  0  0  0
 33 34  1  0  0  0
 37 36  2  0  0  0
 28 27  2  0  0  0
 28 29  1  0  0  0
 31 29  1  0  0  0
 31 35  2  0  0  0
 34 36  1  0  0  0
 34 35  1  0  0  0
 27 26  1  0  0  0
 29 30  2  0  0  0
 36 39  1  0  0  0
 36 38  2  0  0  0
 39 40  1  0  0  0
 39 41  1  0  0  0
 26 25  2  0  0  0
 40 41  1  0  0  0
 30 25  1  0  0  0
 25 23  1  0  0  0
 23  6  1  0  0  0
  6  5  2  0  0  0
  6  9  1  0  0  0
  5  4  1  0  0  0
 22 20  1  0  0  0
 22 21  1  0  0  0
 22  8  1  0  0  0
  9  7  2  0  0  0
  4  8  1  0  0  0
  4  3  2  0  0  0
  8  1  1  0  0  0
  7  3  1  0  0  0
  3  2  1  0  0  0
  1  2  2  0  0  0
  2 10  1  0  0  0
 10 11  2  0  0  0
 10 12  1  0  0  0
 12 14  1  0  0  0
 14 19  1  0  0  0
 14 15  1  0  0  0
 19 18  1  0  0  0
 15 16  1  0  0  0
 16 17  1  0  0  0
 18 17  1  0  0  0
 23 24  1  0  0  0
 12 13  1  0  0  0
M  END
> <minimizedAffinity>
-8.54085

$$$$
5HCY_60D_A_1102


 41 46  0  0  0  0  0  0  0  0999 V2000
  -53.0331   -1.1630  -12.4596 C   0  0  0  0  0  0  0  0  0  0  0  0
  -53.0550    0.1961  -12.6160 C   0  0  0  0  0  0  0  0  0  0  0  0
  -52.5530    0.4544  -13.9834 C   0  0  0  0  0  0  0  0  0  0  0  0
  -52.2242   -0.8133  -14.5357 C   0  0  0  0  0  0  0  0  0  0  0  0
  -51.6985   -0.8520  -15.8374 C   0  0  0  0  0  0  0  0  0  0  0  0
  -51.5621    0.3469  -16.5487 C   0  0  0  0  0  0  0  0  0  0  0  0
  -52.3338    1.6049  -14.7459 C   0  0  0  0  0  0  0  0  0  0  0  0
  -52.5153   -1.7647  -13.5778 N   0  0  0  0  0  0  0  0  0  0  0  0
  -51.8501    1.5161  -15.9762 N   0  0  0  0  0  0  0  0  0  0  0  0
  -53.5321    1.2135  -11.6575 C   0  0  0  0  0  0  0  0  0  0  0  0
  -52.7426    1.9955  -11.1407 O   0  0  0  0  0  0  0  0  0  0  0  0
  -54.8461    1.2644  -11.3394 N   0  0  0  0  0  0  0  0  0  0  0  0
  -55.4600    0.6022  -11.7317 H   0  0  0  0  0  0  0  0  0  0  0  0
  -55.3792    2.2771  -10.4284 C   0  0  0  0  0  0  0  0  0  0  0  0
  -56.4124    3.0790  -11.2488 C   0  0  0  0  0  0  0  0  0  0  0  0
  -57.1231    4.0992  -10.3513 C   0  0  0  0  0  0  0  0  0  0  0  0
  -57.7355    3.3714   -9.2768 O   0  0  0  0  0  0  0  0  0  0  0  0
  -56.8302    2.6426   -8.4198 C   0  0  0  0  0  0  0  0  0  0  0  0
  -56.0435    1.5929   -9.2258 C   0  0  0  0  0  0  0  0  0  0  0  0
  -53.3609   -4.0037  -13.0045 C   0  0  0  0  0  0  0  0  0  0  0  0
  -50.8990   -3.7066  -13.5054 C   0  0  0  0  0  0  0  0  0  0  0  0
  -52.3183   -3.2114  -13.8000 C   0  0  0  0  0  0  0  0  0  0  0  0
  -51.0587    0.4144  -17.8579 N   0  0  0  0  0  0  0  0  0  0  0  0
  -50.0884    0.5583  -17.9415 H   0  0  0  0  0  0  0  0  0  0  0  0
  -51.7621    0.3031  -19.0456 C   0  0  0  0  0  0  0  0  0  0  0  0
  -52.9664    1.0116  -19.1758 C   0  0  0  0  0  0  0  0  0  0  0  0
  -53.6499    0.9202  -20.3842 C   0  0  0  0  0  0  0  0  0  0  0  0
  -53.1528    0.1605  -21.3612 N   0  0  0  0  0  0  0  0  0  0  0  0
  -51.9964   -0.4930  -21.2260 C   0  0  0  0  0  0  0  0  0  0  0  0
  -51.3035   -0.4143  -20.0862 N   0  0  0  0  0  0  0  0  0  0  0  0
  -51.5046   -1.3605  -22.3223 C   0  0  0  0  0  0  0  0  0  0  0  0
  -50.3728   -2.2030  -22.3190 C   0  0  0  0  0  0  0  0  0  0  0  0
  -50.2762   -2.7556  -23.4979 N   0  0  0  0  0  0  0  0  0  0  0  0
  -51.3273   -2.2921  -24.3050 N   0  0  0  0  0  0  0  0  0  0  0  0
  -52.0536   -1.4310  -23.5676 C   0  0  0  0  0  0  0  0  0  0  0  0
  -51.5965   -2.6548  -25.9176 S   0  0  0  0  0  0  0  0  0  0  0  0
  -52.4357   -1.5946  -26.3694 O   0  0  0  0  0  0  0  0  0  0  0  0
  -50.2990   -2.8746  -26.4749 O   0  0  0  0  0  0  0  0  0  0  0  0
  -52.5403   -4.2147  -25.8700 C   0  0  0  0  0  0  0  0  0  0  0  0
  -51.8699   -5.4345  -25.2320 C   0  0  0  0  0  0  0  0  0  0  0  0
  -53.0342   -4.7424  -24.5236 C   0  0  0  0  0  0  0  0  0  0  0  0
 32 33  2  0  0  0
 32 31  1  0  0  0
 33 34  1  0  0  0
 37 36  2  0  0  0
 28 27  2  0  0  0
 28 29  1  0  0  0
 31 29  1  0  0  0
 31 35  2  0  0  0
 34 36  1  0  0  0
 34 35  1  0  0  0
 27 26  1  0  0  0
 29 30  2  0  0  0
 36 39  1  0  0  0
 36 38  2  0  0  0
 39 40  1  0  0  0
 39 41  1  0  0  0
 26 25  2  0  0  0
 40 41  1  0  0  0
 30 25  1  0  0  0
 25 23  1  0  0  0
 23  6  1  0  0  0
  6  5  2  0  0  0
  6  9  1  0  0  0
  5  4  1  0  0  0
 22 20  1  0  0  0
 22 21  1  0  0  0
 22  8  1  0  0  0
  9  7  2  0  0  0
  4  8  1  0  0  0
  4  3  2  0  0  0
  8  1  1  0  0  0
  7  3  1  0  0  0
  3  2  1  0  0  0
  1  2  2  0  0  0
  2 10  1  0  0  0
 10 11  2  0  0  0
 10 12  1  0  0  0
 12 14  1  0  0  0
 14 19  1  0  0  0
 14 15  1  0  0  0
 19 18  1  0  0  0
 15 16  1  0  0  0
 16 17  1  0  0  0
 18 17  1  0  0  0
 23 24  1  0  0  0
 12 13  1  0  0  0
M  END
> <minimizedAffinity>
-8.51952

$$$$
