5OH9_9UT_A_202


  9  9  0  0  0  0  0  0  0  0999 V2000
   25.9548   17.2140   -8.8952 O   0  0  0  0  0  0  0  0  0  0  0  0
   24.9234   17.4881   -8.2773 C   0  0  0  0  0  0  0  0  0  0  0  0
   23.8137   16.7717   -8.4821 N   0  0  0  0  0  0  0  0  0  0  0  0
   24.7822   18.7665   -7.1857 S   0  0  0  0  0  0  0  0  0  0  0  0
   23.0582   18.3639   -6.8289 C   0  0  0  0  0  0  0  0  0  0  0  0
   22.7741   17.1298   -7.7072 C   0  0  0  0  0  0  0  0  0  0  0  0
   21.7381   16.4703   -7.6820 O   0  0  0  0  0  0  0  0  0  0  0  0
   23.7617   16.0442   -9.1434 H   0  0  0  0  0  0  0  0  0  0  0  0
   24.9488   19.9899   -7.7558 H   0  0  0  0  0  0  0  0  0  0  0  0
  1  2  2  0  0  0
  3  2  1  0  0  0
  3  6  1  0  0  0
  2  4  1  0  0  0
  6  7  2  0  0  0
  6  5  1  0  0  0
  4  5  2  0  0  0
  3  8  1  0  0  0
  4  9  1  0  0  0
M  END
> <minimizedAffinity>
-4.54011

$$$$
5OH9_9UT_A_202


  9  9  0  0  0  0  0  0  0  0999 V2000
   24.9951   20.5296   -6.7683 O   0  0  0  0  0  0  0  0  0  0  0  0
   24.8660   19.4436   -7.3381 C   0  0  0  0  0  0  0  0  0  0  0  0
   23.7429   18.7367   -7.1783 N   0  0  0  0  0  0  0  0  0  0  0  0
   26.0513   18.7321   -8.3048 S   0  0  0  0  0  0  0  0  0  0  0  0
   25.0028   17.3061   -8.6633 C   0  0  0  0  0  0  0  0  0  0  0  0
   23.6986   17.6002   -7.8966 C   0  0  0  0  0  0  0  0  0  0  0  0
   22.6750   16.9244   -7.9620 O   0  0  0  0  0  0  0  0  0  0  0  0
   23.0109   19.0233   -6.5856 H   0  0  0  0  0  0  0  0  0  0  0  0
   27.1879   18.4157   -7.6282 H   0  0  0  0  0  0  0  0  0  0  0  0
  1  2  2  0  0  0
  3  2  1  0  0  0
  3  6  1  0  0  0
  2  4  1  0  0  0
  6  7  2  0  0  0
  6  5  1  0  0  0
  4  5  2  0  0  0
  3  8  1  0  0  0
  4  9  1  0  0  0
M  END
> <minimizedAffinity>
-4.28485

$$$$
5OH9_9UT_A_202


  9  9  0  0  0  0  0  0  0  0999 V2000
   22.8039   17.0074   -7.8935 O   0  0  0  0  0  0  0  0  0  0  0  0
   23.8188   17.7078   -7.8988 C   0  0  0  0  0  0  0  0  0  0  0  0
   23.8178   18.8871   -7.2697 N   0  0  0  0  0  0  0  0  0  0  0  0
   25.2472   17.3030   -8.6998 S   0  0  0  0  0  0  0  0  0  0  0  0
   26.0687   18.8128   -8.1455 C   0  0  0  0  0  0  0  0  0  0  0  0
   24.9997   19.5289   -7.2973 C   0  0  0  0  0  0  0  0  0  0  0  0
   25.1883   20.5504   -6.6416 O   0  0  0  0  0  0  0  0  0  0  0  0
   23.0204   19.2545   -6.8243 H   0  0  0  0  0  0  0  0  0  0  0  0
   25.1099   17.2224  -10.0504 H   0  0  0  0  0  0  0  0  0  0  0  0
  1  2  2  0  0  0
  3  2  1  0  0  0
  3  6  1  0  0  0
  2  4  1  0  0  0
  6  7  2  0  0  0
  6  5  1  0  0  0
  4  5  2  0  0  0
  3  8  1  0  0  0
  4  9  1  0  0  0
M  END
> <minimizedAffinity>
-4.07793

$$$$
5OH9_9UT_A_202


  9  9  0  0  0  0  0  0  0  0999 V2000
   22.2323   16.3924   -8.1352 O   0  0  0  0  0  0  0  0  0  0  0  0
   23.1399   17.2167   -8.0024 C   0  0  0  0  0  0  0  0  0  0  0  0
   24.1825   17.2001   -8.8386 N   0  0  0  0  0  0  0  0  0  0  0  0
   23.1951   18.3792   -6.7812 S   0  0  0  0  0  0  0  0  0  0  0  0
   24.7554   19.0508   -7.3944 C   0  0  0  0  0  0  0  0  0  0  0  0
   25.0753   18.1840   -8.6279 C   0  0  0  0  0  0  0  0  0  0  0  0
   26.0057   18.3809   -9.4054 O   0  0  0  0  0  0  0  0  0  0  0  0
   24.2879   16.5257   -9.5480 H   0  0  0  0  0  0  0  0  0  0  0  0
   23.2836   17.8515   -5.5309 H   0  0  0  0  0  0  0  0  0  0  0  0
  1  2  2  0  0  0
  3  2  1  0  0  0
  3  6  1  0  0  0
  2  4  1  0  0  0
  6  7  2  0  0  0
  6  5  1  0  0  0
  4  5  2  0  0  0
  3  8  1  0  0  0
  4  9  1  0  0  0
M  END
> <minimizedAffinity>
-3.90258

$$$$
5OH9_9UT_A_202


  9  9  0  0  0  0  0  0  0  0999 V2000
   25.9331   16.6005   -9.0725 O   0  0  0  0  0  0  0  0  0  0  0  0
   25.2600   17.3853   -8.4004 C   0  0  0  0  0  0  0  0  0  0  0  0
   25.8396   18.4543   -7.8457 N   0  0  0  0  0  0  0  0  0  0  0  0
   23.6157   17.1901   -8.0777 S   0  0  0  0  0  0  0  0  0  0  0  0
   23.5492   18.7219   -7.1235 C   0  0  0  0  0  0  0  0  0  0  0  0
   24.9905   19.2640   -7.1877 C   0  0  0  0  0  0  0  0  0  0  0  0
   25.3536   20.3537   -6.7523 O   0  0  0  0  0  0  0  0  0  0  0  0
   26.8053   18.6338   -7.9130 H   0  0  0  0  0  0  0  0  0  0  0  0
   23.3329   16.0797   -7.3451 H   0  0  0  0  0  0  0  0  0  0  0  0
  1  2  2  0  0  0
  3  2  1  0  0  0
  3  6  1  0  0  0
  2  4  1  0  0  0
  6  7  2  0  0  0
  6  5  1  0  0  0
  4  5  2  0  0  0
  3  8  1  0  0  0
  4  9  1  0  0  0
M  END
> <minimizedAffinity>
-3.62654

$$$$
5OH9_9UT_A_202


  9  9  0  0  0  0  0  0  0  0999 V2000
   23.8255   18.6654   -6.8762 O   0  0  0  0  0  0  0  0  0  0  0  0
   24.9090   19.0005   -7.3604 C   0  0  0  0  0  0  0  0  0  0  0  0
   25.7848   19.6884   -6.6214 N   0  0  0  0  0  0  0  0  0  0  0  0
   25.3757   18.6861   -8.9507 S   0  0  0  0  0  0  0  0  0  0  0  0
   26.9798   19.4805   -8.7113 C   0  0  0  0  0  0  0  0  0  0  0  0
   26.9511   19.9431   -7.2415 C   0  0  0  0  0  0  0  0  0  0  0  0
   27.9007   20.4380   -6.6398 O   0  0  0  0  0  0  0  0  0  0  0  0
   25.5928   19.9835   -5.7020 H   0  0  0  0  0  0  0  0  0  0  0  0
   24.5960   19.3027   -9.8789 H   0  0  0  0  0  0  0  0  0  0  0  0
  1  2  2  0  0  0
  3  2  1  0  0  0
  3  6  1  0  0  0
  2  4  1  0  0  0
  6  7  2  0  0  0
  6  5  1  0  0  0
  4  5  2  0  0  0
  3  8  1  0  0  0
  4  9  1  0  0  0
M  END
> <minimizedAffinity>
-3.42814

$$$$
5OH9_9UT_A_202


  9  9  0  0  0  0  0  0  0  0999 V2000
   26.6122   19.2429  -10.2856 O   0  0  0  0  0  0  0  0  0  0  0  0
   25.9798   19.2295   -9.2270 C   0  0  0  0  0  0  0  0  0  0  0  0
   26.1214   20.2313   -8.3536 N   0  0  0  0  0  0  0  0  0  0  0  0
   24.9445   17.9839   -8.7556 S   0  0  0  0  0  0  0  0  0  0  0  0
   24.5230   18.8231   -7.2130 C   0  0  0  0  0  0  0  0  0  0  0  0
   25.3358   20.1314   -7.2662 C   0  0  0  0  0  0  0  0  0  0  0  0
   25.2524   21.0465   -6.4511 O   0  0  0  0  0  0  0  0  0  0  0  0
   26.7471   20.9784   -8.4941 H   0  0  0  0  0  0  0  0  0  0  0  0
   25.5743   16.7925   -8.5727 H   0  0  0  0  0  0  0  0  0  0  0  0
  1  2  2  0  0  0
  3  2  1  0  0  0
  3  6  1  0  0  0
  2  4  1  0  0  0
  6  7  2  0  0  0
  6  5  1  0  0  0
  4  5  2  0  0  0
  3  8  1  0  0  0
  4  9  1  0  0  0
M  END
> <minimizedAffinity>
-3.31234

$$$$
5OH9_9UT_A_202


  9  9  0  0  0  0  0  0  0  0999 V2000
   24.1883   18.8124   -6.7588 O   0  0  0  0  0  0  0  0  0  0  0  0
   25.2325   19.2093   -7.2811 C   0  0  0  0  0  0  0  0  0  0  0  0
   25.3914   19.1188   -8.6051 N   0  0  0  0  0  0  0  0  0  0  0  0
   26.5411   19.8419   -6.4250 S   0  0  0  0  0  0  0  0  0  0  0  0
   27.4846   20.1256   -7.9386 C   0  0  0  0  0  0  0  0  0  0  0  0
   26.5461   19.6383   -9.0597 C   0  0  0  0  0  0  0  0  0  0  0  0
   26.7648   19.7560  -10.2627 O   0  0  0  0  0  0  0  0  0  0  0  0
   24.7210   18.7073   -9.1970 H   0  0  0  0  0  0  0  0  0  0  0  0
   27.1225   18.9482   -5.5806 H   0  0  0  0  0  0  0  0  0  0  0  0
  1  2  2  0  0  0
  3  2  1  0  0  0
  3  6  1  0  0  0
  2  4  1  0  0  0
  6  7  2  0  0  0
  6  5  1  0  0  0
  4  5  2  0  0  0
  3  8  1  0  0  0
  4  9  1  0  0  0
M  END
> <minimizedAffinity>
-3.27288

$$$$
5OH9_9UT_A_202


  9  9  0  0  0  0  0  0  0  0999 V2000
   26.8428   21.8919   -7.9425 O   0  0  0  0  0  0  0  0  0  0  0  0
   26.2864   20.8022   -8.0968 C   0  0  0  0  0  0  0  0  0  0  0  0
   25.4763   20.3272   -7.1459 N   0  0  0  0  0  0  0  0  0  0  0  0
   26.5053   19.8068   -9.4411 S   0  0  0  0  0  0  0  0  0  0  0  0
   25.3575   18.5690   -8.7993 C   0  0  0  0  0  0  0  0  0  0  0  0
   24.8845   19.1598   -7.4568 C   0  0  0  0  0  0  0  0  0  0  0  0
   24.0075   18.6776   -6.7446 O   0  0  0  0  0  0  0  0  0  0  0  0
   25.3255   20.7918   -6.2911 H   0  0  0  0  0  0  0  0  0  0  0  0
   27.7786   19.3493   -9.5781 H   0  0  0  0  0  0  0  0  0  0  0  0
  1  2  2  0  0  0
  3  2  1  0  0  0
  3  6  1  0  0  0
  2  4  1  0  0  0
  6  7  2  0  0  0
  6  5  1  0  0  0
  4  5  2  0  0  0
  3  8  1  0  0  0
  4  9  1  0  0  0
M  END
> <minimizedAffinity>
-3.25739

$$$$
5OH9_9UT_A_202


  9  9  0  0  0  0  0  0  0  0999 V2000
   26.3563   19.2596  -10.2742 O   0  0  0  0  0  0  0  0  0  0  0  0
   26.1244   19.3423   -9.0659 C   0  0  0  0  0  0  0  0  0  0  0  0
   24.9693   18.8816   -8.5761 N   0  0  0  0  0  0  0  0  0  0  0  0
   27.1667   20.0530   -7.9459 S   0  0  0  0  0  0  0  0  0  0  0  0
   26.0482   19.6966   -6.5734 C   0  0  0  0  0  0  0  0  0  0  0  0
   24.8599   18.9752   -7.2386 C   0  0  0  0  0  0  0  0  0  0  0  0
   23.9198   18.4630   -6.6363 O   0  0  0  0  0  0  0  0  0  0  0  0
   24.2593   18.5061   -9.1454 H   0  0  0  0  0  0  0  0  0  0  0  0
   27.3659   21.3820   -8.1547 H   0  0  0  0  0  0  0  0  0  0  0  0
  1  2  2  0  0  0
  3  2  1  0  0  0
  3  6  1  0  0  0
  2  4  1  0  0  0
  6  7  2  0  0  0
  6  5  1  0  0  0
  4  5  2  0  0  0
  3  8  1  0  0  0
  4  9  1  0  0  0
M  END
> <minimizedAffinity>
-3.22345

$$$$
