2FXV_5GP_A_200


 31 33  0  0  0  0  0  0  0  0999 V2000
   14.0834   17.2619    5.8171 C   0  0  0  0  0  0  0  0  0  0  0  0
   15.3744   17.3726    5.1866 O   0  0  0  0  0  0  0  0  0  0  0  0
   13.8188   18.6646    6.4320 C   0  0  0  0  0  0  0  0  0  0  0  0
   13.6577   18.5015    7.8984 O   0  0  0  0  0  0  0  0  0  0  0  0
   15.0177   19.5013    6.0861 C   0  0  0  0  0  0  0  0  0  0  0  0
   15.7549   20.0187    7.1895 O   0  0  0  0  0  0  0  0  0  0  0  0
   15.9398   18.6817    5.2242 C   0  0  0  0  0  0  0  0  0  0  0  0
   14.4489   18.0768    8.2653 H   0  0  0  0  0  0  0  0  0  0  0  0
   16.1378   19.2848    7.6952 H   0  0  0  0  0  0  0  0  0  0  0  0
   16.0001   18.9548    3.7408 N   0  0  0  0  0  0  0  0  0  0  0  0
   15.5534   18.3733    2.5899 C   0  0  0  0  0  0  0  0  0  0  0  0
   15.8677   18.9871    1.4782 N   0  0  0  0  0  0  0  0  0  0  0  0
   16.5926   20.0819    1.8659 C   0  0  0  0  0  0  0  0  0  0  0  0
   17.2153   21.1166    1.2230 C   0  0  0  0  0  0  0  0  0  0  0  0
   17.2037   21.2108   -0.0224 O   0  0  0  0  0  0  0  0  0  0  0  0
   17.9119   22.1376    1.9566 N   0  0  0  0  0  0  0  0  0  0  0  0
   17.9880   22.1204    3.3770 C   0  0  0  0  0  0  0  0  0  0  0  0
   18.6296   23.0641    4.0485 N   0  0  0  0  0  0  0  0  0  0  0  0
   17.3649   21.0725    4.0654 N   0  0  0  0  0  0  0  0  0  0  0  0
   16.6722   20.0598    3.2891 C   0  0  0  0  0  0  0  0  0  0  0  0
   18.3483   22.8688    1.4625 H   0  0  0  0  0  0  0  0  0  0  0  0
   19.0678   23.8011    3.5648 H   0  0  0  0  0  0  0  0  0  0  0  0
   18.6684   23.0288    5.0316 H   0  0  0  0  0  0  0  0  0  0  0  0
   13.2022   16.8518    4.6778 C   0  0  0  0  0  0  0  0  0  0  0  0
   13.5911   15.6986    3.9680 O   0  0  0  0  0  0  0  0  0  0  0  0
   12.9563   14.2975    4.1927 P   0  0  0  0  0  0  0  0  0  0  0  0
   11.4237   14.5402    4.5177 O   0  0  0  0  0  0  0  0  0  0  0  0
   13.6219   13.6007    5.3072 O   0  0  0  0  0  0  0  0  0  0  0  0
   12.9423   13.6080    2.9015 O   0  0  0  0  0  0  0  0  0  0  0  0
   13.2142   12.7297    5.4335 H   0  0  0  0  0  0  0  0  0  0  0  0
   12.5503   12.7273    3.0095 H   0  0  0  0  0  0  0  0  0  0  0  0
 26 27  2  0  0  0
 26 28  1  0  0  0
 26 29  1  0  0  0
 26 25  1  0  0  0
 25 24  1  0  0  0
 24  1  1  0  0  0
  1  2  1  0  0  0
  1  3  1  0  0  0
  2  7  1  0  0  0
  3  4  1  0  0  0
  3  5  1  0  0  0
  5  6  1  0  0  0
  5  7  1  0  0  0
  7 10  1  0  0  0
 10 11  1  0  0  0
 10 20  1  0  0  0
 11 12  2  0  0  0
 12 13  1  0  0  0
 13 14  1  0  0  0
 13 20  2  0  0  0
 14 15  2  0  0  0
 14 16  1  0  0  0
 16 17  1  0  0  0
 17 18  1  0  0  0
 17 19  2  0  0  0
 19 20  1  0  0  0
 28 30  1  0  0  0
 29 31  1  0  0  0
  4  8  1  0  0  0
  6  9  1  0  0  0
 16 21  1  0  0  0
 18 22  1  0  0  0
 18 23  1  0  0  0
M  END
> <minimizedAffinity>
-10.83364

$$$$
2FXV_5GP_A_200


 31 33  0  0  0  0  0  0  0  0999 V2000
   13.9699   17.9239    3.8582 C   0  0  0  0  0  0  0  0  0  0  0  0
   13.9996   18.3018    5.2484 O   0  0  0  0  0  0  0  0  0  0  0  0
   15.4634   17.8439    3.4352 C   0  0  0  0  0  0  0  0  0  0  0  0
   15.6838   18.8186    2.3379 O   0  0  0  0  0  0  0  0  0  0  0  0
   16.2603   18.1861    4.6618 C   0  0  0  0  0  0  0  0  0  0  0  0
   17.1019   19.3305    4.5582 O   0  0  0  0  0  0  0  0  0  0  0  0
   15.3082   18.3828    5.8107 C   0  0  0  0  0  0  0  0  0  0  0  0
   15.4280   19.7053    2.6368 H   0  0  0  0  0  0  0  0  0  0  0  0
   16.5569   20.1214    4.4226 H   0  0  0  0  0  0  0  0  0  0  0  0
   15.1819   17.3026    6.8575 N   0  0  0  0  0  0  0  0  0  0  0  0
   15.3292   15.9479    6.9309 C   0  0  0  0  0  0  0  0  0  0  0  0
   15.0941   15.4082    8.0991 N   0  0  0  0  0  0  0  0  0  0  0  0
   14.7521   16.4536    8.9145 C   0  0  0  0  0  0  0  0  0  0  0  0
   14.3887   16.5883   10.2265 C   0  0  0  0  0  0  0  0  0  0  0  0
   14.3037   15.5986   10.9837 O   0  0  0  0  0  0  0  0  0  0  0  0
   14.0868   17.8770   10.7868 N   0  0  0  0  0  0  0  0  0  0  0  0
   14.1495   19.0662   10.0086 C   0  0  0  0  0  0  0  0  0  0  0  0
   13.8720   20.2514   10.5297 N   0  0  0  0  0  0  0  0  0  0  0  0
   14.5140   18.9625    8.6608 N   0  0  0  0  0  0  0  0  0  0  0  0
   14.8103   17.6434    8.1313 C   0  0  0  0  0  0  0  0  0  0  0  0
   13.8297   17.9384   11.7351 H   0  0  0  0  0  0  0  0  0  0  0  0
   13.6157   20.3247   11.4774 H   0  0  0  0  0  0  0  0  0  0  0  0
   13.9220   21.0593    9.9693 H   0  0  0  0  0  0  0  0  0  0  0  0
   13.2119   16.6328    3.8911 C   0  0  0  0  0  0  0  0  0  0  0  0
   13.9586   15.4612    3.6574 O   0  0  0  0  0  0  0  0  0  0  0  0
   13.4576   14.0362    4.0254 P   0  0  0  0  0  0  0  0  0  0  0  0
   12.0962   14.2236    4.8157 O   0  0  0  0  0  0  0  0  0  0  0  0
   14.4521   13.3373    4.8579 O   0  0  0  0  0  0  0  0  0  0  0  0
   13.0601   13.3743    2.7819 O   0  0  0  0  0  0  0  0  0  0  0  0
   14.1242   12.4514    5.0781 H   0  0  0  0  0  0  0  0  0  0  0  0
   12.7416   12.4796    2.9794 H   0  0  0  0  0  0  0  0  0  0  0  0
 26 27  2  0  0  0
 26 28  1  0  0  0
 26 29  1  0  0  0
 26 25  1  0  0  0
 25 24  1  0  0  0
 24  1  1  0  0  0
  1  2  1  0  0  0
  1  3  1  0  0  0
  2  7  1  0  0  0
  3  4  1  0  0  0
  3  5  1  0  0  0
  5  6  1  0  0  0
  5  7  1  0  0  0
  7 10  1  0  0  0
 10 11  1  0  0  0
 10 20  1  0  0  0
 11 12  2  0  0  0
 12 13  1  0  0  0
 13 14  1  0  0  0
 13 20  2  0  0  0
 14 15  2  0  0  0
 14 16  1  0  0  0
 16 17  1  0  0  0
 17 18  1  0  0  0
 17 19  2  0  0  0
 19 20  1  0  0  0
 28 30  1  0  0  0
 29 31  1  0  0  0
  4  8  1  0  0  0
  6  9  1  0  0  0
 16 21  1  0  0  0
 18 22  1  0  0  0
 18 23  1  0  0  0
M  END
> <minimizedAffinity>
-9.67371

$$$$
2FXV_5GP_A_200


 31 33  0  0  0  0  0  0  0  0999 V2000
   14.9225   17.7193    7.4851 C   0  0  0  0  0  0  0  0  0  0  0  0
   15.9069   18.7160    7.1475 O   0  0  0  0  0  0  0  0  0  0  0  0
   15.6792   16.3649    7.3930 C   0  0  0  0  0  0  0  0  0  0  0  0
   15.0048   15.5295    6.3682 O   0  0  0  0  0  0  0  0  0  0  0  0
   17.0901   16.7042    7.0043 C   0  0  0  0  0  0  0  0  0  0  0  0
   17.5473   16.1505    5.7742 O   0  0  0  0  0  0  0  0  0  0  0  0
   17.2221   18.2022    6.9442 C   0  0  0  0  0  0  0  0  0  0  0  0
   14.9880   16.0053    5.5231 H   0  0  0  0  0  0  0  0  0  0  0  0
   17.0245   16.5134    5.0422 H   0  0  0  0  0  0  0  0  0  0  0  0
   17.9328   18.9257    8.0623 N   0  0  0  0  0  0  0  0  0  0  0  0
   18.1817   18.7324    9.3901 C   0  0  0  0  0  0  0  0  0  0  0  0
   18.8621   19.6756    9.9890 N   0  0  0  0  0  0  0  0  0  0  0  0
   19.1125   20.6082    9.0184 C   0  0  0  0  0  0  0  0  0  0  0  0
   19.7549   21.8151    8.9684 C   0  0  0  0  0  0  0  0  0  0  0  0
   20.2879   22.3117    9.9830 O   0  0  0  0  0  0  0  0  0  0  0  0
   19.8403   22.5628    7.7439 N   0  0  0  0  0  0  0  0  0  0  0  0
   19.2633   22.0877    6.5335 C   0  0  0  0  0  0  0  0  0  0  0  0
   19.3459   22.7794    5.4076 N   0  0  0  0  0  0  0  0  0  0  0  0
   18.5946   20.8577    6.5516 N   0  0  0  0  0  0  0  0  0  0  0  0
   18.5288   20.1327    7.8078 C   0  0  0  0  0  0  0  0  0  0  0  0
   20.3111   23.4275    7.7428 H   0  0  0  0  0  0  0  0  0  0  0  0
   19.8160   23.6443    5.3945 H   0  0  0  0  0  0  0  0  0  0  0  0
   18.9371   22.4289    4.5834 H   0  0  0  0  0  0  0  0  0  0  0  0
   14.4821   18.1503    8.8500 C   0  0  0  0  0  0  0  0  0  0  0  0
   14.8114   19.4669    9.2284 O   0  0  0  0  0  0  0  0  0  0  0  0
   14.6630   20.0056   10.6791 P   0  0  0  0  0  0  0  0  0  0  0  0
   13.5130   21.0961   10.6431 O   0  0  0  0  0  0  0  0  0  0  0  0
   15.9297   20.5983   11.1428 O   0  0  0  0  0  0  0  0  0  0  0  0
   14.1053   18.9259   11.4951 O   0  0  0  0  0  0  0  0  0  0  0  0
   15.8196   20.9288   12.0481 H   0  0  0  0  0  0  0  0  0  0  0  0
   14.0006   19.2326   12.4093 H   0  0  0  0  0  0  0  0  0  0  0  0
 26 27  2  0  0  0
 26 28  1  0  0  0
 26 29  1  0  0  0
 26 25  1  0  0  0
 25 24  1  0  0  0
 24  1  1  0  0  0
  1  2  1  0  0  0
  1  3  1  0  0  0
  2  7  1  0  0  0
  3  4  1  0  0  0
  3  5  1  0  0  0
  5  6  1  0  0  0
  5  7  1  0  0  0
  7 10  1  0  0  0
 10 11  1  0  0  0
 10 20  1  0  0  0
 11 12  2  0  0  0
 12 13  1  0  0  0
 13 14  1  0  0  0
 13 20  2  0  0  0
 14 15  2  0  0  0
 14 16  1  0  0  0
 16 17  1  0  0  0
 17 18  1  0  0  0
 17 19  2  0  0  0
 19 20  1  0  0  0
 28 30  1  0  0  0
 29 31  1  0  0  0
  4  8  1  0  0  0
  6  9  1  0  0  0
 16 21  1  0  0  0
 18 22  1  0  0  0
 18 23  1  0  0  0
M  END
> <minimizedAffinity>
-9.09208

$$$$
2FXV_5GP_A_200


 31 33  0  0  0  0  0  0  0  0999 V2000
   19.0860   22.6442    8.8568 C   0  0  0  0  0  0  0  0  0  0  0  0
   18.0073   21.7735    8.4633 O   0  0  0  0  0  0  0  0  0  0  0  0
   19.3617   22.2895   10.3447 C   0  0  0  0  0  0  0  0  0  0  0  0
   19.1449   23.5124   11.1572 O   0  0  0  0  0  0  0  0  0  0  0  0
   18.3907   21.1988   10.6973 C   0  0  0  0  0  0  0  0  0  0  0  0
   17.4776   21.4945   11.7497 O   0  0  0  0  0  0  0  0  0  0  0  0
   17.6111   20.8355    9.4623 C   0  0  0  0  0  0  0  0  0  0  0  0
   18.2436   23.8408   11.0131 H   0  0  0  0  0  0  0  0  0  0  0  0
   16.8991   22.2249   11.4801 H   0  0  0  0  0  0  0  0  0  0  0  0
   17.9424   19.5577    8.7300 N   0  0  0  0  0  0  0  0  0  0  0  0
   19.0218   18.7381    8.5704 C   0  0  0  0  0  0  0  0  0  0  0  0
   18.8424   17.6977    7.7980 N   0  0  0  0  0  0  0  0  0  0  0  0
   17.5431   17.7851    7.3753 C   0  0  0  0  0  0  0  0  0  0  0  0
   16.7303   17.0434    6.5624 C   0  0  0  0  0  0  0  0  0  0  0  0
   17.1430   16.0084    5.9979 O   0  0  0  0  0  0  0  0  0  0  0  0
   15.3662   17.4276    6.3228 N   0  0  0  0  0  0  0  0  0  0  0  0
   14.8001   18.5910    6.9142 C   0  0  0  0  0  0  0  0  0  0  0  0
   13.5424   18.9402    6.6916 N   0  0  0  0  0  0  0  0  0  0  0  0
   15.6067   19.3748    7.7480 N   0  0  0  0  0  0  0  0  0  0  0  0
   16.9795   18.9544    7.9648 C   0  0  0  0  0  0  0  0  0  0  0  0
   14.8084   16.8705    5.7331 H   0  0  0  0  0  0  0  0  0  0  0  0
   12.9750   18.3892    6.1053 H   0  0  0  0  0  0  0  0  0  0  0  0
   13.1748   19.7507    7.1124 H   0  0  0  0  0  0  0  0  0  0  0  0
   20.1593   22.2927    7.8733 C   0  0  0  0  0  0  0  0  0  0  0  0
   19.9011   22.6072    6.5245 O   0  0  0  0  0  0  0  0  0  0  0  0
   20.9303   23.3092    5.5946 P   0  0  0  0  0  0  0  0  0  0  0  0
   21.4312   22.2144    4.5633 O   0  0  0  0  0  0  0  0  0  0  0  0
   22.0580   23.8411    6.3796 O   0  0  0  0  0  0  0  0  0  0  0  0
   20.1952   24.2679    4.7681 O   0  0  0  0  0  0  0  0  0  0  0  0
   22.6897   24.2751    5.7849 H   0  0  0  0  0  0  0  0  0  0  0  0
   20.8126   24.7236    4.1749 H   0  0  0  0  0  0  0  0  0  0  0  0
 26 27  2  0  0  0
 26 28  1  0  0  0
 26 29  1  0  0  0
 26 25  1  0  0  0
 25 24  1  0  0  0
 24  1  1  0  0  0
  1  2  1  0  0  0
  1  3  1  0  0  0
  2  7  1  0  0  0
  3  4  1  0  0  0
  3  5  1  0  0  0
  5  6  1  0  0  0
  5  7  1  0  0  0
  7 10  1  0  0  0
 10 11  1  0  0  0
 10 20  1  0  0  0
 11 12  2  0  0  0
 12 13  1  0  0  0
 13 14  1  0  0  0
 13 20  2  0  0  0
 14 15  2  0  0  0
 14 16  1  0  0  0
 16 17  1  0  0  0
 17 18  1  0  0  0
 17 19  2  0  0  0
 19 20  1  0  0  0
 28 30  1  0  0  0
 29 31  1  0  0  0
  4  8  1  0  0  0
  6  9  1  0  0  0
 16 21  1  0  0  0
 18 22  1  0  0  0
 18 23  1  0  0  0
M  END
> <minimizedAffinity>
-9.00649

$$$$
2FXV_5GP_A_200


 31 33  0  0  0  0  0  0  0  0999 V2000
   15.3389   14.9290    6.4955 C   0  0  0  0  0  0  0  0  0  0  0  0
   16.4179   15.6415    5.8595 O   0  0  0  0  0  0  0  0  0  0  0  0
   14.8256   15.8901    7.6038 C   0  0  0  0  0  0  0  0  0  0  0  0
   14.9812   15.2081    8.9129 O   0  0  0  0  0  0  0  0  0  0  0  0
   15.6752   17.1253    7.5071 C   0  0  0  0  0  0  0  0  0  0  0  0
   16.4344   17.4510    8.6674 O   0  0  0  0  0  0  0  0  0  0  0  0
   16.6111   16.9712    6.3387 C   0  0  0  0  0  0  0  0  0  0  0  0
   15.9096   14.9567    9.0381 H   0  0  0  0  0  0  0  0  0  0  0  0
   17.0838   16.7504    8.8360 H   0  0  0  0  0  0  0  0  0  0  0  0
   16.3277   17.7250    5.0620 N   0  0  0  0  0  0  0  0  0  0  0  0
   15.5672   17.5591    3.9410 C   0  0  0  0  0  0  0  0  0  0  0  0
   15.6477   18.5113    3.0476 N   0  0  0  0  0  0  0  0  0  0  0  0
   16.5311   19.4181    3.5690 C   0  0  0  0  0  0  0  0  0  0  0  0
   17.0583   20.6122    3.1594 C   0  0  0  0  0  0  0  0  0  0  0  0
   16.7493   21.1175    2.0596 O   0  0  0  0  0  0  0  0  0  0  0  0
   17.9931   21.3335    3.9788 N   0  0  0  0  0  0  0  0  0  0  0  0
   18.4135   20.8429    5.2461 C   0  0  0  0  0  0  0  0  0  0  0  0
   19.2738   21.5118    5.9982 N   0  0  0  0  0  0  0  0  0  0  0  0
   17.8960   19.6211    5.6931 N   0  0  0  0  0  0  0  0  0  0  0  0
   16.9551   18.9218    4.8364 C   0  0  0  0  0  0  0  0  0  0  0  0
   18.3524   22.1907    3.6541 H   0  0  0  0  0  0  0  0  0  0  0  0
   19.6378   22.3709    5.6843 H   0  0  0  0  0  0  0  0  0  0  0  0
   19.5494   21.1500    6.8713 H   0  0  0  0  0  0  0  0  0  0  0  0
   14.4083   14.6655    5.3522 C   0  0  0  0  0  0  0  0  0  0  0  0
   13.1333   15.2595    5.4319 O   0  0  0  0  0  0  0  0  0  0  0  0
   12.1300   15.3010    4.2451 P   0  0  0  0  0  0  0  0  0  0  0  0
   12.5250   14.1113    3.2747 O   0  0  0  0  0  0  0  0  0  0  0  0
   12.2111   16.5945    3.5443 O   0  0  0  0  0  0  0  0  0  0  0  0
   10.8167   14.9165    4.7647 O   0  0  0  0  0  0  0  0  0  0  0  0
   11.5797   16.6034    2.8080 H   0  0  0  0  0  0  0  0  0  0  0  0
   10.1667   14.9330    4.0450 H   0  0  0  0  0  0  0  0  0  0  0  0
 26 27  2  0  0  0
 26 28  1  0  0  0
 26 29  1  0  0  0
 26 25  1  0  0  0
 25 24  1  0  0  0
 24  1  1  0  0  0
  1  2  1  0  0  0
  1  3  1  0  0  0
  2  7  1  0  0  0
  3  4  1  0  0  0
  3  5  1  0  0  0
  5  6  1  0  0  0
  5  7  1  0  0  0
  7 10  1  0  0  0
 10 11  1  0  0  0
 10 20  1  0  0  0
 11 12  2  0  0  0
 12 13  1  0  0  0
 13 14  1  0  0  0
 13 20  2  0  0  0
 14 15  2  0  0  0
 14 16  1  0  0  0
 16 17  1  0  0  0
 17 18  1  0  0  0
 17 19  2  0  0  0
 19 20  1  0  0  0
 28 30  1  0  0  0
 29 31  1  0  0  0
  4  8  1  0  0  0
  6  9  1  0  0  0
 16 21  1  0  0  0
 18 22  1  0  0  0
 18 23  1  0  0  0
M  END
> <minimizedAffinity>
-8.89665

$$$$
2FXV_5GP_A_200


 31 33  0  0  0  0  0  0  0  0999 V2000
   13.8291   18.5114    7.0838 C   0  0  0  0  0  0  0  0  0  0  0  0
   14.7151   19.5038    6.5300 O   0  0  0  0  0  0  0  0  0  0  0  0
   13.9819   17.2768    6.1522 C   0  0  0  0  0  0  0  0  0  0  0  0
   12.6525   16.9762    5.5646 O   0  0  0  0  0  0  0  0  0  0  0  0
   14.9853   17.6694    5.1054 C   0  0  0  0  0  0  0  0  0  0  0  0
   14.5209   17.6484    3.7590 O   0  0  0  0  0  0  0  0  0  0  0  0
   15.4940   19.0493    5.4248 C   0  0  0  0  0  0  0  0  0  0  0  0
   12.3220   17.7583    5.0957 H   0  0  0  0  0  0  0  0  0  0  0  0
   13.8189   18.3086    3.6489 H   0  0  0  0  0  0  0  0  0  0  0  0
   16.8698   19.2077    6.0255 N   0  0  0  0  0  0  0  0  0  0  0  0
   17.6212   18.6099    6.9952 C   0  0  0  0  0  0  0  0  0  0  0  0
   18.8126   19.1141    7.1896 N   0  0  0  0  0  0  0  0  0  0  0  0
   18.9148   20.1465    6.2962 C   0  0  0  0  0  0  0  0  0  0  0  0
   19.8713   21.0728    5.9819 C   0  0  0  0  0  0  0  0  0  0  0  0
   20.9687   21.1037    6.5776 O   0  0  0  0  0  0  0  0  0  0  0  0
   19.6502   22.0515    4.9528 N   0  0  0  0  0  0  0  0  0  0  0  0
   18.4335   22.1046    4.2177 C   0  0  0  0  0  0  0  0  0  0  0  0
   18.2349   23.0072    3.2695 N   0  0  0  0  0  0  0  0  0  0  0  0
   17.4320   21.1733    4.5179 N   0  0  0  0  0  0  0  0  0  0  0  0
   17.6925   20.2013    5.5645 C   0  0  0  0  0  0  0  0  0  0  0  0
   20.3602   22.7030    4.7511 H   0  0  0  0  0  0  0  0  0  0  0  0
   18.9389   23.6621    3.0581 H   0  0  0  0  0  0  0  0  0  0  0  0
   17.3833   23.0233    2.7757 H   0  0  0  0  0  0  0  0  0  0  0  0
   14.3437   18.3643    8.4824 C   0  0  0  0  0  0  0  0  0  0  0  0
   14.7775   19.5443    9.1183 O   0  0  0  0  0  0  0  0  0  0  0  0
   14.5158   19.8569   10.6185 P   0  0  0  0  0  0  0  0  0  0  0  0
   15.8272   20.5544   11.1724 O   0  0  0  0  0  0  0  0  0  0  0  0
   14.2298   18.6180   11.3628 O   0  0  0  0  0  0  0  0  0  0  0  0
   13.4997   20.9089   10.6786 O   0  0  0  0  0  0  0  0  0  0  0  0
   14.0692   18.8309   12.2954 H   0  0  0  0  0  0  0  0  0  0  0  0
   13.3142   21.1267   11.6054 H   0  0  0  0  0  0  0  0  0  0  0  0
 26 27  2  0  0  0
 26 28  1  0  0  0
 26 29  1  0  0  0
 26 25  1  0  0  0
 25 24  1  0  0  0
 24  1  1  0  0  0
  1  2  1  0  0  0
  1  3  1  0  0  0
  2  7  1  0  0  0
  3  4  1  0  0  0
  3  5  1  0  0  0
  5  6  1  0  0  0
  5  7  1  0  0  0
  7 10  1  0  0  0
 10 11  1  0  0  0
 10 20  1  0  0  0
 11 12  2  0  0  0
 12 13  1  0  0  0
 13 14  1  0  0  0
 13 20  2  0  0  0
 14 15  2  0  0  0
 14 16  1  0  0  0
 16 17  1  0  0  0
 17 18  1  0  0  0
 17 19  2  0  0  0
 19 20  1  0  0  0
 28 30  1  0  0  0
 29 31  1  0  0  0
  4  8  1  0  0  0
  6  9  1  0  0  0
 16 21  1  0  0  0
 18 22  1  0  0  0
 18 23  1  0  0  0
M  END
> <minimizedAffinity>
-8.88322

$$$$
2FXV_5GP_A_200


 31 33  0  0  0  0  0  0  0  0999 V2000
   13.6124   16.9319    6.0963 C   0  0  0  0  0  0  0  0  0  0  0  0
   13.6854   16.1350    7.2946 O   0  0  0  0  0  0  0  0  0  0  0  0
   14.0726   18.3508    6.5329 C   0  0  0  0  0  0  0  0  0  0  0  0
   12.9597   19.2969    6.2697 O   0  0  0  0  0  0  0  0  0  0  0  0
   14.3926   18.2502    7.9972 C   0  0  0  0  0  0  0  0  0  0  0  0
   13.6269   19.0850    8.8606 O   0  0  0  0  0  0  0  0  0  0  0  0
   14.2224   16.8177    8.4262 C   0  0  0  0  0  0  0  0  0  0  0  0
   12.1654   19.0010    6.7414 H   0  0  0  0  0  0  0  0  0  0  0  0
   12.6941   18.8220    8.8211 H   0  0  0  0  0  0  0  0  0  0  0  0
   15.4472   15.9658    8.6557 N   0  0  0  0  0  0  0  0  0  0  0  0
   15.9326   14.7631    8.2311 C   0  0  0  0  0  0  0  0  0  0  0  0
   17.0879   14.4033    8.7283 N   0  0  0  0  0  0  0  0  0  0  0  0
   17.4488   15.4217    9.5692 C   0  0  0  0  0  0  0  0  0  0  0  0
   18.5124   15.6771   10.3909 C   0  0  0  0  0  0  0  0  0  0  0  0
   19.4581   14.8687   10.5024 O   0  0  0  0  0  0  0  0  0  0  0  0
   18.5832   16.8875   11.1627 N   0  0  0  0  0  0  0  0  0  0  0  0
   17.5566   17.8708   11.1107 C   0  0  0  0  0  0  0  0  0  0  0  0
   17.6269   18.9851   11.8224 N   0  0  0  0  0  0  0  0  0  0  0  0
   16.4518   17.6382   10.2827 N   0  0  0  0  0  0  0  0  0  0  0  0
   16.4162   16.4034    9.5196 C   0  0  0  0  0  0  0  0  0  0  0  0
   19.3635   17.0402   11.7432 H   0  0  0  0  0  0  0  0  0  0  0  0
   18.4036   19.1491   12.4047 H   0  0  0  0  0  0  0  0  0  0  0  0
   16.9025   19.6497   11.7693 H   0  0  0  0  0  0  0  0  0  0  0  0
   14.5175   16.1914    5.1609 C   0  0  0  0  0  0  0  0  0  0  0  0
   13.9517   15.7738    3.9401 O   0  0  0  0  0  0  0  0  0  0  0  0
   12.8946   14.6395    3.8273 P   0  0  0  0  0  0  0  0  0  0  0  0
   11.5081   15.3406    3.5123 O   0  0  0  0  0  0  0  0  0  0  0  0
   12.8192   13.8760    5.0851 O   0  0  0  0  0  0  0  0  0  0  0  0
   13.1933   13.8781    2.6134 O   0  0  0  0  0  0  0  0  0  0  0  0
   12.1561   13.1734    4.9976 H   0  0  0  0  0  0  0  0  0  0  0  0
   12.5483   13.1603    2.5151 H   0  0  0  0  0  0  0  0  0  0  0  0
 26 27  2  0  0  0
 26 28  1  0  0  0
 26 29  1  0  0  0
 26 25  1  0  0  0
 25 24  1  0  0  0
 24  1  1  0  0  0
  1  2  1  0  0  0
  1  3  1  0  0  0
  2  7  1  0  0  0
  3  4  1  0  0  0
  3  5  1  0  0  0
  5  6  1  0  0  0
  5  7  1  0  0  0
  7 10  1  0  0  0
 10 11  1  0  0  0
 10 20  1  0  0  0
 11 12  2  0  0  0
 12 13  1  0  0  0
 13 14  1  0  0  0
 13 20  2  0  0  0
 14 15  2  0  0  0
 14 16  1  0  0  0
 16 17  1  0  0  0
 17 18  1  0  0  0
 17 19  2  0  0  0
 19 20  1  0  0  0
 28 30  1  0  0  0
 29 31  1  0  0  0
  4  8  1  0  0  0
  6  9  1  0  0  0
 16 21  1  0  0  0
 18 22  1  0  0  0
 18 23  1  0  0  0
M  END
> <minimizedAffinity>
-8.77205

$$$$
2FXV_5GP_A_200


 31 33  0  0  0  0  0  0  0  0999 V2000
   15.8408   19.8298    7.1440 C   0  0  0  0  0  0  0  0  0  0  0  0
   14.8590   18.9844    6.5132 O   0  0  0  0  0  0  0  0  0  0  0  0
   15.7585   19.4765    8.6553 C   0  0  0  0  0  0  0  0  0  0  0  0
   15.3927   20.7091    9.3968 O   0  0  0  0  0  0  0  0  0  0  0  0
   14.7046   18.4127    8.7753 C   0  0  0  0  0  0  0  0  0  0  0  0
   13.5824   18.7373    9.5902 O   0  0  0  0  0  0  0  0  0  0  0  0
   14.2200   18.0623    7.3943 C   0  0  0  0  0  0  0  0  0  0  0  0
   14.5573   21.0593    9.0499 H   0  0  0  0  0  0  0  0  0  0  0  0
   13.1002   19.4805    9.1952 H   0  0  0  0  0  0  0  0  0  0  0  0
   14.6773   16.7724    6.7572 N   0  0  0  0  0  0  0  0  0  0  0  0
   15.7927   15.9863    6.7610 C   0  0  0  0  0  0  0  0  0  0  0  0
   15.7410   14.9142    6.0131 N   0  0  0  0  0  0  0  0  0  0  0  0
   14.5011   14.9413    5.4332 C   0  0  0  0  0  0  0  0  0  0  0  0
   13.8168   14.1440    4.5571 C   0  0  0  0  0  0  0  0  0  0  0  0
   14.3270   13.1053    4.0869 O   0  0  0  0  0  0  0  0  0  0  0  0
   12.4812   14.4717    4.1395 N   0  0  0  0  0  0  0  0  0  0  0  0
   11.8117   15.6342    4.6128 C   0  0  0  0  0  0  0  0  0  0  0  0
   10.5805   15.9311    4.2264 N   0  0  0  0  0  0  0  0  0  0  0  0
   12.4859   16.4740    5.5074 N   0  0  0  0  0  0  0  0  0  0  0  0
   13.8341   16.1097    5.9047 C   0  0  0  0  0  0  0  0  0  0  0  0
   12.0169   13.8753    3.5086 H   0  0  0  0  0  0  0  0  0  0  0  0
   10.1062   15.3408    3.5974 H   0  0  0  0  0  0  0  0  0  0  0  0
   10.1395   16.7423    4.5681 H   0  0  0  0  0  0  0  0  0  0  0  0
   17.1016   19.4457    6.4330 C   0  0  0  0  0  0  0  0  0  0  0  0
   17.2113   19.8510    5.0881 O   0  0  0  0  0  0  0  0  0  0  0  0
   17.7629   21.2374    4.6517 P   0  0  0  0  0  0  0  0  0  0  0  0
   19.3381   21.1723    4.8183 O   0  0  0  0  0  0  0  0  0  0  0  0
   17.1936   22.3075    5.4892 O   0  0  0  0  0  0  0  0  0  0  0  0
   17.5616   21.3566    3.2068 O   0  0  0  0  0  0  0  0  0  0  0  0
   17.5477   23.1644    5.2039 H   0  0  0  0  0  0  0  0  0  0  0  0
   17.8971   22.2147    2.9033 H   0  0  0  0  0  0  0  0  0  0  0  0
 26 27  2  0  0  0
 26 28  1  0  0  0
 26 29  1  0  0  0
 26 25  1  0  0  0
 25 24  1  0  0  0
 24  1  1  0  0  0
  1  2  1  0  0  0
  1  3  1  0  0  0
  2  7  1  0  0  0
  3  4  1  0  0  0
  3  5  1  0  0  0
  5  6  1  0  0  0
  5  7  1  0  0  0
  7 10  1  0  0  0
 10 11  1  0  0  0
 10 20  1  0  0  0
 11 12  2  0  0  0
 12 13  1  0  0  0
 13 14  1  0  0  0
 13 20  2  0  0  0
 14 15  2  0  0  0
 14 16  1  0  0  0
 16 17  1  0  0  0
 17 18  1  0  0  0
 17 19  2  0  0  0
 19 20  1  0  0  0
 28 30  1  0  0  0
 29 31  1  0  0  0
  4  8  1  0  0  0
  6  9  1  0  0  0
 16 21  1  0  0  0
 18 22  1  0  0  0
 18 23  1  0  0  0
M  END
> <minimizedAffinity>
-8.64616

$$$$
2FXV_5GP_A_200


 31 33  0  0  0  0  0  0  0  0999 V2000
   15.3128   15.7126    5.6256 C   0  0  0  0  0  0  0  0  0  0  0  0
   16.4224   16.5299    6.0465 O   0  0  0  0  0  0  0  0  0  0  0  0
   14.8473   14.9787    6.9142 C   0  0  0  0  0  0  0  0  0  0  0  0
   14.9739   13.5180    6.6831 O   0  0  0  0  0  0  0  0  0  0  0  0
   15.7534   15.4562    8.0131 C   0  0  0  0  0  0  0  0  0  0  0  0
   16.5297   14.4525    8.6602 O   0  0  0  0  0  0  0  0  0  0  0  0
   16.6785   16.5010    7.4495 C   0  0  0  0  0  0  0  0  0  0  0  0
   15.8898   13.3067    6.4440 H   0  0  0  0  0  0  0  0  0  0  0  0
   17.1460   14.0593    8.0227 H   0  0  0  0  0  0  0  0  0  0  0  0
   16.4277   17.9558    7.7647 N   0  0  0  0  0  0  0  0  0  0  0  0
   15.3735   18.7403    8.1327 C   0  0  0  0  0  0  0  0  0  0  0  0
   15.6336   20.0124    8.2920 N   0  0  0  0  0  0  0  0  0  0  0  0
   16.9679   20.1427    8.0143 C   0  0  0  0  0  0  0  0  0  0  0  0
   17.8609   21.1787    7.9842 C   0  0  0  0  0  0  0  0  0  0  0  0
   17.5112   22.3479    8.2504 O   0  0  0  0  0  0  0  0  0  0  0  0
   19.2401   20.9632    7.6419 N   0  0  0  0  0  0  0  0  0  0  0  0
   19.7391   19.6709    7.3184 C   0  0  0  0  0  0  0  0  0  0  0  0
   21.0108   19.4770    7.0050 N   0  0  0  0  0  0  0  0  0  0  0  0
   18.8500   18.5894    7.3355 N   0  0  0  0  0  0  0  0  0  0  0  0
   17.4646   18.8476    7.6852 C   0  0  0  0  0  0  0  0  0  0  0  0
   19.8563   21.7309    7.6309 H   0  0  0  0  0  0  0  0  0  0  0  0
   21.6363   20.2372    6.9929 H   0  0  0  0  0  0  0  0  0  0  0  0
   21.3310   18.5726    6.7842 H   0  0  0  0  0  0  0  0  0  0  0  0
   14.3683   16.7225    5.0505 C   0  0  0  0  0  0  0  0  0  0  0  0
   12.9940   16.4410    5.1803 O   0  0  0  0  0  0  0  0  0  0  0  0
   12.2260   15.4637    4.2465 P   0  0  0  0  0  0  0  0  0  0  0  0
   13.0859   15.3321    2.9212 O   0  0  0  0  0  0  0  0  0  0  0  0
   10.8811   15.9847    3.9462 O   0  0  0  0  0  0  0  0  0  0  0  0
   12.2950   14.1320    4.8501 O   0  0  0  0  0  0  0  0  0  0  0  0
   10.4164   15.3638    3.3635 H   0  0  0  0  0  0  0  0  0  0  0  0
   11.8229   13.4975    4.2884 H   0  0  0  0  0  0  0  0  0  0  0  0
 26 27  2  0  0  0
 26 28  1  0  0  0
 26 29  1  0  0  0
 26 25  1  0  0  0
 25 24  1  0  0  0
 24  1  1  0  0  0
  1  2  1  0  0  0
  1  3  1  0  0  0
  2  7  1  0  0  0
  3  4  1  0  0  0
  3  5  1  0  0  0
  5  6  1  0  0  0
  5  7  1  0  0  0
  7 10  1  0  0  0
 10 11  1  0  0  0
 10 20  1  0  0  0
 11 12  2  0  0  0
 12 13  1  0  0  0
 13 14  1  0  0  0
 13 20  2  0  0  0
 14 15  2  0  0  0
 14 16  1  0  0  0
 16 17  1  0  0  0
 17 18  1  0  0  0
 17 19  2  0  0  0
 19 20  1  0  0  0
 28 30  1  0  0  0
 29 31  1  0  0  0
  4  8  1  0  0  0
  6  9  1  0  0  0
 16 21  1  0  0  0
 18 22  1  0  0  0
 18 23  1  0  0  0
M  END
> <minimizedAffinity>
-8.40265

$$$$
2FXV_5GP_A_200


 31 33  0  0  0  0  0  0  0  0999 V2000
   17.8164   20.3984    9.4775 C   0  0  0  0  0  0  0  0  0  0  0  0
   18.4289   19.2300    8.8978 O   0  0  0  0  0  0  0  0  0  0  0  0
   16.9907   21.0300    8.3221 C   0  0  0  0  0  0  0  0  0  0  0  0
   17.5051   22.4020    8.0853 O   0  0  0  0  0  0  0  0  0  0  0  0
   17.1953   20.1378    7.1309 C   0  0  0  0  0  0  0  0  0  0  0  0
   17.7927   20.7483    5.9912 O   0  0  0  0  0  0  0  0  0  0  0  0
   18.0363   18.9632    7.5526 C   0  0  0  0  0  0  0  0  0  0  0  0
   18.4538   22.3618    7.8869 H   0  0  0  0  0  0  0  0  0  0  0  0
   18.6941   21.0311    6.2111 H   0  0  0  0  0  0  0  0  0  0  0  0
   17.3775   17.6212    7.7615 N   0  0  0  0  0  0  0  0  0  0  0  0
   17.3516   16.6490    8.7189 C   0  0  0  0  0  0  0  0  0  0  0  0
   16.6135   15.6022    8.4531 N   0  0  0  0  0  0  0  0  0  0  0  0
   16.0784   15.8457    7.2166 C   0  0  0  0  0  0  0  0  0  0  0  0
   15.2431   15.1743    6.3662 C   0  0  0  0  0  0  0  0  0  0  0  0
   14.7813   14.0512    6.6588 O   0  0  0  0  0  0  0  0  0  0  0  0
   14.8647   15.7345    5.0979 N   0  0  0  0  0  0  0  0  0  0  0  0
   15.3387   17.0050    4.6680 C   0  0  0  0  0  0  0  0  0  0  0  0
   14.9860   17.5176    3.4993 N   0  0  0  0  0  0  0  0  0  0  0  0
   16.1990   17.7163    5.5131 N   0  0  0  0  0  0  0  0  0  0  0  0
   16.5590   17.1167    6.7855 C   0  0  0  0  0  0  0  0  0  0  0  0
   14.2608   15.2250    4.5105 H   0  0  0  0  0  0  0  0  0  0  0  0
   14.3811   17.0177    2.9049 H   0  0  0  0  0  0  0  0  0  0  0  0
   15.3288   18.3988    3.2247 H   0  0  0  0  0  0  0  0  0  0  0  0
   17.0390   19.8216   10.6202 C   0  0  0  0  0  0  0  0  0  0  0  0
   15.8590   20.5010   10.9820 O   0  0  0  0  0  0  0  0  0  0  0  0
   14.4334   19.9195   10.7670 P   0  0  0  0  0  0  0  0  0  0  0  0
   14.3560   19.4552    9.2532 O   0  0  0  0  0  0  0  0  0  0  0  0
   13.4100   20.9401   11.0526 O   0  0  0  0  0  0  0  0  0  0  0  0
   14.3472   18.6718   11.5277 O   0  0  0  0  0  0  0  0  0  0  0  0
   12.5279   20.5612   10.9138 H   0  0  0  0  0  0  0  0  0  0  0  0
   13.4658   18.2835   11.4131 H   0  0  0  0  0  0  0  0  0  0  0  0
 26 27  2  0  0  0
 26 28  1  0  0  0
 26 29  1  0  0  0
 26 25  1  0  0  0
 25 24  1  0  0  0
 24  1  1  0  0  0
  1  2  1  0  0  0
  1  3  1  0  0  0
  2  7  1  0  0  0
  3  4  1  0  0  0
  3  5  1  0  0  0
  5  6  1  0  0  0
  5  7  1  0  0  0
  7 10  1  0  0  0
 10 11  1  0  0  0
 10 20  1  0  0  0
 11 12  2  0  0  0
 12 13  1  0  0  0
 13 14  1  0  0  0
 13 20  2  0  0  0
 14 15  2  0  0  0
 14 16  1  0  0  0
 16 17  1  0  0  0
 17 18  1  0  0  0
 17 19  2  0  0  0
 19 20  1  0  0  0
 28 30  1  0  0  0
 29 31  1  0  0  0
  4  8  1  0  0  0
  6  9  1  0  0  0
 16 21  1  0  0  0
 18 22  1  0  0  0
 18 23  1  0  0  0
M  END
> <minimizedAffinity>
-8.35772

$$$$
