2XBX_RR8_A_1245


 38 41  0  0  0  0  0  0  0  0999 V2000
    9.4571   66.3814    2.4764 C   0  0  0  0  0  0  0  0  0  0  0  0
   10.0145   66.6876    3.8654 C   0  0  0  0  0  0  0  0  0  0  0  0
    9.5354   68.6242    2.6300 N   0  0  0  0  0  0  0  0  0  0  0  0
   10.1800   68.2119    3.8601 C   0  0  0  0  0  0  0  0  0  0  0  0
    8.6213   67.6166    2.1437 C   0  0  0  0  0  0  0  0  0  0  0  0
    9.0864   70.2725    2.5363 S   0  0  0  0  0  0  0  0  0  0  0  0
    8.3430   70.5904    3.8049 O   0  0  0  0  0  0  0  0  0  0  0  0
   10.3103   71.0617    2.2472 O   0  0  0  0  0  0  0  0  0  0  0  0
    7.9445   70.2756    1.2161 C   0  0  0  0  0  0  0  0  0  0  0  0
    8.6688   65.1113    2.2769 C   0  0  0  0  0  0  0  0  0  0  0  0
    8.9231   64.1061    2.9919 N   0  0  0  0  0  0  0  0  0  0  0  0
    7.7837   65.0050    1.3756 O   0  0  0  0  0  0  0  0  0  0  0  0
    9.6345   64.2073    3.6649 H   0  0  0  0  0  0  0  0  0  0  0  0
    7.2275   60.2711    2.9419 C   0  0  0  0  0  0  0  0  0  0  0  0
    8.0880   60.5543    1.9098 C   0  0  0  0  0  0  0  0  0  0  0  0
    8.2625   62.8014    2.9186 C   0  0  0  0  0  0  0  0  0  0  0  0
    8.5940   61.8582    1.9261 C   0  0  0  0  0  0  0  0  0  0  0  0
    6.8272   61.1673    3.9192 C   0  0  0  0  0  0  0  0  0  0  0  0
    7.3570   62.4774    3.9214 C   0  0  0  0  0  0  0  0  0  0  0  0
    9.4632   62.1747    0.9281 F   0  0  0  0  0  0  0  0  0  0  0  0
    6.7304   58.9668    3.0171 N   0  0  0  0  0  0  0  0  0  0  0  0
    5.4957   58.6863    2.3381 C   0  0  0  0  0  0  0  0  0  0  0  0
    7.4257   57.9844    3.8183 C   0  0  0  0  0  0  0  0  0  0  0  0
    5.0296   57.3489    2.3959 C   0  0  0  0  0  0  0  0  0  0  0  0
    5.0062   59.5831    1.6015 O   0  0  0  0  0  0  0  0  0  0  0  0
    6.8911   56.7275    3.8772 C   0  0  0  0  0  0  0  0  0  0  0  0
    5.6757   56.4298    3.1629 C   0  0  0  0  0  0  0  0  0  0  0  0
   11.3443   65.9842    3.9717 C   0  0  0  0  0  0  0  0  0  0  0  0
   12.0923   66.1667    5.1266 N   0  0  0  0  0  0  0  0  0  0  0  0
   11.6584   65.1109    3.1728 O   0  0  0  0  0  0  0  0  0  0  0  0
   11.7885   66.8804    5.7329 H   0  0  0  0  0  0  0  0  0  0  0  0
   13.2727   65.4268    5.5459 C   0  0  0  0  0  0  0  0  0  0  0  0
   15.3864   63.9605    6.4586 C   0  0  0  0  0  0  0  0  0  0  0  0
   16.5736   62.8731    7.0453 Cl  0  0  0  0  0  0  0  0  0  0  0  0
   13.5280   65.3382    6.9162 C   0  0  0  0  0  0  0  0  0  0  0  0
   14.0944   64.8046    4.6076 C   0  0  0  0  0  0  0  0  0  0  0  0
   15.1903   64.0657    5.0535 C   0  0  0  0  0  0  0  0  0  0  0  0
   14.6088   64.5923    7.3723 C   0  0  0  0  0  0  0  0  0  0  0  0
  6  3  1  0  0  0
  6  7  2  0  0  0
  6  8  2  0  0  0
  6  9  1  0  0  0
  1  2  1  0  0  0
  1 10  1  0  0  0
  1  5  1  0  0  0
  2 28  1  0  0  0
  2  4  1  0  0  0
  3  4  1  0  0  0
  3  5  1  0  0  0
 10 11  1  0  0  0
 10 12  2  0  0  0
 21 22  1  0  0  0
 21 14  1  0  0  0
 21 23  1  0  0  0
 28 29  1  0  0  0
 28 30  2  0  0  0
 22 24  1  0  0  0
 22 25  2  0  0  0
 14 15  1  0  0  0
 14 18  2  0  0  0
 11 16  1  0  0  0
 15 17  2  0  0  0
 29 32  1  0  0  0
 16 17  1  0  0  0
 16 19  2  0  0  0
 17 20  1  0  0  0
 23 26  2  0  0  0
 24 27  2  0  0  0
 18 19  1  0  0  0
 26 27  1  0  0  0
 32 36  2  0  0  0
 32 35  1  0  0  0
 33 34  1  0  0  0
 33 38  1  0  0  0
 33 37  2  0  0  0
 36 37  1  0  0  0
 35 38  2  0  0  0
 11 13  1  0  0  0
 29 31  1  0  0  0
M  END
> <minimizedAffinity>
-12.38830

$$$$
2XBX_RR8_A_1245


 38 41  0  0  0  0  0  0  0  0999 V2000
    7.3862   67.1199    2.9876 C   0  0  0  0  0  0  0  0  0  0  0  0
    8.2652   67.6129    4.1356 C   0  0  0  0  0  0  0  0  0  0  0  0
    6.8705   69.2908    3.2721 N   0  0  0  0  0  0  0  0  0  0  0  0
    7.9789   69.1183    4.1889 C   0  0  0  0  0  0  0  0  0  0  0  0
    6.1729   68.0473    3.0395 C   0  0  0  0  0  0  0  0  0  0  0  0
    5.9674   70.7327    3.4528 S   0  0  0  0  0  0  0  0  0  0  0  0
    5.2807   70.9798    2.1374 O   0  0  0  0  0  0  0  0  0  0  0  0
    5.1070   70.5831    4.6536 O   0  0  0  0  0  0  0  0  0  0  0  0
    7.2167   71.9350    3.6536 C   0  0  0  0  0  0  0  0  0  0  0  0
    6.9721   65.6699    2.9643 C   0  0  0  0  0  0  0  0  0  0  0  0
    7.8010   64.7839    3.3027 N   0  0  0  0  0  0  0  0  0  0  0  0
    5.8243   65.3056    2.5684 O   0  0  0  0  0  0  0  0  0  0  0  0
    8.6942   65.0925    3.5788 H   0  0  0  0  0  0  0  0  0  0  0  0
    6.8980   60.6898    3.2194 C   0  0  0  0  0  0  0  0  0  0  0  0
    6.4251   61.3809    4.3078 C   0  0  0  0  0  0  0  0  0  0  0  0
    7.5640   63.3391    3.3249 C   0  0  0  0  0  0  0  0  0  0  0  0
    6.7889   62.7313    4.3321 C   0  0  0  0  0  0  0  0  0  0  0  0
    7.7014   61.2185    2.2226 C   0  0  0  0  0  0  0  0  0  0  0  0
    8.0504   62.5872    2.2627 C   0  0  0  0  0  0  0  0  0  0  0  0
    6.3270   63.4560    5.3872 F   0  0  0  0  0  0  0  0  0  0  0  0
    6.5222   59.3483    3.1043 N   0  0  0  0  0  0  0  0  0  0  0  0
    5.2756   59.0614    2.4500 C   0  0  0  0  0  0  0  0  0  0  0  0
    7.3504   58.3228    3.6985 C   0  0  0  0  0  0  0  0  0  0  0  0
    4.9326   57.6932    2.3107 C   0  0  0  0  0  0  0  0  0  0  0  0
    4.6637   60.0123    1.8953 O   0  0  0  0  0  0  0  0  0  0  0  0
    6.9323   57.0269    3.5768 C   0  0  0  0  0  0  0  0  0  0  0  0
    5.7041   56.7306    2.8841 C   0  0  0  0  0  0  0  0  0  0  0  0
    9.6953   67.3322    3.7479 C   0  0  0  0  0  0  0  0  0  0  0  0
   10.3903   66.3649    4.4604 N   0  0  0  0  0  0  0  0  0  0  0  0
   10.1624   67.7765    2.7067 O   0  0  0  0  0  0  0  0  0  0  0  0
    9.9626   66.0426    5.2865 H   0  0  0  0  0  0  0  0  0  0  0  0
   11.6768   65.7716    4.1294 C   0  0  0  0  0  0  0  0  0  0  0  0
   14.0974   64.5945    3.6759 C   0  0  0  0  0  0  0  0  0  0  0  0
   15.5387   63.6844    3.5013 Cl  0  0  0  0  0  0  0  0  0  0  0  0
   12.7109   65.9089    5.0581 C   0  0  0  0  0  0  0  0  0  0  0  0
   11.8511   65.0652    2.9406 C   0  0  0  0  0  0  0  0  0  0  0  0
   13.0868   64.4718    2.6821 C   0  0  0  0  0  0  0  0  0  0  0  0
   13.9418   65.3093    4.8175 C   0  0  0  0  0  0  0  0  0  0  0  0
  6  3  1  0  0  0
  6  7  2  0  0  0
  6  8  2  0  0  0
  6  9  1  0  0  0
  1  2  1  0  0  0
  1 10  1  0  0  0
  1  5  1  0  0  0
  2 28  1  0  0  0
  2  4  1  0  0  0
  3  4  1  0  0  0
  3  5  1  0  0  0
 10 11  1  0  0  0
 10 12  2  0  0  0
 21 22  1  0  0  0
 21 14  1  0  0  0
 21 23  1  0  0  0
 28 29  1  0  0  0
 28 30  2  0  0  0
 22 24  1  0  0  0
 22 25  2  0  0  0
 14 15  1  0  0  0
 14 18  2  0  0  0
 11 16  1  0  0  0
 15 17  2  0  0  0
 29 32  1  0  0  0
 16 17  1  0  0  0
 16 19  2  0  0  0
 17 20  1  0  0  0
 23 26  2  0  0  0
 24 27  2  0  0  0
 18 19  1  0  0  0
 26 27  1  0  0  0
 32 36  2  0  0  0
 32 35  1  0  0  0
 33 34  1  0  0  0
 33 38  1  0  0  0
 33 37  2  0  0  0
 36 37  1  0  0  0
 35 38  2  0  0  0
 11 13  1  0  0  0
 29 31  1  0  0  0
M  END
> <minimizedAffinity>
-10.40126

$$$$
2XBX_RR8_A_1245


 38 41  0  0  0  0  0  0  0  0999 V2000
    9.1291   66.5008    2.1169 C   0  0  0  0  0  0  0  0  0  0  0  0
    9.2216   67.3186    3.4038 C   0  0  0  0  0  0  0  0  0  0  0  0
    8.4775   68.5840    1.5731 N   0  0  0  0  0  0  0  0  0  0  0  0
    8.9082   68.7482    2.9466 C   0  0  0  0  0  0  0  0  0  0  0  0
    8.0582   67.2278    1.3047 C   0  0  0  0  0  0  0  0  0  0  0  0
    7.5803   69.8811    0.9100 S   0  0  0  0  0  0  0  0  0  0  0  0
    8.4784   71.0875    0.9403 O   0  0  0  0  0  0  0  0  0  0  0  0
    7.0647   69.4480   -0.4133 O   0  0  0  0  0  0  0  0  0  0  0  0
    6.3177   70.1075    2.0937 C   0  0  0  0  0  0  0  0  0  0  0  0
    8.8386   65.0243    2.2170 C   0  0  0  0  0  0  0  0  0  0  0  0
    7.6431   64.6280    2.2270 N   0  0  0  0  0  0  0  0  0  0  0  0
    9.7624   64.1650    2.3393 O   0  0  0  0  0  0  0  0  0  0  0  0
    6.9448   65.3187    2.1592 H   0  0  0  0  0  0  0  0  0  0  0  0
    6.5990   60.5848    2.6109 C   0  0  0  0  0  0  0  0  0  0  0  0
    7.0504   60.9673    1.3716 C   0  0  0  0  0  0  0  0  0  0  0  0
    7.1919   63.2387    2.3297 C   0  0  0  0  0  0  0  0  0  0  0  0
    7.3389   62.3315    1.2620 C   0  0  0  0  0  0  0  0  0  0  0  0
    6.3895   61.4351    3.6841 C   0  0  0  0  0  0  0  0  0  0  0  0
    6.6951   62.8086    3.5538 C   0  0  0  0  0  0  0  0  0  0  0  0
    7.8041   62.7490    0.0533 F   0  0  0  0  0  0  0  0  0  0  0  0
    6.3469   59.2237    2.8049 N   0  0  0  0  0  0  0  0  0  0  0  0
    5.1014   58.7021    2.3139 C   0  0  0  0  0  0  0  0  0  0  0  0
    7.2980   58.4206    3.5406 C   0  0  0  0  0  0  0  0  0  0  0  0
    4.8832   57.3124    2.4877 C   0  0  0  0  0  0  0  0  0  0  0  0
    4.3744   59.4587    1.6172 O   0  0  0  0  0  0  0  0  0  0  0  0
    6.9992   57.0990    3.7216 C   0  0  0  0  0  0  0  0  0  0  0  0
    5.7709   56.5614    3.1938 C   0  0  0  0  0  0  0  0  0  0  0  0
   10.6384   67.1932    3.9052 C   0  0  0  0  0  0  0  0  0  0  0  0
   11.0335   65.9832    4.4585 N   0  0  0  0  0  0  0  0  0  0  0  0
   11.4767   68.0449    3.6380 O   0  0  0  0  0  0  0  0  0  0  0  0
   10.3157   65.3364    4.6469 H   0  0  0  0  0  0  0  0  0  0  0  0
   12.3845   65.5589    4.7927 C   0  0  0  0  0  0  0  0  0  0  0  0
   14.9742   64.8381    5.2663 C   0  0  0  0  0  0  0  0  0  0  0  0
   16.6537   64.5844    5.4923 Cl  0  0  0  0  0  0  0  0  0  0  0  0
   13.1495   64.9774    3.7791 C   0  0  0  0  0  0  0  0  0  0  0  0
   12.8987   65.7603    6.0724 C   0  0  0  0  0  0  0  0  0  0  0  0
   14.2145   65.3816    6.3393 C   0  0  0  0  0  0  0  0  0  0  0  0
   14.4665   64.6098    4.0300 C   0  0  0  0  0  0  0  0  0  0  0  0
  6  3  1  0  0  0
  6  7  2  0  0  0
  6  8  2  0  0  0
  6  9  1  0  0  0
  1  2  1  0  0  0
  1 10  1  0  0  0
  1  5  1  0  0  0
  2 28  1  0  0  0
  2  4  1  0  0  0
  3  4  1  0  0  0
  3  5  1  0  0  0
 10 11  1  0  0  0
 10 12  2  0  0  0
 21 22  1  0  0  0
 21 14  1  0  0  0
 21 23  1  0  0  0
 28 29  1  0  0  0
 28 30  2  0  0  0
 22 24  1  0  0  0
 22 25  2  0  0  0
 14 15  1  0  0  0
 14 18  2  0  0  0
 11 16  1  0  0  0
 15 17  2  0  0  0
 29 32  1  0  0  0
 16 17  1  0  0  0
 16 19  2  0  0  0
 17 20  1  0  0  0
 23 26  2  0  0  0
 24 27  2  0  0  0
 18 19  1  0  0  0
 26 27  1  0  0  0
 32 36  2  0  0  0
 32 35  1  0  0  0
 33 34  1  0  0  0
 33 38  1  0  0  0
 33 37  2  0  0  0
 36 37  1  0  0  0
 35 38  2  0  0  0
 11 13  1  0  0  0
 29 31  1  0  0  0
M  END
> <minimizedAffinity>
-9.78283

$$$$
