2NMX_M25_A_311


 19 19  0  0  0  0  0  0  0  0999 V2000
  -17.2228    0.0259  -19.3340 C   0  0  0  0  0  0  0  0  0  0  0  0
  -17.3340   -0.4697  -18.0317 C   0  0  0  0  0  0  0  0  0  0  0  0
  -18.1354    0.2186  -17.1352 C   0  0  0  0  0  0  0  0  0  0  0  0
  -18.8309    1.3932  -17.4846 C   0  0  0  0  0  0  0  0  0  0  0  0
  -18.7005    1.8775  -18.8061 C   0  0  0  0  0  0  0  0  0  0  0  0
  -17.8989    1.2085  -19.7491 C   0  0  0  0  0  0  0  0  0  0  0  0
  -16.2125   -0.8261  -20.5034 S   0  0  0  0  0  0  0  0  0  0  0  0
  -15.1715   -1.5402  -19.8032 O   0  0  0  0  0  0  0  0  0  0  0  0
  -15.7775    0.2034  -21.4385 O   0  0  0  0  0  0  0  0  0  0  0  0
  -17.1425   -1.9163  -21.2948 N   0  0  0  0  0  0  0  0  0  0  0  0
  -17.4488   -2.6387  -20.6430 H   0  0  0  0  0  0  0  0  0  0  0  0
  -16.6008   -2.3437  -22.0460 H   0  0  0  0  0  0  0  0  0  0  0  0
  -19.6782    2.1004  -16.4605 C   0  0  0  0  0  0  0  0  0  0  0  0
  -21.1598    1.9777  -16.7853 C   0  0  0  0  0  0  0  0  0  0  0  0
  -21.7179    0.8284  -16.0747 N   0  0  0  0  0  0  0  0  0  0  0  0
  -22.4093    0.9594  -14.9020 C   0  0  0  0  0  0  0  0  0  0  0  0
  -22.9008   -0.3610  -14.3396 C   0  0  0  0  0  0  0  0  0  0  0  0
  -22.6229    2.0354  -14.3293 O   0  0  0  0  0  0  0  0  0  0  0  0
  -21.5917   -0.0714  -16.4536 H   0  0  0  0  0  0  0  0  0  0  0  0
  1  7  1  0  0  0
  1  6  2  0  0  0
  1  2  1  0  0  0
  2  3  2  0  0  0
  3  4  1  0  0  0
  4  5  2  0  0  0
  4 13  1  0  0  0
  5  6  1  0  0  0
  7  8  2  0  0  0
  7  9  2  0  0  0
  7 10  1  0  0  0
 13 14  1  0  0  0
 14 15  1  0  0  0
 15 16  1  0  0  0
 16 18  2  0  0  0
 16 17  1  0  0  0
 10 11  1  0  0  0
 10 12  1  0  0  0
 15 19  1  0  0  0
M  END
> <minimizedAffinity>
-6.74619

$$$$
2NMX_M25_A_311


 19 19  0  0  0  0  0  0  0  0999 V2000
  -17.2846    0.2366  -19.4406 C   0  0  0  0  0  0  0  0  0  0  0  0
  -17.7082    1.5687  -19.4323 C   0  0  0  0  0  0  0  0  0  0  0  0
  -18.1198    2.1176  -18.2285 C   0  0  0  0  0  0  0  0  0  0  0  0
  -18.1324    1.3855  -17.0246 C   0  0  0  0  0  0  0  0  0  0  0  0
  -17.7032    0.0392  -17.0580 C   0  0  0  0  0  0  0  0  0  0  0  0
  -17.2751   -0.5571  -18.2582 C   0  0  0  0  0  0  0  0  0  0  0  0
  -16.7515   -0.4950  -20.9554 S   0  0  0  0  0  0  0  0  0  0  0  0
  -16.0462    0.4912  -21.7389 O   0  0  0  0  0  0  0  0  0  0  0  0
  -17.9625   -1.0492  -21.5469 O   0  0  0  0  0  0  0  0  0  0  0  0
  -15.7149   -1.7130  -20.6061 N   0  0  0  0  0  0  0  0  0  0  0  0
  -14.8659   -1.3285  -20.1918 H   0  0  0  0  0  0  0  0  0  0  0  0
  -15.4785   -2.2143  -21.4624 H   0  0  0  0  0  0  0  0  0  0  0  0
  -18.6009    2.0374  -15.7509 C   0  0  0  0  0  0  0  0  0  0  0  0
  -20.0741    2.4108  -15.8276 C   0  0  0  0  0  0  0  0  0  0  0  0
  -20.8618    1.4307  -15.0818 N   0  0  0  0  0  0  0  0  0  0  0  0
  -21.9032    0.7474  -15.6465 C   0  0  0  0  0  0  0  0  0  0  0  0
  -22.5785   -0.2205  -14.6935 C   0  0  0  0  0  0  0  0  0  0  0  0
  -22.2840    0.8887  -16.8154 O   0  0  0  0  0  0  0  0  0  0  0  0
  -20.6346    1.2564  -14.1399 H   0  0  0  0  0  0  0  0  0  0  0  0
  1  7  1  0  0  0
  1  6  2  0  0  0
  1  2  1  0  0  0
  2  3  2  0  0  0
  3  4  1  0  0  0
  4  5  2  0  0  0
  4 13  1  0  0  0
  5  6  1  0  0  0
  7  8  2  0  0  0
  7  9  2  0  0  0
  7 10  1  0  0  0
 13 14  1  0  0  0
 14 15  1  0  0  0
 15 16  1  0  0  0
 16 18  2  0  0  0
 16 17  1  0  0  0
 10 11  1  0  0  0
 10 12  1  0  0  0
 15 19  1  0  0  0
M  END
> <minimizedAffinity>
-6.67616

$$$$
2NMX_M25_A_311


 19 19  0  0  0  0  0  0  0  0999 V2000
  -17.2910    0.2324  -19.3861 C   0  0  0  0  0  0  0  0  0  0  0  0
  -17.2400   -0.5180  -18.2079 C   0  0  0  0  0  0  0  0  0  0  0  0
  -17.6823    0.0731  -17.0353 C   0  0  0  0  0  0  0  0  0  0  0  0
  -18.1712    1.3937  -16.9877 C   0  0  0  0  0  0  0  0  0  0  0  0
  -18.2100    2.1345  -18.1909 C   0  0  0  0  0  0  0  0  0  0  0  0
  -17.7728    1.5725  -19.4044 C   0  0  0  0  0  0  0  0  0  0  0  0
  -16.7379   -0.4887  -20.8988 S   0  0  0  0  0  0  0  0  0  0  0  0
  -16.0045    0.4970  -21.6568 O   0  0  0  0  0  0  0  0  0  0  0  0
  -17.9442   -1.0198  -21.5202 O   0  0  0  0  0  0  0  0  0  0  0  0
  -15.7244   -1.7243  -20.5438 N   0  0  0  0  0  0  0  0  0  0  0  0
  -14.8786   -1.3560  -20.1086 H   0  0  0  0  0  0  0  0  0  0  0  0
  -15.4779   -2.2188  -21.4012 H   0  0  0  0  0  0  0  0  0  0  0  0
  -18.6278    1.9818  -15.6791 C   0  0  0  0  0  0  0  0  0  0  0  0
  -20.0926    2.3905  -15.7351 C   0  0  0  0  0  0  0  0  0  0  0  0
  -20.8982    1.4058  -15.0149 N   0  0  0  0  0  0  0  0  0  0  0  0
  -21.9277    0.7289  -15.6082 C   0  0  0  0  0  0  0  0  0  0  0  0
  -22.6256   -0.2455  -14.6783 C   0  0  0  0  0  0  0  0  0  0  0  0
  -22.2822    0.8802  -16.7842 O   0  0  0  0  0  0  0  0  0  0  0  0
  -20.6923    1.2235  -14.0696 H   0  0  0  0  0  0  0  0  0  0  0  0
  1  7  1  0  0  0
  1  6  2  0  0  0
  1  2  1  0  0  0
  2  3  2  0  0  0
  3  4  1  0  0  0
  4  5  2  0  0  0
  4 13  1  0  0  0
  5  6  1  0  0  0
  7  8  2  0  0  0
  7  9  2  0  0  0
  7 10  1  0  0  0
 13 14  1  0  0  0
 14 15  1  0  0  0
 15 16  1  0  0  0
 16 18  2  0  0  0
 16 17  1  0  0  0
 10 11  1  0  0  0
 10 12  1  0  0  0
 15 19  1  0  0  0
M  END
> <minimizedAffinity>
-6.67437

$$$$
2NMX_M25_A_311


 19 19  0  0  0  0  0  0  0  0999 V2000
  -17.2163    0.0107  -19.3093 C   0  0  0  0  0  0  0  0  0  0  0  0
  -17.2654   -0.6307  -18.0683 C   0  0  0  0  0  0  0  0  0  0  0  0
  -17.9660   -0.0181  -17.0418 C   0  0  0  0  0  0  0  0  0  0  0  0
  -18.6193    1.2201  -17.2011 C   0  0  0  0  0  0  0  0  0  0  0  0
  -18.5530    1.8517  -18.4639 C   0  0  0  0  0  0  0  0  0  0  0  0
  -17.8543    1.2639  -19.5343 C   0  0  0  0  0  0  0  0  0  0  0  0
  -16.3349   -0.7412  -20.6404 S   0  0  0  0  0  0  0  0  0  0  0  0
  -15.2178   -1.4871  -20.1115 O   0  0  0  0  0  0  0  0  0  0  0  0
  -16.0132    0.3582  -21.5412 O   0  0  0  0  0  0  0  0  0  0  0  0
  -17.3385   -1.7869  -21.4015 N   0  0  0  0  0  0  0  0  0  0  0  0
  -17.5658   -2.5580  -20.7737 H   0  0  0  0  0  0  0  0  0  0  0  0
  -16.8798   -2.1519  -22.2362 H   0  0  0  0  0  0  0  0  0  0  0  0
  -19.3560    1.8383  -16.0426 C   0  0  0  0  0  0  0  0  0  0  0  0
  -18.5064    2.8878  -15.3409 C   0  0  0  0  0  0  0  0  0  0  0  0
  -18.0734    2.3721  -14.0433 N   0  0  0  0  0  0  0  0  0  0  0  0
  -17.8499    3.1891  -12.9696 C   0  0  0  0  0  0  0  0  0  0  0  0
  -17.4100    2.4432  -11.7240 C   0  0  0  0  0  0  0  0  0  0  0  0
  -17.9793    4.4197  -12.9848 O   0  0  0  0  0  0  0  0  0  0  0  0
  -17.9380    1.4026  -13.9387 H   0  0  0  0  0  0  0  0  0  0  0  0
  1  7  1  0  0  0
  1  6  2  0  0  0
  1  2  1  0  0  0
  2  3  2  0  0  0
  3  4  1  0  0  0
  4  5  2  0  0  0
  4 13  1  0  0  0
  5  6  1  0  0  0
  7  8  2  0  0  0
  7  9  2  0  0  0
  7 10  1  0  0  0
 13 14  1  0  0  0
 14 15  1  0  0  0
 15 16  1  0  0  0
 16 18  2  0  0  0
 16 17  1  0  0  0
 10 11  1  0  0  0
 10 12  1  0  0  0
 15 19  1  0  0  0
M  END
> <minimizedAffinity>
-6.30579

$$$$
2NMX_M25_A_311


 19 19  0  0  0  0  0  0  0  0999 V2000
  -17.6213   -0.4831  -18.1481 C   0  0  0  0  0  0  0  0  0  0  0  0
  -18.1949   -0.8247  -16.9199 C   0  0  0  0  0  0  0  0  0  0  0  0
  -18.9627    0.1270  -16.2684 C   0  0  0  0  0  0  0  0  0  0  0  0
  -19.1787    1.4173  -16.7920 C   0  0  0  0  0  0  0  0  0  0  0  0
  -18.5857    1.7412  -18.0335 C   0  0  0  0  0  0  0  0  0  0  0  0
  -17.8004    0.8043  -18.7299 C   0  0  0  0  0  0  0  0  0  0  0  0
  -16.6389   -1.6709  -19.0072 S   0  0  0  0  0  0  0  0  0  0  0  0
  -16.9761   -1.6430  -20.4106 O   0  0  0  0  0  0  0  0  0  0  0  0
  -16.8770   -2.9264  -18.3071 O   0  0  0  0  0  0  0  0  0  0  0  0
  -15.0639   -1.2538  -18.8475 N   0  0  0  0  0  0  0  0  0  0  0  0
  -14.8936   -0.3750  -19.3366 H   0  0  0  0  0  0  0  0  0  0  0  0
  -14.4762   -1.9851  -19.2478 H   0  0  0  0  0  0  0  0  0  0  0  0
  -20.0156    2.4098  -16.0295 C   0  0  0  0  0  0  0  0  0  0  0  0
  -20.1060    2.0433  -14.5554 C   0  0  0  0  0  0  0  0  0  0  0  0
  -20.0387    3.2605  -13.7485 N   0  0  0  0  0  0  0  0  0  0  0  0
  -18.8542    3.8766  -13.4522 C   0  0  0  0  0  0  0  0  0  0  0  0
  -19.0175    5.1247  -12.6056 C   0  0  0  0  0  0  0  0  0  0  0  0
  -17.7428    3.4749  -13.8193 O   0  0  0  0  0  0  0  0  0  0  0  0
  -20.8754    3.6505  -13.4065 H   0  0  0  0  0  0  0  0  0  0  0  0
  1  7  1  0  0  0
  1  6  2  0  0  0
  1  2  1  0  0  0
  2  3  2  0  0  0
  3  4  1  0  0  0
  4  5  2  0  0  0
  4 13  1  0  0  0
  5  6  1  0  0  0
  7  8  2  0  0  0
  7  9  2  0  0  0
  7 10  1  0  0  0
 13 14  1  0  0  0
 14 15  1  0  0  0
 15 16  1  0  0  0
 16 18  2  0  0  0
 16 17  1  0  0  0
 10 11  1  0  0  0
 10 12  1  0  0  0
 15 19  1  0  0  0
M  END
> <minimizedAffinity>
-6.00466

$$$$
2NMX_M25_A_311


 19 19  0  0  0  0  0  0  0  0999 V2000
  -21.1536    0.8553  -15.6414 C   0  0  0  0  0  0  0  0  0  0  0  0
  -19.8022    0.5514  -15.4535 C   0  0  0  0  0  0  0  0  0  0  0  0
  -18.8963    0.9744  -16.4127 C   0  0  0  0  0  0  0  0  0  0  0  0
  -19.2860    1.6880  -17.5635 C   0  0  0  0  0  0  0  0  0  0  0  0
  -20.6583    1.9808  -17.7340 C   0  0  0  0  0  0  0  0  0  0  0  0
  -21.6117    1.5721  -16.7835 C   0  0  0  0  0  0  0  0  0  0  0  0
  -22.3356    0.3343  -14.4391 S   0  0  0  0  0  0  0  0  0  0  0  0
  -23.1558   -0.7132  -14.9996 O   0  0  0  0  0  0  0  0  0  0  0  0
  -23.0241    1.5554  -14.0413 O   0  0  0  0  0  0  0  0  0  0  0  0
  -21.5302   -0.2757  -13.1510 N   0  0  0  0  0  0  0  0  0  0  0  0
  -21.0469   -1.1308  -13.4259 H   0  0  0  0  0  0  0  0  0  0  0  0
  -22.1924   -0.4846  -12.4038 H   0  0  0  0  0  0  0  0  0  0  0  0
  -18.2531    2.1109  -18.5740 C   0  0  0  0  0  0  0  0  0  0  0  0
  -18.4565    1.4027  -19.9054 C   0  0  0  0  0  0  0  0  0  0  0  0
  -17.3430    0.4852  -20.1412 N   0  0  0  0  0  0  0  0  0  0  0  0
  -17.4024   -0.5116  -21.0756 C   0  0  0  0  0  0  0  0  0  0  0  0
  -16.1355   -1.3422  -21.1545 C   0  0  0  0  0  0  0  0  0  0  0  0
  -18.3822   -0.7414  -21.7958 O   0  0  0  0  0  0  0  0  0  0  0  0
  -16.5215    0.5885  -19.6085 H   0  0  0  0  0  0  0  0  0  0  0  0
  1  7  1  0  0  0
  1  6  2  0  0  0
  1  2  1  0  0  0
  2  3  2  0  0  0
  3  4  1  0  0  0
  4  5  2  0  0  0
  4 13  1  0  0  0
  5  6  1  0  0  0
  7  8  2  0  0  0
  7  9  2  0  0  0
  7 10  1  0  0  0
 13 14  1  0  0  0
 14 15  1  0  0  0
 15 16  1  0  0  0
 16 18  2  0  0  0
 16 17  1  0  0  0
 10 11  1  0  0  0
 10 12  1  0  0  0
 15 19  1  0  0  0
M  END
> <minimizedAffinity>
-5.98279

$$$$
2NMX_M25_A_311


 19 19  0  0  0  0  0  0  0  0999 V2000
  -17.1812   -0.1685  -19.2260 C   0  0  0  0  0  0  0  0  0  0  0  0
  -17.7113    1.1248  -19.2400 C   0  0  0  0  0  0  0  0  0  0  0  0
  -18.3862    1.5683  -18.1141 C   0  0  0  0  0  0  0  0  0  0  0  0
  -18.5610    0.7670  -16.9683 C   0  0  0  0  0  0  0  0  0  0  0  0
  -18.0195   -0.5386  -16.9785 C   0  0  0  0  0  0  0  0  0  0  0  0
  -17.3251   -1.0283  -18.0998 C   0  0  0  0  0  0  0  0  0  0  0  0
  -16.3137   -0.7662  -20.6417 S   0  0  0  0  0  0  0  0  0  0  0  0
  -15.1552   -1.5122  -20.2111 O   0  0  0  0  0  0  0  0  0  0  0  0
  -16.0589    0.4196  -21.4494 O   0  0  0  0  0  0  0  0  0  0  0  0
  -17.3014   -1.7788  -21.4656 N   0  0  0  0  0  0  0  0  0  0  0  0
  -17.4819   -2.6102  -20.9029 H   0  0  0  0  0  0  0  0  0  0  0  0
  -16.8551   -2.0512  -22.3414 H   0  0  0  0  0  0  0  0  0  0  0  0
  -19.3135    1.3045  -15.7802 C   0  0  0  0  0  0  0  0  0  0  0  0
  -19.3750    0.2834  -14.6536 C   0  0  0  0  0  0  0  0  0  0  0  0
  -18.2775    0.5266  -13.7189 N   0  0  0  0  0  0  0  0  0  0  0  0
  -17.9910   -0.3272  -12.6898 C   0  0  0  0  0  0  0  0  0  0  0  0
  -16.8112    0.1175  -11.8463 C   0  0  0  0  0  0  0  0  0  0  0  0
  -18.6189   -1.3645  -12.4426 O   0  0  0  0  0  0  0  0  0  0  0  0
  -17.7253    1.3334  -13.8344 H   0  0  0  0  0  0  0  0  0  0  0  0
  1  7  1  0  0  0
  1  6  2  0  0  0
  1  2  1  0  0  0
  2  3  2  0  0  0
  3  4  1  0  0  0
  4  5  2  0  0  0
  4 13  1  0  0  0
  5  6  1  0  0  0
  7  8  2  0  0  0
  7  9  2  0  0  0
  7 10  1  0  0  0
 13 14  1  0  0  0
 14 15  1  0  0  0
 15 16  1  0  0  0
 16 18  2  0  0  0
 16 17  1  0  0  0
 10 11  1  0  0  0
 10 12  1  0  0  0
 15 19  1  0  0  0
M  END
> <minimizedAffinity>
-5.88744

$$$$
2NMX_M25_A_311


 19 19  0  0  0  0  0  0  0  0999 V2000
  -21.2724    0.7937  -15.0380 C   0  0  0  0  0  0  0  0  0  0  0  0
  -21.8797    1.5890  -16.0141 C   0  0  0  0  0  0  0  0  0  0  0  0
  -21.1526    1.8981  -17.1525 C   0  0  0  0  0  0  0  0  0  0  0  0
  -19.8329    1.4486  -17.3564 C   0  0  0  0  0  0  0  0  0  0  0  0
  -19.2382    0.6487  -16.3541 C   0  0  0  0  0  0  0  0  0  0  0  0
  -19.9412    0.3093  -15.1836 C   0  0  0  0  0  0  0  0  0  0  0  0
  -22.1691    0.3783  -13.5760 S   0  0  0  0  0  0  0  0  0  0  0  0
  -22.6334    1.5889  -12.9413 O   0  0  0  0  0  0  0  0  0  0  0  0
  -21.2544   -0.4509  -12.8021 O   0  0  0  0  0  0  0  0  0  0  0  0
  -23.4744   -0.5121  -14.0041 N   0  0  0  0  0  0  0  0  0  0  0  0
  -24.1171    0.0654  -14.5462 H   0  0  0  0  0  0  0  0  0  0  0  0
  -23.9459   -0.8495  -13.1648 H   0  0  0  0  0  0  0  0  0  0  0  0
  -19.0928    1.8279  -18.6115 C   0  0  0  0  0  0  0  0  0  0  0  0
  -17.6151    1.4785  -18.5118 C   0  0  0  0  0  0  0  0  0  0  0  0
  -17.3550    0.2535  -19.2661 N   0  0  0  0  0  0  0  0  0  0  0  0
  -16.9093    0.2718  -20.5589 C   0  0  0  0  0  0  0  0  0  0  0  0
  -16.7036   -1.1115  -21.1467 C   0  0  0  0  0  0  0  0  0  0  0  0
  -16.6926    1.3000  -21.2124 O   0  0  0  0  0  0  0  0  0  0  0  0
  -17.5059   -0.6151  -18.8280 H   0  0  0  0  0  0  0  0  0  0  0  0
  1  7  1  0  0  0
  1  6  2  0  0  0
  1  2  1  0  0  0
  2  3  2  0  0  0
  3  4  1  0  0  0
  4  5  2  0  0  0
  4 13  1  0  0  0
  5  6  1  0  0  0
  7  8  2  0  0  0
  7  9  2  0  0  0
  7 10  1  0  0  0
 13 14  1  0  0  0
 14 15  1  0  0  0
 15 16  1  0  0  0
 16 18  2  0  0  0
 16 17  1  0  0  0
 10 11  1  0  0  0
 10 12  1  0  0  0
 15 19  1  0  0  0
M  END
> <minimizedAffinity>
-5.80684

$$$$
2NMX_M25_A_311


 19 19  0  0  0  0  0  0  0  0999 V2000
  -18.6520    0.5986  -14.6447 C   0  0  0  0  0  0  0  0  0  0  0  0
  -19.8765    0.4816  -15.3087 C   0  0  0  0  0  0  0  0  0  0  0  0
  -19.9527    0.9133  -16.6231 C   0  0  0  0  0  0  0  0  0  0  0  0
  -18.8514    1.4669  -17.3059 C   0  0  0  0  0  0  0  0  0  0  0  0
  -17.6244    1.5785  -16.6131 C   0  0  0  0  0  0  0  0  0  0  0  0
  -17.5023    1.1505  -15.2784 C   0  0  0  0  0  0  0  0  0  0  0  0
  -18.5175    0.0570  -12.9706 S   0  0  0  0  0  0  0  0  0  0  0  0
  -18.5624   -1.3854  -12.9310 O   0  0  0  0  0  0  0  0  0  0  0  0
  -19.5824    0.7592  -12.2661 O   0  0  0  0  0  0  0  0  0  0  0  0
  -17.0690    0.5436  -12.3832 N   0  0  0  0  0  0  0  0  0  0  0  0
  -16.3211    0.0539  -12.8742 H   0  0  0  0  0  0  0  0  0  0  0  0
  -17.0175    0.3314  -11.3868 H   0  0  0  0  0  0  0  0  0  0  0  0
  -19.0021    1.9267  -18.7316 C   0  0  0  0  0  0  0  0  0  0  0  0
  -17.6968    1.7865  -19.5011 C   0  0  0  0  0  0  0  0  0  0  0  0
  -17.5062    0.3876  -19.8808 N   0  0  0  0  0  0  0  0  0  0  0  0
  -16.6800    0.0141  -20.9047 C   0  0  0  0  0  0  0  0  0  0  0  0
  -16.6299   -1.4861  -21.1240 C   0  0  0  0  0  0  0  0  0  0  0  0
  -16.0298    0.8005  -21.6047 O   0  0  0  0  0  0  0  0  0  0  0  0
  -17.9895   -0.3100  -19.3819 H   0  0  0  0  0  0  0  0  0  0  0  0
  1  7  1  0  0  0
  1  6  2  0  0  0
  1  2  1  0  0  0
  2  3  2  0  0  0
  3  4  1  0  0  0
  4  5  2  0  0  0
  4 13  1  0  0  0
  5  6  1  0  0  0
  7  8  2  0  0  0
  7  9  2  0  0  0
  7 10  1  0  0  0
 13 14  1  0  0  0
 14 15  1  0  0  0
 15 16  1  0  0  0
 16 18  2  0  0  0
 16 17  1  0  0  0
 10 11  1  0  0  0
 10 12  1  0  0  0
 15 19  1  0  0  0
M  END
> <minimizedAffinity>
-5.32282

$$$$
2NMX_M25_A_311


 19 19  0  0  0  0  0  0  0  0999 V2000
  -20.1641    2.7839  -14.2900 C   0  0  0  0  0  0  0  0  0  0  0  0
  -21.0285    2.3459  -15.2974 C   0  0  0  0  0  0  0  0  0  0  0  0
  -20.4826    1.9933  -16.5212 C   0  0  0  0  0  0  0  0  0  0  0  0
  -19.1006    2.0660  -16.7858 C   0  0  0  0  0  0  0  0  0  0  0  0
  -18.2463    2.5152  -15.7532 C   0  0  0  0  0  0  0  0  0  0  0  0
  -18.7582    2.8812  -14.4948 C   0  0  0  0  0  0  0  0  0  0  0  0
  -20.8239    3.2393  -12.7179 S   0  0  0  0  0  0  0  0  0  0  0  0
  -20.2677    2.3796  -11.7003 O   0  0  0  0  0  0  0  0  0  0  0  0
  -22.2697    3.1875  -12.8925 O   0  0  0  0  0  0  0  0  0  0  0  0
  -20.3740    4.7795  -12.3934 N   0  0  0  0  0  0  0  0  0  0  0  0
  -19.3622    4.8194  -12.2706 H   0  0  0  0  0  0  0  0  0  0  0  0
  -20.8329    5.0949  -11.5389 H   0  0  0  0  0  0  0  0  0  0  0  0
  -18.5711    1.6777  -18.1407 C   0  0  0  0  0  0  0  0  0  0  0  0
  -17.6294    0.4859  -18.0481 C   0  0  0  0  0  0  0  0  0  0  0  0
  -17.1847    0.1144  -19.3903 N   0  0  0  0  0  0  0  0  0  0  0  0
  -16.8226   -1.1644  -19.7126 C   0  0  0  0  0  0  0  0  0  0  0  0
  -16.3975   -1.3254  -21.1598 C   0  0  0  0  0  0  0  0  0  0  0  0
  -16.8254   -2.1155  -18.9210 O   0  0  0  0  0  0  0  0  0  0  0  0
  -17.1445    0.8092  -20.0866 H   0  0  0  0  0  0  0  0  0  0  0  0
  1  7  1  0  0  0
  1  6  2  0  0  0
  1  2  1  0  0  0
  2  3  2  0  0  0
  3  4  1  0  0  0
  4  5  2  0  0  0
  4 13  1  0  0  0
  5  6  1  0  0  0
  7  8  2  0  0  0
  7  9  2  0  0  0
  7 10  1  0  0  0
 13 14  1  0  0  0
 14 15  1  0  0  0
 15 16  1  0  0  0
 16 18  2  0  0  0
 16 17  1  0  0  0
 10 11  1  0  0  0
 10 12  1  0  0  0
 15 19  1  0  0  0
M  END
> <minimizedAffinity>
-5.27816

$$$$
