5CQT_EB3_A_201


 26 29  0  0  0  0  0  0  0  0999 V2000
    3.5551    8.7518    3.9377 C   0  0  0  0  0  0  0  0  0  0  0  0
    2.3405    8.8585    3.2337 C   0  0  0  0  0  0  0  0  0  0  0  0
    2.3459    9.1783    1.8666 C   0  0  0  0  0  0  0  0  0  0  0  0
    3.5036    9.3997    1.2253 C   0  0  0  0  0  0  0  0  0  0  0  0
    4.6669    9.2914    1.9153 C   0  0  0  0  0  0  0  0  0  0  0  0
    4.7528    9.0014    3.2298 C   0  0  0  0  0  0  0  0  0  0  0  0
    6.0583    8.9244    3.7820 C   0  0  0  0  0  0  0  0  0  0  0  0
    7.1629    9.1727    2.9425 C   0  0  0  0  0  0  0  0  0  0  0  0
    6.9385    9.4809    1.5777 C   0  0  0  0  0  0  0  0  0  0  0  0
    5.6877    9.5203    1.0751 C   0  0  0  0  0  0  0  0  0  0  0  0
    5.1126    9.7800   -0.1421 C   0  0  0  0  0  0  0  0  0  0  0  0
    5.6487    9.9111   -1.2471 O   0  0  0  0  0  0  0  0  0  0  0  0
    3.7914    9.6845   -0.0527 N   0  0  0  0  0  0  0  0  0  0  0  0
    3.4746    8.3710    5.6560 S   0  0  0  0  0  0  0  0  0  0  0  0
    2.0627    8.4216    6.1762 O   0  0  0  0  0  0  0  0  0  0  0  0
    4.4720    9.3119    6.2886 O   0  0  0  0  0  0  0  0  0  0  0  0
    4.2015    6.8327    5.9538 N   0  0  0  0  0  0  0  0  0  0  0  0
    3.3976    6.2291    6.1267 H   0  0  0  0  0  0  0  0  0  0  0  0
    4.7903    5.2212    7.8694 C   0  0  0  0  0  0  0  0  0  0  0  0
    5.8767    4.4902    8.5928 C   0  0  0  0  0  0  0  0  0  0  0  0
    7.1743    5.3610    8.6183 C   0  0  0  0  0  0  0  0  0  0  0  0
    7.6621    5.7383    7.2130 C   0  0  0  0  0  0  0  0  0  0  0  0
    6.6186    6.3198    6.3139 C   0  0  0  0  0  0  0  0  0  0  0  0
    5.2143    6.3303    6.9303 C   0  0  0  0  0  0  0  0  0  0  0  0
    2.8277    9.8943   -1.1076 C   0  0  0  0  0  0  0  0  0  0  0  0
    2.4408    8.5122   -1.6923 C   0  0  0  0  0  0  0  0  0  0  0  0
 20 21  1  0  0  0
 20 19  1  0  0  0
 21 22  1  0  0  0
 19 24  1  0  0  0
 22 23  1  0  0  0
 24 23  1  0  0  0
 24 17  1  0  0  0
 17 14  1  0  0  0
 15 14  2  0  0  0
 14 16  2  0  0  0
 14  1  1  0  0  0
  1  2  2  0  0  0
  1  6  1  0  0  0
  7  6  2  0  0  0
  7  8  1  0  0  0
  2  3  1  0  0  0
  6  5  1  0  0  0
  8  9  2  0  0  0
  5  4  1  0  0  0
  5 10  2  0  0  0
  3  4  2  0  0  0
  9 10  1  0  0  0
  4 13  1  0  0  0
 10 11  1  0  0  0
 13 11  1  0  0  0
 13 25  1  0  0  0
 11 12  2  0  0  0
 26 25  1  0  0  0
 17 18  1  0  0  0
M  END
> <minimizedAffinity>
-8.82726

$$$$
5CQT_EB3_A_201


 26 29  0  0  0  0  0  0  0  0999 V2000
    5.5773    8.9619    3.0857 C   0  0  0  0  0  0  0  0  0  0  0  0
    6.6472    9.0899    2.1795 C   0  0  0  0  0  0  0  0  0  0  0  0
    6.3928    9.3473    0.8230 C   0  0  0  0  0  0  0  0  0  0  0  0
    5.1320    9.4573    0.3773 C   0  0  0  0  0  0  0  0  0  0  0  0
    4.1104    9.3340    1.2618 C   0  0  0  0  0  0  0  0  0  0  0  0
    4.2636    9.0748    2.5765 C   0  0  0  0  0  0  0  0  0  0  0  0
    3.0776    8.9850    3.3514 C   0  0  0  0  0  0  0  0  0  0  0  0
    1.8349    9.1477    2.7064 C   0  0  0  0  0  0  0  0  0  0  0  0
    1.8077    9.4038    1.3130 C   0  0  0  0  0  0  0  0  0  0  0  0
    2.9522    9.5107    0.6077 C   0  0  0  0  0  0  0  0  0  0  0  0
    3.2973    9.7354   -0.7000 C   0  0  0  0  0  0  0  0  0  0  0  0
    2.5853   10.0851   -1.6466 O   0  0  0  0  0  0  0  0  0  0  0  0
    4.6184    9.7243   -0.8320 N   0  0  0  0  0  0  0  0  0  0  0  0
    5.9670    8.6155    4.7687 S   0  0  0  0  0  0  0  0  0  0  0  0
    4.9356    9.1778    5.7103 O   0  0  0  0  0  0  0  0  0  0  0  0
    7.3839    9.1125    4.9282 O   0  0  0  0  0  0  0  0  0  0  0  0
    6.1621    6.9136    4.9906 N   0  0  0  0  0  0  0  0  0  0  0  0
    5.3679    6.5239    4.4828 H   0  0  0  0  0  0  0  0  0  0  0  0
    7.5172    6.1294    7.0304 C   0  0  0  0  0  0  0  0  0  0  0  0
    7.4740    5.5096    8.3914 C   0  0  0  0  0  0  0  0  0  0  0  0
    6.3311    4.4452    8.4520 C   0  0  0  0  0  0  0  0  0  0  0  0
    4.9544    5.0345    8.1162 C   0  0  0  0  0  0  0  0  0  0  0  0
    4.8989    5.8405    6.8581 C   0  0  0  0  0  0  0  0  0  0  0  0
    6.2652    6.0238    6.1861 C   0  0  0  0  0  0  0  0  0  0  0  0
    5.3758    9.9109   -2.0473 C   0  0  0  0  0  0  0  0  0  0  0  0
    5.5194    8.5347   -2.7451 C   0  0  0  0  0  0  0  0  0  0  0  0
 20 21  1  0  0  0
 20 19  1  0  0  0
 21 22  1  0  0  0
 19 24  1  0  0  0
 22 23  1  0  0  0
 24 23  1  0  0  0
 24 17  1  0  0  0
 17 14  1  0  0  0
 15 14  2  0  0  0
 14 16  2  0  0  0
 14  1  1  0  0  0
  1  2  2  0  0  0
  1  6  1  0  0  0
  7  6  2  0  0  0
  7  8  1  0  0  0
  2  3  1  0  0  0
  6  5  1  0  0  0
  8  9  2  0  0  0
  5  4  1  0  0  0
  5 10  2  0  0  0
  3  4  2  0  0  0
  9 10  1  0  0  0
  4 13  1  0  0  0
 10 11  1  0  0  0
 13 11  1  0  0  0
 13 25  1  0  0  0
 11 12  2  0  0  0
 26 25  1  0  0  0
 17 18  1  0  0  0
M  END
> <minimizedAffinity>
-8.54980

$$$$
5CQT_EB3_A_201


 26 29  0  0  0  0  0  0  0  0999 V2000
    5.4781   10.4635    1.6858 C   0  0  0  0  0  0  0  0  0  0  0  0
    6.6496    9.8993    2.2256 C   0  0  0  0  0  0  0  0  0  0  0  0
    6.5691    9.0277    3.3233 C   0  0  0  0  0  0  0  0  0  0  0  0
    5.3808    8.7383    3.8752 C   0  0  0  0  0  0  0  0  0  0  0  0
    4.2595    9.2872    3.3436 C   0  0  0  0  0  0  0  0  0  0  0  0
    4.2465   10.1421    2.3004 C   0  0  0  0  0  0  0  0  0  0  0  0
    2.9757   10.6116    1.8764 C   0  0  0  0  0  0  0  0  0  0  0  0
    1.8289   10.1803    2.5729 C   0  0  0  0  0  0  0  0  0  0  0  0
    1.9775    9.2883    3.6640 C   0  0  0  0  0  0  0  0  0  0  0  0
    3.1957    8.8377    4.0269 C   0  0  0  0  0  0  0  0  0  0  0  0
    3.7019    8.0083    4.9941 C   0  0  0  0  0  0  0  0  0  0  0  0
    3.1028    7.2596    5.7725 O   0  0  0  0  0  0  0  0  0  0  0  0
    5.0230    7.9331    4.8856 N   0  0  0  0  0  0  0  0  0  0  0  0
    5.6534   11.5675    0.3239 S   0  0  0  0  0  0  0  0  0  0  0  0
    7.0989   11.8007   -0.0265 O   0  0  0  0  0  0  0  0  0  0  0  0
    4.8414   12.7764    0.7232 O   0  0  0  0  0  0  0  0  0  0  0  0
    4.7632   10.9760   -1.0330 N   0  0  0  0  0  0  0  0  0  0  0  0
    3.8442   11.4001   -0.9066 H   0  0  0  0  0  0  0  0  0  0  0  0
    5.5263    8.5650   -1.4993 C   0  0  0  0  0  0  0  0  0  0  0  0
    5.1095    7.1403   -1.6852 C   0  0  0  0  0  0  0  0  0  0  0  0
    3.7213    7.0843   -2.4013 C   0  0  0  0  0  0  0  0  0  0  0  0
    2.6279    7.8393   -1.6334 C   0  0  0  0  0  0  0  0  0  0  0  0
    2.9869    9.2313   -1.2225 C   0  0  0  0  0  0  0  0  0  0  0  0
    4.4355    9.6134   -1.5505 C   0  0  0  0  0  0  0  0  0  0  0  0
    5.9255    7.1745    5.7195 C   0  0  0  0  0  0  0  0  0  0  0  0
    6.1997    5.8159    5.0262 C   0  0  0  0  0  0  0  0  0  0  0  0
 20 21  1  0  0  0
 20 19  1  0  0  0
 21 22  1  0  0  0
 19 24  1  0  0  0
 22 23  1  0  0  0
 24 23  1  0  0  0
 24 17  1  0  0  0
 17 14  1  0  0  0
 15 14  2  0  0  0
 14 16  2  0  0  0
 14  1  1  0  0  0
  1  2  2  0  0  0
  1  6  1  0  0  0
  7  6  2  0  0  0
  7  8  1  0  0  0
  2  3  1  0  0  0
  6  5  1  0  0  0
  8  9  2  0  0  0
  5  4  1  0  0  0
  5 10  2  0  0  0
  3  4  2  0  0  0
  9 10  1  0  0  0
  4 13  1  0  0  0
 10 11  1  0  0  0
 13 11  1  0  0  0
 13 25  1  0  0  0
 11 12  2  0  0  0
 26 25  1  0  0  0
 17 18  1  0  0  0
M  END
> <minimizedAffinity>
-8.06302

$$$$
5CQT_EB3_A_201


 26 29  0  0  0  0  0  0  0  0999 V2000
    2.9528    9.9592    2.2410 C   0  0  0  0  0  0  0  0  0  0  0  0
    2.1059    9.3756    3.2024 C   0  0  0  0  0  0  0  0  0  0  0  0
    2.6525    8.6554    4.2765 C   0  0  0  0  0  0  0  0  0  0  0  0
    3.9812    8.5042    4.3869 C   0  0  0  0  0  0  0  0  0  0  0  0
    4.7860    9.0737    3.4546 C   0  0  0  0  0  0  0  0  0  0  0  0
    4.3460    9.7700    2.3864 C   0  0  0  0  0  0  0  0  0  0  0  0
    5.3365   10.2988    1.5178 C   0  0  0  0  0  0  0  0  0  0  0  0
    6.6929   10.0495    1.8082 C   0  0  0  0  0  0  0  0  0  0  0  0
    7.0256    9.2904    2.9576 C   0  0  0  0  0  0  0  0  0  0  0  0
    6.0636    8.8238    3.7795 C   0  0  0  0  0  0  0  0  0  0  0  0
    6.0130    8.0788    4.9294 C   0  0  0  0  0  0  0  0  0  0  0  0
    6.9336    7.7308    5.6756 O   0  0  0  0  0  0  0  0  0  0  0  0
    4.7518    7.9059    5.3064 N   0  0  0  0  0  0  0  0  0  0  0  0
    2.1997   10.8288    0.9066 S   0  0  0  0  0  0  0  0  0  0  0  0
    2.8111   12.1902    0.7081 O   0  0  0  0  0  0  0  0  0  0  0  0
    0.7237   10.7798    1.2218 O   0  0  0  0  0  0  0  0  0  0  0  0
    2.2848    9.8831   -0.5363 N   0  0  0  0  0  0  0  0  0  0  0  0
    1.8088    9.0203   -0.2731 H   0  0  0  0  0  0  0  0  0  0  0  0
    4.3598   10.4346   -1.9516 C   0  0  0  0  0  0  0  0  0  0  0  0
    5.6530    9.9350   -2.5139 C   0  0  0  0  0  0  0  0  0  0  0  0
    5.5209    8.4213   -2.8803 C   0  0  0  0  0  0  0  0  0  0  0  0
    5.1183    7.5543   -1.6797 C   0  0  0  0  0  0  0  0  0  0  0  0
    3.9348    8.0464   -0.9100 C   0  0  0  0  0  0  0  0  0  0  0  0
    3.4032    9.3989   -1.4003 C   0  0  0  0  0  0  0  0  0  0  0  0
    4.2772    7.1726    6.4564 C   0  0  0  0  0  0  0  0  0  0  0  0
    4.6430    5.6790    6.2636 C   0  0  0  0  0  0  0  0  0  0  0  0
 20 21  1  0  0  0
 20 19  1  0  0  0
 21 22  1  0  0  0
 19 24  1  0  0  0
 22 23  1  0  0  0
 24 23  1  0  0  0
 24 17  1  0  0  0
 17 14  1  0  0  0
 15 14  2  0  0  0
 14 16  2  0  0  0
 14  1  1  0  0  0
  1  2  2  0  0  0
  1  6  1  0  0  0
  7  6  2  0  0  0
  7  8  1  0  0  0
  2  3  1  0  0  0
  6  5  1  0  0  0
  8  9  2  0  0  0
  5  4  1  0  0  0
  5 10  2  0  0  0
  3  4  2  0  0  0
  9 10  1  0  0  0
  4 13  1  0  0  0
 10 11  1  0  0  0
 13 11  1  0  0  0
 13 25  1  0  0  0
 11 12  2  0  0  0
 26 25  1  0  0  0
 17 18  1  0  0  0
M  END
> <minimizedAffinity>
-7.93675

$$$$
5CQT_EB3_A_201


 26 29  0  0  0  0  0  0  0  0999 V2000
    3.7042   10.7699    1.5925 C   0  0  0  0  0  0  0  0  0  0  0  0
    2.5835   10.2568    2.2730 C   0  0  0  0  0  0  0  0  0  0  0  0
    2.7554    9.3200    3.3045 C   0  0  0  0  0  0  0  0  0  0  0  0
    3.9836    8.8953    3.6387 C   0  0  0  0  0  0  0  0  0  0  0  0
    5.0550    9.3996    2.9762 C   0  0  0  0  0  0  0  0  0  0  0  0
    4.9803   10.2912    1.9669 C   0  0  0  0  0  0  0  0  0  0  0  0
    6.2097   10.7114    1.3948 C   0  0  0  0  0  0  0  0  0  0  0  0
    7.4092   10.1644    1.8934 C   0  0  0  0  0  0  0  0  0  0  0  0
    7.3525    9.2233    2.9514 C   0  0  0  0  0  0  0  0  0  0  0  0
    6.1711    8.8635    3.4933 C   0  0  0  0  0  0  0  0  0  0  0  0
    5.7482    8.0125    4.4816 C   0  0  0  0  0  0  0  0  0  0  0  0
    6.4137    7.4023    5.3243 O   0  0  0  0  0  0  0  0  0  0  0  0
    4.4249    8.0507    4.5818 N   0  0  0  0  0  0  0  0  0  0  0  0
    3.4152   11.9240    0.2930 S   0  0  0  0  0  0  0  0  0  0  0  0
    4.1372   13.2243    0.5267 O   0  0  0  0  0  0  0  0  0  0  0  0
    1.9104   11.9858    0.1836 O   0  0  0  0  0  0  0  0  0  0  0  0
    3.8517   11.2245   -1.2249 N   0  0  0  0  0  0  0  0  0  0  0  0
    3.1466   11.5980   -1.8604 H   0  0  0  0  0  0  0  0  0  0  0  0
    5.4306    9.2409   -1.6546 C   0  0  0  0  0  0  0  0  0  0  0  0
    5.5546    7.7580   -1.8087 C   0  0  0  0  0  0  0  0  0  0  0  0
    4.2769    7.1899   -2.5071 C   0  0  0  0  0  0  0  0  0  0  0  0
    2.9881    7.5168   -1.7408 C   0  0  0  0  0  0  0  0  0  0  0  0
    2.8230    8.9533   -1.3604 C   0  0  0  0  0  0  0  0  0  0  0  0
    4.0350    9.8245   -1.7127 C   0  0  0  0  0  0  0  0  0  0  0  0
    3.5962    7.2955    5.4920 C   0  0  0  0  0  0  0  0  0  0  0  0
    3.1589    8.2363    6.6432 C   0  0  0  0  0  0  0  0  0  0  0  0
 20 21  1  0  0  0
 20 19  1  0  0  0
 21 22  1  0  0  0
 19 24  1  0  0  0
 22 23  1  0  0  0
 24 23  1  0  0  0
 24 17  1  0  0  0
 17 14  1  0  0  0
 15 14  2  0  0  0
 14 16  2  0  0  0
 14  1  1  0  0  0
  1  2  2  0  0  0
  1  6  1  0  0  0
  7  6  2  0  0  0
  7  8  1  0  0  0
  2  3  1  0  0  0
  6  5  1  0  0  0
  8  9  2  0  0  0
  5  4  1  0  0  0
  5 10  2  0  0  0
  3  4  2  0  0  0
  9 10  1  0  0  0
  4 13  1  0  0  0
 10 11  1  0  0  0
 13 11  1  0  0  0
 13 25  1  0  0  0
 11 12  2  0  0  0
 26 25  1  0  0  0
 17 18  1  0  0  0
M  END
> <minimizedAffinity>
-7.80471

$$$$
5CQT_EB3_A_201


 26 29  0  0  0  0  0  0  0  0999 V2000
    3.3379   10.0569    2.0091 C   0  0  0  0  0  0  0  0  0  0  0  0
    2.3885    9.5043    2.8898 C   0  0  0  0  0  0  0  0  0  0  0  0
    2.8116    8.7767    4.0135 C   0  0  0  0  0  0  0  0  0  0  0  0
    4.1193    8.5891    4.2484 C   0  0  0  0  0  0  0  0  0  0  0  0
    5.0236    9.1291    3.3928 C   0  0  0  0  0  0  0  0  0  0  0  0
    4.7054    9.8297    2.2851 C   0  0  0  0  0  0  0  0  0  0  0  0
    5.7873   10.3242    1.5105 C   0  0  0  0  0  0  0  0  0  0  0  0
    7.1031   10.0391    1.9276 C   0  0  0  0  0  0  0  0  0  0  0  0
    7.3051    9.2792    3.1065 C   0  0  0  0  0  0  0  0  0  0  0  0
    6.2577    8.8458    3.8370 C   0  0  0  0  0  0  0  0  0  0  0  0
    6.0787    8.1108    4.9805 C   0  0  0  0  0  0  0  0  0  0  0  0
    6.9152    7.7425    5.8111 O   0  0  0  0  0  0  0  0  0  0  0  0
    4.7833    7.9760    5.2387 N   0  0  0  0  0  0  0  0  0  0  0  0
    2.7378   10.9376    0.6061 S   0  0  0  0  0  0  0  0  0  0  0  0
    3.3443   10.4313   -0.6755 O   0  0  0  0  0  0  0  0  0  0  0  0
    2.9778   12.3879    0.9517 O   0  0  0  0  0  0  0  0  0  0  0  0
    1.0126   10.8661    0.5586 N   0  0  0  0  0  0  0  0  0  0  0  0
    0.7644   10.6764    1.5295 H   0  0  0  0  0  0  0  0  0  0  0  0
   -0.6014   10.6744   -1.4341 C   0  0  0  0  0  0  0  0  0  0  0  0
   -1.3087    9.7567   -2.3806 C   0  0  0  0  0  0  0  0  0  0  0  0
   -1.6931    8.4320   -1.6454 C   0  0  0  0  0  0  0  0  0  0  0  0
   -0.4765    7.7109   -1.0495 C   0  0  0  0  0  0  0  0  0  0  0  0
    0.4250    8.5673   -0.2193 C   0  0  0  0  0  0  0  0  0  0  0  0
    0.0244   10.0476   -0.2064 C   0  0  0  0  0  0  0  0  0  0  0  0
    4.1827    7.2647    6.3426 C   0  0  0  0  0  0  0  0  0  0  0  0
    4.4650    5.7524    6.1556 C   0  0  0  0  0  0  0  0  0  0  0  0
 20 21  1  0  0  0
 20 19  1  0  0  0
 21 22  1  0  0  0
 19 24  1  0  0  0
 22 23  1  0  0  0
 24 23  1  0  0  0
 24 17  1  0  0  0
 17 14  1  0  0  0
 15 14  2  0  0  0
 14 16  2  0  0  0
 14  1  1  0  0  0
  1  2  2  0  0  0
  1  6  1  0  0  0
  7  6  2  0  0  0
  7  8  1  0  0  0
  2  3  1  0  0  0
  6  5  1  0  0  0
  8  9  2  0  0  0
  5  4  1  0  0  0
  5 10  2  0  0  0
  3  4  2  0  0  0
  9 10  1  0  0  0
  4 13  1  0  0  0
 10 11  1  0  0  0
 13 11  1  0  0  0
 13 25  1  0  0  0
 11 12  2  0  0  0
 26 25  1  0  0  0
 17 18  1  0  0  0
M  END
> <minimizedAffinity>
-7.26489

$$$$
5CQT_EB3_A_201


 26 29  0  0  0  0  0  0  0  0999 V2000
    3.8765    9.2297    1.2136 C   0  0  0  0  0  0  0  0  0  0  0  0
    5.2238    9.1509    0.8125 C   0  0  0  0  0  0  0  0  0  0  0  0
    5.5456    8.7684   -0.4995 C   0  0  0  0  0  0  0  0  0  0  0  0
    4.5761    8.4605   -1.3745 C   0  0  0  0  0  0  0  0  0  0  0  0
    3.2818    8.5428   -0.9755 C   0  0  0  0  0  0  0  0  0  0  0  0
    2.8845    8.8886    0.2663 C   0  0  0  0  0  0  0  0  0  0  0  0
    1.4849    8.9263    0.5006 C   0  0  0  0  0  0  0  0  0  0  0  0
    0.6136    8.5852   -0.5534 C   0  0  0  0  0  0  0  0  0  0  0  0
    1.1580    8.2257   -1.8114 C   0  0  0  0  0  0  0  0  0  0  0  0
    2.4916    8.2251   -2.0122 C   0  0  0  0  0  0  0  0  0  0  0  0
    3.3410    7.9382   -3.0495 C   0  0  0  0  0  0  0  0  0  0  0  0
    3.0794    7.7299   -4.2384 O   0  0  0  0  0  0  0  0  0  0  0  0
    4.6015    8.1031   -2.6664 N   0  0  0  0  0  0  0  0  0  0  0  0
    3.5444    9.6929    2.8807 S   0  0  0  0  0  0  0  0  0  0  0  0
    2.1522    9.3061    3.3036 O   0  0  0  0  0  0  0  0  0  0  0  0
    3.8927   11.1614    2.9309 O   0  0  0  0  0  0  0  0  0  0  0  0
    4.7346    9.0110    3.9305 N   0  0  0  0  0  0  0  0  0  0  0  0
    5.5349    8.8765    3.3126 H   0  0  0  0  0  0  0  0  0  0  0  0
    6.0878    7.0422    4.8818 C   0  0  0  0  0  0  0  0  0  0  0  0
    6.2411    6.0611    6.0008 C   0  0  0  0  0  0  0  0  0  0  0  0
    4.8334    5.6574    6.5471 C   0  0  0  0  0  0  0  0  0  0  0  0
    4.0190    6.8635    7.0345 C   0  0  0  0  0  0  0  0  0  0  0  0
    3.9368    8.0045    6.0718 C   0  0  0  0  0  0  0  0  0  0  0  0
    4.7809    7.8025    4.8074 C   0  0  0  0  0  0  0  0  0  0  0  0
    5.7896    7.8928   -3.4599 C   0  0  0  0  0  0  0  0  0  0  0  0
    6.1518    9.2302   -4.1540 C   0  0  0  0  0  0  0  0  0  0  0  0
 20 21  1  0  0  0
 20 19  1  0  0  0
 21 22  1  0  0  0
 19 24  1  0  0  0
 22 23  1  0  0  0
 24 23  1  0  0  0
 24 17  1  0  0  0
 17 14  1  0  0  0
 15 14  2  0  0  0
 14 16  2  0  0  0
 14  1  1  0  0  0
  1  2  2  0  0  0
  1  6  1  0  0  0
  7  6  2  0  0  0
  7  8  1  0  0  0
  2  3  1  0  0  0
  6  5  1  0  0  0
  8  9  2  0  0  0
  5  4  1  0  0  0
  5 10  2  0  0  0
  3  4  2  0  0  0
  9 10  1  0  0  0
  4 13  1  0  0  0
 10 11  1  0  0  0
 13 11  1  0  0  0
 13 25  1  0  0  0
 11 12  2  0  0  0
 26 25  1  0  0  0
 17 18  1  0  0  0
M  END
> <minimizedAffinity>
-7.26146

$$$$
5CQT_EB3_A_201


 26 29  0  0  0  0  0  0  0  0999 V2000
    5.4145   10.3890    1.5278 C   0  0  0  0  0  0  0  0  0  0  0  0
    6.5906    9.8657    2.0983 C   0  0  0  0  0  0  0  0  0  0  0  0
    6.5154    9.0406    3.2317 C   0  0  0  0  0  0  0  0  0  0  0  0
    5.3279    8.7576    3.7884 C   0  0  0  0  0  0  0  0  0  0  0  0
    4.2022    9.2667    3.2272 C   0  0  0  0  0  0  0  0  0  0  0  0
    4.1838   10.0760    2.1483 C   0  0  0  0  0  0  0  0  0  0  0  0
    2.9091   10.5083    1.6970 C   0  0  0  0  0  0  0  0  0  0  0  0
    1.7641   10.0902    2.4046 C   0  0  0  0  0  0  0  0  0  0  0  0
    1.9184    9.2479    3.5336 C   0  0  0  0  0  0  0  0  0  0  0  0
    3.1406    8.8312    3.9227 C   0  0  0  0  0  0  0  0  0  0  0  0
    3.6523    8.0514    4.9275 C   0  0  0  0  0  0  0  0  0  0  0  0
    3.0591    7.3278    5.7337 O   0  0  0  0  0  0  0  0  0  0  0  0
    4.9751    7.9910    4.8302 N   0  0  0  0  0  0  0  0  0  0  0  0
    5.5828   11.4363    0.1210 S   0  0  0  0  0  0  0  0  0  0  0  0
    5.0709   12.8260    0.3919 O   0  0  0  0  0  0  0  0  0  0  0  0
    4.9163   10.6656   -0.9934 O   0  0  0  0  0  0  0  0  0  0  0  0
    7.2289   11.4616   -0.4018 N   0  0  0  0  0  0  0  0  0  0  0  0
    7.6504   10.7012    0.1317 H   0  0  0  0  0  0  0  0  0  0  0  0
    9.5048   12.2714    0.4800 C   0  0  0  0  0  0  0  0  0  0  0  0
   10.7154   13.1103    0.2179 C   0  0  0  0  0  0  0  0  0  0  0  0
   10.3088   14.3919   -0.5789 C   0  0  0  0  0  0  0  0  0  0  0  0
    9.6159   14.0671   -1.9093 C   0  0  0  0  0  0  0  0  0  0  0  0
    8.4895   13.0885   -1.8158 C   0  0  0  0  0  0  0  0  0  0  0  0
    8.3031   12.4997   -0.4119 C   0  0  0  0  0  0  0  0  0  0  0  0
    5.8830    7.2821    5.7011 C   0  0  0  0  0  0  0  0  0  0  0  0
    6.1645    5.8910    5.0789 C   0  0  0  0  0  0  0  0  0  0  0  0
 20 21  1  0  0  0
 20 19  1  0  0  0
 21 22  1  0  0  0
 19 24  1  0  0  0
 22 23  1  0  0  0
 24 23  1  0  0  0
 24 17  1  0  0  0
 17 14  1  0  0  0
 15 14  2  0  0  0
 14 16  2  0  0  0
 14  1  1  0  0  0
  1  2  2  0  0  0
  1  6  1  0  0  0
  7  6  2  0  0  0
  7  8  1  0  0  0
  2  3  1  0  0  0
  6  5  1  0  0  0
  8  9  2  0  0  0
  5  4  1  0  0  0
  5 10  2  0  0  0
  3  4  2  0  0  0
  9 10  1  0  0  0
  4 13  1  0  0  0
 10 11  1  0  0  0
 13 11  1  0  0  0
 13 25  1  0  0  0
 11 12  2  0  0  0
 26 25  1  0  0  0
 17 18  1  0  0  0
M  END
> <minimizedAffinity>
-7.17089

$$$$
5CQT_EB3_A_201


 26 29  0  0  0  0  0  0  0  0999 V2000
    5.0985    9.2732    3.3401 C   0  0  0  0  0  0  0  0  0  0  0  0
    6.3594    8.6486    3.3889 C   0  0  0  0  0  0  0  0  0  0  0  0
    6.6399    7.7081    4.3928 C   0  0  0  0  0  0  0  0  0  0  0  0
    5.7177    7.4092    5.3205 C   0  0  0  0  0  0  0  0  0  0  0  0
    4.5059    8.0168    5.2604 C   0  0  0  0  0  0  0  0  0  0  0  0
    4.1571    8.9391    4.3401 C   0  0  0  0  0  0  0  0  0  0  0  0
    2.8411    9.4637    4.4299 C   0  0  0  0  0  0  0  0  0  0  0  0
    2.0031    9.0127    5.4696 C   0  0  0  0  0  0  0  0  0  0  0  0
    2.4940    8.0472    6.3834 C   0  0  0  0  0  0  0  0  0  0  0  0
    3.7398    7.5467    6.2567 C   0  0  0  0  0  0  0  0  0  0  0  0
    4.5222    6.6440    6.9295 C   0  0  0  0  0  0  0  0  0  0  0  0
    4.2101    5.8588    7.8303 O   0  0  0  0  0  0  0  0  0  0  0  0
    5.7113    6.5469    6.3470 N   0  0  0  0  0  0  0  0  0  0  0  0
    4.8218   10.4608    2.0685 S   0  0  0  0  0  0  0  0  0  0  0  0
    6.1017   10.8537    1.3798 O   0  0  0  0  0  0  0  0  0  0  0  0
    4.0472   11.5607    2.7544 O   0  0  0  0  0  0  0  0  0  0  0  0
    3.6589    9.8587    0.9421 N   0  0  0  0  0  0  0  0  0  0  0  0
    2.8799    9.5854    1.5412 H   0  0  0  0  0  0  0  0  0  0  0  0
    2.5184    8.7443   -1.0753 C   0  0  0  0  0  0  0  0  0  0  0  0
    2.6989    7.9134   -2.3063 C   0  0  0  0  0  0  0  0  0  0  0  0
    3.8324    6.8627   -2.0740 C   0  0  0  0  0  0  0  0  0  0  0  0
    5.1713    7.5098   -1.6950 C   0  0  0  0  0  0  0  0  0  0  0  0
    5.1016    8.5087   -0.5847 C   0  0  0  0  0  0  0  0  0  0  0  0
    3.6740    8.7867   -0.0983 C   0  0  0  0  0  0  0  0  0  0  0  0
    6.8185    5.7149    6.7562 C   0  0  0  0  0  0  0  0  0  0  0  0
    7.7446    6.5560    7.6708 C   0  0  0  0  0  0  0  0  0  0  0  0
 20 21  1  0  0  0
 20 19  1  0  0  0
 21 22  1  0  0  0
 19 24  1  0  0  0
 22 23  1  0  0  0
 24 23  1  0  0  0
 24 17  1  0  0  0
 17 14  1  0  0  0
 15 14  2  0  0  0
 14 16  2  0  0  0
 14  1  1  0  0  0
  1  2  2  0  0  0
  1  6  1  0  0  0
  7  6  2  0  0  0
  7  8  1  0  0  0
  2  3  1  0  0  0
  6  5  1  0  0  0
  8  9  2  0  0  0
  5  4  1  0  0  0
  5 10  2  0  0  0
  3  4  2  0  0  0
  9 10  1  0  0  0
  4 13  1  0  0  0
 10 11  1  0  0  0
 13 11  1  0  0  0
 13 25  1  0  0  0
 11 12  2  0  0  0
 26 25  1  0  0  0
 17 18  1  0  0  0
M  END
> <minimizedAffinity>
-7.15749

$$$$
5CQT_EB3_A_201


 26 29  0  0  0  0  0  0  0  0999 V2000
    5.0464    9.3289    3.1656 C   0  0  0  0  0  0  0  0  0  0  0  0
    6.2948    8.6795    3.2113 C   0  0  0  0  0  0  0  0  0  0  0  0
    6.5646    7.7450    4.2237 C   0  0  0  0  0  0  0  0  0  0  0  0
    5.6443    7.4754    5.1622 C   0  0  0  0  0  0  0  0  0  0  0  0
    4.4446    8.1067    5.1051 C   0  0  0  0  0  0  0  0  0  0  0  0
    4.1068    9.0254    4.1770 C   0  0  0  0  0  0  0  0  0  0  0  0
    2.8024    9.5776    4.2715 C   0  0  0  0  0  0  0  0  0  0  0  0
    1.9643    9.1555    5.3231 C   0  0  0  0  0  0  0  0  0  0  0  0
    2.4432    8.1907    6.2440 C   0  0  0  0  0  0  0  0  0  0  0  0
    3.6775    7.6636    6.1129 C   0  0  0  0  0  0  0  0  0  0  0  0
    4.4472    6.7529    6.7896 C   0  0  0  0  0  0  0  0  0  0  0  0
    4.1269    5.9845    7.7019 O   0  0  0  0  0  0  0  0  0  0  0  0
    5.6291    6.6251    6.1986 N   0  0  0  0  0  0  0  0  0  0  0  0
    4.7831   10.5074    1.8827 S   0  0  0  0  0  0  0  0  0  0  0  0
    6.0692   10.8902    1.2001 O   0  0  0  0  0  0  0  0  0  0  0  0
    4.0076   11.6154    2.5543 O   0  0  0  0  0  0  0  0  0  0  0  0
    3.6261    9.9005    0.7528 N   0  0  0  0  0  0  0  0  0  0  0  0
    3.6077   10.6233    0.0333 H   0  0  0  0  0  0  0  0  0  0  0  0
    1.2019   10.5115    1.3552 C   0  0  0  0  0  0  0  0  0  0  0  0
   -0.2485   10.2248    1.1270 C   0  0  0  0  0  0  0  0  0  0  0  0
   -0.4527    8.6956    0.8766 C   0  0  0  0  0  0  0  0  0  0  0  0
    0.3632    8.1765   -0.3151 C   0  0  0  0  0  0  0  0  0  0  0  0
    1.8106    8.5509   -0.3045 C   0  0  0  0  0  0  0  0  0  0  0  0
    2.1940    9.4862    0.8489 C   0  0  0  0  0  0  0  0  0  0  0  0
    6.7227    5.7755    6.6084 C   0  0  0  0  0  0  0  0  0  0  0  0
    7.6193    6.5772    7.5856 C   0  0  0  0  0  0  0  0  0  0  0  0
 20 21  1  0  0  0
 20 19  1  0  0  0
 21 22  1  0  0  0
 19 24  1  0  0  0
 22 23  1  0  0  0
 24 23  1  0  0  0
 24 17  1  0  0  0
 17 14  1  0  0  0
 15 14  2  0  0  0
 14 16  2  0  0  0
 14  1  1  0  0  0
  1  2  2  0  0  0
  1  6  1  0  0  0
  7  6  2  0  0  0
  7  8  1  0  0  0
  2  3  1  0  0  0
  6  5  1  0  0  0
  8  9  2  0  0  0
  5  4  1  0  0  0
  5 10  2  0  0  0
  3  4  2  0  0  0
  9 10  1  0  0  0
  4 13  1  0  0  0
 10 11  1  0  0  0
 13 11  1  0  0  0
 13 25  1  0  0  0
 11 12  2  0  0  0
 26 25  1  0  0  0
 17 18  1  0  0  0
M  END
> <minimizedAffinity>
-7.00750

$$$$
