4TY6_39D_A_301


 39 42  0  0  0  0  0  0  0  0999 V2000
   42.0206  -20.5644   29.0048 C   0  0  0  0  0  0  0  0  0  0  0  0
   41.0422  -19.6189   28.3806 C   0  0  0  0  0  0  0  0  0  0  0  0
   40.1825  -18.8573   29.0364 N   0  0  0  0  0  0  0  0  0  0  0  0
   39.5810  -18.0799   28.0647 C   0  0  0  0  0  0  0  0  0  0  0  0
   40.0975  -18.3950   26.8399 C   0  0  0  0  0  0  0  0  0  0  0  0
   41.0109  -19.3819   27.0506 N   0  0  0  0  0  0  0  0  0  0  0  0
   41.5482  -19.8376   26.3629 H   0  0  0  0  0  0  0  0  0  0  0  0
   36.3043  -16.5848   29.1500 C   0  0  0  0  0  0  0  0  0  0  0  0
   38.5520  -17.0889   28.4204 C   0  0  0  0  0  0  0  0  0  0  0  0
   37.3252  -17.4980   28.9379 C   0  0  0  0  0  0  0  0  0  0  0  0
   36.4940  -15.2278   28.8966 C   0  0  0  0  0  0  0  0  0  0  0  0
   37.7371  -14.8146   28.4141 C   0  0  0  0  0  0  0  0  0  0  0  0
   38.7451  -15.7327   28.1697 C   0  0  0  0  0  0  0  0  0  0  0  0
   35.3113  -14.2903   29.1118 C   0  0  0  0  0  0  0  0  0  0  0  0
   35.4678  -13.0528   28.9646 O   0  0  0  0  0  0  0  0  0  0  0  0
   34.1429  -14.8114   29.4619 N   0  0  0  0  0  0  0  0  0  0  0  0
   34.0508  -15.7856   29.5697 H   0  0  0  0  0  0  0  0  0  0  0  0
   33.3676  -14.2239   29.6140 H   0  0  0  0  0  0  0  0  0  0  0  0
   41.0331  -22.5545   29.9989 C   0  0  0  0  0  0  0  0  0  0  0  0
   41.5809  -21.9478   28.9435 N   0  0  0  0  0  0  0  0  0  0  0  0
   40.7554  -21.9611   31.0456 O   0  0  0  0  0  0  0  0  0  0  0  0
   41.6895  -22.4497   28.1035 H   0  0  0  0  0  0  0  0  0  0  0  0
   42.1715  -24.8128   29.9971 C   0  0  0  0  0  0  0  0  0  0  0  0
   40.8372  -24.0557   29.8427 C   0  0  0  0  0  0  0  0  0  0  0  0
   41.9895  -26.3269   29.7763 C   0  0  0  0  0  0  0  0  0  0  0  0
   41.3542  -26.6386   28.4253 C   0  0  0  0  0  0  0  0  0  0  0  0
   40.0257  -25.9043   28.3279 C   0  0  0  0  0  0  0  0  0  0  0  0
   40.1967  -24.3880   28.4901 C   0  0  0  0  0  0  0  0  0  0  0  0
   41.1934  -28.1440   28.1929 C   0  0  0  0  0  0  0  0  0  0  0  0
   40.9998  -28.9172   29.4241 N   0  0  0  0  0  0  0  0  0  0  0  0
   40.1385  -28.6182   29.8814 H   0  0  0  0  0  0  0  0  0  0  0  0
   41.7893  -28.7615   30.0509 H   0  0  0  0  0  0  0  0  0  0  0  0
   43.4110  -20.4117   28.3631 C   0  0  0  0  0  0  0  0  0  0  0  0
   44.5113  -20.8773   29.2876 C   0  0  0  0  0  0  0  0  0  0  0  0
   45.3157  -19.9597   29.9506 C   0  0  0  0  0  0  0  0  0  0  0  0
   46.3944  -20.3819   30.7142 C   0  0  0  0  0  0  0  0  0  0  0  0
   46.6838  -21.7269   30.8225 C   0  0  0  0  0  0  0  0  0  0  0  0
   45.9016  -22.6507   30.1554 C   0  0  0  0  0  0  0  0  0  0  0  0
   44.8203  -22.2264   29.3942 C   0  0  0  0  0  0  0  0  0  0  0  0
 25 23  1  0  0  0
 25 26  1  0  0  0
 30 29  1  0  0  0
  6  5  1  0  0  0
  6  2  1  0  0  0
 39 38  2  0  0  0
 39 34  1  0  0  0
 23 24  1  0  0  0
 29 26  1  0  0  0
 33 34  1  0  0  0
 33  1  1  0  0  0
  5  4  2  0  0  0
 38 37  1  0  0  0
 20  1  1  0  0  0
 20 19  1  0  0  0
 26 27  1  0  0  0
 24 19  1  0  0  0
 24 28  1  0  0  0
 34 35  2  0  0  0
  1  2  1  0  0  0
  2  3  2  0  0  0
 27 28  1  0  0  0
 19 21  2  0  0  0
  4  3  1  0  0  0
  4  9  1  0  0  0
 37 36  2  0  0  0
 35 36  1  0  0  0
 10  9  2  0  0  0
 10  8  1  0  0  0
  9 13  1  0  0  0
  8 11  2  0  0  0
 13 12  2  0  0  0
 11 12  1  0  0  0
 11 14  1  0  0  0
 15 14  2  0  0  0
 14 16  1  0  0  0
  6  7  1  0  0  0
 20 22  1  0  0  0
 30 31  1  0  0  0
 30 32  1  0  0  0
 16 17  1  0  0  0
 16 18  1  0  0  0
M  END
> <minimizedAffinity>
-9.26868

$$$$
4TY6_39D_A_301


 39 42  0  0  0  0  0  0  0  0999 V2000
   40.1963  -20.8718   29.0606 C   0  0  0  0  0  0  0  0  0  0  0  0
   41.6871  -20.7370   29.0465 C   0  0  0  0  0  0  0  0  0  0  0  0
   42.4982  -21.0598   30.0400 N   0  0  0  0  0  0  0  0  0  0  0  0
   43.7717  -20.8776   29.5345 C   0  0  0  0  0  0  0  0  0  0  0  0
   43.6946  -20.4469   28.2403 C   0  0  0  0  0  0  0  0  0  0  0  0
   42.3692  -20.3467   27.9472 N   0  0  0  0  0  0  0  0  0  0  0  0
   41.9803  -20.0462   27.0942 H   0  0  0  0  0  0  0  0  0  0  0  0
   47.2553  -20.6618   30.9372 C   0  0  0  0  0  0  0  0  0  0  0  0
   44.9586  -21.1459   30.3630 C   0  0  0  0  0  0  0  0  0  0  0  0
   46.0892  -20.3386   30.2613 C   0  0  0  0  0  0  0  0  0  0  0  0
   47.3127  -21.7750   31.7732 C   0  0  0  0  0  0  0  0  0  0  0  0
   46.1666  -22.5614   31.9038 C   0  0  0  0  0  0  0  0  0  0  0  0
   45.0125  -22.2571   31.2008 C   0  0  0  0  0  0  0  0  0  0  0  0
   48.6423  -22.0917   32.4483 C   0  0  0  0  0  0  0  0  0  0  0  0
   49.7116  -21.6831   31.9314 O   0  0  0  0  0  0  0  0  0  0  0  0
   48.6333  -22.8050   33.5665 N   0  0  0  0  0  0  0  0  0  0  0  0
   47.7790  -23.1113   33.9480 H   0  0  0  0  0  0  0  0  0  0  0  0
   49.4809  -23.0281   34.0149 H   0  0  0  0  0  0  0  0  0  0  0  0
   39.3001  -18.6195   29.2808 C   0  0  0  0  0  0  0  0  0  0  0  0
   39.5222  -19.6998   28.5285 N   0  0  0  0  0  0  0  0  0  0  0  0
   39.7487  -18.4934   30.4243 O   0  0  0  0  0  0  0  0  0  0  0  0
   39.2221  -19.7024   27.5909 H   0  0  0  0  0  0  0  0  0  0  0  0
   39.2043  -16.4058   28.0617 C   0  0  0  0  0  0  0  0  0  0  0  0
   38.3900  -17.5764   28.6483 C   0  0  0  0  0  0  0  0  0  0  0  0
   38.2846  -15.3164   27.4771 C   0  0  0  0  0  0  0  0  0  0  0  0
   37.2778  -14.8035   28.5014 C   0  0  0  0  0  0  0  0  0  0  0  0
   36.4712  -15.9810   29.0272 C   0  0  0  0  0  0  0  0  0  0  0  0
   37.3687  -17.0508   29.6635 C   0  0  0  0  0  0  0  0  0  0  0  0
   36.3775  -13.7038   27.9302 C   0  0  0  0  0  0  0  0  0  0  0  0
   37.1136  -12.5913   27.3207 N   0  0  0  0  0  0  0  0  0  0  0  0
   37.6578  -12.9363   26.5300 H   0  0  0  0  0  0  0  0  0  0  0  0
   37.7410  -12.1797   28.0116 H   0  0  0  0  0  0  0  0  0  0  0  0
   39.7565  -22.1370   28.3030 C   0  0  0  0  0  0  0  0  0  0  0  0
   40.4845  -23.3670   28.7921 C   0  0  0  0  0  0  0  0  0  0  0  0
   41.3655  -24.0467   27.9609 C   0  0  0  0  0  0  0  0  0  0  0  0
   41.9523  -25.2360   28.3685 C   0  0  0  0  0  0  0  0  0  0  0  0
   41.6638  -25.7619   29.6113 C   0  0  0  0  0  0  0  0  0  0  0  0
   40.7766  -25.1048   30.4429 C   0  0  0  0  0  0  0  0  0  0  0  0
   40.1927  -23.9128   30.0346 C   0  0  0  0  0  0  0  0  0  0  0  0
 25 23  1  0  0  0
 25 26  1  0  0  0
 30 29  1  0  0  0
  6  5  1  0  0  0
  6  2  1  0  0  0
 39 38  2  0  0  0
 39 34  1  0  0  0
 23 24  1  0  0  0
 29 26  1  0  0  0
 33 34  1  0  0  0
 33  1  1  0  0  0
  5  4  2  0  0  0
 38 37  1  0  0  0
 20  1  1  0  0  0
 20 19  1  0  0  0
 26 27  1  0  0  0
 24 19  1  0  0  0
 24 28  1  0  0  0
 34 35  2  0  0  0
  1  2  1  0  0  0
  2  3  2  0  0  0
 27 28  1  0  0  0
 19 21  2  0  0  0
  4  3  1  0  0  0
  4  9  1  0  0  0
 37 36  2  0  0  0
 35 36  1  0  0  0
 10  9  2  0  0  0
 10  8  1  0  0  0
  9 13  1  0  0  0
  8 11  2  0  0  0
 13 12  2  0  0  0
 11 12  1  0  0  0
 11 14  1  0  0  0
 15 14  2  0  0  0
 14 16  1  0  0  0
  6  7  1  0  0  0
 20 22  1  0  0  0
 30 31  1  0  0  0
 30 32  1  0  0  0
 16 17  1  0  0  0
 16 18  1  0  0  0
M  END
> <minimizedAffinity>
-9.25957

$$$$
4TY6_39D_A_301


 39 42  0  0  0  0  0  0  0  0999 V2000
   41.2401  -21.2908   29.2906 C   0  0  0  0  0  0  0  0  0  0  0  0
   40.0271  -20.4788   28.9590 C   0  0  0  0  0  0  0  0  0  0  0  0
   39.9142  -19.1692   29.1054 N   0  0  0  0  0  0  0  0  0  0  0  0
   38.6807  -18.8550   28.5669 C   0  0  0  0  0  0  0  0  0  0  0  0
   38.0779  -19.9911   28.1064 C   0  0  0  0  0  0  0  0  0  0  0  0
   38.9334  -21.0153   28.3742 N   0  0  0  0  0  0  0  0  0  0  0  0
   38.7834  -21.9685   28.1785 H   0  0  0  0  0  0  0  0  0  0  0  0
   36.4528  -15.8539   28.9913 C   0  0  0  0  0  0  0  0  0  0  0  0
   38.1983  -17.4642   28.5452 C   0  0  0  0  0  0  0  0  0  0  0  0
   36.9756  -17.1308   29.1232 C   0  0  0  0  0  0  0  0  0  0  0  0
   37.1580  -14.8579   28.3188 C   0  0  0  0  0  0  0  0  0  0  0  0
   38.4009  -15.1840   27.7730 C   0  0  0  0  0  0  0  0  0  0  0  0
   38.9065  -16.4695   27.8755 C   0  0  0  0  0  0  0  0  0  0  0  0
   36.4993  -13.4905   28.1762 C   0  0  0  0  0  0  0  0  0  0  0  0
   35.4790  -13.2211   28.8573 O   0  0  0  0  0  0  0  0  0  0  0  0
   37.0204  -12.6202   27.3217 N   0  0  0  0  0  0  0  0  0  0  0  0
   37.8211  -12.8601   26.8015 H   0  0  0  0  0  0  0  0  0  0  0  0
   36.6065  -11.7342   27.2076 H   0  0  0  0  0  0  0  0  0  0  0  0
   40.4721  -23.5878   29.5322 C   0  0  0  0  0  0  0  0  0  0  0  0
   41.1371  -22.6657   28.8323 N   0  0  0  0  0  0  0  0  0  0  0  0
   39.8082  -23.3183   30.5379 O   0  0  0  0  0  0  0  0  0  0  0  0
   41.5679  -22.9235   27.9854 H   0  0  0  0  0  0  0  0  0  0  0  0
   42.0387  -25.5695   29.4101 C   0  0  0  0  0  0  0  0  0  0  0  0
   40.6487  -25.0161   29.0371 C   0  0  0  0  0  0  0  0  0  0  0  0
   42.2465  -26.9921   28.8558 C   0  0  0  0  0  0  0  0  0  0  0  0
   42.0351  -27.0577   27.3468 C   0  0  0  0  0  0  0  0  0  0  0  0
   40.6419  -26.5393   27.0245 C   0  0  0  0  0  0  0  0  0  0  0  0
   40.4372  -25.1019   27.5212 C   0  0  0  0  0  0  0  0  0  0  0  0
   42.2639  -28.4658   26.7892 C   0  0  0  0  0  0  0  0  0  0  0  0
   42.6187  -29.4577   27.8097 N   0  0  0  0  0  0  0  0  0  0  0  0
   41.8518  -29.5494   28.4758 H   0  0  0  0  0  0  0  0  0  0  0  0
   43.4605  -29.1551   28.2999 H   0  0  0  0  0  0  0  0  0  0  0  0
   42.5098  -20.6285   28.7272 C   0  0  0  0  0  0  0  0  0  0  0  0
   43.7081  -20.8620   29.6169 C   0  0  0  0  0  0  0  0  0  0  0  0
   43.6157  -21.6907   30.7276 C   0  0  0  0  0  0  0  0  0  0  0  0
   44.6811  -21.8220   31.6065 C   0  0  0  0  0  0  0  0  0  0  0  0
   45.8515  -21.1245   31.3873 C   0  0  0  0  0  0  0  0  0  0  0  0
   45.9524  -20.2838   30.2950 C   0  0  0  0  0  0  0  0  0  0  0  0
   44.8861  -20.1561   29.4144 C   0  0  0  0  0  0  0  0  0  0  0  0
 25 23  1  0  0  0
 25 26  1  0  0  0
 30 29  1  0  0  0
  6  5  1  0  0  0
  6  2  1  0  0  0
 39 38  2  0  0  0
 39 34  1  0  0  0
 23 24  1  0  0  0
 29 26  1  0  0  0
 33 34  1  0  0  0
 33  1  1  0  0  0
  5  4  2  0  0  0
 38 37  1  0  0  0
 20  1  1  0  0  0
 20 19  1  0  0  0
 26 27  1  0  0  0
 24 19  1  0  0  0
 24 28  1  0  0  0
 34 35  2  0  0  0
  1  2  1  0  0  0
  2  3  2  0  0  0
 27 28  1  0  0  0
 19 21  2  0  0  0
  4  3  1  0  0  0
  4  9  1  0  0  0
 37 36  2  0  0  0
 35 36  1  0  0  0
 10  9  2  0  0  0
 10  8  1  0  0  0
  9 13  1  0  0  0
  8 11  2  0  0  0
 13 12  2  0  0  0
 11 12  1  0  0  0
 11 14  1  0  0  0
 15 14  2  0  0  0
 14 16  1  0  0  0
  6  7  1  0  0  0
 20 22  1  0  0  0
 30 31  1  0  0  0
 30 32  1  0  0  0
 16 17  1  0  0  0
 16 18  1  0  0  0
M  END
> <minimizedAffinity>
-9.13729

$$$$
4TY6_39D_A_301


 39 42  0  0  0  0  0  0  0  0999 V2000
   40.2763  -20.2860   28.4016 C   0  0  0  0  0  0  0  0  0  0  0  0
   41.7697  -20.3655   28.4659 C   0  0  0  0  0  0  0  0  0  0  0  0
   42.4786  -20.6663   29.5413 N   0  0  0  0  0  0  0  0  0  0  0  0
   43.7865  -20.7331   29.0992 C   0  0  0  0  0  0  0  0  0  0  0  0
   43.8323  -20.4694   27.7595 C   0  0  0  0  0  0  0  0  0  0  0  0
   42.5509  -20.2228   27.3726 N   0  0  0  0  0  0  0  0  0  0  0  0
   42.2496  -19.9850   26.4660 H   0  0  0  0  0  0  0  0  0  0  0  0
   47.0906  -20.5896   30.8914 C   0  0  0  0  0  0  0  0  0  0  0  0
   44.8821  -21.0549   30.0283 C   0  0  0  0  0  0  0  0  0  0  0  0
   45.9978  -20.2260   30.1203 C   0  0  0  0  0  0  0  0  0  0  0  0
   47.0828  -21.7697   31.6322 C   0  0  0  0  0  0  0  0  0  0  0  0
   45.9481  -22.5806   31.5688 C   0  0  0  0  0  0  0  0  0  0  0  0
   44.8706  -22.2332   30.7706 C   0  0  0  0  0  0  0  0  0  0  0  0
   48.3381  -22.1246   32.4211 C   0  0  0  0  0  0  0  0  0  0  0  0
   49.4653  -21.8122   31.9636 O   0  0  0  0  0  0  0  0  0  0  0  0
   48.2039  -22.7680   33.5731 N   0  0  0  0  0  0  0  0  0  0  0  0
   47.3068  -22.9995   33.9061 H   0  0  0  0  0  0  0  0  0  0  0  0
   49.0015  -23.0143   34.0951 H   0  0  0  0  0  0  0  0  0  0  0  0
   39.4625  -18.2711   29.4980 C   0  0  0  0  0  0  0  0  0  0  0  0
   39.7882  -18.9178   28.3764 N   0  0  0  0  0  0  0  0  0  0  0  0
   39.6621  -18.7368   30.6241 O   0  0  0  0  0  0  0  0  0  0  0  0
   39.6954  -18.4565   27.5116 H   0  0  0  0  0  0  0  0  0  0  0  0
   37.2267  -17.1043   29.3092 C   0  0  0  0  0  0  0  0  0  0  0  0
   38.7594  -16.9380   29.2859 C   0  0  0  0  0  0  0  0  0  0  0  0
   36.5104  -15.7685   29.0313 C   0  0  0  0  0  0  0  0  0  0  0  0
   36.9573  -15.1395   27.7158 C   0  0  0  0  0  0  0  0  0  0  0  0
   38.4672  -14.9582   27.7478 C   0  0  0  0  0  0  0  0  0  0  0  0
   39.1986  -16.2891   27.9684 C   0  0  0  0  0  0  0  0  0  0  0  0
   36.2300  -13.8231   27.4251 C   0  0  0  0  0  0  0  0  0  0  0  0
   36.1867  -12.9043   28.5675 N   0  0  0  0  0  0  0  0  0  0  0  0
   37.1369  -12.6393   28.8269 H   0  0  0  0  0  0  0  0  0  0  0  0
   35.7345  -13.3649   29.3573 H   0  0  0  0  0  0  0  0  0  0  0  0
   39.7405  -21.0718   27.1918 C   0  0  0  0  0  0  0  0  0  0  0  0
   38.9826  -20.1826   26.2343 C   0  0  0  0  0  0  0  0  0  0  0  0
   39.6537  -19.4569   25.2587 C   0  0  0  0  0  0  0  0  0  0  0  0
   38.9747  -18.5578   24.4491 C   0  0  0  0  0  0  0  0  0  0  0  0
   37.6164  -18.3711   24.6066 C   0  0  0  0  0  0  0  0  0  0  0  0
   36.9381  -19.0745   25.5840 C   0  0  0  0  0  0  0  0  0  0  0  0
   37.6188  -19.9765   26.3912 C   0  0  0  0  0  0  0  0  0  0  0  0
 25 23  1  0  0  0
 25 26  1  0  0  0
 30 29  1  0  0  0
  6  5  1  0  0  0
  6  2  1  0  0  0
 39 38  2  0  0  0
 39 34  1  0  0  0
 23 24  1  0  0  0
 29 26  1  0  0  0
 33 34  1  0  0  0
 33  1  1  0  0  0
  5  4  2  0  0  0
 38 37  1  0  0  0
 20  1  1  0  0  0
 20 19  1  0  0  0
 26 27  1  0  0  0
 24 19  1  0  0  0
 24 28  1  0  0  0
 34 35  2  0  0  0
  1  2  1  0  0  0
  2  3  2  0  0  0
 27 28  1  0  0  0
 19 21  2  0  0  0
  4  3  1  0  0  0
  4  9  1  0  0  0
 37 36  2  0  0  0
 35 36  1  0  0  0
 10  9  2  0  0  0
 10  8  1  0  0  0
  9 13  1  0  0  0
  8 11  2  0  0  0
 13 12  2  0  0  0
 11 12  1  0  0  0
 11 14  1  0  0  0
 15 14  2  0  0  0
 14 16  1  0  0  0
  6  7  1  0  0  0
 20 22  1  0  0  0
 30 31  1  0  0  0
 30 32  1  0  0  0
 16 17  1  0  0  0
 16 18  1  0  0  0
M  END
> <minimizedAffinity>
-9.04506

$$$$
4TY6_39D_A_301


 39 42  0  0  0  0  0  0  0  0999 V2000
   40.4472  -20.0553   27.8639 C   0  0  0  0  0  0  0  0  0  0  0  0
   41.3682  -20.6766   28.8672 C   0  0  0  0  0  0  0  0  0  0  0  0
   42.6639  -20.4341   28.9760 N   0  0  0  0  0  0  0  0  0  0  0  0
   43.0646  -21.1332   30.0989 C   0  0  0  0  0  0  0  0  0  0  0  0
   41.9927  -21.7833   30.6419 C   0  0  0  0  0  0  0  0  0  0  0  0
   40.9270  -21.4991   29.8443 N   0  0  0  0  0  0  0  0  0  0  0  0
   40.0070  -21.8308   29.9580 H   0  0  0  0  0  0  0  0  0  0  0  0
   46.7755  -20.5184   30.1398 C   0  0  0  0  0  0  0  0  0  0  0  0
   44.4663  -21.1012   30.5481 C   0  0  0  0  0  0  0  0  0  0  0  0
   45.4351  -20.4412   29.7957 C   0  0  0  0  0  0  0  0  0  0  0  0
   47.1840  -21.2179   31.2735 C   0  0  0  0  0  0  0  0  0  0  0  0
   46.2074  -21.8468   32.0478 C   0  0  0  0  0  0  0  0  0  0  0  0
   44.8718  -21.7980   31.6836 C   0  0  0  0  0  0  0  0  0  0  0  0
   48.6787  -21.2957   31.5630 C   0  0  0  0  0  0  0  0  0  0  0  0
   49.1252  -22.2381   32.2631 O   0  0  0  0  0  0  0  0  0  0  0  0
   49.4710  -20.3521   31.0721 N   0  0  0  0  0  0  0  0  0  0  0  0
   49.0918  -19.6256   30.5265 H   0  0  0  0  0  0  0  0  0  0  0  0
   50.4384  -20.3781   31.2534 H   0  0  0  0  0  0  0  0  0  0  0  0
   38.5936  -18.6037   28.4814 C   0  0  0  0  0  0  0  0  0  0  0  0
   39.9055  -18.7838   28.3119 N   0  0  0  0  0  0  0  0  0  0  0  0
   37.7720  -19.5208   28.3878 O   0  0  0  0  0  0  0  0  0  0  0  0
   40.5206  -18.0371   28.4949 H   0  0  0  0  0  0  0  0  0  0  0  0
   36.6413  -17.0399   28.8541 C   0  0  0  0  0  0  0  0  0  0  0  0
   38.1734  -17.1626   28.7323 C   0  0  0  0  0  0  0  0  0  0  0  0
   36.2064  -15.5739   29.0444 C   0  0  0  0  0  0  0  0  0  0  0  0
   36.7254  -14.6711   27.9301 C   0  0  0  0  0  0  0  0  0  0  0  0
   38.2404  -14.7923   27.8675 C   0  0  0  0  0  0  0  0  0  0  0  0
   38.6890  -16.2392   27.6226 C   0  0  0  0  0  0  0  0  0  0  0  0
   36.2752  -13.2174   28.1037 C   0  0  0  0  0  0  0  0  0  0  0  0
   36.0129  -12.5224   26.8390 N   0  0  0  0  0  0  0  0  0  0  0  0
   35.2497  -12.9875   26.3475 H   0  0  0  0  0  0  0  0  0  0  0  0
   36.8523  -12.5420   26.2598 H   0  0  0  0  0  0  0  0  0  0  0  0
   41.1514  -19.8926   26.5054 C   0  0  0  0  0  0  0  0  0  0  0  0
   40.2577  -19.2284   25.4845 C   0  0  0  0  0  0  0  0  0  0  0  0
   40.5537  -17.9604   25.0014 C   0  0  0  0  0  0  0  0  0  0  0  0
   39.6797  -17.3037   24.1472 C   0  0  0  0  0  0  0  0  0  0  0  0
   38.4974  -17.9056   23.7673 C   0  0  0  0  0  0  0  0  0  0  0  0
   38.1819  -19.1607   24.2527 C   0  0  0  0  0  0  0  0  0  0  0  0
   39.0596  -19.8178   25.1050 C   0  0  0  0  0  0  0  0  0  0  0  0
 25 23  1  0  0  0
 25 26  1  0  0  0
 30 29  1  0  0  0
  6  5  1  0  0  0
  6  2  1  0  0  0
 39 38  2  0  0  0
 39 34  1  0  0  0
 23 24  1  0  0  0
 29 26  1  0  0  0
 33 34  1  0  0  0
 33  1  1  0  0  0
  5  4  2  0  0  0
 38 37  1  0  0  0
 20  1  1  0  0  0
 20 19  1  0  0  0
 26 27  1  0  0  0
 24 19  1  0  0  0
 24 28  1  0  0  0
 34 35  2  0  0  0
  1  2  1  0  0  0
  2  3  2  0  0  0
 27 28  1  0  0  0
 19 21  2  0  0  0
  4  3  1  0  0  0
  4  9  1  0  0  0
 37 36  2  0  0  0
 35 36  1  0  0  0
 10  9  2  0  0  0
 10  8  1  0  0  0
  9 13  1  0  0  0
  8 11  2  0  0  0
 13 12  2  0  0  0
 11 12  1  0  0  0
 11 14  1  0  0  0
 15 14  2  0  0  0
 14 16  1  0  0  0
  6  7  1  0  0  0
 20 22  1  0  0  0
 30 31  1  0  0  0
 30 32  1  0  0  0
 16 17  1  0  0  0
 16 18  1  0  0  0
M  END
> <minimizedAffinity>
-8.80660

$$$$
4TY6_39D_A_301


 39 42  0  0  0  0  0  0  0  0999 V2000
   40.6447  -21.4610   27.5838 C   0  0  0  0  0  0  0  0  0  0  0  0
   39.4292  -20.5945   27.6953 C   0  0  0  0  0  0  0  0  0  0  0  0
   39.4323  -19.2808   27.8494 N   0  0  0  0  0  0  0  0  0  0  0  0
   38.1022  -18.9108   27.7839 C   0  0  0  0  0  0  0  0  0  0  0  0
   37.3265  -20.0186   27.5904 C   0  0  0  0  0  0  0  0  0  0  0  0
   38.1767  -21.0808   27.5514 N   0  0  0  0  0  0  0  0  0  0  0  0
   37.9261  -22.0262   27.4394 H   0  0  0  0  0  0  0  0  0  0  0  0
   36.4916  -15.7722   29.0897 C   0  0  0  0  0  0  0  0  0  0  0  0
   37.7038  -17.4994   27.9123 C   0  0  0  0  0  0  0  0  0  0  0  0
   36.9847  -17.0659   29.0238 C   0  0  0  0  0  0  0  0  0  0  0  0
   36.7427  -14.8578   28.0688 C   0  0  0  0  0  0  0  0  0  0  0  0
   37.4961  -15.2832   26.9731 C   0  0  0  0  0  0  0  0  0  0  0  0
   37.9589  -16.5863   26.8922 C   0  0  0  0  0  0  0  0  0  0  0  0
   36.1303  -13.4671   28.1908 C   0  0  0  0  0  0  0  0  0  0  0  0
   35.2677  -13.2464   29.0767 O   0  0  0  0  0  0  0  0  0  0  0  0
   36.5213  -12.5241   27.3441 N   0  0  0  0  0  0  0  0  0  0  0  0
   37.1996  -12.7271   26.6601 H   0  0  0  0  0  0  0  0  0  0  0  0
   36.1331  -11.6210   27.3995 H   0  0  0  0  0  0  0  0  0  0  0  0
   42.8037  -20.6271   28.3371 C   0  0  0  0  0  0  0  0  0  0  0  0
   41.6255  -21.1873   28.6202 N   0  0  0  0  0  0  0  0  0  0  0  0
   43.0919  -20.1992   27.2152 O   0  0  0  0  0  0  0  0  0  0  0  0
   41.4162  -21.4205   29.5535 H   0  0  0  0  0  0  0  0  0  0  0  0
   45.2515  -20.6592   28.9722 C   0  0  0  0  0  0  0  0  0  0  0  0
   43.7992  -20.6160   29.4883 C   0  0  0  0  0  0  0  0  0  0  0  0
   46.2616  -20.7127   30.1346 C   0  0  0  0  0  0  0  0  0  0  0  0
   45.9957  -21.8847   31.0736 C   0  0  0  0  0  0  0  0  0  0  0  0
   44.5681  -21.7850   31.5890 C   0  0  0  0  0  0  0  0  0  0  0  0
   43.5454  -21.7867   30.4449 C   0  0  0  0  0  0  0  0  0  0  0  0
   47.0124  -21.9545   32.2172 C   0  0  0  0  0  0  0  0  0  0  0  0
   47.6266  -23.2757   32.3853 N   0  0  0  0  0  0  0  0  0  0  0  0
   48.1471  -23.5184   31.5424 H   0  0  0  0  0  0  0  0  0  0  0  0
   46.8982  -23.9712   32.5472 H   0  0  0  0  0  0  0  0  0  0  0  0
   40.2549  -22.9497   27.5901 C   0  0  0  0  0  0  0  0  0  0  0  0
   41.3060  -23.8035   28.2597 C   0  0  0  0  0  0  0  0  0  0  0  0
   42.4543  -24.1804   27.5756 C   0  0  0  0  0  0  0  0  0  0  0  0
   43.3689  -25.0521   28.1489 C   0  0  0  0  0  0  0  0  0  0  0  0
   43.1454  -25.5599   29.4125 C   0  0  0  0  0  0  0  0  0  0  0  0
   41.9991  -25.2062   30.0989 C   0  0  0  0  0  0  0  0  0  0  0  0
   41.0864  -24.3310   29.5248 C   0  0  0  0  0  0  0  0  0  0  0  0
 25 23  1  0  0  0
 25 26  1  0  0  0
 30 29  1  0  0  0
  6  5  1  0  0  0
  6  2  1  0  0  0
 39 38  2  0  0  0
 39 34  1  0  0  0
 23 24  1  0  0  0
 29 26  1  0  0  0
 33 34  1  0  0  0
 33  1  1  0  0  0
  5  4  2  0  0  0
 38 37  1  0  0  0
 20  1  1  0  0  0
 20 19  1  0  0  0
 26 27  1  0  0  0
 24 19  1  0  0  0
 24 28  1  0  0  0
 34 35  2  0  0  0
  1  2  1  0  0  0
  2  3  2  0  0  0
 27 28  1  0  0  0
 19 21  2  0  0  0
  4  3  1  0  0  0
  4  9  1  0  0  0
 37 36  2  0  0  0
 35 36  1  0  0  0
 10  9  2  0  0  0
 10  8  1  0  0  0
  9 13  1  0  0  0
  8 11  2  0  0  0
 13 12  2  0  0  0
 11 12  1  0  0  0
 11 14  1  0  0  0
 15 14  2  0  0  0
 14 16  1  0  0  0
  6  7  1  0  0  0
 20 22  1  0  0  0
 30 31  1  0  0  0
 30 32  1  0  0  0
 16 17  1  0  0  0
 16 18  1  0  0  0
M  END
> <minimizedAffinity>
-8.56179

$$$$
4TY6_39D_A_301


 39 42  0  0  0  0  0  0  0  0999 V2000
   41.5352  -20.6994   29.3631 C   0  0  0  0  0  0  0  0  0  0  0  0
   40.2265  -20.0188   29.1082 C   0  0  0  0  0  0  0  0  0  0  0  0
   40.0124  -18.7151   29.1699 N   0  0  0  0  0  0  0  0  0  0  0  0
   38.7067  -18.5477   28.7485 C   0  0  0  0  0  0  0  0  0  0  0  0
   38.1639  -19.7632   28.4414 C   0  0  0  0  0  0  0  0  0  0  0  0
   39.1309  -20.6888   28.6878 N   0  0  0  0  0  0  0  0  0  0  0  0
   39.0476  -21.6639   28.5801 H   0  0  0  0  0  0  0  0  0  0  0  0
   36.1894  -15.7624   28.9842 C   0  0  0  0  0  0  0  0  0  0  0  0
   38.1018  -17.2073   28.6783 C   0  0  0  0  0  0  0  0  0  0  0  0
   36.8161  -16.9852   29.1660 C   0  0  0  0  0  0  0  0  0  0  0  0
   36.8461  -14.7087   28.3518 C   0  0  0  0  0  0  0  0  0  0  0  0
   38.1489  -14.9215   27.8975 C   0  0  0  0  0  0  0  0  0  0  0  0
   38.7615  -16.1546   28.0489 C   0  0  0  0  0  0  0  0  0  0  0  0
   36.0768  -13.4084   28.1488 C   0  0  0  0  0  0  0  0  0  0  0  0
   35.2801  -13.0157   29.0368 O   0  0  0  0  0  0  0  0  0  0  0  0
   36.2642  -12.7278   27.0259 N   0  0  0  0  0  0  0  0  0  0  0  0
   36.8956  -13.0609   26.3480 H   0  0  0  0  0  0  0  0  0  0  0  0
   35.7718  -11.8896   26.8703 H   0  0  0  0  0  0  0  0  0  0  0  0
   42.2685  -22.8361   30.2690 C   0  0  0  0  0  0  0  0  0  0  0  0
   41.3954  -22.1343   29.5428 N   0  0  0  0  0  0  0  0  0  0  0  0
   43.1716  -22.3100   30.9266 O   0  0  0  0  0  0  0  0  0  0  0  0
   40.6387  -22.6002   29.1190 H   0  0  0  0  0  0  0  0  0  0  0  0
   43.1909  -24.9641   29.2606 C   0  0  0  0  0  0  0  0  0  0  0  0
   42.1116  -24.3469   30.1725 C   0  0  0  0  0  0  0  0  0  0  0  0
   42.9978  -26.4853   29.1084 C   0  0  0  0  0  0  0  0  0  0  0  0
   41.6047  -26.8398   28.5989 C   0  0  0  0  0  0  0  0  0  0  0  0
   40.5718  -26.2456   29.5443 C   0  0  0  0  0  0  0  0  0  0  0  0
   40.7150  -24.7225   29.6640 C   0  0  0  0  0  0  0  0  0  0  0  0
   41.4174  -28.3499   28.4241 C   0  0  0  0  0  0  0  0  0  0  0  0
   41.4780  -29.1047   29.6802 N   0  0  0  0  0  0  0  0  0  0  0  0
   40.7202  -28.8051   30.2938 H   0  0  0  0  0  0  0  0  0  0  0  0
   42.3736  -28.9330   30.1372 H   0  0  0  0  0  0  0  0  0  0  0  0
   42.5374  -20.3923   28.2364 C   0  0  0  0  0  0  0  0  0  0  0  0
   41.9920  -20.7715   26.8796 C   0  0  0  0  0  0  0  0  0  0  0  0
   41.5026  -19.8004   26.0158 C   0  0  0  0  0  0  0  0  0  0  0  0
   40.9027  -20.1542   24.8159 C   0  0  0  0  0  0  0  0  0  0  0  0
   40.7824  -21.4836   24.4658 C   0  0  0  0  0  0  0  0  0  0  0  0
   41.2506  -22.4617   25.3227 C   0  0  0  0  0  0  0  0  0  0  0  0
   41.8537  -22.1055   26.5219 C   0  0  0  0  0  0  0  0  0  0  0  0
 25 23  1  0  0  0
 25 26  1  0  0  0
 30 29  1  0  0  0
  6  5  1  0  0  0
  6  2  1  0  0  0
 39 38  2  0  0  0
 39 34  1  0  0  0
 23 24  1  0  0  0
 29 26  1  0  0  0
 33 34  1  0  0  0
 33  1  1  0  0  0
  5  4  2  0  0  0
 38 37  1  0  0  0
 20  1  1  0  0  0
 20 19  1  0  0  0
 26 27  1  0  0  0
 24 19  1  0  0  0
 24 28  1  0  0  0
 34 35  2  0  0  0
  1  2  1  0  0  0
  2  3  2  0  0  0
 27 28  1  0  0  0
 19 21  2  0  0  0
  4  3  1  0  0  0
  4  9  1  0  0  0
 37 36  2  0  0  0
 35 36  1  0  0  0
 10  9  2  0  0  0
 10  8  1  0  0  0
  9 13  1  0  0  0
  8 11  2  0  0  0
 13 12  2  0  0  0
 11 12  1  0  0  0
 11 14  1  0  0  0
 15 14  2  0  0  0
 14 16  1  0  0  0
  6  7  1  0  0  0
 20 22  1  0  0  0
 30 31  1  0  0  0
 30 32  1  0  0  0
 16 17  1  0  0  0
 16 18  1  0  0  0
M  END
> <minimizedAffinity>
-8.52170

$$$$
4TY6_39D_A_301


 39 42  0  0  0  0  0  0  0  0999 V2000
   41.0803  -21.2658   28.8819 C   0  0  0  0  0  0  0  0  0  0  0  0
   39.8485  -20.4377   28.6872 C   0  0  0  0  0  0  0  0  0  0  0  0
   39.7705  -19.1265   28.8414 N   0  0  0  0  0  0  0  0  0  0  0  0
   38.4882  -18.7962   28.4451 C   0  0  0  0  0  0  0  0  0  0  0  0
   37.8220  -19.9248   28.0593 C   0  0  0  0  0  0  0  0  0  0  0  0
   38.6885  -20.9602   28.2317 N   0  0  0  0  0  0  0  0  0  0  0  0
   38.5046  -21.9115   28.0572 H   0  0  0  0  0  0  0  0  0  0  0  0
   36.2687  -15.7910   28.8833 C   0  0  0  0  0  0  0  0  0  0  0  0
   38.0252  -17.3991   28.4739 C   0  0  0  0  0  0  0  0  0  0  0  0
   36.7646  -17.0821   28.9746 C   0  0  0  0  0  0  0  0  0  0  0  0
   37.0362  -14.7669   28.3323 C   0  0  0  0  0  0  0  0  0  0  0  0
   38.3145  -15.0789   27.8657 C   0  0  0  0  0  0  0  0  0  0  0  0
   38.7955  -16.3765   27.9258 C   0  0  0  0  0  0  0  0  0  0  0  0
   36.4068  -13.3826   28.2255 C   0  0  0  0  0  0  0  0  0  0  0  0
   35.5064  -13.0482   29.0349 O   0  0  0  0  0  0  0  0  0  0  0  0
   36.8236  -12.5673   27.2661 N   0  0  0  0  0  0  0  0  0  0  0  0
   37.5314  -12.8576   26.6464 H   0  0  0  0  0  0  0  0  0  0  0  0
   36.4253  -11.6717   27.1736 H   0  0  0  0  0  0  0  0  0  0  0  0
   42.6477  -21.2199   27.0203 C   0  0  0  0  0  0  0  0  0  0  0  0
   42.2362  -20.7228   28.1890 N   0  0  0  0  0  0  0  0  0  0  0  0
   42.0179  -22.0799   26.3970 O   0  0  0  0  0  0  0  0  0  0  0  0
   42.7277  -19.9705   28.5910 H   0  0  0  0  0  0  0  0  0  0  0  0
   44.5519  -21.5570   25.3906 C   0  0  0  0  0  0  0  0  0  0  0  0
   43.9939  -20.6958   26.5414 C   0  0  0  0  0  0  0  0  0  0  0  0
   45.9440  -21.0691   24.9451 C   0  0  0  0  0  0  0  0  0  0  0  0
   46.9348  -21.0229   26.1036 C   0  0  0  0  0  0  0  0  0  0  0  0
   46.3653  -20.1355   27.1999 C   0  0  0  0  0  0  0  0  0  0  0  0
   45.0030  -20.6399   27.6942 C   0  0  0  0  0  0  0  0  0  0  0  0
   48.3260  -20.5607   25.6595 C   0  0  0  0  0  0  0  0  0  0  0  0
   48.5077  -19.1058   25.6964 N   0  0  0  0  0  0  0  0  0  0  0  0
   48.4034  -18.7743   26.6554 H   0  0  0  0  0  0  0  0  0  0  0  0
   47.8065  -18.6604   25.1045 H   0  0  0  0  0  0  0  0  0  0  0  0
   41.3848  -21.4455   30.3796 C   0  0  0  0  0  0  0  0  0  0  0  0
   42.5791  -22.3422   30.6071 C   0  0  0  0  0  0  0  0  0  0  0  0
   43.7688  -21.8259   31.1038 C   0  0  0  0  0  0  0  0  0  0  0  0
   44.8990  -22.6233   31.2119 C   0  0  0  0  0  0  0  0  0  0  0  0
   44.8545  -23.9464   30.8224 C   0  0  0  0  0  0  0  0  0  0  0  0
   43.6819  -24.4699   30.3113 C   0  0  0  0  0  0  0  0  0  0  0  0
   42.5507  -23.6711   30.2069 C   0  0  0  0  0  0  0  0  0  0  0  0
 25 23  1  0  0  0
 25 26  1  0  0  0
 30 29  1  0  0  0
  6  5  1  0  0  0
  6  2  1  0  0  0
 39 38  2  0  0  0
 39 34  1  0  0  0
 23 24  1  0  0  0
 29 26  1  0  0  0
 33 34  1  0  0  0
 33  1  1  0  0  0
  5  4  2  0  0  0
 38 37  1  0  0  0
 20  1  1  0  0  0
 20 19  1  0  0  0
 26 27  1  0  0  0
 24 19  1  0  0  0
 24 28  1  0  0  0
 34 35  2  0  0  0
  1  2  1  0  0  0
  2  3  2  0  0  0
 27 28  1  0  0  0
 19 21  2  0  0  0
  4  3  1  0  0  0
  4  9  1  0  0  0
 37 36  2  0  0  0
 35 36  1  0  0  0
 10  9  2  0  0  0
 10  8  1  0  0  0
  9 13  1  0  0  0
  8 11  2  0  0  0
 13 12  2  0  0  0
 11 12  1  0  0  0
 11 14  1  0  0  0
 15 14  2  0  0  0
 14 16  1  0  0  0
  6  7  1  0  0  0
 20 22  1  0  0  0
 30 31  1  0  0  0
 30 32  1  0  0  0
 16 17  1  0  0  0
 16 18  1  0  0  0
M  END
> <minimizedAffinity>
-8.32877

$$$$
4TY6_39D_A_301


 39 42  0  0  0  0  0  0  0  0999 V2000
   39.9422  -20.5592   28.1138 C   0  0  0  0  0  0  0  0  0  0  0  0
   40.9622  -21.0455   29.0956 C   0  0  0  0  0  0  0  0  0  0  0  0
   42.2713  -20.8933   28.9841 N   0  0  0  0  0  0  0  0  0  0  0  0
   42.7901  -21.3898   30.1652 C   0  0  0  0  0  0  0  0  0  0  0  0
   41.7732  -21.8311   30.9636 C   0  0  0  0  0  0  0  0  0  0  0  0
   40.6214  -21.6222   30.2692 N   0  0  0  0  0  0  0  0  0  0  0  0
   39.7105  -21.8488   30.5663 H   0  0  0  0  0  0  0  0  0  0  0  0
   46.1595  -22.2653   31.5900 C   0  0  0  0  0  0  0  0  0  0  0  0
   44.2412  -21.3853   30.4134 C   0  0  0  0  0  0  0  0  0  0  0  0
   44.8192  -22.3415   31.2452 C   0  0  0  0  0  0  0  0  0  0  0  0
   46.9745  -21.2588   31.0759 C   0  0  0  0  0  0  0  0  0  0  0  0
   46.4019  -20.3236   30.2120 C   0  0  0  0  0  0  0  0  0  0  0  0
   45.0545  -20.3805   29.8956 C   0  0  0  0  0  0  0  0  0  0  0  0
   48.4274  -21.2138   31.5353 C   0  0  0  0  0  0  0  0  0  0  0  0
   48.8215  -22.0127   32.4207 O   0  0  0  0  0  0  0  0  0  0  0  0
   49.2388  -20.3174   30.9901 N   0  0  0  0  0  0  0  0  0  0  0  0
   48.9009  -19.7042   30.2979 H   0  0  0  0  0  0  0  0  0  0  0  0
   50.1789  -20.2651   31.2775 H   0  0  0  0  0  0  0  0  0  0  0  0
   38.2932  -18.7693   28.0806 C   0  0  0  0  0  0  0  0  0  0  0  0
   39.5270  -19.1904   28.3683 N   0  0  0  0  0  0  0  0  0  0  0  0
   37.3970  -19.5273   27.6972 O   0  0  0  0  0  0  0  0  0  0  0  0
   40.1708  -18.5583   28.7623 H   0  0  0  0  0  0  0  0  0  0  0  0
   37.0193  -16.9250   29.2518 C   0  0  0  0  0  0  0  0  0  0  0  0
   38.0885  -17.2654   28.1942 C   0  0  0  0  0  0  0  0  0  0  0  0
   36.7623  -15.4074   29.3254 C   0  0  0  0  0  0  0  0  0  0  0  0
   36.3753  -14.8236   27.9707 C   0  0  0  0  0  0  0  0  0  0  0  0
   37.4707  -15.1483   26.9666 C   0  0  0  0  0  0  0  0  0  0  0  0
   37.7010  -16.6602   26.8401 C   0  0  0  0  0  0  0  0  0  0  0  0
   36.0962  -13.3193   28.0452 C   0  0  0  0  0  0  0  0  0  0  0  0
   37.0427  -12.5016   27.2793 N   0  0  0  0  0  0  0  0  0  0  0  0
   36.9773  -12.7425   26.2903 H   0  0  0  0  0  0  0  0  0  0  0  0
   37.9910  -12.6791   27.6105 H   0  0  0  0  0  0  0  0  0  0  0  0
   40.4602  -20.7063   26.6723 C   0  0  0  0  0  0  0  0  0  0  0  0
   39.6969  -21.7603   25.9051 C   0  0  0  0  0  0  0  0  0  0  0  0
   39.8712  -21.9052   24.5349 C   0  0  0  0  0  0  0  0  0  0  0  0
   39.0940  -22.7972   23.8103 C   0  0  0  0  0  0  0  0  0  0  0  0
   38.1309  -23.5538   24.4463 C   0  0  0  0  0  0  0  0  0  0  0  0
   37.9352  -23.4088   25.8067 C   0  0  0  0  0  0  0  0  0  0  0  0
   38.7164  -22.5177   26.5309 C   0  0  0  0  0  0  0  0  0  0  0  0
 25 23  1  0  0  0
 25 26  1  0  0  0
 30 29  1  0  0  0
  6  5  1  0  0  0
  6  2  1  0  0  0
 39 38  2  0  0  0
 39 34  1  0  0  0
 23 24  1  0  0  0
 29 26  1  0  0  0
 33 34  1  0  0  0
 33  1  1  0  0  0
  5  4  2  0  0  0
 38 37  1  0  0  0
 20  1  1  0  0  0
 20 19  1  0  0  0
 26 27  1  0  0  0
 24 19  1  0  0  0
 24 28  1  0  0  0
 34 35  2  0  0  0
  1  2  1  0  0  0
  2  3  2  0  0  0
 27 28  1  0  0  0
 19 21  2  0  0  0
  4  3  1  0  0  0
  4  9  1  0  0  0
 37 36  2  0  0  0
 35 36  1  0  0  0
 10  9  2  0  0  0
 10  8  1  0  0  0
  9 13  1  0  0  0
  8 11  2  0  0  0
 13 12  2  0  0  0
 11 12  1  0  0  0
 11 14  1  0  0  0
 15 14  2  0  0  0
 14 16  1  0  0  0
  6  7  1  0  0  0
 20 22  1  0  0  0
 30 31  1  0  0  0
 30 32  1  0  0  0
 16 17  1  0  0  0
 16 18  1  0  0  0
M  END
> <minimizedAffinity>
-8.04257

$$$$
4TY6_39D_A_301


 39 42  0  0  0  0  0  0  0  0999 V2000
   43.7103  -21.4976   29.8362 C   0  0  0  0  0  0  0  0  0  0  0  0
   42.3024  -21.1730   29.4446 C   0  0  0  0  0  0  0  0  0  0  0  0
   41.8840  -20.0114   28.9704 N   0  0  0  0  0  0  0  0  0  0  0  0
   40.5564  -20.2161   28.6452 C   0  0  0  0  0  0  0  0  0  0  0  0
   40.2065  -21.5049   28.9335 C   0  0  0  0  0  0  0  0  0  0  0  0
   41.3163  -22.0968   29.4537 N   0  0  0  0  0  0  0  0  0  0  0  0
   41.3872  -23.0243   29.7762 H   0  0  0  0  0  0  0  0  0  0  0  0
   39.5869  -17.1121   26.7544 C   0  0  0  0  0  0  0  0  0  0  0  0
   39.7427  -19.1303   28.0740 C   0  0  0  0  0  0  0  0  0  0  0  0
   40.3076  -18.2122   27.1918 C   0  0  0  0  0  0  0  0  0  0  0  0
   38.2637  -16.9212   27.1472 C   0  0  0  0  0  0  0  0  0  0  0  0
   37.6870  -17.8631   28.0011 C   0  0  0  0  0  0  0  0  0  0  0  0
   38.4192  -18.9435   28.4652 C   0  0  0  0  0  0  0  0  0  0  0  0
   37.5499  -15.6650   26.6611 C   0  0  0  0  0  0  0  0  0  0  0  0
   36.6396  -15.1595   27.3635 O   0  0  0  0  0  0  0  0  0  0  0  0
   37.9060  -15.1428   25.4950 N   0  0  0  0  0  0  0  0  0  0  0  0
   38.6234  -15.5615   24.9666 H   0  0  0  0  0  0  0  0  0  0  0  0
   37.4528  -14.3364   25.1579 H   0  0  0  0  0  0  0  0  0  0  0  0
   44.4978  -23.5149   30.9473 C   0  0  0  0  0  0  0  0  0  0  0  0
   43.9668  -22.9272   29.8726 N   0  0  0  0  0  0  0  0  0  0  0  0
   44.6939  -22.9189   32.0108 O   0  0  0  0  0  0  0  0  0  0  0  0
   43.7437  -23.4756   29.0860 H   0  0  0  0  0  0  0  0  0  0  0  0
   45.8292  -25.4507   31.8833 C   0  0  0  0  0  0  0  0  0  0  0  0
   44.9105  -24.9657   30.7439 C   0  0  0  0  0  0  0  0  0  0  0  0
   46.3016  -26.8986   31.6490 C   0  0  0  0  0  0  0  0  0  0  0  0
   46.9932  -27.0664   30.3001 C   0  0  0  0  0  0  0  0  0  0  0  0
   46.0425  -26.6132   29.2027 C   0  0  0  0  0  0  0  0  0  0  0  0
   45.6058  -25.1542   29.3906 C   0  0  0  0  0  0  0  0  0  0  0  0
   47.4849  -28.4994   30.0742 C   0  0  0  0  0  0  0  0  0  0  0  0
   47.6631  -29.2675   31.3109 N   0  0  0  0  0  0  0  0  0  0  0  0
   46.7655  -29.3590   31.7866 H   0  0  0  0  0  0  0  0  0  0  0  0
   48.3228  -28.7834   31.9197 H   0  0  0  0  0  0  0  0  0  0  0  0
   44.7113  -20.7939   28.9030 C   0  0  0  0  0  0  0  0  0  0  0  0
   46.1366  -20.9694   29.3719 C   0  0  0  0  0  0  0  0  0  0  0  0
   47.0272  -21.7567   28.6538 C   0  0  0  0  0  0  0  0  0  0  0  0
   48.3031  -22.0077   29.1374 C   0  0  0  0  0  0  0  0  0  0  0  0
   48.7037  -21.4766   30.3465 C   0  0  0  0  0  0  0  0  0  0  0  0
   47.8228  -20.7043   31.0798 C   0  0  0  0  0  0  0  0  0  0  0  0
   46.5472  -20.4514   30.5925 C   0  0  0  0  0  0  0  0  0  0  0  0
 25 23  1  0  0  0
 25 26  1  0  0  0
 30 29  1  0  0  0
  6  5  1  0  0  0
  6  2  1  0  0  0
 39 38  2  0  0  0
 39 34  1  0  0  0
 23 24  1  0  0  0
 29 26  1  0  0  0
 33 34  1  0  0  0
 33  1  1  0  0  0
  5  4  2  0  0  0
 38 37  1  0  0  0
 20  1  1  0  0  0
 20 19  1  0  0  0
 26 27  1  0  0  0
 24 19  1  0  0  0
 24 28  1  0  0  0
 34 35  2  0  0  0
  1  2  1  0  0  0
  2  3  2  0  0  0
 27 28  1  0  0  0
 19 21  2  0  0  0
  4  3  1  0  0  0
  4  9  1  0  0  0
 37 36  2  0  0  0
 35 36  1  0  0  0
 10  9  2  0  0  0
 10  8  1  0  0  0
  9 13  1  0  0  0
  8 11  2  0  0  0
 13 12  2  0  0  0
 11 12  1  0  0  0
 11 14  1  0  0  0
 15 14  2  0  0  0
 14 16  1  0  0  0
  6  7  1  0  0  0
 20 22  1  0  0  0
 30 31  1  0  0  0
 30 32  1  0  0  0
 16 17  1  0  0  0
 16 18  1  0  0  0
M  END
> <minimizedAffinity>
-7.90490

$$$$
