1YFZ_IMP_A_1210


 28 30  0  0  0  0  0  0  0  0999 V2000
   41.5538   35.1067   63.4445 C   0  0  0  0  0  0  0  0  0  0  0  0
   42.2896   34.8750   62.1727 O   0  0  0  0  0  0  0  0  0  0  0  0
   40.0731   34.7588   63.1178 C   0  0  0  0  0  0  0  0  0  0  0  0
   39.1729   35.8305   63.3982 O   0  0  0  0  0  0  0  0  0  0  0  0
   40.0417   34.3855   61.6477 C   0  0  0  0  0  0  0  0  0  0  0  0
   38.8661   34.7924   60.9788 O   0  0  0  0  0  0  0  0  0  0  0  0
   41.3189   35.0460   61.1551 C   0  0  0  0  0  0  0  0  0  0  0  0
   39.4146   36.6038   62.8648 H   0  0  0  0  0  0  0  0  0  0  0  0
   38.7608   35.7528   61.0653 H   0  0  0  0  0  0  0  0  0  0  0  0
   41.8209   34.4224   59.8709 N   0  0  0  0  0  0  0  0  0  0  0  0
   42.7418   33.4185   59.7044 C   0  0  0  0  0  0  0  0  0  0  0  0
   42.9529   33.1130   58.4596 N   0  0  0  0  0  0  0  0  0  0  0  0
   42.1476   33.9374   57.7311 C   0  0  0  0  0  0  0  0  0  0  0  0
   41.9530   34.0543   56.3073 C   0  0  0  0  0  0  0  0  0  0  0  0
   42.5107   33.4004   55.4208 O   0  0  0  0  0  0  0  0  0  0  0  0
   40.9984   35.0631   55.9389 N   0  0  0  0  0  0  0  0  0  0  0  0
   40.3242   35.8486   56.8824 C   0  0  0  0  0  0  0  0  0  0  0  0
   40.5208   35.7226   58.2252 N   0  0  0  0  0  0  0  0  0  0  0  0
   41.4186   34.7725   58.5769 C   0  0  0  0  0  0  0  0  0  0  0  0
   40.8105   35.2082   54.9834 H   0  0  0  0  0  0  0  0  0  0  0  0
   42.3155   34.2589   64.4477 C   0  0  0  0  0  0  0  0  0  0  0  0
   43.1498   34.9673   65.4080 O   0  0  0  0  0  0  0  0  0  0  0  0
   42.4352   35.3374   66.8118 P   0  0  0  0  0  0  0  0  0  0  0  0
   41.6461   34.1961   67.3610 O   0  0  0  0  0  0  0  0  0  0  0  0
   41.5174   36.4940   66.5696 O   0  0  0  0  0  0  0  0  0  0  0  0
   43.5818   35.7408   67.7542 O   0  0  0  0  0  0  0  0  0  0  0  0
   41.0757   36.7354   67.3988 H   0  0  0  0  0  0  0  0  0  0  0  0
   43.2189   35.9772   68.6222 H   0  0  0  0  0  0  0  0  0  0  0  0
 23 24  2  0  0  0
 23 25  1  0  0  0
 23 26  1  0  0  0
 23 22  1  0  0  0
 22 21  1  0  0  0
 21  1  1  0  0  0
  1  2  1  0  0  0
  1  3  1  0  0  0
  2  7  1  0  0  0
  3  4  1  0  0  0
  3  5  1  0  0  0
  5  6  1  0  0  0
  5  7  1  0  0  0
  7 10  1  0  0  0
 10 11  1  0  0  0
 10 19  1  0  0  0
 11 12  2  0  0  0
 12 13  1  0  0  0
 13 14  1  0  0  0
 13 19  2  0  0  0
 14 15  2  0  0  0
 14 16  1  0  0  0
 16 17  1  0  0  0
 17 18  2  0  0  0
 18 19  1  0  0  0
 25 27  1  0  0  0
 26 28  1  0  0  0
  4  8  1  0  0  0
  6  9  1  0  0  0
 16 20  1  0  0  0
M  END
> <minimizedAffinity>
-8.51929

$$$$
1YFZ_IMP_A_1210


 28 30  0  0  0  0  0  0  0  0999 V2000
   42.9859   35.3761   59.7045 C   0  0  0  0  0  0  0  0  0  0  0  0
   44.2228   36.1462   59.4056 O   0  0  0  0  0  0  0  0  0  0  0  0
   42.2845   36.1731   60.8415 C   0  0  0  0  0  0  0  0  0  0  0  0
   42.0324   35.3834   62.0035 O   0  0  0  0  0  0  0  0  0  0  0  0
   43.1952   37.3439   61.1601 C   0  0  0  0  0  0  0  0  0  0  0  0
   43.2197   37.6944   62.5281 O   0  0  0  0  0  0  0  0  0  0  0  0
   44.5174   36.8400   60.6052 C   0  0  0  0  0  0  0  0  0  0  0  0
   42.8723   35.0507   62.3568 H   0  0  0  0  0  0  0  0  0  0  0  0
   43.4935   36.9265   63.0537 H   0  0  0  0  0  0  0  0  0  0  0  0
   45.4765   37.9724   60.3089 N   0  0  0  0  0  0  0  0  0  0  0  0
   45.9831   38.3768   59.0992 C   0  0  0  0  0  0  0  0  0  0  0  0
   46.7903   39.3905   59.1905 N   0  0  0  0  0  0  0  0  0  0  0  0
   46.8482   39.7034   60.5162 C   0  0  0  0  0  0  0  0  0  0  0  0
   47.5755   40.7340   61.2145 C   0  0  0  0  0  0  0  0  0  0  0  0
   48.3332   41.5767   60.7241 O   0  0  0  0  0  0  0  0  0  0  0  0
   47.3609   40.7267   62.6352 N   0  0  0  0  0  0  0  0  0  0  0  0
   46.5192   39.8040   63.2693 C   0  0  0  0  0  0  0  0  0  0  0  0
   45.8386   38.8369   62.5916 N   0  0  0  0  0  0  0  0  0  0  0  0
   46.0372   38.8408   61.2526 C   0  0  0  0  0  0  0  0  0  0  0  0
   47.8247   41.3981   63.1858 H   0  0  0  0  0  0  0  0  0  0  0  0
   42.3114   35.2596   58.3492 C   0  0  0  0  0  0  0  0  0  0  0  0
   42.5126   34.0159   57.6193 O   0  0  0  0  0  0  0  0  0  0  0  0
   42.3071   34.1079   56.0169 P   0  0  0  0  0  0  0  0  0  0  0  0
   43.0345   35.2663   55.4206 O   0  0  0  0  0  0  0  0  0  0  0  0
   40.8429   34.2603   55.7491 O   0  0  0  0  0  0  0  0  0  0  0  0
   42.8242   32.7681   55.4662 O   0  0  0  0  0  0  0  0  0  0  0  0
   40.6934   34.3178   54.7924 H   0  0  0  0  0  0  0  0  0  0  0  0
   42.7289   32.7568   54.5010 H   0  0  0  0  0  0  0  0  0  0  0  0
 23 24  2  0  0  0
 23 25  1  0  0  0
 23 26  1  0  0  0
 23 22  1  0  0  0
 22 21  1  0  0  0
 21  1  1  0  0  0
  1  2  1  0  0  0
  1  3  1  0  0  0
  2  7  1  0  0  0
  3  4  1  0  0  0
  3  5  1  0  0  0
  5  6  1  0  0  0
  5  7  1  0  0  0
  7 10  1  0  0  0
 10 11  1  0  0  0
 10 19  1  0  0  0
 11 12  2  0  0  0
 12 13  1  0  0  0
 13 14  1  0  0  0
 13 19  2  0  0  0
 14 15  2  0  0  0
 14 16  1  0  0  0
 16 17  1  0  0  0
 17 18  2  0  0  0
 18 19  1  0  0  0
 25 27  1  0  0  0
 26 28  1  0  0  0
  4  8  1  0  0  0
  6  9  1  0  0  0
 16 20  1  0  0  0
M  END
> <minimizedAffinity>
-8.38385

$$$$
1YFZ_IMP_A_1210


 28 30  0  0  0  0  0  0  0  0999 V2000
   43.8306   36.4328   62.4352 C   0  0  0  0  0  0  0  0  0  0  0  0
   43.7831   35.7376   63.7493 O   0  0  0  0  0  0  0  0  0  0  0  0
   42.5041   37.2423   62.3638 C   0  0  0  0  0  0  0  0  0  0  0  0
   41.7241   36.9350   61.2086 O   0  0  0  0  0  0  0  0  0  0  0  0
   41.7462   36.9239   63.6389 C   0  0  0  0  0  0  0  0  0  0  0  0
   40.3453   36.8588   63.4711 O   0  0  0  0  0  0  0  0  0  0  0  0
   42.4031   35.6151   64.0456 C   0  0  0  0  0  0  0  0  0  0  0  0
   41.4903   35.9937   61.2173 H   0  0  0  0  0  0  0  0  0  0  0  0
   40.1308   36.1930   62.7991 H   0  0  0  0  0  0  0  0  0  0  0  0
   42.2289   35.3277   65.5211 N   0  0  0  0  0  0  0  0  0  0  0  0
   42.3132   36.1938   66.5823 C   0  0  0  0  0  0  0  0  0  0  0  0
   42.1110   35.6232   67.7317 N   0  0  0  0  0  0  0  0  0  0  0  0
   41.8774   34.3078   67.4595 C   0  0  0  0  0  0  0  0  0  0  0  0
   41.5893   33.1974   68.3327 C   0  0  0  0  0  0  0  0  0  0  0  0
   41.4981   33.2191   69.5638 O   0  0  0  0  0  0  0  0  0  0  0  0
   41.4037   31.9534   67.6380 N   0  0  0  0  0  0  0  0  0  0  0  0
   41.4923   31.8435   66.2445 C   0  0  0  0  0  0  0  0  0  0  0  0
   41.7647   32.9056   65.4350 N   0  0  0  0  0  0  0  0  0  0  0  0
   41.9393   34.0800   66.0853 C   0  0  0  0  0  0  0  0  0  0  0  0
   41.2061   31.1446   68.1634 H   0  0  0  0  0  0  0  0  0  0  0  0
   45.1552   37.1736   62.4803 C   0  0  0  0  0  0  0  0  0  0  0  0
   45.1215   38.5536   62.9437 O   0  0  0  0  0  0  0  0  0  0  0  0
   45.8736   38.8350   64.3485 P   0  0  0  0  0  0  0  0  0  0  0  0
   46.7733   37.7112   64.7415 O   0  0  0  0  0  0  0  0  0  0  0  0
   44.8269   39.0141   65.4026 O   0  0  0  0  0  0  0  0  0  0  0  0
   46.6569   40.1408   64.1323 O   0  0  0  0  0  0  0  0  0  0  0  0
   45.2540   39.1846   66.2567 H   0  0  0  0  0  0  0  0  0  0  0  0
   47.1355   40.3691   64.9446 H   0  0  0  0  0  0  0  0  0  0  0  0
 23 24  2  0  0  0
 23 25  1  0  0  0
 23 26  1  0  0  0
 23 22  1  0  0  0
 22 21  1  0  0  0
 21  1  1  0  0  0
  1  2  1  0  0  0
  1  3  1  0  0  0
  2  7  1  0  0  0
  3  4  1  0  0  0
  3  5  1  0  0  0
  5  6  1  0  0  0
  5  7  1  0  0  0
  7 10  1  0  0  0
 10 11  1  0  0  0
 10 19  1  0  0  0
 11 12  2  0  0  0
 12 13  1  0  0  0
 13 14  1  0  0  0
 13 19  2  0  0  0
 14 15  2  0  0  0
 14 16  1  0  0  0
 16 17  1  0  0  0
 17 18  2  0  0  0
 18 19  1  0  0  0
 25 27  1  0  0  0
 26 28  1  0  0  0
  4  8  1  0  0  0
  6  9  1  0  0  0
 16 20  1  0  0  0
M  END
> <minimizedAffinity>
-8.01749

$$$$
1YFZ_IMP_A_1210


 28 30  0  0  0  0  0  0  0  0999 V2000
   42.6424   37.3716   63.2060 C   0  0  0  0  0  0  0  0  0  0  0  0
   43.1809   37.3439   61.8197 O   0  0  0  0  0  0  0  0  0  0  0  0
   41.6457   36.1789   63.2708 C   0  0  0  0  0  0  0  0  0  0  0  0
   40.3314   36.5706   63.6666 O   0  0  0  0  0  0  0  0  0  0  0  0
   41.6404   35.5577   61.8867 C   0  0  0  0  0  0  0  0  0  0  0  0
   40.3787   35.0662   61.4848 O   0  0  0  0  0  0  0  0  0  0  0  0
   42.1735   36.7100   61.0514 C   0  0  0  0  0  0  0  0  0  0  0  0
   39.9786   37.2101   63.0283 H   0  0  0  0  0  0  0  0  0  0  0  0
   39.7277   35.7847   61.5133 H   0  0  0  0  0  0  0  0  0  0  0  0
   42.7638   36.2351   59.7414 N   0  0  0  0  0  0  0  0  0  0  0  0
   44.0840   36.1075   59.3885 C   0  0  0  0  0  0  0  0  0  0  0  0
   44.2545   35.6697   58.1775 N   0  0  0  0  0  0  0  0  0  0  0  0
   43.0036   35.4861   57.6672 C   0  0  0  0  0  0  0  0  0  0  0  0
   42.5679   35.0164   56.3756 C   0  0  0  0  0  0  0  0  0  0  0  0
   43.2792   34.6753   55.4257 O   0  0  0  0  0  0  0  0  0  0  0  0
   41.1389   34.9670   56.2343 N   0  0  0  0  0  0  0  0  0  0  0  0
   40.2629   35.3380   57.2623 C   0  0  0  0  0  0  0  0  0  0  0  0
   40.6939   35.7789   58.4778 N   0  0  0  0  0  0  0  0  0  0  0  0
   42.0398   35.8261   58.6156 C   0  0  0  0  0  0  0  0  0  0  0  0
   40.7597   34.6595   55.3794 H   0  0  0  0  0  0  0  0  0  0  0  0
   43.8930   37.3465   64.0666 C   0  0  0  0  0  0  0  0  0  0  0  0
   45.1315   37.7863   63.4398 O   0  0  0  0  0  0  0  0  0  0  0  0
   46.0783   38.7280   64.3537 P   0  0  0  0  0  0  0  0  0  0  0  0
   46.6500   39.8705   63.5825 O   0  0  0  0  0  0  0  0  0  0  0  0
   47.1970   37.8843   64.8782 O   0  0  0  0  0  0  0  0  0  0  0  0
   45.1774   39.2124   65.5023 O   0  0  0  0  0  0  0  0  0  0  0  0
   47.7803   38.4278   65.4307 H   0  0  0  0  0  0  0  0  0  0  0  0
   45.6882   39.7875   66.0933 H   0  0  0  0  0  0  0  0  0  0  0  0
 23 24  2  0  0  0
 23 25  1  0  0  0
 23 26  1  0  0  0
 23 22  1  0  0  0
 22 21  1  0  0  0
 21  1  1  0  0  0
  1  2  1  0  0  0
  1  3  1  0  0  0
  2  7  1  0  0  0
  3  4  1  0  0  0
  3  5  1  0  0  0
  5  6  1  0  0  0
  5  7  1  0  0  0
  7 10  1  0  0  0
 10 11  1  0  0  0
 10 19  1  0  0  0
 11 12  2  0  0  0
 12 13  1  0  0  0
 13 14  1  0  0  0
 13 19  2  0  0  0
 14 15  2  0  0  0
 14 16  1  0  0  0
 16 17  1  0  0  0
 17 18  2  0  0  0
 18 19  1  0  0  0
 25 27  1  0  0  0
 26 28  1  0  0  0
  4  8  1  0  0  0
  6  9  1  0  0  0
 16 20  1  0  0  0
M  END
> <minimizedAffinity>
-7.98894

$$$$
1YFZ_IMP_A_1210


 28 30  0  0  0  0  0  0  0  0999 V2000
   41.6976   36.9602   65.0414 C   0  0  0  0  0  0  0  0  0  0  0  0
   42.5299   36.4337   63.9267 O   0  0  0  0  0  0  0  0  0  0  0  0
   40.3002   36.3073   64.8388 C   0  0  0  0  0  0  0  0  0  0  0  0
   39.2462   37.2645   64.7366 O   0  0  0  0  0  0  0  0  0  0  0  0
   40.4047   35.4688   63.5788 C   0  0  0  0  0  0  0  0  0  0  0  0
   39.2245   35.4516   62.8031 O   0  0  0  0  0  0  0  0  0  0  0  0
   41.6046   36.1120   62.9031 C   0  0  0  0  0  0  0  0  0  0  0  0
   39.4091   37.8449   63.9767 H   0  0  0  0  0  0  0  0  0  0  0  0
   38.9829   36.3595   62.5617 H   0  0  0  0  0  0  0  0  0  0  0  0
   42.2605   35.1812   61.9063 N   0  0  0  0  0  0  0  0  0  0  0  0
   43.3492   34.3637   62.0797 C   0  0  0  0  0  0  0  0  0  0  0  0
   43.6615   33.6875   61.0154 N   0  0  0  0  0  0  0  0  0  0  0  0
   42.7548   34.0494   60.0637 C   0  0  0  0  0  0  0  0  0  0  0  0
   42.6014   33.6274   58.6936 C   0  0  0  0  0  0  0  0  0  0  0  0
   43.3010   32.8170   58.0787 O   0  0  0  0  0  0  0  0  0  0  0  0
   41.5007   34.2575   58.0182 N   0  0  0  0  0  0  0  0  0  0  0  0
   40.6610   35.1881   58.6433 C   0  0  0  0  0  0  0  0  0  0  0  0
   40.8214   35.5739   59.9407 N   0  0  0  0  0  0  0  0  0  0  0  0
   41.8566   34.9819   60.5812 C   0  0  0  0  0  0  0  0  0  0  0  0
   41.3297   34.0254   57.0769 H   0  0  0  0  0  0  0  0  0  0  0  0
   42.5103   36.6153   66.2766 C   0  0  0  0  0  0  0  0  0  0  0  0
   41.7798   36.0761   67.4149 O   0  0  0  0  0  0  0  0  0  0  0  0
   42.2018   34.5812   67.8684 P   0  0  0  0  0  0  0  0  0  0  0  0
   42.1660   34.4103   69.3504 O   0  0  0  0  0  0  0  0  0  0  0  0
   43.5937   34.3286   67.3812 O   0  0  0  0  0  0  0  0  0  0  0  0
   41.2014   33.6486   67.1648 O   0  0  0  0  0  0  0  0  0  0  0  0
   43.8704   33.4361   67.6414 H   0  0  0  0  0  0  0  0  0  0  0  0
   41.4000   32.7277   67.3963 H   0  0  0  0  0  0  0  0  0  0  0  0
 23 24  2  0  0  0
 23 25  1  0  0  0
 23 26  1  0  0  0
 23 22  1  0  0  0
 22 21  1  0  0  0
 21  1  1  0  0  0
  1  2  1  0  0  0
  1  3  1  0  0  0
  2  7  1  0  0  0
  3  4  1  0  0  0
  3  5  1  0  0  0
  5  6  1  0  0  0
  5  7  1  0  0  0
  7 10  1  0  0  0
 10 11  1  0  0  0
 10 19  1  0  0  0
 11 12  2  0  0  0
 12 13  1  0  0  0
 13 14  1  0  0  0
 13 19  2  0  0  0
 14 15  2  0  0  0
 14 16  1  0  0  0
 16 17  1  0  0  0
 17 18  2  0  0  0
 18 19  1  0  0  0
 25 27  1  0  0  0
 26 28  1  0  0  0
  4  8  1  0  0  0
  6  9  1  0  0  0
 16 20  1  0  0  0
M  END
> <minimizedAffinity>
-7.95647

$$$$
1YFZ_IMP_A_1210


 28 30  0  0  0  0  0  0  0  0999 V2000
   42.1197   33.8194   57.5595 C   0  0  0  0  0  0  0  0  0  0  0  0
   42.9366   34.0949   58.7716 O   0  0  0  0  0  0  0  0  0  0  0  0
   41.1064   34.9975   57.4852 C   0  0  0  0  0  0  0  0  0  0  0  0
   39.7469   34.5634   57.4545 O   0  0  0  0  0  0  0  0  0  0  0  0
   41.3786   35.8657   58.6991 C   0  0  0  0  0  0  0  0  0  0  0  0
   40.2193   36.4468   59.2588 O   0  0  0  0  0  0  0  0  0  0  0  0
   42.0997   34.8794   59.6031 C   0  0  0  0  0  0  0  0  0  0  0  0
   39.5498   34.0606   58.2603 H   0  0  0  0  0  0  0  0  0  0  0  0
   39.5924   35.7477   59.5020 H   0  0  0  0  0  0  0  0  0  0  0  0
   42.9418   35.5789   60.6479 N   0  0  0  0  0  0  0  0  0  0  0  0
   44.2753   35.9006   60.6042 C   0  0  0  0  0  0  0  0  0  0  0  0
   44.6963   36.5030   61.6753 N   0  0  0  0  0  0  0  0  0  0  0  0
   43.6132   36.6039   62.4971 C   0  0  0  0  0  0  0  0  0  0  0  0
   43.4732   37.1781   63.8122 C   0  0  0  0  0  0  0  0  0  0  0  0
   44.3541   37.7148   64.4907 O   0  0  0  0  0  0  0  0  0  0  0  0
   42.1415   37.0803   64.3430 N   0  0  0  0  0  0  0  0  0  0  0  0
   41.0871   36.4855   63.6385 C   0  0  0  0  0  0  0  0  0  0  0  0
   41.2388   35.9486   62.3950 N   0  0  0  0  0  0  0  0  0  0  0  0
   42.4917   36.0395   61.8906 C   0  0  0  0  0  0  0  0  0  0  0  0
   41.9628   37.4467   65.2391 H   0  0  0  0  0  0  0  0  0  0  0  0
   43.1607   33.6606   56.4658 C   0  0  0  0  0  0  0  0  0  0  0  0
   43.2598   32.3508   55.8375 O   0  0  0  0  0  0  0  0  0  0  0  0
   44.5009   31.4354   56.3275 P   0  0  0  0  0  0  0  0  0  0  0  0
   45.8086   31.9352   55.8110 O   0  0  0  0  0  0  0  0  0  0  0  0
   44.2750   30.0455   55.8216 O   0  0  0  0  0  0  0  0  0  0  0  0
   44.4462   31.4706   57.8642 O   0  0  0  0  0  0  0  0  0  0  0  0
   45.0078   29.4758   56.1031 H   0  0  0  0  0  0  0  0  0  0  0  0
   45.1704   30.9361   58.2258 H   0  0  0  0  0  0  0  0  0  0  0  0
 23 24  2  0  0  0
 23 25  1  0  0  0
 23 26  1  0  0  0
 23 22  1  0  0  0
 22 21  1  0  0  0
 21  1  1  0  0  0
  1  2  1  0  0  0
  1  3  1  0  0  0
  2  7  1  0  0  0
  3  4  1  0  0  0
  3  5  1  0  0  0
  5  6  1  0  0  0
  5  7  1  0  0  0
  7 10  1  0  0  0
 10 11  1  0  0  0
 10 19  1  0  0  0
 11 12  2  0  0  0
 12 13  1  0  0  0
 13 14  1  0  0  0
 13 19  2  0  0  0
 14 15  2  0  0  0
 14 16  1  0  0  0
 16 17  1  0  0  0
 17 18  2  0  0  0
 18 19  1  0  0  0
 25 27  1  0  0  0
 26 28  1  0  0  0
  4  8  1  0  0  0
  6  9  1  0  0  0
 16 20  1  0  0  0
M  END
> <minimizedAffinity>
-7.90147

$$$$
1YFZ_IMP_A_1210


 28 30  0  0  0  0  0  0  0  0999 V2000
   42.8437   36.2739   64.1030 C   0  0  0  0  0  0  0  0  0  0  0  0
   44.0524   36.6838   63.3390 O   0  0  0  0  0  0  0  0  0  0  0  0
   41.7260   36.1248   63.0314 C   0  0  0  0  0  0  0  0  0  0  0  0
   40.5785   36.9282   63.3060 O   0  0  0  0  0  0  0  0  0  0  0  0
   42.3584   36.5052   61.7059 C   0  0  0  0  0  0  0  0  0  0  0  0
   41.4838   37.1825   60.8278 O   0  0  0  0  0  0  0  0  0  0  0  0
   43.5494   37.3225   62.1788 C   0  0  0  0  0  0  0  0  0  0  0  0
   40.8364   37.8630   63.3292 H   0  0  0  0  0  0  0  0  0  0  0  0
   41.1468   37.9826   61.2605 H   0  0  0  0  0  0  0  0  0  0  0  0
   44.6394   37.3946   61.1315 N   0  0  0  0  0  0  0  0  0  0  0  0
   44.8560   36.5691   60.0567 C   0  0  0  0  0  0  0  0  0  0  0  0
   45.8889   36.9079   59.3456 N   0  0  0  0  0  0  0  0  0  0  0  0
   46.4121   38.0125   59.9498 C   0  0  0  0  0  0  0  0  0  0  0  0
   47.5539   38.8251   59.6111 C   0  0  0  0  0  0  0  0  0  0  0  0
   48.3263   38.6692   58.6606 O   0  0  0  0  0  0  0  0  0  0  0  0
   47.7708   39.9178   60.5186 N   0  0  0  0  0  0  0  0  0  0  0  0
   46.9424   40.1626   61.6212 C   0  0  0  0  0  0  0  0  0  0  0  0
   45.8662   39.3833   61.9247 N   0  0  0  0  0  0  0  0  0  0  0  0
   45.6575   38.3532   61.0716 C   0  0  0  0  0  0  0  0  0  0  0  0
   48.5335   40.5195   60.3588 H   0  0  0  0  0  0  0  0  0  0  0  0
   43.3130   35.0487   64.8672 C   0  0  0  0  0  0  0  0  0  0  0  0
   43.6039   35.2281   66.2826 O   0  0  0  0  0  0  0  0  0  0  0  0
   42.3375   35.0762   67.2785 P   0  0  0  0  0  0  0  0  0  0  0  0
   42.7197   34.4723   68.5885 O   0  0  0  0  0  0  0  0  0  0  0  0
   41.3299   34.1951   66.6099 O   0  0  0  0  0  0  0  0  0  0  0  0
   41.7855   36.5015   67.4496 O   0  0  0  0  0  0  0  0  0  0  0  0
   40.5590   34.0883   67.1889 H   0  0  0  0  0  0  0  0  0  0  0  0
   41.0170   36.4818   68.0411 H   0  0  0  0  0  0  0  0  0  0  0  0
 23 24  2  0  0  0
 23 25  1  0  0  0
 23 26  1  0  0  0
 23 22  1  0  0  0
 22 21  1  0  0  0
 21  1  1  0  0  0
  1  2  1  0  0  0
  1  3  1  0  0  0
  2  7  1  0  0  0
  3  4  1  0  0  0
  3  5  1  0  0  0
  5  6  1  0  0  0
  5  7  1  0  0  0
  7 10  1  0  0  0
 10 11  1  0  0  0
 10 19  1  0  0  0
 11 12  2  0  0  0
 12 13  1  0  0  0
 13 14  1  0  0  0
 13 19  2  0  0  0
 14 15  2  0  0  0
 14 16  1  0  0  0
 16 17  1  0  0  0
 17 18  2  0  0  0
 18 19  1  0  0  0
 25 27  1  0  0  0
 26 28  1  0  0  0
  4  8  1  0  0  0
  6  9  1  0  0  0
 16 20  1  0  0  0
M  END
> <minimizedAffinity>
-7.86136

$$$$
1YFZ_IMP_A_1210


 28 30  0  0  0  0  0  0  0  0999 V2000
   43.3902   33.3577   59.6516 C   0  0  0  0  0  0  0  0  0  0  0  0
   43.5571   34.2688   60.8154 O   0  0  0  0  0  0  0  0  0  0  0  0
   42.1171   32.5248   59.9763 C   0  0  0  0  0  0  0  0  0  0  0  0
   42.3509   31.1168   59.9561 O   0  0  0  0  0  0  0  0  0  0  0  0
   41.6495   32.9844   61.3444 C   0  0  0  0  0  0  0  0  0  0  0  0
   41.0985   31.9535   62.1371 O   0  0  0  0  0  0  0  0  0  0  0  0
   42.9259   33.6004   61.8933 C   0  0  0  0  0  0  0  0  0  0  0  0
   43.0228   30.8911   60.6182 H   0  0  0  0  0  0  0  0  0  0  0  0
   41.7519   31.2449   62.2459 H   0  0  0  0  0  0  0  0  0  0  0  0
   42.6461   34.5894   63.0040 N   0  0  0  0  0  0  0  0  0  0  0  0
   42.6643   35.9610   62.9597 C   0  0  0  0  0  0  0  0  0  0  0  0
   42.3767   36.5181   64.0974 N   0  0  0  0  0  0  0  0  0  0  0  0
   42.1500   35.4936   64.9680 C   0  0  0  0  0  0  0  0  0  0  0  0
   41.7908   35.5002   66.3643 C   0  0  0  0  0  0  0  0  0  0  0  0
   41.6139   36.4865   67.0856 O   0  0  0  0  0  0  0  0  0  0  0  0
   41.6423   34.1858   66.9254 N   0  0  0  0  0  0  0  0  0  0  0  0
   41.8271   33.0170   66.1761 C   0  0  0  0  0  0  0  0  0  0  0  0
   42.1658   33.0310   64.8559 N   0  0  0  0  0  0  0  0  0  0  0  0
   42.3057   34.2674   64.3228 C   0  0  0  0  0  0  0  0  0  0  0  0
   41.4006   34.1033   67.8762 H   0  0  0  0  0  0  0  0  0  0  0  0
   43.3794   34.3053   58.4654 C   0  0  0  0  0  0  0  0  0  0  0  0
   42.1837   34.3050   57.6344 O   0  0  0  0  0  0  0  0  0  0  0  0
   42.4261   33.9917   56.0655 P   0  0  0  0  0  0  0  0  0  0  0  0
   43.0723   32.6642   55.8488 O   0  0  0  0  0  0  0  0  0  0  0  0
   43.3139   35.0627   55.5145 O   0  0  0  0  0  0  0  0  0  0  0  0
   41.0312   34.0564   55.4209 O   0  0  0  0  0  0  0  0  0  0  0  0
   43.4745   34.8967   54.5724 H   0  0  0  0  0  0  0  0  0  0  0  0
   41.1054   33.8761   54.4707 H   0  0  0  0  0  0  0  0  0  0  0  0
 23 24  2  0  0  0
 23 25  1  0  0  0
 23 26  1  0  0  0
 23 22  1  0  0  0
 22 21  1  0  0  0
 21  1  1  0  0  0
  1  2  1  0  0  0
  1  3  1  0  0  0
  2  7  1  0  0  0
  3  4  1  0  0  0
  3  5  1  0  0  0
  5  6  1  0  0  0
  5  7  1  0  0  0
  7 10  1  0  0  0
 10 11  1  0  0  0
 10 19  1  0  0  0
 11 12  2  0  0  0
 12 13  1  0  0  0
 13 14  1  0  0  0
 13 19  2  0  0  0
 14 15  2  0  0  0
 14 16  1  0  0  0
 16 17  1  0  0  0
 17 18  2  0  0  0
 18 19  1  0  0  0
 25 27  1  0  0  0
 26 28  1  0  0  0
  4  8  1  0  0  0
  6  9  1  0  0  0
 16 20  1  0  0  0
M  END
> <minimizedAffinity>
-7.63992

$$$$
1YFZ_IMP_A_1210


 28 30  0  0  0  0  0  0  0  0999 V2000
   41.2888   32.7574   63.0374 C   0  0  0  0  0  0  0  0  0  0  0  0
   40.7694   33.3465   61.7742 O   0  0  0  0  0  0  0  0  0  0  0  0
   42.8369   32.8021   62.8914 C   0  0  0  0  0  0  0  0  0  0  0  0
   43.4494   31.5221   63.0460 O   0  0  0  0  0  0  0  0  0  0  0  0
   43.1148   33.3818   61.5173 C   0  0  0  0  0  0  0  0  0  0  0  0
   44.2448   32.8246   60.8788 O   0  0  0  0  0  0  0  0  0  0  0  0
   41.7907   33.1171   60.8196 C   0  0  0  0  0  0  0  0  0  0  0  0
   43.1106   30.9175   62.3673 H   0  0  0  0  0  0  0  0  0  0  0  0
   44.1319   31.8643   60.8019 H   0  0  0  0  0  0  0  0  0  0  0  0
   41.5833   34.0310   59.6313 N   0  0  0  0  0  0  0  0  0  0  0  0
   40.7356   35.1033   59.5081 C   0  0  0  0  0  0  0  0  0  0  0  0
   40.7988   35.6802   58.3459 N   0  0  0  0  0  0  0  0  0  0  0  0
   41.7265   34.9813   57.6321 C   0  0  0  0  0  0  0  0  0  0  0  0
   42.2169   35.1591   56.2880 C   0  0  0  0  0  0  0  0  0  0  0  0
   41.8711   36.0210   55.4744 O   0  0  0  0  0  0  0  0  0  0  0  0
   43.2110   34.1941   55.9068 N   0  0  0  0  0  0  0  0  0  0  0  0
   43.6563   33.1844   56.7693 C   0  0  0  0  0  0  0  0  0  0  0  0
   43.1812   33.0328   58.0378 N   0  0  0  0  0  0  0  0  0  0  0  0
   42.2452   33.9406   58.4014 C   0  0  0  0  0  0  0  0  0  0  0  0
   43.5950   34.2448   55.0017 H   0  0  0  0  0  0  0  0  0  0  0  0
   40.6164   33.5913   64.1135 C   0  0  0  0  0  0  0  0  0  0  0  0
   39.8060   34.7146   63.6645 O   0  0  0  0  0  0  0  0  0  0  0  0
   40.2915   36.1714   64.1747 P   0  0  0  0  0  0  0  0  0  0  0  0
   41.5729   36.5939   63.5374 O   0  0  0  0  0  0  0  0  0  0  0  0
   40.4838   36.0990   65.6567 O   0  0  0  0  0  0  0  0  0  0  0  0
   39.1393   37.1272   63.8216 O   0  0  0  0  0  0  0  0  0  0  0  0
   40.7757   36.9629   65.9875 H   0  0  0  0  0  0  0  0  0  0  0  0
   39.3677   38.0269   64.1033 H   0  0  0  0  0  0  0  0  0  0  0  0
 23 24  2  0  0  0
 23 25  1  0  0  0
 23 26  1  0  0  0
 23 22  1  0  0  0
 22 21  1  0  0  0
 21  1  1  0  0  0
  1  2  1  0  0  0
  1  3  1  0  0  0
  2  7  1  0  0  0
  3  4  1  0  0  0
  3  5  1  0  0  0
  5  6  1  0  0  0
  5  7  1  0  0  0
  7 10  1  0  0  0
 10 11  1  0  0  0
 10 19  1  0  0  0
 11 12  2  0  0  0
 12 13  1  0  0  0
 13 14  1  0  0  0
 13 19  2  0  0  0
 14 15  2  0  0  0
 14 16  1  0  0  0
 16 17  1  0  0  0
 17 18  2  0  0  0
 18 19  1  0  0  0
 25 27  1  0  0  0
 26 28  1  0  0  0
  4  8  1  0  0  0
  6  9  1  0  0  0
 16 20  1  0  0  0
M  END
> <minimizedAffinity>
-7.63514

$$$$
1YFZ_IMP_A_1210


 28 30  0  0  0  0  0  0  0  0999 V2000
   42.2203   33.7881   58.1471 C   0  0  0  0  0  0  0  0  0  0  0  0
   42.9112   34.2010   59.3981 O   0  0  0  0  0  0  0  0  0  0  0  0
   41.2882   34.9823   57.7934 C   0  0  0  0  0  0  0  0  0  0  0  0
   39.9188   34.6017   57.6622 O   0  0  0  0  0  0  0  0  0  0  0  0
   41.4710   36.0029   58.9009 C   0  0  0  0  0  0  0  0  0  0  0  0
   40.2904   36.7025   59.2352 O   0  0  0  0  0  0  0  0  0  0  0  0
   42.0314   35.1277   60.0099 C   0  0  0  0  0  0  0  0  0  0  0  0
   39.6057   34.2266   58.5001 H   0  0  0  0  0  0  0  0  0  0  0  0
   39.6027   36.0700   59.4959 H   0  0  0  0  0  0  0  0  0  0  0  0
   42.7892   35.9352   61.0414 N   0  0  0  0  0  0  0  0  0  0  0  0
   44.0482   36.4748   60.9565 C   0  0  0  0  0  0  0  0  0  0  0  0
   44.4082   37.1160   62.0274 N   0  0  0  0  0  0  0  0  0  0  0  0
   43.3584   37.0181   62.8918 C   0  0  0  0  0  0  0  0  0  0  0  0
   43.1804   37.5331   64.2266 C   0  0  0  0  0  0  0  0  0  0  0  0
   43.9881   38.1942   64.8862 O   0  0  0  0  0  0  0  0  0  0  0  0
   41.9066   37.2042   64.8042 N   0  0  0  0  0  0  0  0  0  0  0  0
   40.9365   36.4574   64.1236 C   0  0  0  0  0  0  0  0  0  0  0  0
   41.1228   35.9796   62.8608 N   0  0  0  0  0  0  0  0  0  0  0  0
   42.3213   36.2882   62.3124 C   0  0  0  0  0  0  0  0  0  0  0  0
   41.7073   37.5166   65.7163 H   0  0  0  0  0  0  0  0  0  0  0  0
   43.3664   33.4350   57.2160 C   0  0  0  0  0  0  0  0  0  0  0  0
   44.2210   34.5304   56.7801 O   0  0  0  0  0  0  0  0  0  0  0  0
   45.8075   34.3100   57.0102 P   0  0  0  0  0  0  0  0  0  0  0  0
   46.1132   32.9647   57.5789 O   0  0  0  0  0  0  0  0  0  0  0  0
   46.2847   35.3621   57.9610 O   0  0  0  0  0  0  0  0  0  0  0  0
   46.4463   34.4993   55.6240 O   0  0  0  0  0  0  0  0  0  0  0  0
   47.2358   35.2509   58.1155 H   0  0  0  0  0  0  0  0  0  0  0  0
   47.4065   34.3794   55.6914 H   0  0  0  0  0  0  0  0  0  0  0  0
 23 24  2  0  0  0
 23 25  1  0  0  0
 23 26  1  0  0  0
 23 22  1  0  0  0
 22 21  1  0  0  0
 21  1  1  0  0  0
  1  2  1  0  0  0
  1  3  1  0  0  0
  2  7  1  0  0  0
  3  4  1  0  0  0
  3  5  1  0  0  0
  5  6  1  0  0  0
  5  7  1  0  0  0
  7 10  1  0  0  0
 10 11  1  0  0  0
 10 19  1  0  0  0
 11 12  2  0  0  0
 12 13  1  0  0  0
 13 14  1  0  0  0
 13 19  2  0  0  0
 14 15  2  0  0  0
 14 16  1  0  0  0
 16 17  1  0  0  0
 17 18  2  0  0  0
 18 19  1  0  0  0
 25 27  1  0  0  0
 26 28  1  0  0  0
  4  8  1  0  0  0
  6  9  1  0  0  0
 16 20  1  0  0  0
M  END
> <minimizedAffinity>
-7.33355

$$$$
