4LOV_KGM_A_201


 23 23  0  0  0  0  0  0  0  0999 V2000
   10.5171   -6.9811  -35.6296 C   0  0  0  0  0  0  0  0  0  0  0  0
   10.8205   -5.5737  -35.5743 O   0  0  0  0  0  0  0  0  0  0  0  0
   11.2843   -7.8064  -34.5406 C   0  0  0  0  0  0  0  0  0  0  0  0
   11.0269   -9.1624  -34.7633 O   0  0  0  0  0  0  0  0  0  0  0  0
   12.7840   -7.5009  -34.7117 C   0  0  0  0  0  0  0  0  0  0  0  0
   13.5382   -8.1052  -33.6887 O   0  0  0  0  0  0  0  0  0  0  0  0
   13.0829   -5.9464  -34.6144 C   0  0  0  0  0  0  0  0  0  0  0  0
   12.7353   -5.4380  -33.3401 O   0  0  0  0  0  0  0  0  0  0  0  0
   12.2313   -5.1901  -35.6830 C   0  0  0  0  0  0  0  0  0  0  0  0
   11.3036   -9.4008  -35.6619 H   0  0  0  0  0  0  0  0  0  0  0  0
   13.2704   -7.7401  -32.8309 H   0  0  0  0  0  0  0  0  0  0  0  0
   11.7864   -5.5692  -33.1874 H   0  0  0  0  0  0  0  0  0  0  0  0
    8.6468   -7.1474  -34.0764 O   0  0  0  0  0  0  0  0  0  0  0  0
    8.9689   -7.0638  -35.4728 C   0  0  0  0  0  0  0  0  0  0  0  0
    7.6842   -7.1993  -33.9691 H   0  0  0  0  0  0  0  0  0  0  0  0
   12.5910   -5.5063  -37.0072 O   0  0  0  0  0  0  0  0  0  0  0  0
   13.9805   -5.4955  -37.4346 C   0  0  0  0  0  0  0  0  0  0  0  0
   14.0365   -6.6639  -38.4500 C   0  0  0  0  0  0  0  0  0  0  0  0
   12.7104   -7.2932  -38.7305 C   0  0  0  0  0  0  0  0  0  0  0  0
   12.2317   -7.4105  -39.9879 C   0  0  0  0  0  0  0  0  0  0  0  0
   10.9145   -6.7606  -40.3391 C   0  0  0  0  0  0  0  0  0  0  0  0
    9.9140   -4.7761  -39.2188 C   0  0  0  0  0  0  0  0  0  0  0  0
   10.0988   -6.3105  -39.1643 C   0  0  0  0  0  0  0  0  0  0  0  0
 22 23  1  0  0  0
 23 21  1  0  0  0
 21 20  1  0  0  0
 20 19  1  0  0  0
 19 18  1  0  0  0
 18 17  1  0  0  0
 17 16  1  0  0  0
 16  9  1  0  0  0
  9  7  1  0  0  0
  9  2  1  0  0  0
  7  8  1  0  0  0
  7  5  1  0  0  0
  5  6  1  0  0  0
  5  3  1  0  0  0
  3  4  1  0  0  0
  3  1  1  0  0  0
  1  2  1  0  0  0
  1 14  1  0  0  0
 14 13  1  0  0  0
 13 15  1  0  0  0
  4 10  1  0  0  0
  6 11  1  0  0  0
  8 12  1  0  0  0
M  END
> <minimizedAffinity>
-7.36586

$$$$
4LOV_KGM_A_201


 23 23  0  0  0  0  0  0  0  0999 V2000
   10.5022   -7.0071  -35.6232 C   0  0  0  0  0  0  0  0  0  0  0  0
   10.7999   -5.5983  -35.5738 O   0  0  0  0  0  0  0  0  0  0  0  0
   11.2797   -7.8260  -34.5367 C   0  0  0  0  0  0  0  0  0  0  0  0
   11.0266   -9.1838  -34.7539 O   0  0  0  0  0  0  0  0  0  0  0  0
   12.7769   -7.5146  -34.7179 C   0  0  0  0  0  0  0  0  0  0  0  0
   13.5400   -8.1128  -33.6979 O   0  0  0  0  0  0  0  0  0  0  0  0
   13.0699   -5.9587  -34.6269 C   0  0  0  0  0  0  0  0  0  0  0  0
   12.7280   -5.4480  -33.3519 O   0  0  0  0  0  0  0  0  0  0  0  0
   12.2085   -5.2090  -35.6924 C   0  0  0  0  0  0  0  0  0  0  0  0
   11.2988   -9.4235  -35.6535 H   0  0  0  0  0  0  0  0  0  0  0  0
   13.2761   -7.7464  -32.8395 H   0  0  0  0  0  0  0  0  0  0  0  0
   11.7806   -5.5828  -33.1930 H   0  0  0  0  0  0  0  0  0  0  0  0
    8.6402   -7.1378  -34.0567 O   0  0  0  0  0  0  0  0  0  0  0  0
    8.9554   -7.0959  -35.4566 C   0  0  0  0  0  0  0  0  0  0  0  0
    7.6785   -7.1932  -33.9433 H   0  0  0  0  0  0  0  0  0  0  0  0
   12.5613   -5.5276  -37.0178 O   0  0  0  0  0  0  0  0  0  0  0  0
   13.0131   -4.5032  -37.9452 C   0  0  0  0  0  0  0  0  0  0  0  0
   12.1947   -4.8123  -39.2235 C   0  0  0  0  0  0  0  0  0  0  0  0
   11.2951   -5.9993  -39.1005 C   0  0  0  0  0  0  0  0  0  0  0  0
    9.9503   -5.8758  -39.1138 C   0  0  0  0  0  0  0  0  0  0  0  0
    9.3271   -4.5563  -38.7249 C   0  0  0  0  0  0  0  0  0  0  0  0
    8.5190   -4.5836  -41.0787 C   0  0  0  0  0  0  0  0  0  0  0  0
    8.2467   -4.0721  -39.6449 C   0  0  0  0  0  0  0  0  0  0  0  0
 22 23  1  0  0  0
 23 21  1  0  0  0
 21 20  1  0  0  0
 20 19  1  0  0  0
 19 18  1  0  0  0
 18 17  1  0  0  0
 17 16  1  0  0  0
 16  9  1  0  0  0
  9  7  1  0  0  0
  9  2  1  0  0  0
  7  8  1  0  0  0
  7  5  1  0  0  0
  5  6  1  0  0  0
  5  3  1  0  0  0
  3  4  1  0  0  0
  3  1  1  0  0  0
  1  2  1  0  0  0
  1 14  1  0  0  0
 14 13  1  0  0  0
 13 15  1  0  0  0
  4 10  1  0  0  0
  6 11  1  0  0  0
  8 12  1  0  0  0
M  END
> <minimizedAffinity>
-7.31075

$$$$
4LOV_KGM_A_201


 23 23  0  0  0  0  0  0  0  0999 V2000
   10.5268   -6.9945  -35.6288 C   0  0  0  0  0  0  0  0  0  0  0  0
   10.8254   -5.5855  -35.5888 O   0  0  0  0  0  0  0  0  0  0  0  0
   11.2962   -7.8051  -34.5304 C   0  0  0  0  0  0  0  0  0  0  0  0
   11.0434   -9.1644  -34.7383 O   0  0  0  0  0  0  0  0  0  0  0  0
   12.7949   -7.4965  -34.7041 C   0  0  0  0  0  0  0  0  0  0  0  0
   13.5506   -8.0869  -33.6741 O   0  0  0  0  0  0  0  0  0  0  0  0
   13.0886   -5.9401  -34.6238 C   0  0  0  0  0  0  0  0  0  0  0  0
   12.7386   -5.4188  -33.3553 O   0  0  0  0  0  0  0  0  0  0  0  0
   12.2350   -5.1984  -35.7010 C   0  0  0  0  0  0  0  0  0  0  0  0
   11.3214   -9.4117  -35.6341 H   0  0  0  0  0  0  0  0  0  0  0  0
   13.2811   -7.7133  -32.8205 H   0  0  0  0  0  0  0  0  0  0  0  0
   11.7901   -5.5515  -33.2017 H   0  0  0  0  0  0  0  0  0  0  0  0
    8.6563   -7.1509  -34.0748 O   0  0  0  0  0  0  0  0  0  0  0  0
    8.9787   -7.0805  -35.4719 C   0  0  0  0  0  0  0  0  0  0  0  0
    7.6937   -7.2048  -33.9674 H   0  0  0  0  0  0  0  0  0  0  0  0
   12.5965   -5.5280  -37.0214 O   0  0  0  0  0  0  0  0  0  0  0  0
   12.2482   -4.6634  -38.1372 C   0  0  0  0  0  0  0  0  0  0  0  0
   13.1290   -5.2142  -39.2862 C   0  0  0  0  0  0  0  0  0  0  0  0
   14.5669   -5.3940  -38.9211 C   0  0  0  0  0  0  0  0  0  0  0  0
   15.2013   -6.5737  -39.0934 C   0  0  0  0  0  0  0  0  0  0  0  0
   16.6460   -6.7025  -38.6729 C   0  0  0  0  0  0  0  0  0  0  0  0
   17.4111   -5.5018  -36.6316 C   0  0  0  0  0  0  0  0  0  0  0  0
   17.2732   -5.4367  -38.1705 C   0  0  0  0  0  0  0  0  0  0  0  0
 22 23  1  0  0  0
 23 21  1  0  0  0
 21 20  1  0  0  0
 20 19  1  0  0  0
 19 18  1  0  0  0
 18 17  1  0  0  0
 17 16  1  0  0  0
 16  9  1  0  0  0
  9  7  1  0  0  0
  9  2  1  0  0  0
  7  8  1  0  0  0
  7  5  1  0  0  0
  5  6  1  0  0  0
  5  3  1  0  0  0
  3  4  1  0  0  0
  3  1  1  0  0  0
  1  2  1  0  0  0
  1 14  1  0  0  0
 14 13  1  0  0  0
 13 15  1  0  0  0
  4 10  1  0  0  0
  6 11  1  0  0  0
  8 12  1  0  0  0
M  END
> <minimizedAffinity>
-6.45762

$$$$
4LOV_KGM_A_201


 23 23  0  0  0  0  0  0  0  0999 V2000
   10.4909   -7.0439  -35.6057 C   0  0  0  0  0  0  0  0  0  0  0  0
   10.7827   -5.6329  -35.6079 O   0  0  0  0  0  0  0  0  0  0  0  0
   11.2818   -7.8212  -34.4986 C   0  0  0  0  0  0  0  0  0  0  0  0
   11.0329   -9.1868  -34.6662 O   0  0  0  0  0  0  0  0  0  0  0  0
   12.7759   -7.5101  -34.7043 C   0  0  0  0  0  0  0  0  0  0  0  0
   13.5509   -8.0693  -33.6712 O   0  0  0  0  0  0  0  0  0  0  0  0
   13.0627   -5.9507  -34.6700 C   0  0  0  0  0  0  0  0  0  0  0  0
   12.7301   -5.3976  -33.4104 O   0  0  0  0  0  0  0  0  0  0  0  0
   12.1883   -5.2421  -35.7528 C   0  0  0  0  0  0  0  0  0  0  0  0
   11.2980   -9.4565  -35.5595 H   0  0  0  0  0  0  0  0  0  0  0  0
   13.2931   -7.6744  -32.8236 H   0  0  0  0  0  0  0  0  0  0  0  0
   11.7848   -5.5307  -33.2382 H   0  0  0  0  0  0  0  0  0  0  0  0
    8.6455   -7.1575  -34.0183 O   0  0  0  0  0  0  0  0  0  0  0  0
    8.9460   -7.1333  -35.4218 C   0  0  0  0  0  0  0  0  0  0  0  0
    7.6850   -7.2131  -33.8942 H   0  0  0  0  0  0  0  0  0  0  0  0
   12.5305   -5.6050  -37.0696 O   0  0  0  0  0  0  0  0  0  0  0  0
   13.8536   -5.3333  -37.6074 C   0  0  0  0  0  0  0  0  0  0  0  0
   13.6200   -5.3877  -39.1377 C   0  0  0  0  0  0  0  0  0  0  0  0
   12.3079   -5.9830  -39.5344 C   0  0  0  0  0  0  0  0  0  0  0  0
   12.2323   -7.1545  -40.2020 C   0  0  0  0  0  0  0  0  0  0  0  0
   11.5299   -7.1979  -41.5381 C   0  0  0  0  0  0  0  0  0  0  0  0
   12.1989   -6.8623  -43.9118 C   0  0  0  0  0  0  0  0  0  0  0  0
   12.0056   -6.1843  -42.5354 C   0  0  0  0  0  0  0  0  0  0  0  0
 22 23  1  0  0  0
 23 21  1  0  0  0
 21 20  1  0  0  0
 20 19  1  0  0  0
 19 18  1  0  0  0
 18 17  1  0  0  0
 17 16  1  0  0  0
 16  9  1  0  0  0
  9  7  1  0  0  0
  9  2  1  0  0  0
  7  8  1  0  0  0
  7  5  1  0  0  0
  5  6  1  0  0  0
  5  3  1  0  0  0
  3  4  1  0  0  0
  3  1  1  0  0  0
  1  2  1  0  0  0
  1 14  1  0  0  0
 14 13  1  0  0  0
 13 15  1  0  0  0
  4 10  1  0  0  0
  6 11  1  0  0  0
  8 12  1  0  0  0
M  END
> <minimizedAffinity>
-6.44628

$$$$
4LOV_KGM_A_201


 23 23  0  0  0  0  0  0  0  0999 V2000
   11.8795   -7.3433  -36.9852 C   0  0  0  0  0  0  0  0  0  0  0  0
   10.7121   -6.9566  -37.7359 O   0  0  0  0  0  0  0  0  0  0  0  0
   11.5202   -8.0260  -35.6212 C   0  0  0  0  0  0  0  0  0  0  0  0
   12.7090   -8.2391  -34.9169 O   0  0  0  0  0  0  0  0  0  0  0  0
   10.5997   -7.0568  -34.8566 C   0  0  0  0  0  0  0  0  0  0  0  0
   10.1253   -7.6472  -33.6704 O   0  0  0  0  0  0  0  0  0  0  0  0
    9.3118   -6.6783  -35.7011 C   0  0  0  0  0  0  0  0  0  0  0  0
    8.5211   -7.8218  -35.9674 O   0  0  0  0  0  0  0  0  0  0  0  0
    9.7536   -6.0694  -37.0697 C   0  0  0  0  0  0  0  0  0  0  0  0
   13.1661   -7.3929  -34.7905 H   0  0  0  0  0  0  0  0  0  0  0  0
    9.5950   -8.4296  -33.8883 H   0  0  0  0  0  0  0  0  0  0  0  0
    9.0388   -8.4599  -36.4829 H   0  0  0  0  0  0  0  0  0  0  0  0
   12.9037   -9.5350  -37.2784 O   0  0  0  0  0  0  0  0  0  0  0  0
   12.6774   -8.2813  -37.9402 C   0  0  0  0  0  0  0  0  0  0  0  0
   13.4002  -10.1258  -37.8660 H   0  0  0  0  0  0  0  0  0  0  0  0
   10.4282   -4.8402  -36.9403 O   0  0  0  0  0  0  0  0  0  0  0  0
   10.0276   -3.6749  -37.7118 C   0  0  0  0  0  0  0  0  0  0  0  0
    9.4127   -4.3026  -38.9875 C   0  0  0  0  0  0  0  0  0  0  0  0
    8.0838   -3.7346  -39.3679 C   0  0  0  0  0  0  0  0  0  0  0  0
    7.7536   -3.5014  -40.6565 C   0  0  0  0  0  0  0  0  0  0  0  0
    7.8816   -4.6188  -41.6643 C   0  0  0  0  0  0  0  0  0  0  0  0
    7.6559   -5.1653  -44.0819 C   0  0  0  0  0  0  0  0  0  0  0  0
    6.9841   -4.4979  -42.8593 C   0  0  0  0  0  0  0  0  0  0  0  0
 22 23  1  0  0  0
 23 21  1  0  0  0
 21 20  1  0  0  0
 20 19  1  0  0  0
 19 18  1  0  0  0
 18 17  1  0  0  0
 17 16  1  0  0  0
 16  9  1  0  0  0
  9  7  1  0  0  0
  9  2  1  0  0  0
  7  8  1  0  0  0
  7  5  1  0  0  0
  5  6  1  0  0  0
  5  3  1  0  0  0
  3  4  1  0  0  0
  3  1  1  0  0  0
  1  2  1  0  0  0
  1 14  1  0  0  0
 14 13  1  0  0  0
 13 15  1  0  0  0
  4 10  1  0  0  0
  6 11  1  0  0  0
  8 12  1  0  0  0
M  END
> <minimizedAffinity>
-5.41113

$$$$
4LOV_KGM_A_201


 23 23  0  0  0  0  0  0  0  0999 V2000
   12.2466   -6.4461  -35.1182 C   0  0  0  0  0  0  0  0  0  0  0  0
   12.6617   -5.4989  -36.1215 O   0  0  0  0  0  0  0  0  0  0  0  0
   12.7823   -7.8922  -35.3964 C   0  0  0  0  0  0  0  0  0  0  0  0
   12.2187   -8.7527  -34.4493 O   0  0  0  0  0  0  0  0  0  0  0  0
   12.3336   -8.2774  -36.8182 C   0  0  0  0  0  0  0  0  0  0  0  0
   12.8819   -9.5166  -37.1981 O   0  0  0  0  0  0  0  0  0  0  0  0
   12.8343   -7.2291  -37.8978 C   0  0  0  0  0  0  0  0  0  0  0  0
   14.2481   -7.1813  -37.9462 O   0  0  0  0  0  0  0  0  0  0  0  0
   12.3175   -5.8065  -37.5130 C   0  0  0  0  0  0  0  0  0  0  0  0
   11.2515   -8.7062  -34.5054 H   0  0  0  0  0  0  0  0  0  0  0  0
   13.8495   -9.4507  -37.2142 H   0  0  0  0  0  0  0  0  0  0  0  0
   14.5921   -6.9065  -37.0819 H   0  0  0  0  0  0  0  0  0  0  0  0
   13.5057   -6.8703  -33.0754 O   0  0  0  0  0  0  0  0  0  0  0  0
   12.7651   -5.8568  -33.7720 C   0  0  0  0  0  0  0  0  0  0  0  0
   13.8326   -6.5120  -32.2354 H   0  0  0  0  0  0  0  0  0  0  0  0
   10.9157   -5.6882  -37.5734 O   0  0  0  0  0  0  0  0  0  0  0  0
   10.2746   -4.3956  -37.7511 C   0  0  0  0  0  0  0  0  0  0  0  0
   10.2707   -4.2230  -39.2904 C   0  0  0  0  0  0  0  0  0  0  0  0
    8.9530   -4.5111  -39.9339 C   0  0  0  0  0  0  0  0  0  0  0  0
    8.8562   -4.8291  -41.2429 C   0  0  0  0  0  0  0  0  0  0  0  0
   10.1139   -5.1241  -42.0250 C   0  0  0  0  0  0  0  0  0  0  0  0
   11.1383   -7.2655  -41.2771 C   0  0  0  0  0  0  0  0  0  0  0  0
   10.3123   -6.5668  -42.3821 C   0  0  0  0  0  0  0  0  0  0  0  0
 22 23  1  0  0  0
 23 21  1  0  0  0
 21 20  1  0  0  0
 20 19  1  0  0  0
 19 18  1  0  0  0
 18 17  1  0  0  0
 17 16  1  0  0  0
 16  9  1  0  0  0
  9  7  1  0  0  0
  9  2  1  0  0  0
  7  8  1  0  0  0
  7  5  1  0  0  0
  5  6  1  0  0  0
  5  3  1  0  0  0
  3  4  1  0  0  0
  3  1  1  0  0  0
  1  2  1  0  0  0
  1 14  1  0  0  0
 14 13  1  0  0  0
 13 15  1  0  0  0
  4 10  1  0  0  0
  6 11  1  0  0  0
  8 12  1  0  0  0
M  END
> <minimizedAffinity>
-5.40104

$$$$
4LOV_KGM_A_201


 23 23  0  0  0  0  0  0  0  0999 V2000
   11.4760   -7.5299  -36.0073 C   0  0  0  0  0  0  0  0  0  0  0  0
   11.6542   -6.2093  -35.4593 O   0  0  0  0  0  0  0  0  0  0  0  0
   12.7849   -8.0938  -36.6589 C   0  0  0  0  0  0  0  0  0  0  0  0
   12.4737   -9.3108  -37.2728 O   0  0  0  0  0  0  0  0  0  0  0  0
   13.2547   -7.0618  -37.7009 C   0  0  0  0  0  0  0  0  0  0  0  0
   14.4984   -7.4312  -38.2463 O   0  0  0  0  0  0  0  0  0  0  0  0
   13.4694   -5.6292  -37.0554 C   0  0  0  0  0  0  0  0  0  0  0  0
   14.4834   -5.6602  -36.0685 O   0  0  0  0  0  0  0  0  0  0  0  0
   12.1438   -5.1694  -36.3693 C   0  0  0  0  0  0  0  0  0  0  0  0
   11.7720   -9.1723  -37.9280 H   0  0  0  0  0  0  0  0  0  0  0  0
   15.1669   -7.4495  -37.5437 H   0  0  0  0  0  0  0  0  0  0  0  0
   14.2265   -6.2709  -35.3600 H   0  0  0  0  0  0  0  0  0  0  0  0
    9.9255   -7.6861  -34.1338 O   0  0  0  0  0  0  0  0  0  0  0  0
   10.9731   -8.3950  -34.8126 C   0  0  0  0  0  0  0  0  0  0  0  0
    9.6061   -8.2176  -33.3879 H   0  0  0  0  0  0  0  0  0  0  0  0
   11.0898   -4.9595  -37.2791 O   0  0  0  0  0  0  0  0  0  0  0  0
   11.0479   -3.7785  -38.1259 C   0  0  0  0  0  0  0  0  0  0  0  0
   10.8064   -4.3747  -39.5350 C   0  0  0  0  0  0  0  0  0  0  0  0
    9.4280   -4.9137  -39.7419 C   0  0  0  0  0  0  0  0  0  0  0  0
    8.4664   -4.1890  -40.3534 C   0  0  0  0  0  0  0  0  0  0  0  0
    7.9476   -4.6382  -41.6987 C   0  0  0  0  0  0  0  0  0  0  0  0
    5.9018   -3.5285  -40.8169 C   0  0  0  0  0  0  0  0  0  0  0  0
    6.6070   -4.0831  -42.0765 C   0  0  0  0  0  0  0  0  0  0  0  0
 22 23  1  0  0  0
 23 21  1  0  0  0
 21 20  1  0  0  0
 20 19  1  0  0  0
 19 18  1  0  0  0
 18 17  1  0  0  0
 17 16  1  0  0  0
 16  9  1  0  0  0
  9  7  1  0  0  0
  9  2  1  0  0  0
  7  8  1  0  0  0
  7  5  1  0  0  0
  5  6  1  0  0  0
  5  3  1  0  0  0
  3  4  1  0  0  0
  3  1  1  0  0  0
  1  2  1  0  0  0
  1 14  1  0  0  0
 14 13  1  0  0  0
 13 15  1  0  0  0
  4 10  1  0  0  0
  6 11  1  0  0  0
  8 12  1  0  0  0
M  END
> <minimizedAffinity>
-5.18769

$$$$
4LOV_KGM_A_201


 23 23  0  0  0  0  0  0  0  0999 V2000
   12.6853   -6.2774  -35.1768 C   0  0  0  0  0  0  0  0  0  0  0  0
   13.4119   -6.3911  -36.4158 O   0  0  0  0  0  0  0  0  0  0  0  0
   12.1676   -7.6603  -34.6525 C   0  0  0  0  0  0  0  0  0  0  0  0
   11.3695   -7.4265  -33.5286 O   0  0  0  0  0  0  0  0  0  0  0  0
   11.3405   -8.2953  -35.7858 C   0  0  0  0  0  0  0  0  0  0  0  0
   10.9414   -9.6008  -35.4439 O   0  0  0  0  0  0  0  0  0  0  0  0
   12.1819   -8.4322  -37.1231 C   0  0  0  0  0  0  0  0  0  0  0  0
   13.2951   -9.2872  -36.9411 O   0  0  0  0  0  0  0  0  0  0  0  0
   12.7183   -7.0261  -37.5406 C   0  0  0  0  0  0  0  0  0  0  0  0
   10.6409   -6.8323  -33.7673 H   0  0  0  0  0  0  0  0  0  0  0  0
   11.7265  -10.1568  -35.3199 H   0  0  0  0  0  0  0  0  0  0  0  0
   13.8777   -8.9187  -36.2587 H   0  0  0  0  0  0  0  0  0  0  0  0
   12.9499   -5.1311  -33.0427 O   0  0  0  0  0  0  0  0  0  0  0  0
   13.6779   -5.5895  -34.1919 C   0  0  0  0  0  0  0  0  0  0  0  0
   13.5603   -4.7011  -32.4236 H   0  0  0  0  0  0  0  0  0  0  0  0
   11.6971   -6.1226  -37.8922 O   0  0  0  0  0  0  0  0  0  0  0  0
   10.8185   -6.3793  -39.0217 C   0  0  0  0  0  0  0  0  0  0  0  0
    9.7275   -5.2914  -38.8622 C   0  0  0  0  0  0  0  0  0  0  0  0
   10.2567   -3.9472  -38.4795 C   0  0  0  0  0  0  0  0  0  0  0  0
    9.5018   -2.8318  -38.5795 C   0  0  0  0  0  0  0  0  0  0  0  0
    8.0336   -2.9621  -38.9078 C   0  0  0  0  0  0  0  0  0  0  0  0
    6.7109   -3.7543  -40.8616 C   0  0  0  0  0  0  0  0  0  0  0  0
    7.6763   -2.6675  -40.3339 C   0  0  0  0  0  0  0  0  0  0  0  0
 22 23  1  0  0  0
 23 21  1  0  0  0
 21 20  1  0  0  0
 20 19  1  0  0  0
 19 18  1  0  0  0
 18 17  1  0  0  0
 17 16  1  0  0  0
 16  9  1  0  0  0
  9  7  1  0  0  0
  9  2  1  0  0  0
  7  8  1  0  0  0
  7  5  1  0  0  0
  5  6  1  0  0  0
  5  3  1  0  0  0
  3  4  1  0  0  0
  3  1  1  0  0  0
  1  2  1  0  0  0
  1 14  1  0  0  0
 14 13  1  0  0  0
 13 15  1  0  0  0
  4 10  1  0  0  0
  6 11  1  0  0  0
  8 12  1  0  0  0
M  END
> <minimizedAffinity>
-5.18381

$$$$
4LOV_KGM_A_201


 23 23  0  0  0  0  0  0  0  0999 V2000
   11.1086   -5.6537  -36.6236 C   0  0  0  0  0  0  0  0  0  0  0  0
   12.3391   -5.0313  -36.2059 O   0  0  0  0  0  0  0  0  0  0  0  0
   10.4764   -6.5501  -35.5044 C   0  0  0  0  0  0  0  0  0  0  0  0
    9.3694   -7.2075  -36.0496 O   0  0  0  0  0  0  0  0  0  0  0  0
   11.5528   -7.5626  -35.0711 C   0  0  0  0  0  0  0  0  0  0  0  0
   11.1090   -8.3277  -33.9764 O   0  0  0  0  0  0  0  0  0  0  0  0
   12.8802   -6.8406  -34.5896 C   0  0  0  0  0  0  0  0  0  0  0  0
   12.6391   -6.0333  -33.4522 O   0  0  0  0  0  0  0  0  0  0  0  0
   13.4078   -5.9164  -35.7326 C   0  0  0  0  0  0  0  0  0  0  0  0
    9.6491   -7.7289  -36.8182 H   0  0  0  0  0  0  0  0  0  0  0  0
   10.9469   -7.7442  -33.2187 H   0  0  0  0  0  0  0  0  0  0  0  0
   11.9904   -5.3472  -33.6744 H   0  0  0  0  0  0  0  0  0  0  0  0
    9.2722   -4.9324  -38.0538 O   0  0  0  0  0  0  0  0  0  0  0  0
   10.1852   -4.4717  -37.0464 C   0  0  0  0  0  0  0  0  0  0  0  0
    8.6929   -4.2026  -38.3233 H   0  0  0  0  0  0  0  0  0  0  0  0
   13.8222   -6.6263  -36.8759 O   0  0  0  0  0  0  0  0  0  0  0  0
   14.3904   -5.9405  -38.0250 C   0  0  0  0  0  0  0  0  0  0  0  0
   14.2043   -6.9710  -39.1664 C   0  0  0  0  0  0  0  0  0  0  0  0
   12.8079   -7.4858  -39.3027 C   0  0  0  0  0  0  0  0  0  0  0  0
   11.8606   -6.7994  -39.9775 C   0  0  0  0  0  0  0  0  0  0  0  0
   10.9535   -7.5389  -40.9319 C   0  0  0  0  0  0  0  0  0  0  0  0
   12.0424   -6.1391  -42.6781 C   0  0  0  0  0  0  0  0  0  0  0  0
   10.7442   -6.8651  -42.2550 C   0  0  0  0  0  0  0  0  0  0  0  0
 22 23  1  0  0  0
 23 21  1  0  0  0
 21 20  1  0  0  0
 20 19  1  0  0  0
 19 18  1  0  0  0
 18 17  1  0  0  0
 17 16  1  0  0  0
 16  9  1  0  0  0
  9  7  1  0  0  0
  9  2  1  0  0  0
  7  8  1  0  0  0
  7  5  1  0  0  0
  5  6  1  0  0  0
  5  3  1  0  0  0
  3  4  1  0  0  0
  3  1  1  0  0  0
  1  2  1  0  0  0
  1 14  1  0  0  0
 14 13  1  0  0  0
 13 15  1  0  0  0
  4 10  1  0  0  0
  6 11  1  0  0  0
  8 12  1  0  0  0
M  END
> <minimizedAffinity>
-4.99476

$$$$
4LOV_KGM_A_201


 23 23  0  0  0  0  0  0  0  0999 V2000
   12.4706   -6.8576  -36.8422 C   0  0  0  0  0  0  0  0  0  0  0  0
   11.3371   -7.7399  -36.7283 O   0  0  0  0  0  0  0  0  0  0  0  0
   13.4268   -6.9418  -35.6036 C   0  0  0  0  0  0  0  0  0  0  0  0
   14.4121   -5.9606  -35.7493 O   0  0  0  0  0  0  0  0  0  0  0  0
   12.5722   -6.6744  -34.3507 C   0  0  0  0  0  0  0  0  0  0  0  0
   13.3302   -6.8564  -33.1791 O   0  0  0  0  0  0  0  0  0  0  0  0
   11.3533   -7.6832  -34.2432 C   0  0  0  0  0  0  0  0  0  0  0  0
   11.8050   -9.0186  -34.1162 O   0  0  0  0  0  0  0  0  0  0  0  0
   10.4900   -7.5886  -35.5412 C   0  0  0  0  0  0  0  0  0  0  0  0
   13.9922   -5.0895  -35.8259 H   0  0  0  0  0  0  0  0  0  0  0  0
   13.6290   -7.7778  -33.1272 H   0  0  0  0  0  0  0  0  0  0  0  0
   12.3238   -9.2603  -34.8994 H   0  0  0  0  0  0  0  0  0  0  0  0
   14.5750   -7.4168  -37.9362 O   0  0  0  0  0  0  0  0  0  0  0  0
   13.1670   -7.2699  -38.1739 C   0  0  0  0  0  0  0  0  0  0  0  0
   15.0171   -7.6736  -38.7605 H   0  0  0  0  0  0  0  0  0  0  0  0
    9.8620   -6.3386  -35.7022 O   0  0  0  0  0  0  0  0  0  0  0  0
    9.1806   -5.9902  -36.9383 C   0  0  0  0  0  0  0  0  0  0  0  0
    9.8975   -4.6866  -37.3697 C   0  0  0  0  0  0  0  0  0  0  0  0
    9.4393   -4.1443  -38.6848 C   0  0  0  0  0  0  0  0  0  0  0  0
    8.1996   -3.6348  -38.8499 C   0  0  0  0  0  0  0  0  0  0  0  0
    7.7883   -3.1213  -40.2092 C   0  0  0  0  0  0  0  0  0  0  0  0
    7.8952   -4.7703  -42.0703 C   0  0  0  0  0  0  0  0  0  0  0  0
    8.6267   -3.6132  -41.3508 C   0  0  0  0  0  0  0  0  0  0  0  0
 22 23  1  0  0  0
 23 21  1  0  0  0
 21 20  1  0  0  0
 20 19  1  0  0  0
 19 18  1  0  0  0
 18 17  1  0  0  0
 17 16  1  0  0  0
 16  9  1  0  0  0
  9  7  1  0  0  0
  9  2  1  0  0  0
  7  8  1  0  0  0
  7  5  1  0  0  0
  5  6  1  0  0  0
  5  3  1  0  0  0
  3  4  1  0  0  0
  3  1  1  0  0  0
  1  2  1  0  0  0
  1 14  1  0  0  0
 14 13  1  0  0  0
 13 15  1  0  0  0
  4 10  1  0  0  0
  6 11  1  0  0  0
  8 12  1  0  0  0
M  END
> <minimizedAffinity>
-4.98280

$$$$
