1D2E_GDP_A_1301


 36 38  0  0  0  0  0  0  0  0999 V2000
   13.8753  -13.8247   48.8543 C   0  0  0  0  0  0  0  0  0  0  0  0
   12.9539  -13.4725   47.7797 O   0  0  0  0  0  0  0  0  0  0  0  0
   15.0625  -14.5083   48.1868 C   0  0  0  0  0  0  0  0  0  0  0  0
   14.7835  -15.9091   48.2980 O   0  0  0  0  0  0  0  0  0  0  0  0
   14.9618  -13.9601   46.7440 C   0  0  0  0  0  0  0  0  0  0  0  0
   15.6050  -14.8027   45.7726 O   0  0  0  0  0  0  0  0  0  0  0  0
   13.4669  -13.8795   46.5167 C   0  0  0  0  0  0  0  0  0  0  0  0
   13.8974  -16.0911   47.9477 H   0  0  0  0  0  0  0  0  0  0  0  0
   15.2107  -15.6885   45.8013 H   0  0  0  0  0  0  0  0  0  0  0  0
   13.1261  -12.8695   45.4720 N   0  0  0  0  0  0  0  0  0  0  0  0
   13.5523  -11.5509   45.3228 C   0  0  0  0  0  0  0  0  0  0  0  0
   13.0682  -10.9295   44.2668 N   0  0  0  0  0  0  0  0  0  0  0  0
   12.2651  -11.9044   43.6788 C   0  0  0  0  0  0  0  0  0  0  0  0
   11.4638  -11.8804   42.5058 C   0  0  0  0  0  0  0  0  0  0  0  0
   11.2996  -10.9311   41.6995 O   0  0  0  0  0  0  0  0  0  0  0  0
   10.7987  -13.0866   42.2610 N   0  0  0  0  0  0  0  0  0  0  0  0
   10.8869  -14.2235   43.0605 C   0  0  0  0  0  0  0  0  0  0  0  0
   10.1949  -15.2934   42.7026 N   0  0  0  0  0  0  0  0  0  0  0  0
   11.6427  -14.2723   44.1699 N   0  0  0  0  0  0  0  0  0  0  0  0
   12.2955  -13.0992   44.4222 C   0  0  0  0  0  0  0  0  0  0  0  0
   10.2245  -13.1354   41.4627 H   0  0  0  0  0  0  0  0  0  0  0  0
    9.6372  -15.2704   41.8916 H   0  0  0  0  0  0  0  0  0  0  0  0
   10.2379  -16.1123   43.2474 H   0  0  0  0  0  0  0  0  0  0  0  0
   14.2241  -12.5377   49.5894 C   0  0  0  0  0  0  0  0  0  0  0  0
   15.6454  -12.3054   49.6018 O   0  0  0  0  0  0  0  0  0  0  0  0
   16.2039  -10.8475   49.8940 P   0  0  0  0  0  0  0  0  0  0  0  0
   17.3394  -10.8105   50.8042 O   0  0  0  0  0  0  0  0  0  0  0  0
   16.3443  -10.1571   48.6028 O   0  0  0  0  0  0  0  0  0  0  0  0
   16.6848   -9.2610   48.7507 H   0  0  0  0  0  0  0  0  0  0  0  0
   14.9449  -10.2510   50.7048 O   0  0  0  0  0  0  0  0  0  0  0  0
   14.8487   -9.0747   51.8138 P   0  0  0  0  0  0  0  0  0  0  0  0
   14.9582   -9.7598   53.1271 O   0  0  0  0  0  0  0  0  0  0  0  0
   13.5983   -8.3525   51.5465 O   0  0  0  0  0  0  0  0  0  0  0  0
   15.9679   -8.1673   51.5606 O   0  0  0  0  0  0  0  0  0  0  0  0
   13.4963   -7.6337   52.1897 H   0  0  0  0  0  0  0  0  0  0  0  0
   15.9493   -7.4431   52.2057 H   0  0  0  0  0  0  0  0  0  0  0  0
 31 32  2  0  0  0
 31 33  1  0  0  0
 31 34  1  0  0  0
 31 30  1  0  0  0
 30 26  1  0  0  0
 26 27  2  0  0  0
 26 28  1  0  0  0
 26 25  1  0  0  0
 25 24  1  0  0  0
 24  1  1  0  0  0
  1  2  1  0  0  0
  1  3  1  0  0  0
  2  7  1  0  0  0
  3  4  1  0  0  0
  3  5  1  0  0  0
  5  6  1  0  0  0
  5  7  1  0  0  0
  7 10  1  0  0  0
 10 11  1  0  0  0
 10 20  1  0  0  0
 11 12  2  0  0  0
 12 13  1  0  0  0
 13 14  1  0  0  0
 13 20  2  0  0  0
 14 15  2  0  0  0
 14 16  1  0  0  0
 16 17  1  0  0  0
 17 18  1  0  0  0
 17 19  2  0  0  0
 19 20  1  0  0  0
 33 35  1  0  0  0
 34 36  1  0  0  0
 28 29  1  0  0  0
  4  8  1  0  0  0
  6  9  1  0  0  0
 16 21  1  0  0  0
 18 22  1  0  0  0
 18 23  1  0  0  0
M  END
> <minimizedAffinity>
-10.72767

$$$$
1D2E_GDP_A_1301


 36 38  0  0  0  0  0  0  0  0999 V2000
   14.4704  -13.5310   48.6361 C   0  0  0  0  0  0  0  0  0  0  0  0
   13.3485  -13.9838   47.8211 O   0  0  0  0  0  0  0  0  0  0  0  0
   15.7272  -13.8191   47.8237 C   0  0  0  0  0  0  0  0  0  0  0  0
   16.1956  -15.0804   48.3162 O   0  0  0  0  0  0  0  0  0  0  0  0
   15.1579  -13.8778   46.3868 C   0  0  0  0  0  0  0  0  0  0  0  0
   15.9820  -14.6328   45.4823 O   0  0  0  0  0  0  0  0  0  0  0  0
   13.8032  -14.5243   46.5861 C   0  0  0  0  0  0  0  0  0  0  0  0
   15.4743  -15.7281   48.2840 H   0  0  0  0  0  0  0  0  0  0  0  0
   16.0853  -15.5372   45.8174 H   0  0  0  0  0  0  0  0  0  0  0  0
   12.8588  -14.1655   45.4875 N   0  0  0  0  0  0  0  0  0  0  0  0
   12.9749  -13.2125   44.4771 C   0  0  0  0  0  0  0  0  0  0  0  0
   11.9538  -13.1604   43.6463 N   0  0  0  0  0  0  0  0  0  0  0  0
   11.1034  -14.1457   44.1435 C   0  0  0  0  0  0  0  0  0  0  0  0
    9.8318  -14.6004   43.7020 C   0  0  0  0  0  0  0  0  0  0  0  0
    9.1651  -14.1983   42.7160 O   0  0  0  0  0  0  0  0  0  0  0  0
    9.3006  -15.6239   44.4940 N   0  0  0  0  0  0  0  0  0  0  0  0
    9.9238  -16.1737   45.6116 C   0  0  0  0  0  0  0  0  0  0  0  0
    9.2954  -17.1376   46.2657 N   0  0  0  0  0  0  0  0  0  0  0  0
   11.1282  -15.7651   46.0440 N   0  0  0  0  0  0  0  0  0  0  0  0
   11.6568  -14.7633   45.2807 C   0  0  0  0  0  0  0  0  0  0  0  0
    8.4192  -15.9830   44.2422 H   0  0  0  0  0  0  0  0  0  0  0  0
    8.4122  -17.4459   45.9588 H   0  0  0  0  0  0  0  0  0  0  0  0
    9.7112  -17.5462   47.0590 H   0  0  0  0  0  0  0  0  0  0  0  0
   14.2426  -12.0561   48.9377 C   0  0  0  0  0  0  0  0  0  0  0  0
   14.8942  -11.6602   50.1594 O   0  0  0  0  0  0  0  0  0  0  0  0
   15.8244  -10.3728   50.1760 P   0  0  0  0  0  0  0  0  0  0  0  0
   16.4531  -10.0695   48.8985 O   0  0  0  0  0  0  0  0  0  0  0  0
   15.0788   -9.2930   50.8407 O   0  0  0  0  0  0  0  0  0  0  0  0
   15.6242   -8.4912   50.8654 H   0  0  0  0  0  0  0  0  0  0  0  0
   16.9919  -10.9154   51.1458 O   0  0  0  0  0  0  0  0  0  0  0  0
   16.9302  -11.6037   52.6105 P   0  0  0  0  0  0  0  0  0  0  0  0
   17.4733  -12.9739   52.4265 O   0  0  0  0  0  0  0  0  0  0  0  0
   15.5363  -11.4994   53.0605 O   0  0  0  0  0  0  0  0  0  0  0  0
   17.7619  -10.7858   53.4934 O   0  0  0  0  0  0  0  0  0  0  0  0
   15.4494  -11.9008   53.9393 H   0  0  0  0  0  0  0  0  0  0  0  0
   17.7538  -11.1637   54.3868 H   0  0  0  0  0  0  0  0  0  0  0  0
 31 32  2  0  0  0
 31 33  1  0  0  0
 31 34  1  0  0  0
 31 30  1  0  0  0
 30 26  1  0  0  0
 26 27  2  0  0  0
 26 28  1  0  0  0
 26 25  1  0  0  0
 25 24  1  0  0  0
 24  1  1  0  0  0
  1  2  1  0  0  0
  1  3  1  0  0  0
  2  7  1  0  0  0
  3  4  1  0  0  0
  3  5  1  0  0  0
  5  6  1  0  0  0
  5  7  1  0  0  0
  7 10  1  0  0  0
 10 11  1  0  0  0
 10 20  1  0  0  0
 11 12  2  0  0  0
 12 13  1  0  0  0
 13 14  1  0  0  0
 13 20  2  0  0  0
 14 15  2  0  0  0
 14 16  1  0  0  0
 16 17  1  0  0  0
 17 18  1  0  0  0
 17 19  2  0  0  0
 19 20  1  0  0  0
 33 35  1  0  0  0
 34 36  1  0  0  0
 28 29  1  0  0  0
  4  8  1  0  0  0
  6  9  1  0  0  0
 16 21  1  0  0  0
 18 22  1  0  0  0
 18 23  1  0  0  0
M  END
> <minimizedAffinity>
-8.66617

$$$$
1D2E_GDP_A_1301


 36 38  0  0  0  0  0  0  0  0999 V2000
   14.3196  -13.3931   49.5583 C   0  0  0  0  0  0  0  0  0  0  0  0
   13.1179  -14.0807   49.0987 O   0  0  0  0  0  0  0  0  0  0  0  0
   15.4982  -14.1959   49.0209 C   0  0  0  0  0  0  0  0  0  0  0  0
   15.8733  -15.0571   50.1028 O   0  0  0  0  0  0  0  0  0  0  0  0
   14.8490  -14.9337   47.8266 C   0  0  0  0  0  0  0  0  0  0  0  0
   15.5490  -16.1331   47.4544 O   0  0  0  0  0  0  0  0  0  0  0  0
   13.4528  -15.2312   48.3317 C   0  0  0  0  0  0  0  0  0  0  0  0
   15.0942  -15.5445   50.4131 H   0  0  0  0  0  0  0  0  0  0  0  0
   15.5858  -16.7350   48.2142 H   0  0  0  0  0  0  0  0  0  0  0  0
   12.4878  -15.3988   47.2055 N   0  0  0  0  0  0  0  0  0  0  0  0
   11.5154  -16.3742   46.9919 C   0  0  0  0  0  0  0  0  0  0  0  0
   10.8109  -16.2205   45.8894 N   0  0  0  0  0  0  0  0  0  0  0  0
   11.3571  -15.0647   45.3352 C   0  0  0  0  0  0  0  0  0  0  0  0
   11.0446  -14.3544   44.1450 C   0  0  0  0  0  0  0  0  0  0  0  0
   10.1614  -14.6222   43.2927 O   0  0  0  0  0  0  0  0  0  0  0  0
   11.8449  -13.2246   43.9445 N   0  0  0  0  0  0  0  0  0  0  0  0
   12.8570  -12.8008   44.8021 C   0  0  0  0  0  0  0  0  0  0  0  0
   13.5343  -11.7109   44.4777 N   0  0  0  0  0  0  0  0  0  0  0  0
   13.1661  -13.4517   45.9358 N   0  0  0  0  0  0  0  0  0  0  0  0
   12.3936  -14.5592   46.1420 C   0  0  0  0  0  0  0  0  0  0  0  0
   11.6801  -12.6883   43.1355 H   0  0  0  0  0  0  0  0  0  0  0  0
   13.3174  -11.2248   43.6495 H   0  0  0  0  0  0  0  0  0  0  0  0
   14.2549  -11.3862   45.0647 H   0  0  0  0  0  0  0  0  0  0  0  0
   14.2467  -11.9629   49.0411 C   0  0  0  0  0  0  0  0  0  0  0  0
   14.5497  -11.0104   50.0780 O   0  0  0  0  0  0  0  0  0  0  0  0
   15.9382  -10.2394   50.0595 P   0  0  0  0  0  0  0  0  0  0  0  0
   16.5436  -10.1239   48.7407 O   0  0  0  0  0  0  0  0  0  0  0  0
   15.7729   -9.0053   50.8426 O   0  0  0  0  0  0  0  0  0  0  0  0
   16.6081   -8.5120   50.8489 H   0  0  0  0  0  0  0  0  0  0  0  0
   16.8291  -11.3006   50.8832 O   0  0  0  0  0  0  0  0  0  0  0  0
   16.7095  -11.8427   52.4045 P   0  0  0  0  0  0  0  0  0  0  0  0
   16.8784  -13.3156   52.3136 O   0  0  0  0  0  0  0  0  0  0  0  0
   15.4240  -11.3547   52.9200 O   0  0  0  0  0  0  0  0  0  0  0  0
   17.7834  -11.2019   53.1636 O   0  0  0  0  0  0  0  0  0  0  0  0
   15.3069  -11.6562   53.8345 H   0  0  0  0  0  0  0  0  0  0  0  0
   17.7495  -11.4997   54.0861 H   0  0  0  0  0  0  0  0  0  0  0  0
 31 32  2  0  0  0
 31 33  1  0  0  0
 31 34  1  0  0  0
 31 30  1  0  0  0
 30 26  1  0  0  0
 26 27  2  0  0  0
 26 28  1  0  0  0
 26 25  1  0  0  0
 25 24  1  0  0  0
 24  1  1  0  0  0
  1  2  1  0  0  0
  1  3  1  0  0  0
  2  7  1  0  0  0
  3  4  1  0  0  0
  3  5  1  0  0  0
  5  6  1  0  0  0
  5  7  1  0  0  0
  7 10  1  0  0  0
 10 11  1  0  0  0
 10 20  1  0  0  0
 11 12  2  0  0  0
 12 13  1  0  0  0
 13 14  1  0  0  0
 13 20  2  0  0  0
 14 15  2  0  0  0
 14 16  1  0  0  0
 16 17  1  0  0  0
 17 18  1  0  0  0
 17 19  2  0  0  0
 19 20  1  0  0  0
 33 35  1  0  0  0
 34 36  1  0  0  0
 28 29  1  0  0  0
  4  8  1  0  0  0
  6  9  1  0  0  0
 16 21  1  0  0  0
 18 22  1  0  0  0
 18 23  1  0  0  0
M  END
> <minimizedAffinity>
-8.65333

$$$$
1D2E_GDP_A_1301


 36 38  0  0  0  0  0  0  0  0999 V2000
   14.6078  -12.7871   48.7646 C   0  0  0  0  0  0  0  0  0  0  0  0
   15.3316  -13.5893   47.7847 O   0  0  0  0  0  0  0  0  0  0  0  0
   13.7993  -13.7705   49.6025 C   0  0  0  0  0  0  0  0  0  0  0  0
   12.4974  -13.7711   49.0044 O   0  0  0  0  0  0  0  0  0  0  0  0
   14.5907  -15.0817   49.3866 C   0  0  0  0  0  0  0  0  0  0  0  0
   13.8017  -16.2623   49.6125 O   0  0  0  0  0  0  0  0  0  0  0  0
   15.0389  -14.9724   47.9443 C   0  0  0  0  0  0  0  0  0  0  0  0
   12.5786  -13.9428   48.0532 H   0  0  0  0  0  0  0  0  0  0  0  0
   13.0339  -16.2564   49.0197 H   0  0  0  0  0  0  0  0  0  0  0  0
   16.2602  -15.7909   47.6874 N   0  0  0  0  0  0  0  0  0  0  0  0
   16.6829  -16.9836   48.2717 C   0  0  0  0  0  0  0  0  0  0  0  0
   17.8166  -17.4595   47.7987 N   0  0  0  0  0  0  0  0  0  0  0  0
   18.1683  -16.5147   46.8370 C   0  0  0  0  0  0  0  0  0  0  0  0
   19.2826  -16.4370   45.9590 C   0  0  0  0  0  0  0  0  0  0  0  0
   20.2387  -17.2443   45.8477 O   0  0  0  0  0  0  0  0  0  0  0  0
   19.2651  -15.3058   45.1360 N   0  0  0  0  0  0  0  0  0  0  0  0
   18.2724  -14.3291   45.1425 C   0  0  0  0  0  0  0  0  0  0  0  0
   18.3935  -13.3105   44.3060 N   0  0  0  0  0  0  0  0  0  0  0  0
   17.2067  -14.3844   45.9584 N   0  0  0  0  0  0  0  0  0  0  0  0
   17.2132  -15.4832   46.7698 C   0  0  0  0  0  0  0  0  0  0  0  0
   20.0115  -15.1914   44.5043 H   0  0  0  0  0  0  0  0  0  0  0  0
   19.1699  -13.2584   43.7029 H   0  0  0  0  0  0  0  0  0  0  0  0
   17.7071  -12.6050   44.2870 H   0  0  0  0  0  0  0  0  0  0  0  0
   15.6425  -11.9947   49.5518 C   0  0  0  0  0  0  0  0  0  0  0  0
   15.9923  -12.6582   50.7812 O   0  0  0  0  0  0  0  0  0  0  0  0
   16.4807  -11.8034   52.0277 P   0  0  0  0  0  0  0  0  0  0  0  0
   16.4664  -12.5237   53.2927 O   0  0  0  0  0  0  0  0  0  0  0  0
   17.7299  -11.1286   51.6431 O   0  0  0  0  0  0  0  0  0  0  0  0
   18.0527  -10.5972   52.3876 H   0  0  0  0  0  0  0  0  0  0  0  0
   15.2743  -10.7364   52.0924 O   0  0  0  0  0  0  0  0  0  0  0  0
   15.2740   -9.1186   52.0183 P   0  0  0  0  0  0  0  0  0  0  0  0
   15.7591   -8.6621   53.3459 O   0  0  0  0  0  0  0  0  0  0  0  0
   13.9126   -8.7200   51.6387 O   0  0  0  0  0  0  0  0  0  0  0  0
   16.1821   -8.7483   50.9328 O   0  0  0  0  0  0  0  0  0  0  0  0
   13.8629   -7.7530   51.5813 H   0  0  0  0  0  0  0  0  0  0  0  0
   16.2127   -7.7821   50.8523 H   0  0  0  0  0  0  0  0  0  0  0  0
 31 32  2  0  0  0
 31 33  1  0  0  0
 31 34  1  0  0  0
 31 30  1  0  0  0
 30 26  1  0  0  0
 26 27  2  0  0  0
 26 28  1  0  0  0
 26 25  1  0  0  0
 25 24  1  0  0  0
 24  1  1  0  0  0
  1  2  1  0  0  0
  1  3  1  0  0  0
  2  7  1  0  0  0
  3  4  1  0  0  0
  3  5  1  0  0  0
  5  6  1  0  0  0
  5  7  1  0  0  0
  7 10  1  0  0  0
 10 11  1  0  0  0
 10 20  1  0  0  0
 11 12  2  0  0  0
 12 13  1  0  0  0
 13 14  1  0  0  0
 13 20  2  0  0  0
 14 15  2  0  0  0
 14 16  1  0  0  0
 16 17  1  0  0  0
 17 18  1  0  0  0
 17 19  2  0  0  0
 19 20  1  0  0  0
 33 35  1  0  0  0
 34 36  1  0  0  0
 28 29  1  0  0  0
  4  8  1  0  0  0
  6  9  1  0  0  0
 16 21  1  0  0  0
 18 22  1  0  0  0
 18 23  1  0  0  0
M  END
> <minimizedAffinity>
-8.31301

$$$$
1D2E_GDP_A_1301


 36 38  0  0  0  0  0  0  0  0999 V2000
   15.2883  -12.0209   48.2177 C   0  0  0  0  0  0  0  0  0  0  0  0
   15.9294  -13.3199   48.0464 O   0  0  0  0  0  0  0  0  0  0  0  0
   13.8356  -12.2070   47.7963 C   0  0  0  0  0  0  0  0  0  0  0  0
   13.7960  -11.7726   46.4315 O   0  0  0  0  0  0  0  0  0  0  0  0
   13.6563  -13.7327   47.9756 C   0  0  0  0  0  0  0  0  0  0  0  0
   12.5879  -14.2740   47.1802 O   0  0  0  0  0  0  0  0  0  0  0  0
   15.0035  -14.2828   47.5569 C   0  0  0  0  0  0  0  0  0  0  0  0
   14.4801  -12.2370   45.9244 H   0  0  0  0  0  0  0  0  0  0  0  0
   12.7540  -14.0843   46.2435 H   0  0  0  0  0  0  0  0  0  0  0  0
   15.2677  -15.6141   48.1777 N   0  0  0  0  0  0  0  0  0  0  0  0
   15.1589  -16.8951   47.6393 C   0  0  0  0  0  0  0  0  0  0  0  0
   15.4879  -17.8702   48.4618 N   0  0  0  0  0  0  0  0  0  0  0  0
   15.8361  -17.1863   49.6246 C   0  0  0  0  0  0  0  0  0  0  0  0
   16.2879  -17.6508   50.8890 C   0  0  0  0  0  0  0  0  0  0  0  0
   16.4871  -18.8368   51.2522 O   0  0  0  0  0  0  0  0  0  0  0  0
   16.5289  -16.6225   51.8064 N   0  0  0  0  0  0  0  0  0  0  0  0
   16.3582  -15.2649   51.5469 C   0  0  0  0  0  0  0  0  0  0  0  0
   16.6240  -14.4056   52.5179 N   0  0  0  0  0  0  0  0  0  0  0  0
   15.9389  -14.8015   50.3578 N   0  0  0  0  0  0  0  0  0  0  0  0
   15.6969  -15.7962   49.4535 C   0  0  0  0  0  0  0  0  0  0  0  0
   16.8431  -16.8780   52.7038 H   0  0  0  0  0  0  0  0  0  0  0  0
   16.9321  -14.7326   53.3939 H   0  0  0  0  0  0  0  0  0  0  0  0
   16.5136  -13.4395   52.3641 H   0  0  0  0  0  0  0  0  0  0  0  0
   15.4722  -11.6156   49.6739 C   0  0  0  0  0  0  0  0  0  0  0  0
   14.6455  -10.4871   50.0163 O   0  0  0  0  0  0  0  0  0  0  0  0
   15.0504   -9.5539   51.2361 P   0  0  0  0  0  0  0  0  0  0  0  0
   16.3367   -8.8897   51.0831 O   0  0  0  0  0  0  0  0  0  0  0  0
   13.8863   -8.7157   51.5613 O   0  0  0  0  0  0  0  0  0  0  0  0
   14.1051   -8.1333   52.3055 H   0  0  0  0  0  0  0  0  0  0  0  0
   15.2488  -10.6855   52.3667 O   0  0  0  0  0  0  0  0  0  0  0  0
   16.4708  -10.9698   53.3908 P   0  0  0  0  0  0  0  0  0  0  0  0
   17.6291  -11.3300   52.5336 O   0  0  0  0  0  0  0  0  0  0  0  0
   15.9973  -11.9959   54.3285 O   0  0  0  0  0  0  0  0  0  0  0  0
   16.6900   -9.7303   54.1363 O   0  0  0  0  0  0  0  0  0  0  0  0
   16.6996  -12.2005   54.9655 H   0  0  0  0  0  0  0  0  0  0  0  0
   17.4177   -9.8557   54.7652 H   0  0  0  0  0  0  0  0  0  0  0  0
 31 32  2  0  0  0
 31 33  1  0  0  0
 31 34  1  0  0  0
 31 30  1  0  0  0
 30 26  1  0  0  0
 26 27  2  0  0  0
 26 28  1  0  0  0
 26 25  1  0  0  0
 25 24  1  0  0  0
 24  1  1  0  0  0
  1  2  1  0  0  0
  1  3  1  0  0  0
  2  7  1  0  0  0
  3  4  1  0  0  0
  3  5  1  0  0  0
  5  6  1  0  0  0
  5  7  1  0  0  0
  7 10  1  0  0  0
 10 11  1  0  0  0
 10 20  1  0  0  0
 11 12  2  0  0  0
 12 13  1  0  0  0
 13 14  1  0  0  0
 13 20  2  0  0  0
 14 15  2  0  0  0
 14 16  1  0  0  0
 16 17  1  0  0  0
 17 18  1  0  0  0
 17 19  2  0  0  0
 19 20  1  0  0  0
 33 35  1  0  0  0
 34 36  1  0  0  0
 28 29  1  0  0  0
  4  8  1  0  0  0
  6  9  1  0  0  0
 16 21  1  0  0  0
 18 22  1  0  0  0
 18 23  1  0  0  0
M  END
> <minimizedAffinity>
-8.23186

$$$$
1D2E_GDP_A_1301


 36 38  0  0  0  0  0  0  0  0999 V2000
   15.0246  -12.0329   48.3976 C   0  0  0  0  0  0  0  0  0  0  0  0
   15.8975  -13.1281   47.9894 O   0  0  0  0  0  0  0  0  0  0  0  0
   13.7316  -12.6796   48.8798 C   0  0  0  0  0  0  0  0  0  0  0  0
   12.8569  -12.6293   47.7462 O   0  0  0  0  0  0  0  0  0  0  0  0
   14.2151  -14.1045   49.2378 C   0  0  0  0  0  0  0  0  0  0  0  0
   13.1597  -15.0807   49.2213 O   0  0  0  0  0  0  0  0  0  0  0  0
   15.2569  -14.3847   48.1753 C   0  0  0  0  0  0  0  0  0  0  0  0
   13.3015  -13.0190   46.9772 H   0  0  0  0  0  0  0  0  0  0  0  0
   12.7495  -15.0987   48.3425 H   0  0  0  0  0  0  0  0  0  0  0  0
   16.2456  -15.4045   48.6339 N   0  0  0  0  0  0  0  0  0  0  0  0
   16.3616  -16.0568   49.8602 C   0  0  0  0  0  0  0  0  0  0  0  0
   17.3500  -16.9246   49.9333 N   0  0  0  0  0  0  0  0  0  0  0  0
   17.9282  -16.8381   48.6687 C   0  0  0  0  0  0  0  0  0  0  0  0
   19.0354  -17.5172   48.0927 C   0  0  0  0  0  0  0  0  0  0  0  0
   19.7682  -18.3905   48.6206 O   0  0  0  0  0  0  0  0  0  0  0  0
   19.2995  -17.1329   46.7737 N   0  0  0  0  0  0  0  0  0  0  0  0
   18.5731  -16.1845   46.0578 C   0  0  0  0  0  0  0  0  0  0  0  0
   18.9445  -15.9218   44.8149 N   0  0  0  0  0  0  0  0  0  0  0  0
   17.5191  -15.5347   46.5785 N   0  0  0  0  0  0  0  0  0  0  0  0
   17.2523  -15.8988   47.8678 C   0  0  0  0  0  0  0  0  0  0  0  0
   20.0565  -17.5658   46.3168 H   0  0  0  0  0  0  0  0  0  0  0  0
   19.7153  -16.3913   44.4218 H   0  0  0  0  0  0  0  0  0  0  0  0
   18.4498  -15.2568   44.2835 H   0  0  0  0  0  0  0  0  0  0  0  0
   15.7655  -11.2395   49.4653 C   0  0  0  0  0  0  0  0  0  0  0  0
   14.8889  -10.8562   50.5417 O   0  0  0  0  0  0  0  0  0  0  0  0
   15.2105   -9.5565   51.3962 P   0  0  0  0  0  0  0  0  0  0  0  0
   16.3861   -8.8216   50.9524 O   0  0  0  0  0  0  0  0  0  0  0  0
   13.9563   -8.8039   51.5516 O   0  0  0  0  0  0  0  0  0  0  0  0
   14.1227   -8.0019   52.0713 H   0  0  0  0  0  0  0  0  0  0  0  0
   15.6078  -10.2610   52.7905 O   0  0  0  0  0  0  0  0  0  0  0  0
   16.6431  -11.4608   53.1242 P   0  0  0  0  0  0  0  0  0  0  0  0
   16.8497  -11.4070   54.5941 O   0  0  0  0  0  0  0  0  0  0  0  0
   17.8246  -11.2368   52.2815 O   0  0  0  0  0  0  0  0  0  0  0  0
   15.9992  -12.7020   52.6944 O   0  0  0  0  0  0  0  0  0  0  0  0
   18.4772  -11.9351   52.4474 H   0  0  0  0  0  0  0  0  0  0  0  0
   16.5876  -13.4514   52.8765 H   0  0  0  0  0  0  0  0  0  0  0  0
 31 32  2  0  0  0
 31 33  1  0  0  0
 31 34  1  0  0  0
 31 30  1  0  0  0
 30 26  1  0  0  0
 26 27  2  0  0  0
 26 28  1  0  0  0
 26 25  1  0  0  0
 25 24  1  0  0  0
 24  1  1  0  0  0
  1  2  1  0  0  0
  1  3  1  0  0  0
  2  7  1  0  0  0
  3  4  1  0  0  0
  3  5  1  0  0  0
  5  6  1  0  0  0
  5  7  1  0  0  0
  7 10  1  0  0  0
 10 11  1  0  0  0
 10 20  1  0  0  0
 11 12  2  0  0  0
 12 13  1  0  0  0
 13 14  1  0  0  0
 13 20  2  0  0  0
 14 15  2  0  0  0
 14 16  1  0  0  0
 16 17  1  0  0  0
 17 18  1  0  0  0
 17 19  2  0  0  0
 19 20  1  0  0  0
 33 35  1  0  0  0
 34 36  1  0  0  0
 28 29  1  0  0  0
  4  8  1  0  0  0
  6  9  1  0  0  0
 16 21  1  0  0  0
 18 22  1  0  0  0
 18 23  1  0  0  0
M  END
> <minimizedAffinity>
-8.21515

$$$$
1D2E_GDP_A_1301


 36 38  0  0  0  0  0  0  0  0999 V2000
   14.3168  -13.9401   46.9741 C   0  0  0  0  0  0  0  0  0  0  0  0
   13.4821  -15.1125   46.7353 O   0  0  0  0  0  0  0  0  0  0  0  0
   14.1070  -13.0204   45.7771 C   0  0  0  0  0  0  0  0  0  0  0  0
   15.1990  -13.3154   44.8979 O   0  0  0  0  0  0  0  0  0  0  0  0
   12.7328  -13.5024   45.2560 C   0  0  0  0  0  0  0  0  0  0  0  0
   12.5154  -13.1968   43.8679 O   0  0  0  0  0  0  0  0  0  0  0  0
   12.7829  -14.9957   45.5018 C   0  0  0  0  0  0  0  0  0  0  0  0
   15.2353  -14.2712   44.7367 H   0  0  0  0  0  0  0  0  0  0  0  0
   13.2153  -13.6038   43.3338 H   0  0  0  0  0  0  0  0  0  0  0  0
   11.4135  -15.5755   45.6286 N   0  0  0  0  0  0  0  0  0  0  0  0
   10.6310  -15.7951   46.7610 C   0  0  0  0  0  0  0  0  0  0  0  0
    9.4449  -16.3155   46.5209 N   0  0  0  0  0  0  0  0  0  0  0  0
    9.4445  -16.4512   45.1342 C   0  0  0  0  0  0  0  0  0  0  0  0
    8.4594  -16.9468   44.2384 C   0  0  0  0  0  0  0  0  0  0  0  0
    7.3154  -17.3878   44.5122 O   0  0  0  0  0  0  0  0  0  0  0  0
    8.8597  -16.9162   42.8982 N   0  0  0  0  0  0  0  0  0  0  0  0
   10.0914  -16.4522   42.4433 C   0  0  0  0  0  0  0  0  0  0  0  0
   10.3302  -16.4883   41.1420 N   0  0  0  0  0  0  0  0  0  0  0  0
   11.0356  -15.9731   43.2701 N   0  0  0  0  0  0  0  0  0  0  0  0
   10.6582  -16.0001   44.5826 C   0  0  0  0  0  0  0  0  0  0  0  0
    8.2221  -17.2481   42.2255 H   0  0  0  0  0  0  0  0  0  0  0  0
    9.6463  -16.8372   40.5256 H   0  0  0  0  0  0  0  0  0  0  0  0
   11.1915  -16.1663   40.7904 H   0  0  0  0  0  0  0  0  0  0  0  0
   13.8859  -13.3434   48.3070 C   0  0  0  0  0  0  0  0  0  0  0  0
   14.2033  -11.9409   48.3848 O   0  0  0  0  0  0  0  0  0  0  0  0
   15.3917  -11.4517   49.3183 P   0  0  0  0  0  0  0  0  0  0  0  0
   16.0303  -12.5128   50.0834 O   0  0  0  0  0  0  0  0  0  0  0  0
   16.2584  -10.5765   48.5143 O   0  0  0  0  0  0  0  0  0  0  0  0
   16.9956  -10.2615   49.0604 H   0  0  0  0  0  0  0  0  0  0  0  0
   14.5433  -10.5730   50.3701 O   0  0  0  0  0  0  0  0  0  0  0  0
   15.0119   -9.4984   51.4874 P   0  0  0  0  0  0  0  0  0  0  0  0
   15.2908  -10.2951   52.7095 O   0  0  0  0  0  0  0  0  0  0  0  0
   13.9394   -8.4996   51.5793 O   0  0  0  0  0  0  0  0  0  0  0  0
   16.2090   -8.8420   50.9618 O   0  0  0  0  0  0  0  0  0  0  0  0
   14.1764   -7.8306   52.2405 H   0  0  0  0  0  0  0  0  0  0  0  0
   16.5259   -8.1862   51.6025 H   0  0  0  0  0  0  0  0  0  0  0  0
 31 32  2  0  0  0
 31 33  1  0  0  0
 31 34  1  0  0  0
 31 30  1  0  0  0
 30 26  1  0  0  0
 26 27  2  0  0  0
 26 28  1  0  0  0
 26 25  1  0  0  0
 25 24  1  0  0  0
 24  1  1  0  0  0
  1  2  1  0  0  0
  1  3  1  0  0  0
  2  7  1  0  0  0
  3  4  1  0  0  0
  3  5  1  0  0  0
  5  6  1  0  0  0
  5  7  1  0  0  0
  7 10  1  0  0  0
 10 11  1  0  0  0
 10 20  1  0  0  0
 11 12  2  0  0  0
 12 13  1  0  0  0
 13 14  1  0  0  0
 13 20  2  0  0  0
 14 15  2  0  0  0
 14 16  1  0  0  0
 16 17  1  0  0  0
 17 18  1  0  0  0
 17 19  2  0  0  0
 19 20  1  0  0  0
 33 35  1  0  0  0
 34 36  1  0  0  0
 28 29  1  0  0  0
  4  8  1  0  0  0
  6  9  1  0  0  0
 16 21  1  0  0  0
 18 22  1  0  0  0
 18 23  1  0  0  0
M  END
> <minimizedAffinity>
-8.16969

$$$$
1D2E_GDP_A_1301


 36 38  0  0  0  0  0  0  0  0999 V2000
   15.7100  -12.5123   49.6138 C   0  0  0  0  0  0  0  0  0  0  0  0
   15.5313  -13.6826   48.7616 O   0  0  0  0  0  0  0  0  0  0  0  0
   14.8076  -11.4276   49.0378 C   0  0  0  0  0  0  0  0  0  0  0  0
   15.6691  -10.6461   48.2013 O   0  0  0  0  0  0  0  0  0  0  0  0
   13.7714  -12.2712   48.2587 C   0  0  0  0  0  0  0  0  0  0  0  0
   13.1211  -11.5380   47.2067 O   0  0  0  0  0  0  0  0  0  0  0  0
   14.6046  -13.4133   47.7163 C   0  0  0  0  0  0  0  0  0  0  0  0
   16.1331  -11.2294   47.5805 H   0  0  0  0  0  0  0  0  0  0  0  0
   13.7873  -11.2047   46.5853 H   0  0  0  0  0  0  0  0  0  0  0  0
   13.7686  -14.6196   47.4449 N   0  0  0  0  0  0  0  0  0  0  0  0
   13.6483  -15.8099   48.1600 C   0  0  0  0  0  0  0  0  0  0  0  0
   12.7984  -16.6777   47.6501 N   0  0  0  0  0  0  0  0  0  0  0  0
   12.3262  -16.0158   46.5186 C   0  0  0  0  0  0  0  0  0  0  0  0
   11.3813  -16.4010   45.5299 C   0  0  0  0  0  0  0  0  0  0  0  0
   10.7288  -17.4721   45.4580 O   0  0  0  0  0  0  0  0  0  0  0  0
   11.1870  -15.4334   44.5384 N   0  0  0  0  0  0  0  0  0  0  0  0
   11.8331  -14.2006   44.4884 C   0  0  0  0  0  0  0  0  0  0  0  0
   11.5485  -13.3871   43.4840 N   0  0  0  0  0  0  0  0  0  0  0  0
   12.7247  -13.8117   45.4148 N   0  0  0  0  0  0  0  0  0  0  0  0
   12.9260  -14.7494   46.3876 C   0  0  0  0  0  0  0  0  0  0  0  0
   10.5447  -15.6396   43.8214 H   0  0  0  0  0  0  0  0  0  0  0  0
   10.8967  -13.6604   42.7986 H   0  0  0  0  0  0  0  0  0  0  0  0
   11.9886  -12.5086   43.4223 H   0  0  0  0  0  0  0  0  0  0  0  0
   15.3590  -12.9311   51.0350 C   0  0  0  0  0  0  0  0  0  0  0  0
   16.4928  -12.8141   51.9151 O   0  0  0  0  0  0  0  0  0  0  0  0
   16.5631  -11.6164   52.9560 P   0  0  0  0  0  0  0  0  0  0  0  0
   16.1814  -11.9774   54.3137 O   0  0  0  0  0  0  0  0  0  0  0  0
   17.8558  -10.9397   52.7699 O   0  0  0  0  0  0  0  0  0  0  0  0
   17.9269  -10.2011   53.3946 H   0  0  0  0  0  0  0  0  0  0  0  0
   15.3719  -10.7014   52.3713 O   0  0  0  0  0  0  0  0  0  0  0  0
   15.3488   -9.1535   51.8956 P   0  0  0  0  0  0  0  0  0  0  0  0
   13.9207   -8.8428   51.6306 O   0  0  0  0  0  0  0  0  0  0  0  0
   16.2698   -9.0549   50.7562 O   0  0  0  0  0  0  0  0  0  0  0  0
   15.8971   -8.3671   53.0006 O   0  0  0  0  0  0  0  0  0  0  0  0
   16.2897   -8.1400   50.4347 H   0  0  0  0  0  0  0  0  0  0  0  0
   15.9021   -7.4280   52.7578 H   0  0  0  0  0  0  0  0  0  0  0  0
 31 32  2  0  0  0
 31 33  1  0  0  0
 31 34  1  0  0  0
 31 30  1  0  0  0
 30 26  1  0  0  0
 26 27  2  0  0  0
 26 28  1  0  0  0
 26 25  1  0  0  0
 25 24  1  0  0  0
 24  1  1  0  0  0
  1  2  1  0  0  0
  1  3  1  0  0  0
  2  7  1  0  0  0
  3  4  1  0  0  0
  3  5  1  0  0  0
  5  6  1  0  0  0
  5  7  1  0  0  0
  7 10  1  0  0  0
 10 11  1  0  0  0
 10 20  1  0  0  0
 11 12  2  0  0  0
 12 13  1  0  0  0
 13 14  1  0  0  0
 13 20  2  0  0  0
 14 15  2  0  0  0
 14 16  1  0  0  0
 16 17  1  0  0  0
 17 18  1  0  0  0
 17 19  2  0  0  0
 19 20  1  0  0  0
 33 35  1  0  0  0
 34 36  1  0  0  0
 28 29  1  0  0  0
  4  8  1  0  0  0
  6  9  1  0  0  0
 16 21  1  0  0  0
 18 22  1  0  0  0
 18 23  1  0  0  0
M  END
> <minimizedAffinity>
-8.16086

$$$$
1D2E_GDP_A_1301


 36 38  0  0  0  0  0  0  0  0999 V2000
   15.3249  -12.2756   48.5178 C   0  0  0  0  0  0  0  0  0  0  0  0
   15.8228  -13.5882   48.9144 O   0  0  0  0  0  0  0  0  0  0  0  0
   13.8047  -12.3837   48.5122 C   0  0  0  0  0  0  0  0  0  0  0  0
   13.4658  -12.6537   47.1466 O   0  0  0  0  0  0  0  0  0  0  0  0
   13.5779  -13.5811   49.4646 C   0  0  0  0  0  0  0  0  0  0  0  0
   12.3178  -14.2406   49.2540 O   0  0  0  0  0  0  0  0  0  0  0  0
   14.7476  -14.4897   49.1497 C   0  0  0  0  0  0  0  0  0  0  0  0
   13.9775  -13.4150   46.8310 H   0  0  0  0  0  0  0  0  0  0  0  0
   12.2656  -14.5529   48.3371 H   0  0  0  0  0  0  0  0  0  0  0  0
   15.0688  -15.3863   50.2989 N   0  0  0  0  0  0  0  0  0  0  0  0
   15.9969  -15.2329   51.3273 C   0  0  0  0  0  0  0  0  0  0  0  0
   16.0174  -16.2156   52.2045 N   0  0  0  0  0  0  0  0  0  0  0  0
   15.0365  -17.0788   51.7210 C   0  0  0  0  0  0  0  0  0  0  0  0
   14.5579  -18.3249   52.2076 C   0  0  0  0  0  0  0  0  0  0  0  0
   14.9280  -18.9496   53.2328 O   0  0  0  0  0  0  0  0  0  0  0  0
   13.5495  -18.8823   51.4142 N   0  0  0  0  0  0  0  0  0  0  0  0
   13.0348  -18.3058   50.2557 C   0  0  0  0  0  0  0  0  0  0  0  0
   12.0815  -18.9546   49.6060 N   0  0  0  0  0  0  0  0  0  0  0  0
   13.4664  -17.1260   49.7799 N   0  0  0  0  0  0  0  0  0  0  0  0
   14.4538  -16.5722   50.5443 C   0  0  0  0  0  0  0  0  0  0  0  0
   13.1753  -19.7481   51.6962 H   0  0  0  0  0  0  0  0  0  0  0  0
   11.7565  -19.8201   49.9444 H   0  0  0  0  0  0  0  0  0  0  0  0
   11.6974  -18.5717   48.7844 H   0  0  0  0  0  0  0  0  0  0  0  0
   15.8783  -11.2639   49.5120 C   0  0  0  0  0  0  0  0  0  0  0  0
   14.8689  -10.3238   49.9259 O   0  0  0  0  0  0  0  0  0  0  0  0
   15.0882   -9.4583   51.2396 P   0  0  0  0  0  0  0  0  0  0  0  0
   16.3264   -8.6930   51.2549 O   0  0  0  0  0  0  0  0  0  0  0  0
   13.8371   -8.7334   51.5095 O   0  0  0  0  0  0  0  0  0  0  0  0
   13.9417   -8.1945   52.3091 H   0  0  0  0  0  0  0  0  0  0  0  0
   15.2736  -10.6546   52.3039 O   0  0  0  0  0  0  0  0  0  0  0  0
   16.4548  -10.9645   53.3676 P   0  0  0  0  0  0  0  0  0  0  0  0
   17.6629  -11.2382   52.5479 O   0  0  0  0  0  0  0  0  0  0  0  0
   15.9711  -12.0588   54.2189 O   0  0  0  0  0  0  0  0  0  0  0  0
   16.5991   -9.7666   54.1947 O   0  0  0  0  0  0  0  0  0  0  0  0
   16.6490  -12.2811   54.8762 H   0  0  0  0  0  0  0  0  0  0  0  0
   17.3003   -9.9085   54.8498 H   0  0  0  0  0  0  0  0  0  0  0  0
 31 32  2  0  0  0
 31 33  1  0  0  0
 31 34  1  0  0  0
 31 30  1  0  0  0
 30 26  1  0  0  0
 26 27  2  0  0  0
 26 28  1  0  0  0
 26 25  1  0  0  0
 25 24  1  0  0  0
 24  1  1  0  0  0
  1  2  1  0  0  0
  1  3  1  0  0  0
  2  7  1  0  0  0
  3  4  1  0  0  0
  3  5  1  0  0  0
  5  6  1  0  0  0
  5  7  1  0  0  0
  7 10  1  0  0  0
 10 11  1  0  0  0
 10 20  1  0  0  0
 11 12  2  0  0  0
 12 13  1  0  0  0
 13 14  1  0  0  0
 13 20  2  0  0  0
 14 15  2  0  0  0
 14 16  1  0  0  0
 16 17  1  0  0  0
 17 18  1  0  0  0
 17 19  2  0  0  0
 19 20  1  0  0  0
 33 35  1  0  0  0
 34 36  1  0  0  0
 28 29  1  0  0  0
  4  8  1  0  0  0
  6  9  1  0  0  0
 16 21  1  0  0  0
 18 22  1  0  0  0
 18 23  1  0  0  0
M  END
> <minimizedAffinity>
-8.02008

$$$$
1D2E_GDP_A_1301


 36 38  0  0  0  0  0  0  0  0999 V2000
   14.0840  -12.3898   48.4878 C   0  0  0  0  0  0  0  0  0  0  0  0
   14.6360  -12.7407   47.1840 O   0  0  0  0  0  0  0  0  0  0  0  0
   13.6803  -13.7046   49.1442 C   0  0  0  0  0  0  0  0  0  0  0  0
   12.2821  -13.8366   48.8607 O   0  0  0  0  0  0  0  0  0  0  0  0
   14.5734  -14.7141   48.3856 C   0  0  0  0  0  0  0  0  0  0  0  0
   14.0567  -16.0556   48.4094 O   0  0  0  0  0  0  0  0  0  0  0  0
   14.6052  -14.1485   46.9813 C   0  0  0  0  0  0  0  0  0  0  0  0
   12.1351  -13.7401   47.9068 H   0  0  0  0  0  0  0  0  0  0  0  0
   13.1681  -16.0668   48.0205 H   0  0  0  0  0  0  0  0  0  0  0  0
   15.8239  -14.5897   46.2413 N   0  0  0  0  0  0  0  0  0  0  0  0
   17.1194  -14.0756   46.2544 C   0  0  0  0  0  0  0  0  0  0  0  0
   17.9766  -14.7173   45.4870 N   0  0  0  0  0  0  0  0  0  0  0  0
   17.1927  -15.7237   44.9266 C   0  0  0  0  0  0  0  0  0  0  0  0
   17.5106  -16.7637   44.0122 C   0  0  0  0  0  0  0  0  0  0  0  0
   18.6226  -17.0199   43.4870 O   0  0  0  0  0  0  0  0  0  0  0  0
   16.4178  -17.5761   43.6912 N   0  0  0  0  0  0  0  0  0  0  0  0
   15.1297  -17.4180   44.1965 C   0  0  0  0  0  0  0  0  0  0  0  0
   14.1944  -18.2650   43.7973 N   0  0  0  0  0  0  0  0  0  0  0  0
   14.8068  -16.4470   45.0667 N   0  0  0  0  0  0  0  0  0  0  0  0
   15.8649  -15.6443   45.3863 C   0  0  0  0  0  0  0  0  0  0  0  0
   16.5711  -18.3159   43.0600 H   0  0  0  0  0  0  0  0  0  0  0  0
   14.4183  -18.9810   43.1598 H   0  0  0  0  0  0  0  0  0  0  0  0
   13.2746  -18.1790   44.1379 H   0  0  0  0  0  0  0  0  0  0  0  0
   15.1592  -11.6172   49.2398 C   0  0  0  0  0  0  0  0  0  0  0  0
   14.7122  -11.2339   50.5541 O   0  0  0  0  0  0  0  0  0  0  0  0
   15.2640   -9.9003   51.2172 P   0  0  0  0  0  0  0  0  0  0  0  0
   16.5281   -9.4339   50.6660 O   0  0  0  0  0  0  0  0  0  0  0  0
   14.1520   -8.9393   51.2769 O   0  0  0  0  0  0  0  0  0  0  0  0
   14.4607   -8.1122   51.6788 H   0  0  0  0  0  0  0  0  0  0  0  0
   15.5858  -10.4643   52.6925 O   0  0  0  0  0  0  0  0  0  0  0  0
   16.6421  -11.5810   53.2023 P   0  0  0  0  0  0  0  0  0  0  0  0
   16.4419  -11.6729   54.6712 O   0  0  0  0  0  0  0  0  0  0  0  0
   17.9656  -11.1426   52.7411 O   0  0  0  0  0  0  0  0  0  0  0  0
   16.3026  -12.8254   52.5121 O   0  0  0  0  0  0  0  0  0  0  0  0
   18.6356  -11.7841   53.0246 H   0  0  0  0  0  0  0  0  0  0  0  0
   16.9137  -13.5258   52.7892 H   0  0  0  0  0  0  0  0  0  0  0  0
 31 32  2  0  0  0
 31 33  1  0  0  0
 31 34  1  0  0  0
 31 30  1  0  0  0
 30 26  1  0  0  0
 26 27  2  0  0  0
 26 28  1  0  0  0
 26 25  1  0  0  0
 25 24  1  0  0  0
 24  1  1  0  0  0
  1  2  1  0  0  0
  1  3  1  0  0  0
  2  7  1  0  0  0
  3  4  1  0  0  0
  3  5  1  0  0  0
  5  6  1  0  0  0
  5  7  1  0  0  0
  7 10  1  0  0  0
 10 11  1  0  0  0
 10 20  1  0  0  0
 11 12  2  0  0  0
 12 13  1  0  0  0
 13 14  1  0  0  0
 13 20  2  0  0  0
 14 15  2  0  0  0
 14 16  1  0  0  0
 16 17  1  0  0  0
 17 18  1  0  0  0
 17 19  2  0  0  0
 19 20  1  0  0  0
 33 35  1  0  0  0
 34 36  1  0  0  0
 28 29  1  0  0  0
  4  8  1  0  0  0
  6  9  1  0  0  0
 16 21  1  0  0  0
 18 22  1  0  0  0
 18 23  1  0  0  0
M  END
> <minimizedAffinity>
-7.89641

$$$$
