1XPZ_4TZ_A_270


 28 30  0  0  0  0  0  0  0  0999 V2000
   21.9252   32.5899   16.9695 N   0  0  0  0  0  0  0  0  0  0  0  0
   22.2204   31.3964   16.1174 C   0  0  0  0  0  0  0  0  0  0  0  0
   21.1642   30.6617   15.3887 C   0  0  0  0  0  0  0  0  0  0  0  0
   21.4568   29.5274   14.5805 C   0  0  0  0  0  0  0  0  0  0  0  0
   22.8066   29.0545   14.4454 C   0  0  0  0  0  0  0  0  0  0  0  0
   23.8663   29.7439   15.1408 C   0  0  0  0  0  0  0  0  0  0  0  0
   23.5840   30.8834   15.9545 C   0  0  0  0  0  0  0  0  0  0  0  0
   23.3830   27.0116   12.9798 N   0  0  0  0  0  0  0  0  0  0  0  0
   23.1087   27.9120   13.6351 C   0  0  0  0  0  0  0  0  0  0  0  0
   22.1688   33.9015   16.4422 N   0  0  0  0  0  0  0  0  0  0  0  0
   21.9312   35.7349   15.2591 N   0  0  0  0  0  0  0  0  0  0  0  0
   23.0532   35.8738   16.0737 N   0  0  0  0  0  0  0  0  0  0  0  0
   21.4217   34.5631   15.4916 C   0  0  0  0  0  0  0  0  0  0  0  0
   23.1789   34.7838   16.7656 C   0  0  0  0  0  0  0  0  0  0  0  0
   21.7360   32.6036   18.4807 C   0  0  0  0  0  0  0  0  0  0  0  0
   21.4621   31.2219   19.0761 C   0  0  0  0  0  0  0  0  0  0  0  0
   20.0982   30.7593   19.2352 C   0  0  0  0  0  0  0  0  0  0  0  0
   19.8410   29.4726   19.7699 C   0  0  0  0  0  0  0  0  0  0  0  0
   20.9294   28.6292   20.1536 C   0  0  0  0  0  0  0  0  0  0  0  0
   22.2866   29.0763   20.0034 C   0  0  0  0  0  0  0  0  0  0  0  0
   22.5509   30.3748   19.4643 C   0  0  0  0  0  0  0  0  0  0  0  0
   20.6873   27.3666   20.6658 O   0  0  0  0  0  0  0  0  0  0  0  0
   20.2616   26.1327   19.7399 S   0  0  0  0  0  0  0  0  0  0  0  0
   20.7935   25.0147   20.4397 O   0  0  0  0  0  0  0  0  0  0  0  0
   18.8449   26.2828   19.6069 O   0  0  0  0  0  0  0  0  0  0  0  0
   21.0023   26.2683   18.3844 N   0  0  0  0  0  0  0  0  0  0  0  0
   20.7450   25.4902   17.7771 H   0  0  0  0  0  0  0  0  0  0  0  0
   22.0096   26.2558   18.5446 H   0  0  0  0  0  0  0  0  0  0  0  0
 23 24  2  0  0  0
 23 25  2  0  0  0
 23 22  1  0  0  0
 23 26  1  0  0  0
 22 19  1  0  0  0
  1 10  1  0  0  0
  1  2  1  0  0  0
  1 15  1  0  0  0
 10 13  1  0  0  0
 10 14  1  0  0  0
 11 12  1  0  0  0
 11 13  2  0  0  0
 12 14  2  0  0  0
  8  9  3  0  0  0
  2  3  2  0  0  0
  2  7  1  0  0  0
  3  4  1  0  0  0
  4  5  2  0  0  0
  5  6  1  0  0  0
  5  9  1  0  0  0
  6  7  2  0  0  0
 15 16  1  0  0  0
 16 17  2  0  0  0
 16 21  1  0  0  0
 17 18  1  0  0  0
 18 19  2  0  0  0
 19 20  1  0  0  0
 20 21  2  0  0  0
 26 27  1  0  0  0
 26 28  1  0  0  0
M  END
> <minimizedAffinity>
-8.07216

$$$$
1XPZ_4TZ_A_270


 28 30  0  0  0  0  0  0  0  0999 V2000
   21.8962   33.5863   18.9491 N   0  0  0  0  0  0  0  0  0  0  0  0
   20.7539   34.5407   18.8009 C   0  0  0  0  0  0  0  0  0  0  0  0
   20.6188   35.4408   17.6356 C   0  0  0  0  0  0  0  0  0  0  0  0
   19.5273   36.3447   17.5050 C   0  0  0  0  0  0  0  0  0  0  0  0
   18.5082   36.4113   18.5153 C   0  0  0  0  0  0  0  0  0  0  0  0
   18.6037   35.5494   19.6685 C   0  0  0  0  0  0  0  0  0  0  0  0
   19.6948   34.6384   19.8098 C   0  0  0  0  0  0  0  0  0  0  0  0
   16.5382   38.0568   18.2602 N   0  0  0  0  0  0  0  0  0  0  0  0
   17.4074   37.3201   18.3917 C   0  0  0  0  0  0  0  0  0  0  0  0
   22.6617   33.2284   17.7900 N   0  0  0  0  0  0  0  0  0  0  0  0
   24.3414   33.0660   16.3865 N   0  0  0  0  0  0  0  0  0  0  0  0
   23.2556   32.3673   15.8629 N   0  0  0  0  0  0  0  0  0  0  0  0
   23.9713   33.5673   17.5261 C   0  0  0  0  0  0  0  0  0  0  0  0
   22.2731   32.4724   16.7034 C   0  0  0  0  0  0  0  0  0  0  0  0
   22.1458   32.6416   20.1174 C   0  0  0  0  0  0  0  0  0  0  0  0
   21.7471   31.1935   19.8299 C   0  0  0  0  0  0  0  0  0  0  0  0
   20.3758   30.8742   19.4877 C   0  0  0  0  0  0  0  0  0  0  0  0
   20.0065   29.5361   19.2031 C   0  0  0  0  0  0  0  0  0  0  0  0
   20.9886   28.4990   19.2542 C   0  0  0  0  0  0  0  0  0  0  0  0
   22.3515   28.8013   19.5946 C   0  0  0  0  0  0  0  0  0  0  0  0
   22.7288   30.1508   19.8828 C   0  0  0  0  0  0  0  0  0  0  0  0
   20.6388   27.1913   18.9664 O   0  0  0  0  0  0  0  0  0  0  0  0
   19.8667   26.2598   20.0138 S   0  0  0  0  0  0  0  0  0  0  0  0
   18.5231   26.3100   19.5501 O   0  0  0  0  0  0  0  0  0  0  0  0
   20.5914   25.0269   19.9682 O   0  0  0  0  0  0  0  0  0  0  0  0
   19.9369   26.9382   21.4063 N   0  0  0  0  0  0  0  0  0  0  0  0
   19.4498   26.3601   22.0911 H   0  0  0  0  0  0  0  0  0  0  0  0
   19.4946   27.8561   21.3601 H   0  0  0  0  0  0  0  0  0  0  0  0
 23 24  2  0  0  0
 23 25  2  0  0  0
 23 22  1  0  0  0
 23 26  1  0  0  0
 22 19  1  0  0  0
  1 10  1  0  0  0
  1  2  1  0  0  0
  1 15  1  0  0  0
 10 13  1  0  0  0
 10 14  1  0  0  0
 11 12  1  0  0  0
 11 13  2  0  0  0
 12 14  2  0  0  0
  8  9  3  0  0  0
  2  3  2  0  0  0
  2  7  1  0  0  0
  3  4  1  0  0  0
  4  5  2  0  0  0
  5  6  1  0  0  0
  5  9  1  0  0  0
  6  7  2  0  0  0
 15 16  1  0  0  0
 16 17  2  0  0  0
 16 21  1  0  0  0
 17 18  1  0  0  0
 18 19  2  0  0  0
 19 20  1  0  0  0
 20 21  2  0  0  0
 26 27  1  0  0  0
 26 28  1  0  0  0
M  END
> <minimizedAffinity>
-7.30263

$$$$
1XPZ_4TZ_A_270


 28 30  0  0  0  0  0  0  0  0999 V2000
   21.9156   32.1154   19.2251 N   0  0  0  0  0  0  0  0  0  0  0  0
   21.6229   30.6646   19.4416 C   0  0  0  0  0  0  0  0  0  0  0  0
   22.6815   29.6322   19.4333 C   0  0  0  0  0  0  0  0  0  0  0  0
   22.3912   28.2545   19.6409 C   0  0  0  0  0  0  0  0  0  0  0  0
   21.0417   27.8178   19.8685 C   0  0  0  0  0  0  0  0  0  0  0  0
   19.9796   28.7943   19.8839 C   0  0  0  0  0  0  0  0  0  0  0  0
   20.2595   30.1797   19.6768 C   0  0  0  0  0  0  0  0  0  0  0  0
   20.5279   25.3216   20.2666 N   0  0  0  0  0  0  0  0  0  0  0  0
   20.7414   26.4323   20.0763 C   0  0  0  0  0  0  0  0  0  0  0  0
   22.3692   32.5512   17.9359 N   0  0  0  0  0  0  0  0  0  0  0  0
   22.3733   33.0214   15.7920 N   0  0  0  0  0  0  0  0  0  0  0  0
   23.6202   33.3482   16.3211 N   0  0  0  0  0  0  0  0  0  0  0  0
   21.6475   32.5527   16.7618 C   0  0  0  0  0  0  0  0  0  0  0  0
   23.6010   33.0652   17.5869 C   0  0  0  0  0  0  0  0  0  0  0  0
   22.1493   33.1664   20.3025 C   0  0  0  0  0  0  0  0  0  0  0  0
   21.2410   34.3897   20.1719 C   0  0  0  0  0  0  0  0  0  0  0  0
   19.8135   34.2162   19.9934 C   0  0  0  0  0  0  0  0  0  0  0  0
   18.9666   35.3475   19.8901 C   0  0  0  0  0  0  0  0  0  0  0  0
   19.5216   36.6627   19.9615 C   0  0  0  0  0  0  0  0  0  0  0  0
   20.9356   36.8492   20.1359 C   0  0  0  0  0  0  0  0  0  0  0  0
   21.7944   35.7098   20.2405 C   0  0  0  0  0  0  0  0  0  0  0  0
   18.7001   37.7729   19.8731 O   0  0  0  0  0  0  0  0  0  0  0  0
   18.0815   38.2734   18.4847 S   0  0  0  0  0  0  0  0  0  0  0  0
   17.5799   39.5640   18.8096 O   0  0  0  0  0  0  0  0  0  0  0  0
   19.1682   38.1417   17.5632 O   0  0  0  0  0  0  0  0  0  0  0  0
   16.8866   37.3516   18.1284 N   0  0  0  0  0  0  0  0  0  0  0  0
   16.4761   37.6533   17.2447 H   0  0  0  0  0  0  0  0  0  0  0  0
   16.1838   37.4057   18.8657 H   0  0  0  0  0  0  0  0  0  0  0  0
 23 24  2  0  0  0
 23 25  2  0  0  0
 23 22  1  0  0  0
 23 26  1  0  0  0
 22 19  1  0  0  0
  1 10  1  0  0  0
  1  2  1  0  0  0
  1 15  1  0  0  0
 10 13  1  0  0  0
 10 14  1  0  0  0
 11 12  1  0  0  0
 11 13  2  0  0  0
 12 14  2  0  0  0
  8  9  3  0  0  0
  2  3  2  0  0  0
  2  7  1  0  0  0
  3  4  1  0  0  0
  4  5  2  0  0  0
  5  6  1  0  0  0
  5  9  1  0  0  0
  6  7  2  0  0  0
 15 16  1  0  0  0
 16 17  2  0  0  0
 16 21  1  0  0  0
 17 18  1  0  0  0
 18 19  2  0  0  0
 19 20  1  0  0  0
 20 21  2  0  0  0
 26 27  1  0  0  0
 26 28  1  0  0  0
M  END
> <minimizedAffinity>
-6.89416

$$$$
1XPZ_4TZ_A_270


 28 30  0  0  0  0  0  0  0  0999 V2000
   22.4118   33.4855   19.3497 N   0  0  0  0  0  0  0  0  0  0  0  0
   23.1130   33.7045   20.6527 C   0  0  0  0  0  0  0  0  0  0  0  0
   22.9013   32.8276   21.8242 C   0  0  0  0  0  0  0  0  0  0  0  0
   23.5743   33.0454   23.0592 C   0  0  0  0  0  0  0  0  0  0  0  0
   24.4935   34.1393   23.2079 C   0  0  0  0  0  0  0  0  0  0  0  0
   24.7275   35.0186   22.0881 C   0  0  0  0  0  0  0  0  0  0  0  0
   24.0576   34.8092   20.8440 C   0  0  0  0  0  0  0  0  0  0  0  0
   25.6884   34.5656   25.4539 N   0  0  0  0  0  0  0  0  0  0  0  0
   25.1733   34.3662   24.4487 C   0  0  0  0  0  0  0  0  0  0  0  0
   21.2098   34.2174   19.0720 N   0  0  0  0  0  0  0  0  0  0  0  0
   19.7486   35.4813   18.0305 N   0  0  0  0  0  0  0  0  0  0  0  0
   19.2010   35.0789   19.2470 N   0  0  0  0  0  0  0  0  0  0  0  0
   20.9358   34.9616   17.9449 C   0  0  0  0  0  0  0  0  0  0  0  0
   20.0756   34.3334   19.8488 C   0  0  0  0  0  0  0  0  0  0  0  0
   22.5987   32.3064   18.4037 C   0  0  0  0  0  0  0  0  0  0  0  0
   22.0296   30.9931   18.9422 C   0  0  0  0  0  0  0  0  0  0  0  0
   22.9227   29.9693   19.4460 C   0  0  0  0  0  0  0  0  0  0  0  0
   22.3981   28.7586   19.9623 C   0  0  0  0  0  0  0  0  0  0  0  0
   20.9848   28.5464   19.9857 C   0  0  0  0  0  0  0  0  0  0  0  0
   20.0880   29.5522   19.4871 C   0  0  0  0  0  0  0  0  0  0  0  0
   20.6133   30.7760   18.9648 C   0  0  0  0  0  0  0  0  0  0  0  0
   20.4635   27.3716   20.4988 O   0  0  0  0  0  0  0  0  0  0  0  0
   20.1888   26.0853   19.5874 S   0  0  0  0  0  0  0  0  0  0  0  0
   20.7613   25.0300   20.3499 O   0  0  0  0  0  0  0  0  0  0  0  0
   18.7752   26.1216   19.3686 O   0  0  0  0  0  0  0  0  0  0  0  0
   20.9967   26.2433   18.2734 N   0  0  0  0  0  0  0  0  0  0  0  0
   20.8360   25.4324   17.6758 H   0  0  0  0  0  0  0  0  0  0  0  0
   21.9907   26.3131   18.4916 H   0  0  0  0  0  0  0  0  0  0  0  0
 23 24  2  0  0  0
 23 25  2  0  0  0
 23 22  1  0  0  0
 23 26  1  0  0  0
 22 19  1  0  0  0
  1 10  1  0  0  0
  1  2  1  0  0  0
  1 15  1  0  0  0
 10 13  1  0  0  0
 10 14  1  0  0  0
 11 12  1  0  0  0
 11 13  2  0  0  0
 12 14  2  0  0  0
  8  9  3  0  0  0
  2  3  2  0  0  0
  2  7  1  0  0  0
  3  4  1  0  0  0
  4  5  2  0  0  0
  5  6  1  0  0  0
  5  9  1  0  0  0
  6  7  2  0  0  0
 15 16  1  0  0  0
 16 17  2  0  0  0
 16 21  1  0  0  0
 17 18  1  0  0  0
 18 19  2  0  0  0
 19 20  1  0  0  0
 20 21  2  0  0  0
 26 27  1  0  0  0
 26 28  1  0  0  0
M  END
> <minimizedAffinity>
-6.86905

$$$$
1XPZ_4TZ_A_270


 28 30  0  0  0  0  0  0  0  0999 V2000
   22.4497   34.5151   19.5715 N   0  0  0  0  0  0  0  0  0  0  0  0
   21.1499   35.1630   19.2130 C   0  0  0  0  0  0  0  0  0  0  0  0
   20.9538   35.8991   17.9458 C   0  0  0  0  0  0  0  0  0  0  0  0
   19.7123   36.5114   17.6151 C   0  0  0  0  0  0  0  0  0  0  0  0
   18.5952   36.4317   18.5147 C   0  0  0  0  0  0  0  0  0  0  0  0
   18.7458   35.7224   19.7621 C   0  0  0  0  0  0  0  0  0  0  0  0
   19.9872   35.1041   20.1041 C   0  0  0  0  0  0  0  0  0  0  0  0
   16.3444   37.5619   17.9576 N   0  0  0  0  0  0  0  0  0  0  0  0
   17.3428   37.0472   18.1896 C   0  0  0  0  0  0  0  0  0  0  0  0
   23.2759   35.1176   20.5774 N   0  0  0  0  0  0  0  0  0  0  0  0
   24.2841   36.6473   21.7862 N   0  0  0  0  0  0  0  0  0  0  0  0
   24.6345   35.3910   22.2767 N   0  0  0  0  0  0  0  0  0  0  0  0
   23.4802   36.4651   20.7825 C   0  0  0  0  0  0  0  0  0  0  0  0
   24.0307   34.4997   21.5529 C   0  0  0  0  0  0  0  0  0  0  0  0
   23.2065   33.4799   18.7498 C   0  0  0  0  0  0  0  0  0  0  0  0
   22.5949   32.0798   18.8153 C   0  0  0  0  0  0  0  0  0  0  0  0
   22.2109   31.5163   20.0939 C   0  0  0  0  0  0  0  0  0  0  0  0
   21.6274   30.2266   20.1567 C   0  0  0  0  0  0  0  0  0  0  0  0
   21.4176   29.4795   18.9564 C   0  0  0  0  0  0  0  0  0  0  0  0
   21.7959   30.0253   17.6822 C   0  0  0  0  0  0  0  0  0  0  0  0
   22.3855   31.3269   17.6140 C   0  0  0  0  0  0  0  0  0  0  0  0
   20.8378   28.2240   19.0077 O   0  0  0  0  0  0  0  0  0  0  0  0
   21.7008   26.8778   18.9462 S   0  0  0  0  0  0  0  0  0  0  0  0
   21.5372   26.4595   17.5968 O   0  0  0  0  0  0  0  0  0  0  0  0
   22.9905   27.2812   19.4167 O   0  0  0  0  0  0  0  0  0  0  0  0
   21.0309   25.8322   19.8748 N   0  0  0  0  0  0  0  0  0  0  0  0
   21.5659   24.9640   19.8509 H   0  0  0  0  0  0  0  0  0  0  0  0
   20.0789   25.6538   19.5550 H   0  0  0  0  0  0  0  0  0  0  0  0
 23 24  2  0  0  0
 23 25  2  0  0  0
 23 22  1  0  0  0
 23 26  1  0  0  0
 22 19  1  0  0  0
  1 10  1  0  0  0
  1  2  1  0  0  0
  1 15  1  0  0  0
 10 13  1  0  0  0
 10 14  1  0  0  0
 11 12  1  0  0  0
 11 13  2  0  0  0
 12 14  2  0  0  0
  8  9  3  0  0  0
  2  3  2  0  0  0
  2  7  1  0  0  0
  3  4  1  0  0  0
  4  5  2  0  0  0
  5  6  1  0  0  0
  5  9  1  0  0  0
  6  7  2  0  0  0
 15 16  1  0  0  0
 16 17  2  0  0  0
 16 21  1  0  0  0
 17 18  1  0  0  0
 18 19  2  0  0  0
 19 20  1  0  0  0
 20 21  2  0  0  0
 26 27  1  0  0  0
 26 28  1  0  0  0
M  END
> <minimizedAffinity>
-6.73604

$$$$
1XPZ_4TZ_A_270


 28 30  0  0  0  0  0  0  0  0999 V2000
   23.8358   32.8579   19.5489 N   0  0  0  0  0  0  0  0  0  0  0  0
   24.3531   33.2718   20.8901 C   0  0  0  0  0  0  0  0  0  0  0  0
   25.5521   34.1222   21.0496 C   0  0  0  0  0  0  0  0  0  0  0  0
   26.0350   34.5101   22.3309 C   0  0  0  0  0  0  0  0  0  0  0  0
   25.3630   34.0817   23.5260 C   0  0  0  0  0  0  0  0  0  0  0  0
   24.1891   33.2503   23.4133 C   0  0  0  0  0  0  0  0  0  0  0  0
   23.6956   32.8551   22.1324 C   0  0  0  0  0  0  0  0  0  0  0  0
   26.1982   34.7643   25.8691 N   0  0  0  0  0  0  0  0  0  0  0  0
   25.8444   34.4665   24.8196 C   0  0  0  0  0  0  0  0  0  0  0  0
   24.6590   33.0575   18.3913 N   0  0  0  0  0  0  0  0  0  0  0  0
   25.5200   33.9830   16.5970 N   0  0  0  0  0  0  0  0  0  0  0  0
   26.1701   32.7724   16.8282 N   0  0  0  0  0  0  0  0  0  0  0  0
   24.6309   34.1343   17.5316 C   0  0  0  0  0  0  0  0  0  0  0  0
   25.6506   32.2394   17.8907 C   0  0  0  0  0  0  0  0  0  0  0  0
   22.3846   32.5773   19.1813 C   0  0  0  0  0  0  0  0  0  0  0  0
   21.9202   31.1684   19.5526 C   0  0  0  0  0  0  0  0  0  0  0  0
   22.8785   30.0834   19.6168 C   0  0  0  0  0  0  0  0  0  0  0  0
   22.4549   28.7804   19.9780 C   0  0  0  0  0  0  0  0  0  0  0  0
   21.0793   28.5355   20.2792 C   0  0  0  0  0  0  0  0  0  0  0  0
   20.1182   29.6017   20.2171 C   0  0  0  0  0  0  0  0  0  0  0  0
   20.5413   30.9188   19.8527 C   0  0  0  0  0  0  0  0  0  0  0  0
   20.6592   27.2684   20.6440 O   0  0  0  0  0  0  0  0  0  0  0  0
   20.2073   26.1723   19.5693 S   0  0  0  0  0  0  0  0  0  0  0  0
   20.6755   24.9573   20.1414 O   0  0  0  0  0  0  0  0  0  0  0  0
   18.8016   26.3982   19.4265 O   0  0  0  0  0  0  0  0  0  0  0  0
   20.9868   26.4349   18.2548 N   0  0  0  0  0  0  0  0  0  0  0  0
   20.7135   25.7460   17.5540 H   0  0  0  0  0  0  0  0  0  0  0  0
   21.9884   26.3600   18.4328 H   0  0  0  0  0  0  0  0  0  0  0  0
 23 24  2  0  0  0
 23 25  2  0  0  0
 23 22  1  0  0  0
 23 26  1  0  0  0
 22 19  1  0  0  0
  1 10  1  0  0  0
  1  2  1  0  0  0
  1 15  1  0  0  0
 10 13  1  0  0  0
 10 14  1  0  0  0
 11 12  1  0  0  0
 11 13  2  0  0  0
 12 14  2  0  0  0
  8  9  3  0  0  0
  2  3  2  0  0  0
  2  7  1  0  0  0
  3  4  1  0  0  0
  4  5  2  0  0  0
  5  6  1  0  0  0
  5  9  1  0  0  0
  6  7  2  0  0  0
 15 16  1  0  0  0
 16 17  2  0  0  0
 16 21  1  0  0  0
 17 18  1  0  0  0
 18 19  2  0  0  0
 19 20  1  0  0  0
 20 21  2  0  0  0
 26 27  1  0  0  0
 26 28  1  0  0  0
M  END
> <minimizedAffinity>
-6.69548

$$$$
1XPZ_4TZ_A_270


 28 30  0  0  0  0  0  0  0  0999 V2000
   21.3780   30.4139   20.5283 N   0  0  0  0  0  0  0  0  0  0  0  0
   22.3900   31.3215   21.1525 C   0  0  0  0  0  0  0  0  0  0  0  0
   22.2279   31.8719   22.5153 C   0  0  0  0  0  0  0  0  0  0  0  0
   23.1977   32.7344   23.0992 C   0  0  0  0  0  0  0  0  0  0  0  0
   24.3812   33.1021   22.3727 C   0  0  0  0  0  0  0  0  0  0  0  0
   24.5767   32.5863   21.0394 C   0  0  0  0  0  0  0  0  0  0  0  0
   23.6099   31.7198   20.4436 C   0  0  0  0  0  0  0  0  0  0  0  0
   26.1276   34.6658   23.4491 N   0  0  0  0  0  0  0  0  0  0  0  0
   25.3610   33.9716   22.9532 C   0  0  0  0  0  0  0  0  0  0  0  0
   21.7691   29.0862   20.1517 N   0  0  0  0  0  0  0  0  0  0  0  0
   21.6370   26.9617   19.6164 N   0  0  0  0  0  0  0  0  0  0  0  0
   22.9755   27.3474   19.5782 N   0  0  0  0  0  0  0  0  0  0  0  0
   20.9395   28.0032   19.9566 C   0  0  0  0  0  0  0  0  0  0  0  0
   23.0360   28.6037   19.8959 C   0  0  0  0  0  0  0  0  0  0  0  0
   20.0564   30.8261   19.8933 C   0  0  0  0  0  0  0  0  0  0  0  0
   19.9276   32.3336   19.6710 C   0  0  0  0  0  0  0  0  0  0  0  0
   18.8526   33.0699   20.3050 C   0  0  0  0  0  0  0  0  0  0  0  0
   18.7407   34.4697   20.1158 C   0  0  0  0  0  0  0  0  0  0  0  0
   19.6899   35.1569   19.2975 C   0  0  0  0  0  0  0  0  0  0  0  0
   20.7593   34.4388   18.6610 C   0  0  0  0  0  0  0  0  0  0  0  0
   20.8760   33.0254   18.8491 C   0  0  0  0  0  0  0  0  0  0  0  0
   19.5946   36.5257   19.1169 O   0  0  0  0  0  0  0  0  0  0  0  0
   19.0852   37.1764   17.7465 S   0  0  0  0  0  0  0  0  0  0  0  0
   18.4091   36.0955   17.1161 O   0  0  0  0  0  0  0  0  0  0  0  0
   18.3491   38.3273   18.1718 O   0  0  0  0  0  0  0  0  0  0  0  0
   20.3281   37.5477   16.8971 N   0  0  0  0  0  0  0  0  0  0  0  0
   20.0260   37.9652   16.0168 H   0  0  0  0  0  0  0  0  0  0  0  0
   20.8725   36.7067   16.7054 H   0  0  0  0  0  0  0  0  0  0  0  0
 23 24  2  0  0  0
 23 25  2  0  0  0
 23 22  1  0  0  0
 23 26  1  0  0  0
 22 19  1  0  0  0
  1 10  1  0  0  0
  1  2  1  0  0  0
  1 15  1  0  0  0
 10 13  1  0  0  0
 10 14  1  0  0  0
 11 12  1  0  0  0
 11 13  2  0  0  0
 12 14  2  0  0  0
  8  9  3  0  0  0
  2  3  2  0  0  0
  2  7  1  0  0  0
  3  4  1  0  0  0
  4  5  2  0  0  0
  5  6  1  0  0  0
  5  9  1  0  0  0
  6  7  2  0  0  0
 15 16  1  0  0  0
 16 17  2  0  0  0
 16 21  1  0  0  0
 17 18  1  0  0  0
 18 19  2  0  0  0
 19 20  1  0  0  0
 20 21  2  0  0  0
 26 27  1  0  0  0
 26 28  1  0  0  0
M  END
> <minimizedAffinity>
-6.61980

$$$$
1XPZ_4TZ_A_270


 28 30  0  0  0  0  0  0  0  0999 V2000
   23.6518   33.8259   20.7515 N   0  0  0  0  0  0  0  0  0  0  0  0
   24.4687   34.0057   21.9917 C   0  0  0  0  0  0  0  0  0  0  0  0
   24.0200   33.5198   23.3141 C   0  0  0  0  0  0  0  0  0  0  0  0
   24.8058   33.6963   24.4875 C   0  0  0  0  0  0  0  0  0  0  0  0
   26.0777   34.3611   24.4225 C   0  0  0  0  0  0  0  0  0  0  0  0
   26.5514   34.8504   23.1505 C   0  0  0  0  0  0  0  0  0  0  0  0
   25.7709   34.6786   21.9665 C   0  0  0  0  0  0  0  0  0  0  0  0
   27.5388   34.6768   26.5247 N   0  0  0  0  0  0  0  0  0  0  0  0
   26.8736   34.5442   25.5998 C   0  0  0  0  0  0  0  0  0  0  0  0
   24.1695   34.2984   19.5000 N   0  0  0  0  0  0  0  0  0  0  0  0
   25.2163   34.3293   17.5710 N   0  0  0  0  0  0  0  0  0  0  0  0
   24.6341   35.5778   17.7809 N   0  0  0  0  0  0  0  0  0  0  0  0
   24.9301   33.5867   18.5975 C   0  0  0  0  0  0  0  0  0  0  0  0
   24.0198   35.5425   18.9230 C   0  0  0  0  0  0  0  0  0  0  0  0
   22.1599   33.5276   20.6810 C   0  0  0  0  0  0  0  0  0  0  0  0
   21.8402   32.0441   20.4923 C   0  0  0  0  0  0  0  0  0  0  0  0
   20.4743   31.6218   20.2568 C   0  0  0  0  0  0  0  0  0  0  0  0
   20.1768   30.2500   20.0637 C   0  0  0  0  0  0  0  0  0  0  0  0
   21.2263   29.2804   20.1017 C   0  0  0  0  0  0  0  0  0  0  0  0
   22.5848   29.6851   20.3368 C   0  0  0  0  0  0  0  0  0  0  0  0
   22.8897   31.0691   20.5325 C   0  0  0  0  0  0  0  0  0  0  0  0
   20.9461   27.9399   19.9026 O   0  0  0  0  0  0  0  0  0  0  0  0
   21.6008   27.0947   18.7118 S   0  0  0  0  0  0  0  0  0  0  0  0
   22.8970   26.7940   19.2137 O   0  0  0  0  0  0  0  0  0  0  0  0
   20.6599   26.0401   18.4887 O   0  0  0  0  0  0  0  0  0  0  0  0
   21.7486   28.0277   17.4822 N   0  0  0  0  0  0  0  0  0  0  0  0
   22.1649   27.5083   16.7094 H   0  0  0  0  0  0  0  0  0  0  0  0
   22.3485   28.8165   17.7240 H   0  0  0  0  0  0  0  0  0  0  0  0
 23 24  2  0  0  0
 23 25  2  0  0  0
 23 22  1  0  0  0
 23 26  1  0  0  0
 22 19  1  0  0  0
  1 10  1  0  0  0
  1  2  1  0  0  0
  1 15  1  0  0  0
 10 13  1  0  0  0
 10 14  1  0  0  0
 11 12  1  0  0  0
 11 13  2  0  0  0
 12 14  2  0  0  0
  8  9  3  0  0  0
  2  3  2  0  0  0
  2  7  1  0  0  0
  3  4  1  0  0  0
  4  5  2  0  0  0
  5  6  1  0  0  0
  5  9  1  0  0  0
  6  7  2  0  0  0
 15 16  1  0  0  0
 16 17  2  0  0  0
 16 21  1  0  0  0
 17 18  1  0  0  0
 18 19  2  0  0  0
 19 20  1  0  0  0
 20 21  2  0  0  0
 26 27  1  0  0  0
 26 28  1  0  0  0
M  END
> <minimizedAffinity>
-6.42650

$$$$
1XPZ_4TZ_A_270


 28 30  0  0  0  0  0  0  0  0999 V2000
   23.0589   34.4307   19.6826 N   0  0  0  0  0  0  0  0  0  0  0  0
   23.3745   35.0631   21.0009 C   0  0  0  0  0  0  0  0  0  0  0  0
   23.2321   36.5156   21.2380 C   0  0  0  0  0  0  0  0  0  0  0  0
   23.5351   37.1063   22.4968 C   0  0  0  0  0  0  0  0  0  0  0  0
   23.9948   36.2983   23.5920 C   0  0  0  0  0  0  0  0  0  0  0  0
   24.1474   34.8763   23.4013 C   0  0  0  0  0  0  0  0  0  0  0  0
   23.8461   34.2728   22.1421 C   0  0  0  0  0  0  0  0  0  0  0  0
   24.5801   37.3357   25.8800 N   0  0  0  0  0  0  0  0  0  0  0  0
   24.3037   36.8861   24.8617 C   0  0  0  0  0  0  0  0  0  0  0  0
   21.7613   34.6311   19.1051 N   0  0  0  0  0  0  0  0  0  0  0  0
   19.5781   34.7315   18.9015 N   0  0  0  0  0  0  0  0  0  0  0  0
   20.1554   35.1131   17.6920 N   0  0  0  0  0  0  0  0  0  0  0  0
   20.5432   34.4511   19.7243 C   0  0  0  0  0  0  0  0  0  0  0  0
   21.4437   35.0490   17.8292 C   0  0  0  0  0  0  0  0  0  0  0  0
   23.8123   33.2843   19.0207 C   0  0  0  0  0  0  0  0  0  0  0  0
   23.0479   31.9599   19.0354 C   0  0  0  0  0  0  0  0  0  0  0  0
   22.6699   31.3558   20.2970 C   0  0  0  0  0  0  0  0  0  0  0  0
   21.9460   30.1379   20.3142 C   0  0  0  0  0  0  0  0  0  0  0  0
   21.5882   29.5035   19.0844 C   0  0  0  0  0  0  0  0  0  0  0  0
   21.9587   30.0904   17.8263 C   0  0  0  0  0  0  0  0  0  0  0  0
   22.6898   31.3198   17.8042 C   0  0  0  0  0  0  0  0  0  0  0  0
   20.8711   28.3198   19.0921 O   0  0  0  0  0  0  0  0  0  0  0  0
   21.5759   26.8895   18.9568 S   0  0  0  0  0  0  0  0  0  0  0  0
   20.8800   26.1028   19.9158 O   0  0  0  0  0  0  0  0  0  0  0  0
   21.4582   26.5850   17.5637 O   0  0  0  0  0  0  0  0  0  0  0  0
   23.0518   27.0338   19.4098 N   0  0  0  0  0  0  0  0  0  0  0  0
   23.5212   26.1316   19.3316 H   0  0  0  0  0  0  0  0  0  0  0  0
   23.0805   27.3491   20.3795 H   0  0  0  0  0  0  0  0  0  0  0  0
 23 24  2  0  0  0
 23 25  2  0  0  0
 23 22  1  0  0  0
 23 26  1  0  0  0
 22 19  1  0  0  0
  1 10  1  0  0  0
  1  2  1  0  0  0
  1 15  1  0  0  0
 10 13  1  0  0  0
 10 14  1  0  0  0
 11 12  1  0  0  0
 11 13  2  0  0  0
 12 14  2  0  0  0
  8  9  3  0  0  0
  2  3  2  0  0  0
  2  7  1  0  0  0
  3  4  1  0  0  0
  4  5  2  0  0  0
  5  6  1  0  0  0
  5  9  1  0  0  0
  6  7  2  0  0  0
 15 16  1  0  0  0
 16 17  2  0  0  0
 16 21  1  0  0  0
 17 18  1  0  0  0
 18 19  2  0  0  0
 19 20  1  0  0  0
 20 21  2  0  0  0
 26 27  1  0  0  0
 26 28  1  0  0  0
M  END
> <minimizedAffinity>
-6.41957

$$$$
1XPZ_4TZ_A_270


 28 30  0  0  0  0  0  0  0  0999 V2000
   21.9829   32.0840   20.3259 N   0  0  0  0  0  0  0  0  0  0  0  0
   21.6613   30.6284   20.2023 C   0  0  0  0  0  0  0  0  0  0  0  0
   22.6941   29.6096   19.9168 C   0  0  0  0  0  0  0  0  0  0  0  0
   22.3764   28.2271   19.8016 C   0  0  0  0  0  0  0  0  0  0  0  0
   21.0234   27.7720   19.9618 C   0  0  0  0  0  0  0  0  0  0  0  0
   19.9858   28.7350   20.2411 C   0  0  0  0  0  0  0  0  0  0  0  0
   20.2933   30.1249   20.3588 C   0  0  0  0  0  0  0  0  0  0  0  0
   20.4312   25.2674   19.7880 N   0  0  0  0  0  0  0  0  0  0  0  0
   20.6955   26.3820   19.8453 C   0  0  0  0  0  0  0  0  0  0  0  0
   21.3228   33.0206   19.4630 N   0  0  0  0  0  0  0  0  0  0  0  0
   19.9772   34.6144   18.7797 N   0  0  0  0  0  0  0  0  0  0  0  0
   20.7335   34.1755   17.6947 N   0  0  0  0  0  0  0  0  0  0  0  0
   20.3403   33.9204   19.8158 C   0  0  0  0  0  0  0  0  0  0  0  0
   21.5227   33.2357   18.1151 C   0  0  0  0  0  0  0  0  0  0  0  0
   23.2022   32.6909   21.0078 C   0  0  0  0  0  0  0  0  0  0  0  0
   24.3335   33.0419   20.0405 C   0  0  0  0  0  0  0  0  0  0  0  0
   24.8488   32.0364   19.1333 C   0  0  0  0  0  0  0  0  0  0  0  0
   25.8846   32.3629   18.2232 C   0  0  0  0  0  0  0  0  0  0  0  0
   26.4227   33.6869   18.2003 C   0  0  0  0  0  0  0  0  0  0  0  0
   25.9226   34.6930   19.0960 C   0  0  0  0  0  0  0  0  0  0  0  0
   24.8770   34.3677   20.0166 C   0  0  0  0  0  0  0  0  0  0  0  0
   27.4264   34.0173   17.3067 O   0  0  0  0  0  0  0  0  0  0  0  0
   28.9785   33.8914   17.6756 S   0  0  0  0  0  0  0  0  0  0  0  0
   29.2350   35.1009   18.3784 O   0  0  0  0  0  0  0  0  0  0  0  0
   29.0628   32.6374   18.3595 O   0  0  0  0  0  0  0  0  0  0  0  0
   29.7909   33.9026   16.3549 N   0  0  0  0  0  0  0  0  0  0  0  0
   30.7855   33.8232   16.5669 H   0  0  0  0  0  0  0  0  0  0  0  0
   29.6182   34.7758   15.8569 H   0  0  0  0  0  0  0  0  0  0  0  0
 23 24  2  0  0  0
 23 25  2  0  0  0
 23 22  1  0  0  0
 23 26  1  0  0  0
 22 19  1  0  0  0
  1 10  1  0  0  0
  1  2  1  0  0  0
  1 15  1  0  0  0
 10 13  1  0  0  0
 10 14  1  0  0  0
 11 12  1  0  0  0
 11 13  2  0  0  0
 12 14  2  0  0  0
  8  9  3  0  0  0
  2  3  2  0  0  0
  2  7  1  0  0  0
  3  4  1  0  0  0
  4  5  2  0  0  0
  5  6  1  0  0  0
  5  9  1  0  0  0
  6  7  2  0  0  0
 15 16  1  0  0  0
 16 17  2  0  0  0
 16 21  1  0  0  0
 17 18  1  0  0  0
 18 19  2  0  0  0
 19 20  1  0  0  0
 20 21  2  0  0  0
 26 27  1  0  0  0
 26 28  1  0  0  0
M  END
> <minimizedAffinity>
-6.39690

$$$$
