2CBZ_ATP_A_1873


 39 41  0  0  0  0  0  0  0  0999 V2000
  -17.3461   45.0419    2.1273 C   0  0  0  0  0  0  0  0  0  0  0  0
  -15.9241   45.2044    2.0064 O   0  0  0  0  0  0  0  0  0  0  0  0
  -17.6243   45.0439    3.6279 C   0  0  0  0  0  0  0  0  0  0  0  0
  -17.7821   43.6927    4.0829 O   0  0  0  0  0  0  0  0  0  0  0  0
  -16.3666   45.6334    4.2387 C   0  0  0  0  0  0  0  0  0  0  0  0
  -16.1379   45.2195    5.5840 O   0  0  0  0  0  0  0  0  0  0  0  0
  -15.3026   45.1103    3.2912 C   0  0  0  0  0  0  0  0  0  0  0  0
  -16.9894   43.1811    3.8578 H   0  0  0  0  0  0  0  0  0  0  0  0
  -16.0891   44.2514    5.6206 H   0  0  0  0  0  0  0  0  0  0  0  0
  -14.0610   45.9144    3.3523 N   0  0  0  0  0  0  0  0  0  0  0  0
  -13.8005   47.0349    2.6510 C   0  0  0  0  0  0  0  0  0  0  0  0
  -12.5653   47.5226    2.9372 N   0  0  0  0  0  0  0  0  0  0  0  0
  -12.0068   46.6945    3.8408 C   0  0  0  0  0  0  0  0  0  0  0  0
  -10.7085   46.6282    4.5649 C   0  0  0  0  0  0  0  0  0  0  0  0
   -9.7606   47.5766    4.3598 N   0  0  0  0  0  0  0  0  0  0  0  0
  -10.5174   45.5966    5.4266 N   0  0  0  0  0  0  0  0  0  0  0  0
  -11.4658   44.6495    5.6275 C   0  0  0  0  0  0  0  0  0  0  0  0
  -12.6663   44.6486    5.0015 N   0  0  0  0  0  0  0  0  0  0  0  0
  -12.9930   45.6312    4.1137 C   0  0  0  0  0  0  0  0  0  0  0  0
   -9.9291   48.3126    3.7281 H   0  0  0  0  0  0  0  0  0  0  0  0
   -8.9040   47.5289    4.8428 H   0  0  0  0  0  0  0  0  0  0  0  0
  -18.0166   46.2215    1.4016 C   0  0  0  0  0  0  0  0  0  0  0  0
  -18.5836   47.0863    2.3828 O   0  0  0  0  0  0  0  0  0  0  0  0
  -18.8917   48.6572    2.1881 P   0  0  0  0  0  0  0  0  0  0  0  0
  -17.8084   49.3889    2.9200 O   0  0  0  0  0  0  0  0  0  0  0  0
  -19.1624   48.9949    0.7499 O   0  0  0  0  0  0  0  0  0  0  0  0
  -19.3432   49.9444    0.6692 H   0  0  0  0  0  0  0  0  0  0  0  0
  -20.2773   48.7483    3.0004 O   0  0  0  0  0  0  0  0  0  0  0  0
  -20.5517   48.7615    4.5870 P   0  0  0  0  0  0  0  0  0  0  0  0
  -21.6594   49.7535    4.7795 O   0  0  0  0  0  0  0  0  0  0  0  0
  -19.2843   48.9935    5.3502 O   0  0  0  0  0  0  0  0  0  0  0  0
  -19.4755   48.9971    6.3011 H   0  0  0  0  0  0  0  0  0  0  0  0
  -21.0964   47.2555    4.7998 O   0  0  0  0  0  0  0  0  0  0  0  0
  -21.3224   46.5124    6.2316 P   0  0  0  0  0  0  0  0  0  0  0  0
  -21.0367   47.5250    7.3077 O   0  0  0  0  0  0  0  0  0  0  0  0
  -20.2979   45.4042    6.1682 O   0  0  0  0  0  0  0  0  0  0  0  0
  -22.7552   46.0146    6.1704 O   0  0  0  0  0  0  0  0  0  0  0  0
  -20.3373   44.8804    6.9837 H   0  0  0  0  0  0  0  0  0  0  0  0
  -22.9730   45.5541    6.9959 H   0  0  0  0  0  0  0  0  0  0  0  0
 34 35  2  0  0  0
 34 36  1  0  0  0
 34 37  1  0  0  0
 34 33  1  0  0  0
 29 30  2  0  0  0
 29 31  1  0  0  0
 29 33  1  0  0  0
 29 28  1  0  0  0
 24 25  2  0  0  0
 24 26  1  0  0  0
 24 28  1  0  0  0
 24 23  1  0  0  0
 23 22  1  0  0  0
 22  1  1  0  0  0
  1  2  1  0  0  0
  1  3  1  0  0  0
  2  7  1  0  0  0
  3  4  1  0  0  0
  3  5  1  0  0  0
  5  6  1  0  0  0
  5  7  1  0  0  0
  7 10  1  0  0  0
 10 11  1  0  0  0
 10 19  1  0  0  0
 11 12  2  0  0  0
 12 13  1  0  0  0
 13 14  1  0  0  0
 13 19  2  0  0  0
 14 15  1  0  0  0
 14 16  2  0  0  0
 16 17  1  0  0  0
 17 18  2  0  0  0
 18 19  1  0  0  0
 36 38  1  0  0  0
 37 39  1  0  0  0
 31 32  1  0  0  0
 26 27  1  0  0  0
  4  8  1  0  0  0
  6  9  1  0  0  0
 15 20  1  0  0  0
 15 21  1  0  0  0
M  END
> <minimizedAffinity>
-8.71527

$$$$
2CBZ_ATP_A_1873


 39 41  0  0  0  0  0  0  0  0999 V2000
  -16.3338   46.6749    1.6541 C   0  0  0  0  0  0  0  0  0  0  0  0
  -15.1426   47.3252    2.1244 O   0  0  0  0  0  0  0  0  0  0  0  0
  -15.8818   45.2904    1.1975 C   0  0  0  0  0  0  0  0  0  0  0  0
  -15.7348   45.2860   -0.2294 O   0  0  0  0  0  0  0  0  0  0  0  0
  -14.5192   45.1130    1.8410 C   0  0  0  0  0  0  0  0  0  0  0  0
  -13.6685   44.2115    1.1358 O   0  0  0  0  0  0  0  0  0  0  0  0
  -13.9907   46.5355    1.8154 C   0  0  0  0  0  0  0  0  0  0  0  0
  -15.1108   45.9805   -0.4923 H   0  0  0  0  0  0  0  0  0  0  0  0
  -13.5548   44.5211    0.2236 H   0  0  0  0  0  0  0  0  0  0  0  0
  -12.9098   46.7441    2.8054 N   0  0  0  0  0  0  0  0  0  0  0  0
  -13.0534   47.2323    4.0529 C   0  0  0  0  0  0  0  0  0  0  0  0
  -11.8600   47.3021    4.6981 N   0  0  0  0  0  0  0  0  0  0  0  0
  -10.9171   46.8553    3.8463 C   0  0  0  0  0  0  0  0  0  0  0  0
   -9.4416   46.6684    3.8938 C   0  0  0  0  0  0  0  0  0  0  0  0
   -8.7468   46.9845    5.0152 N   0  0  0  0  0  0  0  0  0  0  0  0
   -8.8312   46.1742    2.7863 N   0  0  0  0  0  0  0  0  0  0  0  0
   -9.5281   45.8614    1.6668 C   0  0  0  0  0  0  0  0  0  0  0  0
  -10.8695   46.0081    1.5555 N   0  0  0  0  0  0  0  0  0  0  0  0
  -11.6093   46.4888    2.5957 C   0  0  0  0  0  0  0  0  0  0  0  0
   -9.2184   47.3411    5.8024 H   0  0  0  0  0  0  0  0  0  0  0  0
   -7.7709   46.8573    5.0418 H   0  0  0  0  0  0  0  0  0  0  0  0
  -17.3290   46.6136    2.8260 C   0  0  0  0  0  0  0  0  0  0  0  0
  -18.5716   47.1564    2.3864 O   0  0  0  0  0  0  0  0  0  0  0  0
  -18.9078   48.7248    2.2200 P   0  0  0  0  0  0  0  0  0  0  0  0
  -17.8524   49.4616    2.9866 O   0  0  0  0  0  0  0  0  0  0  0  0
  -19.1602   49.0883    0.7848 O   0  0  0  0  0  0  0  0  0  0  0  0
  -19.3586   50.0357    0.7213 H   0  0  0  0  0  0  0  0  0  0  0  0
  -20.3090   48.7707    3.0092 O   0  0  0  0  0  0  0  0  0  0  0  0
  -20.6102   48.7675    4.5910 P   0  0  0  0  0  0  0  0  0  0  0  0
  -21.6141   49.8622    4.7956 O   0  0  0  0  0  0  0  0  0  0  0  0
  -19.3401   48.8466    5.3805 O   0  0  0  0  0  0  0  0  0  0  0  0
  -19.5477   48.8431    6.3281 H   0  0  0  0  0  0  0  0  0  0  0  0
  -21.3098   47.3200    4.7502 O   0  0  0  0  0  0  0  0  0  0  0  0
  -20.9572   46.2057    5.8848 P   0  0  0  0  0  0  0  0  0  0  0  0
  -20.9363   46.9145    7.2122 O   0  0  0  0  0  0  0  0  0  0  0  0
  -19.5934   45.7336    5.4391 O   0  0  0  0  0  0  0  0  0  0  0  0
  -22.0419   45.1557    5.7248 O   0  0  0  0  0  0  0  0  0  0  0  0
  -19.2711   45.0530    6.0505 H   0  0  0  0  0  0  0  0  0  0  0  0
  -21.9036   44.4467    6.3722 H   0  0  0  0  0  0  0  0  0  0  0  0
 34 35  2  0  0  0
 34 36  1  0  0  0
 34 37  1  0  0  0
 34 33  1  0  0  0
 29 30  2  0  0  0
 29 31  1  0  0  0
 29 33  1  0  0  0
 29 28  1  0  0  0
 24 25  2  0  0  0
 24 26  1  0  0  0
 24 28  1  0  0  0
 24 23  1  0  0  0
 23 22  1  0  0  0
 22  1  1  0  0  0
  1  2  1  0  0  0
  1  3  1  0  0  0
  2  7  1  0  0  0
  3  4  1  0  0  0
  3  5  1  0  0  0
  5  6  1  0  0  0
  5  7  1  0  0  0
  7 10  1  0  0  0
 10 11  1  0  0  0
 10 19  1  0  0  0
 11 12  2  0  0  0
 12 13  1  0  0  0
 13 14  1  0  0  0
 13 19  2  0  0  0
 14 15  1  0  0  0
 14 16  2  0  0  0
 16 17  1  0  0  0
 17 18  2  0  0  0
 18 19  1  0  0  0
 36 38  1  0  0  0
 37 39  1  0  0  0
 31 32  1  0  0  0
 26 27  1  0  0  0
  4  8  1  0  0  0
  6  9  1  0  0  0
 15 20  1  0  0  0
 15 21  1  0  0  0
M  END
> <minimizedAffinity>
-8.47986

$$$$
2CBZ_ATP_A_1873


 39 41  0  0  0  0  0  0  0  0999 V2000
  -16.6916   47.1699    0.5497 C   0  0  0  0  0  0  0  0  0  0  0  0
  -15.8095   47.5874    1.6037 O   0  0  0  0  0  0  0  0  0  0  0  0
  -15.8848   46.1732   -0.2779 C   0  0  0  0  0  0  0  0  0  0  0  0
  -15.3694   46.8317   -1.4434 O   0  0  0  0  0  0  0  0  0  0  0  0
  -14.7312   45.7850    0.6281 C   0  0  0  0  0  0  0  0  0  0  0  0
  -13.5720   45.3498   -0.0793 O   0  0  0  0  0  0  0  0  0  0  0  0
  -14.4903   47.0836    1.3758 C   0  0  0  0  0  0  0  0  0  0  0  0
  -14.8395   47.5981   -1.1740 H   0  0  0  0  0  0  0  0  0  0  0  0
  -13.2822   46.0488   -0.6862 H   0  0  0  0  0  0  0  0  0  0  0  0
  -13.7667   46.8652    2.6489 N   0  0  0  0  0  0  0  0  0  0  0  0
  -12.5275   47.3016    2.9476 C   0  0  0  0  0  0  0  0  0  0  0  0
  -12.1573   46.9237    4.1988 N   0  0  0  0  0  0  0  0  0  0  0  0
  -13.1780   46.2182    4.7229 C   0  0  0  0  0  0  0  0  0  0  0  0
  -13.4415   45.5246    6.0127 C   0  0  0  0  0  0  0  0  0  0  0  0
  -12.5063   45.5271    6.9954 N   0  0  0  0  0  0  0  0  0  0  0  0
  -14.6385   44.9017    6.1624 N   0  0  0  0  0  0  0  0  0  0  0  0
  -15.5698   44.8993    5.1777 C   0  0  0  0  0  0  0  0  0  0  0  0
  -15.3946   45.5082    3.9812 N   0  0  0  0  0  0  0  0  0  0  0  0
  -14.2401   46.1773    3.6992 C   0  0  0  0  0  0  0  0  0  0  0  0
  -11.6475   45.9880    6.8565 H   0  0  0  0  0  0  0  0  0  0  0  0
  -12.6865   45.0682    7.8476 H   0  0  0  0  0  0  0  0  0  0  0  0
  -17.9303   46.5300    1.2004 C   0  0  0  0  0  0  0  0  0  0  0  0
  -18.1573   47.1687    2.4544 O   0  0  0  0  0  0  0  0  0  0  0  0
  -19.0953   48.4575    2.6984 P   0  0  0  0  0  0  0  0  0  0  0  0
  -18.1898   49.5464    3.1871 O   0  0  0  0  0  0  0  0  0  0  0  0
  -19.9915   48.7215    1.5224 O   0  0  0  0  0  0  0  0  0  0  0  0
  -20.5401   49.5009    1.7025 H   0  0  0  0  0  0  0  0  0  0  0  0
  -19.9958   47.8930    3.9062 O   0  0  0  0  0  0  0  0  0  0  0  0
  -20.6739   48.6664    5.1451 P   0  0  0  0  0  0  0  0  0  0  0  0
  -21.4248   49.8063    4.5248 O   0  0  0  0  0  0  0  0  0  0  0  0
  -19.6561   49.0047    6.1901 O   0  0  0  0  0  0  0  0  0  0  0  0
  -20.0882   49.4689    6.9241 H   0  0  0  0  0  0  0  0  0  0  0  0
  -21.6977   47.5322    5.6698 O   0  0  0  0  0  0  0  0  0  0  0  0
  -21.3505   46.3455    6.7302 P   0  0  0  0  0  0  0  0  0  0  0  0
  -22.6002   45.5250    6.9036 O   0  0  0  0  0  0  0  0  0  0  0  0
  -20.9787   47.1342    7.9637 O   0  0  0  0  0  0  0  0  0  0  0  0
  -20.1759   45.6173    6.1021 O   0  0  0  0  0  0  0  0  0  0  0  0
  -20.7468   46.5231    8.6804 H   0  0  0  0  0  0  0  0  0  0  0  0
  -19.9035   44.8858    6.6781 H   0  0  0  0  0  0  0  0  0  0  0  0
 34 35  2  0  0  0
 34 36  1  0  0  0
 34 37  1  0  0  0
 34 33  1  0  0  0
 29 30  2  0  0  0
 29 31  1  0  0  0
 29 33  1  0  0  0
 29 28  1  0  0  0
 24 25  2  0  0  0
 24 26  1  0  0  0
 24 28  1  0  0  0
 24 23  1  0  0  0
 23 22  1  0  0  0
 22  1  1  0  0  0
  1  2  1  0  0  0
  1  3  1  0  0  0
  2  7  1  0  0  0
  3  4  1  0  0  0
  3  5  1  0  0  0
  5  6  1  0  0  0
  5  7  1  0  0  0
  7 10  1  0  0  0
 10 11  1  0  0  0
 10 19  1  0  0  0
 11 12  2  0  0  0
 12 13  1  0  0  0
 13 14  1  0  0  0
 13 19  2  0  0  0
 14 15  1  0  0  0
 14 16  2  0  0  0
 16 17  1  0  0  0
 17 18  2  0  0  0
 18 19  1  0  0  0
 36 38  1  0  0  0
 37 39  1  0  0  0
 31 32  1  0  0  0
 26 27  1  0  0  0
  4  8  1  0  0  0
  6  9  1  0  0  0
 15 20  1  0  0  0
 15 21  1  0  0  0
M  END
> <minimizedAffinity>
-8.40356

$$$$
2CBZ_ATP_A_1873


 39 41  0  0  0  0  0  0  0  0999 V2000
  -19.7025   46.6727   -0.6712 C   0  0  0  0  0  0  0  0  0  0  0  0
  -20.5617   47.6170   -1.3293 O   0  0  0  0  0  0  0  0  0  0  0  0
  -18.2826   47.1147   -1.0144 C   0  0  0  0  0  0  0  0  0  0  0  0
  -17.7776   46.3014   -2.0827 O   0  0  0  0  0  0  0  0  0  0  0  0
  -18.4456   48.5409   -1.5060 C   0  0  0  0  0  0  0  0  0  0  0  0
  -17.4147   48.9577   -2.3989 O   0  0  0  0  0  0  0  0  0  0  0  0
  -19.7984   48.4669   -2.1901 C   0  0  0  0  0  0  0  0  0  0  0  0
  -18.3746   46.3616   -2.8448 H   0  0  0  0  0  0  0  0  0  0  0  0
  -17.3841   48.3574   -3.1602 H   0  0  0  0  0  0  0  0  0  0  0  0
  -20.4247   49.8013   -2.3276 N   0  0  0  0  0  0  0  0  0  0  0  0
  -20.9603   50.5378   -1.3346 C   0  0  0  0  0  0  0  0  0  0  0  0
  -21.4575   51.7125   -1.8018 N   0  0  0  0  0  0  0  0  0  0  0  0
  -21.2464   51.7364   -3.1319 C   0  0  0  0  0  0  0  0  0  0  0  0
  -21.5316   52.6897   -4.2383 C   0  0  0  0  0  0  0  0  0  0  0  0
  -22.1524   53.8687   -3.9838 N   0  0  0  0  0  0  0  0  0  0  0  0
  -21.1482   52.3360   -5.4918 N   0  0  0  0  0  0  0  0  0  0  0  0
  -20.5301   51.1563   -5.7429 C   0  0  0  0  0  0  0  0  0  0  0  0
  -20.2425   50.2440   -4.7848 N   0  0  0  0  0  0  0  0  0  0  0  0
  -20.5665   50.4739   -3.4800 C   0  0  0  0  0  0  0  0  0  0  0  0
  -22.4182   54.0966   -3.0637 H   0  0  0  0  0  0  0  0  0  0  0  0
  -22.3371   54.4966   -4.7193 H   0  0  0  0  0  0  0  0  0  0  0  0
  -19.9941   46.7451    0.8379 C   0  0  0  0  0  0  0  0  0  0  0  0
  -19.3121   47.8774    1.3714 O   0  0  0  0  0  0  0  0  0  0  0  0
  -18.8468   48.0600    2.9046 P   0  0  0  0  0  0  0  0  0  0  0  0
  -18.1287   46.7988    3.2760 O   0  0  0  0  0  0  0  0  0  0  0  0
  -18.1687   49.3820    3.1244 O   0  0  0  0  0  0  0  0  0  0  0  0
  -17.9028   49.4584    4.0541 H   0  0  0  0  0  0  0  0  0  0  0  0
  -20.2936   48.1088    3.6065 O   0  0  0  0  0  0  0  0  0  0  0  0
  -20.7418   48.7396    5.0186 P   0  0  0  0  0  0  0  0  0  0  0  0
  -21.5440   49.9550    4.6620 O   0  0  0  0  0  0  0  0  0  0  0  0
  -19.5609   48.9380    5.9180 O   0  0  0  0  0  0  0  0  0  0  0  0
  -19.8562   49.3181    6.7602 H   0  0  0  0  0  0  0  0  0  0  0  0
  -21.7058   47.5654    5.5680 O   0  0  0  0  0  0  0  0  0  0  0  0
  -21.3068   46.4375    6.6734 P   0  0  0  0  0  0  0  0  0  0  0  0
  -20.9055   47.1668    7.9273 O   0  0  0  0  0  0  0  0  0  0  0  0
  -20.1529   45.7371    5.9955 O   0  0  0  0  0  0  0  0  0  0  0  0
  -22.5510   45.5759    6.7917 O   0  0  0  0  0  0  0  0  0  0  0  0
  -19.8224   45.0286    6.5697 H   0  0  0  0  0  0  0  0  0  0  0  0
  -22.3955   44.8704    7.4390 H   0  0  0  0  0  0  0  0  0  0  0  0
 34 35  2  0  0  0
 34 36  1  0  0  0
 34 37  1  0  0  0
 34 33  1  0  0  0
 29 30  2  0  0  0
 29 31  1  0  0  0
 29 33  1  0  0  0
 29 28  1  0  0  0
 24 25  2  0  0  0
 24 26  1  0  0  0
 24 28  1  0  0  0
 24 23  1  0  0  0
 23 22  1  0  0  0
 22  1  1  0  0  0
  1  2  1  0  0  0
  1  3  1  0  0  0
  2  7  1  0  0  0
  3  4  1  0  0  0
  3  5  1  0  0  0
  5  6  1  0  0  0
  5  7  1  0  0  0
  7 10  1  0  0  0
 10 11  1  0  0  0
 10 19  1  0  0  0
 11 12  2  0  0  0
 12 13  1  0  0  0
 13 14  1  0  0  0
 13 19  2  0  0  0
 14 15  1  0  0  0
 14 16  2  0  0  0
 16 17  1  0  0  0
 17 18  2  0  0  0
 18 19  1  0  0  0
 36 38  1  0  0  0
 37 39  1  0  0  0
 31 32  1  0  0  0
 26 27  1  0  0  0
  4  8  1  0  0  0
  6  9  1  0  0  0
 15 20  1  0  0  0
 15 21  1  0  0  0
M  END
> <minimizedAffinity>
-8.36297

$$$$
2CBZ_ATP_A_1873


 39 41  0  0  0  0  0  0  0  0999 V2000
  -19.6949   47.7878    1.2314 C   0  0  0  0  0  0  0  0  0  0  0  0
  -20.5512   48.4262    0.2711 O   0  0  0  0  0  0  0  0  0  0  0  0
  -18.3447   47.6465    0.5341 C   0  0  0  0  0  0  0  0  0  0  0  0
  -18.2045   46.3077    0.0386 O   0  0  0  0  0  0  0  0  0  0  0  0
  -18.4288   48.6070   -0.6375 C   0  0  0  0  0  0  0  0  0  0  0  0
  -17.5818   48.2514   -1.7283 O   0  0  0  0  0  0  0  0  0  0  0  0
  -19.8993   48.5064   -0.9996 C   0  0  0  0  0  0  0  0  0  0  0  0
  -18.9456   46.1025   -0.5527 H   0  0  0  0  0  0  0  0  0  0  0  0
  -17.8024   47.3565   -2.0306 H   0  0  0  0  0  0  0  0  0  0  0  0
  -20.3623   49.6812   -1.7725 N   0  0  0  0  0  0  0  0  0  0  0  0
  -21.0323   50.7436   -1.2852 C   0  0  0  0  0  0  0  0  0  0  0  0
  -21.3129   51.6436   -2.2633 N   0  0  0  0  0  0  0  0  0  0  0  0
  -20.8197   51.1503   -3.4154 C   0  0  0  0  0  0  0  0  0  0  0  0
  -20.7760   51.5988   -4.8336 C   0  0  0  0  0  0  0  0  0  0  0  0
  -21.3315   52.7824   -5.1952 N   0  0  0  0  0  0  0  0  0  0  0  0
  -20.1648   50.7876   -5.7345 N   0  0  0  0  0  0  0  0  0  0  0  0
  -19.6127   49.6047   -5.3702 C   0  0  0  0  0  0  0  0  0  0  0  0
  -19.6185   49.1363   -4.0999 N   0  0  0  0  0  0  0  0  0  0  0  0
  -20.1938   49.8535   -3.0926 C   0  0  0  0  0  0  0  0  0  0  0  0
  -21.7678   53.3486   -4.5182 H   0  0  0  0  0  0  0  0  0  0  0  0
  -21.2983   53.0752   -6.1346 H   0  0  0  0  0  0  0  0  0  0  0  0
  -19.6254   48.6935    2.4734 C   0  0  0  0  0  0  0  0  0  0  0  0
  -20.2513   48.0134    3.5586 O   0  0  0  0  0  0  0  0  0  0  0  0
  -20.7668   48.6958    4.9257 P   0  0  0  0  0  0  0  0  0  0  0  0
  -19.5624   48.8267    5.8070 O   0  0  0  0  0  0  0  0  0  0  0  0
  -21.6131   49.9069    4.6558 O   0  0  0  0  0  0  0  0  0  0  0  0
  -21.9053   50.2913    5.4972 H   0  0  0  0  0  0  0  0  0  0  0  0
  -21.7235   47.5158    5.4553 O   0  0  0  0  0  0  0  0  0  0  0  0
  -21.7219   46.7298    6.8606 P   0  0  0  0  0  0  0  0  0  0  0  0
  -23.0701   47.0023    7.4575 O   0  0  0  0  0  0  0  0  0  0  0  0
  -20.5233   47.0960    7.6804 O   0  0  0  0  0  0  0  0  0  0  0  0
  -20.5453   46.6106    8.5199 H   0  0  0  0  0  0  0  0  0  0  0  0
  -21.6310   45.2034    6.3393 O   0  0  0  0  0  0  0  0  0  0  0  0
  -20.3890   44.5450    5.5163 P   0  0  0  0  0  0  0  0  0  0  0  0
  -20.9338   44.0665    4.1975 O   0  0  0  0  0  0  0  0  0  0  0  0
  -19.9741   43.4194    6.4341 O   0  0  0  0  0  0  0  0  0  0  0  0
  -19.3654   45.6628    5.4304 O   0  0  0  0  0  0  0  0  0  0  0  0
  -19.2253   42.9426    6.0430 H   0  0  0  0  0  0  0  0  0  0  0  0
  -18.5841   45.3494    4.9486 H   0  0  0  0  0  0  0  0  0  0  0  0
 34 35  2  0  0  0
 34 36  1  0  0  0
 34 37  1  0  0  0
 34 33  1  0  0  0
 29 30  2  0  0  0
 29 31  1  0  0  0
 29 33  1  0  0  0
 29 28  1  0  0  0
 24 25  2  0  0  0
 24 26  1  0  0  0
 24 28  1  0  0  0
 24 23  1  0  0  0
 23 22  1  0  0  0
 22  1  1  0  0  0
  1  2  1  0  0  0
  1  3  1  0  0  0
  2  7  1  0  0  0
  3  4  1  0  0  0
  3  5  1  0  0  0
  5  6  1  0  0  0
  5  7  1  0  0  0
  7 10  1  0  0  0
 10 11  1  0  0  0
 10 19  1  0  0  0
 11 12  2  0  0  0
 12 13  1  0  0  0
 13 14  1  0  0  0
 13 19  2  0  0  0
 14 15  1  0  0  0
 14 16  2  0  0  0
 16 17  1  0  0  0
 17 18  2  0  0  0
 18 19  1  0  0  0
 36 38  1  0  0  0
 37 39  1  0  0  0
 31 32  1  0  0  0
 26 27  1  0  0  0
  4  8  1  0  0  0
  6  9  1  0  0  0
 15 20  1  0  0  0
 15 21  1  0  0  0
M  END
> <minimizedAffinity>
-8.35804

$$$$
2CBZ_ATP_A_1873


 39 41  0  0  0  0  0  0  0  0999 V2000
  -18.7485   46.5461    2.3481 C   0  0  0  0  0  0  0  0  0  0  0  0
  -17.3691   46.7679    2.0150 O   0  0  0  0  0  0  0  0  0  0  0  0
  -18.7250   45.6110    3.5541 C   0  0  0  0  0  0  0  0  0  0  0  0
  -18.9762   44.2678    3.1178 O   0  0  0  0  0  0  0  0  0  0  0  0
  -17.3030   45.7101    4.0740 C   0  0  0  0  0  0  0  0  0  0  0  0
  -16.8752   44.5527    4.7888 O   0  0  0  0  0  0  0  0  0  0  0  0
  -16.5275   45.9038    2.7839 C   0  0  0  0  0  0  0  0  0  0  0  0
  -18.3213   44.0178    2.4473 H   0  0  0  0  0  0  0  0  0  0  0  0
  -16.9545   43.7724    4.2180 H   0  0  0  0  0  0  0  0  0  0  0  0
  -15.1988   46.5125    3.0209 N   0  0  0  0  0  0  0  0  0  0  0  0
  -14.7885   47.7234    2.5961 C   0  0  0  0  0  0  0  0  0  0  0  0
  -13.5097   47.9756    2.9789 N   0  0  0  0  0  0  0  0  0  0  0  0
  -13.0763   46.8991    3.6626 C   0  0  0  0  0  0  0  0  0  0  0  0
  -11.8120   46.5079    4.3428 C   0  0  0  0  0  0  0  0  0  0  0  0
  -10.7513   47.3534    4.3564 N   0  0  0  0  0  0  0  0  0  0  0  0
  -11.7669   45.2900    4.9413 N   0  0  0  0  0  0  0  0  0  0  0  0
  -12.8278   44.4467    4.9240 C   0  0  0  0  0  0  0  0  0  0  0  0
  -14.0054   44.7385    4.3230 N   0  0  0  0  0  0  0  0  0  0  0  0
  -14.1903   45.9318    3.6889 C   0  0  0  0  0  0  0  0  0  0  0  0
  -10.8150   48.2302    3.9132 H   0  0  0  0  0  0  0  0  0  0  0  0
   -9.9177   47.0903    4.8093 H   0  0  0  0  0  0  0  0  0  0  0  0
  -19.3782   47.9119    2.6732 C   0  0  0  0  0  0  0  0  0  0  0  0
  -20.4577   47.7023    3.5803 O   0  0  0  0  0  0  0  0  0  0  0  0
  -20.7716   48.5878    4.8910 P   0  0  0  0  0  0  0  0  0  0  0  0
  -19.4801   48.6930    5.6429 O   0  0  0  0  0  0  0  0  0  0  0  0
  -21.5235   49.8414    4.5459 O   0  0  0  0  0  0  0  0  0  0  0  0
  -21.6951   50.3485    5.3548 H   0  0  0  0  0  0  0  0  0  0  0  0
  -21.7780   47.5830    5.6430 O   0  0  0  0  0  0  0  0  0  0  0  0
  -21.5100   46.5630    6.8599 P   0  0  0  0  0  0  0  0  0  0  0  0
  -22.8356   45.9117    7.1175 O   0  0  0  0  0  0  0  0  0  0  0  0
  -20.8541   47.2603    8.0116 O   0  0  0  0  0  0  0  0  0  0  0  0
  -20.7035   46.6263    8.7301 H   0  0  0  0  0  0  0  0  0  0  0  0
  -20.4966   45.5242    6.1499 O   0  0  0  0  0  0  0  0  0  0  0  0
  -20.6139   43.8999    6.1804 P   0  0  0  0  0  0  0  0  0  0  0  0
  -21.4094   43.4891    4.9707 O   0  0  0  0  0  0  0  0  0  0  0  0
  -21.3450   43.6686    7.4818 O   0  0  0  0  0  0  0  0  0  0  0  0
  -19.1728   43.4232    6.2042 O   0  0  0  0  0  0  0  0  0  0  0  0
  -21.4767   42.7167    7.6139 H   0  0  0  0  0  0  0  0  0  0  0  0
  -19.1533   42.4535    6.2232 H   0  0  0  0  0  0  0  0  0  0  0  0
 34 35  2  0  0  0
 34 36  1  0  0  0
 34 37  1  0  0  0
 34 33  1  0  0  0
 29 30  2  0  0  0
 29 31  1  0  0  0
 29 33  1  0  0  0
 29 28  1  0  0  0
 24 25  2  0  0  0
 24 26  1  0  0  0
 24 28  1  0  0  0
 24 23  1  0  0  0
 23 22  1  0  0  0
 22  1  1  0  0  0
  1  2  1  0  0  0
  1  3  1  0  0  0
  2  7  1  0  0  0
  3  4  1  0  0  0
  3  5  1  0  0  0
  5  6  1  0  0  0
  5  7  1  0  0  0
  7 10  1  0  0  0
 10 11  1  0  0  0
 10 19  1  0  0  0
 11 12  2  0  0  0
 12 13  1  0  0  0
 13 14  1  0  0  0
 13 19  2  0  0  0
 14 15  1  0  0  0
 14 16  2  0  0  0
 16 17  1  0  0  0
 17 18  2  0  0  0
 18 19  1  0  0  0
 36 38  1  0  0  0
 37 39  1  0  0  0
 31 32  1  0  0  0
 26 27  1  0  0  0
  4  8  1  0  0  0
  6  9  1  0  0  0
 15 20  1  0  0  0
 15 21  1  0  0  0
M  END
> <minimizedAffinity>
-8.26154

$$$$
2CBZ_ATP_A_1873


 39 41  0  0  0  0  0  0  0  0999 V2000
  -19.0018   48.6177    1.9293 C   0  0  0  0  0  0  0  0  0  0  0  0
  -17.7567   48.3973    1.2478 O   0  0  0  0  0  0  0  0  0  0  0  0
  -20.0823   48.3829    0.8774 C   0  0  0  0  0  0  0  0  0  0  0  0
  -20.5356   49.6468    0.3726 O   0  0  0  0  0  0  0  0  0  0  0  0
  -19.3671   47.6302   -0.2290 C   0  0  0  0  0  0  0  0  0  0  0  0
  -19.9630   47.8019   -1.5132 O   0  0  0  0  0  0  0  0  0  0  0  0
  -17.9801   48.2420   -0.1565 C   0  0  0  0  0  0  0  0  0  0  0  0
  -19.7811   50.1430    0.0185 H   0  0  0  0  0  0  0  0  0  0  0  0
  -19.9904   48.7462   -1.7333 H   0  0  0  0  0  0  0  0  0  0  0  0
  -16.9556   47.3699   -0.7744 N   0  0  0  0  0  0  0  0  0  0  0  0
  -16.0360   46.6327   -0.1217 C   0  0  0  0  0  0  0  0  0  0  0  0
  -15.2421   45.9507   -0.9877 N   0  0  0  0  0  0  0  0  0  0  0  0
  -15.6511   46.2583   -2.2336 C   0  0  0  0  0  0  0  0  0  0  0  0
  -15.2378   45.8833   -3.6130 C   0  0  0  0  0  0  0  0  0  0  0  0
  -14.2075   45.0230   -3.8095 N   0  0  0  0  0  0  0  0  0  0  0  0
  -15.9258   46.4280   -4.6491 N   0  0  0  0  0  0  0  0  0  0  0  0
  -16.9533   47.2889   -4.4493 C   0  0  0  0  0  0  0  0  0  0  0  0
  -17.3793   47.6732   -3.2230 N   0  0  0  0  0  0  0  0  0  0  0  0
  -16.7810   47.1970   -2.0936 C   0  0  0  0  0  0  0  0  0  0  0  0
  -13.7280   44.6447   -3.0373 H   0  0  0  0  0  0  0  0  0  0  0  0
  -13.9392   44.7769   -4.7242 H   0  0  0  0  0  0  0  0  0  0  0  0
  -19.0838   47.6145    3.0931 C   0  0  0  0  0  0  0  0  0  0  0  0
  -20.3626   47.7471    3.7087 O   0  0  0  0  0  0  0  0  0  0  0  0
  -20.7069   48.6909    4.9702 P   0  0  0  0  0  0  0  0  0  0  0  0
  -19.4035   48.9604    5.6580 O   0  0  0  0  0  0  0  0  0  0  0  0
  -21.5806   49.8470    4.5754 O   0  0  0  0  0  0  0  0  0  0  0  0
  -21.7676   50.3922    5.3555 H   0  0  0  0  0  0  0  0  0  0  0  0
  -21.5907   47.6568    5.8291 O   0  0  0  0  0  0  0  0  0  0  0  0
  -21.6500   46.0485    5.7764 P   0  0  0  0  0  0  0  0  0  0  0  0
  -20.2693   45.5984    6.1494 O   0  0  0  0  0  0  0  0  0  0  0  0
  -22.1944   45.5730    4.4648 O   0  0  0  0  0  0  0  0  0  0  0  0
  -22.2201   44.6034    4.4578 H   0  0  0  0  0  0  0  0  0  0  0  0
  -22.6860   45.7567    6.9812 O   0  0  0  0  0  0  0  0  0  0  0  0
  -22.5714   46.3284    8.5021 P   0  0  0  0  0  0  0  0  0  0  0  0
  -23.6995   47.3055    8.6956 O   0  0  0  0  0  0  0  0  0  0  0  0
  -21.2108   46.9844    8.4825 O   0  0  0  0  0  0  0  0  0  0  0  0
  -22.6303   45.0858    9.3722 O   0  0  0  0  0  0  0  0  0  0  0  0
  -21.0253   47.3700    9.3530 H   0  0  0  0  0  0  0  0  0  0  0  0
  -22.5675   45.3415   10.3057 H   0  0  0  0  0  0  0  0  0  0  0  0
 34 35  2  0  0  0
 34 36  1  0  0  0
 34 37  1  0  0  0
 34 33  1  0  0  0
 29 30  2  0  0  0
 29 31  1  0  0  0
 29 33  1  0  0  0
 29 28  1  0  0  0
 24 25  2  0  0  0
 24 26  1  0  0  0
 24 28  1  0  0  0
 24 23  1  0  0  0
 23 22  1  0  0  0
 22  1  1  0  0  0
  1  2  1  0  0  0
  1  3  1  0  0  0
  2  7  1  0  0  0
  3  4  1  0  0  0
  3  5  1  0  0  0
  5  6  1  0  0  0
  5  7  1  0  0  0
  7 10  1  0  0  0
 10 11  1  0  0  0
 10 19  1  0  0  0
 11 12  2  0  0  0
 12 13  1  0  0  0
 13 14  1  0  0  0
 13 19  2  0  0  0
 14 15  1  0  0  0
 14 16  2  0  0  0
 16 17  1  0  0  0
 17 18  2  0  0  0
 18 19  1  0  0  0
 36 38  1  0  0  0
 37 39  1  0  0  0
 31 32  1  0  0  0
 26 27  1  0  0  0
  4  8  1  0  0  0
  6  9  1  0  0  0
 15 20  1  0  0  0
 15 21  1  0  0  0
M  END
> <minimizedAffinity>
-8.17767

$$$$
2CBZ_ATP_A_1873


 39 41  0  0  0  0  0  0  0  0999 V2000
  -16.6281   43.9983    2.9898 C   0  0  0  0  0  0  0  0  0  0  0  0
  -15.2413   44.2633    2.7260 O   0  0  0  0  0  0  0  0  0  0  0  0
  -16.8458   44.4082    4.4437 C   0  0  0  0  0  0  0  0  0  0  0  0
  -16.8241   43.2391    5.2746 O   0  0  0  0  0  0  0  0  0  0  0  0
  -15.6442   45.2755    4.7696 C   0  0  0  0  0  0  0  0  0  0  0  0
  -15.3156   45.2965    6.1571 O   0  0  0  0  0  0  0  0  0  0  0  0
  -14.5633   44.6112    3.9365 C   0  0  0  0  0  0  0  0  0  0  0  0
  -15.9856   42.7681    5.1481 H   0  0  0  0  0  0  0  0  0  0  0  0
  -15.1507   44.3913    6.4641 H   0  0  0  0  0  0  0  0  0  0  0  0
  -13.4245   45.5211    3.6770 N   0  0  0  0  0  0  0  0  0  0  0  0
  -13.3728   46.4877    2.7399 C   0  0  0  0  0  0  0  0  0  0  0  0
  -12.1795   47.1365    2.7628 N   0  0  0  0  0  0  0  0  0  0  0  0
  -11.4351   46.5726    3.7334 C   0  0  0  0  0  0  0  0  0  0  0  0
  -10.0682   46.7803    4.2834 C   0  0  0  0  0  0  0  0  0  0  0  0
   -9.2646   47.7475    3.7744 N   0  0  0  0  0  0  0  0  0  0  0  0
   -9.6673   45.9757    5.3009 N   0  0  0  0  0  0  0  0  0  0  0  0
  -10.4719   45.0089    5.8056 C   0  0  0  0  0  0  0  0  0  0  0  0
  -11.7240   44.7655    5.3515 N   0  0  0  0  0  0  0  0  0  0  0  0
  -12.2558   45.5045    4.3360 C   0  0  0  0  0  0  0  0  0  0  0  0
   -9.5843   48.3151    3.0363 H   0  0  0  0  0  0  0  0  0  0  0  0
   -8.3617   47.8818    4.1432 H   0  0  0  0  0  0  0  0  0  0  0  0
  -17.4618   44.8407    2.0084 C   0  0  0  0  0  0  0  0  0  0  0  0
  -16.6931   45.9808    1.6327 O   0  0  0  0  0  0  0  0  0  0  0  0
  -17.2143   47.5068    1.6247 P   0  0  0  0  0  0  0  0  0  0  0  0
  -16.2174   48.2926    2.4205 O   0  0  0  0  0  0  0  0  0  0  0  0
  -17.5704   47.9637    0.2390 O   0  0  0  0  0  0  0  0  0  0  0  0
  -17.8790   48.8827    0.2709 H   0  0  0  0  0  0  0  0  0  0  0  0
  -18.5749   47.3163    2.4618 O   0  0  0  0  0  0  0  0  0  0  0  0
  -20.0946   47.6753    2.0687 P   0  0  0  0  0  0  0  0  0  0  0  0
  -20.5655   46.5142    1.2453 O   0  0  0  0  0  0  0  0  0  0  0  0
  -20.1826   49.0354    1.4482 O   0  0  0  0  0  0  0  0  0  0  0  0
  -21.1058   49.2279    1.2209 H   0  0  0  0  0  0  0  0  0  0  0  0
  -20.7853   47.6517    3.5290 O   0  0  0  0  0  0  0  0  0  0  0  0
  -20.5092   48.7101    4.7360 P   0  0  0  0  0  0  0  0  0  0  0  0
  -21.5949   49.7503    4.6718 O   0  0  0  0  0  0  0  0  0  0  0  0
  -19.1460   49.2471    4.3685 O   0  0  0  0  0  0  0  0  0  0  0  0
  -20.5029   47.8525    5.9886 O   0  0  0  0  0  0  0  0  0  0  0  0
  -18.8676   49.9014    5.0283 H   0  0  0  0  0  0  0  0  0  0  0  0
  -20.3426   48.4134    6.7636 H   0  0  0  0  0  0  0  0  0  0  0  0
 34 35  2  0  0  0
 34 36  1  0  0  0
 34 37  1  0  0  0
 34 33  1  0  0  0
 29 30  2  0  0  0
 29 31  1  0  0  0
 29 33  1  0  0  0
 29 28  1  0  0  0
 24 25  2  0  0  0
 24 26  1  0  0  0
 24 28  1  0  0  0
 24 23  1  0  0  0
 23 22  1  0  0  0
 22  1  1  0  0  0
  1  2  1  0  0  0
  1  3  1  0  0  0
  2  7  1  0  0  0
  3  4  1  0  0  0
  3  5  1  0  0  0
  5  6  1  0  0  0
  5  7  1  0  0  0
  7 10  1  0  0  0
 10 11  1  0  0  0
 10 19  1  0  0  0
 11 12  2  0  0  0
 12 13  1  0  0  0
 13 14  1  0  0  0
 13 19  2  0  0  0
 14 15  1  0  0  0
 14 16  2  0  0  0
 16 17  1  0  0  0
 17 18  2  0  0  0
 18 19  1  0  0  0
 36 38  1  0  0  0
 37 39  1  0  0  0
 31 32  1  0  0  0
 26 27  1  0  0  0
  4  8  1  0  0  0
  6  9  1  0  0  0
 15 20  1  0  0  0
 15 21  1  0  0  0
M  END
> <minimizedAffinity>
-8.04177

$$$$
2CBZ_ATP_A_1873


 39 41  0  0  0  0  0  0  0  0999 V2000
  -15.1870   46.5016    3.2052 C   0  0  0  0  0  0  0  0  0  0  0  0
  -14.8721   45.7349    4.3783 O   0  0  0  0  0  0  0  0  0  0  0  0
  -13.8399   46.9480    2.6436 C   0  0  0  0  0  0  0  0  0  0  0  0
  -13.5878   48.3042    3.0370 O   0  0  0  0  0  0  0  0  0  0  0  0
  -12.8339   46.0359    3.3208 C   0  0  0  0  0  0  0  0  0  0  0  0
  -11.5286   46.6013    3.4211 O   0  0  0  0  0  0  0  0  0  0  0  0
  -13.4781   45.8406    4.6811 C   0  0  0  0  0  0  0  0  0  0  0  0
  -13.6225   48.3722    4.0040 H   0  0  0  0  0  0  0  0  0  0  0  0
  -11.5763   47.4412    3.9042 H   0  0  0  0  0  0  0  0  0  0  0  0
  -12.9784   44.6250    5.3626 N   0  0  0  0  0  0  0  0  0  0  0  0
  -13.6776   43.4978    5.5985 C   0  0  0  0  0  0  0  0  0  0  0  0
  -12.9241   42.5747    6.2509 N   0  0  0  0  0  0  0  0  0  0  0  0
  -11.7080   43.1183    6.4502 C   0  0  0  0  0  0  0  0  0  0  0  0
  -10.4363   42.6787    7.0854 C   0  0  0  0  0  0  0  0  0  0  0  0
  -10.3379   41.4441    7.6388 N   0  0  0  0  0  0  0  0  0  0  0  0
   -9.3954   43.5505    7.0854 N   0  0  0  0  0  0  0  0  0  0  0  0
   -9.4977   44.7840    6.5335 C   0  0  0  0  0  0  0  0  0  0  0  0
  -10.6238   45.2476    5.9418 N   0  0  0  0  0  0  0  0  0  0  0  0
  -11.7438   44.4729    5.8659 C   0  0  0  0  0  0  0  0  0  0  0  0
  -11.1108   40.8345    7.6230 H   0  0  0  0  0  0  0  0  0  0  0  0
   -9.4936   41.1576    8.0563 H   0  0  0  0  0  0  0  0  0  0  0  0
  -15.9547   45.5843    2.2373 C   0  0  0  0  0  0  0  0  0  0  0  0
  -17.0329   44.9837    2.9505 O   0  0  0  0  0  0  0  0  0  0  0  0
  -18.3807   45.7316    3.4245 P   0  0  0  0  0  0  0  0  0  0  0  0
  -19.5156   44.8376    3.0281 O   0  0  0  0  0  0  0  0  0  0  0  0
  -18.2815   46.2040    4.8467 O   0  0  0  0  0  0  0  0  0  0  0  0
  -19.1065   46.6478    5.0983 H   0  0  0  0  0  0  0  0  0  0  0  0
  -18.3141   47.0154    2.4573 O   0  0  0  0  0  0  0  0  0  0  0  0
  -19.0686   48.4341    2.5616 P   0  0  0  0  0  0  0  0  0  0  0  0
  -19.5125   48.7396    1.1624 O   0  0  0  0  0  0  0  0  0  0  0  0
  -18.2084   49.4519    3.2448 O   0  0  0  0  0  0  0  0  0  0  0  0
  -18.6840   50.2957    3.2952 H   0  0  0  0  0  0  0  0  0  0  0  0
  -20.3326   48.0236    3.4802 O   0  0  0  0  0  0  0  0  0  0  0  0
  -20.7080   48.6600    4.9319 P   0  0  0  0  0  0  0  0  0  0  0  0
  -19.4116   48.9357    5.6448 O   0  0  0  0  0  0  0  0  0  0  0  0
  -21.5084   47.5433    5.5597 O   0  0  0  0  0  0  0  0  0  0  0  0
  -21.5399   49.8850    4.5972 O   0  0  0  0  0  0  0  0  0  0  0  0
  -21.7942   47.8099    6.4474 H   0  0  0  0  0  0  0  0  0  0  0  0
  -21.8078   50.3279    5.4175 H   0  0  0  0  0  0  0  0  0  0  0  0
 34 35  2  0  0  0
 34 36  1  0  0  0
 34 37  1  0  0  0
 34 33  1  0  0  0
 29 30  2  0  0  0
 29 31  1  0  0  0
 29 33  1  0  0  0
 29 28  1  0  0  0
 24 25  2  0  0  0
 24 26  1  0  0  0
 24 28  1  0  0  0
 24 23  1  0  0  0
 23 22  1  0  0  0
 22  1  1  0  0  0
  1  2  1  0  0  0
  1  3  1  0  0  0
  2  7  1  0  0  0
  3  4  1  0  0  0
  3  5  1  0  0  0
  5  6  1  0  0  0
  5  7  1  0  0  0
  7 10  1  0  0  0
 10 11  1  0  0  0
 10 19  1  0  0  0
 11 12  2  0  0  0
 12 13  1  0  0  0
 13 14  1  0  0  0
 13 19  2  0  0  0
 14 15  1  0  0  0
 14 16  2  0  0  0
 16 17  1  0  0  0
 17 18  2  0  0  0
 18 19  1  0  0  0
 36 38  1  0  0  0
 37 39  1  0  0  0
 31 32  1  0  0  0
 26 27  1  0  0  0
  4  8  1  0  0  0
  6  9  1  0  0  0
 15 20  1  0  0  0
 15 21  1  0  0  0
M  END
> <minimizedAffinity>
-8.00188

$$$$
2CBZ_ATP_A_1873


 39 41  0  0  0  0  0  0  0  0999 V2000
  -18.5063   46.3558    2.6276 C   0  0  0  0  0  0  0  0  0  0  0  0
  -17.1391   46.5879    2.2533 O   0  0  0  0  0  0  0  0  0  0  0  0
  -18.4387   45.4446    3.8501 C   0  0  0  0  0  0  0  0  0  0  0  0
  -18.6842   44.0902    3.4465 O   0  0  0  0  0  0  0  0  0  0  0  0
  -17.0048   45.5713    4.3297 C   0  0  0  0  0  0  0  0  0  0  0  0
  -16.5433   44.4333    5.0547 O   0  0  0  0  0  0  0  0  0  0  0  0
  -16.2664   45.7494    3.0157 C   0  0  0  0  0  0  0  0  0  0  0  0
  -18.0443   43.8353    2.7635 H   0  0  0  0  0  0  0  0  0  0  0  0
  -16.6278   43.6412    4.5013 H   0  0  0  0  0  0  0  0  0  0  0  0
  -14.9398   46.3788    3.2052 N   0  0  0  0  0  0  0  0  0  0  0  0
  -14.5636   47.5956    2.7658 C   0  0  0  0  0  0  0  0  0  0  0  0
  -13.2761   47.8679    3.1029 N   0  0  0  0  0  0  0  0  0  0  0  0
  -12.8020   46.7989    3.7711 C   0  0  0  0  0  0  0  0  0  0  0  0
  -11.5084   46.4279    4.4060 C   0  0  0  0  0  0  0  0  0  0  0  0
  -10.4612   47.2898    4.3817 N   0  0  0  0  0  0  0  0  0  0  0  0
  -11.4233   45.2113    5.0028 N   0  0  0  0  0  0  0  0  0  0  0  0
  -12.4708   44.3516    5.0234 C   0  0  0  0  0  0  0  0  0  0  0  0
  -13.6734   44.6246    4.4645 N   0  0  0  0  0  0  0  0  0  0  0  0
  -13.8993   45.8144    3.8371 C   0  0  0  0  0  0  0  0  0  0  0  0
  -10.5543   48.1651    3.9409 H   0  0  0  0  0  0  0  0  0  0  0  0
   -9.6081   47.0399    4.8048 H   0  0  0  0  0  0  0  0  0  0  0  0
  -19.1445   47.7198    2.9432 C   0  0  0  0  0  0  0  0  0  0  0  0
  -20.1768   47.5187    3.9055 O   0  0  0  0  0  0  0  0  0  0  0  0
  -20.6556   48.5909    5.0108 P   0  0  0  0  0  0  0  0  0  0  0  0
  -19.4316   48.9602    5.7918 O   0  0  0  0  0  0  0  0  0  0  0  0
  -21.4926   49.6789    4.4015 O   0  0  0  0  0  0  0  0  0  0  0  0
  -21.7626   50.3043    5.0921 H   0  0  0  0  0  0  0  0  0  0  0  0
  -21.6152   47.6428    5.8874 O   0  0  0  0  0  0  0  0  0  0  0  0
  -21.2652   46.6636    7.1168 P   0  0  0  0  0  0  0  0  0  0  0  0
  -20.5110   47.5192    8.0900 O   0  0  0  0  0  0  0  0  0  0  0  0
  -20.5905   45.4162    6.6356 O   0  0  0  0  0  0  0  0  0  0  0  0
  -20.3904   44.8441    7.3929 H   0  0  0  0  0  0  0  0  0  0  0  0
  -22.7503   46.3502    7.6701 O   0  0  0  0  0  0  0  0  0  0  0  0
  -23.1855   46.2411    9.2359 P   0  0  0  0  0  0  0  0  0  0  0  0
  -24.0735   47.4192    9.5334 O   0  0  0  0  0  0  0  0  0  0  0  0
  -21.8473   46.3118    9.9329 O   0  0  0  0  0  0  0  0  0  0  0  0
  -23.8512   44.8810    9.3431 O   0  0  0  0  0  0  0  0  0  0  0  0
  -21.9789   46.2555   10.8922 H   0  0  0  0  0  0  0  0  0  0  0  0
  -24.1437   44.7352   10.2565 H   0  0  0  0  0  0  0  0  0  0  0  0
 34 35  2  0  0  0
 34 36  1  0  0  0
 34 37  1  0  0  0
 34 33  1  0  0  0
 29 30  2  0  0  0
 29 31  1  0  0  0
 29 33  1  0  0  0
 29 28  1  0  0  0
 24 25  2  0  0  0
 24 26  1  0  0  0
 24 28  1  0  0  0
 24 23  1  0  0  0
 23 22  1  0  0  0
 22  1  1  0  0  0
  1  2  1  0  0  0
  1  3  1  0  0  0
  2  7  1  0  0  0
  3  4  1  0  0  0
  3  5  1  0  0  0
  5  6  1  0  0  0
  5  7  1  0  0  0
  7 10  1  0  0  0
 10 11  1  0  0  0
 10 19  1  0  0  0
 11 12  2  0  0  0
 12 13  1  0  0  0
 13 14  1  0  0  0
 13 19  2  0  0  0
 14 15  1  0  0  0
 14 16  2  0  0  0
 16 17  1  0  0  0
 17 18  2  0  0  0
 18 19  1  0  0  0
 36 38  1  0  0  0
 37 39  1  0  0  0
 31 32  1  0  0  0
 26 27  1  0  0  0
  4  8  1  0  0  0
  6  9  1  0  0  0
 15 20  1  0  0  0
 15 21  1  0  0  0
M  END
> <minimizedAffinity>
-7.85193

$$$$
