3MIY_B49_A_1


 32 34  0  0  0  0  0  0  0  0999 V2000
   10.5698  -12.0719   -2.3937 C   0  0  0  0  0  0  0  0  0  0  0  0
    7.8754  -11.4417    0.1001 C   0  0  0  0  0  0  0  0  0  0  0  0
    7.2532  -11.1561    1.4477 C   0  0  0  0  0  0  0  0  0  0  0  0
    9.3290  -11.8477   -1.5705 C   0  0  0  0  0  0  0  0  0  0  0  0
    7.1759  -11.6266   -1.0807 C   0  0  0  0  0  0  0  0  0  0  0  0
    9.2521  -11.5861   -0.2048 C   0  0  0  0  0  0  0  0  0  0  0  0
    8.0873  -11.8676   -2.0828 N   0  0  0  0  0  0  0  0  0  0  0  0
    7.8643  -12.0294   -3.0280 H   0  0  0  0  0  0  0  0  0  0  0  0
    0.8714  -11.1417   -3.0466 C   0  0  0  0  0  0  0  0  0  0  0  0
    1.8245  -11.1527   -4.0517 C   0  0  0  0  0  0  0  0  0  0  0  0
    2.5910  -11.3569   -1.3774 C   0  0  0  0  0  0  0  0  0  0  0  0
    1.2523  -11.2430   -1.7135 C   0  0  0  0  0  0  0  0  0  0  0  0
    3.5552  -11.3756   -2.3867 C   0  0  0  0  0  0  0  0  0  0  0  0
    5.0298  -11.4688   -2.3654 C   0  0  0  0  0  0  0  0  0  0  0  0
    5.4328  -11.4321   -3.7876 C   0  0  0  0  0  0  0  0  0  0  0  0
    5.7693  -11.5575   -1.1983 C   0  0  0  0  0  0  0  0  0  0  0  0
    3.1770  -11.2613   -3.7328 C   0  0  0  0  0  0  0  0  0  0  0  0
    4.3158  -11.3033   -4.5254 N   0  0  0  0  0  0  0  0  0  0  0  0
    6.5609  -11.5072   -4.2469 O   0  0  0  0  0  0  0  0  0  0  0  0
    0.3137  -11.2295   -0.7416 F   0  0  0  0  0  0  0  0  0  0  0  0
    4.3069  -11.2457   -5.5082 H   0  0  0  0  0  0  0  0  0  0  0  0
   10.3810  -11.4785    0.7559 C   0  0  0  0  0  0  0  0  0  0  0  0
   10.7964  -10.2659    1.1896 N   0  0  0  0  0  0  0  0  0  0  0  0
   10.9417  -12.4868    1.1463 O   0  0  0  0  0  0  0  0  0  0  0  0
   10.3396   -9.4582    0.8607 H   0  0  0  0  0  0  0  0  0  0  0  0
   11.9099  -10.1201    2.1373 C   0  0  0  0  0  0  0  0  0  0  0  0
   13.1606   -9.6454    1.3910 C   0  0  0  0  0  0  0  0  0  0  0  0
   12.7923   -8.6024    0.4169 N   0  0  0  0  0  0  0  0  0  0  0  0
   12.7974   -7.2153    0.9283 C   0  0  0  0  0  0  0  0  0  0  0  0
   13.7660   -6.2876    0.1830 C   0  0  0  0  0  0  0  0  0  0  0  0
   13.5354   -8.7432   -0.8442 C   0  0  0  0  0  0  0  0  0  0  0  0
   13.4873  -10.2038   -1.3032 C   0  0  0  0  0  0  0  0  0  0  0  0
  1  4  1  0  0  0
  9 10  2  0  0  0
  9 12  1  0  0  0
 10 17  1  0  0  0
 11 12  2  0  0  0
 11 13  1  0  0  0
  2  3  1  0  0  0
  2  5  2  0  0  0
  2  6  1  0  0  0
 12 20  1  0  0  0
 13 14  1  0  0  0
 13 17  2  0  0  0
 14 15  1  0  0  0
 14 16  2  0  0  0
 15 18  1  0  0  0
 15 19  2  0  0  0
 22  6  1  0  0  0
 22 23  1  0  0  0
 22 24  2  0  0  0
 16  5  1  0  0  0
  4  6  2  0  0  0
  4  7  1  0  0  0
 17 18  1  0  0  0
  5  7  1  0  0  0
 23 26  1  0  0  0
 26 27  1  0  0  0
 27 28  1  0  0  0
 28 29  1  0  0  0
 28 31  1  0  0  0
 31 32  1  0  0  0
 29 30  1  0  0  0
  7  8  1  0  0  0
 18 21  1  0  0  0
 23 25  1  0  0  0
M  END
> <minimizedAffinity>
-8.82912

$$$$
3MIY_B49_A_1


 32 34  0  0  0  0  0  0  0  0999 V2000
   10.4933  -11.7708   -2.7377 C   0  0  0  0  0  0  0  0  0  0  0  0
    7.9294  -11.5049   -0.0486 C   0  0  0  0  0  0  0  0  0  0  0  0
    7.3770  -11.4008    1.3545 C   0  0  0  0  0  0  0  0  0  0  0  0
    9.2958  -11.6733   -1.8298 C   0  0  0  0  0  0  0  0  0  0  0  0
    7.1697  -11.5535   -1.2055 C   0  0  0  0  0  0  0  0  0  0  0  0
    9.2892  -11.5855   -0.4400 C   0  0  0  0  0  0  0  0  0  0  0  0
    8.0288  -11.6513   -2.2757 N   0  0  0  0  0  0  0  0  0  0  0  0
    7.7574  -11.6978   -3.2209 H   0  0  0  0  0  0  0  0  0  0  0  0
    0.7559  -11.1570   -2.8032 C   0  0  0  0  0  0  0  0  0  0  0  0
    1.6475  -11.1900   -3.8629 C   0  0  0  0  0  0  0  0  0  0  0  0
    2.5735  -11.3172   -1.2347 C   0  0  0  0  0  0  0  0  0  0  0  0
    1.2164  -11.2199   -1.4930 C   0  0  0  0  0  0  0  0  0  0  0  0
    3.4759  -11.3581   -2.2990 C   0  0  0  0  0  0  0  0  0  0  0  0
    4.9498  -11.4425   -2.3633 C   0  0  0  0  0  0  0  0  0  0  0  0
    5.2670  -11.4423   -3.8076 C   0  0  0  0  0  0  0  0  0  0  0  0
    5.7582  -11.4953   -1.2406 C   0  0  0  0  0  0  0  0  0  0  0  0
    3.0173  -11.2825   -3.6226 C   0  0  0  0  0  0  0  0  0  0  0  0
    4.1071  -11.3397   -4.4804 N   0  0  0  0  0  0  0  0  0  0  0  0
    6.3662  -11.5236   -4.3314 O   0  0  0  0  0  0  0  0  0  0  0  0
    0.3373  -11.1852   -0.4675 F   0  0  0  0  0  0  0  0  0  0  0  0
    4.0392  -11.3089   -5.4621 H   0  0  0  0  0  0  0  0  0  0  0  0
   10.4666  -11.5785    0.4670 C   0  0  0  0  0  0  0  0  0  0  0  0
   11.0774  -12.7381    0.8034 N   0  0  0  0  0  0  0  0  0  0  0  0
   10.8769  -10.5241    0.9180 O   0  0  0  0  0  0  0  0  0  0  0  0
   10.7315  -13.5843    0.4380 H   0  0  0  0  0  0  0  0  0  0  0  0
   12.2423  -12.7706    1.6987 C   0  0  0  0  0  0  0  0  0  0  0  0
   13.3246  -13.6746    1.1004 C   0  0  0  0  0  0  0  0  0  0  0  0
   13.5078  -13.3534   -0.3264 N   0  0  0  0  0  0  0  0  0  0  0  0
   14.4776  -12.2778   -0.6232 C   0  0  0  0  0  0  0  0  0  0  0  0
   13.8315  -11.0024   -1.1805 C   0  0  0  0  0  0  0  0  0  0  0  0
   13.7362  -14.5601   -1.1350 C   0  0  0  0  0  0  0  0  0  0  0  0
   12.5294  -14.7971   -2.0482 C   0  0  0  0  0  0  0  0  0  0  0  0
  1  4  1  0  0  0
  9 10  2  0  0  0
  9 12  1  0  0  0
 10 17  1  0  0  0
 11 12  2  0  0  0
 11 13  1  0  0  0
  2  3  1  0  0  0
  2  5  2  0  0  0
  2  6  1  0  0  0
 12 20  1  0  0  0
 13 14  1  0  0  0
 13 17  2  0  0  0
 14 15  1  0  0  0
 14 16  2  0  0  0
 15 18  1  0  0  0
 15 19  2  0  0  0
 22  6  1  0  0  0
 22 23  1  0  0  0
 22 24  2  0  0  0
 16  5  1  0  0  0
  4  6  2  0  0  0
  4  7  1  0  0  0
 17 18  1  0  0  0
  5  7  1  0  0  0
 23 26  1  0  0  0
 26 27  1  0  0  0
 27 28  1  0  0  0
 28 29  1  0  0  0
 28 31  1  0  0  0
 31 32  1  0  0  0
 29 30  1  0  0  0
  7  8  1  0  0  0
 18 21  1  0  0  0
 23 25  1  0  0  0
M  END
> <minimizedAffinity>
-8.43299

$$$$
3MIY_B49_A_1


 32 34  0  0  0  0  0  0  0  0999 V2000
    9.1407  -10.5780    2.5429 C   0  0  0  0  0  0  0  0  0  0  0  0
    8.4004  -11.4732   -0.9964 C   0  0  0  0  0  0  0  0  0  0  0  0
    8.6746  -11.9086   -2.4177 C   0  0  0  0  0  0  0  0  0  0  0  0
    8.6127  -10.8870    1.1669 C   0  0  0  0  0  0  0  0  0  0  0  0
    7.1550  -11.1476   -0.4859 C   0  0  0  0  0  0  0  0  0  0  0  0
    9.3376  -11.3046    0.0535 C   0  0  0  0  0  0  0  0  0  0  0  0
    7.3139  -10.7987    0.8355 N   0  0  0  0  0  0  0  0  0  0  0  0
    6.5888  -10.5268    1.4434 H   0  0  0  0  0  0  0  0  0  0  0  0
    0.9030  -11.5413   -2.6316 C   0  0  0  0  0  0  0  0  0  0  0  0
    1.0786  -11.5608   -1.2576 C   0  0  0  0  0  0  0  0  0  0  0  0
    3.2779  -11.3365   -2.9587 C   0  0  0  0  0  0  0  0  0  0  0  0
    1.9984  -11.4300   -3.4802 C   0  0  0  0  0  0  0  0  0  0  0  0
    3.4601  -11.3485   -1.5747 C   0  0  0  0  0  0  0  0  0  0  0  0
    4.6633  -11.2823   -0.7195 C   0  0  0  0  0  0  0  0  0  0  0  0
    4.1484  -11.3445    0.6652 C   0  0  0  0  0  0  0  0  0  0  0  0
    5.9500  -11.1923   -1.2228 C   0  0  0  0  0  0  0  0  0  0  0  0
    2.3592  -11.4730   -0.7143 C   0  0  0  0  0  0  0  0  0  0  0  0
    2.8104  -11.4622    0.5984 N   0  0  0  0  0  0  0  0  0  0  0  0
    4.7880  -11.2961    1.7034 O   0  0  0  0  0  0  0  0  0  0  0  0
    1.8148  -11.4137   -4.8188 F   0  0  0  0  0  0  0  0  0  0  0  0
    2.2224  -11.5322    1.3849 H   0  0  0  0  0  0  0  0  0  0  0  0
   10.8039  -11.5312   -0.0326 C   0  0  0  0  0  0  0  0  0  0  0  0
   11.5956  -10.6460   -0.6813 N   0  0  0  0  0  0  0  0  0  0  0  0
   11.2936  -12.5245    0.4743 O   0  0  0  0  0  0  0  0  0  0  0  0
   11.1864   -9.8509   -1.0931 H   0  0  0  0  0  0  0  0  0  0  0  0
   13.0486  -10.8375   -0.7886 C   0  0  0  0  0  0  0  0  0  0  0  0
   13.7666   -9.8453    0.1313 C   0  0  0  0  0  0  0  0  0  0  0  0
   13.7620   -8.5053   -0.4824 N   0  0  0  0  0  0  0  0  0  0  0  0
   14.3846   -7.4298    0.3184 C   0  0  0  0  0  0  0  0  0  0  0  0
   13.4032   -6.7118    1.2542 C   0  0  0  0  0  0  0  0  0  0  0  0
   14.2530   -8.5354   -1.8682 C   0  0  0  0  0  0  0  0  0  0  0  0
   15.0534   -7.2607   -2.1526 C   0  0  0  0  0  0  0  0  0  0  0  0
  1  4  1  0  0  0
  9 10  2  0  0  0
  9 12  1  0  0  0
 10 17  1  0  0  0
 11 12  2  0  0  0
 11 13  1  0  0  0
  2  3  1  0  0  0
  2  5  2  0  0  0
  2  6  1  0  0  0
 12 20  1  0  0  0
 13 14  1  0  0  0
 13 17  2  0  0  0
 14 15  1  0  0  0
 14 16  2  0  0  0
 15 18  1  0  0  0
 15 19  2  0  0  0
 22  6  1  0  0  0
 22 23  1  0  0  0
 22 24  2  0  0  0
 16  5  1  0  0  0
  4  6  2  0  0  0
  4  7  1  0  0  0
 17 18  1  0  0  0
  5  7  1  0  0  0
 23 26  1  0  0  0
 26 27  1  0  0  0
 27 28  1  0  0  0
 28 29  1  0  0  0
 28 31  1  0  0  0
 31 32  1  0  0  0
 29 30  1  0  0  0
  7  8  1  0  0  0
 18 21  1  0  0  0
 23 25  1  0  0  0
M  END
> <minimizedAffinity>
-8.08384

$$$$
3MIY_B49_A_1


 32 34  0  0  0  0  0  0  0  0999 V2000
    9.3280  -10.4744    2.5741 C   0  0  0  0  0  0  0  0  0  0  0  0
    8.6422  -11.5161   -0.9359 C   0  0  0  0  0  0  0  0  0  0  0  0
    8.9364  -12.0218   -2.3296 C   0  0  0  0  0  0  0  0  0  0  0  0
    8.8221  -10.8355    1.2025 C   0  0  0  0  0  0  0  0  0  0  0  0
    7.3937  -11.1421   -0.4678 C   0  0  0  0  0  0  0  0  0  0  0  0
    9.5608  -11.3184    0.1252 C   0  0  0  0  0  0  0  0  0  0  0  0
    7.5326  -10.7363    0.8395 N   0  0  0  0  0  0  0  0  0  0  0  0
    6.8010  -10.4221    1.4185 H   0  0  0  0  0  0  0  0  0  0  0  0
    1.1892  -11.6000   -2.7352 C   0  0  0  0  0  0  0  0  0  0  0  0
    1.3391  -11.6299   -1.3584 C   0  0  0  0  0  0  0  0  0  0  0  0
    3.5668  -11.3603   -3.0154 C   0  0  0  0  0  0  0  0  0  0  0  0
    2.2987  -11.4662   -3.5619 C   0  0  0  0  0  0  0  0  0  0  0  0
    3.7230  -11.3826   -1.6283 C   0  0  0  0  0  0  0  0  0  0  0  0
    4.9089  -11.3082   -0.7499 C   0  0  0  0  0  0  0  0  0  0  0  0
    4.3689  -11.3902    0.6242 C   0  0  0  0  0  0  0  0  0  0  0  0
    6.2035  -11.1962   -1.2278 C   0  0  0  0  0  0  0  0  0  0  0  0
    2.6079  -11.5299   -0.7901 C   0  0  0  0  0  0  0  0  0  0  0  0
    3.0341  -11.5252    0.5310 N   0  0  0  0  0  0  0  0  0  0  0  0
    4.9881  -11.3428    1.6747 O   0  0  0  0  0  0  0  0  0  0  0  0
    2.1402  -11.4400   -4.9035 F   0  0  0  0  0  0  0  0  0  0  0  0
    2.4323  -11.6103    1.3055 H   0  0  0  0  0  0  0  0  0  0  0  0
   11.0235  -11.5784    0.0813 C   0  0  0  0  0  0  0  0  0  0  0  0
   11.5249  -12.7449    0.5491 N   0  0  0  0  0  0  0  0  0  0  0  0
   11.7753  -10.7322   -0.3684 O   0  0  0  0  0  0  0  0  0  0  0  0
   10.9073  -13.4176    0.9168 H   0  0  0  0  0  0  0  0  0  0  0  0
   12.9650  -13.0364    0.5239 C   0  0  0  0  0  0  0  0  0  0  0  0
   13.2475  -14.1409   -0.4992 C   0  0  0  0  0  0  0  0  0  0  0  0
   12.9157  -13.6614   -1.8528 N   0  0  0  0  0  0  0  0  0  0  0  0
   13.9794  -12.9019   -2.5438 C   0  0  0  0  0  0  0  0  0  0  0  0
   13.9227  -13.0149   -4.0730 C   0  0  0  0  0  0  0  0  0  0  0  0
   12.3489  -14.7298   -2.6893 C   0  0  0  0  0  0  0  0  0  0  0  0
   12.8588  -16.0874   -2.1959 C   0  0  0  0  0  0  0  0  0  0  0  0
  1  4  1  0  0  0
  9 10  2  0  0  0
  9 12  1  0  0  0
 10 17  1  0  0  0
 11 12  2  0  0  0
 11 13  1  0  0  0
  2  3  1  0  0  0
  2  5  2  0  0  0
  2  6  1  0  0  0
 12 20  1  0  0  0
 13 14  1  0  0  0
 13 17  2  0  0  0
 14 15  1  0  0  0
 14 16  2  0  0  0
 15 18  1  0  0  0
 15 19  2  0  0  0
 22  6  1  0  0  0
 22 23  1  0  0  0
 22 24  2  0  0  0
 16  5  1  0  0  0
  4  6  2  0  0  0
  4  7  1  0  0  0
 17 18  1  0  0  0
  5  7  1  0  0  0
 23 26  1  0  0  0
 26 27  1  0  0  0
 27 28  1  0  0  0
 28 29  1  0  0  0
 28 31  1  0  0  0
 31 32  1  0  0  0
 29 30  1  0  0  0
  7  8  1  0  0  0
 18 21  1  0  0  0
 23 25  1  0  0  0
M  END
> <minimizedAffinity>
-7.91248

$$$$
3MIY_B49_A_1


 32 34  0  0  0  0  0  0  0  0999 V2000
   10.6253  -11.8573   -2.5347 C   0  0  0  0  0  0  0  0  0  0  0  0
    7.9563  -11.4472    0.0312 C   0  0  0  0  0  0  0  0  0  0  0  0
    7.3485  -11.2667    1.4033 C   0  0  0  0  0  0  0  0  0  0  0  0
    9.3927  -11.7115   -1.6821 C   0  0  0  0  0  0  0  0  0  0  0  0
    7.2434  -11.5604   -1.1506 C   0  0  0  0  0  0  0  0  0  0  0  0
    9.3306  -11.5474   -0.3005 C   0  0  0  0  0  0  0  0  0  0  0  0
    8.1445  -11.7158   -2.1787 N   0  0  0  0  0  0  0  0  0  0  0  0
    7.9109  -11.8147   -3.1300 H   0  0  0  0  0  0  0  0  0  0  0  0
    0.9014  -11.1881   -3.0178 C   0  0  0  0  0  0  0  0  0  0  0  0
    1.8367  -11.2235   -4.0390 C   0  0  0  0  0  0  0  0  0  0  0  0
    2.6519  -11.3365   -1.3737 C   0  0  0  0  0  0  0  0  0  0  0  0
    1.3066  -11.2440   -1.6892 C   0  0  0  0  0  0  0  0  0  0  0  0
    3.5983  -11.3797   -2.3990 C   0  0  0  0  0  0  0  0  0  0  0  0
    5.0737  -11.4604   -2.4011 C   0  0  0  0  0  0  0  0  0  0  0  0
    5.4513  -11.4658   -3.8307 C   0  0  0  0  0  0  0  0  0  0  0  0
    5.8344  -11.5062   -1.2452 C   0  0  0  0  0  0  0  0  0  0  0  0
    3.1954  -11.3112   -3.7410 C   0  0  0  0  0  0  0  0  0  0  0  0
    4.3204  -11.3693   -4.5521 N   0  0  0  0  0  0  0  0  0  0  0  0
    6.5718  -11.5465   -4.3076 O   0  0  0  0  0  0  0  0  0  0  0  0
    0.3851  -11.2071   -0.7016 F   0  0  0  0  0  0  0  0  0  0  0  0
    4.2937  -11.3431   -5.5359 H   0  0  0  0  0  0  0  0  0  0  0  0
   10.4709  -11.4889    0.6509 C   0  0  0  0  0  0  0  0  0  0  0  0
   10.8422  -12.5916    1.3418 N   0  0  0  0  0  0  0  0  0  0  0  0
   11.0671  -10.4399    0.8173 O   0  0  0  0  0  0  0  0  0  0  0  0
   10.3474  -13.4314    1.2038 H   0  0  0  0  0  0  0  0  0  0  0  0
   11.9627  -12.5714    2.2922 C   0  0  0  0  0  0  0  0  0  0  0  0
   12.0955  -13.9442    2.9588 C   0  0  0  0  0  0  0  0  0  0  0  0
   13.2655  -13.9506    3.8550 N   0  0  0  0  0  0  0  0  0  0  0  0
   13.9716  -12.6598    3.9987 C   0  0  0  0  0  0  0  0  0  0  0  0
   15.4771  -12.7463    3.7153 C   0  0  0  0  0  0  0  0  0  0  0  0
   12.9602  -14.5758    5.1505 C   0  0  0  0  0  0  0  0  0  0  0  0
   11.5619  -15.1991    5.0981 C   0  0  0  0  0  0  0  0  0  0  0  0
  1  4  1  0  0  0
  9 10  2  0  0  0
  9 12  1  0  0  0
 10 17  1  0  0  0
 11 12  2  0  0  0
 11 13  1  0  0  0
  2  3  1  0  0  0
  2  5  2  0  0  0
  2  6  1  0  0  0
 12 20  1  0  0  0
 13 14  1  0  0  0
 13 17  2  0  0  0
 14 15  1  0  0  0
 14 16  2  0  0  0
 15 18  1  0  0  0
 15 19  2  0  0  0
 22  6  1  0  0  0
 22 23  1  0  0  0
 22 24  2  0  0  0
 16  5  1  0  0  0
  4  6  2  0  0  0
  4  7  1  0  0  0
 17 18  1  0  0  0
  5  7  1  0  0  0
 23 26  1  0  0  0
 26 27  1  0  0  0
 27 28  1  0  0  0
 28 29  1  0  0  0
 28 31  1  0  0  0
 31 32  1  0  0  0
 29 30  1  0  0  0
  7  8  1  0  0  0
 18 21  1  0  0  0
 23 25  1  0  0  0
M  END
> <minimizedAffinity>
-7.86902

$$$$
3MIY_B49_A_1


 32 34  0  0  0  0  0  0  0  0999 V2000
   12.1346  -12.6014   -0.9098 C   0  0  0  0  0  0  0  0  0  0  0  0
    9.5774  -10.6365    0.9545 C   0  0  0  0  0  0  0  0  0  0  0  0
    9.0289   -9.6326    1.9424 C   0  0  0  0  0  0  0  0  0  0  0  0
   10.9394  -11.9341   -0.2823 C   0  0  0  0  0  0  0  0  0  0  0  0
    8.8143  -11.4433    0.1272 C   0  0  0  0  0  0  0  0  0  0  0  0
   10.9367  -10.9482    0.7012 C   0  0  0  0  0  0  0  0  0  0  0  0
    9.6707  -12.2202   -0.6186 N   0  0  0  0  0  0  0  0  0  0  0  0
    9.3964  -12.8825   -1.2934 H   0  0  0  0  0  0  0  0  0  0  0  0
    2.4084  -11.3926   -1.5486 C   0  0  0  0  0  0  0  0  0  0  0  0
    3.3113  -11.4990   -2.5937 C   0  0  0  0  0  0  0  0  0  0  0  0
    4.2137  -11.3490    0.0415 C   0  0  0  0  0  0  0  0  0  0  0  0
    2.8570  -11.3173   -0.2349 C   0  0  0  0  0  0  0  0  0  0  0  0
    5.1278  -11.4632   -1.0074 C   0  0  0  0  0  0  0  0  0  0  0  0
    6.6040  -11.5090   -1.0525 C   0  0  0  0  0  0  0  0  0  0  0  0
    6.9359  -11.6361   -2.4878 C   0  0  0  0  0  0  0  0  0  0  0  0
    7.4021  -11.4311    0.0762 C   0  0  0  0  0  0  0  0  0  0  0  0
    4.6807  -11.5271   -2.3355 C   0  0  0  0  0  0  0  0  0  0  0  0
    5.7805  -11.6325   -3.1760 N   0  0  0  0  0  0  0  0  0  0  0  0
    8.0424  -11.7335   -2.9933 O   0  0  0  0  0  0  0  0  0  0  0  0
    1.9668  -11.2121    0.7761 F   0  0  0  0  0  0  0  0  0  0  0  0
    5.7217  -11.6968   -4.1566 H   0  0  0  0  0  0  0  0  0  0  0  0
   12.1172  -10.3355    1.3647 C   0  0  0  0  0  0  0  0  0  0  0  0
   12.3714   -9.0140    1.2236 N   0  0  0  0  0  0  0  0  0  0  0  0
   12.8653  -11.0292    2.0299 O   0  0  0  0  0  0  0  0  0  0  0  0
   11.7631   -8.4657    0.6771 H   0  0  0  0  0  0  0  0  0  0  0  0
   13.5294   -8.3737    1.8626 C   0  0  0  0  0  0  0  0  0  0  0  0
   13.6183   -6.9109    1.4168 C   0  0  0  0  0  0  0  0  0  0  0  0
   14.8027   -6.7234    0.5599 N   0  0  0  0  0  0  0  0  0  0  0  0
   15.8047   -7.8095    0.6026 C   0  0  0  0  0  0  0  0  0  0  0  0
   17.2187   -7.3295    0.9557 C   0  0  0  0  0  0  0  0  0  0  0  0
   14.4323   -6.3488   -0.8130 C   0  0  0  0  0  0  0  0  0  0  0  0
   14.5358   -7.5778   -1.7215 C   0  0  0  0  0  0  0  0  0  0  0  0
  1  4  1  0  0  0
  9 10  2  0  0  0
  9 12  1  0  0  0
 10 17  1  0  0  0
 11 12  2  0  0  0
 11 13  1  0  0  0
  2  3  1  0  0  0
  2  5  2  0  0  0
  2  6  1  0  0  0
 12 20  1  0  0  0
 13 14  1  0  0  0
 13 17  2  0  0  0
 14 15  1  0  0  0
 14 16  2  0  0  0
 15 18  1  0  0  0
 15 19  2  0  0  0
 22  6  1  0  0  0
 22 23  1  0  0  0
 22 24  2  0  0  0
 16  5  1  0  0  0
  4  6  2  0  0  0
  4  7  1  0  0  0
 17 18  1  0  0  0
  5  7  1  0  0  0
 23 26  1  0  0  0
 26 27  1  0  0  0
 27 28  1  0  0  0
 28 29  1  0  0  0
 28 31  1  0  0  0
 31 32  1  0  0  0
 29 30  1  0  0  0
  7  8  1  0  0  0
 18 21  1  0  0  0
 23 25  1  0  0  0
M  END
> <minimizedAffinity>
-7.82227

$$$$
3MIY_B49_A_1


 32 34  0  0  0  0  0  0  0  0999 V2000
    1.2492  -11.5697   -1.9842 C   0  0  0  0  0  0  0  0  0  0  0  0
    3.6881  -11.0408    0.7812 C   0  0  0  0  0  0  0  0  0  0  0  0
    4.1794  -10.6960    2.1685 C   0  0  0  0  0  0  0  0  0  0  0  0
    2.4030  -11.4137   -1.0293 C   0  0  0  0  0  0  0  0  0  0  0  0
    4.4924  -11.4159   -0.2817 C   0  0  0  0  0  0  0  0  0  0  0  0
    2.3516  -11.0329    0.3093 C   0  0  0  0  0  0  0  0  0  0  0  0
    3.6822  -11.6415   -1.3706 N   0  0  0  0  0  0  0  0  0  0  0  0
    3.9916  -11.9255   -2.2610 H   0  0  0  0  0  0  0  0  0  0  0  0
   10.9869  -12.0201   -1.4234 C   0  0  0  0  0  0  0  0  0  0  0  0
   10.1850  -11.8471   -2.5396 C   0  0  0  0  0  0  0  0  0  0  0  0
    9.0601  -11.8978    0.0125 C   0  0  0  0  0  0  0  0  0  0  0  0
   10.4273  -12.0459   -0.1511 C   0  0  0  0  0  0  0  0  0  0  0  0
    8.2481  -11.7161   -1.1084 C   0  0  0  0  0  0  0  0  0  0  0  0
    6.7897  -11.5466   -1.2752 C   0  0  0  0  0  0  0  0  0  0  0  0
    6.5886  -11.4046   -2.7332 C   0  0  0  0  0  0  0  0  0  0  0  0
    5.8980  -11.5473   -0.2160 C   0  0  0  0  0  0  0  0  0  0  0  0
    8.8063  -11.7016   -2.3953 C   0  0  0  0  0  0  0  0  0  0  0  0
    7.7921  -11.5113   -3.3237 N   0  0  0  0  0  0  0  0  0  0  0  0
    5.5396  -11.2187   -3.3284 O   0  0  0  0  0  0  0  0  0  0  0  0
   11.2195  -12.2169    0.9301 F   0  0  0  0  0  0  0  0  0  0  0  0
    7.9363  -11.4607   -4.2963 H   0  0  0  0  0  0  0  0  0  0  0  0
    1.1426  -10.6827    1.0996 C   0  0  0  0  0  0  0  0  0  0  0  0
    0.8638  -11.3390    2.2497 N   0  0  0  0  0  0  0  0  0  0  0  0
    0.3934   -9.8077    0.7040 O   0  0  0  0  0  0  0  0  0  0  0  0
    1.4735  -12.0493    2.5547 H   0  0  0  0  0  0  0  0  0  0  0  0
   -0.3228  -11.0219    3.0563 C   0  0  0  0  0  0  0  0  0  0  0  0
   -0.0447  -11.3448    4.5277 C   0  0  0  0  0  0  0  0  0  0  0  0
    0.2852  -10.1059    5.2548 N   0  0  0  0  0  0  0  0  0  0  0  0
    1.7267   -9.8246    5.4235 C   0  0  0  0  0  0  0  0  0  0  0  0
    2.1974   -8.5606    4.6920 C   0  0  0  0  0  0  0  0  0  0  0  0
   -0.4597   -8.9499    4.7342 C   0  0  0  0  0  0  0  0  0  0  0  0
   -1.7672   -8.7924    5.5165 C   0  0  0  0  0  0  0  0  0  0  0  0
  1  4  1  0  0  0
  9 10  2  0  0  0
  9 12  1  0  0  0
 10 17  1  0  0  0
 11 12  2  0  0  0
 11 13  1  0  0  0
  2  3  1  0  0  0
  2  5  2  0  0  0
  2  6  1  0  0  0
 12 20  1  0  0  0
 13 14  1  0  0  0
 13 17  2  0  0  0
 14 15  1  0  0  0
 14 16  2  0  0  0
 15 18  1  0  0  0
 15 19  2  0  0  0
 22  6  1  0  0  0
 22 23  1  0  0  0
 22 24  2  0  0  0
 16  5  1  0  0  0
  4  6  2  0  0  0
  4  7  1  0  0  0
 17 18  1  0  0  0
  5  7  1  0  0  0
 23 26  1  0  0  0
 26 27  1  0  0  0
 27 28  1  0  0  0
 28 29  1  0  0  0
 28 31  1  0  0  0
 31 32  1  0  0  0
 29 30  1  0  0  0
  7  8  1  0  0  0
 18 21  1  0  0  0
 23 25  1  0  0  0
M  END
> <minimizedAffinity>
-7.69008

$$$$
3MIY_B49_A_1


 32 34  0  0  0  0  0  0  0  0999 V2000
    5.1208  -11.0804   -3.8390 C   0  0  0  0  0  0  0  0  0  0  0  0
    5.6452  -11.5930   -0.1869 C   0  0  0  0  0  0  0  0  0  0  0  0
    5.2802  -11.8246    1.2616 C   0  0  0  0  0  0  0  0  0  0  0  0
    5.5673  -11.2618   -2.4123 C   0  0  0  0  0  0  0  0  0  0  0  0
    6.9331  -11.4412   -0.6725 C   0  0  0  0  0  0  0  0  0  0  0  0
    4.7667  -11.4749   -1.2929 C   0  0  0  0  0  0  0  0  0  0  0  0
    6.8556  -11.2456   -2.0322 N   0  0  0  0  0  0  0  0  0  0  0  0
    7.6245  -11.1141   -2.6329 H   0  0  0  0  0  0  0  0  0  0  0  0
   13.0166  -12.2091    1.8271 C   0  0  0  0  0  0  0  0  0  0  0  0
   12.8774  -12.4629    0.4725 C   0  0  0  0  0  0  0  0  0  0  0  0
   10.6820  -11.6501    1.9892 C   0  0  0  0  0  0  0  0  0  0  0  0
   11.9231  -11.8044    2.5840 C   0  0  0  0  0  0  0  0  0  0  0  0
   10.5375  -11.8976    0.6230 C   0  0  0  0  0  0  0  0  0  0  0  0
    9.3775  -11.8418   -0.2907 C   0  0  0  0  0  0  0  0  0  0  0  0
    9.9171  -12.2260   -1.6127 C   0  0  0  0  0  0  0  0  0  0  0  0
    8.1010  -11.4984    0.1211 C   0  0  0  0  0  0  0  0  0  0  0  0
   11.6351  -12.3181   -0.1428 C   0  0  0  0  0  0  0  0  0  0  0  0
   11.2252  -12.4963   -1.4570 N   0  0  0  0  0  0  0  0  0  0  0  0
    9.3180  -12.2926   -2.6738 O   0  0  0  0  0  0  0  0  0  0  0  0
   12.0707  -11.5614    3.9050 F   0  0  0  0  0  0  0  0  0  0  0  0
   11.8199  -12.7853   -2.1864 H   0  0  0  0  0  0  0  0  0  0  0  0
    3.2836  -11.5620   -1.2504 C   0  0  0  0  0  0  0  0  0  0  0  0
    2.5624  -10.6258   -0.5912 N   0  0  0  0  0  0  0  0  0  0  0  0
    2.7156  -12.4870   -1.8029 O   0  0  0  0  0  0  0  0  0  0  0  0
    3.0340   -9.8873   -0.1425 H   0  0  0  0  0  0  0  0  0  0  0  0
    1.0954  -10.6800   -0.5260 C   0  0  0  0  0  0  0  0  0  0  0  0
    0.6372  -10.4597    0.9190 C   0  0  0  0  0  0  0  0  0  0  0  0
    1.3390   -9.2969    1.4913 N   0  0  0  0  0  0  0  0  0  0  0  0
    0.8696   -7.9729    1.0307 C   0  0  0  0  0  0  0  0  0  0  0  0
    1.9445   -7.1588    0.2983 C   0  0  0  0  0  0  0  0  0  0  0  0
    1.4395   -9.3836    2.9558 C   0  0  0  0  0  0  0  0  0  0  0  0
    2.6714  -10.2121    3.3335 C   0  0  0  0  0  0  0  0  0  0  0  0
  1  4  1  0  0  0
  9 10  2  0  0  0
  9 12  1  0  0  0
 10 17  1  0  0  0
 11 12  2  0  0  0
 11 13  1  0  0  0
  2  3  1  0  0  0
  2  5  2  0  0  0
  2  6  1  0  0  0
 12 20  1  0  0  0
 13 14  1  0  0  0
 13 17  2  0  0  0
 14 15  1  0  0  0
 14 16  2  0  0  0
 15 18  1  0  0  0
 15 19  2  0  0  0
 22  6  1  0  0  0
 22 23  1  0  0  0
 22 24  2  0  0  0
 16  5  1  0  0  0
  4  6  2  0  0  0
  4  7  1  0  0  0
 17 18  1  0  0  0
  5  7  1  0  0  0
 23 26  1  0  0  0
 26 27  1  0  0  0
 27 28  1  0  0  0
 28 29  1  0  0  0
 28 31  1  0  0  0
 31 32  1  0  0  0
 29 30  1  0  0  0
  7  8  1  0  0  0
 18 21  1  0  0  0
 23 25  1  0  0  0
M  END
> <minimizedAffinity>
-7.55081

$$$$
3MIY_B49_A_1


 32 34  0  0  0  0  0  0  0  0999 V2000
    4.5424  -11.3776    3.2413 C   0  0  0  0  0  0  0  0  0  0  0  0
    5.8625  -11.4591   -0.2410 C   0  0  0  0  0  0  0  0  0  0  0  0
    5.8422  -11.3600   -1.7492 C   0  0  0  0  0  0  0  0  0  0  0  0
    5.2859  -11.4715    1.9351 C   0  0  0  0  0  0  0  0  0  0  0  0
    6.9720  -11.7755    0.5247 C   0  0  0  0  0  0  0  0  0  0  0  0
    4.7800  -11.2678    0.6538 C   0  0  0  0  0  0  0  0  0  0  0  0
    6.5925  -11.7712    1.8472 N   0  0  0  0  0  0  0  0  0  0  0  0
    7.1859  -11.9586    2.6101 H   0  0  0  0  0  0  0  0  0  0  0  0
   13.3410  -11.7405   -1.2869 C   0  0  0  0  0  0  0  0  0  0  0  0
   12.9379  -10.7089   -0.4549 C   0  0  0  0  0  0  0  0  0  0  0  0
   11.1213  -12.6686   -1.2553 C   0  0  0  0  0  0  0  0  0  0  0  0
   12.4363  -12.7174   -1.6868 C   0  0  0  0  0  0  0  0  0  0  0  0
   10.7114  -11.6352   -0.4110 C   0  0  0  0  0  0  0  0  0  0  0  0
    9.4104  -11.2947    0.2012 C   0  0  0  0  0  0  0  0  0  0  0  0
    9.6696  -10.0683    0.9856 C   0  0  0  0  0  0  0  0  0  0  0  0
    8.2587  -12.0369    0.0020 C   0  0  0  0  0  0  0  0  0  0  0  0
   11.6173  -10.6401   -0.0146 C   0  0  0  0  0  0  0  0  0  0  0  0
   10.9616   -9.7381    0.8121 N   0  0  0  0  0  0  0  0  0  0  0  0
    8.8828   -9.4445    1.6792 O   0  0  0  0  0  0  0  0  0  0  0  0
   12.8407  -13.7179   -2.4999 F   0  0  0  0  0  0  0  0  0  0  0  0
   11.3903   -8.9520    1.2215 H   0  0  0  0  0  0  0  0  0  0  0  0
    3.3836  -10.9201    0.2823 C   0  0  0  0  0  0  0  0  0  0  0  0
    2.8857   -9.6943    0.5660 N   0  0  0  0  0  0  0  0  0  0  0  0
    2.6807  -11.7468   -0.2708 O   0  0  0  0  0  0  0  0  0  0  0  0
    3.4618   -9.0376    1.0200 H   0  0  0  0  0  0  0  0  0  0  0  0
    1.5098   -9.3152    0.2160 C   0  0  0  0  0  0  0  0  0  0  0  0
    0.8204   -8.6991    1.4373 C   0  0  0  0  0  0  0  0  0  0  0  0
    1.0602   -9.5427    2.6218 N   0  0  0  0  0  0  0  0  0  0  0  0
    1.0373   -8.8431    3.9239 C   0  0  0  0  0  0  0  0  0  0  0  0
    2.4330   -8.5368    4.4832 C   0  0  0  0  0  0  0  0  0  0  0  0
    0.2212  -10.7504    2.6135 C   0  0  0  0  0  0  0  0  0  0  0  0
    0.7239  -11.7268    3.6815 C   0  0  0  0  0  0  0  0  0  0  0  0
  1  4  1  0  0  0
  9 10  2  0  0  0
  9 12  1  0  0  0
 10 17  1  0  0  0
 11 12  2  0  0  0
 11 13  1  0  0  0
  2  3  1  0  0  0
  2  5  2  0  0  0
  2  6  1  0  0  0
 12 20  1  0  0  0
 13 14  1  0  0  0
 13 17  2  0  0  0
 14 15  1  0  0  0
 14 16  2  0  0  0
 15 18  1  0  0  0
 15 19  2  0  0  0
 22  6  1  0  0  0
 22 23  1  0  0  0
 22 24  2  0  0  0
 16  5  1  0  0  0
  4  6  2  0  0  0
  4  7  1  0  0  0
 17 18  1  0  0  0
  5  7  1  0  0  0
 23 26  1  0  0  0
 26 27  1  0  0  0
 27 28  1  0  0  0
 28 29  1  0  0  0
 28 31  1  0  0  0
 31 32  1  0  0  0
 29 30  1  0  0  0
  7  8  1  0  0  0
 18 21  1  0  0  0
 23 25  1  0  0  0
M  END
> <minimizedAffinity>
-7.29473

$$$$
3MIY_B49_A_1


 32 34  0  0  0  0  0  0  0  0999 V2000
    8.2082  -10.6953    2.3163 C   0  0  0  0  0  0  0  0  0  0  0  0
    8.4490  -11.8328   -1.2226 C   0  0  0  0  0  0  0  0  0  0  0  0
    8.0093  -12.0784   -2.6477 C   0  0  0  0  0  0  0  0  0  0  0  0
    8.5258  -11.2323    0.9458 C   0  0  0  0  0  0  0  0  0  0  0  0
    9.6802  -12.1825   -0.6940 C   0  0  0  0  0  0  0  0  0  0  0  0
    7.7043  -11.2289   -0.1787 C   0  0  0  0  0  0  0  0  0  0  0  0
    9.7008  -11.8004    0.6276 N   0  0  0  0  0  0  0  0  0  0  0  0
   10.4585  -11.9241    1.2439 H   0  0  0  0  0  0  0  0  0  0  0  0
   15.0975  -13.7814   -4.1500 C   0  0  0  0  0  0  0  0  0  0  0  0
   15.0164  -12.4683   -3.7160 C   0  0  0  0  0  0  0  0  0  0  0  0
   12.9894  -14.2846   -3.1050 C   0  0  0  0  0  0  0  0  0  0  0  0
   14.0876  -14.6873   -3.8464 C   0  0  0  0  0  0  0  0  0  0  0  0
   12.9059  -12.9644   -2.6591 C   0  0  0  0  0  0  0  0  0  0  0  0
   11.8876  -12.2300   -1.8800 C   0  0  0  0  0  0  0  0  0  0  0  0
   12.4208  -10.8562   -1.7586 C   0  0  0  0  0  0  0  0  0  0  0  0
   10.7164  -12.8094   -1.4224 C   0  0  0  0  0  0  0  0  0  0  0  0
   13.9163  -12.0433   -2.9732 C   0  0  0  0  0  0  0  0  0  0  0  0
   13.5917  -10.8128   -2.4188 N   0  0  0  0  0  0  0  0  0  0  0  0
   11.9218   -9.9099   -1.1714 O   0  0  0  0  0  0  0  0  0  0  0  0
   14.1770  -15.9651   -4.2766 F   0  0  0  0  0  0  0  0  0  0  0  0
   14.1507  -10.0063   -2.4991 H   0  0  0  0  0  0  0  0  0  0  0  0
    6.3183  -10.7017   -0.2791 C   0  0  0  0  0  0  0  0  0  0  0  0
    5.2697  -11.4533    0.1291 N   0  0  0  0  0  0  0  0  0  0  0  0
    6.1251   -9.5916   -0.7413 O   0  0  0  0  0  0  0  0  0  0  0  0
    5.4388  -12.3520    0.4939 H   0  0  0  0  0  0  0  0  0  0  0  0
    3.8858  -10.9666    0.0434 C   0  0  0  0  0  0  0  0  0  0  0  0
    3.0899  -11.8498   -0.9226 C   0  0  0  0  0  0  0  0  0  0  0  0
    3.0400  -11.2139   -2.2513 N   0  0  0  0  0  0  0  0  0  0  0  0
    4.2388  -11.3979   -3.0967 C   0  0  0  0  0  0  0  0  0  0  0  0
    4.0297  -10.9855   -4.5598 C   0  0  0  0  0  0  0  0  0  0  0  0
    1.7922  -11.5282   -2.9629 C   0  0  0  0  0  0  0  0  0  0  0  0
    0.7054  -11.8949   -1.9475 C   0  0  0  0  0  0  0  0  0  0  0  0
  1  4  1  0  0  0
  9 10  2  0  0  0
  9 12  1  0  0  0
 10 17  1  0  0  0
 11 12  2  0  0  0
 11 13  1  0  0  0
  2  3  1  0  0  0
  2  5  2  0  0  0
  2  6  1  0  0  0
 12 20  1  0  0  0
 13 14  1  0  0  0
 13 17  2  0  0  0
 14 15  1  0  0  0
 14 16  2  0  0  0
 15 18  1  0  0  0
 15 19  2  0  0  0
 22  6  1  0  0  0
 22 23  1  0  0  0
 22 24  2  0  0  0
 16  5  1  0  0  0
  4  6  2  0  0  0
  4  7  1  0  0  0
 17 18  1  0  0  0
  5  7  1  0  0  0
 23 26  1  0  0  0
 26 27  1  0  0  0
 27 28  1  0  0  0
 28 29  1  0  0  0
 28 31  1  0  0  0
 31 32  1  0  0  0
 29 30  1  0  0  0
  7  8  1  0  0  0
 18 21  1  0  0  0
 23 25  1  0  0  0
M  END
> <minimizedAffinity>
-7.15121

$$$$
