1E6S_GOX_M_921


 19 19  0  0  0  0  0  0  0  0999 V2000
   49.3661  118.5980   49.5438 C   0  0  0  0  0  0  0  0  0  0  0  0
   49.3004  117.6366   48.6145 N   0  0  0  0  0  0  0  0  0  0  0  0
   50.6507  119.4386   49.6213 C   0  0  0  0  0  0  0  0  0  0  0  0
   48.2625  118.7254   50.3240 N   0  0  0  0  0  0  0  0  0  0  0  0
   48.2015  116.9593   48.3721 O   0  0  0  0  0  0  0  0  0  0  0  0
   51.8753  118.7226   49.4274 O   0  0  0  0  0  0  0  0  0  0  0  0
   50.6284  120.2906   50.8697 C   0  0  0  0  0  0  0  0  0  0  0  0
   51.6121  121.3007   50.6567 O   0  0  0  0  0  0  0  0  0  0  0  0
   49.1901  120.8487   51.0121 C   0  0  0  0  0  0  0  0  0  0  0  0
   49.1437  121.8030   52.0739 O   0  0  0  0  0  0  0  0  0  0  0  0
   48.2787  119.6475   51.4537 C   0  0  0  0  0  0  0  0  0  0  0  0
   47.4548  118.1976   50.1281 H   0  0  0  0  0  0  0  0  0  0  0  0
   48.1972  116.2937   47.7126 H   0  0  0  0  0  0  0  0  0  0  0  0
   51.9990  118.0912   50.1533 H   0  0  0  0  0  0  0  0  0  0  0  0
   51.4132  121.7777   49.8358 H   0  0  0  0  0  0  0  0  0  0  0  0
   49.4281  121.3816   52.9000 H   0  0  0  0  0  0  0  0  0  0  0  0
   46.8133  119.9237   51.7177 C   0  0  0  0  0  0  0  0  0  0  0  0
   46.6352  120.7899   52.8525 O   0  0  0  0  0  0  0  0  0  0  0  0
   47.0014  120.3653   53.6440 H   0  0  0  0  0  0  0  0  0  0  0  0
  1  2  2  0  0  0
  1  3  1  0  0  0
  1  4  1  0  0  0
  2  5  1  0  0  0
  3  6  1  0  0  0
  3  7  1  0  0  0
  4 11  1  0  0  0
  7  8  1  0  0  0
  7  9  1  0  0  0
  9 10  1  0  0  0
  9 11  1  0  0  0
 11 17  1  0  0  0
 17 18  1  0  0  0
  4 12  1  0  0  0
  5 13  1  0  0  0
  6 14  1  0  0  0
  8 15  1  0  0  0
 10 16  1  0  0  0
 18 19  1  0  0  0
M  END
> <minimizedAffinity>
-7.12260

$$$$
1E6S_GOX_M_921


 19 19  0  0  0  0  0  0  0  0999 V2000
   48.1999  121.4700   53.2698 C   0  0  0  0  0  0  0  0  0  0  0  0
   48.0341  122.5492   54.0445 N   0  0  0  0  0  0  0  0  0  0  0  0
   47.9061  120.0913   53.8826 C   0  0  0  0  0  0  0  0  0  0  0  0
   48.6123  121.7254   52.0018 N   0  0  0  0  0  0  0  0  0  0  0  0
   48.1211  123.7748   53.5802 O   0  0  0  0  0  0  0  0  0  0  0  0
   48.3253  119.9117   55.2398 O   0  0  0  0  0  0  0  0  0  0  0  0
   48.3798  119.0046   52.9447 C   0  0  0  0  0  0  0  0  0  0  0  0
   47.7194  117.8169   53.3765 O   0  0  0  0  0  0  0  0  0  0  0  0
   47.9899  119.4420   51.5104 C   0  0  0  0  0  0  0  0  0  0  0  0
   48.2517  118.3798   50.5920 O   0  0  0  0  0  0  0  0  0  0  0  0
   48.9543  120.6181   51.1164 C   0  0  0  0  0  0  0  0  0  0  0  0
   48.6801  122.6538   51.6814 H   0  0  0  0  0  0  0  0  0  0  0  0
   47.9983  124.5037   54.1560 H   0  0  0  0  0  0  0  0  0  0  0  0
   49.2931  119.9557   55.2878 H   0  0  0  0  0  0  0  0  0  0  0  0
   46.7604  117.9626   53.3781 H   0  0  0  0  0  0  0  0  0  0  0  0
   49.1914  118.1426   50.6314 H   0  0  0  0  0  0  0  0  0  0  0  0
   48.8267  121.2106   49.7286 C   0  0  0  0  0  0  0  0  0  0  0  0
   48.9658  122.6423   49.7507 O   0  0  0  0  0  0  0  0  0  0  0  0
   48.2648  123.0268   50.2999 H   0  0  0  0  0  0  0  0  0  0  0  0
  1  2  2  0  0  0
  1  3  1  0  0  0
  1  4  1  0  0  0
  2  5  1  0  0  0
  3  6  1  0  0  0
  3  7  1  0  0  0
  4 11  1  0  0  0
  7  8  1  0  0  0
  7  9  1  0  0  0
  9 10  1  0  0  0
  9 11  1  0  0  0
 11 17  1  0  0  0
 17 18  1  0  0  0
  4 12  1  0  0  0
  5 13  1  0  0  0
  6 14  1  0  0  0
  8 15  1  0  0  0
 10 16  1  0  0  0
 18 19  1  0  0  0
M  END
> <minimizedAffinity>
-7.08606

$$$$
1E6S_GOX_M_921


 19 19  0  0  0  0  0  0  0  0999 V2000
   47.8794  119.1874   53.5536 C   0  0  0  0  0  0  0  0  0  0  0  0
   47.5588  118.2325   54.4354 N   0  0  0  0  0  0  0  0  0  0  0  0
   49.1754  119.9796   53.7889 C   0  0  0  0  0  0  0  0  0  0  0  0
   47.0049  119.3447   52.5270 N   0  0  0  0  0  0  0  0  0  0  0  0
   46.5534  117.4074   54.2521 O   0  0  0  0  0  0  0  0  0  0  0  0
   49.4598  120.3166   55.1510 O   0  0  0  0  0  0  0  0  0  0  0  0
   49.2344  121.1550   52.8402 C   0  0  0  0  0  0  0  0  0  0  0  0
   50.5984  121.5706   52.8361 O   0  0  0  0  0  0  0  0  0  0  0  0
   48.7379  120.6505   51.4619 C   0  0  0  0  0  0  0  0  0  0  0  0
   48.9332  121.6650   50.4757 O   0  0  0  0  0  0  0  0  0  0  0  0
   47.1852  120.4444   51.5863 C   0  0  0  0  0  0  0  0  0  0  0  0
   46.2525  118.7192   52.4181 H   0  0  0  0  0  0  0  0  0  0  0  0
   46.3619  116.7523   54.8940 H   0  0  0  0  0  0  0  0  0  0  0  0
   48.7829  120.9280   55.4809 H   0  0  0  0  0  0  0  0  0  0  0  0
   51.1639  120.8217   52.5907 H   0  0  0  0  0  0  0  0  0  0  0  0
   48.4537  122.4667   50.7371 H   0  0  0  0  0  0  0  0  0  0  0  0
   46.4243  119.9976   50.3556 C   0  0  0  0  0  0  0  0  0  0  0  0
   47.3067  119.4563   49.3566 O   0  0  0  0  0  0  0  0  0  0  0  0
   47.9388  120.1381   49.0799 H   0  0  0  0  0  0  0  0  0  0  0  0
  1  2  2  0  0  0
  1  3  1  0  0  0
  1  4  1  0  0  0
  2  5  1  0  0  0
  3  6  1  0  0  0
  3  7  1  0  0  0
  4 11  1  0  0  0
  7  8  1  0  0  0
  7  9  1  0  0  0
  9 10  1  0  0  0
  9 11  1  0  0  0
 11 17  1  0  0  0
 17 18  1  0  0  0
  4 12  1  0  0  0
  5 13  1  0  0  0
  6 14  1  0  0  0
  8 15  1  0  0  0
 10 16  1  0  0  0
 18 19  1  0  0  0
M  END
> <minimizedAffinity>
-7.03716

$$$$
1E6S_GOX_M_921


 19 19  0  0  0  0  0  0  0  0999 V2000
   46.9064  120.6200   51.4631 C   0  0  0  0  0  0  0  0  0  0  0  0
   46.1094  120.3025   50.4354 N   0  0  0  0  0  0  0  0  0  0  0  0
   47.0648  122.1069   51.8195 C   0  0  0  0  0  0  0  0  0  0  0  0
   47.4911  119.5668   52.0893 N   0  0  0  0  0  0  0  0  0  0  0  0
   45.7959  119.0620   50.1387 O   0  0  0  0  0  0  0  0  0  0  0  0
   47.1489  123.0070   50.7093 O   0  0  0  0  0  0  0  0  0  0  0  0
   48.1756  122.2736   52.8310 C   0  0  0  0  0  0  0  0  0  0  0  0
   47.9826  123.5687   53.3957 O   0  0  0  0  0  0  0  0  0  0  0  0
   48.0296  121.1232   53.8585 C   0  0  0  0  0  0  0  0  0  0  0  0
   48.9407  121.3216   54.9405 O   0  0  0  0  0  0  0  0  0  0  0  0
   48.4822  119.8056   53.1321 C   0  0  0  0  0  0  0  0  0  0  0  0
   47.2471  118.6461   51.8404 H   0  0  0  0  0  0  0  0  0  0  0  0
   45.2345  118.8820   49.4105 H   0  0  0  0  0  0  0  0  0  0  0  0
   47.9605  122.8283   50.2090 H   0  0  0  0  0  0  0  0  0  0  0  0
   47.0867  123.6313   53.7623 H   0  0  0  0  0  0  0  0  0  0  0  0
   49.8473  121.3578   54.5973 H   0  0  0  0  0  0  0  0  0  0  0  0
   48.4877  118.5178   53.9290 C   0  0  0  0  0  0  0  0  0  0  0  0
   47.1582  117.9944   54.0961 O   0  0  0  0  0  0  0  0  0  0  0  0
   46.6161  118.6370   54.5799 H   0  0  0  0  0  0  0  0  0  0  0  0
  1  2  2  0  0  0
  1  3  1  0  0  0
  1  4  1  0  0  0
  2  5  1  0  0  0
  3  6  1  0  0  0
  3  7  1  0  0  0
  4 11  1  0  0  0
  7  8  1  0  0  0
  7  9  1  0  0  0
  9 10  1  0  0  0
  9 11  1  0  0  0
 11 17  1  0  0  0
 17 18  1  0  0  0
  4 12  1  0  0  0
  5 13  1  0  0  0
  6 14  1  0  0  0
  8 15  1  0  0  0
 10 16  1  0  0  0
 18 19  1  0  0  0
M  END
> <minimizedAffinity>
-7.01172

$$$$
1E6S_GOX_M_921


 19 19  0  0  0  0  0  0  0  0999 V2000
   49.4040  120.7673   50.2114 C   0  0  0  0  0  0  0  0  0  0  0  0
   50.5770  121.0389   49.6263 N   0  0  0  0  0  0  0  0  0  0  0  0
   48.4399  119.8154   49.4852 C   0  0  0  0  0  0  0  0  0  0  0  0
   49.2000  121.3738   51.4087 N   0  0  0  0  0  0  0  0  0  0  0  0
   51.5254  121.7233   50.2241 O   0  0  0  0  0  0  0  0  0  0  0  0
   48.3671  119.9692   48.0637 O   0  0  0  0  0  0  0  0  0  0  0  0
   47.0945  119.8284   50.1742 C   0  0  0  0  0  0  0  0  0  0  0  0
   46.4221  118.6581   49.7144 O   0  0  0  0  0  0  0  0  0  0  0  0
   47.3662  119.8262   51.6996 C   0  0  0  0  0  0  0  0  0  0  0  0
   46.1382  119.6613   52.4100 O   0  0  0  0  0  0  0  0  0  0  0  0
   47.9040  121.2560   52.0670 C   0  0  0  0  0  0  0  0  0  0  0  0
   49.9238  121.8909   51.8308 H   0  0  0  0  0  0  0  0  0  0  0  0
   52.3327  121.8920   49.7795 H   0  0  0  0  0  0  0  0  0  0  0  0
   47.9950  120.8395   47.8513 H   0  0  0  0  0  0  0  0  0  0  0  0
   46.9667  117.8776   49.9017 H   0  0  0  0  0  0  0  0  0  0  0  0
   45.5294  120.3788   52.1743 H   0  0  0  0  0  0  0  0  0  0  0  0
   48.2072  121.5519   53.5209 C   0  0  0  0  0  0  0  0  0  0  0  0
   47.0022  121.7366   54.2848 O   0  0  0  0  0  0  0  0  0  0  0  0
   46.5060  122.4902   53.9288 H   0  0  0  0  0  0  0  0  0  0  0  0
  1  2  2  0  0  0
  1  3  1  0  0  0
  1  4  1  0  0  0
  2  5  1  0  0  0
  3  6  1  0  0  0
  3  7  1  0  0  0
  4 11  1  0  0  0
  7  8  1  0  0  0
  7  9  1  0  0  0
  9 10  1  0  0  0
  9 11  1  0  0  0
 11 17  1  0  0  0
 17 18  1  0  0  0
  4 12  1  0  0  0
  5 13  1  0  0  0
  6 14  1  0  0  0
  8 15  1  0  0  0
 10 16  1  0  0  0
 18 19  1  0  0  0
M  END
> <minimizedAffinity>
-6.88609

$$$$
1E6S_GOX_M_921


 19 19  0  0  0  0  0  0  0  0999 V2000
   48.0296  119.6265   51.9827 C   0  0  0  0  0  0  0  0  0  0  0  0
   48.0774  118.5662   51.1668 N   0  0  0  0  0  0  0  0  0  0  0  0
   48.6424  119.4845   53.3852 C   0  0  0  0  0  0  0  0  0  0  0  0
   47.4368  120.7313   51.4621 N   0  0  0  0  0  0  0  0  0  0  0  0
   47.7118  118.6248   49.9066 O   0  0  0  0  0  0  0  0  0  0  0  0
   48.4196  118.2295   54.0372 O   0  0  0  0  0  0  0  0  0  0  0  0
   48.2770  120.6866   54.2257 C   0  0  0  0  0  0  0  0  0  0  0  0
   49.1917  120.6762   55.3196 O   0  0  0  0  0  0  0  0  0  0  0  0
   48.4146  121.9339   53.3169 C   0  0  0  0  0  0  0  0  0  0  0  0
   48.2537  123.1206   54.0954 O   0  0  0  0  0  0  0  0  0  0  0  0
   47.2097  121.8965   52.3093 C   0  0  0  0  0  0  0  0  0  0  0  0
   47.1614  120.7459   50.5170 H   0  0  0  0  0  0  0  0  0  0  0  0
   47.7605  117.8592   49.3685 H   0  0  0  0  0  0  0  0  0  0  0  0
   47.4722  118.1213   54.2152 H   0  0  0  0  0  0  0  0  0  0  0  0
   50.1007  120.6784   54.9811 H   0  0  0  0  0  0  0  0  0  0  0  0
   47.3852  123.1087   54.5272 H   0  0  0  0  0  0  0  0  0  0  0  0
   47.0675  123.0385   51.3249 C   0  0  0  0  0  0  0  0  0  0  0  0
   48.2314  123.1630   50.4886 O   0  0  0  0  0  0  0  0  0  0  0  0
   49.0080  123.3456   51.0405 H   0  0  0  0  0  0  0  0  0  0  0  0
  1  2  2  0  0  0
  1  3  1  0  0  0
  1  4  1  0  0  0
  2  5  1  0  0  0
  3  6  1  0  0  0
  3  7  1  0  0  0
  4 11  1  0  0  0
  7  8  1  0  0  0
  7  9  1  0  0  0
  9 10  1  0  0  0
  9 11  1  0  0  0
 11 17  1  0  0  0
 17 18  1  0  0  0
  4 12  1  0  0  0
  5 13  1  0  0  0
  6 14  1  0  0  0
  8 15  1  0  0  0
 10 16  1  0  0  0
 18 19  1  0  0  0
M  END
> <minimizedAffinity>
-6.76944

$$$$
1E6S_GOX_M_921


 19 19  0  0  0  0  0  0  0  0999 V2000
   48.2533  119.7051   50.7530 C   0  0  0  0  0  0  0  0  0  0  0  0
   47.3197  119.2833   49.8913 N   0  0  0  0  0  0  0  0  0  0  0  0
   49.5352  120.3288   50.1782 C   0  0  0  0  0  0  0  0  0  0  0  0
   47.9495  119.5342   52.0652 N   0  0  0  0  0  0  0  0  0  0  0  0
   46.1351  118.8675   50.2774 O   0  0  0  0  0  0  0  0  0  0  0  0
   50.0594  119.7011   49.0030 O   0  0  0  0  0  0  0  0  0  0  0  0
   50.5520  120.5132   51.2815 C   0  0  0  0  0  0  0  0  0  0  0  0
   51.5054  121.4404   50.7669 O   0  0  0  0  0  0  0  0  0  0  0  0
   49.7855  121.0388   52.5212 C   0  0  0  0  0  0  0  0  0  0  0  0
   50.7122  121.4011   53.5459 O   0  0  0  0  0  0  0  0  0  0  0  0
   48.9501  119.8327   53.0833 C   0  0  0  0  0  0  0  0  0  0  0  0
   47.0579  119.2102   52.3282 H   0  0  0  0  0  0  0  0  0  0  0  0
   45.5094  118.5802   49.6419 H   0  0  0  0  0  0  0  0  0  0  0  0
   50.3482  118.8006   49.2189 H   0  0  0  0  0  0  0  0  0  0  0  0
   51.0513  122.2526   50.4930 H   0  0  0  0  0  0  0  0  0  0  0  0
   51.2515  120.6300   53.7814 H   0  0  0  0  0  0  0  0  0  0  0  0
   48.1342  120.0544   54.3397 C   0  0  0  0  0  0  0  0  0  0  0  0
   48.9273  119.8643   55.5249 O   0  0  0  0  0  0  0  0  0  0  0  0
   49.2610  118.9537   55.5480 H   0  0  0  0  0  0  0  0  0  0  0  0
  1  2  2  0  0  0
  1  3  1  0  0  0
  1  4  1  0  0  0
  2  5  1  0  0  0
  3  6  1  0  0  0
  3  7  1  0  0  0
  4 11  1  0  0  0
  7  8  1  0  0  0
  7  9  1  0  0  0
  9 10  1  0  0  0
  9 11  1  0  0  0
 11 17  1  0  0  0
 17 18  1  0  0  0
  4 12  1  0  0  0
  5 13  1  0  0  0
  6 14  1  0  0  0
  8 15  1  0  0  0
 10 16  1  0  0  0
 18 19  1  0  0  0
M  END
> <minimizedAffinity>
-6.60845

$$$$
1E6S_GOX_M_921


 19 19  0  0  0  0  0  0  0  0999 V2000
   48.0732  119.3441   50.2980 C   0  0  0  0  0  0  0  0  0  0  0  0
   48.3197  118.5379   49.2580 N   0  0  0  0  0  0  0  0  0  0  0  0
   47.3834  120.6892   50.0192 C   0  0  0  0  0  0  0  0  0  0  0  0
   48.4650  118.8661   51.5067 N   0  0  0  0  0  0  0  0  0  0  0  0
   48.7737  117.3139   49.4024 O   0  0  0  0  0  0  0  0  0  0  0  0
   47.8059  121.3708   48.8331 O   0  0  0  0  0  0  0  0  0  0  0  0
   47.4143  121.5461   51.2640 C   0  0  0  0  0  0  0  0  0  0  0  0
   46.4300  122.5561   51.0533 O   0  0  0  0  0  0  0  0  0  0  0  0
   47.0989  120.6162   52.4625 C   0  0  0  0  0  0  0  0  0  0  0  0
   46.9394  121.3937   53.6500 O   0  0  0  0  0  0  0  0  0  0  0  0
   48.3684  119.7179   52.6865 C   0  0  0  0  0  0  0  0  0  0  0  0
   48.8127  117.9485   51.5865 H   0  0  0  0  0  0  0  0  0  0  0  0
   48.9334  116.7814   48.6481 H   0  0  0  0  0  0  0  0  0  0  0  0
   48.7357  121.6318   48.9240 H   0  0  0  0  0  0  0  0  0  0  0  0
   45.5738  122.1395   50.8680 H   0  0  0  0  0  0  0  0  0  0  0  0
   47.7500  121.8997   53.8165 H   0  0  0  0  0  0  0  0  0  0  0  0
   48.3541  118.7383   53.8412 C   0  0  0  0  0  0  0  0  0  0  0  0
   47.0573  118.1384   54.0089 O   0  0  0  0  0  0  0  0  0  0  0  0
   46.4040  118.8291   54.2014 H   0  0  0  0  0  0  0  0  0  0  0  0
  1  2  2  0  0  0
  1  3  1  0  0  0
  1  4  1  0  0  0
  2  5  1  0  0  0
  3  6  1  0  0  0
  3  7  1  0  0  0
  4 11  1  0  0  0
  7  8  1  0  0  0
  7  9  1  0  0  0
  9 10  1  0  0  0
  9 11  1  0  0  0
 11 17  1  0  0  0
 17 18  1  0  0  0
  4 12  1  0  0  0
  5 13  1  0  0  0
  6 14  1  0  0  0
  8 15  1  0  0  0
 10 16  1  0  0  0
 18 19  1  0  0  0
M  END
> <minimizedAffinity>
-6.55473

$$$$
1E6S_GOX_M_921


 19 19  0  0  0  0  0  0  0  0999 V2000
   48.6590  120.6400   52.5476 C   0  0  0  0  0  0  0  0  0  0  0  0
   48.8896  120.9790   53.8220 N   0  0  0  0  0  0  0  0  0  0  0  0
   47.3137  119.9770   52.2106 C   0  0  0  0  0  0  0  0  0  0  0  0
   49.6611  120.9333   51.6800 N   0  0  0  0  0  0  0  0  0  0  0  0
   49.9412  121.6741   54.1911 O   0  0  0  0  0  0  0  0  0  0  0  0
   46.8300  119.0294   53.1687 O   0  0  0  0  0  0  0  0  0  0  0  0
   47.3430  119.4558   50.7920 C   0  0  0  0  0  0  0  0  0  0  0  0
   45.9780  119.2434   50.4382 O   0  0  0  0  0  0  0  0  0  0  0  0
   48.0452  120.5330   49.9276 C   0  0  0  0  0  0  0  0  0  0  0  0
   47.9507  120.1826   48.5461 O   0  0  0  0  0  0  0  0  0  0  0  0
   49.5720  120.4854   50.2950 C   0  0  0  0  0  0  0  0  0  0  0  0
   50.4445  121.4460   51.9844 H   0  0  0  0  0  0  0  0  0  0  0  0
   50.0661  121.8910   55.0940 H   0  0  0  0  0  0  0  0  0  0  0  0
   47.4309  118.2687   53.2028 H   0  0  0  0  0  0  0  0  0  0  0  0
   45.4809  120.0677   50.5579 H   0  0  0  0  0  0  0  0  0  0  0  0
   48.3585  119.3140   48.4042 H   0  0  0  0  0  0  0  0  0  0  0  0
   50.5132  121.4112   49.5530 C   0  0  0  0  0  0  0  0  0  0  0  0
   51.6796  121.7178   50.3372 O   0  0  0  0  0  0  0  0  0  0  0  0
   51.4111  122.1654   51.1548 H   0  0  0  0  0  0  0  0  0  0  0  0
  1  2  2  0  0  0
  1  3  1  0  0  0
  1  4  1  0  0  0
  2  5  1  0  0  0
  3  6  1  0  0  0
  3  7  1  0  0  0
  4 11  1  0  0  0
  7  8  1  0  0  0
  7  9  1  0  0  0
  9 10  1  0  0  0
  9 11  1  0  0  0
 11 17  1  0  0  0
 17 18  1  0  0  0
  4 12  1  0  0  0
  5 13  1  0  0  0
  6 14  1  0  0  0
  8 15  1  0  0  0
 10 16  1  0  0  0
 18 19  1  0  0  0
M  END
> <minimizedAffinity>
-6.54110

$$$$
1E6S_GOX_M_921


 19 19  0  0  0  0  0  0  0  0999 V2000
   47.4196  122.6537   51.0494 C   0  0  0  0  0  0  0  0  0  0  0  0
   47.3941  123.8355   50.4210 N   0  0  0  0  0  0  0  0  0  0  0  0
   47.2935  122.6495   52.5814 C   0  0  0  0  0  0  0  0  0  0  0  0
   47.5512  121.5709   50.2412 N   0  0  0  0  0  0  0  0  0  0  0  0
   47.3528  123.9414   49.1125 O   0  0  0  0  0  0  0  0  0  0  0  0
   47.9916  123.6954   53.2659 O   0  0  0  0  0  0  0  0  0  0  0  0
   47.5860  121.2652   53.1136 C   0  0  0  0  0  0  0  0  0  0  0  0
   47.0590  121.2495   54.4385 O   0  0  0  0  0  0  0  0  0  0  0  0
   46.8942  120.2578   52.1612 C   0  0  0  0  0  0  0  0  0  0  0  0
   46.9831  118.9393   52.7033 O   0  0  0  0  0  0  0  0  0  0  0  0
   47.7266  120.2477   50.8287 C   0  0  0  0  0  0  0  0  0  0  0  0
   47.5284  121.6784   49.2628 H   0  0  0  0  0  0  0  0  0  0  0  0
   47.3361  124.7880   48.7113 H   0  0  0  0  0  0  0  0  0  0  0  0
   48.9467  123.5840   53.1383 H   0  0  0  0  0  0  0  0  0  0  0  0
   46.1184  121.4854   54.4151 H   0  0  0  0  0  0  0  0  0  0  0  0
   47.9156  118.7034   52.8285 H   0  0  0  0  0  0  0  0  0  0  0  0
   47.2973  119.3017   49.7268 C   0  0  0  0  0  0  0  0  0  0  0  0
   45.9222  118.9060   49.8764 O   0  0  0  0  0  0  0  0  0  0  0  0
   45.8089  118.4435   50.7215 H   0  0  0  0  0  0  0  0  0  0  0  0
  1  2  2  0  0  0
  1  3  1  0  0  0
  1  4  1  0  0  0
  2  5  1  0  0  0
  3  6  1  0  0  0
  3  7  1  0  0  0
  4 11  1  0  0  0
  7  8  1  0  0  0
  7  9  1  0  0  0
  9 10  1  0  0  0
  9 11  1  0  0  0
 11 17  1  0  0  0
 17 18  1  0  0  0
  4 12  1  0  0  0
  5 13  1  0  0  0
  6 14  1  0  0  0
  8 15  1  0  0  0
 10 16  1  0  0  0
 18 19  1  0  0  0
M  END
> <minimizedAffinity>
-6.53636

$$$$
