4FL2_ANP_A_702


 40 42  0  0  0  0  0  0  0  0999 V2000
  -28.2871   -9.8272   -5.0034 C   0  0  0  0  0  0  0  0  0  0  0  0
  -27.1605   -9.6381   -4.1260 O   0  0  0  0  0  0  0  0  0  0  0  0
  -27.6884  -10.0185   -6.4087 C   0  0  0  0  0  0  0  0  0  0  0  0
  -28.6494   -9.7426   -7.4243 O   0  0  0  0  0  0  0  0  0  0  0  0
  -26.5856   -8.9595   -6.3797 C   0  0  0  0  0  0  0  0  0  0  0  0
  -27.1098   -7.6324   -6.5881 O   0  0  0  0  0  0  0  0  0  0  0  0
  -26.0793   -9.0917   -4.9212 C   0  0  0  0  0  0  0  0  0  0  0  0
  -29.0061   -8.8495   -7.2979 H   0  0  0  0  0  0  0  0  0  0  0  0
  -27.7916   -7.4460   -5.9238 H   0  0  0  0  0  0  0  0  0  0  0  0
  -24.8660   -9.9236   -4.8186 N   0  0  0  0  0  0  0  0  0  0  0  0
  -24.7472  -11.2060   -4.3212 C   0  0  0  0  0  0  0  0  0  0  0  0
  -23.5036  -11.5816   -4.3702 N   0  0  0  0  0  0  0  0  0  0  0  0
  -22.7543  -10.5831   -4.9090 C   0  0  0  0  0  0  0  0  0  0  0  0
  -21.3938  -10.4023   -5.2574 C   0  0  0  0  0  0  0  0  0  0  0  0
  -20.4115  -11.3594   -5.0034 N   0  0  0  0  0  0  0  0  0  0  0  0
  -21.0465   -9.2558   -5.8468 N   0  0  0  0  0  0  0  0  0  0  0  0
  -21.8909   -8.2812   -6.0875 C   0  0  0  0  0  0  0  0  0  0  0  0
  -23.1585   -8.4086   -5.7845 N   0  0  0  0  0  0  0  0  0  0  0  0
  -23.6294   -9.5214   -5.2142 C   0  0  0  0  0  0  0  0  0  0  0  0
  -20.6530  -12.2094   -4.5693 H   0  0  0  0  0  0  0  0  0  0  0  0
  -19.4767  -11.1850   -5.2582 H   0  0  0  0  0  0  0  0  0  0  0  0
  -29.0725  -11.0432   -4.5761 C   0  0  0  0  0  0  0  0  0  0  0  0
  -30.4490  -10.6977   -4.5448 O   0  0  0  0  0  0  0  0  0  0  0  0
  -31.4722  -11.1891   -5.6681 P   0  0  0  0  0  0  0  0  0  0  0  0
  -32.8654  -11.2074   -4.9873 O   0  0  0  0  0  0  0  0  0  0  0  0
  -31.0288  -12.5963   -6.1128 O   0  0  0  0  0  0  0  0  0  0  0  0
  -31.6326  -12.9242   -6.7974 H   0  0  0  0  0  0  0  0  0  0  0  0
  -31.4320  -10.1650   -6.9215 O   0  0  0  0  0  0  0  0  0  0  0  0
  -31.8118   -8.6142   -7.1458 P   0  0  0  0  0  0  0  0  0  0  0  0
  -31.8184   -8.3810   -8.6844 O   0  0  0  0  0  0  0  0  0  0  0  0
  -30.7844   -7.7117   -6.4676 O   0  0  0  0  0  0  0  0  0  0  0  0
  -31.0253   -6.7831   -6.6106 H   0  0  0  0  0  0  0  0  0  0  0  0
  -33.3051   -8.2416   -6.4721 N   0  0  0  0  0  0  0  0  0  0  0  0
  -33.7861   -7.6172   -7.1196 H   0  0  0  0  0  0  0  0  0  0  0  0
  -33.3070   -7.4919   -4.9410 P   0  0  0  0  0  0  0  0  0  0  0  0
  -32.8503   -5.9929   -5.0951 O   0  0  0  0  0  0  0  0  0  0  0  0
  -34.7021   -7.5867   -4.2587 O   0  0  0  0  0  0  0  0  0  0  0  0
  -32.2413   -8.2478   -4.0792 O   0  0  0  0  0  0  0  0  0  0  0  0
  -34.6685   -7.1518   -3.3923 H   0  0  0  0  0  0  0  0  0  0  0  0
  -32.2048   -7.8554   -3.1928 H   0  0  0  0  0  0  0  0  0  0  0  0
 35 36  2  0  0  0
 35 37  1  0  0  0
 35 38  1  0  0  0
 35 33  1  0  0  0
 29 30  2  0  0  0
 29 31  1  0  0  0
 29 33  1  0  0  0
 29 28  1  0  0  0
 24 25  2  0  0  0
 24 26  1  0  0  0
 24 28  1  0  0  0
 24 23  1  0  0  0
 23 22  1  0  0  0
 22  1  1  0  0  0
  1  2  1  0  0  0
  1  3  1  0  0  0
  2  7  1  0  0  0
  3  4  1  0  0  0
  3  5  1  0  0  0
  5  6  1  0  0  0
  5  7  1  0  0  0
  7 10  1  0  0  0
 10 11  1  0  0  0
 10 19  1  0  0  0
 11 12  2  0  0  0
 12 13  1  0  0  0
 13 14  1  0  0  0
 13 19  2  0  0  0
 14 15  1  0  0  0
 14 16  2  0  0  0
 16 17  1  0  0  0
 17 18  2  0  0  0
 18 19  1  0  0  0
 37 39  1  0  0  0
 38 40  1  0  0  0
 31 32  1  0  0  0
 33 34  1  0  0  0
 26 27  1  0  0  0
  4  8  1  0  0  0
  6  9  1  0  0  0
 15 20  1  0  0  0
 15 21  1  0  0  0
M  END
> <minimizedAffinity>
-9.95109

$$$$
4FL2_ANP_A_702


 40 42  0  0  0  0  0  0  0  0999 V2000
  -26.5270  -12.3333   -6.4461 C   0  0  0  0  0  0  0  0  0  0  0  0
  -25.6753  -11.4836   -7.2383 O   0  0  0  0  0  0  0  0  0  0  0  0
  -25.9724  -12.2523   -5.0123 C   0  0  0  0  0  0  0  0  0  0  0  0
  -26.3872  -13.3700   -4.2314 O   0  0  0  0  0  0  0  0  0  0  0  0
  -24.4711  -12.2972   -5.2997 C   0  0  0  0  0  0  0  0  0  0  0  0
  -24.0197  -13.6355   -5.5904 O   0  0  0  0  0  0  0  0  0  0  0  0
  -24.3841  -11.4326   -6.5826 C   0  0  0  0  0  0  0  0  0  0  0  0
  -26.1268  -14.1909   -4.6778 H   0  0  0  0  0  0  0  0  0  0  0  0
  -24.5292  -13.9943   -6.3337 H   0  0  0  0  0  0  0  0  0  0  0  0
  -23.9820  -10.0423   -6.2996 N   0  0  0  0  0  0  0  0  0  0  0  0
  -24.7578   -8.9013   -6.3434 C   0  0  0  0  0  0  0  0  0  0  0  0
  -24.0273   -7.8634   -6.0621 N   0  0  0  0  0  0  0  0  0  0  0  0
  -22.7539   -8.2668   -5.8081 C   0  0  0  0  0  0  0  0  0  0  0  0
  -21.5453   -7.6433   -5.4136 C   0  0  0  0  0  0  0  0  0  0  0  0
  -21.4200   -6.2633   -5.2539 N   0  0  0  0  0  0  0  0  0  0  0  0
  -20.4824   -8.4214   -5.1965 N   0  0  0  0  0  0  0  0  0  0  0  0
  -20.4924   -9.7226   -5.3616 C   0  0  0  0  0  0  0  0  0  0  0  0
  -21.5899  -10.3395   -5.7221 N   0  0  0  0  0  0  0  0  0  0  0  0
  -22.7244   -9.6693   -5.9434 C   0  0  0  0  0  0  0  0  0  0  0  0
  -22.1954   -5.6772   -5.4106 H   0  0  0  0  0  0  0  0  0  0  0  0
  -20.5562   -5.8754   -4.9845 H   0  0  0  0  0  0  0  0  0  0  0  0
  -27.9504  -11.8353   -6.5082 C   0  0  0  0  0  0  0  0  0  0  0  0
  -27.9356  -10.4986   -6.9858 O   0  0  0  0  0  0  0  0  0  0  0  0
  -29.2767   -9.6554   -7.1873 P   0  0  0  0  0  0  0  0  0  0  0  0
  -29.4158   -9.4480   -8.7179 O   0  0  0  0  0  0  0  0  0  0  0  0
  -29.0998   -8.3206   -6.4380 O   0  0  0  0  0  0  0  0  0  0  0  0
  -29.9007   -7.7832   -6.5415 H   0  0  0  0  0  0  0  0  0  0  0  0
  -30.5303  -10.4796   -6.5787 O   0  0  0  0  0  0  0  0  0  0  0  0
  -31.3566  -10.4502   -5.1945 P   0  0  0  0  0  0  0  0  0  0  0  0
  -30.5553  -11.3225   -4.1853 O   0  0  0  0  0  0  0  0  0  0  0  0
  -32.7597  -11.0149   -5.4007 O   0  0  0  0  0  0  0  0  0  0  0  0
  -33.2445  -10.9910   -4.5609 H   0  0  0  0  0  0  0  0  0  0  0  0
  -31.5438   -8.8819   -4.6215 N   0  0  0  0  0  0  0  0  0  0  0  0
  -31.7696   -8.9434   -3.6287 H   0  0  0  0  0  0  0  0  0  0  0  0
  -32.7400   -7.9173   -5.3599 P   0  0  0  0  0  0  0  0  0  0  0  0
  -34.1506   -8.2973   -4.7724 O   0  0  0  0  0  0  0  0  0  0  0  0
  -32.4456   -6.4005   -5.1774 O   0  0  0  0  0  0  0  0  0  0  0  0
  -32.7230   -8.2827   -6.8818 O   0  0  0  0  0  0  0  0  0  0  0  0
  -33.1430   -5.8817   -5.6079 H   0  0  0  0  0  0  0  0  0  0  0  0
  -33.3910   -7.7564   -7.3482 H   0  0  0  0  0  0  0  0  0  0  0  0
 35 36  2  0  0  0
 35 37  1  0  0  0
 35 38  1  0  0  0
 35 33  1  0  0  0
 29 30  2  0  0  0
 29 31  1  0  0  0
 29 33  1  0  0  0
 29 28  1  0  0  0
 24 25  2  0  0  0
 24 26  1  0  0  0
 24 28  1  0  0  0
 24 23  1  0  0  0
 23 22  1  0  0  0
 22  1  1  0  0  0
  1  2  1  0  0  0
  1  3  1  0  0  0
  2  7  1  0  0  0
  3  4  1  0  0  0
  3  5  1  0  0  0
  5  6  1  0  0  0
  5  7  1  0  0  0
  7 10  1  0  0  0
 10 11  1  0  0  0
 10 19  1  0  0  0
 11 12  2  0  0  0
 12 13  1  0  0  0
 13 14  1  0  0  0
 13 19  2  0  0  0
 14 15  1  0  0  0
 14 16  2  0  0  0
 16 17  1  0  0  0
 17 18  2  0  0  0
 18 19  1  0  0  0
 37 39  1  0  0  0
 38 40  1  0  0  0
 31 32  1  0  0  0
 33 34  1  0  0  0
 26 27  1  0  0  0
  4  8  1  0  0  0
  6  9  1  0  0  0
 15 20  1  0  0  0
 15 21  1  0  0  0
M  END
> <minimizedAffinity>
-9.84202

$$$$
4FL2_ANP_A_702


 40 42  0  0  0  0  0  0  0  0999 V2000
  -27.5600  -10.6304   -5.1246 C   0  0  0  0  0  0  0  0  0  0  0  0
  -26.6898   -9.6911   -4.4648 O   0  0  0  0  0  0  0  0  0  0  0  0
  -27.3469  -10.4020   -6.6320 C   0  0  0  0  0  0  0  0  0  0  0  0
  -28.4472  -10.8944   -7.3923 O   0  0  0  0  0  0  0  0  0  0  0  0
  -27.2813   -8.8746   -6.6679 C   0  0  0  0  0  0  0  0  0  0  0  0
  -28.5914   -8.2785   -6.5804 O   0  0  0  0  0  0  0  0  0  0  0  0
  -26.4905   -8.5765   -5.3691 C   0  0  0  0  0  0  0  0  0  0  0  0
  -29.2682  -10.4876   -7.0738 H   0  0  0  0  0  0  0  0  0  0  0  0
  -29.0358   -8.5910   -5.7768 H   0  0  0  0  0  0  0  0  0  0  0  0
  -25.0567   -8.3430   -5.6229 N   0  0  0  0  0  0  0  0  0  0  0  0
  -24.4622   -7.2616   -6.2420 C   0  0  0  0  0  0  0  0  0  0  0  0
  -23.1767   -7.4449   -6.3053 N   0  0  0  0  0  0  0  0  0  0  0  0
  -22.8642   -8.6343   -5.7252 C   0  0  0  0  0  0  0  0  0  0  0  0
  -21.6764   -9.3534   -5.4474 C   0  0  0  0  0  0  0  0  0  0  0  0
  -20.4137   -8.9175   -5.8487 N   0  0  0  0  0  0  0  0  0  0  0  0
  -21.7841  -10.5037   -4.7783 N   0  0  0  0  0  0  0  0  0  0  0  0
  -22.9307  -11.0144   -4.3972 C   0  0  0  0  0  0  0  0  0  0  0  0
  -24.0524  -10.3804   -4.6309 N   0  0  0  0  0  0  0  0  0  0  0  0
  -24.0687   -9.2072   -5.2701 C   0  0  0  0  0  0  0  0  0  0  0  0
  -20.3191   -8.0712   -6.3427 H   0  0  0  0  0  0  0  0  0  0  0  0
  -19.6170   -9.4561   -5.6378 H   0  0  0  0  0  0  0  0  0  0  0  0
  -27.1890  -12.0392   -4.7297 C   0  0  0  0  0  0  0  0  0  0  0  0
  -28.1947  -12.5393   -3.8617 O   0  0  0  0  0  0  0  0  0  0  0  0
  -29.6883  -12.8065   -4.3597 P   0  0  0  0  0  0  0  0  0  0  0  0
  -30.1939  -14.0203   -3.5374 O   0  0  0  0  0  0  0  0  0  0  0  0
  -29.6236  -13.1177   -5.8675 O   0  0  0  0  0  0  0  0  0  0  0  0
  -30.5187  -13.2854   -6.2017 H   0  0  0  0  0  0  0  0  0  0  0  0
  -30.5902  -11.4879   -4.0964 O   0  0  0  0  0  0  0  0  0  0  0  0
  -31.5161  -10.5331   -5.0078 P   0  0  0  0  0  0  0  0  0  0  0  0
  -32.8936  -11.2460   -5.1334 O   0  0  0  0  0  0  0  0  0  0  0  0
  -30.8837  -10.3348   -6.3829 O   0  0  0  0  0  0  0  0  0  0  0  0
  -31.4508   -9.7592   -6.9196 H   0  0  0  0  0  0  0  0  0  0  0  0
  -31.6859   -9.0066   -4.3268 N   0  0  0  0  0  0  0  0  0  0  0  0
  -32.0808   -9.1293   -3.3944 H   0  0  0  0  0  0  0  0  0  0  0  0
  -32.6676   -7.8856   -5.1553 P   0  0  0  0  0  0  0  0  0  0  0  0
  -33.8716   -7.4660   -4.2313 O   0  0  0  0  0  0  0  0  0  0  0  0
  -31.8535   -6.6425   -5.6163 O   0  0  0  0  0  0  0  0  0  0  0  0
  -33.2399   -8.6387   -6.4024 O   0  0  0  0  0  0  0  0  0  0  0  0
  -32.4401   -6.0267   -6.0828 H   0  0  0  0  0  0  0  0  0  0  0  0
  -33.8089   -8.0386   -6.9095 H   0  0  0  0  0  0  0  0  0  0  0  0
 35 36  2  0  0  0
 35 37  1  0  0  0
 35 38  1  0  0  0
 35 33  1  0  0  0
 29 30  2  0  0  0
 29 31  1  0  0  0
 29 33  1  0  0  0
 29 28  1  0  0  0
 24 25  2  0  0  0
 24 26  1  0  0  0
 24 28  1  0  0  0
 24 23  1  0  0  0
 23 22  1  0  0  0
 22  1  1  0  0  0
  1  2  1  0  0  0
  1  3  1  0  0  0
  2  7  1  0  0  0
  3  4  1  0  0  0
  3  5  1  0  0  0
  5  6  1  0  0  0
  5  7  1  0  0  0
  7 10  1  0  0  0
 10 11  1  0  0  0
 10 19  1  0  0  0
 11 12  2  0  0  0
 12 13  1  0  0  0
 13 14  1  0  0  0
 13 19  2  0  0  0
 14 15  1  0  0  0
 14 16  2  0  0  0
 16 17  1  0  0  0
 17 18  2  0  0  0
 18 19  1  0  0  0
 37 39  1  0  0  0
 38 40  1  0  0  0
 31 32  1  0  0  0
 33 34  1  0  0  0
 26 27  1  0  0  0
  4  8  1  0  0  0
  6  9  1  0  0  0
 15 20  1  0  0  0
 15 21  1  0  0  0
M  END
> <minimizedAffinity>
-9.54684

$$$$
4FL2_ANP_A_702


 40 42  0  0  0  0  0  0  0  0999 V2000
  -26.9900  -12.1785   -6.3721 C   0  0  0  0  0  0  0  0  0  0  0  0
  -26.1189  -11.3768   -7.1926 O   0  0  0  0  0  0  0  0  0  0  0  0
  -26.2804  -12.2987   -5.0113 C   0  0  0  0  0  0  0  0  0  0  0  0
  -26.7593  -13.4199   -4.2734 O   0  0  0  0  0  0  0  0  0  0  0  0
  -24.8386  -12.5092   -5.4754 C   0  0  0  0  0  0  0  0  0  0  0  0
  -24.6086  -13.8625   -5.9169 O   0  0  0  0  0  0  0  0  0  0  0  0
  -24.7705  -11.5507   -6.6911 C   0  0  0  0  0  0  0  0  0  0  0  0
  -26.6629  -14.2237   -4.8077 H   0  0  0  0  0  0  0  0  0  0  0  0
  -25.2386  -14.0847   -6.6201 H   0  0  0  0  0  0  0  0  0  0  0  0
  -24.1536  -10.2545   -6.3534 N   0  0  0  0  0  0  0  0  0  0  0  0
  -24.7287   -8.9997   -6.3820 C   0  0  0  0  0  0  0  0  0  0  0  0
  -23.8461   -8.1054   -6.0484 N   0  0  0  0  0  0  0  0  0  0  0  0
  -22.6655   -8.7211   -5.7731 C   0  0  0  0  0  0  0  0  0  0  0  0
  -21.3838   -8.3176   -5.3267 C   0  0  0  0  0  0  0  0  0  0  0  0
  -21.0375   -6.9823   -5.1201 N   0  0  0  0  0  0  0  0  0  0  0  0
  -20.4713   -9.2668   -5.1057 N   0  0  0  0  0  0  0  0  0  0  0  0
  -20.6908  -10.5435   -5.3122 C   0  0  0  0  0  0  0  0  0  0  0  0
  -21.8630  -10.9598   -5.7215 N   0  0  0  0  0  0  0  0  0  0  0  0
  -22.8637  -10.1050   -5.9519 C   0  0  0  0  0  0  0  0  0  0  0  0
  -21.7001   -6.2717   -5.2790 H   0  0  0  0  0  0  0  0  0  0  0  0
  -20.1306   -6.7505   -4.8154 H   0  0  0  0  0  0  0  0  0  0  0  0
  -28.3301  -11.4989   -6.2291 C   0  0  0  0  0  0  0  0  0  0  0  0
  -29.2108  -12.3850   -5.5554 O   0  0  0  0  0  0  0  0  0  0  0  0
  -30.0963  -11.9173   -4.3114 P   0  0  0  0  0  0  0  0  0  0  0  0
  -29.2064  -12.1304   -3.0593 O   0  0  0  0  0  0  0  0  0  0  0  0
  -31.3558  -12.8045   -4.2817 O   0  0  0  0  0  0  0  0  0  0  0  0
  -31.9168  -12.5445   -3.5343 H   0  0  0  0  0  0  0  0  0  0  0  0
  -30.5084  -10.3624   -4.4952 O   0  0  0  0  0  0  0  0  0  0  0  0
  -31.7064   -9.5747   -5.2328 P   0  0  0  0  0  0  0  0  0  0  0  0
  -32.7205  -10.6572   -5.7032 O   0  0  0  0  0  0  0  0  0  0  0  0
  -31.1693   -8.7847   -6.4234 O   0  0  0  0  0  0  0  0  0  0  0  0
  -31.9000   -8.3165   -6.8569 H   0  0  0  0  0  0  0  0  0  0  0  0
  -32.4397   -8.4659   -4.2054 N   0  0  0  0  0  0  0  0  0  0  0  0
  -32.9481   -8.9947   -3.4966 H   0  0  0  0  0  0  0  0  0  0  0  0
  -33.5339   -7.3594   -4.9017 P   0  0  0  0  0  0  0  0  0  0  0  0
  -34.5505   -6.8716   -3.8027 O   0  0  0  0  0  0  0  0  0  0  0  0
  -32.7941   -6.1572   -5.5559 O   0  0  0  0  0  0  0  0  0  0  0  0
  -34.3277   -8.1527   -5.9929 O   0  0  0  0  0  0  0  0  0  0  0  0
  -33.4437   -5.5488   -5.9414 H   0  0  0  0  0  0  0  0  0  0  0  0
  -34.9674   -7.5621   -6.4207 H   0  0  0  0  0  0  0  0  0  0  0  0
 35 36  2  0  0  0
 35 37  1  0  0  0
 35 38  1  0  0  0
 35 33  1  0  0  0
 29 30  2  0  0  0
 29 31  1  0  0  0
 29 33  1  0  0  0
 29 28  1  0  0  0
 24 25  2  0  0  0
 24 26  1  0  0  0
 24 28  1  0  0  0
 24 23  1  0  0  0
 23 22  1  0  0  0
 22  1  1  0  0  0
  1  2  1  0  0  0
  1  3  1  0  0  0
  2  7  1  0  0  0
  3  4  1  0  0  0
  3  5  1  0  0  0
  5  6  1  0  0  0
  5  7  1  0  0  0
  7 10  1  0  0  0
 10 11  1  0  0  0
 10 19  1  0  0  0
 11 12  2  0  0  0
 12 13  1  0  0  0
 13 14  1  0  0  0
 13 19  2  0  0  0
 14 15  1  0  0  0
 14 16  2  0  0  0
 16 17  1  0  0  0
 17 18  2  0  0  0
 18 19  1  0  0  0
 37 39  1  0  0  0
 38 40  1  0  0  0
 31 32  1  0  0  0
 33 34  1  0  0  0
 26 27  1  0  0  0
  4  8  1  0  0  0
  6  9  1  0  0  0
 15 20  1  0  0  0
 15 21  1  0  0  0
M  END
> <minimizedAffinity>
-9.24469

$$$$
4FL2_ANP_A_702


 40 42  0  0  0  0  0  0  0  0999 V2000
  -28.2094  -11.5334   -4.4865 C   0  0  0  0  0  0  0  0  0  0  0  0
  -27.3095  -10.4478   -4.1924 O   0  0  0  0  0  0  0  0  0  0  0  0
  -27.5186  -12.3548   -5.5901 C   0  0  0  0  0  0  0  0  0  0  0  0
  -28.4565  -13.1532   -6.3071 O   0  0  0  0  0  0  0  0  0  0  0  0
  -26.9639  -11.2265   -6.4605 C   0  0  0  0  0  0  0  0  0  0  0  0
  -27.9852  -10.6364   -7.2900 O   0  0  0  0  0  0  0  0  0  0  0  0
  -26.5198  -10.2054   -5.3829 C   0  0  0  0  0  0  0  0  0  0  0  0
  -29.1603  -12.5866   -6.6600 H   0  0  0  0  0  0  0  0  0  0  0  0
  -28.7135  -10.3221   -6.7317 H   0  0  0  0  0  0  0  0  0  0  0  0
  -25.0761  -10.2836   -5.0927 N   0  0  0  0  0  0  0  0  0  0  0  0
  -24.3907  -11.2763   -4.4213 C   0  0  0  0  0  0  0  0  0  0  0  0
  -23.1319  -10.9620   -4.3403 N   0  0  0  0  0  0  0  0  0  0  0  0
  -22.9267   -9.7689   -4.9594 C   0  0  0  0  0  0  0  0  0  0  0  0
  -21.8109   -8.9441   -5.2416 C   0  0  0  0  0  0  0  0  0  0  0  0
  -20.5205   -9.2355   -4.7997 N   0  0  0  0  0  0  0  0  0  0  0  0
  -22.0179   -7.8355   -5.9562 N   0  0  0  0  0  0  0  0  0  0  0  0
  -23.2007   -7.4573   -6.3787 C   0  0  0  0  0  0  0  0  0  0  0  0
  -24.2584   -8.1925   -6.1425 N   0  0  0  0  0  0  0  0  0  0  0  0
  -24.1718   -9.3374   -5.4593 C   0  0  0  0  0  0  0  0  0  0  0  0
  -20.3530  -10.0494   -4.2718 H   0  0  0  0  0  0  0  0  0  0  0  0
  -19.7771   -8.6272   -5.0156 H   0  0  0  0  0  0  0  0  0  0  0  0
  -28.4326  -12.3657   -3.2473 C   0  0  0  0  0  0  0  0  0  0  0  0
  -29.0901  -13.5650   -3.6271 O   0  0  0  0  0  0  0  0  0  0  0  0
  -30.6729  -13.7392   -3.5058 P   0  0  0  0  0  0  0  0  0  0  0  0
  -30.9546  -13.9771   -1.9995 O   0  0  0  0  0  0  0  0  0  0  0  0
  -31.0710  -14.9540   -4.3661 O   0  0  0  0  0  0  0  0  0  0  0  0
  -32.0304  -15.0869   -4.3135 H   0  0  0  0  0  0  0  0  0  0  0  0
  -31.4072  -12.4019   -4.0480 O   0  0  0  0  0  0  0  0  0  0  0  0
  -31.9737  -11.9043   -5.4732 P   0  0  0  0  0  0  0  0  0  0  0  0
  -32.7856  -13.0934   -6.0632 O   0  0  0  0  0  0  0  0  0  0  0  0
  -30.8217  -11.5248   -6.4000 O   0  0  0  0  0  0  0  0  0  0  0  0
  -31.1768  -11.2278   -7.2524 H   0  0  0  0  0  0  0  0  0  0  0  0
  -32.9365  -10.5371   -5.3106 N   0  0  0  0  0  0  0  0  0  0  0  0
  -33.4808  -10.4420   -6.1680 H   0  0  0  0  0  0  0  0  0  0  0  0
  -32.1456   -9.0515   -5.0387 P   0  0  0  0  0  0  0  0  0  0  0  0
  -33.1488   -8.0442   -4.3617 O   0  0  0  0  0  0  0  0  0  0  0  0
  -30.8647   -9.2344   -4.1748 O   0  0  0  0  0  0  0  0  0  0  0  0
  -31.7601   -8.4931   -6.4493 O   0  0  0  0  0  0  0  0  0  0  0  0
  -30.4402   -8.3728   -4.0394 H   0  0  0  0  0  0  0  0  0  0  0  0
  -31.3044   -7.6430   -6.3470 H   0  0  0  0  0  0  0  0  0  0  0  0
 35 36  2  0  0  0
 35 37  1  0  0  0
 35 38  1  0  0  0
 35 33  1  0  0  0
 29 30  2  0  0  0
 29 31  1  0  0  0
 29 33  1  0  0  0
 29 28  1  0  0  0
 24 25  2  0  0  0
 24 26  1  0  0  0
 24 28  1  0  0  0
 24 23  1  0  0  0
 23 22  1  0  0  0
 22  1  1  0  0  0
  1  2  1  0  0  0
  1  3  1  0  0  0
  2  7  1  0  0  0
  3  4  1  0  0  0
  3  5  1  0  0  0
  5  6  1  0  0  0
  5  7  1  0  0  0
  7 10  1  0  0  0
 10 11  1  0  0  0
 10 19  1  0  0  0
 11 12  2  0  0  0
 12 13  1  0  0  0
 13 14  1  0  0  0
 13 19  2  0  0  0
 14 15  1  0  0  0
 14 16  2  0  0  0
 16 17  1  0  0  0
 17 18  2  0  0  0
 18 19  1  0  0  0
 37 39  1  0  0  0
 38 40  1  0  0  0
 31 32  1  0  0  0
 33 34  1  0  0  0
 26 27  1  0  0  0
  4  8  1  0  0  0
  6  9  1  0  0  0
 15 20  1  0  0  0
 15 21  1  0  0  0
M  END
> <minimizedAffinity>
-8.96983

$$$$
4FL2_ANP_A_702


 40 42  0  0  0  0  0  0  0  0999 V2000
  -27.2885  -12.2994   -6.1541 C   0  0  0  0  0  0  0  0  0  0  0  0
  -26.1366  -11.9822   -6.9587 O   0  0  0  0  0  0  0  0  0  0  0  0
  -26.7713  -12.3794   -4.7063 C   0  0  0  0  0  0  0  0  0  0  0  0
  -27.6550  -13.1330   -3.8803 O   0  0  0  0  0  0  0  0  0  0  0  0
  -25.4505  -13.1167   -4.9308 C   0  0  0  0  0  0  0  0  0  0  0  0
  -25.6516  -14.5311   -5.1270 O   0  0  0  0  0  0  0  0  0  0  0  0
  -24.9688  -12.4747   -6.2563 C   0  0  0  0  0  0  0  0  0  0  0  0
  -27.7904  -14.0115   -4.2687 H   0  0  0  0  0  0  0  0  0  0  0  0
  -26.2611  -14.6713   -5.8684 H   0  0  0  0  0  0  0  0  0  0  0  0
  -23.9833  -11.3999   -6.0368 N   0  0  0  0  0  0  0  0  0  0  0  0
  -24.1486  -10.0397   -6.2054 C   0  0  0  0  0  0  0  0  0  0  0  0
  -23.0326   -9.4266   -5.9432 N   0  0  0  0  0  0  0  0  0  0  0  0
  -22.0937  -10.3403   -5.5794 C   0  0  0  0  0  0  0  0  0  0  0  0
  -20.7462  -10.3018   -5.1459 C   0  0  0  0  0  0  0  0  0  0  0  0
  -20.0077   -9.1212   -5.0671 N   0  0  0  0  0  0  0  0  0  0  0  0
  -20.1648  -11.4554   -4.8088 N   0  0  0  0  0  0  0  0  0  0  0  0
  -20.7648  -12.6190   -4.8904 C   0  0  0  0  0  0  0  0  0  0  0  0
  -22.0115  -12.6991   -5.2831 N   0  0  0  0  0  0  0  0  0  0  0  0
  -22.7059  -11.6091   -5.6221 C   0  0  0  0  0  0  0  0  0  0  0  0
  -20.4234   -8.2632   -5.3125 H   0  0  0  0  0  0  0  0  0  0  0  0
  -19.0706   -9.1459   -4.7661 H   0  0  0  0  0  0  0  0  0  0  0  0
  -28.3311  -11.2181   -6.3007 C   0  0  0  0  0  0  0  0  0  0  0  0
  -29.4004  -11.5050   -5.4124 O   0  0  0  0  0  0  0  0  0  0  0  0
  -30.9251  -11.2421   -5.8079 P   0  0  0  0  0  0  0  0  0  0  0  0
  -31.6148  -10.7431   -4.5117 O   0  0  0  0  0  0  0  0  0  0  0  0
  -31.5129  -12.5804   -6.2957 O   0  0  0  0  0  0  0  0  0  0  0  0
  -32.4419  -12.4539   -6.5446 H   0  0  0  0  0  0  0  0  0  0  0  0
  -30.9946  -10.1348   -6.9871 O   0  0  0  0  0  0  0  0  0  0  0  0
  -31.6740   -8.6823   -7.1554 P   0  0  0  0  0  0  0  0  0  0  0  0
  -31.7244   -8.3946   -8.6839 O   0  0  0  0  0  0  0  0  0  0  0  0
  -30.8469   -7.6217   -6.4336 O   0  0  0  0  0  0  0  0  0  0  0  0
  -31.2669   -6.7542   -6.5432 H   0  0  0  0  0  0  0  0  0  0  0  0
  -33.2126   -8.6396   -6.4818 N   0  0  0  0  0  0  0  0  0  0  0  0
  -33.8380   -8.2244   -7.1724 H   0  0  0  0  0  0  0  0  0  0  0  0
  -33.4058   -7.7703   -5.0279 P   0  0  0  0  0  0  0  0  0  0  0  0
  -34.8780   -7.9575   -4.5016 O   0  0  0  0  0  0  0  0  0  0  0  0
  -32.3663   -8.2083   -3.9564 O   0  0  0  0  0  0  0  0  0  0  0  0
  -33.1964   -6.2611   -5.3860 O   0  0  0  0  0  0  0  0  0  0  0  0
  -32.5036   -7.6960   -3.1443 H   0  0  0  0  0  0  0  0  0  0  0  0
  -33.2971   -5.7219   -4.5859 H   0  0  0  0  0  0  0  0  0  0  0  0
 35 36  2  0  0  0
 35 37  1  0  0  0
 35 38  1  0  0  0
 35 33  1  0  0  0
 29 30  2  0  0  0
 29 31  1  0  0  0
 29 33  1  0  0  0
 29 28  1  0  0  0
 24 25  2  0  0  0
 24 26  1  0  0  0
 24 28  1  0  0  0
 24 23  1  0  0  0
 23 22  1  0  0  0
 22  1  1  0  0  0
  1  2  1  0  0  0
  1  3  1  0  0  0
  2  7  1  0  0  0
  3  4  1  0  0  0
  3  5  1  0  0  0
  5  6  1  0  0  0
  5  7  1  0  0  0
  7 10  1  0  0  0
 10 11  1  0  0  0
 10 19  1  0  0  0
 11 12  2  0  0  0
 12 13  1  0  0  0
 13 14  1  0  0  0
 13 19  2  0  0  0
 14 15  1  0  0  0
 14 16  2  0  0  0
 16 17  1  0  0  0
 17 18  2  0  0  0
 18 19  1  0  0  0
 37 39  1  0  0  0
 38 40  1  0  0  0
 31 32  1  0  0  0
 33 34  1  0  0  0
 26 27  1  0  0  0
  4  8  1  0  0  0
  6  9  1  0  0  0
 15 20  1  0  0  0
 15 21  1  0  0  0
M  END
> <minimizedAffinity>
-8.91654

$$$$
4FL2_ANP_A_702


 40 42  0  0  0  0  0  0  0  0999 V2000
  -25.5191  -12.1012   -6.7690 C   0  0  0  0  0  0  0  0  0  0  0  0
  -24.2775  -11.6325   -7.3291 O   0  0  0  0  0  0  0  0  0  0  0  0
  -25.4161  -11.8350   -5.2562 C   0  0  0  0  0  0  0  0  0  0  0  0
  -26.3243  -12.6521   -4.5223 O   0  0  0  0  0  0  0  0  0  0  0  0
  -23.9651  -12.2483   -5.0067 C   0  0  0  0  0  0  0  0  0  0  0  0
  -23.8176  -13.6814   -4.9462 O   0  0  0  0  0  0  0  0  0  0  0  0
  -23.2748  -11.7115   -6.2859 C   0  0  0  0  0  0  0  0  0  0  0  0
  -26.1691  -13.5845   -4.7404 H   0  0  0  0  0  0  0  0  0  0  0  0
  -24.1583  -14.0763   -5.7641 H   0  0  0  0  0  0  0  0  0  0  0  0
  -22.6232  -10.4063   -6.0698 N   0  0  0  0  0  0  0  0  0  0  0  0
  -21.3017  -10.1498   -5.7636 C   0  0  0  0  0  0  0  0  0  0  0  0
  -21.1262   -8.8700   -5.6171 N   0  0  0  0  0  0  0  0  0  0  0  0
  -22.3055   -8.2281   -5.8315 C   0  0  0  0  0  0  0  0  0  0  0  0
  -22.7434   -6.8819   -5.8646 C   0  0  0  0  0  0  0  0  0  0  0  0
  -21.9085   -5.8046   -5.5684 N   0  0  0  0  0  0  0  0  0  0  0  0
  -24.0176   -6.6468   -6.1866 N   0  0  0  0  0  0  0  0  0  0  0  0
  -24.8870   -7.5960   -6.4393 C   0  0  0  0  0  0  0  0  0  0  0  0
  -24.5229   -8.8538   -6.4229 N   0  0  0  0  0  0  0  0  0  0  0  0
  -23.2671   -9.2113   -6.1394 C   0  0  0  0  0  0  0  0  0  0  0  0
  -20.9667   -5.9629   -5.3294 H   0  0  0  0  0  0  0  0  0  0  0  0
  -22.2610   -4.8858   -5.5983 H   0  0  0  0  0  0  0  0  0  0  0  0
  -26.6749  -11.3449   -7.3773 C   0  0  0  0  0  0  0  0  0  0  0  0
  -27.4988  -10.8662   -6.3252 O   0  0  0  0  0  0  0  0  0  0  0  0
  -28.5760   -9.7091   -6.5513 P   0  0  0  0  0  0  0  0  0  0  0  0
  -28.5093   -9.3631   -8.0615 O   0  0  0  0  0  0  0  0  0  0  0  0
  -28.1643   -8.5160   -5.6673 O   0  0  0  0  0  0  0  0  0  0  0  0
  -28.8013   -7.7934   -5.7823 H   0  0  0  0  0  0  0  0  0  0  0  0
  -30.0430  -10.2449   -6.1244 O   0  0  0  0  0  0  0  0  0  0  0  0
  -30.9051  -10.2593   -4.7619 P   0  0  0  0  0  0  0  0  0  0  0  0
  -32.2414   -9.5278   -5.0792 O   0  0  0  0  0  0  0  0  0  0  0  0
  -30.1488   -9.5420   -3.6467 O   0  0  0  0  0  0  0  0  0  0  0  0
  -30.6786   -9.5584   -2.8343 H   0  0  0  0  0  0  0  0  0  0  0  0
  -31.1868  -11.8268   -4.2271 N   0  0  0  0  0  0  0  0  0  0  0  0
  -31.6442  -11.7627   -3.3177 H   0  0  0  0  0  0  0  0  0  0  0  0
  -29.8328  -12.8474   -4.0486 P   0  0  0  0  0  0  0  0  0  0  0  0
  -28.7361  -12.1114   -3.1914 O   0  0  0  0  0  0  0  0  0  0  0  0
  -30.2238  -14.2109   -3.4095 O   0  0  0  0  0  0  0  0  0  0  0  0
  -29.2630  -13.0788   -5.4879 O   0  0  0  0  0  0  0  0  0  0  0  0
  -29.4330  -14.7658   -3.3224 H   0  0  0  0  0  0  0  0  0  0  0  0
  -28.4860  -13.6575   -5.4389 H   0  0  0  0  0  0  0  0  0  0  0  0
 35 36  2  0  0  0
 35 37  1  0  0  0
 35 38  1  0  0  0
 35 33  1  0  0  0
 29 30  2  0  0  0
 29 31  1  0  0  0
 29 33  1  0  0  0
 29 28  1  0  0  0
 24 25  2  0  0  0
 24 26  1  0  0  0
 24 28  1  0  0  0
 24 23  1  0  0  0
 23 22  1  0  0  0
 22  1  1  0  0  0
  1  2  1  0  0  0
  1  3  1  0  0  0
  2  7  1  0  0  0
  3  4  1  0  0  0
  3  5  1  0  0  0
  5  6  1  0  0  0
  5  7  1  0  0  0
  7 10  1  0  0  0
 10 11  1  0  0  0
 10 19  1  0  0  0
 11 12  2  0  0  0
 12 13  1  0  0  0
 13 14  1  0  0  0
 13 19  2  0  0  0
 14 15  1  0  0  0
 14 16  2  0  0  0
 16 17  1  0  0  0
 17 18  2  0  0  0
 18 19  1  0  0  0
 37 39  1  0  0  0
 38 40  1  0  0  0
 31 32  1  0  0  0
 33 34  1  0  0  0
 26 27  1  0  0  0
  4  8  1  0  0  0
  6  9  1  0  0  0
 15 20  1  0  0  0
 15 21  1  0  0  0
M  END
> <minimizedAffinity>
-8.91614

$$$$
4FL2_ANP_A_702


 40 42  0  0  0  0  0  0  0  0999 V2000
  -25.5373  -11.9957   -6.6902 C   0  0  0  0  0  0  0  0  0  0  0  0
  -24.2941  -11.5428   -7.2596 O   0  0  0  0  0  0  0  0  0  0  0  0
  -25.4014  -11.7743   -5.1729 C   0  0  0  0  0  0  0  0  0  0  0  0
  -26.3174  -12.5886   -4.4454 O   0  0  0  0  0  0  0  0  0  0  0  0
  -23.9573  -12.2305   -4.9609 C   0  0  0  0  0  0  0  0  0  0  0  0
  -23.8454  -13.6681   -4.9424 O   0  0  0  0  0  0  0  0  0  0  0  0
  -23.2758  -11.6758   -6.2372 C   0  0  0  0  0  0  0  0  0  0  0  0
  -26.1898  -13.5181   -4.6917 H   0  0  0  0  0  0  0  0  0  0  0  0
  -24.2102  -14.0314   -5.7644 H   0  0  0  0  0  0  0  0  0  0  0  0
  -22.5875  -10.3939   -5.9972 N   0  0  0  0  0  0  0  0  0  0  0  0
  -21.2707  -10.1832   -5.6400 C   0  0  0  0  0  0  0  0  0  0  0  0
  -21.0560   -8.9101   -5.4881 N   0  0  0  0  0  0  0  0  0  0  0  0
  -22.2027   -8.2276   -5.7489 C   0  0  0  0  0  0  0  0  0  0  0  0
  -22.5913   -6.8670   -5.8004 C   0  0  0  0  0  0  0  0  0  0  0  0
  -21.7311   -5.8189   -5.4730 N   0  0  0  0  0  0  0  0  0  0  0  0
  -23.8429   -6.5879   -6.1719 N   0  0  0  0  0  0  0  0  0  0  0  0
  -24.7348   -7.5066   -6.4573 C   0  0  0  0  0  0  0  0  0  0  0  0
  -24.4162   -8.7764   -6.4255 N   0  0  0  0  0  0  0  0  0  0  0  0
  -23.1857   -9.1771   -6.0930 C   0  0  0  0  0  0  0  0  0  0  0  0
  -20.8054   -6.0097   -5.1973 H   0  0  0  0  0  0  0  0  0  0  0  0
  -22.0496   -4.8885   -5.5175 H   0  0  0  0  0  0  0  0  0  0  0  0
  -26.6839  -11.1940   -7.2568 C   0  0  0  0  0  0  0  0  0  0  0  0
  -27.3169  -10.5042   -6.1898 O   0  0  0  0  0  0  0  0  0  0  0  0
  -28.5776   -9.5527   -6.4251 P   0  0  0  0  0  0  0  0  0  0  0  0
  -29.2105  -10.0177   -7.7623 O   0  0  0  0  0  0  0  0  0  0  0  0
  -28.0549   -8.1054   -6.5067 O   0  0  0  0  0  0  0  0  0  0  0  0
  -28.7994   -7.5004   -6.6498 H   0  0  0  0  0  0  0  0  0  0  0  0
  -29.6106   -9.7080   -5.1881 O   0  0  0  0  0  0  0  0  0  0  0  0
  -31.0293  -10.4415   -4.9661 P   0  0  0  0  0  0  0  0  0  0  0  0
  -30.8018  -11.5141   -3.8619 O   0  0  0  0  0  0  0  0  0  0  0  0
  -31.4992  -11.0939   -6.2636 O   0  0  0  0  0  0  0  0  0  0  0  0
  -32.3525  -11.5306   -6.1153 H   0  0  0  0  0  0  0  0  0  0  0  0
  -32.2230   -9.3502   -4.5113 N   0  0  0  0  0  0  0  0  0  0  0  0
  -33.0652   -9.8866   -4.3031 H   0  0  0  0  0  0  0  0  0  0  0  0
  -32.6496   -8.1436   -5.6376 P   0  0  0  0  0  0  0  0  0  0  0  0
  -32.4027   -8.6828   -7.0962 O   0  0  0  0  0  0  0  0  0  0  0  0
  -34.1237   -7.6819   -5.4514 O   0  0  0  0  0  0  0  0  0  0  0  0
  -31.6799   -6.9414   -5.3837 O   0  0  0  0  0  0  0  0  0  0  0  0
  -34.3332   -6.9973   -6.1059 H   0  0  0  0  0  0  0  0  0  0  0  0
  -31.8843   -6.2245   -6.0043 H   0  0  0  0  0  0  0  0  0  0  0  0
 35 36  2  0  0  0
 35 37  1  0  0  0
 35 38  1  0  0  0
 35 33  1  0  0  0
 29 30  2  0  0  0
 29 31  1  0  0  0
 29 33  1  0  0  0
 29 28  1  0  0  0
 24 25  2  0  0  0
 24 26  1  0  0  0
 24 28  1  0  0  0
 24 23  1  0  0  0
 23 22  1  0  0  0
 22  1  1  0  0  0
  1  2  1  0  0  0
  1  3  1  0  0  0
  2  7  1  0  0  0
  3  4  1  0  0  0
  3  5  1  0  0  0
  5  6  1  0  0  0
  5  7  1  0  0  0
  7 10  1  0  0  0
 10 11  1  0  0  0
 10 19  1  0  0  0
 11 12  2  0  0  0
 12 13  1  0  0  0
 13 14  1  0  0  0
 13 19  2  0  0  0
 14 15  1  0  0  0
 14 16  2  0  0  0
 16 17  1  0  0  0
 17 18  2  0  0  0
 18 19  1  0  0  0
 37 39  1  0  0  0
 38 40  1  0  0  0
 31 32  1  0  0  0
 33 34  1  0  0  0
 26 27  1  0  0  0
  4  8  1  0  0  0
  6  9  1  0  0  0
 15 20  1  0  0  0
 15 21  1  0  0  0
M  END
> <minimizedAffinity>
-8.57766

$$$$
4FL2_ANP_A_702


 40 42  0  0  0  0  0  0  0  0999 V2000
  -28.6347  -10.3044   -5.8609 C   0  0  0  0  0  0  0  0  0  0  0  0
  -27.3803  -10.7727   -6.3920 O   0  0  0  0  0  0  0  0  0  0  0  0
  -28.2772   -9.5325   -4.5777 C   0  0  0  0  0  0  0  0  0  0  0  0
  -29.4002   -9.4248   -3.7069 O   0  0  0  0  0  0  0  0  0  0  0  0
  -27.2052  -10.4552   -3.9964 C   0  0  0  0  0  0  0  0  0  0  0  0
  -27.7815  -11.6108   -3.3549 O   0  0  0  0  0  0  0  0  0  0  0  0
  -26.4585  -10.8959   -5.2807 C   0  0  0  0  0  0  0  0  0  0  0  0
  -29.7472  -10.3102   -3.5157 H   0  0  0  0  0  0  0  0  0  0  0  0
  -28.3453  -12.0839   -3.9867 H   0  0  0  0  0  0  0  0  0  0  0  0
  -25.2300  -10.1146   -5.5151 N   0  0  0  0  0  0  0  0  0  0  0  0
  -25.1154   -8.8145   -5.9650 C   0  0  0  0  0  0  0  0  0  0  0  0
  -23.8594   -8.4977   -6.0747 N   0  0  0  0  0  0  0  0  0  0  0  0
  -23.0950   -9.5555   -5.6931 C   0  0  0  0  0  0  0  0  0  0  0  0
  -21.7105   -9.8148   -5.5487 C   0  0  0  0  0  0  0  0  0  0  0  0
  -20.7250   -8.8904   -5.8945 N   0  0  0  0  0  0  0  0  0  0  0  0
  -21.3444  -11.0050   -5.0672 N   0  0  0  0  0  0  0  0  0  0  0  0
  -22.1962  -11.9523   -4.7547 C   0  0  0  0  0  0  0  0  0  0  0  0
  -23.4854  -11.7529   -4.8699 N   0  0  0  0  0  0  0  0  0  0  0  0
  -23.9729  -10.5918   -5.3165 C   0  0  0  0  0  0  0  0  0  0  0  0
  -20.9802   -8.0088   -6.2508 H   0  0  0  0  0  0  0  0  0  0  0  0
  -19.7741   -9.1194   -5.7823 H   0  0  0  0  0  0  0  0  0  0  0  0
  -29.3143   -9.4058   -6.8652 C   0  0  0  0  0  0  0  0  0  0  0  0
  -30.6246   -9.9016   -7.0935 O   0  0  0  0  0  0  0  0  0  0  0  0
  -31.8570   -9.5018   -6.1600 P   0  0  0  0  0  0  0  0  0  0  0  0
  -33.0657   -9.3220   -7.1149 O   0  0  0  0  0  0  0  0  0  0  0  0
  -31.4870   -8.1883   -5.4442 O   0  0  0  0  0  0  0  0  0  0  0  0
  -32.2181   -7.9176   -4.8670 H   0  0  0  0  0  0  0  0  0  0  0  0
  -32.1191  -10.6770   -5.0776 O   0  0  0  0  0  0  0  0  0  0  0  0
  -31.6353  -12.2056   -4.9073 P   0  0  0  0  0  0  0  0  0  0  0  0
  -30.5826  -12.2087   -3.7613 O   0  0  0  0  0  0  0  0  0  0  0  0
  -31.0194  -12.7163   -6.2072 O   0  0  0  0  0  0  0  0  0  0  0  0
  -30.7333  -13.6357   -6.0902 H   0  0  0  0  0  0  0  0  0  0  0  0
  -32.9228  -13.2233   -4.5475 N   0  0  0  0  0  0  0  0  0  0  0  0
  -33.3402  -12.8933   -3.6773 H   0  0  0  0  0  0  0  0  0  0  0  0
  -32.5782  -14.8817   -4.3537 P   0  0  0  0  0  0  0  0  0  0  0  0
  -32.1797  -15.4966   -5.7474 O   0  0  0  0  0  0  0  0  0  0  0  0
  -31.4606  -15.1146   -3.2967 O   0  0  0  0  0  0  0  0  0  0  0  0
  -33.9086  -15.5552   -3.8779 O   0  0  0  0  0  0  0  0  0  0  0  0
  -31.2896  -16.0655   -3.2111 H   0  0  0  0  0  0  0  0  0  0  0  0
  -33.7629  -16.5060   -3.7527 H   0  0  0  0  0  0  0  0  0  0  0  0
 35 36  2  0  0  0
 35 37  1  0  0  0
 35 38  1  0  0  0
 35 33  1  0  0  0
 29 30  2  0  0  0
 29 31  1  0  0  0
 29 33  1  0  0  0
 29 28  1  0  0  0
 24 25  2  0  0  0
 24 26  1  0  0  0
 24 28  1  0  0  0
 24 23  1  0  0  0
 23 22  1  0  0  0
 22  1  1  0  0  0
  1  2  1  0  0  0
  1  3  1  0  0  0
  2  7  1  0  0  0
  3  4  1  0  0  0
  3  5  1  0  0  0
  5  6  1  0  0  0
  5  7  1  0  0  0
  7 10  1  0  0  0
 10 11  1  0  0  0
 10 19  1  0  0  0
 11 12  2  0  0  0
 12 13  1  0  0  0
 13 14  1  0  0  0
 13 19  2  0  0  0
 14 15  1  0  0  0
 14 16  2  0  0  0
 16 17  1  0  0  0
 17 18  2  0  0  0
 18 19  1  0  0  0
 37 39  1  0  0  0
 38 40  1  0  0  0
 31 32  1  0  0  0
 33 34  1  0  0  0
 26 27  1  0  0  0
  4  8  1  0  0  0
  6  9  1  0  0  0
 15 20  1  0  0  0
 15 21  1  0  0  0
M  END
> <minimizedAffinity>
-8.51888

$$$$
4FL2_ANP_A_702


 40 42  0  0  0  0  0  0  0  0999 V2000
  -27.2108  -11.0777   -5.1768 C   0  0  0  0  0  0  0  0  0  0  0  0
  -26.1312  -10.9780   -4.2284 O   0  0  0  0  0  0  0  0  0  0  0  0
  -26.5413  -11.1076   -6.5628 C   0  0  0  0  0  0  0  0  0  0  0  0
  -27.4549  -10.7285   -7.5888 O   0  0  0  0  0  0  0  0  0  0  0  0
  -25.4555  -10.0496   -6.3619 C   0  0  0  0  0  0  0  0  0  0  0  0
  -25.9865   -8.7118   -6.4490 O   0  0  0  0  0  0  0  0  0  0  0  0
  -25.0197  -10.3385   -4.9033 C   0  0  0  0  0  0  0  0  0  0  0  0
  -27.8293   -9.8577   -7.3829 H   0  0  0  0  0  0  0  0  0  0  0  0
  -26.7025   -8.6055   -5.8033 H   0  0  0  0  0  0  0  0  0  0  0  0
  -23.8019  -11.1671   -4.8321 N   0  0  0  0  0  0  0  0  0  0  0  0
  -23.7048  -12.5313   -4.6437 C   0  0  0  0  0  0  0  0  0  0  0  0
  -22.4531  -12.8804   -4.6048 N   0  0  0  0  0  0  0  0  0  0  0  0
  -21.6747  -11.7792   -4.7784 C   0  0  0  0  0  0  0  0  0  0  0  0
  -20.2870  -11.5156   -4.8779 C   0  0  0  0  0  0  0  0  0  0  0  0
  -19.3139  -12.5030   -4.7238 N   0  0  0  0  0  0  0  0  0  0  0  0
  -19.9052  -10.2598   -5.1215 N   0  0  0  0  0  0  0  0  0  0  0  0
  -20.7442   -9.2583   -5.2393 C   0  0  0  0  0  0  0  0  0  0  0  0
  -22.0357   -9.4587   -5.1574 N   0  0  0  0  0  0  0  0  0  0  0  0
  -22.5386  -10.6777   -4.9417 C   0  0  0  0  0  0  0  0  0  0  0  0
  -19.5808  -13.4334   -4.5438 H   0  0  0  0  0  0  0  0  0  0  0  0
  -18.3602  -12.2695   -4.7951 H   0  0  0  0  0  0  0  0  0  0  0  0
  -27.9999  -12.3396   -4.9261 C   0  0  0  0  0  0  0  0  0  0  0  0
  -29.2859  -11.9750   -4.4486 O   0  0  0  0  0  0  0  0  0  0  0  0
  -30.5667  -11.9435   -5.4018 P   0  0  0  0  0  0  0  0  0  0  0  0
  -31.7665  -11.6000   -4.4812 O   0  0  0  0  0  0  0  0  0  0  0  0
  -30.7064  -13.3419   -6.0338 O   0  0  0  0  0  0  0  0  0  0  0  0
  -31.4785  -13.3558   -6.6208 H   0  0  0  0  0  0  0  0  0  0  0  0
  -30.3565  -10.8249   -6.5533 O   0  0  0  0  0  0  0  0  0  0  0  0
  -30.4692   -9.2180   -6.6230 P   0  0  0  0  0  0  0  0  0  0  0  0
  -30.9101   -8.8705   -8.0743 O   0  0  0  0  0  0  0  0  0  0  0  0
  -29.1225   -8.5761   -6.2998 O   0  0  0  0  0  0  0  0  0  0  0  0
  -29.2052   -7.6107   -6.3455 H   0  0  0  0  0  0  0  0  0  0  0  0
  -31.5703   -8.6279   -5.4996 N   0  0  0  0  0  0  0  0  0  0  0  0
  -31.4359   -9.1516   -4.6346 H   0  0  0  0  0  0  0  0  0  0  0  0
  -33.2243   -8.7205   -5.9026 P   0  0  0  0  0  0  0  0  0  0  0  0
  -33.9529   -7.4131   -5.4135 O   0  0  0  0  0  0  0  0  0  0  0  0
  -33.4303   -8.9409   -7.4289 O   0  0  0  0  0  0  0  0  0  0  0  0
  -33.8040   -9.9373   -5.1068 O   0  0  0  0  0  0  0  0  0  0  0  0
  -34.3793   -8.9889   -7.6235 H   0  0  0  0  0  0  0  0  0  0  0  0
  -34.7490  -10.0320   -5.3040 H   0  0  0  0  0  0  0  0  0  0  0  0
 35 36  2  0  0  0
 35 37  1  0  0  0
 35 38  1  0  0  0
 35 33  1  0  0  0
 29 30  2  0  0  0
 29 31  1  0  0  0
 29 33  1  0  0  0
 29 28  1  0  0  0
 24 25  2  0  0  0
 24 26  1  0  0  0
 24 28  1  0  0  0
 24 23  1  0  0  0
 23 22  1  0  0  0
 22  1  1  0  0  0
  1  2  1  0  0  0
  1  3  1  0  0  0
  2  7  1  0  0  0
  3  4  1  0  0  0
  3  5  1  0  0  0
  5  6  1  0  0  0
  5  7  1  0  0  0
  7 10  1  0  0  0
 10 11  1  0  0  0
 10 19  1  0  0  0
 11 12  2  0  0  0
 12 13  1  0  0  0
 13 14  1  0  0  0
 13 19  2  0  0  0
 14 15  1  0  0  0
 14 16  2  0  0  0
 16 17  1  0  0  0
 17 18  2  0  0  0
 18 19  1  0  0  0
 37 39  1  0  0  0
 38 40  1  0  0  0
 31 32  1  0  0  0
 33 34  1  0  0  0
 26 27  1  0  0  0
  4  8  1  0  0  0
  6  9  1  0  0  0
 15 20  1  0  0  0
 15 21  1  0  0  0
M  END
> <minimizedAffinity>
-8.48210

$$$$
