4KNI_E1E_A_305


 25 26  0  0  0  0  0  0  0  0999 V2000
   -4.5457    4.3117   15.0619 C   0  0  0  0  0  0  0  0  0  0  0  0
   -5.2459    2.2206   16.1068 C   0  0  0  0  0  0  0  0  0  0  0  0
   -4.3097    1.4900   15.3425 C   0  0  0  0  0  0  0  0  0  0  0  0
   -6.5752    4.4946   16.9004 Cl  0  0  0  0  0  0  0  0  0  0  0  0
   -5.3981    3.6167   15.9452 C   0  0  0  0  0  0  0  0  0  0  0  0
   -3.5500    3.6017   14.3174 C   0  0  0  0  0  0  0  0  0  0  0  0
   -3.4381    2.1888   14.4545 C   0  0  0  0  0  0  0  0  0  0  0  0
   -6.2563    1.2996   17.2995 S   0  0  0  0  0  0  0  0  0  0  0  0
   -7.7596    1.2414   16.8098 O   0  0  0  0  0  0  0  0  0  0  0  0
   -5.5158   -0.2789   17.3934 N   0  0  0  0  0  0  0  0  0  0  0  0
   -6.0257    1.9996   18.7418 O   0  0  0  0  0  0  0  0  0  0  0  0
   -5.6345   -0.7636   16.5038 H   0  0  0  0  0  0  0  0  0  0  0  0
   -5.9593   -0.8189   18.1365 H   0  0  0  0  0  0  0  0  0  0  0  0
   -2.5796    4.3252   13.4462 C   0  0  0  0  0  0  0  0  0  0  0  0
   -1.3565    4.1608   13.6937 O   0  0  0  0  0  0  0  0  0  0  0  0
   -2.9619    5.0832   12.2149 C   0  0  0  0  0  0  0  0  0  0  0  0
   -3.7306    3.9197   11.0604 S   0  0  0  0  0  0  0  0  0  0  0  0
   -4.8467    5.0706   10.2716 C   0  0  0  0  0  0  0  0  0  0  0  0
   -4.9964    5.0178    8.8953 N   0  0  0  0  0  0  0  0  0  0  0  0
   -5.8181    5.8961    8.2804 C   0  0  0  0  0  0  0  0  0  0  0  0
   -5.9049    5.8051    6.7997 C   0  0  0  0  0  0  0  0  0  0  0  0
   -6.5323    6.8422    9.0550 C   0  0  0  0  0  0  0  0  0  0  0  0
   -6.3803    6.8534   10.4617 C   0  0  0  0  0  0  0  0  0  0  0  0
   -5.5398    5.9642   11.0535 N   0  0  0  0  0  0  0  0  0  0  0  0
   -7.1108    7.8211   11.3336 C   0  0  0  0  0  0  0  0  0  0  0  0
 25 23  1  0  0  0
 23 24  2  0  0  0
 23 22  1  0  0  0
 24 18  1  0  0  0
 22 20  2  0  0  0
 18 17  1  0  0  0
 18 19  2  0  0  0
 17 16  1  0  0  0
 20 19  1  0  0  0
 20 21  1  0  0  0
 16 14  1  0  0  0
 14 15  2  0  0  0
 14  6  1  0  0  0
  7  6  2  0  0  0
  7  3  1  0  0  0
  6  1  1  0  0  0
  3  2  2  0  0  0
  1  5  2  0  0  0
  2  5  1  0  0  0
  2  8  1  0  0  0
  5  4  1  0  0  0
 10  8  1  0  0  0
  9  8  2  0  0  0
  8 11  2  0  0  0
 10 12  1  0  0  0
 10 13  1  0  0  0
M  END
> <minimizedAffinity>
-7.91719

$$$$
4KNI_E1E_A_305


 25 26  0  0  0  0  0  0  0  0999 V2000
   -4.5397    4.2158   14.9601 C   0  0  0  0  0  0  0  0  0  0  0  0
   -5.2599    2.1645   16.0684 C   0  0  0  0  0  0  0  0  0  0  0  0
   -4.3554    1.3970   15.3020 C   0  0  0  0  0  0  0  0  0  0  0  0
   -6.5250    4.4836   16.8361 Cl  0  0  0  0  0  0  0  0  0  0  0  0
   -5.3869    3.5594   15.8773 C   0  0  0  0  0  0  0  0  0  0  0  0
   -3.5749    3.4681   14.2118 C   0  0  0  0  0  0  0  0  0  0  0  0
   -3.4890    2.0568   14.3796 C   0  0  0  0  0  0  0  0  0  0  0  0
   -6.2630    1.2926   17.3035 S   0  0  0  0  0  0  0  0  0  0  0  0
   -7.7710    1.2232   16.8299 O   0  0  0  0  0  0  0  0  0  0  0  0
   -5.5282   -0.2847   17.4488 N   0  0  0  0  0  0  0  0  0  0  0  0
   -6.0162    2.0443   18.7168 O   0  0  0  0  0  0  0  0  0  0  0  0
   -5.6571   -0.8012   16.5787 H   0  0  0  0  0  0  0  0  0  0  0  0
   -5.9670   -0.7949   18.2153 H   0  0  0  0  0  0  0  0  0  0  0  0
   -2.6090    4.1509   13.3036 C   0  0  0  0  0  0  0  0  0  0  0  0
   -1.3884    3.8904   13.4675 O   0  0  0  0  0  0  0  0  0  0  0  0
   -3.0089    4.9781   12.1235 C   0  0  0  0  0  0  0  0  0  0  0  0
   -3.7418    3.8728   10.8910 S   0  0  0  0  0  0  0  0  0  0  0  0
   -4.8607    5.0525   10.1501 C   0  0  0  0  0  0  0  0  0  0  0  0
   -5.5051    5.9658   10.9689 N   0  0  0  0  0  0  0  0  0  0  0  0
   -6.3723    6.8492   10.4282 C   0  0  0  0  0  0  0  0  0  0  0  0
   -7.0534    7.7768   11.3684 C   0  0  0  0  0  0  0  0  0  0  0  0
   -6.5913    6.8438    9.0293 C   0  0  0  0  0  0  0  0  0  0  0  0
   -5.8972    5.9175    8.2153 C   0  0  0  0  0  0  0  0  0  0  0  0
   -5.0373    5.0337    8.7868 N   0  0  0  0  0  0  0  0  0  0  0  0
   -6.0796    5.8666    6.7340 C   0  0  0  0  0  0  0  0  0  0  0  0
 25 23  1  0  0  0
 23 24  2  0  0  0
 23 22  1  0  0  0
 24 18  1  0  0  0
 22 20  2  0  0  0
 18 17  1  0  0  0
 18 19  2  0  0  0
 17 16  1  0  0  0
 20 19  1  0  0  0
 20 21  1  0  0  0
 16 14  1  0  0  0
 14 15  2  0  0  0
 14  6  1  0  0  0
  7  6  2  0  0  0
  7  3  1  0  0  0
  6  1  1  0  0  0
  3  2  2  0  0  0
  1  5  2  0  0  0
  2  5  1  0  0  0
  2  8  1  0  0  0
  5  4  1  0  0  0
 10  8  1  0  0  0
  9  8  2  0  0  0
  8 11  2  0  0  0
 10 12  1  0  0  0
 10 13  1  0  0  0
M  END
> <minimizedAffinity>
-7.89872

$$$$
4KNI_E1E_A_305


 25 26  0  0  0  0  0  0  0  0999 V2000
   -4.6767    4.2190   14.8387 C   0  0  0  0  0  0  0  0  0  0  0  0
   -5.3129    2.1703   16.0019 C   0  0  0  0  0  0  0  0  0  0  0  0
   -4.4368    1.4067   15.1994 C   0  0  0  0  0  0  0  0  0  0  0  0
   -6.5707    4.4804   16.8078 Cl  0  0  0  0  0  0  0  0  0  0  0  0
   -5.4685    3.5612   15.8032 C   0  0  0  0  0  0  0  0  0  0  0  0
   -3.7397    3.4762   14.0512 C   0  0  0  0  0  0  0  0  0  0  0  0
   -3.6262    2.0680   14.2288 C   0  0  0  0  0  0  0  0  0  0  0  0
   -6.2418    1.2984   17.2937 S   0  0  0  0  0  0  0  0  0  0  0  0
   -7.7800    1.2584   16.9257 O   0  0  0  0  0  0  0  0  0  0  0  0
   -5.5247   -0.2918   17.3690 N   0  0  0  0  0  0  0  0  0  0  0  0
   -5.8850    2.0281   18.6949 O   0  0  0  0  0  0  0  0  0  0  0  0
   -5.7222   -0.7952   16.5041 H   0  0  0  0  0  0  0  0  0  0  0  0
   -5.9173   -0.8049   18.1583 H   0  0  0  0  0  0  0  0  0  0  0  0
   -2.8292    4.1620   13.0896 C   0  0  0  0  0  0  0  0  0  0  0  0
   -1.5936    4.0812   13.3156 O   0  0  0  0  0  0  0  0  0  0  0  0
   -3.2797    4.7826   11.8055 C   0  0  0  0  0  0  0  0  0  0  0  0
   -3.9582    3.4696   10.7599 S   0  0  0  0  0  0  0  0  0  0  0  0
   -4.1987    4.4440    9.2817 C   0  0  0  0  0  0  0  0  0  0  0  0
   -5.4427    5.0081    9.0496 N   0  0  0  0  0  0  0  0  0  0  0  0
   -5.6485    5.7280    7.9253 C   0  0  0  0  0  0  0  0  0  0  0  0
   -7.0153    6.2751    7.7236 C   0  0  0  0  0  0  0  0  0  0  0  0
   -4.5822    5.9150    7.0125 C   0  0  0  0  0  0  0  0  0  0  0  0
   -3.3149    5.3502    7.2907 C   0  0  0  0  0  0  0  0  0  0  0  0
   -3.1383    4.6226    8.4251 N   0  0  0  0  0  0  0  0  0  0  0  0
   -2.1498    5.5176    6.3717 C   0  0  0  0  0  0  0  0  0  0  0  0
 25 23  1  0  0  0
 23 24  2  0  0  0
 23 22  1  0  0  0
 24 18  1  0  0  0
 22 20  2  0  0  0
 18 17  1  0  0  0
 18 19  2  0  0  0
 17 16  1  0  0  0
 20 19  1  0  0  0
 20 21  1  0  0  0
 16 14  1  0  0  0
 14 15  2  0  0  0
 14  6  1  0  0  0
  7  6  2  0  0  0
  7  3  1  0  0  0
  6  1  1  0  0  0
  3  2  2  0  0  0
  1  5  2  0  0  0
  2  5  1  0  0  0
  2  8  1  0  0  0
  5  4  1  0  0  0
 10  8  1  0  0  0
  9  8  2  0  0  0
  8 11  2  0  0  0
 10 12  1  0  0  0
 10 13  1  0  0  0
M  END
> <minimizedAffinity>
-7.79025

$$$$
4KNI_E1E_A_305


 25 26  0  0  0  0  0  0  0  0999 V2000
   -4.7967    3.1951   13.5736 C   0  0  0  0  0  0  0  0  0  0  0  0
   -5.6071    2.6415   15.8078 C   0  0  0  0  0  0  0  0  0  0  0  0
   -6.1298    3.9430   15.9736 C   0  0  0  0  0  0  0  0  0  0  0  0
   -4.2622    0.6541   14.4627 Cl  0  0  0  0  0  0  0  0  0  0  0  0
   -4.9082    2.2732   14.6355 C   0  0  0  0  0  0  0  0  0  0  0  0
   -5.3676    4.5024   13.6948 C   0  0  0  0  0  0  0  0  0  0  0  0
   -6.0285    4.8767   14.8992 C   0  0  0  0  0  0  0  0  0  0  0  0
   -5.8562    1.4588   17.1610 S   0  0  0  0  0  0  0  0  0  0  0  0
   -4.6642    0.4194   17.2024 O   0  0  0  0  0  0  0  0  0  0  0  0
   -5.9482    2.4378   18.6039 N   0  0  0  0  0  0  0  0  0  0  0  0
   -7.3275    0.8152   16.9502 O   0  0  0  0  0  0  0  0  0  0  0  0
   -5.0405    2.8679   18.7813 H   0  0  0  0  0  0  0  0  0  0  0  0
   -6.2072    1.8509   19.3970 H   0  0  0  0  0  0  0  0  0  0  0  0
   -5.3406    5.4621   12.5536 C   0  0  0  0  0  0  0  0  0  0  0  0
   -6.4362    5.9846   12.2201 O   0  0  0  0  0  0  0  0  0  0  0  0
   -4.0876    5.9596   11.9060 C   0  0  0  0  0  0  0  0  0  0  0  0
   -3.9937    5.2396   10.2476 S   0  0  0  0  0  0  0  0  0  0  0  0
   -2.7206    4.0322   10.5850 C   0  0  0  0  0  0  0  0  0  0  0  0
   -1.4098    4.4627   10.7122 N   0  0  0  0  0  0  0  0  0  0  0  0
   -0.4317    3.5602   10.9438 C   0  0  0  0  0  0  0  0  0  0  0  0
    0.9548    4.0869   11.0350 C   0  0  0  0  0  0  0  0  0  0  0  0
   -0.7646    2.1903   11.0767 C   0  0  0  0  0  0  0  0  0  0  0  0
   -2.1160    1.7844   10.9699 C   0  0  0  0  0  0  0  0  0  0  0  0
   -3.0788    2.7125   10.7274 N   0  0  0  0  0  0  0  0  0  0  0  0
   -2.5315    0.3566   11.1075 C   0  0  0  0  0  0  0  0  0  0  0  0
 25 23  1  0  0  0
 23 24  2  0  0  0
 23 22  1  0  0  0
 24 18  1  0  0  0
 22 20  2  0  0  0
 18 17  1  0  0  0
 18 19  2  0  0  0
 17 16  1  0  0  0
 20 19  1  0  0  0
 20 21  1  0  0  0
 16 14  1  0  0  0
 14 15  2  0  0  0
 14  6  1  0  0  0
  7  6  2  0  0  0
  7  3  1  0  0  0
  6  1  1  0  0  0
  3  2  2  0  0  0
  1  5  2  0  0  0
  2  5  1  0  0  0
  2  8  1  0  0  0
  5  4  1  0  0  0
 10  8  1  0  0  0
  9  8  2  0  0  0
  8 11  2  0  0  0
 10 12  1  0  0  0
 10 13  1  0  0  0
M  END
> <minimizedAffinity>
-7.71397

$$$$
4KNI_E1E_A_305


 25 26  0  0  0  0  0  0  0  0999 V2000
   -4.8614    4.6717   15.2955 C   0  0  0  0  0  0  0  0  0  0  0  0
   -5.1089    2.5276   16.4342 C   0  0  0  0  0  0  0  0  0  0  0  0
   -4.0015    1.9955   15.7375 C   0  0  0  0  0  0  0  0  0  0  0  0
   -6.9505    4.4716   17.0642 Cl  0  0  0  0  0  0  0  0  0  0  0  0
   -5.5678    3.8425   16.1918 C   0  0  0  0  0  0  0  0  0  0  0  0
   -3.7017    4.1742   14.6192 C   0  0  0  0  0  0  0  0  0  0  0  0
   -3.2772    2.8327   14.8369 C   0  0  0  0  0  0  0  0  0  0  0  0
   -5.9299    1.4571   17.6474 S   0  0  0  0  0  0  0  0  0  0  0  0
   -6.0364    2.1962   19.0422 O   0  0  0  0  0  0  0  0  0  0  0  0
   -7.4912    1.1018   16.9511 N   0  0  0  0  0  0  0  0  0  0  0  0
   -5.1087    0.0611   17.6656 O   0  0  0  0  0  0  0  0  0  0  0  0
   -8.0503    1.9543   16.9172 H   0  0  0  0  0  0  0  0  0  0  0  0
   -7.9681    0.4051   17.5235 H   0  0  0  0  0  0  0  0  0  0  0  0
   -2.8876    5.0587   13.7367 C   0  0  0  0  0  0  0  0  0  0  0  0
   -1.6499    5.1070   13.9612 O   0  0  0  0  0  0  0  0  0  0  0  0
   -3.4182    5.7452   12.5185 C   0  0  0  0  0  0  0  0  0  0  0  0
   -4.4465    4.5606   11.6147 S   0  0  0  0  0  0  0  0  0  0  0  0
   -3.1674    3.3684   11.2471 C   0  0  0  0  0  0  0  0  0  0  0  0
   -3.4524    2.0197   11.3873 N   0  0  0  0  0  0  0  0  0  0  0  0
   -2.4897    1.1059   11.1364 C   0  0  0  0  0  0  0  0  0  0  0  0
   -2.8539   -0.3204   11.3398 C   0  0  0  0  0  0  0  0  0  0  0  0
   -1.2108    1.5397   10.7108 C   0  0  0  0  0  0  0  0  0  0  0  0
   -0.9581    2.9226   10.5494 C   0  0  0  0  0  0  0  0  0  0  0  0
   -1.9423    3.8209   10.8178 N   0  0  0  0  0  0  0  0  0  0  0  0
    0.3668    3.4423   10.0970 C   0  0  0  0  0  0  0  0  0  0  0  0
 25 23  1  0  0  0
 23 24  2  0  0  0
 23 22  1  0  0  0
 24 18  1  0  0  0
 22 20  2  0  0  0
 18 17  1  0  0  0
 18 19  2  0  0  0
 17 16  1  0  0  0
 20 19  1  0  0  0
 20 21  1  0  0  0
 16 14  1  0  0  0
 14 15  2  0  0  0
 14  6  1  0  0  0
  7  6  2  0  0  0
  7  3  1  0  0  0
  6  1  1  0  0  0
  3  2  2  0  0  0
  1  5  2  0  0  0
  2  5  1  0  0  0
  2  8  1  0  0  0
  5  4  1  0  0  0
 10  8  1  0  0  0
  9  8  2  0  0  0
  8 11  2  0  0  0
 10 12  1  0  0  0
 10 13  1  0  0  0
M  END
> <minimizedAffinity>
-7.69276

$$$$
4KNI_E1E_A_305


 25 26  0  0  0  0  0  0  0  0999 V2000
   -4.8864    4.5713   15.3498 C   0  0  0  0  0  0  0  0  0  0  0  0
   -5.3413    2.3622   16.2815 C   0  0  0  0  0  0  0  0  0  0  0  0
   -4.3090    1.7894   15.5063 C   0  0  0  0  0  0  0  0  0  0  0  0
   -6.9545    4.4155   17.1474 Cl  0  0  0  0  0  0  0  0  0  0  0  0
   -5.6617    3.7354   16.1805 C   0  0  0  0  0  0  0  0  0  0  0  0
   -3.7980    4.0252   14.5968 C   0  0  0  0  0  0  0  0  0  0  0  0
   -3.5151    2.6318   14.6716 C   0  0  0  0  0  0  0  0  0  0  0  0
   -6.2508    1.2679   17.4071 S   0  0  0  0  0  0  0  0  0  0  0  0
   -7.7672    1.1715   16.9662 O   0  0  0  0  0  0  0  0  0  0  0  0
   -5.4218   -0.2659   17.3123 N   0  0  0  0  0  0  0  0  0  0  0  0
   -6.0010    1.8313   18.9050 O   0  0  0  0  0  0  0  0  0  0  0  0
   -5.5494   -0.6644   16.3821 H   0  0  0  0  0  0  0  0  0  0  0  0
   -5.8047   -0.9031   18.0107 H   0  0  0  0  0  0  0  0  0  0  0  0
   -2.9094    4.9033   13.7823 C   0  0  0  0  0  0  0  0  0  0  0  0
   -1.6779    4.8673   14.0405 O   0  0  0  0  0  0  0  0  0  0  0  0
   -3.3646    5.6800   12.5880 C   0  0  0  0  0  0  0  0  0  0  0  0
   -4.3698    4.5810   11.5587 S   0  0  0  0  0  0  0  0  0  0  0  0
   -3.1110    3.3603   11.2156 C   0  0  0  0  0  0  0  0  0  0  0  0
   -1.8453    3.7912   10.8523 N   0  0  0  0  0  0  0  0  0  0  0  0
   -0.8884    2.8816   10.5665 C   0  0  0  0  0  0  0  0  0  0  0  0
    0.4356    3.4134   10.1511 C   0  0  0  0  0  0  0  0  0  0  0  0
   -1.1872    1.5010   10.6657 C   0  0  0  0  0  0  0  0  0  0  0  0
   -2.4810    1.0915   11.0666 C   0  0  0  0  0  0  0  0  0  0  0  0
   -3.4275    2.0281   11.3393 N   0  0  0  0  0  0  0  0  0  0  0  0
   -2.8556   -0.3483   11.1967 C   0  0  0  0  0  0  0  0  0  0  0  0
 25 23  1  0  0  0
 23 24  2  0  0  0
 23 22  1  0  0  0
 24 18  1  0  0  0
 22 20  2  0  0  0
 18 17  1  0  0  0
 18 19  2  0  0  0
 17 16  1  0  0  0
 20 19  1  0  0  0
 20 21  1  0  0  0
 16 14  1  0  0  0
 14 15  2  0  0  0
 14  6  1  0  0  0
  7  6  2  0  0  0
  7  3  1  0  0  0
  6  1  1  0  0  0
  3  2  2  0  0  0
  1  5  2  0  0  0
  2  5  1  0  0  0
  2  8  1  0  0  0
  5  4  1  0  0  0
 10  8  1  0  0  0
  9  8  2  0  0  0
  8 11  2  0  0  0
 10 12  1  0  0  0
 10 13  1  0  0  0
M  END
> <minimizedAffinity>
-7.67254

$$$$
4KNI_E1E_A_305


 25 26  0  0  0  0  0  0  0  0999 V2000
   -4.8420    3.2347   13.6742 C   0  0  0  0  0  0  0  0  0  0  0  0
   -5.6160    2.7828   15.9438 C   0  0  0  0  0  0  0  0  0  0  0  0
   -6.1441    4.0879   16.0560 C   0  0  0  0  0  0  0  0  0  0  0  0
   -4.2792    0.7413   14.6737 Cl  0  0  0  0  0  0  0  0  0  0  0  0
   -4.9324    2.3633   14.7798 C   0  0  0  0  0  0  0  0  0  0  0  0
   -5.4189    4.5432   13.7422 C   0  0  0  0  0  0  0  0  0  0  0  0
   -6.0642    4.9704   14.9374 C   0  0  0  0  0  0  0  0  0  0  0  0
   -5.8381    1.6639   17.3548 S   0  0  0  0  0  0  0  0  0  0  0  0
   -5.8741    2.4893   18.7041 O   0  0  0  0  0  0  0  0  0  0  0  0
   -7.3373    0.8278   17.0352 N   0  0  0  0  0  0  0  0  0  0  0  0
   -4.6642    0.5526   17.2553 O   0  0  0  0  0  0  0  0  0  0  0  0
   -8.1127    1.4885   17.0864 H   0  0  0  0  0  0  0  0  0  0  0  0
   -7.4710    0.0923   17.7291 H   0  0  0  0  0  0  0  0  0  0  0  0
   -5.4145    5.4481   12.5568 C   0  0  0  0  0  0  0  0  0  0  0  0
   -6.5065    5.9943   12.2506 O   0  0  0  0  0  0  0  0  0  0  0  0
   -4.1780    5.8697   11.8285 C   0  0  0  0  0  0  0  0  0  0  0  0
   -4.1765    5.0519   10.2133 S   0  0  0  0  0  0  0  0  0  0  0  0
   -2.8919    3.8575   10.5535 C   0  0  0  0  0  0  0  0  0  0  0  0
   -3.2426    2.5259   10.7066 N   0  0  0  0  0  0  0  0  0  0  0  0
   -2.2871    1.6134   10.9876 C   0  0  0  0  0  0  0  0  0  0  0  0
   -2.7383    0.2096   11.1726 C   0  0  0  0  0  0  0  0  0  0  0  0
   -0.9378    2.0285   11.0978 C   0  0  0  0  0  0  0  0  0  0  0  0
   -0.6065    3.3910   10.9083 C   0  0  0  0  0  0  0  0  0  0  0  0
   -1.5892    4.2895   10.6356 N   0  0  0  0  0  0  0  0  0  0  0  0
    0.7979    3.8896   11.0044 C   0  0  0  0  0  0  0  0  0  0  0  0
 25 23  1  0  0  0
 23 24  2  0  0  0
 23 22  1  0  0  0
 24 18  1  0  0  0
 22 20  2  0  0  0
 18 17  1  0  0  0
 18 19  2  0  0  0
 17 16  1  0  0  0
 20 19  1  0  0  0
 20 21  1  0  0  0
 16 14  1  0  0  0
 14 15  2  0  0  0
 14  6  1  0  0  0
  7  6  2  0  0  0
  7  3  1  0  0  0
  6  1  1  0  0  0
  3  2  2  0  0  0
  1  5  2  0  0  0
  2  5  1  0  0  0
  2  8  1  0  0  0
  5  4  1  0  0  0
 10  8  1  0  0  0
  9  8  2  0  0  0
  8 11  2  0  0  0
 10 12  1  0  0  0
 10 13  1  0  0  0
M  END
> <minimizedAffinity>
-7.66585

$$$$
4KNI_E1E_A_305


 25 26  0  0  0  0  0  0  0  0999 V2000
   -3.9703    2.9397   14.2307 C   0  0  0  0  0  0  0  0  0  0  0  0
   -5.3526    2.5394   16.2015 C   0  0  0  0  0  0  0  0  0  0  0  0
   -5.7275    3.9002   16.2522 C   0  0  0  0  0  0  0  0  0  0  0  0
   -3.9944    0.3698   15.1937 Cl  0  0  0  0  0  0  0  0  0  0  0  0
   -4.4488    2.0613   15.2253 C   0  0  0  0  0  0  0  0  0  0  0  0
   -4.3803    4.3115   14.2266 C   0  0  0  0  0  0  0  0  0  0  0  0
   -5.2544    4.7914   15.2430 C   0  0  0  0  0  0  0  0  0  0  0  0
   -6.0663    1.4259   17.4434 S   0  0  0  0  0  0  0  0  0  0  0  0
   -5.0993    0.1992   17.6951 O   0  0  0  0  0  0  0  0  0  0  0  0
   -6.2837    2.4163   18.8649 N   0  0  0  0  0  0  0  0  0  0  0  0
   -7.5508    1.0404   16.9229 O   0  0  0  0  0  0  0  0  0  0  0  0
   -5.3719    2.6871   19.2333 H   0  0  0  0  0  0  0  0  0  0  0  0
   -6.7931    1.8876   19.5730 H   0  0  0  0  0  0  0  0  0  0  0  0
   -3.9595    5.2366   13.1352 C   0  0  0  0  0  0  0  0  0  0  0  0
   -2.9333    5.9356   13.3424 O   0  0  0  0  0  0  0  0  0  0  0  0
   -4.5727    5.2579   11.7713 C   0  0  0  0  0  0  0  0  0  0  0  0
   -3.6593    4.0909   10.7313 S   0  0  0  0  0  0  0  0  0  0  0  0
   -4.1322    4.7657    9.1459 C   0  0  0  0  0  0  0  0  0  0  0  0
   -3.1795    4.8428    8.1428 N   0  0  0  0  0  0  0  0  0  0  0  0
   -3.5139    5.3721    6.9459 C   0  0  0  0  0  0  0  0  0  0  0  0
   -2.4346    5.4554    5.9278 C   0  0  0  0  0  0  0  0  0  0  0  0
   -4.8398    5.8182    6.7270 C   0  0  0  0  0  0  0  0  0  0  0  0
   -5.7982    5.7005    7.7614 C   0  0  0  0  0  0  0  0  0  0  0  0
   -5.4321    5.1725    8.9591 N   0  0  0  0  0  0  0  0  0  0  0  0
   -7.2132    6.1460    7.5900 C   0  0  0  0  0  0  0  0  0  0  0  0
 25 23  1  0  0  0
 23 24  2  0  0  0
 23 22  1  0  0  0
 24 18  1  0  0  0
 22 20  2  0  0  0
 18 17  1  0  0  0
 18 19  2  0  0  0
 17 16  1  0  0  0
 20 19  1  0  0  0
 20 21  1  0  0  0
 16 14  1  0  0  0
 14 15  2  0  0  0
 14  6  1  0  0  0
  7  6  2  0  0  0
  7  3  1  0  0  0
  6  1  1  0  0  0
  3  2  2  0  0  0
  1  5  2  0  0  0
  2  5  1  0  0  0
  2  8  1  0  0  0
  5  4  1  0  0  0
 10  8  1  0  0  0
  9  8  2  0  0  0
  8 11  2  0  0  0
 10 12  1  0  0  0
 10 13  1  0  0  0
M  END
> <minimizedAffinity>
-7.66197

$$$$
4KNI_E1E_A_305


 25 26  0  0  0  0  0  0  0  0999 V2000
   -4.3878    4.0221   12.8038 C   0  0  0  0  0  0  0  0  0  0  0  0
   -4.2458    1.9370   14.0637 C   0  0  0  0  0  0  0  0  0  0  0  0
   -4.0285    1.2004   12.8784 C   0  0  0  0  0  0  0  0  0  0  0  0
   -4.7423    4.2186   15.5182 Cl  0  0  0  0  0  0  0  0  0  0  0  0
   -4.4653    3.3332   14.0323 C   0  0  0  0  0  0  0  0  0  0  0  0
   -4.1122    3.3059   11.5951 C   0  0  0  0  0  0  0  0  0  0  0  0
   -3.9394    1.8931   11.6339 C   0  0  0  0  0  0  0  0  0  0  0  0
   -4.2434    1.0236   15.6313 S   0  0  0  0  0  0  0  0  0  0  0  0
   -3.0114    1.4680   16.5188 O   0  0  0  0  0  0  0  0  0  0  0  0
   -5.7791    1.3978   16.3732 N   0  0  0  0  0  0  0  0  0  0  0  0
   -4.2900   -0.5503   15.2517 O   0  0  0  0  0  0  0  0  0  0  0  0
   -5.8003    2.3841   16.6323 H   0  0  0  0  0  0  0  0  0  0  0  0
   -5.9022    0.8243   17.2077 H   0  0  0  0  0  0  0  0  0  0  0  0
   -3.9370    4.0230   10.2993 C   0  0  0  0  0  0  0  0  0  0  0  0
   -4.4771    3.5099    9.2846 O   0  0  0  0  0  0  0  0  0  0  0  0
   -3.3148    5.3766   10.1677 C   0  0  0  0  0  0  0  0  0  0  0  0
   -3.5868    5.9525    8.4729 S   0  0  0  0  0  0  0  0  0  0  0  0
   -5.1020    6.8521    8.7685 C   0  0  0  0  0  0  0  0  0  0  0  0
   -5.6072    6.9026   10.0576 N   0  0  0  0  0  0  0  0  0  0  0  0
   -6.7641    7.5584   10.2945 C   0  0  0  0  0  0  0  0  0  0  0  0
   -7.2656    7.5436   11.6933 C   0  0  0  0  0  0  0  0  0  0  0  0
   -7.4306    8.2046    9.2253 C   0  0  0  0  0  0  0  0  0  0  0  0
   -6.8754    8.1595    7.9245 C   0  0  0  0  0  0  0  0  0  0  0  0
   -5.7148    7.4846    7.7127 N   0  0  0  0  0  0  0  0  0  0  0  0
   -7.5263    8.8264    6.7576 C   0  0  0  0  0  0  0  0  0  0  0  0
 25 23  1  0  0  0
 23 24  2  0  0  0
 23 22  1  0  0  0
 24 18  1  0  0  0
 22 20  2  0  0  0
 18 17  1  0  0  0
 18 19  2  0  0  0
 17 16  1  0  0  0
 20 19  1  0  0  0
 20 21  1  0  0  0
 16 14  1  0  0  0
 14 15  2  0  0  0
 14  6  1  0  0  0
  7  6  2  0  0  0
  7  3  1  0  0  0
  6  1  1  0  0  0
  3  2  2  0  0  0
  1  5  2  0  0  0
  2  5  1  0  0  0
  2  8  1  0  0  0
  5  4  1  0  0  0
 10  8  1  0  0  0
  9  8  2  0  0  0
  8 11  2  0  0  0
 10 12  1  0  0  0
 10 13  1  0  0  0
M  END
> <minimizedAffinity>
-7.48748

$$$$
4KNI_E1E_A_305


 25 26  0  0  0  0  0  0  0  0999 V2000
   -4.1703    3.0594   14.0433 C   0  0  0  0  0  0  0  0  0  0  0  0
   -5.3813    2.5762   16.1060 C   0  0  0  0  0  0  0  0  0  0  0  0
   -5.7361    3.9355   16.2517 C   0  0  0  0  0  0  0  0  0  0  0  0
   -4.1380    0.4474   14.8853 Cl  0  0  0  0  0  0  0  0  0  0  0  0
   -4.5702    2.1385   15.0341 C   0  0  0  0  0  0  0  0  0  0  0  0
   -4.5647    4.4324   14.1380 C   0  0  0  0  0  0  0  0  0  0  0  0
   -5.3426    4.8699   15.2474 C   0  0  0  0  0  0  0  0  0  0  0  0
   -5.9967    1.4104   17.3526 S   0  0  0  0  0  0  0  0  0  0  0  0
   -4.9887    0.2014   17.5124 O   0  0  0  0  0  0  0  0  0  0  0  0
   -6.1550    2.3543   18.8130 N   0  0  0  0  0  0  0  0  0  0  0  0
   -7.4993    1.0032   16.9057 O   0  0  0  0  0  0  0  0  0  0  0  0
   -5.2301    2.6370   19.1371 H   0  0  0  0  0  0  0  0  0  0  0  0
   -6.6107    1.7932   19.5327 H   0  0  0  0  0  0  0  0  0  0  0  0
   -4.2301    5.4049   13.0579 C   0  0  0  0  0  0  0  0  0  0  0  0
   -3.2339    6.1503   13.2486 O   0  0  0  0  0  0  0  0  0  0  0  0
   -4.8915    5.4286   11.7167 C   0  0  0  0  0  0  0  0  0  0  0  0
   -6.2438    6.6305   11.7835 S   0  0  0  0  0  0  0  0  0  0  0  0
   -6.4617    6.8403   10.0225 C   0  0  0  0  0  0  0  0  0  0  0  0
   -5.6224    6.1537    9.1600 N   0  0  0  0  0  0  0  0  0  0  0  0
   -5.7580    6.3192    7.8262 C   0  0  0  0  0  0  0  0  0  0  0  0
   -4.8028    5.5792    6.9612 C   0  0  0  0  0  0  0  0  0  0  0  0
   -6.7717    7.1739    7.3295 C   0  0  0  0  0  0  0  0  0  0  0  0
   -7.6319    7.8400    8.2343 C   0  0  0  0  0  0  0  0  0  0  0  0
   -7.4672    7.6624    9.5717 N   0  0  0  0  0  0  0  0  0  0  0  0
   -8.7237    8.7482    7.7727 C   0  0  0  0  0  0  0  0  0  0  0  0
 25 23  1  0  0  0
 23 24  2  0  0  0
 23 22  1  0  0  0
 24 18  1  0  0  0
 22 20  2  0  0  0
 18 17  1  0  0  0
 18 19  2  0  0  0
 17 16  1  0  0  0
 20 19  1  0  0  0
 20 21  1  0  0  0
 16 14  1  0  0  0
 14 15  2  0  0  0
 14  6  1  0  0  0
  7  6  2  0  0  0
  7  3  1  0  0  0
  6  1  1  0  0  0
  3  2  2  0  0  0
  1  5  2  0  0  0
  2  5  1  0  0  0
  2  8  1  0  0  0
  5  4  1  0  0  0
 10  8  1  0  0  0
  9  8  2  0  0  0
  8 11  2  0  0  0
 10 12  1  0  0  0
 10 13  1  0  0  0
M  END
> <minimizedAffinity>
-7.48142

$$$$
