4LKO_1WH_A_801


 27 29  0  0  0  0  0  0  0  0999 V2000
   50.3341   49.8535   35.0595 C   0  0  0  0  0  0  0  0  0  0  0  0
   48.9811   50.3321   34.6550 C   0  0  0  0  0  0  0  0  0  0  0  0
   47.7210   50.4181   35.3316 C   0  0  0  0  0  0  0  0  0  0  0  0
   46.6833   51.1439   34.6446 C   0  0  0  0  0  0  0  0  0  0  0  0
   45.9556   52.6722   32.8482 C   0  0  0  0  0  0  0  0  0  0  0  0
   46.9987   51.7926   33.4171 C   0  0  0  0  0  0  0  0  0  0  0  0
   48.2194   51.7190   32.8083 N   0  0  0  0  0  0  0  0  0  0  0  0
   49.1730   50.9850   33.4261 C   0  0  0  0  0  0  0  0  0  0  0  0
   50.6139   50.8051   32.9530 C   0  0  0  0  0  0  0  0  0  0  0  0
   51.1782   50.0377   34.0512 N   0  0  0  0  0  0  0  0  0  0  0  0
   50.7509   49.3669   36.1040 O   0  0  0  0  0  0  0  0  0  0  0  0
   47.5359   49.9473   36.7369 C   0  0  0  0  0  0  0  0  0  0  0  0
   47.9659   50.6972   37.8832 C   0  0  0  0  0  0  0  0  0  0  0  0
   48.7558   52.1216   37.8298 Cl  0  0  0  0  0  0  0  0  0  0  0  0
   47.7718   50.3732   39.2448 C   0  0  0  0  0  0  0  0  0  0  0  0
   47.0842   49.1831   39.4163 C   0  0  0  0  0  0  0  0  0  0  0  0
   46.8649   48.8951   41.0151 Cl  0  0  0  0  0  0  0  0  0  0  0  0
   46.6387   48.3428   38.3303 C   0  0  0  0  0  0  0  0  0  0  0  0
   46.8639   48.7229   36.9653 C   0  0  0  0  0  0  0  0  0  0  0  0
   45.2797   52.3432   36.2074 N   0  0  0  0  0  0  0  0  0  0  0  0
   45.2439   51.3330   35.1536 C   0  0  0  0  0  0  0  0  0  0  0  0
   44.3371   52.4925   36.5675 H   0  0  0  0  0  0  0  0  0  0  0  0
   45.6411   53.2181   35.8275 H   0  0  0  0  0  0  0  0  0  0  0  0
   52.4575   49.3348   34.0052 C   0  0  0  0  0  0  0  0  0  0  0  0
   53.4454   50.4659   34.2411 C   0  0  0  0  0  0  0  0  0  0  0  0
   54.1632   50.2331   35.4225 O   0  0  0  0  0  0  0  0  0  0  0  0
   54.1743   48.9322   36.0159 C   0  0  0  0  0  0  0  0  0  0  0  0
 27 26  1  0  0  0
  9  8  1  0  0  0
  9 10  1  0  0  0
  7  8  2  0  0  0
  7  6  1  0  0  0
 25 26  1  0  0  0
 25 24  1  0  0  0
  5  6  1  0  0  0
  8  2  1  0  0  0
 24 10  1  0  0  0
  6  4  2  0  0  0
 10  1  1  0  0  0
  2  1  1  0  0  0
  2  3  2  0  0  0
  1 11  2  0  0  0
  4  3  1  0  0  0
  4 21  1  0  0  0
  3 12  1  0  0  0
 21 20  1  0  0  0
 12 19  2  0  0  0
 12 13  1  0  0  0
 19 18  1  0  0  0
 14 13  1  0  0  0
 13 15  2  0  0  0
 18 16  2  0  0  0
 15 16  1  0  0  0
 16 17  1  0  0  0
 20 22  1  0  0  0
 20 23  1  0  0  0
M  END
> <minimizedAffinity>
-7.28076

$$$$
4LKO_1WH_A_801


 27 29  0  0  0  0  0  0  0  0999 V2000
   50.3737   51.3417   33.6342 C   0  0  0  0  0  0  0  0  0  0  0  0
   49.2652   51.1556   34.6140 C   0  0  0  0  0  0  0  0  0  0  0  0
   47.8383   51.1072   34.4932 C   0  0  0  0  0  0  0  0  0  0  0  0
   47.1181   50.6972   35.6717 C   0  0  0  0  0  0  0  0  0  0  0  0
   47.0779   49.7024   37.9303 C   0  0  0  0  0  0  0  0  0  0  0  0
   47.8568   50.2852   36.8172 C   0  0  0  0  0  0  0  0  0  0  0  0
   49.2203   50.3130   36.8948 N   0  0  0  0  0  0  0  0  0  0  0  0
   49.8907   50.7573   35.8072 C   0  0  0  0  0  0  0  0  0  0  0  0
   51.4087   50.8280   35.6556 C   0  0  0  0  0  0  0  0  0  0  0  0
   51.5349   51.2578   34.2726 N   0  0  0  0  0  0  0  0  0  0  0  0
   50.3718   51.5322   32.4237 O   0  0  0  0  0  0  0  0  0  0  0  0
   47.1413   51.2910   33.1851 C   0  0  0  0  0  0  0  0  0  0  0  0
   46.8198   50.2048   32.3030 C   0  0  0  0  0  0  0  0  0  0  0  0
   47.2062   48.6426   32.5593 Cl  0  0  0  0  0  0  0  0  0  0  0  0
   46.1023   50.2680   31.0874 C   0  0  0  0  0  0  0  0  0  0  0  0
   45.6976   51.5551   30.7741 C   0  0  0  0  0  0  0  0  0  0  0  0
   44.8419   51.5423   29.3760 Cl  0  0  0  0  0  0  0  0  0  0  0  0
   45.9984   52.7157   31.5782 C   0  0  0  0  0  0  0  0  0  0  0  0
   46.7317   52.5913   32.8051 C   0  0  0  0  0  0  0  0  0  0  0  0
   45.0941   51.9483   36.1063 N   0  0  0  0  0  0  0  0  0  0  0  0
   45.5870   50.6099   35.7929 C   0  0  0  0  0  0  0  0  0  0  0  0
   44.0781   51.9246   36.1936 H   0  0  0  0  0  0  0  0  0  0  0  0
   45.3562   52.5909   35.3588 H   0  0  0  0  0  0  0  0  0  0  0  0
   52.7628   51.7667   33.6673 C   0  0  0  0  0  0  0  0  0  0  0  0
   53.2169   52.7918   34.6940 C   0  0  0  0  0  0  0  0  0  0  0  0
   52.5455   54.0046   34.4858 O   0  0  0  0  0  0  0  0  0  0  0  0
   53.0196   55.2065   35.0983 C   0  0  0  0  0  0  0  0  0  0  0  0
 27 26  1  0  0  0
  9  8  1  0  0  0
  9 10  1  0  0  0
  7  8  2  0  0  0
  7  6  1  0  0  0
 25 26  1  0  0  0
 25 24  1  0  0  0
  5  6  1  0  0  0
  8  2  1  0  0  0
 24 10  1  0  0  0
  6  4  2  0  0  0
 10  1  1  0  0  0
  2  1  1  0  0  0
  2  3  2  0  0  0
  1 11  2  0  0  0
  4  3  1  0  0  0
  4 21  1  0  0  0
  3 12  1  0  0  0
 21 20  1  0  0  0
 12 19  2  0  0  0
 12 13  1  0  0  0
 19 18  1  0  0  0
 14 13  1  0  0  0
 13 15  2  0  0  0
 18 16  2  0  0  0
 15 16  1  0  0  0
 16 17  1  0  0  0
 20 22  1  0  0  0
 20 23  1  0  0  0
M  END
> <minimizedAffinity>
-6.75111

$$$$
4LKO_1WH_A_801


 27 29  0  0  0  0  0  0  0  0999 V2000
   46.2794   48.9373   33.7621 C   0  0  0  0  0  0  0  0  0  0  0  0
   45.8525   49.0311   32.3366 C   0  0  0  0  0  0  0  0  0  0  0  0
   46.2245   48.3260   31.1459 C   0  0  0  0  0  0  0  0  0  0  0  0
   45.4157   48.5818   29.9815 C   0  0  0  0  0  0  0  0  0  0  0  0
   43.3769   49.5033   28.9392 C   0  0  0  0  0  0  0  0  0  0  0  0
   44.2727   49.4207   30.1122 C   0  0  0  0  0  0  0  0  0  0  0  0
   43.9235   50.0576   31.2692 N   0  0  0  0  0  0  0  0  0  0  0  0
   44.7211   49.8637   32.3444 C   0  0  0  0  0  0  0  0  0  0  0  0
   44.4965   50.4347   33.7429 C   0  0  0  0  0  0  0  0  0  0  0  0
   45.5779   49.8046   34.4824 N   0  0  0  0  0  0  0  0  0  0  0  0
   47.1053   48.2271   34.3235 O   0  0  0  0  0  0  0  0  0  0  0  0
   47.2667   47.2561   31.1447 C   0  0  0  0  0  0  0  0  0  0  0  0
   48.6443   47.4972   30.8199 C   0  0  0  0  0  0  0  0  0  0  0  0
   49.2617   48.9327   30.3578 Cl  0  0  0  0  0  0  0  0  0  0  0  0
   49.7118   46.5725   30.8614 C   0  0  0  0  0  0  0  0  0  0  0  0
   49.3084   45.3111   31.2671 C   0  0  0  0  0  0  0  0  0  0  0  0
   50.6033   44.3076   31.3273 Cl  0  0  0  0  0  0  0  0  0  0  0  0
   47.9442   44.9614   31.5842 C   0  0  0  0  0  0  0  0  0  0  0  0
   46.8997   45.9432   31.5247 C   0  0  0  0  0  0  0  0  0  0  0  0
   46.6732   48.7748   27.9243 N   0  0  0  0  0  0  0  0  0  0  0  0
   45.6471   47.9746   28.5871 C   0  0  0  0  0  0  0  0  0  0  0  0
   46.8506   48.3969   26.9936 H   0  0  0  0  0  0  0  0  0  0  0  0
   47.5330   48.7468   28.4723 H   0  0  0  0  0  0  0  0  0  0  0  0
   46.0241   50.2100   35.8127 C   0  0  0  0  0  0  0  0  0  0  0  0
   46.8096   51.4754   35.5077 C   0  0  0  0  0  0  0  0  0  0  0  0
   47.1764   52.1084   36.7035 O   0  0  0  0  0  0  0  0  0  0  0  0
   48.5147   52.0019   37.1954 C   0  0  0  0  0  0  0  0  0  0  0  0
 27 26  1  0  0  0
  9  8  1  0  0  0
  9 10  1  0  0  0
  7  8  2  0  0  0
  7  6  1  0  0  0
 25 26  1  0  0  0
 25 24  1  0  0  0
  5  6  1  0  0  0
  8  2  1  0  0  0
 24 10  1  0  0  0
  6  4  2  0  0  0
 10  1  1  0  0  0
  2  1  1  0  0  0
  2  3  2  0  0  0
  1 11  2  0  0  0
  4  3  1  0  0  0
  4 21  1  0  0  0
  3 12  1  0  0  0
 21 20  1  0  0  0
 12 19  2  0  0  0
 12 13  1  0  0  0
 19 18  1  0  0  0
 14 13  1  0  0  0
 13 15  2  0  0  0
 18 16  2  0  0  0
 15 16  1  0  0  0
 16 17  1  0  0  0
 20 22  1  0  0  0
 20 23  1  0  0  0
M  END
> <minimizedAffinity>
-6.50614

$$$$
4LKO_1WH_A_801


 27 29  0  0  0  0  0  0  0  0999 V2000
   47.9627   47.3547   31.9157 C   0  0  0  0  0  0  0  0  0  0  0  0
   46.6753   48.0916   31.7639 C   0  0  0  0  0  0  0  0  0  0  0  0
   46.0080   49.0859   32.5507 C   0  0  0  0  0  0  0  0  0  0  0  0
   44.8576   49.7048   31.9432 C   0  0  0  0  0  0  0  0  0  0  0  0
   43.4546   50.1609   29.9644 C   0  0  0  0  0  0  0  0  0  0  0  0
   44.5270   49.3666   30.6002 C   0  0  0  0  0  0  0  0  0  0  0  0
   45.2000   48.4352   29.8615 N   0  0  0  0  0  0  0  0  0  0  0  0
   46.2419   47.8115   30.4573 C   0  0  0  0  0  0  0  0  0  0  0  0
   47.1592   46.7774   29.8080 C   0  0  0  0  0  0  0  0  0  0  0  0
   48.1358   46.5636   30.8635 N   0  0  0  0  0  0  0  0  0  0  0  0
   48.8206   47.3789   32.7903 O   0  0  0  0  0  0  0  0  0  0  0  0
   46.5646   49.5871   33.8429 C   0  0  0  0  0  0  0  0  0  0  0  0
   47.4701   50.6976   33.9338 C   0  0  0  0  0  0  0  0  0  0  0  0
   48.0628   51.5309   32.6650 Cl  0  0  0  0  0  0  0  0  0  0  0  0
   47.9904   51.2888   35.1070 C   0  0  0  0  0  0  0  0  0  0  0  0
   47.5340   50.6734   36.2610 C   0  0  0  0  0  0  0  0  0  0  0  0
   48.1481   51.4359   37.5758 Cl  0  0  0  0  0  0  0  0  0  0  0  0
   46.6492   49.5329   36.2735 C   0  0  0  0  0  0  0  0  0  0  0  0
   46.1514   48.9738   35.0495 C   0  0  0  0  0  0  0  0  0  0  0  0
   42.9950   50.0586   33.4454 N   0  0  0  0  0  0  0  0  0  0  0  0
   43.9622   50.7639   32.6089 C   0  0  0  0  0  0  0  0  0  0  0  0
   42.3838   50.7352   33.9027 H   0  0  0  0  0  0  0  0  0  0  0  0
   43.4897   49.5149   34.1525 H   0  0  0  0  0  0  0  0  0  0  0  0
   49.0901   45.4587   30.9038 C   0  0  0  0  0  0  0  0  0  0  0  0
   48.4175   44.4306   30.0084 C   0  0  0  0  0  0  0  0  0  0  0  0
   49.3015   43.3743   29.7482 O   0  0  0  0  0  0  0  0  0  0  0  0
   50.0987   43.3761   28.5612 C   0  0  0  0  0  0  0  0  0  0  0  0
 27 26  1  0  0  0
  9  8  1  0  0  0
  9 10  1  0  0  0
  7  8  2  0  0  0
  7  6  1  0  0  0
 25 26  1  0  0  0
 25 24  1  0  0  0
  5  6  1  0  0  0
  8  2  1  0  0  0
 24 10  1  0  0  0
  6  4  2  0  0  0
 10  1  1  0  0  0
  2  1  1  0  0  0
  2  3  2  0  0  0
  1 11  2  0  0  0
  4  3  1  0  0  0
  4 21  1  0  0  0
  3 12  1  0  0  0
 21 20  1  0  0  0
 12 19  2  0  0  0
 12 13  1  0  0  0
 19 18  1  0  0  0
 14 13  1  0  0  0
 13 15  2  0  0  0
 18 16  2  0  0  0
 15 16  1  0  0  0
 16 17  1  0  0  0
 20 22  1  0  0  0
 20 23  1  0  0  0
M  END
> <minimizedAffinity>
-6.47892

$$$$
4LKO_1WH_A_801


 27 29  0  0  0  0  0  0  0  0999 V2000
   50.1288   50.4142   33.5048 C   0  0  0  0  0  0  0  0  0  0  0  0
   49.0507   50.4852   34.5324 C   0  0  0  0  0  0  0  0  0  0  0  0
   47.6449   50.7558   34.4717 C   0  0  0  0  0  0  0  0  0  0  0  0
   46.9038   50.5231   35.6850 C   0  0  0  0  0  0  0  0  0  0  0  0
   46.7420   49.5742   37.9579 C   0  0  0  0  0  0  0  0  0  0  0  0
   47.5816   49.9627   36.8048 C   0  0  0  0  0  0  0  0  0  0  0  0
   48.9191   49.6860   36.8254 N   0  0  0  0  0  0  0  0  0  0  0  0
   49.6233   49.9637   35.7044 C   0  0  0  0  0  0  0  0  0  0  0  0
   51.1109   49.6931   35.4889 C   0  0  0  0  0  0  0  0  0  0  0  0
   51.2690   50.0767   34.0957 N   0  0  0  0  0  0  0  0  0  0  0  0
   50.1164   50.5939   32.2927 O   0  0  0  0  0  0  0  0  0  0  0  0
   46.9498   51.0836   33.1910 C   0  0  0  0  0  0  0  0  0  0  0  0
   46.2920   50.1011   32.3766 C   0  0  0  0  0  0  0  0  0  0  0  0
   46.2497   48.5018   32.6865 Cl  0  0  0  0  0  0  0  0  0  0  0  0
   45.5495   50.3216   31.1948 C   0  0  0  0  0  0  0  0  0  0  0  0
   45.4955   51.6599   30.8416 C   0  0  0  0  0  0  0  0  0  0  0  0
   44.5887   51.8397   29.4879 Cl  0  0  0  0  0  0  0  0  0  0  0  0
   46.1492   52.7170   31.5758 C   0  0  0  0  0  0  0  0  0  0  0  0
   46.8907   52.4337   32.7709 C   0  0  0  0  0  0  0  0  0  0  0  0
   45.2217   52.2127   36.0929 N   0  0  0  0  0  0  0  0  0  0  0  0
   45.3985   50.7802   35.8709 C   0  0  0  0  0  0  0  0  0  0  0  0
   44.2305   52.4172   36.2203 H   0  0  0  0  0  0  0  0  0  0  0  0
   45.5742   52.7279   35.2863 H   0  0  0  0  0  0  0  0  0  0  0  0
   52.5516   50.2956   33.4324 C   0  0  0  0  0  0  0  0  0  0  0  0
   53.0819   51.5147   34.1698 C   0  0  0  0  0  0  0  0  0  0  0  0
   54.4304   51.3224   34.5007 O   0  0  0  0  0  0  0  0  0  0  0  0
   54.8020   50.3440   35.4751 C   0  0  0  0  0  0  0  0  0  0  0  0
 27 26  1  0  0  0
  9  8  1  0  0  0
  9 10  1  0  0  0
  7  8  2  0  0  0
  7  6  1  0  0  0
 25 26  1  0  0  0
 25 24  1  0  0  0
  5  6  1  0  0  0
  8  2  1  0  0  0
 24 10  1  0  0  0
  6  4  2  0  0  0
 10  1  1  0  0  0
  2  1  1  0  0  0
  2  3  2  0  0  0
  1 11  2  0  0  0
  4  3  1  0  0  0
  4 21  1  0  0  0
  3 12  1  0  0  0
 21 20  1  0  0  0
 12 19  2  0  0  0
 12 13  1  0  0  0
 19 18  1  0  0  0
 14 13  1  0  0  0
 13 15  2  0  0  0
 18 16  2  0  0  0
 15 16  1  0  0  0
 16 17  1  0  0  0
 20 22  1  0  0  0
 20 23  1  0  0  0
M  END
> <minimizedAffinity>
-6.39765

$$$$
4LKO_1WH_A_801


 27 29  0  0  0  0  0  0  0  0999 V2000
   47.6402   47.2947   31.5940 C   0  0  0  0  0  0  0  0  0  0  0  0
   46.3792   48.0489   31.3403 C   0  0  0  0  0  0  0  0  0  0  0  0
   45.6656   49.0537   32.0712 C   0  0  0  0  0  0  0  0  0  0  0  0
   44.5755   49.6873   31.3742 C   0  0  0  0  0  0  0  0  0  0  0  0
   43.3397   50.1590   29.2903 C   0  0  0  0  0  0  0  0  0  0  0  0
   44.3474   49.3512   30.0095 C   0  0  0  0  0  0  0  0  0  0  0  0
   45.0637   48.4094   29.3270 N   0  0  0  0  0  0  0  0  0  0  0  0
   46.0466   47.7724   30.0038 C   0  0  0  0  0  0  0  0  0  0  0  0
   46.9980   46.7247   29.4297 C   0  0  0  0  0  0  0  0  0  0  0  0
   47.8849   46.4994   30.5593 N   0  0  0  0  0  0  0  0  0  0  0  0
   48.4266   47.3087   32.5336 O   0  0  0  0  0  0  0  0  0  0  0  0
   46.1252   49.5497   33.4029 C   0  0  0  0  0  0  0  0  0  0  0  0
   46.1119   48.7450   34.5919 C   0  0  0  0  0  0  0  0  0  0  0  0
   45.5533   47.2169   34.6840 Cl  0  0  0  0  0  0  0  0  0  0  0  0
   46.5910   49.0971   35.8737 C   0  0  0  0  0  0  0  0  0  0  0  0
   47.1159   50.3783   35.9127 C   0  0  0  0  0  0  0  0  0  0  0  0
   47.6839   50.6991   37.4165 Cl  0  0  0  0  0  0  0  0  0  0  0  0
   47.1458   51.2747   34.7815 C   0  0  0  0  0  0  0  0  0  0  0  0
   46.6445   50.8624   33.5020 C   0  0  0  0  0  0  0  0  0  0  0  0
   42.6669   50.0766   32.8083 N   0  0  0  0  0  0  0  0  0  0  0  0
   43.6450   50.7598   31.9662 C   0  0  0  0  0  0  0  0  0  0  0  0
   42.0325   50.7625   33.2175 H   0  0  0  0  0  0  0  0  0  0  0  0
   43.1509   49.5745   33.5527 H   0  0  0  0  0  0  0  0  0  0  0  0
   48.8177   45.3816   30.6758 C   0  0  0  0  0  0  0  0  0  0  0  0
   48.0660   44.2701   29.9610 C   0  0  0  0  0  0  0  0  0  0  0  0
   48.9758   43.3550   29.4136 O   0  0  0  0  0  0  0  0  0  0  0  0
   48.8335   42.9180   28.0595 C   0  0  0  0  0  0  0  0  0  0  0  0
 27 26  1  0  0  0
  9  8  1  0  0  0
  9 10  1  0  0  0
  7  8  2  0  0  0
  7  6  1  0  0  0
 25 26  1  0  0  0
 25 24  1  0  0  0
  5  6  1  0  0  0
  8  2  1  0  0  0
 24 10  1  0  0  0
  6  4  2  0  0  0
 10  1  1  0  0  0
  2  1  1  0  0  0
  2  3  2  0  0  0
  1 11  2  0  0  0
  4  3  1  0  0  0
  4 21  1  0  0  0
  3 12  1  0  0  0
 21 20  1  0  0  0
 12 19  2  0  0  0
 12 13  1  0  0  0
 19 18  1  0  0  0
 14 13  1  0  0  0
 13 15  2  0  0  0
 18 16  2  0  0  0
 15 16  1  0  0  0
 16 17  1  0  0  0
 20 22  1  0  0  0
 20 23  1  0  0  0
M  END
> <minimizedAffinity>
-6.21495

$$$$
4LKO_1WH_A_801


 27 29  0  0  0  0  0  0  0  0999 V2000
   49.6857   49.2861   33.0637 C   0  0  0  0  0  0  0  0  0  0  0  0
   49.3466   47.8994   32.6330 C   0  0  0  0  0  0  0  0  0  0  0  0
   48.1380   47.2714   32.1881 C   0  0  0  0  0  0  0  0  0  0  0  0
   48.2763   45.9382   31.6598 C   0  0  0  0  0  0  0  0  0  0  0  0
   49.6836   44.0951   30.8144 C   0  0  0  0  0  0  0  0  0  0  0  0
   49.5819   45.3855   31.5284 C   0  0  0  0  0  0  0  0  0  0  0  0
   50.7219   46.0197   31.9337 N   0  0  0  0  0  0  0  0  0  0  0  0
   50.5817   47.2464   32.4861 C   0  0  0  0  0  0  0  0  0  0  0  0
   51.7162   48.1510   32.9628 C   0  0  0  0  0  0  0  0  0  0  0  0
   50.9837   49.3499   33.3362 N   0  0  0  0  0  0  0  0  0  0  0  0
   49.0020   50.2962   33.1813 O   0  0  0  0  0  0  0  0  0  0  0  0
   46.8408   48.0069   32.1033 C   0  0  0  0  0  0  0  0  0  0  0  0
   45.9565   48.1781   33.2213 C   0  0  0  0  0  0  0  0  0  0  0  0
   46.1977   47.5626   34.7108 Cl  0  0  0  0  0  0  0  0  0  0  0  0
   44.7514   48.9148   33.2593 C   0  0  0  0  0  0  0  0  0  0  0  0
   44.4518   49.5088   32.0444 C   0  0  0  0  0  0  0  0  0  0  0  0
   43.0656   50.3738   32.1771 Cl  0  0  0  0  0  0  0  0  0  0  0  0
   45.2589   49.3701   30.8556 C   0  0  0  0  0  0  0  0  0  0  0  0
   46.4747   48.6087   30.8758 C   0  0  0  0  0  0  0  0  0  0  0  0
   46.4937   44.4487   32.3340 N   0  0  0  0  0  0  0  0  0  0  0  0
   47.1197   45.0545   31.1620 C   0  0  0  0  0  0  0  0  0  0  0  0
   45.7199   43.8542   32.0371 H   0  0  0  0  0  0  0  0  0  0  0  0
   46.1422   45.1825   32.9491 H   0  0  0  0  0  0  0  0  0  0  0  0
   51.5311   50.4471   34.1296 C   0  0  0  0  0  0  0  0  0  0  0  0
   51.6615   49.8068   35.5023 C   0  0  0  0  0  0  0  0  0  0  0  0
   51.0997   50.6456   36.4747 O   0  0  0  0  0  0  0  0  0  0  0  0
   49.9220   51.4020   36.1823 C   0  0  0  0  0  0  0  0  0  0  0  0
 27 26  1  0  0  0
  9  8  1  0  0  0
  9 10  1  0  0  0
  7  8  2  0  0  0
  7  6  1  0  0  0
 25 26  1  0  0  0
 25 24  1  0  0  0
  5  6  1  0  0  0
  8  2  1  0  0  0
 24 10  1  0  0  0
  6  4  2  0  0  0
 10  1  1  0  0  0
  2  1  1  0  0  0
  2  3  2  0  0  0
  1 11  2  0  0  0
  4  3  1  0  0  0
  4 21  1  0  0  0
  3 12  1  0  0  0
 21 20  1  0  0  0
 12 19  2  0  0  0
 12 13  1  0  0  0
 19 18  1  0  0  0
 14 13  1  0  0  0
 13 15  2  0  0  0
 18 16  2  0  0  0
 15 16  1  0  0  0
 16 17  1  0  0  0
 20 22  1  0  0  0
 20 23  1  0  0  0
M  END
> <minimizedAffinity>
-6.03757

$$$$
4LKO_1WH_A_801


 27 29  0  0  0  0  0  0  0  0999 V2000
   50.1346   50.7659   33.3100 C   0  0  0  0  0  0  0  0  0  0  0  0
   49.2219   50.8984   34.4816 C   0  0  0  0  0  0  0  0  0  0  0  0
   47.8224   50.6593   34.6751 C   0  0  0  0  0  0  0  0  0  0  0  0
   47.3548   50.7132   36.0367 C   0  0  0  0  0  0  0  0  0  0  0  0
   47.8013   50.7635   38.4637 C   0  0  0  0  0  0  0  0  0  0  0  0
   48.3051   50.8990   37.0805 C   0  0  0  0  0  0  0  0  0  0  0  0
   49.6404   51.0949   36.8691 N   0  0  0  0  0  0  0  0  0  0  0  0
   50.0661   51.1053   35.5852 C   0  0  0  0  0  0  0  0  0  0  0  0
   51.5128   51.2590   35.1207 C   0  0  0  0  0  0  0  0  0  0  0  0
   51.3697   51.0768   33.6855 N   0  0  0  0  0  0  0  0  0  0  0  0
   49.9322   50.4276   32.1497 O   0  0  0  0  0  0  0  0  0  0  0  0
   46.9300   50.2035   33.5676 C   0  0  0  0  0  0  0  0  0  0  0  0
   46.2713   51.1040   32.6639 C   0  0  0  0  0  0  0  0  0  0  0  0
   46.3480   52.7301   32.7383 Cl  0  0  0  0  0  0  0  0  0  0  0  0
   45.4720   50.7699   31.5477 C   0  0  0  0  0  0  0  0  0  0  0  0
   45.3527   49.4016   31.3685 C   0  0  0  0  0  0  0  0  0  0  0  0
   44.4467   49.0938   30.0375 Cl  0  0  0  0  0  0  0  0  0  0  0  0
   45.9491   48.4169   32.2395 C   0  0  0  0  0  0  0  0  0  0  0  0
   46.7522   48.8150   33.3597 C   0  0  0  0  0  0  0  0  0  0  0  0
   45.1944   51.7852   36.2217 N   0  0  0  0  0  0  0  0  0  0  0  0
   45.8940   50.5303   36.4831 C   0  0  0  0  0  0  0  0  0  0  0  0
   44.2193   51.6968   36.5078 H   0  0  0  0  0  0  0  0  0  0  0  0
   45.2384   51.9978   35.2251 H   0  0  0  0  0  0  0  0  0  0  0  0
   52.3944   51.4050   32.6980 C   0  0  0  0  0  0  0  0  0  0  0  0
   53.6738   51.1917   33.4910 C   0  0  0  0  0  0  0  0  0  0  0  0
   54.5693   52.2410   33.2420 O   0  0  0  0  0  0  0  0  0  0  0  0
   54.1500   53.5994   33.3948 C   0  0  0  0  0  0  0  0  0  0  0  0
 27 26  1  0  0  0
  9  8  1  0  0  0
  9 10  1  0  0  0
  7  8  2  0  0  0
  7  6  1  0  0  0
 25 26  1  0  0  0
 25 24  1  0  0  0
  5  6  1  0  0  0
  8  2  1  0  0  0
 24 10  1  0  0  0
  6  4  2  0  0  0
 10  1  1  0  0  0
  2  1  1  0  0  0
  2  3  2  0  0  0
  1 11  2  0  0  0
  4  3  1  0  0  0
  4 21  1  0  0  0
  3 12  1  0  0  0
 21 20  1  0  0  0
 12 19  2  0  0  0
 12 13  1  0  0  0
 19 18  1  0  0  0
 14 13  1  0  0  0
 13 15  2  0  0  0
 18 16  2  0  0  0
 15 16  1  0  0  0
 16 17  1  0  0  0
 20 22  1  0  0  0
 20 23  1  0  0  0
M  END
> <minimizedAffinity>
-5.94681

$$$$
4LKO_1WH_A_801


 27 29  0  0  0  0  0  0  0  0999 V2000
   49.5484   50.3870   33.9021 C   0  0  0  0  0  0  0  0  0  0  0  0
   49.4218   49.0229   33.3133 C   0  0  0  0  0  0  0  0  0  0  0  0
   48.3500   48.3192   32.6735 C   0  0  0  0  0  0  0  0  0  0  0  0
   48.6991   47.0683   32.0500 C   0  0  0  0  0  0  0  0  0  0  0  0
   50.3948   45.4785   31.2195 C   0  0  0  0  0  0  0  0  0  0  0  0
   50.0666   46.6723   32.0273 C   0  0  0  0  0  0  0  0  0  0  0  0
   51.0742   47.3788   32.6203 N   0  0  0  0  0  0  0  0  0  0  0  0
   50.7330   48.5219   33.2581 C   0  0  0  0  0  0  0  0  0  0  0  0
   51.6959   49.4881   33.9449 C   0  0  0  0  0  0  0  0  0  0  0  0
   50.7927   50.5593   34.3324 N   0  0  0  0  0  0  0  0  0  0  0  0
   48.7432   51.3023   34.0259 O   0  0  0  0  0  0  0  0  0  0  0  0
   46.9932   48.9188   32.4995 C   0  0  0  0  0  0  0  0  0  0  0  0
   45.8963   48.6596   33.3889 C   0  0  0  0  0  0  0  0  0  0  0  0
   45.9434   47.6495   34.6668 Cl  0  0  0  0  0  0  0  0  0  0  0  0
   44.6050   49.2321   33.3510 C   0  0  0  0  0  0  0  0  0  0  0  0
   44.4523   50.1334   32.3104 C   0  0  0  0  0  0  0  0  0  0  0  0
   42.9474   50.7816   32.3548 Cl  0  0  0  0  0  0  0  0  0  0  0  0
   45.4828   50.4374   31.3461 C   0  0  0  0  0  0  0  0  0  0  0  0
   46.7772   49.8249   31.4341 C   0  0  0  0  0  0  0  0  0  0  0  0
   47.0614   45.3172   32.3700 N   0  0  0  0  0  0  0  0  0  0  0  0
   47.7142   46.1224   31.3415 C   0  0  0  0  0  0  0  0  0  0  0  0
   46.3994   44.6770   31.9314 H   0  0  0  0  0  0  0  0  0  0  0  0
   46.5644   45.9296   33.0168 H   0  0  0  0  0  0  0  0  0  0  0  0
   51.1192   51.6223   35.2792 C   0  0  0  0  0  0  0  0  0  0  0  0
   52.3586   52.2352   34.6474 C   0  0  0  0  0  0  0  0  0  0  0  0
   52.2501   53.6328   34.6437 O   0  0  0  0  0  0  0  0  0  0  0  0
   53.3921   54.4461   34.9248 C   0  0  0  0  0  0  0  0  0  0  0  0
 27 26  1  0  0  0
  9  8  1  0  0  0
  9 10  1  0  0  0
  7  8  2  0  0  0
  7  6  1  0  0  0
 25 26  1  0  0  0
 25 24  1  0  0  0
  5  6  1  0  0  0
  8  2  1  0  0  0
 24 10  1  0  0  0
  6  4  2  0  0  0
 10  1  1  0  0  0
  2  1  1  0  0  0
  2  3  2  0  0  0
  1 11  2  0  0  0
  4  3  1  0  0  0
  4 21  1  0  0  0
  3 12  1  0  0  0
 21 20  1  0  0  0
 12 19  2  0  0  0
 12 13  1  0  0  0
 19 18  1  0  0  0
 14 13  1  0  0  0
 13 15  2  0  0  0
 18 16  2  0  0  0
 15 16  1  0  0  0
 16 17  1  0  0  0
 20 22  1  0  0  0
 20 23  1  0  0  0
M  END
> <minimizedAffinity>
-5.85154

$$$$
4LKO_1WH_A_801


 27 29  0  0  0  0  0  0  0  0999 V2000
   49.7569   49.6753   33.0338 C   0  0  0  0  0  0  0  0  0  0  0  0
   48.8786   50.0072   34.1922 C   0  0  0  0  0  0  0  0  0  0  0  0
   47.4695   50.2261   34.3322 C   0  0  0  0  0  0  0  0  0  0  0  0
   46.9763   50.3228   35.6823 C   0  0  0  0  0  0  0  0  0  0  0  0
   47.2912   50.0320   38.1131 C   0  0  0  0  0  0  0  0  0  0  0  0
   47.8812   50.1034   36.7595 C   0  0  0  0  0  0  0  0  0  0  0  0
   49.2165   49.8662   36.5963 N   0  0  0  0  0  0  0  0  0  0  0  0
   49.6871   49.8376   35.3285 C   0  0  0  0  0  0  0  0  0  0  0  0
   51.1268   49.5441   34.9120 C   0  0  0  0  0  0  0  0  0  0  0  0
   51.0052   49.5329   33.4634 N   0  0  0  0  0  0  0  0  0  0  0  0
   49.5147   49.5150   31.8434 O   0  0  0  0  0  0  0  0  0  0  0  0
   46.5348   50.1775   33.1682 C   0  0  0  0  0  0  0  0  0  0  0  0
   46.1499   51.3386   32.4166 C   0  0  0  0  0  0  0  0  0  0  0  0
   46.6182   52.8650   32.7430 Cl  0  0  0  0  0  0  0  0  0  0  0  0
   45.3354   51.3848   31.2629 C   0  0  0  0  0  0  0  0  0  0  0  0
   44.8926   50.1316   30.8730 C   0  0  0  0  0  0  0  0  0  0  0  0
   43.9892   50.2617   29.5114 Cl  0  0  0  0  0  0  0  0  0  0  0  0
   45.1978   48.9102   31.5794 C   0  0  0  0  0  0  0  0  0  0  0  0
   46.0315   48.9237   32.7470 C   0  0  0  0  0  0  0  0  0  0  0  0
   45.2972   52.0363   35.9910 N   0  0  0  0  0  0  0  0  0  0  0  0
   45.5147   50.5949   36.0778 C   0  0  0  0  0  0  0  0  0  0  0  0
   44.3337   52.2508   36.2481 H   0  0  0  0  0  0  0  0  0  0  0  0
   45.4721   52.3497   35.0363 H   0  0  0  0  0  0  0  0  0  0  0  0
   52.1297   49.5835   32.5328 C   0  0  0  0  0  0  0  0  0  0  0  0
   53.1394   48.6718   33.2113 C   0  0  0  0  0  0  0  0  0  0  0  0
   52.9153   47.3426   32.8265 O   0  0  0  0  0  0  0  0  0  0  0  0
   52.6910   47.0170   31.4523 C   0  0  0  0  0  0  0  0  0  0  0  0
 27 26  1  0  0  0
  9  8  1  0  0  0
  9 10  1  0  0  0
  7  8  2  0  0  0
  7  6  1  0  0  0
 25 26  1  0  0  0
 25 24  1  0  0  0
  5  6  1  0  0  0
  8  2  1  0  0  0
 24 10  1  0  0  0
  6  4  2  0  0  0
 10  1  1  0  0  0
  2  1  1  0  0  0
  2  3  2  0  0  0
  1 11  2  0  0  0
  4  3  1  0  0  0
  4 21  1  0  0  0
  3 12  1  0  0  0
 21 20  1  0  0  0
 12 19  2  0  0  0
 12 13  1  0  0  0
 19 18  1  0  0  0
 14 13  1  0  0  0
 13 15  2  0  0  0
 18 16  2  0  0  0
 15 16  1  0  0  0
 16 17  1  0  0  0
 20 22  1  0  0  0
 20 23  1  0  0  0
M  END
> <minimizedAffinity>
-5.81078

$$$$
