2WR8_SAH_A_1257


 33 35  0  0  0  0  0  0  0  0999 V2000
   14.5488  -48.1857    5.0965 C   0  0  0  0  0  0  0  0  0  0  0  0
   15.2517  -47.7904    6.2937 O   0  0  0  0  0  0  0  0  0  0  0  0
   13.0693  -48.2106    5.5228 C   0  0  0  0  0  0  0  0  0  0  0  0
   12.3574  -49.2019    4.7911 O   0  0  0  0  0  0  0  0  0  0  0  0
   13.1525  -48.4988    7.0446 C   0  0  0  0  0  0  0  0  0  0  0  0
   12.5274  -49.7561    7.3412 O   0  0  0  0  0  0  0  0  0  0  0  0
   14.6734  -48.5173    7.3665 C   0  0  0  0  0  0  0  0  0  0  0  0
   12.7826  -50.0646    4.9172 H   0  0  0  0  0  0  0  0  0  0  0  0
   12.9551  -50.4590    6.8275 H   0  0  0  0  0  0  0  0  0  0  0  0
   14.8952  -47.6760    8.5780 N   0  0  0  0  0  0  0  0  0  0  0  0
   14.8105  -46.3208    8.6570 C   0  0  0  0  0  0  0  0  0  0  0  0
   15.0730  -45.9212    9.9230 N   0  0  0  0  0  0  0  0  0  0  0  0
   15.3441  -47.0332   10.6296 C   0  0  0  0  0  0  0  0  0  0  0  0
   15.6808  -47.2281   11.9755 C   0  0  0  0  0  0  0  0  0  0  0  0
   15.7531  -46.1796   12.8499 N   0  0  0  0  0  0  0  0  0  0  0  0
   15.9169  -48.4858   12.3917 N   0  0  0  0  0  0  0  0  0  0  0  0
   15.8247  -49.5339   11.5482 C   0  0  0  0  0  0  0  0  0  0  0  0
   15.5307  -49.3938   10.2392 N   0  0  0  0  0  0  0  0  0  0  0  0
   15.2616  -48.1336    9.7700 C   0  0  0  0  0  0  0  0  0  0  0  0
   15.5785  -45.2632   12.5352 H   0  0  0  0  0  0  0  0  0  0  0  0
   15.9797  -46.3409   13.7943 H   0  0  0  0  0  0  0  0  0  0  0  0
   14.8059  -47.1598    4.0254 C   0  0  0  0  0  0  0  0  0  0  0  0
   14.4758  -45.4101    4.4199 S   0  0  0  0  0  0  0  0  0  0  0  0
   16.2089  -44.7649    4.6354 C   0  0  0  0  0  0  0  0  0  0  0  0
   16.1631  -43.3837    5.2867 C   0  0  0  0  0  0  0  0  0  0  0  0
   16.9720  -42.3487    7.4096 N   0  0  0  0  0  0  0  0  0  0  0  0
   17.4001  -43.0628    6.1880 C   0  0  0  0  0  0  0  0  0  0  0  0
   16.3172  -42.9308    7.9318 H   0  0  0  0  0  0  0  0  0  0  0  0
   16.5167  -41.4736    7.1500 H   0  0  0  0  0  0  0  0  0  0  0  0
   18.3777  -42.2290    5.3801 C   0  0  0  0  0  0  0  0  0  0  0  0
   19.1696  -42.8014    4.5946 O   0  0  0  0  0  0  0  0  0  0  0  0
   18.3179  -40.9951    5.5573 O   0  0  0  0  0  0  0  0  0  0  0  0
   17.6983  -40.6382    6.1628 H   0  0  0  0  0  0  0  0  0  0  0  0
 26 27  1  0  0  0
 27 25  1  0  0  0
 27 30  1  0  0  0
 25 24  1  0  0  0
 24 23  1  0  0  0
 23 22  1  0  0  0
 30 31  2  0  0  0
 30 32  1  0  0  0
 22  1  1  0  0  0
  1  2  1  0  0  0
  1  3  1  0  0  0
  2  7  1  0  0  0
  3  4  1  0  0  0
  3  5  1  0  0  0
  5  6  1  0  0  0
  5  7  1  0  0  0
  7 10  1  0  0  0
 10 11  1  0  0  0
 10 19  1  0  0  0
 11 12  2  0  0  0
 12 13  1  0  0  0
 13 14  1  0  0  0
 13 19  2  0  0  0
 14 15  1  0  0  0
 14 16  2  0  0  0
 16 17  1  0  0  0
 17 18  2  0  0  0
 18 19  1  0  0  0
 26 28  1  0  0  0
 26 29  1  0  0  0
 32 33  1  0  0  0
  4  8  1  0  0  0
  6  9  1  0  0  0
 15 20  1  0  0  0
 15 21  1  0  0  0
M  END
> <minimizedAffinity>
-12.23928

$$$$
2WR8_SAH_A_1257


 33 35  0  0  0  0  0  0  0  0999 V2000
   15.0484  -48.1749    5.6270 C   0  0  0  0  0  0  0  0  0  0  0  0
   15.7253  -48.4715    6.8669 O   0  0  0  0  0  0  0  0  0  0  0  0
   13.5882  -47.9273    6.0484 C   0  0  0  0  0  0  0  0  0  0  0  0
   12.6971  -48.3265    5.0132 O   0  0  0  0  0  0  0  0  0  0  0  0
   13.4547  -48.7686    7.3446 C   0  0  0  0  0  0  0  0  0  0  0  0
   12.4831  -49.8082    7.1575 O   0  0  0  0  0  0  0  0  0  0  0  0
   14.8770  -49.3432    7.5977 C   0  0  0  0  0  0  0  0  0  0  0  0
   12.8548  -49.2578    4.7921 H   0  0  0  0  0  0  0  0  0  0  0  0
   12.7433  -50.3624    6.4052 H   0  0  0  0  0  0  0  0  0  0  0  0
   15.2154  -49.1123    9.0319 N   0  0  0  0  0  0  0  0  0  0  0  0
   15.5570  -50.0544    9.9516 C   0  0  0  0  0  0  0  0  0  0  0  0
   15.7982  -49.4607   11.1436 N   0  0  0  0  0  0  0  0  0  0  0  0
   15.5837  -48.1444   10.9688 C   0  0  0  0  0  0  0  0  0  0  0  0
   15.6783  -47.0561   11.8459 C   0  0  0  0  0  0  0  0  0  0  0  0
   16.0813  -47.2198   13.1421 N   0  0  0  0  0  0  0  0  0  0  0  0
   15.3756  -45.8340   11.3709 N   0  0  0  0  0  0  0  0  0  0  0  0
   15.0014  -45.6516   10.0882 C   0  0  0  0  0  0  0  0  0  0  0  0
   14.8697  -46.6707    9.2143 N   0  0  0  0  0  0  0  0  0  0  0  0
   15.1861  -47.9339    9.6443 C   0  0  0  0  0  0  0  0  0  0  0  0
   16.3004  -48.1183   13.4797 H   0  0  0  0  0  0  0  0  0  0  0  0
   16.1523  -46.4392   13.7378 H   0  0  0  0  0  0  0  0  0  0  0  0
   15.6718  -46.9470    5.0190 C   0  0  0  0  0  0  0  0  0  0  0  0
   14.5745  -45.7579    4.1775 S   0  0  0  0  0  0  0  0  0  0  0  0
   14.7851  -44.2578    5.2599 C   0  0  0  0  0  0  0  0  0  0  0  0
   15.9547  -43.4183    4.7486 C   0  0  0  0  0  0  0  0  0  0  0  0
   16.6734  -42.7072    7.0311 N   0  0  0  0  0  0  0  0  0  0  0  0
   17.1419  -43.2972    5.7591 C   0  0  0  0  0  0  0  0  0  0  0  0
   15.9478  -43.3002    7.4340 H   0  0  0  0  0  0  0  0  0  0  0  0
   16.2935  -41.7772    6.8550 H   0  0  0  0  0  0  0  0  0  0  0  0
   18.2249  -42.4435    5.1253 C   0  0  0  0  0  0  0  0  0  0  0  0
   18.1672  -41.1961    5.2371 O   0  0  0  0  0  0  0  0  0  0  0  0
   19.1258  -43.0637    4.5241 O   0  0  0  0  0  0  0  0  0  0  0  0
   19.1024  -43.9994    4.4819 H   0  0  0  0  0  0  0  0  0  0  0  0
 26 27  1  0  0  0
 27 25  1  0  0  0
 27 30  1  0  0  0
 25 24  1  0  0  0
 24 23  1  0  0  0
 23 22  1  0  0  0
 30 31  2  0  0  0
 30 32  1  0  0  0
 22  1  1  0  0  0
  1  2  1  0  0  0
  1  3  1  0  0  0
  2  7  1  0  0  0
  3  4  1  0  0  0
  3  5  1  0  0  0
  5  6  1  0  0  0
  5  7  1  0  0  0
  7 10  1  0  0  0
 10 11  1  0  0  0
 10 19  1  0  0  0
 11 12  2  0  0  0
 12 13  1  0  0  0
 13 14  1  0  0  0
 13 19  2  0  0  0
 14 15  1  0  0  0
 14 16  2  0  0  0
 16 17  1  0  0  0
 17 18  2  0  0  0
 18 19  1  0  0  0
 26 28  1  0  0  0
 26 29  1  0  0  0
 32 33  1  0  0  0
  4  8  1  0  0  0
  6  9  1  0  0  0
 15 20  1  0  0  0
 15 21  1  0  0  0
M  END
> <minimizedAffinity>
-9.60174

$$$$
