4OVF_2VG_A_407


 19 21  0  0  0  0  0  0  0  0999 V2000
    6.8210   -1.8708   -9.8172 Cl  0  0  0  0  0  0  0  0  0  0  0  0
    7.8153   -3.2047  -10.4814 C   0  0  0  0  0  0  0  0  0  0  0  0
    8.7468   -3.8929   -9.7001 C   0  0  0  0  0  0  0  0  0  0  0  0
    9.4781   -4.9217  -10.3029 C   0  0  0  0  0  0  0  0  0  0  0  0
    7.6329   -3.5458  -11.8203 C   0  0  0  0  0  0  0  0  0  0  0  0
    8.3660   -4.5742  -12.4064 C   0  0  0  0  0  0  0  0  0  0  0  0
    9.2945   -5.2684  -11.6401 C   0  0  0  0  0  0  0  0  0  0  0  0
   10.1224   -6.2826  -11.9345 N   0  0  0  0  0  0  0  0  0  0  0  0
   10.8310   -6.6035  -10.8393 C   0  0  0  0  0  0  0  0  0  0  0  0
   10.4513   -5.7671   -9.7971 C   0  0  0  0  0  0  0  0  0  0  0  0
   11.0343   -5.8311   -8.4073 C   0  0  0  0  0  0  0  0  0  0  0  0
   11.6222   -7.2306   -8.2264 C   0  0  0  0  0  0  0  0  0  0  0  0
   11.8756   -7.6897  -10.7328 C   0  0  0  0  0  0  0  0  0  0  0  0
   12.5676   -7.6493   -9.3594 C   0  0  0  0  0  0  0  0  0  0  0  0
   10.1983   -6.7213  -12.8126 H   0  0  0  0  0  0  0  0  0  0  0  0
   13.1398   -9.0012   -9.0258 C   0  0  0  0  0  0  0  0  0  0  0  0
   12.5552   -9.7945   -8.1347 O   0  0  0  0  0  0  0  0  0  0  0  0
   14.1590   -9.3874   -9.5666 O   0  0  0  0  0  0  0  0  0  0  0  0
   14.5887   -8.8449  -10.1982 H   0  0  0  0  0  0  0  0  0  0  0  0
 17 16  2  0  0  0
 18 16  1  0  0  0
 16 14  1  0  0  0
 12 14  1  0  0  0
 12 11  1  0  0  0
 14 13  1  0  0  0
 11 10  1  0  0  0
 13  9  1  0  0  0
 10  9  2  0  0  0
 10  4  1  0  0  0
  9  8  1  0  0  0
  4  3  2  0  0  0
  4  7  1  0  0  0
  3  2  1  0  0  0
  8  7  1  0  0  0
  7  6  2  0  0  0
  2  1  1  0  0  0
  2  5  2  0  0  0
  6  5  1  0  0  0
  8 15  1  0  0  0
 18 19  1  0  0  0
M  END
> <minimizedAffinity>
-7.03299

$$$$
4OVF_2VG_A_407


 19 21  0  0  0  0  0  0  0  0999 V2000
   15.5560   -9.1514  -12.7474 Cl  0  0  0  0  0  0  0  0  0  0  0  0
   14.4270   -8.4995  -11.5188 C   0  0  0  0  0  0  0  0  0  0  0  0
   13.5282   -7.4709  -11.8120 C   0  0  0  0  0  0  0  0  0  0  0  0
   12.6829   -7.0256  -10.7902 C   0  0  0  0  0  0  0  0  0  0  0  0
   14.4674   -9.0539  -10.2408 C   0  0  0  0  0  0  0  0  0  0  0  0
   13.6180   -8.6025   -9.2342 C   0  0  0  0  0  0  0  0  0  0  0  0
   12.7176   -7.5814   -9.5127 C   0  0  0  0  0  0  0  0  0  0  0  0
   11.8001   -6.9622   -8.7541 N   0  0  0  0  0  0  0  0  0  0  0  0
   11.1751   -6.0305   -9.4929 C   0  0  0  0  0  0  0  0  0  0  0  0
   11.7066   -6.0437  -10.7764 C   0  0  0  0  0  0  0  0  0  0  0  0
   11.2521   -5.1312  -11.8883 C   0  0  0  0  0  0  0  0  0  0  0  0
    9.8411   -4.6584  -11.5384 C   0  0  0  0  0  0  0  0  0  0  0  0
   10.0738   -5.1068   -9.0281 C   0  0  0  0  0  0  0  0  0  0  0  0
    9.7212   -4.0835  -10.1214 C   0  0  0  0  0  0  0  0  0  0  0  0
   11.6146   -7.1592   -7.8075 H   0  0  0  0  0  0  0  0  0  0  0  0
    8.3150   -3.5816   -9.9294 C   0  0  0  0  0  0  0  0  0  0  0  0
    8.0226   -2.7022   -8.9774 O   0  0  0  0  0  0  0  0  0  0  0  0
    7.4164   -3.9831  -10.6447 O   0  0  0  0  0  0  0  0  0  0  0  0
    7.5990   -4.6035  -11.3228 H   0  0  0  0  0  0  0  0  0  0  0  0
 17 16  2  0  0  0
 18 16  1  0  0  0
 16 14  1  0  0  0
 12 14  1  0  0  0
 12 11  1  0  0  0
 14 13  1  0  0  0
 11 10  1  0  0  0
 13  9  1  0  0  0
 10  9  2  0  0  0
 10  4  1  0  0  0
  9  8  1  0  0  0
  4  3  2  0  0  0
  4  7  1  0  0  0
  3  2  1  0  0  0
  8  7  1  0  0  0
  7  6  2  0  0  0
  2  1  1  0  0  0
  2  5  2  0  0  0
  6  5  1  0  0  0
  8 15  1  0  0  0
 18 19  1  0  0  0
M  END
> <minimizedAffinity>
-5.86702

$$$$
4OVF_2VG_A_407


 19 21  0  0  0  0  0  0  0  0999 V2000
    7.8786   -2.4320  -13.4930 Cl  0  0  0  0  0  0  0  0  0  0  0  0
    9.3229   -3.4767  -13.3147 C   0  0  0  0  0  0  0  0  0  0  0  0
    9.5313   -4.2632  -12.1791 C   0  0  0  0  0  0  0  0  0  0  0  0
   10.6873   -5.0492  -12.1270 C   0  0  0  0  0  0  0  0  0  0  0  0
   10.2497   -3.4863  -14.3556 C   0  0  0  0  0  0  0  0  0  0  0  0
   11.3947   -4.2759  -14.2912 C   0  0  0  0  0  0  0  0  0  0  0  0
   11.6134   -5.0647  -13.1683 C   0  0  0  0  0  0  0  0  0  0  0  0
   12.6067   -5.9059  -12.8421 N   0  0  0  0  0  0  0  0  0  0  0  0
   12.3563   -6.4336  -11.6324 C   0  0  0  0  0  0  0  0  0  0  0  0
   11.1588   -5.9156  -11.1551 C   0  0  0  0  0  0  0  0  0  0  0  0
   10.5531   -6.2785   -9.8221 C   0  0  0  0  0  0  0  0  0  0  0  0
   11.1396   -7.6288   -9.4103 C   0  0  0  0  0  0  0  0  0  0  0  0
   13.2192   -7.4273  -10.8907 C   0  0  0  0  0  0  0  0  0  0  0  0
   12.6714   -7.6769   -9.4750 C   0  0  0  0  0  0  0  0  0  0  0  0
   13.3932   -6.1045  -13.4000 H   0  0  0  0  0  0  0  0  0  0  0  0
   13.1264   -9.0205   -8.9710 C   0  0  0  0  0  0  0  0  0  0  0  0
   12.4873   -9.6367   -7.9826 O   0  0  0  0  0  0  0  0  0  0  0  0
   14.0991   -9.5631   -9.4607 O   0  0  0  0  0  0  0  0  0  0  0  0
   14.5656   -9.1473  -10.1589 H   0  0  0  0  0  0  0  0  0  0  0  0
 17 16  2  0  0  0
 18 16  1  0  0  0
 16 14  1  0  0  0
 12 14  1  0  0  0
 12 11  1  0  0  0
 14 13  1  0  0  0
 11 10  1  0  0  0
 13  9  1  0  0  0
 10  9  2  0  0  0
 10  4  1  0  0  0
  9  8  1  0  0  0
  4  3  2  0  0  0
  4  7  1  0  0  0
  3  2  1  0  0  0
  8  7  1  0  0  0
  7  6  2  0  0  0
  2  1  1  0  0  0
  2  5  2  0  0  0
  6  5  1  0  0  0
  8 15  1  0  0  0
 18 19  1  0  0  0
M  END
> <minimizedAffinity>
-5.70980

$$$$
4OVF_2VG_A_407


 19 21  0  0  0  0  0  0  0  0999 V2000
    8.6499   -3.3361  -13.0060 Cl  0  0  0  0  0  0  0  0  0  0  0  0
    9.5019   -4.2834  -11.7468 C   0  0  0  0  0  0  0  0  0  0  0  0
   10.5573   -5.1448  -12.0566 C   0  0  0  0  0  0  0  0  0  0  0  0
   11.1648   -5.8437  -11.0081 C   0  0  0  0  0  0  0  0  0  0  0  0
    9.0792   -4.1369  -10.4269 C   0  0  0  0  0  0  0  0  0  0  0  0
    9.6952   -4.8369   -9.3929 C   0  0  0  0  0  0  0  0  0  0  0  0
   10.7475   -5.6955   -9.6866 C   0  0  0  0  0  0  0  0  0  0  0  0
   11.5103   -6.4792   -8.9090 N   0  0  0  0  0  0  0  0  0  0  0  0
   12.4030   -7.1252   -9.6772 C   0  0  0  0  0  0  0  0  0  0  0  0
   12.2123   -6.7493  -11.0010 C   0  0  0  0  0  0  0  0  0  0  0  0
   13.0325   -7.2719  -12.1541 C   0  0  0  0  0  0  0  0  0  0  0  0
   14.3553   -7.7764  -11.5775 C   0  0  0  0  0  0  0  0  0  0  0  0
   13.4511   -8.1051   -9.2044 C   0  0  0  0  0  0  0  0  0  0  0  0
   14.1812   -8.7428  -10.3990 C   0  0  0  0  0  0  0  0  0  0  0  0
   11.4287   -6.5666   -7.9318 H   0  0  0  0  0  0  0  0  0  0  0  0
   15.5424   -9.2281   -9.9772 C   0  0  0  0  0  0  0  0  0  0  0  0
   15.9482  -10.4628  -10.2530 O   0  0  0  0  0  0  0  0  0  0  0  0
   16.2946   -8.4927   -9.3658 O   0  0  0  0  0  0  0  0  0  0  0  0
   16.0298   -7.6178   -9.1601 H   0  0  0  0  0  0  0  0  0  0  0  0
 17 16  2  0  0  0
 18 16  1  0  0  0
 16 14  1  0  0  0
 12 14  1  0  0  0
 12 11  1  0  0  0
 14 13  1  0  0  0
 11 10  1  0  0  0
 13  9  1  0  0  0
 10  9  2  0  0  0
 10  4  1  0  0  0
  9  8  1  0  0  0
  4  3  2  0  0  0
  4  7  1  0  0  0
  3  2  1  0  0  0
  8  7  1  0  0  0
  7  6  2  0  0  0
  2  1  1  0  0  0
  2  5  2  0  0  0
  6  5  1  0  0  0
  8 15  1  0  0  0
 18 19  1  0  0  0
M  END
> <minimizedAffinity>
-5.64809

$$$$
4OVF_2VG_A_407


 19 21  0  0  0  0  0  0  0  0999 V2000
   16.5015   -9.8372  -10.0970 Cl  0  0  0  0  0  0  0  0  0  0  0  0
   15.3104   -8.7372  -10.8591 C   0  0  0  0  0  0  0  0  0  0  0  0
   14.2313   -8.2077  -10.1472 C   0  0  0  0  0  0  0  0  0  0  0  0
   13.3520   -7.3559  -10.8238 C   0  0  0  0  0  0  0  0  0  0  0  0
   15.4905   -8.4163  -12.2033 C   0  0  0  0  0  0  0  0  0  0  0  0
   14.6086   -7.5647  -12.8633 C   0  0  0  0  0  0  0  0  0  0  0  0
   13.5321   -7.0292  -12.1666 C   0  0  0  0  0  0  0  0  0  0  0  0
   12.5458   -6.1988  -12.5387 N   0  0  0  0  0  0  0  0  0  0  0  0
   11.7384   -5.9769  -11.4883 C   0  0  0  0  0  0  0  0  0  0  0  0
   12.2160   -6.6897  -10.3956 C   0  0  0  0  0  0  0  0  0  0  0  0
   11.5653   -6.6859   -9.0347 C   0  0  0  0  0  0  0  0  0  0  0  0
   10.7206   -5.4154   -8.9397 C   0  0  0  0  0  0  0  0  0  0  0  0
   10.5070   -5.1019  -11.4721 C   0  0  0  0  0  0  0  0  0  0  0  0
    9.7694   -5.2216  -10.1273 C   0  0  0  0  0  0  0  0  0  0  0  0
   12.4322   -5.8138  -13.4376 H   0  0  0  0  0  0  0  0  0  0  0  0
    8.9416   -3.9894   -9.8771 C   0  0  0  0  0  0  0  0  0  0  0  0
    9.4516   -2.9333   -9.2529 O   0  0  0  0  0  0  0  0  0  0  0  0
    7.7809   -3.9450  -10.2395 O   0  0  0  0  0  0  0  0  0  0  0  0
    7.3998   -4.6780  -10.6816 H   0  0  0  0  0  0  0  0  0  0  0  0
 17 16  2  0  0  0
 18 16  1  0  0  0
 16 14  1  0  0  0
 12 14  1  0  0  0
 12 11  1  0  0  0
 14 13  1  0  0  0
 11 10  1  0  0  0
 13  9  1  0  0  0
 10  9  2  0  0  0
 10  4  1  0  0  0
  9  8  1  0  0  0
  4  3  2  0  0  0
  4  7  1  0  0  0
  3  2  1  0  0  0
  8  7  1  0  0  0
  7  6  2  0  0  0
  2  1  1  0  0  0
  2  5  2  0  0  0
  6  5  1  0  0  0
  8 15  1  0  0  0
 18 19  1  0  0  0
M  END
> <minimizedAffinity>
-5.55820

$$$$
4OVF_2VG_A_407


 19 21  0  0  0  0  0  0  0  0999 V2000
    8.8738   -2.1474  -15.2433 Cl  0  0  0  0  0  0  0  0  0  0  0  0
    8.8927   -3.1006  -13.7267 C   0  0  0  0  0  0  0  0  0  0  0  0
    9.8806   -4.0527  -13.4637 C   0  0  0  0  0  0  0  0  0  0  0  0
    9.8165   -4.7490  -12.2521 C   0  0  0  0  0  0  0  0  0  0  0  0
    7.8802   -2.8641  -12.7986 C   0  0  0  0  0  0  0  0  0  0  0  0
    7.8306   -3.5628  -11.5953 C   0  0  0  0  0  0  0  0  0  0  0  0
    8.8081   -4.5113  -11.3200 C   0  0  0  0  0  0  0  0  0  0  0  0
    9.0060   -5.3159  -10.2644 N   0  0  0  0  0  0  0  0  0  0  0  0
   10.1026   -6.0613  -10.4794 C   0  0  0  0  0  0  0  0  0  0  0  0
   10.6350   -5.7306  -11.7193 C   0  0  0  0  0  0  0  0  0  0  0  0
   11.8729   -6.3646  -12.3033 C   0  0  0  0  0  0  0  0  0  0  0  0
   12.6783   -6.9427  -11.1397 C   0  0  0  0  0  0  0  0  0  0  0  0
   10.6816   -7.0966   -9.5438 C   0  0  0  0  0  0  0  0  0  0  0  0
   11.8527   -7.8400  -10.2090 C   0  0  0  0  0  0  0  0  0  0  0  0
    8.4384   -5.3537   -9.4610 H   0  0  0  0  0  0  0  0  0  0  0  0
   12.7703   -8.4087   -9.1599 C   0  0  0  0  0  0  0  0  0  0  0  0
   12.3174   -9.2397   -8.2274 O   0  0  0  0  0  0  0  0  0  0  0  0
   13.9490   -8.1071   -9.1458 O   0  0  0  0  0  0  0  0  0  0  0  0
   14.2908   -7.5227   -9.7936 H   0  0  0  0  0  0  0  0  0  0  0  0
 17 16  2  0  0  0
 18 16  1  0  0  0
 16 14  1  0  0  0
 12 14  1  0  0  0
 12 11  1  0  0  0
 14 13  1  0  0  0
 11 10  1  0  0  0
 13  9  1  0  0  0
 10  9  2  0  0  0
 10  4  1  0  0  0
  9  8  1  0  0  0
  4  3  2  0  0  0
  4  7  1  0  0  0
  3  2  1  0  0  0
  8  7  1  0  0  0
  7  6  2  0  0  0
  2  1  1  0  0  0
  2  5  2  0  0  0
  6  5  1  0  0  0
  8 15  1  0  0  0
 18 19  1  0  0  0
M  END
> <minimizedAffinity>
-5.48960

$$$$
4OVF_2VG_A_407


 19 21  0  0  0  0  0  0  0  0999 V2000
   15.6161   -6.5854  -13.9219 Cl  0  0  0  0  0  0  0  0  0  0  0  0
   14.0083   -5.7959  -13.9538 C   0  0  0  0  0  0  0  0  0  0  0  0
   13.2088   -5.6994  -12.8122 C   0  0  0  0  0  0  0  0  0  0  0  0
   11.9680   -5.0646  -12.9306 C   0  0  0  0  0  0  0  0  0  0  0  0
   13.5671   -5.2703  -15.1668 C   0  0  0  0  0  0  0  0  0  0  0  0
   12.3306   -4.6385  -15.2692 C   0  0  0  0  0  0  0  0  0  0  0  0
   11.5261   -4.5337  -14.1410 C   0  0  0  0  0  0  0  0  0  0  0  0
   10.3148   -3.9887  -13.9499 N   0  0  0  0  0  0  0  0  0  0  0  0
    9.9597   -4.1466  -12.6640 C   0  0  0  0  0  0  0  0  0  0  0  0
   10.9754   -4.8195  -11.9965 C   0  0  0  0  0  0  0  0  0  0  0  0
   10.9312   -5.1773  -10.5318 C   0  0  0  0  0  0  0  0  0  0  0  0
    9.9320   -4.2323   -9.8643 C   0  0  0  0  0  0  0  0  0  0  0  0
    8.6730   -3.6800  -12.0246 C   0  0  0  0  0  0  0  0  0  0  0  0
    8.5725   -4.1782  -10.5726 C   0  0  0  0  0  0  0  0  0  0  0  0
    9.7731   -3.5443  -14.6414 H   0  0  0  0  0  0  0  0  0  0  0  0
    7.6581   -3.2840   -9.7784 C   0  0  0  0  0  0  0  0  0  0  0  0
    8.1433   -2.3716   -8.9435 O   0  0  0  0  0  0  0  0  0  0  0  0
    6.4507   -3.3899   -9.8849 O   0  0  0  0  0  0  0  0  0  0  0  0
    6.0858   -4.0265  -10.4676 H   0  0  0  0  0  0  0  0  0  0  0  0
 17 16  2  0  0  0
 18 16  1  0  0  0
 16 14  1  0  0  0
 12 14  1  0  0  0
 12 11  1  0  0  0
 14 13  1  0  0  0
 11 10  1  0  0  0
 13  9  1  0  0  0
 10  9  2  0  0  0
 10  4  1  0  0  0
  9  8  1  0  0  0
  4  3  2  0  0  0
  4  7  1  0  0  0
  3  2  1  0  0  0
  8  7  1  0  0  0
  7  6  2  0  0  0
  2  1  1  0  0  0
  2  5  2  0  0  0
  6  5  1  0  0  0
  8 15  1  0  0  0
 18 19  1  0  0  0
M  END
> <minimizedAffinity>
-5.48379

$$$$
4OVF_2VG_A_407


 19 21  0  0  0  0  0  0  0  0999 V2000
    7.8098   -3.3675  -12.1890 Cl  0  0  0  0  0  0  0  0  0  0  0  0
    9.4010   -4.1239  -12.5132 C   0  0  0  0  0  0  0  0  0  0  0  0
   10.0392   -4.9365  -11.5729 C   0  0  0  0  0  0  0  0  0  0  0  0
   11.2796   -5.4862  -11.9133 C   0  0  0  0  0  0  0  0  0  0  0  0
    9.9969   -3.8782  -13.7489 C   0  0  0  0  0  0  0  0  0  0  0  0
   11.2310   -4.4344  -14.0751 C   0  0  0  0  0  0  0  0  0  0  0  0
   11.8758   -5.2463  -13.1499 C   0  0  0  0  0  0  0  0  0  0  0  0
   13.0461   -5.9015  -13.1925 N   0  0  0  0  0  0  0  0  0  0  0  0
   13.2265   -6.5548  -12.0327 C   0  0  0  0  0  0  0  0  0  0  0  0
   12.1357   -6.3141  -11.2067 C   0  0  0  0  0  0  0  0  0  0  0  0
   11.9857   -6.8838   -9.8180 C   0  0  0  0  0  0  0  0  0  0  0  0
   12.8787   -8.1219   -9.7371 C   0  0  0  0  0  0  0  0  0  0  0  0
   14.4120   -7.4148  -11.6623 C   0  0  0  0  0  0  0  0  0  0  0  0
   14.3206   -7.8685  -10.1951 C   0  0  0  0  0  0  0  0  0  0  0  0
   13.6722   -5.9032  -13.9522 H   0  0  0  0  0  0  0  0  0  0  0  0
   15.1129   -9.1322   -9.9916 C   0  0  0  0  0  0  0  0  0  0  0  0
   14.6110  -10.3186  -10.3170 O   0  0  0  0  0  0  0  0  0  0  0  0
   16.2314   -9.0860   -9.5149 O   0  0  0  0  0  0  0  0  0  0  0  0
   16.6059   -8.2605   -9.2778 H   0  0  0  0  0  0  0  0  0  0  0  0
 17 16  2  0  0  0
 18 16  1  0  0  0
 16 14  1  0  0  0
 12 14  1  0  0  0
 12 11  1  0  0  0
 14 13  1  0  0  0
 11 10  1  0  0  0
 13  9  1  0  0  0
 10  9  2  0  0  0
 10  4  1  0  0  0
  9  8  1  0  0  0
  4  3  2  0  0  0
  4  7  1  0  0  0
  3  2  1  0  0  0
  8  7  1  0  0  0
  7  6  2  0  0  0
  2  1  1  0  0  0
  2  5  2  0  0  0
  6  5  1  0  0  0
  8 15  1  0  0  0
 18 19  1  0  0  0
M  END
> <minimizedAffinity>
-5.03503

$$$$
4OVF_2VG_A_407


 19 21  0  0  0  0  0  0  0  0999 V2000
    9.8837   -4.3932  -10.3903 Cl  0  0  0  0  0  0  0  0  0  0  0  0
   11.0251   -5.7017   -9.9497 C   0  0  0  0  0  0  0  0  0  0  0  0
   11.9672   -6.1972  -10.8544 C   0  0  0  0  0  0  0  0  0  0  0  0
   12.8191   -7.2192  -10.4225 C   0  0  0  0  0  0  0  0  0  0  0  0
   10.9494   -6.2219   -8.6590 C   0  0  0  0  0  0  0  0  0  0  0  0
   11.8058   -7.2375   -8.2419 C   0  0  0  0  0  0  0  0  0  0  0  0
   12.7490   -7.7382   -9.1310 C   0  0  0  0  0  0  0  0  0  0  0  0
   13.6827   -8.6937   -9.0050 N   0  0  0  0  0  0  0  0  0  0  0  0
   14.3520   -8.8099  -10.1639 C   0  0  0  0  0  0  0  0  0  0  0  0
   13.8336   -7.8987  -11.0756 C   0  0  0  0  0  0  0  0  0  0  0  0
   14.3357   -7.7395  -12.4892 C   0  0  0  0  0  0  0  0  0  0  0  0
   15.7607   -8.2914  -12.5290 C   0  0  0  0  0  0  0  0  0  0  0  0
   15.4845   -9.7666  -10.4542 C   0  0  0  0  0  0  0  0  0  0  0  0
   15.8888   -9.7007  -11.9371 C   0  0  0  0  0  0  0  0  0  0  0  0
   13.8504   -9.2247   -8.1931 H   0  0  0  0  0  0  0  0  0  0  0  0
   17.3119  -10.1607  -12.1086 C   0  0  0  0  0  0  0  0  0  0  0  0
   17.9114  -10.9020  -11.1833 O   0  0  0  0  0  0  0  0  0  0  0  0
   17.9420   -9.8513  -13.1025 O   0  0  0  0  0  0  0  0  0  0  0  0
   17.5398   -9.3290  -13.7684 H   0  0  0  0  0  0  0  0  0  0  0  0
 17 16  2  0  0  0
 18 16  1  0  0  0
 16 14  1  0  0  0
 12 14  1  0  0  0
 12 11  1  0  0  0
 14 13  1  0  0  0
 11 10  1  0  0  0
 13  9  1  0  0  0
 10  9  2  0  0  0
 10  4  1  0  0  0
  9  8  1  0  0  0
  4  3  2  0  0  0
  4  7  1  0  0  0
  3  2  1  0  0  0
  8  7  1  0  0  0
  7  6  2  0  0  0
  2  1  1  0  0  0
  2  5  2  0  0  0
  6  5  1  0  0  0
  8 15  1  0  0  0
 18 19  1  0  0  0
M  END
> <minimizedAffinity>
-4.95587

$$$$
4OVF_2VG_A_407


 19 21  0  0  0  0  0  0  0  0999 V2000
    7.8250   -1.7727  -14.7391 Cl  0  0  0  0  0  0  0  0  0  0  0  0
    8.5350   -2.9299  -13.5703 C   0  0  0  0  0  0  0  0  0  0  0  0
    9.7781   -3.5298  -13.7856 C   0  0  0  0  0  0  0  0  0  0  0  0
   10.2546   -4.4203  -12.8178 C   0  0  0  0  0  0  0  0  0  0  0  0
    7.8041   -3.2215  -12.4201 C   0  0  0  0  0  0  0  0  0  0  0  0
    8.2922   -4.1080  -11.4637 C   0  0  0  0  0  0  0  0  0  0  0  0
    9.5283   -4.7102  -11.6643 C   0  0  0  0  0  0  0  0  0  0  0  0
   10.2308   -5.5845  -10.9275 N   0  0  0  0  0  0  0  0  0  0  0  0
   11.3813   -5.8681  -11.5603 C   0  0  0  0  0  0  0  0  0  0  0  0
   11.4270   -5.1542  -12.7513 C   0  0  0  0  0  0  0  0  0  0  0  0
   12.5718   -5.2190  -13.7315 C   0  0  0  0  0  0  0  0  0  0  0  0
   13.8010   -5.7017  -12.9616 C   0  0  0  0  0  0  0  0  0  0  0  0
   12.4628   -6.8064  -11.0785 C   0  0  0  0  0  0  0  0  0  0  0  0
   13.5531   -6.9795  -12.1500 C   0  0  0  0  0  0  0  0  0  0  0  0
    9.9483   -5.9582  -10.0616 H   0  0  0  0  0  0  0  0  0  0  0  0
   14.8504   -7.3948  -11.5091 C   0  0  0  0  0  0  0  0  0  0  0  0
   16.0186   -6.9932  -11.9983 O   0  0  0  0  0  0  0  0  0  0  0  0
   14.8484   -8.1167  -10.5297 O   0  0  0  0  0  0  0  0  0  0  0  0
   14.0364   -8.4123  -10.1673 H   0  0  0  0  0  0  0  0  0  0  0  0
 17 16  2  0  0  0
 18 16  1  0  0  0
 16 14  1  0  0  0
 12 14  1  0  0  0
 12 11  1  0  0  0
 14 13  1  0  0  0
 11 10  1  0  0  0
 13  9  1  0  0  0
 10  9  2  0  0  0
 10  4  1  0  0  0
  9  8  1  0  0  0
  4  3  2  0  0  0
  4  7  1  0  0  0
  3  2  1  0  0  0
  8  7  1  0  0  0
  7  6  2  0  0  0
  2  1  1  0  0  0
  2  5  2  0  0  0
  6  5  1  0  0  0
  8 15  1  0  0  0
 18 19  1  0  0  0
M  END
> <minimizedAffinity>
-4.66193

$$$$
