4FEV_PP1_A_302


 23 25  0  0  0  0  0  0  0  0999 V2000
  -20.9713  -28.9493  -18.4772 N   0  0  0  0  0  0  0  0  0  0  0  0
  -21.6531  -28.4716  -21.9778 C   0  0  0  0  0  0  0  0  0  0  0  0
  -21.3531  -29.1489  -20.8867 N   0  0  0  0  0  0  0  0  0  0  0  0
  -21.2627  -28.5168  -19.7011 C   0  0  0  0  0  0  0  0  0  0  0  0
  -21.4907  -27.1511  -19.6054 C   0  0  0  0  0  0  0  0  0  0  0  0
  -21.8107  -26.4759  -20.7929 C   0  0  0  0  0  0  0  0  0  0  0  0
  -21.8751  -27.1707  -21.9270 N   0  0  0  0  0  0  0  0  0  0  0  0
  -20.9877  -28.0362  -17.6415 N   0  0  0  0  0  0  0  0  0  0  0  0
  -21.3307  -26.8841  -18.2348 C   0  0  0  0  0  0  0  0  0  0  0  0
  -22.0638  -25.1696  -20.8907 N   0  0  0  0  0  0  0  0  0  0  0  0
  -22.0323  -24.6006  -20.0880 H   0  0  0  0  0  0  0  0  0  0  0  0
  -22.2822  -24.7747  -21.7657 H   0  0  0  0  0  0  0  0  0  0  0  0
  -21.3850  -25.6517  -17.5694 C   0  0  0  0  0  0  0  0  0  0  0  0
  -20.8858  -24.4636  -18.0899 C   0  0  0  0  0  0  0  0  0  0  0  0
  -20.9726  -23.2668  -17.3887 C   0  0  0  0  0  0  0  0  0  0  0  0
  -21.5766  -23.2469  -16.1427 C   0  0  0  0  0  0  0  0  0  0  0  0
  -22.0923  -24.4237  -15.6072 C   0  0  0  0  0  0  0  0  0  0  0  0
  -22.0083  -25.6137  -16.3249 C   0  0  0  0  0  0  0  0  0  0  0  0
  -21.6741  -21.9309  -15.3697 C   0  0  0  0  0  0  0  0  0  0  0  0
  -20.6732  -30.3704  -18.1322 C   0  0  0  0  0  0  0  0  0  0  0  0
  -19.5233  -30.3591  -17.1238 C   0  0  0  0  0  0  0  0  0  0  0  0
  -21.9249  -30.9948  -17.4889 C   0  0  0  0  0  0  0  0  0  0  0  0
  -20.2791  -31.1351  -19.4021 C   0  0  0  0  0  0  0  0  0  0  0  0
  1  4  1  0  0  0
  1  8  1  0  0  0
  1 20  1  0  0  0
  2  3  2  0  0  0
  2  7  1  0  0  0
  3  4  1  0  0  0
  4  5  2  0  0  0
  5  6  1  0  0  0
  5  9  1  0  0  0
  6  7  2  0  0  0
  6 10  1  0  0  0
  8  9  2  0  0  0
  9 13  1  0  0  0
 13 14  2  0  0  0
 13 18  1  0  0  0
 14 15  1  0  0  0
 15 16  2  0  0  0
 16 17  1  0  0  0
 16 19  1  0  0  0
 17 18  2  0  0  0
 20 21  1  0  0  0
 20 22  1  0  0  0
 20 23  1  0  0  0
 10 11  1  0  0  0
 10 12  1  0  0  0
M  END
> <minimizedAffinity>
-9.26164

$$$$
4FEV_PP1_A_302


 23 25  0  0  0  0  0  0  0  0999 V2000
  -20.9248  -27.0119  -17.6301 N   0  0  0  0  0  0  0  0  0  0  0  0
  -21.8224  -24.9359  -20.4286 C   0  0  0  0  0  0  0  0  0  0  0  0
  -21.4443  -25.2016  -19.1935 N   0  0  0  0  0  0  0  0  0  0  0  0
  -21.2801  -26.4775  -18.7954 C   0  0  0  0  0  0  0  0  0  0  0  0
  -21.4962  -27.5290  -19.6751 C   0  0  0  0  0  0  0  0  0  0  0  0
  -21.8930  -27.1951  -20.9788 C   0  0  0  0  0  0  0  0  0  0  0  0
  -22.0395  -25.9097  -21.2940 N   0  0  0  0  0  0  0  0  0  0  0  0
  -20.8936  -28.2487  -17.6721 N   0  0  0  0  0  0  0  0  0  0  0  0
  -21.2018  -28.6688  -18.9072 C   0  0  0  0  0  0  0  0  0  0  0  0
  -22.1413  -28.0698  -21.9551 N   0  0  0  0  0  0  0  0  0  0  0  0
  -22.0510  -29.0354  -21.7857 H   0  0  0  0  0  0  0  0  0  0  0  0
  -22.4150  -27.7497  -22.8450 H   0  0  0  0  0  0  0  0  0  0  0  0
  -21.3077  -30.0195  -19.2665 C   0  0  0  0  0  0  0  0  0  0  0  0
  -20.6053  -30.6034  -20.3140 C   0  0  0  0  0  0  0  0  0  0  0  0
  -20.7433  -31.9514  -20.6227 C   0  0  0  0  0  0  0  0  0  0  0  0
  -21.5944  -32.7416  -19.8684 C   0  0  0  0  0  0  0  0  0  0  0  0
  -22.2998  -32.1792  -18.8084 C   0  0  0  0  0  0  0  0  0  0  0  0
  -22.1440  -30.8298  -18.5032 C   0  0  0  0  0  0  0  0  0  0  0  0
  -21.7472  -34.2255  -20.2057 C   0  0  0  0  0  0  0  0  0  0  0  0
  -20.5836  -26.2248  -16.4088 C   0  0  0  0  0  0  0  0  0  0  0  0
  -20.1898  -27.2257  -15.3214 C   0  0  0  0  0  0  0  0  0  0  0  0
  -19.3897  -25.3076  -16.7307 C   0  0  0  0  0  0  0  0  0  0  0  0
  -21.8000  -25.3971  -15.9752 C   0  0  0  0  0  0  0  0  0  0  0  0
  1  4  1  0  0  0
  1  8  1  0  0  0
  1 20  1  0  0  0
  2  3  2  0  0  0
  2  7  1  0  0  0
  3  4  1  0  0  0
  4  5  2  0  0  0
  5  6  1  0  0  0
  5  9  1  0  0  0
  6  7  2  0  0  0
  6 10  1  0  0  0
  8  9  2  0  0  0
  9 13  1  0  0  0
 13 14  2  0  0  0
 13 18  1  0  0  0
 14 15  1  0  0  0
 15 16  2  0  0  0
 16 17  1  0  0  0
 16 19  1  0  0  0
 17 18  2  0  0  0
 20 21  1  0  0  0
 20 22  1  0  0  0
 20 23  1  0  0  0
 10 11  1  0  0  0
 10 12  1  0  0  0
M  END
> <minimizedAffinity>
-9.00625

$$$$
4FEV_PP1_A_302


 23 25  0  0  0  0  0  0  0  0999 V2000
  -21.0938  -29.9848  -18.4528 N   0  0  0  0  0  0  0  0  0  0  0  0
  -18.1693  -31.0875  -16.6701 C   0  0  0  0  0  0  0  0  0  0  0  0
  -19.1758  -31.1833  -17.5168 N   0  0  0  0  0  0  0  0  0  0  0  0
  -20.0170  -30.1458  -17.6884 C   0  0  0  0  0  0  0  0  0  0  0  0
  -19.8358  -28.9615  -16.9879 C   0  0  0  0  0  0  0  0  0  0  0  0
  -18.7487  -28.9072  -16.1025 C   0  0  0  0  0  0  0  0  0  0  0  0
  -17.9654  -29.9776  -15.9841 N   0  0  0  0  0  0  0  0  0  0  0  0
  -21.6007  -28.8635  -18.3178 N   0  0  0  0  0  0  0  0  0  0  0  0
  -20.8761  -28.1390  -17.4534 C   0  0  0  0  0  0  0  0  0  0  0  0
  -18.4199  -27.8545  -15.3517 N   0  0  0  0  0  0  0  0  0  0  0  0
  -18.9595  -27.0322  -15.3937 H   0  0  0  0  0  0  0  0  0  0  0  0
  -17.6377  -27.9001  -14.7556 H   0  0  0  0  0  0  0  0  0  0  0  0
  -21.2195  -26.8432  -17.0440 C   0  0  0  0  0  0  0  0  0  0  0  0
  -21.0944  -25.7150  -17.8460 C   0  0  0  0  0  0  0  0  0  0  0  0
  -21.4571  -24.4529  -17.3909 C   0  0  0  0  0  0  0  0  0  0  0  0
  -21.9636  -24.3076  -16.1103 C   0  0  0  0  0  0  0  0  0  0  0  0
  -22.1067  -25.4260  -15.2940 C   0  0  0  0  0  0  0  0  0  0  0  0
  -21.7496  -26.6861  -15.7662 C   0  0  0  0  0  0  0  0  0  0  0  0
  -22.3642  -22.9199  -15.6076 C   0  0  0  0  0  0  0  0  0  0  0  0
  -21.6316  -31.0202  -19.3835 C   0  0  0  0  0  0  0  0  0  0  0  0
  -22.3004  -30.2815  -20.5438 C   0  0  0  0  0  0  0  0  0  0  0  0
  -20.4585  -31.8665  -19.9108 C   0  0  0  0  0  0  0  0  0  0  0  0
  -22.6436  -31.9017  -18.6409 C   0  0  0  0  0  0  0  0  0  0  0  0
  1  4  1  0  0  0
  1  8  1  0  0  0
  1 20  1  0  0  0
  2  3  2  0  0  0
  2  7  1  0  0  0
  3  4  1  0  0  0
  4  5  2  0  0  0
  5  6  1  0  0  0
  5  9  1  0  0  0
  6  7  2  0  0  0
  6 10  1  0  0  0
  8  9  2  0  0  0
  9 13  1  0  0  0
 13 14  2  0  0  0
 13 18  1  0  0  0
 14 15  1  0  0  0
 15 16  2  0  0  0
 16 17  1  0  0  0
 16 19  1  0  0  0
 17 18  2  0  0  0
 20 21  1  0  0  0
 20 22  1  0  0  0
 20 23  1  0  0  0
 10 11  1  0  0  0
 10 12  1  0  0  0
M  END
> <minimizedAffinity>
-8.87692

$$$$
4FEV_PP1_A_302


 23 25  0  0  0  0  0  0  0  0999 V2000
  -21.6330  -29.8731  -18.5525 N   0  0  0  0  0  0  0  0  0  0  0  0
  -21.6296  -30.4917  -22.0971 C   0  0  0  0  0  0  0  0  0  0  0  0
  -21.7015  -30.7999  -20.8169 N   0  0  0  0  0  0  0  0  0  0  0  0
  -21.6048  -29.8355  -19.8820 C   0  0  0  0  0  0  0  0  0  0  0  0
  -21.4375  -28.5070  -20.2471 C   0  0  0  0  0  0  0  0  0  0  0  0
  -21.3711  -28.2294  -21.6208 C   0  0  0  0  0  0  0  0  0  0  0  0
  -21.4688  -29.2390  -22.4835 N   0  0  0  0  0  0  0  0  0  0  0  0
  -21.5048  -28.7493  -18.0494 N   0  0  0  0  0  0  0  0  0  0  0  0
  -21.4080  -27.8270  -19.0174 C   0  0  0  0  0  0  0  0  0  0  0  0
  -21.2166  -27.0161  -22.1538 N   0  0  0  0  0  0  0  0  0  0  0  0
  -21.1382  -26.2279  -21.5691 H   0  0  0  0  0  0  0  0  0  0  0  0
  -21.1810  -26.9089  -23.1318 H   0  0  0  0  0  0  0  0  0  0  0  0
  -21.1981  -26.4625  -18.7747 C   0  0  0  0  0  0  0  0  0  0  0  0
  -21.9120  -25.4433  -19.3936 C   0  0  0  0  0  0  0  0  0  0  0  0
  -21.6670  -24.1050  -19.1100 C   0  0  0  0  0  0  0  0  0  0  0  0
  -20.6939  -23.7698  -18.1835 C   0  0  0  0  0  0  0  0  0  0  0  0
  -19.9741  -24.7753  -17.5445 C   0  0  0  0  0  0  0  0  0  0  0  0
  -20.2371  -26.1124  -17.8300 C   0  0  0  0  0  0  0  0  0  0  0  0
  -20.4231  -22.2978  -17.8691 C   0  0  0  0  0  0  0  0  0  0  0  0
  -21.8143  -31.1158  -17.7462 C   0  0  0  0  0  0  0  0  0  0  0  0
  -20.4331  -31.7507  -17.5774 C   0  0  0  0  0  0  0  0  0  0  0  0
  -22.3835  -30.7311  -16.3683 C   0  0  0  0  0  0  0  0  0  0  0  0
  -22.7678  -32.0682  -18.4785 C   0  0  0  0  0  0  0  0  0  0  0  0
  1  4  1  0  0  0
  1  8  1  0  0  0
  1 20  1  0  0  0
  2  3  2  0  0  0
  2  7  1  0  0  0
  3  4  1  0  0  0
  4  5  2  0  0  0
  5  6  1  0  0  0
  5  9  1  0  0  0
  6  7  2  0  0  0
  6 10  1  0  0  0
  8  9  2  0  0  0
  9 13  1  0  0  0
 13 14  2  0  0  0
 13 18  1  0  0  0
 14 15  1  0  0  0
 15 16  2  0  0  0
 16 17  1  0  0  0
 16 19  1  0  0  0
 17 18  2  0  0  0
 20 21  1  0  0  0
 20 22  1  0  0  0
 20 23  1  0  0  0
 10 11  1  0  0  0
 10 12  1  0  0  0
M  END
> <minimizedAffinity>
-8.83971

$$$$
4FEV_PP1_A_302


 23 25  0  0  0  0  0  0  0  0999 V2000
  -21.4707  -30.7030  -19.3216 N   0  0  0  0  0  0  0  0  0  0  0  0
  -18.7570  -32.2394  -17.5265 C   0  0  0  0  0  0  0  0  0  0  0  0
  -19.7420  -32.1710  -18.4006 N   0  0  0  0  0  0  0  0  0  0  0  0
  -20.4448  -31.0309  -18.5406 C   0  0  0  0  0  0  0  0  0  0  0  0
  -20.1412  -29.9116  -17.7782 C   0  0  0  0  0  0  0  0  0  0  0  0
  -19.0825  -30.0329  -16.8655 C   0  0  0  0  0  0  0  0  0  0  0  0
  -18.4396  -31.1960  -16.7816 N   0  0  0  0  0  0  0  0  0  0  0  0
  -21.8407  -29.5352  -19.1433 N   0  0  0  0  0  0  0  0  0  0  0  0
  -21.0591  -28.9464  -18.2270 C   0  0  0  0  0  0  0  0  0  0  0  0
  -18.6501  -29.0647  -16.0558 N   0  0  0  0  0  0  0  0  0  0  0  0
  -19.0839  -28.1810  -16.0698 H   0  0  0  0  0  0  0  0  0  0  0  0
  -17.8974  -29.2339  -15.4443 H   0  0  0  0  0  0  0  0  0  0  0  0
  -21.2538  -27.6385  -17.7622 C   0  0  0  0  0  0  0  0  0  0  0  0
  -21.0729  -26.5012  -18.5403 C   0  0  0  0  0  0  0  0  0  0  0  0
  -21.2872  -25.2265  -18.0296 C   0  0  0  0  0  0  0  0  0  0  0  0
  -21.6982  -25.0769  -16.7157 C   0  0  0  0  0  0  0  0  0  0  0  0
  -21.8952  -26.2032  -15.9218 C   0  0  0  0  0  0  0  0  0  0  0  0
  -21.6874  -27.4748  -16.4492 C   0  0  0  0  0  0  0  0  0  0  0  0
  -21.9355  -23.6752  -16.1517 C   0  0  0  0  0  0  0  0  0  0  0  0
  -22.1029  -31.6200  -20.3150 C   0  0  0  0  0  0  0  0  0  0  0  0
  -22.9274  -32.6399  -19.5279 C   0  0  0  0  0  0  0  0  0  0  0  0
  -23.0277  -30.7953  -21.2288 C   0  0  0  0  0  0  0  0  0  0  0  0
  -21.0117  -32.3171  -21.1371 C   0  0  0  0  0  0  0  0  0  0  0  0
  1  4  1  0  0  0
  1  8  1  0  0  0
  1 20  1  0  0  0
  2  3  2  0  0  0
  2  7  1  0  0  0
  3  4  1  0  0  0
  4  5  2  0  0  0
  5  6  1  0  0  0
  5  9  1  0  0  0
  6  7  2  0  0  0
  6 10  1  0  0  0
  8  9  2  0  0  0
  9 13  1  0  0  0
 13 14  2  0  0  0
 13 18  1  0  0  0
 14 15  1  0  0  0
 15 16  2  0  0  0
 16 17  1  0  0  0
 16 19  1  0  0  0
 17 18  2  0  0  0
 20 21  1  0  0  0
 20 22  1  0  0  0
 20 23  1  0  0  0
 10 11  1  0  0  0
 10 12  1  0  0  0
M  END
> <minimizedAffinity>
-8.74647

$$$$
4FEV_PP1_A_302


 23 25  0  0  0  0  0  0  0  0999 V2000
  -21.0204  -32.6116  -19.0719 N   0  0  0  0  0  0  0  0  0  0  0  0
  -23.2977  -33.6209  -21.6684 C   0  0  0  0  0  0  0  0  0  0  0  0
  -22.4319  -33.7893  -20.6881 N   0  0  0  0  0  0  0  0  0  0  0  0
  -21.9029  -32.7213  -20.0613 C   0  0  0  0  0  0  0  0  0  0  0  0
  -22.2638  -31.4322  -20.4279 C   0  0  0  0  0  0  0  0  0  0  0  0
  -23.1911  -31.3053  -21.4731 C   0  0  0  0  0  0  0  0  0  0  0  0
  -23.6642  -32.4099  -22.0470 N   0  0  0  0  0  0  0  0  0  0  0  0
  -20.7880  -31.4312  -18.7801 N   0  0  0  0  0  0  0  0  0  0  0  0
  -21.5341  -30.6198  -19.5431 C   0  0  0  0  0  0  0  0  0  0  0  0
  -23.6541  -30.1504  -21.9548 N   0  0  0  0  0  0  0  0  0  0  0  0
  -23.3431  -29.2979  -21.5730 H   0  0  0  0  0  0  0  0  0  0  0  0
  -24.3067  -30.1507  -22.6919 H   0  0  0  0  0  0  0  0  0  0  0  0
  -21.4612  -29.2209  -19.4947 C   0  0  0  0  0  0  0  0  0  0  0  0
  -21.3320  -28.4093  -20.6155 C   0  0  0  0  0  0  0  0  0  0  0  0
  -21.2713  -27.0248  -20.5102 C   0  0  0  0  0  0  0  0  0  0  0  0
  -21.3480  -26.4303  -19.2618 C   0  0  0  0  0  0  0  0  0  0  0  0
  -21.4877  -27.2241  -18.1270 C   0  0  0  0  0  0  0  0  0  0  0  0
  -21.5581  -28.6093  -18.2476 C   0  0  0  0  0  0  0  0  0  0  0  0
  -21.2823  -24.9069  -19.1436 C   0  0  0  0  0  0  0  0  0  0  0  0
  -20.3873  -33.7682  -18.3726 C   0  0  0  0  0  0  0  0  0  0  0  0
  -19.2066  -33.2198  -17.5697 C   0  0  0  0  0  0  0  0  0  0  0  0
  -21.4211  -34.3940  -17.4187 C   0  0  0  0  0  0  0  0  0  0  0  0
  -19.9139  -34.7968  -19.4073 C   0  0  0  0  0  0  0  0  0  0  0  0
  1  4  1  0  0  0
  1  8  1  0  0  0
  1 20  1  0  0  0
  2  3  2  0  0  0
  2  7  1  0  0  0
  3  4  1  0  0  0
  4  5  2  0  0  0
  5  6  1  0  0  0
  5  9  1  0  0  0
  6  7  2  0  0  0
  6 10  1  0  0  0
  8  9  2  0  0  0
  9 13  1  0  0  0
 13 14  2  0  0  0
 13 18  1  0  0  0
 14 15  1  0  0  0
 15 16  2  0  0  0
 16 17  1  0  0  0
 16 19  1  0  0  0
 17 18  2  0  0  0
 20 21  1  0  0  0
 20 22  1  0  0  0
 20 23  1  0  0  0
 10 11  1  0  0  0
 10 12  1  0  0  0
M  END
> <minimizedAffinity>
-8.20783

$$$$
4FEV_PP1_A_302


 23 25  0  0  0  0  0  0  0  0999 V2000
  -21.0696  -30.6930  -18.8686 N   0  0  0  0  0  0  0  0  0  0  0  0
  -21.6697  -30.3666  -22.4013 C   0  0  0  0  0  0  0  0  0  0  0  0
  -21.4142  -30.9987  -21.2726 N   0  0  0  0  0  0  0  0  0  0  0  0
  -21.3229  -30.3120  -20.1178 C   0  0  0  0  0  0  0  0  0  0  0  0
  -21.5036  -28.9361  -20.0938 C   0  0  0  0  0  0  0  0  0  0  0  0
  -21.7774  -28.3101  -21.3193 C   0  0  0  0  0  0  0  0  0  0  0  0
  -21.8458  -29.0578  -22.4190 N   0  0  0  0  0  0  0  0  0  0  0  0
  -21.0687  -29.7394  -18.0792 N   0  0  0  0  0  0  0  0  0  0  0  0
  -21.3592  -28.6069  -18.7351 C   0  0  0  0  0  0  0  0  0  0  0  0
  -21.9817  -27.0022  -21.4862 N   0  0  0  0  0  0  0  0  0  0  0  0
  -21.9445  -26.3954  -20.7118 H   0  0  0  0  0  0  0  0  0  0  0  0
  -22.1697  -26.6440  -22.3837 H   0  0  0  0  0  0  0  0  0  0  0  0
  -21.3816  -27.3418  -18.1322 C   0  0  0  0  0  0  0  0  0  0  0  0
  -21.0954  -26.1567  -18.7995 C   0  0  0  0  0  0  0  0  0  0  0  0
  -21.1395  -24.9270  -18.1534 C   0  0  0  0  0  0  0  0  0  0  0  0
  -21.4832  -24.8711  -16.8130 C   0  0  0  0  0  0  0  0  0  0  0  0
  -21.7835  -26.0452  -16.1283 C   0  0  0  0  0  0  0  0  0  0  0  0
  -21.7460  -27.2693  -16.7904 C   0  0  0  0  0  0  0  0  0  0  0  0
  -21.5332  -23.5190  -16.1001 C   0  0  0  0  0  0  0  0  0  0  0  0
  -20.8290  -32.1046  -18.4483 C   0  0  0  0  0  0  0  0  0  0  0  0
  -19.5556  -32.1133  -17.6011 C   0  0  0  0  0  0  0  0  0  0  0  0
  -22.0235  -32.5770  -17.5994 C   0  0  0  0  0  0  0  0  0  0  0  0
  -20.6650  -32.9892  -19.6906 C   0  0  0  0  0  0  0  0  0  0  0  0
  1  4  1  0  0  0
  1  8  1  0  0  0
  1 20  1  0  0  0
  2  3  2  0  0  0
  2  7  1  0  0  0
  3  4  1  0  0  0
  4  5  2  0  0  0
  5  6  1  0  0  0
  5  9  1  0  0  0
  6  7  2  0  0  0
  6 10  1  0  0  0
  8  9  2  0  0  0
  9 13  1  0  0  0
 13 14  2  0  0  0
 13 18  1  0  0  0
 14 15  1  0  0  0
 15 16  2  0  0  0
 16 17  1  0  0  0
 16 19  1  0  0  0
 17 18  2  0  0  0
 20 21  1  0  0  0
 20 22  1  0  0  0
 20 23  1  0  0  0
 10 11  1  0  0  0
 10 12  1  0  0  0
M  END
> <minimizedAffinity>
-8.19906

$$$$
4FEV_PP1_A_302


 23 25  0  0  0  0  0  0  0  0999 V2000
  -20.7116  -27.3142  -17.0684 N   0  0  0  0  0  0  0  0  0  0  0  0
  -17.8410  -28.8086  -15.4958 C   0  0  0  0  0  0  0  0  0  0  0  0
  -18.7029  -27.8509  -15.7768 N   0  0  0  0  0  0  0  0  0  0  0  0
  -19.7284  -28.0882  -16.6167 C   0  0  0  0  0  0  0  0  0  0  0  0
  -19.9006  -29.3398  -17.1913 C   0  0  0  0  0  0  0  0  0  0  0  0
  -18.9602  -30.3263  -16.8580 C   0  0  0  0  0  0  0  0  0  0  0  0
  -17.9705  -30.0120  -16.0245 N   0  0  0  0  0  0  0  0  0  0  0  0
  -21.4648  -27.9181  -17.8433 N   0  0  0  0  0  0  0  0  0  0  0  0
  -21.0664  -29.1925  -17.9624 C   0  0  0  0  0  0  0  0  0  0  0  0
  -18.9690  -31.5814  -17.3104 N   0  0  0  0  0  0  0  0  0  0  0  0
  -19.6748  -31.8765  -17.9300 H   0  0  0  0  0  0  0  0  0  0  0  0
  -18.2695  -32.2126  -17.0246 H   0  0  0  0  0  0  0  0  0  0  0  0
  -21.6792  -30.1238  -18.8119 C   0  0  0  0  0  0  0  0  0  0  0  0
  -22.3306  -31.2693  -18.3701 C   0  0  0  0  0  0  0  0  0  0  0  0
  -22.9281  -32.1566  -19.2574 C   0  0  0  0  0  0  0  0  0  0  0  0
  -22.8844  -31.8970  -20.6170 C   0  0  0  0  0  0  0  0  0  0  0  0
  -22.2459  -30.7501  -21.0802 C   0  0  0  0  0  0  0  0  0  0  0  0
  -21.6608  -29.8640  -20.1797 C   0  0  0  0  0  0  0  0  0  0  0  0
  -23.5419  -32.8714  -21.5952 C   0  0  0  0  0  0  0  0  0  0  0  0
  -20.9078  -25.8860  -16.6823 C   0  0  0  0  0  0  0  0  0  0  0  0
  -21.7108  -25.2212  -17.8014 C   0  0  0  0  0  0  0  0  0  0  0  0
  -21.7061  -25.8358  -15.3668 C   0  0  0  0  0  0  0  0  0  0  0  0
  -19.5423  -25.2081  -16.5124 C   0  0  0  0  0  0  0  0  0  0  0  0
  1  4  1  0  0  0
  1  8  1  0  0  0
  1 20  1  0  0  0
  2  3  2  0  0  0
  2  7  1  0  0  0
  3  4  1  0  0  0
  4  5  2  0  0  0
  5  6  1  0  0  0
  5  9  1  0  0  0
  6  7  2  0  0  0
  6 10  1  0  0  0
  8  9  2  0  0  0
  9 13  1  0  0  0
 13 14  2  0  0  0
 13 18  1  0  0  0
 14 15  1  0  0  0
 15 16  2  0  0  0
 16 17  1  0  0  0
 16 19  1  0  0  0
 17 18  2  0  0  0
 20 21  1  0  0  0
 20 22  1  0  0  0
 20 23  1  0  0  0
 10 11  1  0  0  0
 10 12  1  0  0  0
M  END
> <minimizedAffinity>
-7.97706

$$$$
4FEV_PP1_A_302


 23 25  0  0  0  0  0  0  0  0999 V2000
  -21.0584  -25.8288  -17.9279 N   0  0  0  0  0  0  0  0  0  0  0  0
  -19.1151  -26.9547  -15.1168 C   0  0  0  0  0  0  0  0  0  0  0  0
  -19.7378  -26.0801  -15.8824 N   0  0  0  0  0  0  0  0  0  0  0  0
  -20.3770  -26.4885  -16.9950 C   0  0  0  0  0  0  0  0  0  0  0  0
  -20.3991  -27.8303  -17.3490 C   0  0  0  0  0  0  0  0  0  0  0  0
  -19.7260  -28.7222  -16.5004 C   0  0  0  0  0  0  0  0  0  0  0  0
  -19.1122  -28.2398  -15.4217 N   0  0  0  0  0  0  0  0  0  0  0  0
  -21.4959  -26.5811  -18.8083 N   0  0  0  0  0  0  0  0  0  0  0  0
  -21.1682  -27.8498  -18.5252 C   0  0  0  0  0  0  0  0  0  0  0  0
  -19.6445  -30.0417  -16.6800 N   0  0  0  0  0  0  0  0  0  0  0  0
  -20.0774  -30.4602  -17.4589 H   0  0  0  0  0  0  0  0  0  0  0  0
  -19.1516  -30.5970  -16.0335 H   0  0  0  0  0  0  0  0  0  0  0  0
  -21.4698  -28.9362  -19.3579 C   0  0  0  0  0  0  0  0  0  0  0  0
  -21.8625  -30.1863  -18.8945 C   0  0  0  0  0  0  0  0  0  0  0  0
  -22.1566  -31.2279  -19.7663 C   0  0  0  0  0  0  0  0  0  0  0  0
  -22.0657  -31.0218  -21.1327 C   0  0  0  0  0  0  0  0  0  0  0  0
  -21.6839  -29.7745  -21.6184 C   0  0  0  0  0  0  0  0  0  0  0  0
  -21.4026  -28.7365  -20.7342 C   0  0  0  0  0  0  0  0  0  0  0  0
  -22.3897  -32.1663  -22.0940 C   0  0  0  0  0  0  0  0  0  0  0  0
  -21.2917  -24.3547  -17.9198 C   0  0  0  0  0  0  0  0  0  0  0  0
  -22.2252  -24.0383  -19.0892 C   0  0  0  0  0  0  0  0  0  0  0  0
  -21.9698  -23.9700  -16.5921 C   0  0  0  0  0  0  0  0  0  0  0  0
  -19.9530  -23.6224  -18.0754 C   0  0  0  0  0  0  0  0  0  0  0  0
  1  4  1  0  0  0
  1  8  1  0  0  0
  1 20  1  0  0  0
  2  3  2  0  0  0
  2  7  1  0  0  0
  3  4  1  0  0  0
  4  5  2  0  0  0
  5  6  1  0  0  0
  5  9  1  0  0  0
  6  7  2  0  0  0
  6 10  1  0  0  0
  8  9  2  0  0  0
  9 13  1  0  0  0
 13 14  2  0  0  0
 13 18  1  0  0  0
 14 15  1  0  0  0
 15 16  2  0  0  0
 16 17  1  0  0  0
 16 19  1  0  0  0
 17 18  2  0  0  0
 20 21  1  0  0  0
 20 22  1  0  0  0
 20 23  1  0  0  0
 10 11  1  0  0  0
 10 12  1  0  0  0
M  END
> <minimizedAffinity>
-7.79227

$$$$
4FEV_PP1_A_302


 23 25  0  0  0  0  0  0  0  0999 V2000
  -20.6835  -33.0800  -18.4750 N   0  0  0  0  0  0  0  0  0  0  0  0
  -17.7274  -33.2997  -16.4353 C   0  0  0  0  0  0  0  0  0  0  0  0
  -18.7455  -33.7534  -17.1402 N   0  0  0  0  0  0  0  0  0  0  0  0
  -19.5949  -32.8933  -17.7334 C   0  0  0  0  0  0  0  0  0  0  0  0
  -19.4103  -31.5223  -17.6215 C   0  0  0  0  0  0  0  0  0  0  0  0
  -18.3109  -31.0892  -16.8650 C   0  0  0  0  0  0  0  0  0  0  0  0
  -17.5200  -32.0020  -16.3043 N   0  0  0  0  0  0  0  0  0  0  0  0
  -21.1947  -32.0111  -18.8340 N   0  0  0  0  0  0  0  0  0  0  0  0
  -20.4619  -30.9834  -18.3825 C   0  0  0  0  0  0  0  0  0  0  0  0
  -17.9773  -29.8149  -16.6526 N   0  0  0  0  0  0  0  0  0  0  0  0
  -18.5221  -29.0923  -17.0401 H   0  0  0  0  0  0  0  0  0  0  0  0
  -17.1864  -29.5973  -16.1083 H   0  0  0  0  0  0  0  0  0  0  0  0
  -20.8067  -29.6382  -18.5730 C   0  0  0  0  0  0  0  0  0  0  0  0
  -21.0190  -28.7353  -17.5380 C   0  0  0  0  0  0  0  0  0  0  0  0
  -21.3527  -27.4088  -17.7844 C   0  0  0  0  0  0  0  0  0  0  0  0
  -21.4717  -26.9654  -19.0909 C   0  0  0  0  0  0  0  0  0  0  0  0
  -21.2534  -27.8507  -20.1426 C   0  0  0  0  0  0  0  0  0  0  0  0
  -20.9090  -29.1742  -19.8818 C   0  0  0  0  0  0  0  0  0  0  0  0
  -21.8379  -25.5059  -19.3645 C   0  0  0  0  0  0  0  0  0  0  0  0
  -21.2287  -34.4167  -18.8535 C   0  0  0  0  0  0  0  0  0  0  0  0
  -22.1099  -34.2127  -20.0869 C   0  0  0  0  0  0  0  0  0  0  0  0
  -20.0534  -35.3486  -19.2005 C   0  0  0  0  0  0  0  0  0  0  0  0
  -22.0451  -34.9870  -17.6869 C   0  0  0  0  0  0  0  0  0  0  0  0
  1  4  1  0  0  0
  1  8  1  0  0  0
  1 20  1  0  0  0
  2  3  2  0  0  0
  2  7  1  0  0  0
  3  4  1  0  0  0
  4  5  2  0  0  0
  5  6  1  0  0  0
  5  9  1  0  0  0
  6  7  2  0  0  0
  6 10  1  0  0  0
  8  9  2  0  0  0
  9 13  1  0  0  0
 13 14  2  0  0  0
 13 18  1  0  0  0
 14 15  1  0  0  0
 15 16  2  0  0  0
 16 17  1  0  0  0
 16 19  1  0  0  0
 17 18  2  0  0  0
 20 21  1  0  0  0
 20 22  1  0  0  0
 20 23  1  0  0  0
 10 11  1  0  0  0
 10 12  1  0  0  0
M  END
> <minimizedAffinity>
-7.67504

$$$$
