4Q93_STL_A_401


 20 21  0  0  0  0  0  0  0  0999 V2000
  -10.0852    9.4377   -6.1704 C   0  0  0  0  0  0  0  0  0  0  0  0
   -8.7292    9.8497   -6.1442 C   0  0  0  0  0  0  0  0  0  0  0  0
   -8.1868   10.6021   -7.2082 C   0  0  0  0  0  0  0  0  0  0  0  0
   -9.0545   10.9117   -8.2590 C   0  0  0  0  0  0  0  0  0  0  0  0
  -10.3796   10.4566   -8.2612 C   0  0  0  0  0  0  0  0  0  0  0  0
  -10.9189    9.7504   -7.2067 C   0  0  0  0  0  0  0  0  0  0  0  0
   -6.8523   10.9977   -7.2946 O   0  0  0  0  0  0  0  0  0  0  0  0
  -10.6714    8.7088   -5.1991 O   0  0  0  0  0  0  0  0  0  0  0  0
   -6.2582   10.7975   -6.5981 H   0  0  0  0  0  0  0  0  0  0  0  0
  -10.1774    8.4466   -4.4473 H   0  0  0  0  0  0  0  0  0  0  0  0
  -11.2613   10.7320   -9.3938 C   0  0  0  0  0  0  0  0  0  0  0  0
  -11.0167   11.3515  -10.5396 C   0  0  0  0  0  0  0  0  0  0  0  0
   -9.9876   12.3648  -10.8937 C   0  0  0  0  0  0  0  0  0  0  0  0
  -10.1838   13.6822  -10.5071 C   0  0  0  0  0  0  0  0  0  0  0  0
   -9.2728   14.6889  -10.8693 C   0  0  0  0  0  0  0  0  0  0  0  0
   -8.1745   14.3653  -11.6219 C   0  0  0  0  0  0  0  0  0  0  0  0
   -7.9961   13.0679  -12.0567 C   0  0  0  0  0  0  0  0  0  0  0  0
   -8.9026   12.0665  -11.6908 C   0  0  0  0  0  0  0  0  0  0  0  0
   -7.2859   15.3079  -12.0336 O   0  0  0  0  0  0  0  0  0  0  0  0
   -7.3827   16.1969  -11.7538 H   0  0  0  0  0  0  0  0  0  0  0  0
  1  2  2  0  0  0
  1  6  1  0  0  0
  1  8  1  0  0  0
  2  3  1  0  0  0
  3  4  2  0  0  0
  3  7  1  0  0  0
  4  5  1  0  0  0
  5  6  2  0  0  0
  5 11  1  0  0  0
 11 12  2  0  0  0
 12 13  1  0  0  0
 13 14  2  0  0  0
 13 18  1  0  0  0
 14 15  1  0  0  0
 15 16  2  0  0  0
 16 17  1  0  0  0
 16 19  1  0  0  0
 17 18  2  0  0  0
 19 20  1  0  0  0
  7  9  1  0  0  0
  8 10  1  0  0  0
M  END
> <minimizedAffinity>
-7.57331

$$$$
4Q93_STL_A_401


 20 21  0  0  0  0  0  0  0  0999 V2000
   -8.9750   10.7845   -7.3311 C   0  0  0  0  0  0  0  0  0  0  0  0
   -9.5280    9.5363   -6.9498 C   0  0  0  0  0  0  0  0  0  0  0  0
  -10.7916    9.1334   -7.4330 C   0  0  0  0  0  0  0  0  0  0  0  0
  -11.4416   10.0205   -8.2951 C   0  0  0  0  0  0  0  0  0  0  0  0
  -10.8742   11.2595   -8.6207 C   0  0  0  0  0  0  0  0  0  0  0  0
   -9.6254   11.6389   -8.1758 C   0  0  0  0  0  0  0  0  0  0  0  0
  -11.4373    7.9534   -7.0646 O   0  0  0  0  0  0  0  0  0  0  0  0
   -7.7812   11.2432   -6.9033 O   0  0  0  0  0  0  0  0  0  0  0  0
  -11.0145    7.3485   -6.4872 H   0  0  0  0  0  0  0  0  0  0  0  0
   -7.2620   10.7254   -6.3200 H   0  0  0  0  0  0  0  0  0  0  0  0
  -11.5899   12.2071   -9.4729 C   0  0  0  0  0  0  0  0  0  0  0  0
  -11.2286   12.7754  -10.6143 C   0  0  0  0  0  0  0  0  0  0  0  0
   -9.8797   13.0476  -11.1778 C   0  0  0  0  0  0  0  0  0  0  0  0
   -9.4256   14.3571  -11.2260 C   0  0  0  0  0  0  0  0  0  0  0  0
   -8.1850   14.6750  -11.8043 C   0  0  0  0  0  0  0  0  0  0  0  0
   -7.4126   13.6754  -12.3349 C   0  0  0  0  0  0  0  0  0  0  0  0
   -7.8769   12.3760  -12.3401 C   0  0  0  0  0  0  0  0  0  0  0  0
   -9.1108   12.0616  -11.7594 C   0  0  0  0  0  0  0  0  0  0  0  0
   -6.2247   13.9348  -12.9427 O   0  0  0  0  0  0  0  0  0  0  0  0
   -5.8853   14.8081  -12.9544 H   0  0  0  0  0  0  0  0  0  0  0  0
  1  2  2  0  0  0
  1  6  1  0  0  0
  1  8  1  0  0  0
  2  3  1  0  0  0
  3  4  2  0  0  0
  3  7  1  0  0  0
  4  5  1  0  0  0
  5  6  2  0  0  0
  5 11  1  0  0  0
 11 12  2  0  0  0
 12 13  1  0  0  0
 13 14  2  0  0  0
 13 18  1  0  0  0
 14 15  1  0  0  0
 15 16  2  0  0  0
 16 17  1  0  0  0
 16 19  1  0  0  0
 17 18  2  0  0  0
 19 20  1  0  0  0
  7  9  1  0  0  0
  8 10  1  0  0  0
M  END
> <minimizedAffinity>
-7.48076

$$$$
4Q93_STL_A_401


 20 21  0  0  0  0  0  0  0  0999 V2000
   -8.0993   12.5273  -12.2713 C   0  0  0  0  0  0  0  0  0  0  0  0
   -7.8027   13.9067  -12.1355 C   0  0  0  0  0  0  0  0  0  0  0  0
   -8.6612   14.7571  -11.4061 C   0  0  0  0  0  0  0  0  0  0  0  0
   -9.7903   14.1634  -10.8357 C   0  0  0  0  0  0  0  0  0  0  0  0
  -10.0638   12.8019  -11.0219 C   0  0  0  0  0  0  0  0  0  0  0  0
   -9.2083   11.9643  -11.7060 C   0  0  0  0  0  0  0  0  0  0  0  0
   -8.4803   16.1335  -11.2714 O   0  0  0  0  0  0  0  0  0  0  0  0
   -7.3356   11.6555  -12.9606 O   0  0  0  0  0  0  0  0  0  0  0  0
   -7.7282   16.5462  -11.6482 H   0  0  0  0  0  0  0  0  0  0  0  0
   -6.5533   11.9505  -13.3837 H   0  0  0  0  0  0  0  0  0  0  0  0
  -11.2797   12.2034  -10.4744 C   0  0  0  0  0  0  0  0  0  0  0  0
  -11.5140   11.6790   -9.2801 C   0  0  0  0  0  0  0  0  0  0  0  0
  -10.5851   11.0835   -8.2832 C   0  0  0  0  0  0  0  0  0  0  0  0
  -11.0143   10.0002   -7.5311 C   0  0  0  0  0  0  0  0  0  0  0  0
  -10.1988    9.4396   -6.5336 C   0  0  0  0  0  0  0  0  0  0  0  0
   -8.9603    9.9753   -6.2954 C   0  0  0  0  0  0  0  0  0  0  0  0
   -8.5434   11.0855   -7.0009 C   0  0  0  0  0  0  0  0  0  0  0  0
   -9.3559   11.6390   -7.9969 C   0  0  0  0  0  0  0  0  0  0  0  0
   -8.1502    9.4969   -5.3143 O   0  0  0  0  0  0  0  0  0  0  0  0
   -8.4080    8.7444   -4.8192 H   0  0  0  0  0  0  0  0  0  0  0  0
  1  2  2  0  0  0
  1  6  1  0  0  0
  1  8  1  0  0  0
  2  3  1  0  0  0
  3  4  2  0  0  0
  3  7  1  0  0  0
  4  5  1  0  0  0
  5  6  2  0  0  0
  5 11  1  0  0  0
 11 12  2  0  0  0
 12 13  1  0  0  0
 13 14  2  0  0  0
 13 18  1  0  0  0
 14 15  1  0  0  0
 15 16  2  0  0  0
 16 17  1  0  0  0
 16 19  1  0  0  0
 17 18  2  0  0  0
 19 20  1  0  0  0
  7  9  1  0  0  0
  8 10  1  0  0  0
M  END
> <minimizedAffinity>
-7.11390

$$$$
4Q93_STL_A_401


 20 21  0  0  0  0  0  0  0  0999 V2000
   -8.5638   11.8181   -9.9099 C   0  0  0  0  0  0  0  0  0  0  0  0
   -8.9215   12.2755  -11.2030 C   0  0  0  0  0  0  0  0  0  0  0  0
  -10.1747   12.8848  -11.4277 C   0  0  0  0  0  0  0  0  0  0  0  0
  -11.0153   13.0101  -10.3184 C   0  0  0  0  0  0  0  0  0  0  0  0
  -10.6363   12.5146   -9.0639 C   0  0  0  0  0  0  0  0  0  0  0  0
   -9.3990   11.9497   -8.8368 C   0  0  0  0  0  0  0  0  0  0  0  0
  -10.6333   13.3090  -12.6747 O   0  0  0  0  0  0  0  0  0  0  0  0
   -7.3921   11.2172   -9.6193 O   0  0  0  0  0  0  0  0  0  0  0  0
  -10.0815   13.2316  -13.4280 H   0  0  0  0  0  0  0  0  0  0  0  0
   -6.7547   11.0830  -10.2928 H   0  0  0  0  0  0  0  0  0  0  0  0
  -11.5475   12.5939   -7.9239 C   0  0  0  0  0  0  0  0  0  0  0  0
  -12.0607   11.6335   -7.1685 C   0  0  0  0  0  0  0  0  0  0  0  0
  -12.2993   10.1947   -7.4584 C   0  0  0  0  0  0  0  0  0  0  0  0
  -11.2245    9.3185   -7.4304 C   0  0  0  0  0  0  0  0  0  0  0  0
  -11.3851    7.9613   -7.7567 C   0  0  0  0  0  0  0  0  0  0  0  0
  -12.6232    7.4957   -8.1142 C   0  0  0  0  0  0  0  0  0  0  0  0
  -13.6891    8.3681   -8.1966 C   0  0  0  0  0  0  0  0  0  0  0  0
  -13.5273    9.7185   -7.8666 C   0  0  0  0  0  0  0  0  0  0  0  0
  -12.8235    6.2017   -8.4791 O   0  0  0  0  0  0  0  0  0  0  0  0
  -12.1174    5.5874   -8.4332 H   0  0  0  0  0  0  0  0  0  0  0  0
  1  2  2  0  0  0
  1  6  1  0  0  0
  1  8  1  0  0  0
  2  3  1  0  0  0
  3  4  2  0  0  0
  3  7  1  0  0  0
  4  5  1  0  0  0
  5  6  2  0  0  0
  5 11  1  0  0  0
 11 12  2  0  0  0
 12 13  1  0  0  0
 13 14  2  0  0  0
 13 18  1  0  0  0
 14 15  1  0  0  0
 15 16  2  0  0  0
 16 17  1  0  0  0
 16 19  1  0  0  0
 17 18  2  0  0  0
 19 20  1  0  0  0
  7  9  1  0  0  0
  8 10  1  0  0  0
M  END
> <minimizedAffinity>
-6.93764

$$$$
4Q93_STL_A_401


 20 21  0  0  0  0  0  0  0  0999 V2000
   -8.4994   14.6364  -11.5601 C   0  0  0  0  0  0  0  0  0  0  0  0
   -7.4769   13.7364  -11.9523 C   0  0  0  0  0  0  0  0  0  0  0  0
   -7.6969   12.3425  -11.9216 C   0  0  0  0  0  0  0  0  0  0  0  0
   -8.9590   11.9194  -11.4963 C   0  0  0  0  0  0  0  0  0  0  0  0
   -9.9308   12.8414  -11.0857 C   0  0  0  0  0  0  0  0  0  0  0  0
   -9.7278   14.2040  -11.1474 C   0  0  0  0  0  0  0  0  0  0  0  0
   -6.7317   11.3846  -12.2316 O   0  0  0  0  0  0  0  0  0  0  0  0
   -8.3616   15.9778  -11.5514 O   0  0  0  0  0  0  0  0  0  0  0  0
   -5.8808   11.6526  -12.5181 H   0  0  0  0  0  0  0  0  0  0  0  0
   -7.5524   16.3674  -11.8188 H   0  0  0  0  0  0  0  0  0  0  0  0
  -11.2257   12.3866  -10.5831 C   0  0  0  0  0  0  0  0  0  0  0  0
  -11.5582   11.8834   -9.4030 C   0  0  0  0  0  0  0  0  0  0  0  0
  -10.7385   11.1733   -8.3857 C   0  0  0  0  0  0  0  0  0  0  0  0
  -11.2976   10.1034   -7.7028 C   0  0  0  0  0  0  0  0  0  0  0  0
  -10.5877    9.4377   -6.6893 C   0  0  0  0  0  0  0  0  0  0  0  0
   -9.3235    9.8555   -6.3656 C   0  0  0  0  0  0  0  0  0  0  0  0
   -8.7770   10.9514   -7.0014 C   0  0  0  0  0  0  0  0  0  0  0  0
   -9.4845   11.6098   -8.0137 C   0  0  0  0  0  0  0  0  0  0  0  0
   -8.6113    9.2728   -5.3652 O   0  0  0  0  0  0  0  0  0  0  0  0
   -8.9580    8.5271   -4.9161 H   0  0  0  0  0  0  0  0  0  0  0  0
  1  2  2  0  0  0
  1  6  1  0  0  0
  1  8  1  0  0  0
  2  3  1  0  0  0
  3  4  2  0  0  0
  3  7  1  0  0  0
  4  5  1  0  0  0
  5  6  2  0  0  0
  5 11  1  0  0  0
 11 12  2  0  0  0
 12 13  1  0  0  0
 13 14  2  0  0  0
 13 18  1  0  0  0
 14 15  1  0  0  0
 15 16  2  0  0  0
 16 17  1  0  0  0
 16 19  1  0  0  0
 17 18  2  0  0  0
 19 20  1  0  0  0
  7  9  1  0  0  0
  8 10  1  0  0  0
M  END
> <minimizedAffinity>
-6.93476

$$$$
4Q93_STL_A_401


 20 21  0  0  0  0  0  0  0  0999 V2000
  -10.1423   12.8752  -11.3861 C   0  0  0  0  0  0  0  0  0  0  0  0
   -8.8542   12.2990  -11.2517 C   0  0  0  0  0  0  0  0  0  0  0  0
   -8.4367   11.7540  -10.0185 C   0  0  0  0  0  0  0  0  0  0  0  0
   -9.3559   11.8124   -8.9676 C   0  0  0  0  0  0  0  0  0  0  0  0
  -10.6072   12.4205   -9.1338 C   0  0  0  0  0  0  0  0  0  0  0  0
  -11.0280   12.9229  -10.3471 C   0  0  0  0  0  0  0  0  0  0  0  0
   -7.1695   11.2227   -9.7794 O   0  0  0  0  0  0  0  0  0  0  0  0
  -10.6079   13.4249  -12.5261 O   0  0  0  0  0  0  0  0  0  0  0  0
   -6.5421   11.1768  -10.4738 H   0  0  0  0  0  0  0  0  0  0  0  0
  -10.0703   13.4385  -13.2934 H   0  0  0  0  0  0  0  0  0  0  0  0
  -11.5372   12.5328   -8.0119 C   0  0  0  0  0  0  0  0  0  0  0  0
  -12.0698   11.5940   -7.2428 C   0  0  0  0  0  0  0  0  0  0  0  0
  -12.3132   10.1503   -7.5026 C   0  0  0  0  0  0  0  0  0  0  0  0
  -11.2397    9.2729   -7.4673 C   0  0  0  0  0  0  0  0  0  0  0  0
  -11.4053    7.9099   -7.7657 C   0  0  0  0  0  0  0  0  0  0  0  0
  -12.6474    7.4397   -8.1030 C   0  0  0  0  0  0  0  0  0  0  0  0
  -13.7125    8.3122   -8.1927 C   0  0  0  0  0  0  0  0  0  0  0  0
  -13.5456    9.6684   -7.8905 C   0  0  0  0  0  0  0  0  0  0  0  0
  -12.8529    6.1392   -8.4409 O   0  0  0  0  0  0  0  0  0  0  0  0
  -12.1474    5.5246   -8.3894 H   0  0  0  0  0  0  0  0  0  0  0  0
  1  2  2  0  0  0
  1  6  1  0  0  0
  1  8  1  0  0  0
  2  3  1  0  0  0
  3  4  2  0  0  0
  3  7  1  0  0  0
  4  5  1  0  0  0
  5  6  2  0  0  0
  5 11  1  0  0  0
 11 12  2  0  0  0
 12 13  1  0  0  0
 13 14  2  0  0  0
 13 18  1  0  0  0
 14 15  1  0  0  0
 15 16  2  0  0  0
 16 17  1  0  0  0
 16 19  1  0  0  0
 17 18  2  0  0  0
 19 20  1  0  0  0
  7  9  1  0  0  0
  8 10  1  0  0  0
M  END
> <minimizedAffinity>
-6.88674

$$$$
4Q93_STL_A_401


 20 21  0  0  0  0  0  0  0  0999 V2000
   -8.9839   12.3763  -11.0169 C   0  0  0  0  0  0  0  0  0  0  0  0
   -9.5892   13.6564  -10.9523 C   0  0  0  0  0  0  0  0  0  0  0  0
  -10.0075   14.1911   -9.7148 C   0  0  0  0  0  0  0  0  0  0  0  0
   -9.7852   13.3983   -8.5857 C   0  0  0  0  0  0  0  0  0  0  0  0
   -9.2135   12.1240   -8.6975 C   0  0  0  0  0  0  0  0  0  0  0  0
   -8.7743   11.6155   -9.9017 C   0  0  0  0  0  0  0  0  0  0  0  0
  -10.6640   15.4124   -9.5647 O   0  0  0  0  0  0  0  0  0  0  0  0
   -8.5691   11.7944  -12.1605 O   0  0  0  0  0  0  0  0  0  0  0  0
  -10.8204   15.9552  -10.3122 H   0  0  0  0  0  0  0  0  0  0  0  0
   -8.6717   12.2415  -12.9776 H   0  0  0  0  0  0  0  0  0  0  0  0
   -9.0427   11.2768   -7.5188 C   0  0  0  0  0  0  0  0  0  0  0  0
   -9.6681   10.1629   -7.1660 C   0  0  0  0  0  0  0  0  0  0  0  0
  -11.0140    9.6485   -7.5335 C   0  0  0  0  0  0  0  0  0  0  0  0
  -12.1010   10.5071   -7.4651 C   0  0  0  0  0  0  0  0  0  0  0  0
  -13.4023   10.0552   -7.7422 C   0  0  0  0  0  0  0  0  0  0  0  0
  -13.6024    8.7426   -8.0805 C   0  0  0  0  0  0  0  0  0  0  0  0
  -12.5363    7.8669   -8.1006 C   0  0  0  0  0  0  0  0  0  0  0  0
  -11.2406    8.3207   -7.8286 C   0  0  0  0  0  0  0  0  0  0  0  0
  -14.8454    8.2458   -8.3170 O   0  0  0  0  0  0  0  0  0  0  0  0
  -15.5877    8.8176   -8.3094 H   0  0  0  0  0  0  0  0  0  0  0  0
  1  2  2  0  0  0
  1  6  1  0  0  0
  1  8  1  0  0  0
  2  3  1  0  0  0
  3  4  2  0  0  0
  3  7  1  0  0  0
  4  5  1  0  0  0
  5  6  2  0  0  0
  5 11  1  0  0  0
 11 12  2  0  0  0
 12 13  1  0  0  0
 13 14  2  0  0  0
 13 18  1  0  0  0
 14 15  1  0  0  0
 15 16  2  0  0  0
 16 17  1  0  0  0
 16 19  1  0  0  0
 17 18  2  0  0  0
 19 20  1  0  0  0
  7  9  1  0  0  0
  8 10  1  0  0  0
M  END
> <minimizedAffinity>
-6.87003

$$$$
4Q93_STL_A_401


 20 21  0  0  0  0  0  0  0  0999 V2000
  -10.1677   13.9190   -9.2575 C   0  0  0  0  0  0  0  0  0  0  0  0
   -9.6625   13.6847  -10.5610 C   0  0  0  0  0  0  0  0  0  0  0  0
   -8.9484   12.5026  -10.8524 C   0  0  0  0  0  0  0  0  0  0  0  0
   -8.7822   11.5987   -9.7996 C   0  0  0  0  0  0  0  0  0  0  0  0
   -9.2691   11.8841   -8.5173 C   0  0  0  0  0  0  0  0  0  0  0  0
   -9.9957   13.0231   -8.2405 C   0  0  0  0  0  0  0  0  0  0  0  0
   -8.3656   12.2171  -12.0869 O   0  0  0  0  0  0  0  0  0  0  0  0
  -10.8484   15.0268   -8.8997 O   0  0  0  0  0  0  0  0  0  0  0  0
   -8.4681   12.8133  -12.8024 H   0  0  0  0  0  0  0  0  0  0  0  0
  -11.0153   15.6985   -9.5313 H   0  0  0  0  0  0  0  0  0  0  0  0
   -9.0358   10.9615   -7.4080 C   0  0  0  0  0  0  0  0  0  0  0  0
   -9.6892    9.8641   -7.0541 C   0  0  0  0  0  0  0  0  0  0  0  0
  -11.0923    9.4451   -7.3123 C   0  0  0  0  0  0  0  0  0  0  0  0
  -11.3259    8.2064   -7.8908 C   0  0  0  0  0  0  0  0  0  0  0  0
  -12.6285    7.7886   -8.2118 C   0  0  0  0  0  0  0  0  0  0  0  0
  -13.6862    8.6208   -7.9543 C   0  0  0  0  0  0  0  0  0  0  0  0
  -13.4617    9.8763   -7.4276 C   0  0  0  0  0  0  0  0  0  0  0  0
  -12.1637   10.2880   -7.1047 C   0  0  0  0  0  0  0  0  0  0  0  0
  -14.9606    8.2817   -8.2838 O   0  0  0  0  0  0  0  0  0  0  0  0
  -15.1422    7.4357   -8.6434 H   0  0  0  0  0  0  0  0  0  0  0  0
  1  2  2  0  0  0
  1  6  1  0  0  0
  1  8  1  0  0  0
  2  3  1  0  0  0
  3  4  2  0  0  0
  3  7  1  0  0  0
  4  5  1  0  0  0
  5  6  2  0  0  0
  5 11  1  0  0  0
 11 12  2  0  0  0
 12 13  1  0  0  0
 13 14  2  0  0  0
 13 18  1  0  0  0
 14 15  1  0  0  0
 15 16  2  0  0  0
 16 17  1  0  0  0
 16 19  1  0  0  0
 17 18  2  0  0  0
 19 20  1  0  0  0
  7  9  1  0  0  0
  8 10  1  0  0  0
M  END
> <minimizedAffinity>
-6.69030

$$$$
4Q93_STL_A_401


 20 21  0  0  0  0  0  0  0  0999 V2000
  -13.0407    7.4671   -7.7703 C   0  0  0  0  0  0  0  0  0  0  0  0
  -12.6099    7.0763   -6.4777 C   0  0  0  0  0  0  0  0  0  0  0  0
  -12.4334    8.0371   -5.4588 C   0  0  0  0  0  0  0  0  0  0  0  0
  -12.7108    9.3640   -5.7979 C   0  0  0  0  0  0  0  0  0  0  0  0
  -13.1029    9.7119   -7.0973 C   0  0  0  0  0  0  0  0  0  0  0  0
  -13.3076    8.7699   -8.0833 C   0  0  0  0  0  0  0  0  0  0  0  0
  -11.9568    7.7518   -4.1795 O   0  0  0  0  0  0  0  0  0  0  0  0
  -13.2209    6.6111   -8.7966 O   0  0  0  0  0  0  0  0  0  0  0  0
  -11.7662    6.8670   -3.9371 H   0  0  0  0  0  0  0  0  0  0  0  0
  -13.0622    5.6955   -8.6764 H   0  0  0  0  0  0  0  0  0  0  0  0
  -13.3299   11.1097   -7.4592 C   0  0  0  0  0  0  0  0  0  0  0  0
  -12.7247   11.8711   -8.3593 C   0  0  0  0  0  0  0  0  0  0  0  0
  -11.3651   11.7755   -8.9539 C   0  0  0  0  0  0  0  0  0  0  0  0
  -10.2666   11.7242   -8.1089 C   0  0  0  0  0  0  0  0  0  0  0  0
   -8.9579   11.6953   -8.6197 C   0  0  0  0  0  0  0  0  0  0  0  0
   -8.7626   11.7238   -9.9757 C   0  0  0  0  0  0  0  0  0  0  0  0
   -9.8453   11.8278  -10.8248 C   0  0  0  0  0  0  0  0  0  0  0  0
  -11.1478   11.8519  -10.3135 C   0  0  0  0  0  0  0  0  0  0  0  0
   -7.5169   11.7400  -10.5193 O   0  0  0  0  0  0  0  0  0  0  0  0
   -6.7635   11.6710   -9.9664 H   0  0  0  0  0  0  0  0  0  0  0  0
  1  2  2  0  0  0
  1  6  1  0  0  0
  1  8  1  0  0  0
  2  3  1  0  0  0
  3  4  2  0  0  0
  3  7  1  0  0  0
  4  5  1  0  0  0
  5  6  2  0  0  0
  5 11  1  0  0  0
 11 12  2  0  0  0
 12 13  1  0  0  0
 13 14  2  0  0  0
 13 18  1  0  0  0
 14 15  1  0  0  0
 15 16  2  0  0  0
 16 17  1  0  0  0
 16 19  1  0  0  0
 17 18  2  0  0  0
 19 20  1  0  0  0
  7  9  1  0  0  0
  8 10  1  0  0  0
M  END
> <minimizedAffinity>
-6.67810

$$$$
4Q93_STL_A_401


 20 21  0  0  0  0  0  0  0  0999 V2000
  -12.2099    7.9607   -5.4179 C   0  0  0  0  0  0  0  0  0  0  0  0
  -13.0147    7.3744   -6.4267 C   0  0  0  0  0  0  0  0  0  0  0  0
  -12.6592    7.4923   -7.7876 C   0  0  0  0  0  0  0  0  0  0  0  0
  -11.4879    8.2014   -8.0671 C   0  0  0  0  0  0  0  0  0  0  0  0
  -10.7386    8.7937   -7.0420 C   0  0  0  0  0  0  0  0  0  0  0  0
  -11.0673    8.6502   -5.7105 C   0  0  0  0  0  0  0  0  0  0  0  0
  -13.4209    7.0006   -8.8474 O   0  0  0  0  0  0  0  0  0  0  0  0
  -12.4891    7.9009   -4.1000 O   0  0  0  0  0  0  0  0  0  0  0  0
  -14.2087    6.5232   -8.6762 H   0  0  0  0  0  0  0  0  0  0  0  0
  -13.2539    7.4482   -3.8032 H   0  0  0  0  0  0  0  0  0  0  0  0
   -9.5497    9.5864   -7.3491 C   0  0  0  0  0  0  0  0  0  0  0  0
   -9.4306   10.8716   -7.6498 C   0  0  0  0  0  0  0  0  0  0  0  0
  -10.4090   11.8246   -8.2377 C   0  0  0  0  0  0  0  0  0  0  0  0
  -10.6576   11.7736   -9.6012 C   0  0  0  0  0  0  0  0  0  0  0  0
  -11.5261   12.6911  -10.2161 C   0  0  0  0  0  0  0  0  0  0  0  0
  -12.1339   13.6567   -9.4574 C   0  0  0  0  0  0  0  0  0  0  0  0
  -11.8539   13.7505   -8.1095 C   0  0  0  0  0  0  0  0  0  0  0  0
  -10.9920   12.8324   -7.4988 C   0  0  0  0  0  0  0  0  0  0  0  0
  -12.9494   14.5934  -10.0100 O   0  0  0  0  0  0  0  0  0  0  0  0
  -13.1566   14.5542  -10.9230 H   0  0  0  0  0  0  0  0  0  0  0  0
  1  2  2  0  0  0
  1  6  1  0  0  0
  1  8  1  0  0  0
  2  3  1  0  0  0
  3  4  2  0  0  0
  3  7  1  0  0  0
  4  5  1  0  0  0
  5  6  2  0  0  0
  5 11  1  0  0  0
 11 12  2  0  0  0
 12 13  1  0  0  0
 13 14  2  0  0  0
 13 18  1  0  0  0
 14 15  1  0  0  0
 15 16  2  0  0  0
 16 17  1  0  0  0
 16 19  1  0  0  0
 17 18  2  0  0  0
 19 20  1  0  0  0
  7  9  1  0  0  0
  8 10  1  0  0  0
M  END
> <minimizedAffinity>
-6.67707

$$$$
