4LRR_CF9_A_309


 25 28  0  0  0  0  0  0  0  0999 V2000
    4.0046   14.9495  -39.2883 C   0  0  0  0  0  0  0  0  0  0  0  0
    3.8625   16.3084  -39.0647 C   0  0  0  0  0  0  0  0  0  0  0  0
    4.8947   17.2279  -38.8913 C   0  0  0  0  0  0  0  0  0  0  0  0
    4.5917   18.5774  -38.6777 C   0  0  0  0  0  0  0  0  0  0  0  0
    3.2689   19.0210  -38.6302 C   0  0  0  0  0  0  0  0  0  0  0  0
    2.2527   18.0772  -38.8052 C   0  0  0  0  0  0  0  0  0  0  0  0
    2.8686   14.1407  -39.4404 C   0  0  0  0  0  0  0  0  0  0  0  0
    1.5693   14.6494  -39.3988 C   0  0  0  0  0  0  0  0  0  0  0  0
    1.4759   15.9971  -39.1733 C   0  0  0  0  0  0  0  0  0  0  0  0
    2.5889   16.7692  -39.0159 C   0  0  0  0  0  0  0  0  0  0  0  0
    0.3440   16.8442  -39.0630 O   0  0  0  0  0  0  0  0  0  0  0  0
    0.8540   18.1074  -38.8413 C   0  0  0  0  0  0  0  0  0  0  0  0
    0.1660   19.0979  -38.6889 O   0  0  0  0  0  0  0  0  0  0  0  0
    5.2601   14.4076  -39.3238 O   0  0  0  0  0  0  0  0  0  0  0  0
    5.3741   13.0842  -39.9240 C   0  0  0  0  0  0  0  0  0  0  0  0
    5.4080   12.0549  -39.2710 O   0  0  0  0  0  0  0  0  0  0  0  0
    5.5748   12.8446  -44.1230 C   0  0  0  0  0  0  0  0  0  0  0  0
    5.6049   11.6792  -43.3684 C   0  0  0  0  0  0  0  0  0  0  0  0
    5.5246   11.7749  -41.9901 C   0  0  0  0  0  0  0  0  0  0  0  0
    5.5309   14.1037  -43.5302 C   0  0  0  0  0  0  0  0  0  0  0  0
    5.4546   14.2030  -42.1529 C   0  0  0  0  0  0  0  0  0  0  0  0
    5.4542   13.0319  -41.4027 C   0  0  0  0  0  0  0  0  0  0  0  0
    5.8304   11.5980  -46.0054 O   0  0  0  0  0  0  0  0  0  0  0  0
    5.4950   12.6959  -45.5291 N   0  0  0  0  0  0  0  0  0  0  0  0
    5.1118   13.6150  -46.2710 O   0  0  0  0  0  0  0  0  0  0  0  0
 16 15  2  0  0  0
 15 14  1  0  0  0
 15 22  1  0  0  0
 21 22  2  0  0  0
 21 20  1  0  0  0
 14  1  1  0  0  0
 22 19  1  0  0  0
 20 17  2  0  0  0
 19 18  2  0  0  0
  1  7  2  0  0  0
  1  2  1  0  0  0
 17 18  1  0  0  0
 17 24  1  0  0  0
  7  8  1  0  0  0
 24 23  1  0  0  0
 24 25  2  0  0  0
  3  2  2  0  0  0
  3  4  1  0  0  0
  2 10  1  0  0  0
  8  9  2  0  0  0
  4  5  2  0  0  0
 10  9  1  0  0  0
 10  6  2  0  0  0
  9 11  1  0  0  0
  5  6  1  0  0  0
  6 12  1  0  0  0
 11 12  1  0  0  0
 12 13  2  0  0  0
M  CHG 1  23  -1
M  CHG 1  24   1
M  END
> <minimizedAffinity>
-9.45159

$$$$
4LRR_CF9_A_309


 25 28  0  0  0  0  0  0  0  0999 V2000
    3.9900   17.0670  -40.4375 C   0  0  0  0  0  0  0  0  0  0  0  0
    2.7753   16.4588  -40.1705 C   0  0  0  0  0  0  0  0  0  0  0  0
    1.8407   16.0347  -41.1127 C   0  0  0  0  0  0  0  0  0  0  0  0
    0.6537   15.4281  -40.6865 C   0  0  0  0  0  0  0  0  0  0  0  0
    0.3850   15.2432  -39.3291 C   0  0  0  0  0  0  0  0  0  0  0  0
    1.3387   15.6797  -38.4051 C   0  0  0  0  0  0  0  0  0  0  0  0
    4.8320   17.4466  -39.3817 C   0  0  0  0  0  0  0  0  0  0  0  0
    4.5121   17.2183  -38.0422 C   0  0  0  0  0  0  0  0  0  0  0  0
    3.3010   16.6167  -37.8246 C   0  0  0  0  0  0  0  0  0  0  0  0
    2.4876   16.2635  -38.8606 C   0  0  0  0  0  0  0  0  0  0  0  0
    2.6531   16.2420  -36.6201 O   0  0  0  0  0  0  0  0  0  0  0  0
    1.4590   15.6705  -37.0108 C   0  0  0  0  0  0  0  0  0  0  0  0
    0.6315   15.2342  -36.2346 O   0  0  0  0  0  0  0  0  0  0  0  0
    4.3371   17.3209  -41.7361 O   0  0  0  0  0  0  0  0  0  0  0  0
    5.5326   16.6471  -42.2273 C   0  0  0  0  0  0  0  0  0  0  0  0
    6.5953   17.2177  -42.4065 O   0  0  0  0  0  0  0  0  0  0  0  0
    5.1609   12.5523  -43.1350 C   0  0  0  0  0  0  0  0  0  0  0  0
    4.6687   13.4983  -44.0245 C   0  0  0  0  0  0  0  0  0  0  0  0
    4.8109   14.8402  -43.7171 C   0  0  0  0  0  0  0  0  0  0  0  0
    5.7334   12.9144  -41.9184 C   0  0  0  0  0  0  0  0  0  0  0  0
    5.8733   14.2544  -41.6065 C   0  0  0  0  0  0  0  0  0  0  0  0
    5.4064   15.1989  -42.5143 C   0  0  0  0  0  0  0  0  0  0  0  0
    6.2352   10.6169  -43.6470 O   0  0  0  0  0  0  0  0  0  0  0  0
    5.1420   11.2016  -43.5603 N   0  0  0  0  0  0  0  0  0  0  0  0
    4.0866   10.6116  -43.8429 O   0  0  0  0  0  0  0  0  0  0  0  0
 16 15  2  0  0  0
 15 14  1  0  0  0
 15 22  1  0  0  0
 21 22  2  0  0  0
 21 20  1  0  0  0
 14  1  1  0  0  0
 22 19  1  0  0  0
 20 17  2  0  0  0
 19 18  2  0  0  0
  1  7  2  0  0  0
  1  2  1  0  0  0
 17 18  1  0  0  0
 17 24  1  0  0  0
  7  8  1  0  0  0
 24 23  1  0  0  0
 24 25  2  0  0  0
  3  2  2  0  0  0
  3  4  1  0  0  0
  2 10  1  0  0  0
  8  9  2  0  0  0
  4  5  2  0  0  0
 10  9  1  0  0  0
 10  6  2  0  0  0
  9 11  1  0  0  0
  5  6  1  0  0  0
  6 12  1  0  0  0
 11 12  1  0  0  0
 12 13  2  0  0  0
M  CHG 1  23  -1
M  CHG 1  24   1
M  END
> <minimizedAffinity>
-9.39387

$$$$
4LRR_CF9_A_309


 25 28  0  0  0  0  0  0  0  0999 V2000
    3.8821   14.6504  -39.2728 C   0  0  0  0  0  0  0  0  0  0  0  0
    2.5769   15.0499  -39.5046 C   0  0  0  0  0  0  0  0  0  0  0  0
    1.5569   14.2653  -40.0383 C   0  0  0  0  0  0  0  0  0  0  0  0
    0.2799   14.8118  -40.2094 C   0  0  0  0  0  0  0  0  0  0  0  0
    0.0087   16.1354  -39.8582 C   0  0  0  0  0  0  0  0  0  0  0  0
    1.0506   16.9009  -39.3267 C   0  0  0  0  0  0  0  0  0  0  0  0
    4.8075   15.5553  -38.7318 C   0  0  0  0  0  0  0  0  0  0  0  0
    4.4685   16.8644  -38.3854 C   0  0  0  0  0  0  0  0  0  0  0  0
    3.1686   17.2170  -38.6338 C   0  0  0  0  0  0  0  0  0  0  0  0
    2.2827   16.3301  -39.1709 C   0  0  0  0  0  0  0  0  0  0  0  0
    2.4808   18.4389  -38.4216 O   0  0  0  0  0  0  0  0  0  0  0  0
    1.1897   18.2103  -38.8527 C   0  0  0  0  0  0  0  0  0  0  0  0
    0.3093   19.0481  -38.8272 O   0  0  0  0  0  0  0  0  0  0  0  0
    4.2599   13.3795  -39.6095 O   0  0  0  0  0  0  0  0  0  0  0  0
    5.5238   13.2509  -40.3243 C   0  0  0  0  0  0  0  0  0  0  0  0
    6.5978   13.1145  -39.7633 O   0  0  0  0  0  0  0  0  0  0  0  0
    5.3082   13.2910  -44.5292 C   0  0  0  0  0  0  0  0  0  0  0  0
    5.4605   12.0822  -43.8628 C   0  0  0  0  0  0  0  0  0  0  0  0
    5.5162   12.0854  -42.4800 C   0  0  0  0  0  0  0  0  0  0  0  0
    5.2747   14.5061  -43.8501 C   0  0  0  0  0  0  0  0  0  0  0  0
    5.3342   14.5131  -42.4684 C   0  0  0  0  0  0  0  0  0  0  0  0
    5.4560   13.2975  -41.8038 C   0  0  0  0  0  0  0  0  0  0  0  0
    4.5929   12.1856  -46.3809 O   0  0  0  0  0  0  0  0  0  0  0  0
    5.0925   13.2293  -45.9275 N   0  0  0  0  0  0  0  0  0  0  0  0
    5.3882   14.1682  -46.6846 O   0  0  0  0  0  0  0  0  0  0  0  0
 16 15  2  0  0  0
 15 14  1  0  0  0
 15 22  1  0  0  0
 21 22  2  0  0  0
 21 20  1  0  0  0
 14  1  1  0  0  0
 22 19  1  0  0  0
 20 17  2  0  0  0
 19 18  2  0  0  0
  1  7  2  0  0  0
  1  2  1  0  0  0
 17 18  1  0  0  0
 17 24  1  0  0  0
  7  8  1  0  0  0
 24 23  1  0  0  0
 24 25  2  0  0  0
  3  2  2  0  0  0
  3  4  1  0  0  0
  2 10  1  0  0  0
  8  9  2  0  0  0
  4  5  2  0  0  0
 10  9  1  0  0  0
 10  6  2  0  0  0
  9 11  1  0  0  0
  5  6  1  0  0  0
  6 12  1  0  0  0
 11 12  1  0  0  0
 12 13  2  0  0  0
M  CHG 1  23  -1
M  CHG 1  24   1
M  END
> <minimizedAffinity>
-9.10067

$$$$
4LRR_CF9_A_309


 25 28  0  0  0  0  0  0  0  0999 V2000
    2.2234   14.5737  -38.8034 C   0  0  0  0  0  0  0  0  0  0  0  0
    3.1746   14.1012  -39.6915 C   0  0  0  0  0  0  0  0  0  0  0  0
    4.3952   13.5176  -39.3590 C   0  0  0  0  0  0  0  0  0  0  0  0
    5.2542   13.0819  -40.3744 C   0  0  0  0  0  0  0  0  0  0  0  0
    4.9117   13.2258  -41.7201 C   0  0  0  0  0  0  0  0  0  0  0  0
    3.6822   13.8163  -42.0257 C   0  0  0  0  0  0  0  0  0  0  0  0
    1.0359   15.1445  -39.2849 C   0  0  0  0  0  0  0  0  0  0  0  0
    0.7448   15.2444  -40.6465 C   0  0  0  0  0  0  0  0  0  0  0  0
    1.7141   14.7670  -41.4882 C   0  0  0  0  0  0  0  0  0  0  0  0
    2.8689   14.2250  -41.0060 C   0  0  0  0  0  0  0  0  0  0  0  0
    1.7688   14.7093  -42.9041 O   0  0  0  0  0  0  0  0  0  0  0  0
    2.9821   14.1209  -43.1986 C   0  0  0  0  0  0  0  0  0  0  0  0
    3.3771   13.9139  -44.3294 O   0  0  0  0  0  0  0  0  0  0  0  0
    2.4739   14.5067  -37.4603 O   0  0  0  0  0  0  0  0  0  0  0  0
    2.5684   15.7805  -36.7579 C   0  0  0  0  0  0  0  0  0  0  0  0
    2.1076   15.9652  -35.6441 O   0  0  0  0  0  0  0  0  0  0  0  0
    4.4773   18.9650  -38.7438 C   0  0  0  0  0  0  0  0  0  0  0  0
    3.1667   19.1157  -38.3103 C   0  0  0  0  0  0  0  0  0  0  0  0
    2.5585   18.0639  -37.6475 C   0  0  0  0  0  0  0  0  0  0  0  0
    5.1709   17.7679  -38.5870 C   0  0  0  0  0  0  0  0  0  0  0  0
    4.5646   16.7136  -37.9287 C   0  0  0  0  0  0  0  0  0  0  0  0
    3.2624   16.8796  -37.4693 C   0  0  0  0  0  0  0  0  0  0  0  0
    6.1234   19.9354  -39.9732 O   0  0  0  0  0  0  0  0  0  0  0  0
    5.1147   20.1151  -39.2698 N   0  0  0  0  0  0  0  0  0  0  0  0
    4.6990   21.2634  -39.0445 O   0  0  0  0  0  0  0  0  0  0  0  0
 16 15  2  0  0  0
 15 14  1  0  0  0
 15 22  1  0  0  0
 21 22  2  0  0  0
 21 20  1  0  0  0
 14  1  1  0  0  0
 22 19  1  0  0  0
 20 17  2  0  0  0
 19 18  2  0  0  0
  1  7  2  0  0  0
  1  2  1  0  0  0
 17 18  1  0  0  0
 17 24  1  0  0  0
  7  8  1  0  0  0
 24 23  1  0  0  0
 24 25  2  0  0  0
  3  2  2  0  0  0
  3  4  1  0  0  0
  2 10  1  0  0  0
  8  9  2  0  0  0
  4  5  2  0  0  0
 10  9  1  0  0  0
 10  6  2  0  0  0
  9 11  1  0  0  0
  5  6  1  0  0  0
  6 12  1  0  0  0
 11 12  1  0  0  0
 12 13  2  0  0  0
M  CHG 1  23  -1
M  CHG 1  24   1
M  END
> <minimizedAffinity>
-9.04590

$$$$
4LRR_CF9_A_309


 25 28  0  0  0  0  0  0  0  0999 V2000
    2.2546   15.5702  -39.9265 C   0  0  0  0  0  0  0  0  0  0  0  0
    3.3924   15.4340  -40.7034 C   0  0  0  0  0  0  0  0  0  0  0  0
    3.7232   16.1958  -41.8220 C   0  0  0  0  0  0  0  0  0  0  0  0
    4.9180   15.9413  -42.5048 C   0  0  0  0  0  0  0  0  0  0  0  0
    5.7863   14.9310  -42.0874 C   0  0  0  0  0  0  0  0  0  0  0  0
    5.4292   14.1805  -40.9634 C   0  0  0  0  0  0  0  0  0  0  0  0
    2.0506   14.7244  -38.8262 C   0  0  0  0  0  0  0  0  0  0  0  0
    2.9677   13.7415  -38.4500 C   0  0  0  0  0  0  0  0  0  0  0  0
    4.0767   13.6406  -39.2474 C   0  0  0  0  0  0  0  0  0  0  0  0
    4.2562   14.4622  -40.3209 C   0  0  0  0  0  0  0  0  0  0  0  0
    5.1950   12.7714  -39.1775 O   0  0  0  0  0  0  0  0  0  0  0  0
    6.0024   13.1299  -40.2380 C   0  0  0  0  0  0  0  0  0  0  0  0
    7.0589   12.5878  -40.4978 O   0  0  0  0  0  0  0  0  0  0  0  0
    1.3236   16.5128  -40.2674 O   0  0  0  0  0  0  0  0  0  0  0  0
    1.2159   17.6632  -39.3788 C   0  0  0  0  0  0  0  0  0  0  0  0
    0.3818   17.7477  -38.4933 O   0  0  0  0  0  0  0  0  0  0  0  0
    4.0168   20.7583  -39.9303 C   0  0  0  0  0  0  0  0  0  0  0  0
    3.9496   20.1057  -38.7064 C   0  0  0  0  0  0  0  0  0  0  0  0
    3.0324   19.0817  -38.5461 C   0  0  0  0  0  0  0  0  0  0  0  0
    3.1471   20.4547  -40.9745 C   0  0  0  0  0  0  0  0  0  0  0  0
    2.2268   19.4347  -40.8161 C   0  0  0  0  0  0  0  0  0  0  0  0
    2.1837   18.7635  -39.5989 C   0  0  0  0  0  0  0  0  0  0  0  0
    5.6770   22.0595  -39.0858 O   0  0  0  0  0  0  0  0  0  0  0  0
    5.0736   21.6847  -40.1056 N   0  0  0  0  0  0  0  0  0  0  0  0
    5.3948   22.1181  -41.2241 O   0  0  0  0  0  0  0  0  0  0  0  0
 16 15  2  0  0  0
 15 14  1  0  0  0
 15 22  1  0  0  0
 21 22  2  0  0  0
 21 20  1  0  0  0
 14  1  1  0  0  0
 22 19  1  0  0  0
 20 17  2  0  0  0
 19 18  2  0  0  0
  1  7  2  0  0  0
  1  2  1  0  0  0
 17 18  1  0  0  0
 17 24  1  0  0  0
  7  8  1  0  0  0
 24 23  1  0  0  0
 24 25  2  0  0  0
  3  2  2  0  0  0
  3  4  1  0  0  0
  2 10  1  0  0  0
  8  9  2  0  0  0
  4  5  2  0  0  0
 10  9  1  0  0  0
 10  6  2  0  0  0
  9 11  1  0  0  0
  5  6  1  0  0  0
  6 12  1  0  0  0
 11 12  1  0  0  0
 12 13  2  0  0  0
M  CHG 1  23  -1
M  CHG 1  24   1
M  END
> <minimizedAffinity>
-9.04319

$$$$
4LRR_CF9_A_309


 25 28  0  0  0  0  0  0  0  0999 V2000
    5.5159   14.8189  -41.8570 C   0  0  0  0  0  0  0  0  0  0  0  0
    5.4196   14.4512  -43.1882 C   0  0  0  0  0  0  0  0  0  0  0  0
    5.4234   15.3119  -44.2837 C   0  0  0  0  0  0  0  0  0  0  0  0
    5.3232   14.7873  -45.5773 C   0  0  0  0  0  0  0  0  0  0  0  0
    5.2144   13.4121  -45.7915 C   0  0  0  0  0  0  0  0  0  0  0  0
    5.2111   12.5713  -44.6748 C   0  0  0  0  0  0  0  0  0  0  0  0
    5.4938   13.8378  -40.8545 C   0  0  0  0  0  0  0  0  0  0  0  0
    5.3993   12.4738  -41.1358 C   0  0  0  0  0  0  0  0  0  0  0  0
    5.3040   12.1561  -42.4647 C   0  0  0  0  0  0  0  0  0  0  0  0
    5.3153   13.1214  -43.4279 C   0  0  0  0  0  0  0  0  0  0  0  0
    5.1889   10.9004  -43.1136 O   0  0  0  0  0  0  0  0  0  0  0  0
    5.1374   11.1901  -44.4621 C   0  0  0  0  0  0  0  0  0  0  0  0
    5.0308   10.3474  -45.3317 O   0  0  0  0  0  0  0  0  0  0  0  0
    5.5974   16.1462  -41.5363 O   0  0  0  0  0  0  0  0  0  0  0  0
    4.3324   16.8317  -41.3026 C   0  0  0  0  0  0  0  0  0  0  0  0
    3.8040   17.5585  -42.1270 O   0  0  0  0  0  0  0  0  0  0  0  0
    2.4481   16.1504  -37.5993 C   0  0  0  0  0  0  0  0  0  0  0  0
    1.7383   15.9500  -38.7759 C   0  0  0  0  0  0  0  0  0  0  0  0
    2.3766   16.1657  -39.9848 C   0  0  0  0  0  0  0  0  0  0  0  0
    3.7583   16.6217  -37.6020 C   0  0  0  0  0  0  0  0  0  0  0  0
    4.3977   16.8420  -38.8083 C   0  0  0  0  0  0  0  0  0  0  0  0
    3.6926   16.6108  -39.9845 C   0  0  0  0  0  0  0  0  0  0  0  0
    2.4196   15.9905  -35.3330 O   0  0  0  0  0  0  0  0  0  0  0  0
    1.8132   15.7638  -36.3939 N   0  0  0  0  0  0  0  0  0  0  0  0
    0.6987   15.2163  -36.3791 O   0  0  0  0  0  0  0  0  0  0  0  0
 16 15  2  0  0  0
 15 14  1  0  0  0
 15 22  1  0  0  0
 21 22  2  0  0  0
 21 20  1  0  0  0
 14  1  1  0  0  0
 22 19  1  0  0  0
 20 17  2  0  0  0
 19 18  2  0  0  0
  1  7  2  0  0  0
  1  2  1  0  0  0
 17 18  1  0  0  0
 17 24  1  0  0  0
  7  8  1  0  0  0
 24 23  1  0  0  0
 24 25  2  0  0  0
  3  2  2  0  0  0
  3  4  1  0  0  0
  2 10  1  0  0  0
  8  9  2  0  0  0
  4  5  2  0  0  0
 10  9  1  0  0  0
 10  6  2  0  0  0
  9 11  1  0  0  0
  5  6  1  0  0  0
  6 12  1  0  0  0
 11 12  1  0  0  0
 12 13  2  0  0  0
M  CHG 1  23  -1
M  CHG 1  24   1
M  END
> <minimizedAffinity>
-8.99836

$$$$
4LRR_CF9_A_309


 25 28  0  0  0  0  0  0  0  0999 V2000
    1.8924   15.2387  -40.9708 C   0  0  0  0  0  0  0  0  0  0  0  0
    2.5220   16.0804  -40.0697 C   0  0  0  0  0  0  0  0  0  0  0  0
    3.3604   17.1473  -40.3852 C   0  0  0  0  0  0  0  0  0  0  0  0
    3.9219   17.9144  -39.3582 C   0  0  0  0  0  0  0  0  0  0  0  0
    3.6604   17.6267  -38.0174 C   0  0  0  0  0  0  0  0  0  0  0  0
    2.8174   16.5497  -37.7288 C   0  0  0  0  0  0  0  0  0  0  0  0
    1.0758   14.1972  -40.5057 C   0  0  0  0  0  0  0  0  0  0  0  0
    0.8406   13.9716  -39.1483 C   0  0  0  0  0  0  0  0  0  0  0  0
    1.4847   14.8260  -38.2934 C   0  0  0  0  0  0  0  0  0  0  0  0
    2.2849   15.8271  -38.7596 C   0  0  0  0  0  0  0  0  0  0  0  0
    1.4884   14.8950  -36.8769 O   0  0  0  0  0  0  0  0  0  0  0  0
    2.3094   15.9599  -36.5657 C   0  0  0  0  0  0  0  0  0  0  0  0
    2.5554   16.3154  -35.4296 O   0  0  0  0  0  0  0  0  0  0  0  0
    2.1057   15.4166  -42.3102 O   0  0  0  0  0  0  0  0  0  0  0  0
    3.2527   14.7192  -42.8784 C   0  0  0  0  0  0  0  0  0  0  0  0
    4.3881   15.1628  -42.8452 O   0  0  0  0  0  0  0  0  0  0  0  0
    2.5601   10.9711  -44.6675 C   0  0  0  0  0  0  0  0  0  0  0  0
    3.8326   11.2866  -44.2096 C   0  0  0  0  0  0  0  0  0  0  0  0
    4.0400   12.5176  -43.6120 C   0  0  0  0  0  0  0  0  0  0  0  0
    1.5076   11.8802  -44.5998 C   0  0  0  0  0  0  0  0  0  0  0  0
    1.7127   13.1126  -44.0069 C   0  0  0  0  0  0  0  0  0  0  0  0
    2.9813   13.4125  -43.5222 C   0  0  0  0  0  0  0  0  0  0  0  0
    3.3100    9.0775  -45.6748 O   0  0  0  0  0  0  0  0  0  0  0  0
    2.3528    9.6460  -45.1223 N   0  0  0  0  0  0  0  0  0  0  0  0
    1.2652    9.0624  -44.9867 O   0  0  0  0  0  0  0  0  0  0  0  0
 16 15  2  0  0  0
 15 14  1  0  0  0
 15 22  1  0  0  0
 21 22  2  0  0  0
 21 20  1  0  0  0
 14  1  1  0  0  0
 22 19  1  0  0  0
 20 17  2  0  0  0
 19 18  2  0  0  0
  1  7  2  0  0  0
  1  2  1  0  0  0
 17 18  1  0  0  0
 17 24  1  0  0  0
  7  8  1  0  0  0
 24 23  1  0  0  0
 24 25  2  0  0  0
  3  2  2  0  0  0
  3  4  1  0  0  0
  2 10  1  0  0  0
  8  9  2  0  0  0
  4  5  2  0  0  0
 10  9  1  0  0  0
 10  6  2  0  0  0
  9 11  1  0  0  0
  5  6  1  0  0  0
  6 12  1  0  0  0
 11 12  1  0  0  0
 12 13  2  0  0  0
M  CHG 1  23  -1
M  CHG 1  24   1
M  END
> <minimizedAffinity>
-8.95668

$$$$
4LRR_CF9_A_309


 25 28  0  0  0  0  0  0  0  0999 V2000
    2.1309   16.8415  -38.1984 C   0  0  0  0  0  0  0  0  0  0  0  0
    3.3098   17.4855  -38.5335 C   0  0  0  0  0  0  0  0  0  0  0  0
    4.5990   17.0634  -38.2161 C   0  0  0  0  0  0  0  0  0  0  0  0
    5.6986   17.8231  -38.6313 C   0  0  0  0  0  0  0  0  0  0  0  0
    5.5272   19.0034  -39.3569 C   0  0  0  0  0  0  0  0  0  0  0  0
    4.2231   19.4049  -39.6602 C   0  0  0  0  0  0  0  0  0  0  0  0
    0.8981   17.3889  -38.5836 C   0  0  0  0  0  0  0  0  0  0  0  0
    0.7945   18.5673  -39.3247 C   0  0  0  0  0  0  0  0  0  0  0  0
    1.9847   19.1714  -39.6319 C   0  0  0  0  0  0  0  0  0  0  0  0
    3.1754   18.6337  -39.2409 C   0  0  0  0  0  0  0  0  0  0  0  0
    2.2641   20.3612  -40.3512 O   0  0  0  0  0  0  0  0  0  0  0  0
    3.6398   20.4724  -40.3520 C   0  0  0  0  0  0  0  0  0  0  0  0
    4.2446   21.3866  -40.8776 O   0  0  0  0  0  0  0  0  0  0  0  0
    2.1865   15.6903  -37.4617 O   0  0  0  0  0  0  0  0  0  0  0  0
    1.9106   14.4519  -38.1793 C   0  0  0  0  0  0  0  0  0  0  0  0
    0.9932   13.7023  -37.8903 O   0  0  0  0  0  0  0  0  0  0  0  0
    4.5269   13.4548  -41.3241 C   0  0  0  0  0  0  0  0  0  0  0  0
    4.8851   13.1589  -40.0155 C   0  0  0  0  0  0  0  0  0  0  0  0
    4.0078   13.4813  -38.9948 C   0  0  0  0  0  0  0  0  0  0  0  0
    3.3434   14.1217  -41.6299 C   0  0  0  0  0  0  0  0  0  0  0  0
    2.4664   14.4488  -40.6118 C   0  0  0  0  0  0  0  0  0  0  0  0
    2.8156   14.1230  -39.3056 C   0  0  0  0  0  0  0  0  0  0  0  0
    5.3601   13.5650  -43.4351 O   0  0  0  0  0  0  0  0  0  0  0  0
    5.3743   12.9641  -42.3473 N   0  0  0  0  0  0  0  0  0  0  0  0
    6.1047   11.9735  -42.1830 O   0  0  0  0  0  0  0  0  0  0  0  0
 16 15  2  0  0  0
 15 14  1  0  0  0
 15 22  1  0  0  0
 21 22  2  0  0  0
 21 20  1  0  0  0
 14  1  1  0  0  0
 22 19  1  0  0  0
 20 17  2  0  0  0
 19 18  2  0  0  0
  1  7  2  0  0  0
  1  2  1  0  0  0
 17 18  1  0  0  0
 17 24  1  0  0  0
  7  8  1  0  0  0
 24 23  1  0  0  0
 24 25  2  0  0  0
  3  2  2  0  0  0
  3  4  1  0  0  0
  2 10  1  0  0  0
  8  9  2  0  0  0
  4  5  2  0  0  0
 10  9  1  0  0  0
 10  6  2  0  0  0
  9 11  1  0  0  0
  5  6  1  0  0  0
  6 12  1  0  0  0
 11 12  1  0  0  0
 12 13  2  0  0  0
M  CHG 1  23  -1
M  CHG 1  24   1
M  END
> <minimizedAffinity>
-8.94906

$$$$
4LRR_CF9_A_309


 25 28  0  0  0  0  0  0  0  0999 V2000
    4.3191   13.7977  -44.2398 C   0  0  0  0  0  0  0  0  0  0  0  0
    3.1338   13.1750  -44.5921 C   0  0  0  0  0  0  0  0  0  0  0  0
    1.8803   13.7769  -44.6787 C   0  0  0  0  0  0  0  0  0  0  0  0
    0.7697   13.0131  -45.0552 C   0  0  0  0  0  0  0  0  0  0  0  0
    0.8937   11.6526  -45.3424 C   0  0  0  0  0  0  0  0  0  0  0  0
    2.1623   11.0736  -45.2458 C   0  0  0  0  0  0  0  0  0  0  0  0
    5.5114   13.0602  -44.1897 C   0  0  0  0  0  0  0  0  0  0  0  0
    5.5721   11.7018  -44.5054 C   0  0  0  0  0  0  0  0  0  0  0  0
    4.3766   11.1267  -44.8459 C   0  0  0  0  0  0  0  0  0  0  0  0
    3.2232   11.8536  -44.8792 C   0  0  0  0  0  0  0  0  0  0  0  0
    4.0579    9.7947  -45.2138 O   0  0  0  0  0  0  0  0  0  0  0  0
    2.6987    9.7978  -45.4538 C   0  0  0  0  0  0  0  0  0  0  0  0
    2.0683    8.8138  -45.7885 O   0  0  0  0  0  0  0  0  0  0  0  0
    4.3024   15.1253  -43.9104 O   0  0  0  0  0  0  0  0  0  0  0  0
    4.6840   15.4549  -42.5428 C   0  0  0  0  0  0  0  0  0  0  0  0
    5.7279   16.0167  -42.2573 O   0  0  0  0  0  0  0  0  0  0  0  0
    1.9023   14.3829  -39.5692 C   0  0  0  0  0  0  0  0  0  0  0  0
    1.5332   15.2840  -40.5593 C   0  0  0  0  0  0  0  0  0  0  0  0
    2.4552   15.6154  -41.5367 C   0  0  0  0  0  0  0  0  0  0  0  0
    3.1891   13.8558  -39.4971 C   0  0  0  0  0  0  0  0  0  0  0  0
    4.1140   14.1881  -40.4701 C   0  0  0  0  0  0  0  0  0  0  0  0
    3.7303   15.0673  -41.4770 C   0  0  0  0  0  0  0  0  0  0  0  0
   -0.0902   13.3598  -39.1877 O   0  0  0  0  0  0  0  0  0  0  0  0
    0.8838   13.9473  -38.6869 N   0  0  0  0  0  0  0  0  0  0  0  0
    0.9431   14.1395  -37.4615 O   0  0  0  0  0  0  0  0  0  0  0  0
 16 15  2  0  0  0
 15 14  1  0  0  0
 15 22  1  0  0  0
 21 22  2  0  0  0
 21 20  1  0  0  0
 14  1  1  0  0  0
 22 19  1  0  0  0
 20 17  2  0  0  0
 19 18  2  0  0  0
  1  7  2  0  0  0
  1  2  1  0  0  0
 17 18  1  0  0  0
 17 24  1  0  0  0
  7  8  1  0  0  0
 24 23  1  0  0  0
 24 25  2  0  0  0
  3  2  2  0  0  0
  3  4  1  0  0  0
  2 10  1  0  0  0
  8  9  2  0  0  0
  4  5  2  0  0  0
 10  9  1  0  0  0
 10  6  2  0  0  0
  9 11  1  0  0  0
  5  6  1  0  0  0
  6 12  1  0  0  0
 11 12  1  0  0  0
 12 13  2  0  0  0
M  CHG 1  23  -1
M  CHG 1  24   1
M  END
> <minimizedAffinity>
-8.88385

$$$$
4LRR_CF9_A_309


 25 28  0  0  0  0  0  0  0  0999 V2000
    3.3132   15.8375  -41.0494 C   0  0  0  0  0  0  0  0  0  0  0  0
    2.3588   15.3816  -40.1560 C   0  0  0  0  0  0  0  0  0  0  0  0
    1.2223   14.6398  -40.4708 C   0  0  0  0  0  0  0  0  0  0  0  0
    0.3483   14.2452  -39.4516 C   0  0  0  0  0  0  0  0  0  0  0  0
    0.5923   14.5861  -38.1199 C   0  0  0  0  0  0  0  0  0  0  0  0
    1.7387   15.3324  -37.8321 C   0  0  0  0  0  0  0  0  0  0  0  0
    4.4089   16.5813  -40.5869 C   0  0  0  0  0  0  0  0  0  0  0  0
    4.6050   16.8756  -39.2364 C   0  0  0  0  0  0  0  0  0  0  0  0
    3.6361   16.4072  -38.3893 C   0  0  0  0  0  0  0  0  0  0  0  0
    2.5701   15.6951  -38.8546 C   0  0  0  0  0  0  0  0  0  0  0  0
    3.5004   16.5171  -36.9819 O   0  0  0  0  0  0  0  0  0  0  0  0
    2.3331   15.8476  -36.6747 C   0  0  0  0  0  0  0  0  0  0  0  0
    1.8911   15.7403  -35.5474 O   0  0  0  0  0  0  0  0  0  0  0  0
    3.1531   15.5822  -42.3837 O   0  0  0  0  0  0  0  0  0  0  0  0
    4.1748   14.7509  -43.0080 C   0  0  0  0  0  0  0  0  0  0  0  0
    5.3479   15.0757  -43.0807 O   0  0  0  0  0  0  0  0  0  0  0  0
    2.9708   11.0361  -44.5827 C   0  0  0  0  0  0  0  0  0  0  0  0
    4.3125   11.2585  -44.3022 C   0  0  0  0  0  0  0  0  0  0  0  0
    4.6895   12.4803  -43.7726 C   0  0  0  0  0  0  0  0  0  0  0  0
    2.0084   12.0269  -44.4062 C   0  0  0  0  0  0  0  0  0  0  0  0
    2.3825   13.2502  -43.8809 C   0  0  0  0  0  0  0  0  0  0  0  0
    3.7228   13.4578  -43.5730 C   0  0  0  0  0  0  0  0  0  0  0  0
    1.4864    9.3161  -44.6124 O   0  0  0  0  0  0  0  0  0  0  0  0
    2.6055    9.7232  -44.9681 N   0  0  0  0  0  0  0  0  0  0  0  0
    3.3612    8.9937  -45.6305 O   0  0  0  0  0  0  0  0  0  0  0  0
 16 15  2  0  0  0
 15 14  1  0  0  0
 15 22  1  0  0  0
 21 22  2  0  0  0
 21 20  1  0  0  0
 14  1  1  0  0  0
 22 19  1  0  0  0
 20 17  2  0  0  0
 19 18  2  0  0  0
  1  7  2  0  0  0
  1  2  1  0  0  0
 17 18  1  0  0  0
 17 24  1  0  0  0
  7  8  1  0  0  0
 24 23  1  0  0  0
 24 25  2  0  0  0
  3  2  2  0  0  0
  3  4  1  0  0  0
  2 10  1  0  0  0
  8  9  2  0  0  0
  4  5  2  0  0  0
 10  9  1  0  0  0
 10  6  2  0  0  0
  9 11  1  0  0  0
  5  6  1  0  0  0
  6 12  1  0  0  0
 11 12  1  0  0  0
 12 13  2  0  0  0
M  CHG 1  23  -1
M  CHG 1  24   1
M  END
> <minimizedAffinity>
-8.87329

$$$$
