2BFQ_AR6_A_1193


 45 48  0  0  0  0  0  0  0  0999 V2000
  -16.5453   23.1739    4.4753 O   0  0  0  0  0  0  0  0  0  0  0  0
  -15.8839   22.5788    5.7379 P   0  0  0  0  0  0  0  0  0  0  0  0
  -14.9726   21.4481    5.2985 O   0  0  0  0  0  0  0  0  0  0  0  0
  -17.0177   22.0915    6.6643 O   0  0  0  0  0  0  0  0  0  0  0  0
  -14.5444   21.0572    6.0761 H   0  0  0  0  0  0  0  0  0  0  0  0
  -15.0173   23.6403    6.4418 O   0  0  0  0  0  0  0  0  0  0  0  0
  -15.1263   24.3644    7.8401 P   0  0  0  0  0  0  0  0  0  0  0  0
  -16.5574   24.7567    8.2474 O   0  0  0  0  0  0  0  0  0  0  0  0
  -14.1627   25.5085    7.8436 O   0  0  0  0  0  0  0  0  0  0  0  0
  -16.8840   25.4504    7.6532 H   0  0  0  0  0  0  0  0  0  0  0  0
  -14.5598   23.2462    8.7738 O   0  0  0  0  0  0  0  0  0  0  0  0
  -13.1608   22.8811    8.6787 C   0  0  0  0  0  0  0  0  0  0  0  0
  -12.6518   19.7585    7.2775 C   0  0  0  0  0  0  0  0  0  0  0  0
  -13.0030   18.3858    7.5600 O   0  0  0  0  0  0  0  0  0  0  0  0
  -11.3193   20.1990    7.8458 C   0  0  0  0  0  0  0  0  0  0  0  0
  -10.2537   19.2433    7.8395 O   0  0  0  0  0  0  0  0  0  0  0  0
  -11.7617   20.6818    9.2158 C   0  0  0  0  0  0  0  0  0  0  0  0
  -11.7920   19.6676   10.2135 O   0  0  0  0  0  0  0  0  0  0  0  0
  -13.0898   21.4046    9.0275 C   0  0  0  0  0  0  0  0  0  0  0  0
  -13.6021   20.6164    7.9091 O   0  0  0  0  0  0  0  0  0  0  0  0
  -13.0494   18.2549    8.5200 H   0  0  0  0  0  0  0  0  0  0  0  0
  -10.5147   18.4646    8.3556 H   0  0  0  0  0  0  0  0  0  0  0  0
  -12.4328   18.9845    9.9609 H   0  0  0  0  0  0  0  0  0  0  0  0
  -16.9022   24.6041    4.4596 C   0  0  0  0  0  0  0  0  0  0  0  0
  -18.7728   23.4949    1.7071 C   0  0  0  0  0  0  0  0  0  0  0  0
  -19.6595   23.1708    2.9228 C   0  0  0  0  0  0  0  0  0  0  0  0
  -21.0161   22.8737    2.5846 O   0  0  0  0  0  0  0  0  0  0  0  0
  -19.4036   24.4240    3.7484 C   0  0  0  0  0  0  0  0  0  0  0  0
  -20.3254   25.4579    3.4472 O   0  0  0  0  0  0  0  0  0  0  0  0
  -17.9586   24.8651    3.3949 C   0  0  0  0  0  0  0  0  0  0  0  0
  -17.6039   24.0167    2.2834 O   0  0  0  0  0  0  0  0  0  0  0  0
  -21.3933   23.6127    2.0821 H   0  0  0  0  0  0  0  0  0  0  0  0
  -20.2608   25.6847    2.5063 H   0  0  0  0  0  0  0  0  0  0  0  0
  -17.0461   22.3571   -2.9707 N   0  0  0  0  0  0  0  0  0  0  0  0
  -17.3707   23.5675   -2.3721 C   0  0  0  0  0  0  0  0  0  0  0  0
  -17.8264   23.6000   -1.1019 N   0  0  0  0  0  0  0  0  0  0  0  0
  -17.9744   22.4392   -0.4001 C   0  0  0  0  0  0  0  0  0  0  0  0
  -17.6702   21.2173   -0.9513 C   0  0  0  0  0  0  0  0  0  0  0  0
  -17.1741   21.1524   -2.3039 C   0  0  0  0  0  0  0  0  0  0  0  0
  -16.8583   20.0284   -2.8827 N   0  0  0  0  0  0  0  0  0  0  0  0
  -17.9332   20.2756    0.0049 N   0  0  0  0  0  0  0  0  0  0  0  0
  -18.3658   20.9747    1.0636 C   0  0  0  0  0  0  0  0  0  0  0  0
  -18.4159   22.3325    0.8786 N   0  0  0  0  0  0  0  0  0  0  0  0
  -16.5230   20.0286   -3.8083 H   0  0  0  0  0  0  0  0  0  0  0  0
  -16.9550   19.1791   -2.3943 H   0  0  0  0  0  0  0  0  0  0  0  0
 34 35  2  0  0  0
 34 39  1  0  0  0
 35 36  1  0  0  0
 36 37  2  0  0  0
 37 38  1  0  0  0
 37 43  1  0  0  0
 38 39  2  0  0  0
 38 41  1  0  0  0
 39 40  1  0  0  0
 41 42  2  0  0  0
 42 43  1  0  0  0
 43 25  1  0  0  0
  2  3  1  0  0  0
  2  4  2  0  0  0
  2  6  1  0  0  0
  2  1  1  0  0  0
  7  8  1  0  0  0
  7  9  2  0  0  0
  7  6  1  0  0  0
  7 11  1  0  0  0
 25 26  1  0  0  0
 25 31  1  0  0  0
 13 14  1  0  0  0
 13 15  1  0  0  0
 13 20  1  0  0  0
 26 27  1  0  0  0
 26 28  1  0  0  0
 15 16  1  0  0  0
 15 17  1  0  0  0
 28 29  1  0  0  0
 28 30  1  0  0  0
 17 18  1  0  0  0
 17 19  1  0  0  0
 30 31  1  0  0  0
 30 24  1  0  0  0
 19 20  1  0  0  0
 19 12  1  0  0  0
 24  1  1  0  0  0
 12 11  1  0  0  0
 40 44  1  0  0  0
 40 45  1  0  0  0
  3  5  1  0  0  0
  8 10  1  0  0  0
 14 21  1  0  0  0
 27 32  1  0  0  0
 16 22  1  0  0  0
 29 33  1  0  0  0
 18 23  1  0  0  0
M  END
> <minimizedAffinity>
-11.93965

$$$$
2BFQ_AR6_A_1193


 45 48  0  0  0  0  0  0  0  0999 V2000
  -16.4234   22.8814    4.4480 O   0  0  0  0  0  0  0  0  0  0  0  0
  -15.7259   22.4085    5.7424 P   0  0  0  0  0  0  0  0  0  0  0  0
  -14.7186   21.3384    5.3656 O   0  0  0  0  0  0  0  0  0  0  0  0
  -16.8232   21.8741    6.6867 O   0  0  0  0  0  0  0  0  0  0  0  0
  -14.2662   21.0246    6.1642 H   0  0  0  0  0  0  0  0  0  0  0  0
  -14.9584   23.5735    6.3958 O   0  0  0  0  0  0  0  0  0  0  0  0
  -15.1003   24.3122    7.7835 P   0  0  0  0  0  0  0  0  0  0  0  0
  -16.5410   24.7051    8.1546 O   0  0  0  0  0  0  0  0  0  0  0  0
  -14.1398   25.4589    7.7961 O   0  0  0  0  0  0  0  0  0  0  0  0
  -16.8560   25.3915    7.5459 H   0  0  0  0  0  0  0  0  0  0  0  0
  -14.5520   23.2057    8.7415 O   0  0  0  0  0  0  0  0  0  0  0  0
  -13.1478   22.8518    8.6900 C   0  0  0  0  0  0  0  0  0  0  0  0
  -12.6796   19.6979    7.3459 C   0  0  0  0  0  0  0  0  0  0  0  0
  -13.0281   18.3328    7.6661 O   0  0  0  0  0  0  0  0  0  0  0  0
  -11.3333   20.1463    7.8739 C   0  0  0  0  0  0  0  0  0  0  0  0
  -10.2707   19.1871    7.8641 O   0  0  0  0  0  0  0  0  0  0  0  0
  -11.7429   20.6602    9.2427 C   0  0  0  0  0  0  0  0  0  0  0  0
  -11.7532   19.6679   10.2628 O   0  0  0  0  0  0  0  0  0  0  0  0
  -13.0730   21.3830    9.0691 C   0  0  0  0  0  0  0  0  0  0  0  0
  -13.6129   20.5724    7.9801 O   0  0  0  0  0  0  0  0  0  0  0  0
  -13.0528   18.2229    8.6295 H   0  0  0  0  0  0  0  0  0  0  0  0
  -10.5221   18.4207    8.4029 H   0  0  0  0  0  0  0  0  0  0  0  0
  -12.4015   18.9816   10.0397 H   0  0  0  0  0  0  0  0  0  0  0  0
  -17.8538   23.2349    4.4927 C   0  0  0  0  0  0  0  0  0  0  0  0
  -18.2846   24.6791    1.3250 C   0  0  0  0  0  0  0  0  0  0  0  0
  -19.7139   24.3380    1.7830 C   0  0  0  0  0  0  0  0  0  0  0  0
  -20.7345   24.9804    1.0157 O   0  0  0  0  0  0  0  0  0  0  0  0
  -19.5952   24.7250    3.2506 C   0  0  0  0  0  0  0  0  0  0  0  0
  -19.9300   26.0845    3.4719 O   0  0  0  0  0  0  0  0  0  0  0  0
  -18.1137   24.4620    3.6299 C   0  0  0  0  0  0  0  0  0  0  0  0
  -17.4803   24.1846    2.3639 O   0  0  0  0  0  0  0  0  0  0  0  0
  -20.5968   25.9404    1.0340 H   0  0  0  0  0  0  0  0  0  0  0  0
  -19.3407   26.6516    2.9504 H   0  0  0  0  0  0  0  0  0  0  0  0
  -17.8064   20.0484   -0.7930 N   0  0  0  0  0  0  0  0  0  0  0  0
  -18.1870   20.4496    0.4810 C   0  0  0  0  0  0  0  0  0  0  0  0
  -18.2221   21.7603    0.8016 N   0  0  0  0  0  0  0  0  0  0  0  0
  -17.8782   22.6994   -0.1268 C   0  0  0  0  0  0  0  0  0  0  0  0
  -17.4910   22.3506   -1.3987 C   0  0  0  0  0  0  0  0  0  0  0  0
  -17.4515   20.9581   -1.7721 C   0  0  0  0  0  0  0  0  0  0  0  0
  -17.1028   20.5602   -2.9629 N   0  0  0  0  0  0  0  0  0  0  0  0
  -17.2153   23.5148   -2.0614 N   0  0  0  0  0  0  0  0  0  0  0  0
  -17.4571   24.4831   -1.1666 C   0  0  0  0  0  0  0  0  0  0  0  0
  -17.8748   24.0430    0.0631 N   0  0  0  0  0  0  0  0  0  0  0  0
  -17.0893   19.5993   -3.1765 H   0  0  0  0  0  0  0  0  0  0  0  0
  -16.8530   21.2206   -3.6491 H   0  0  0  0  0  0  0  0  0  0  0  0
 34 35  2  0  0  0
 34 39  1  0  0  0
 35 36  1  0  0  0
 36 37  2  0  0  0
 37 38  1  0  0  0
 37 43  1  0  0  0
 38 39  2  0  0  0
 38 41  1  0  0  0
 39 40  1  0  0  0
 41 42  2  0  0  0
 42 43  1  0  0  0
 43 25  1  0  0  0
  2  3  1  0  0  0
  2  4  2  0  0  0
  2  6  1  0  0  0
  2  1  1  0  0  0
  7  8  1  0  0  0
  7  9  2  0  0  0
  7  6  1  0  0  0
  7 11  1  0  0  0
 25 26  1  0  0  0
 25 31  1  0  0  0
 13 14  1  0  0  0
 13 15  1  0  0  0
 13 20  1  0  0  0
 26 27  1  0  0  0
 26 28  1  0  0  0
 15 16  1  0  0  0
 15 17  1  0  0  0
 28 29  1  0  0  0
 28 30  1  0  0  0
 17 18  1  0  0  0
 17 19  1  0  0  0
 30 31  1  0  0  0
 30 24  1  0  0  0
 19 20  1  0  0  0
 19 12  1  0  0  0
 24  1  1  0  0  0
 12 11  1  0  0  0
 40 44  1  0  0  0
 40 45  1  0  0  0
  3  5  1  0  0  0
  8 10  1  0  0  0
 14 21  1  0  0  0
 27 32  1  0  0  0
 16 22  1  0  0  0
 29 33  1  0  0  0
 18 23  1  0  0  0
M  END
> <minimizedAffinity>
-11.36662

$$$$
2BFQ_AR6_A_1193


 45 48  0  0  0  0  0  0  0  0999 V2000
  -16.4417   23.3802    4.8275 O   0  0  0  0  0  0  0  0  0  0  0  0
  -16.2493   23.1508    6.3427 P   0  0  0  0  0  0  0  0  0  0  0  0
  -17.2285   22.0776    6.7803 O   0  0  0  0  0  0  0  0  0  0  0  0
  -16.5043   24.4996    7.0477 O   0  0  0  0  0  0  0  0  0  0  0  0
  -17.1266   21.9152    7.7312 H   0  0  0  0  0  0  0  0  0  0  0  0
  -14.8250   22.6401    6.6324 O   0  0  0  0  0  0  0  0  0  0  0  0
  -14.1755   21.2015    6.6277 P   0  0  0  0  0  0  0  0  0  0  0  0
  -13.6970   20.7203    5.2466 O   0  0  0  0  0  0  0  0  0  0  0  0
  -15.1285   20.2628    7.2971 O   0  0  0  0  0  0  0  0  0  0  0  0
  -14.4640   20.5795    4.6697 H   0  0  0  0  0  0  0  0  0  0  0  0
  -12.9686   21.4413    7.5915 O   0  0  0  0  0  0  0  0  0  0  0  0
  -13.1462   21.2461    9.0162 C   0  0  0  0  0  0  0  0  0  0  0  0
  -12.3589   19.0076   11.5346 C   0  0  0  0  0  0  0  0  0  0  0  0
  -11.1783   18.3780   12.0797 O   0  0  0  0  0  0  0  0  0  0  0  0
  -13.0561   18.2114   10.4518 C   0  0  0  0  0  0  0  0  0  0  0  0
  -13.0916   16.7883   10.6019 O   0  0  0  0  0  0  0  0  0  0  0  0
  -12.3188   18.7255    9.2280 C   0  0  0  0  0  0  0  0  0  0  0  0
  -11.1297   18.0089    8.9156 O   0  0  0  0  0  0  0  0  0  0  0  0
  -12.1052   20.2206    9.4303 C   0  0  0  0  0  0  0  0  0  0  0  0
  -11.9762   20.2202   10.8855 O   0  0  0  0  0  0  0  0  0  0  0  0
  -10.5302   18.2382   11.3717 H   0  0  0  0  0  0  0  0  0  0  0  0
  -12.1853   16.4443   10.6384 H   0  0  0  0  0  0  0  0  0  0  0  0
  -10.5007   18.0906    9.6495 H   0  0  0  0  0  0  0  0  0  0  0  0
  -16.3143   24.7460    4.2875 C   0  0  0  0  0  0  0  0  0  0  0  0
  -18.4620   23.6315    1.7477 C   0  0  0  0  0  0  0  0  0  0  0  0
  -19.2615   23.4092    3.0440 C   0  0  0  0  0  0  0  0  0  0  0  0
  -20.6552   23.1760    2.8296 O   0  0  0  0  0  0  0  0  0  0  0  0
  -18.8719   24.6791    3.7879 C   0  0  0  0  0  0  0  0  0  0  0  0
  -19.7589   25.7503    3.5141 O   0  0  0  0  0  0  0  0  0  0  0  0
  -17.4394   25.0222    3.2999 C   0  0  0  0  0  0  0  0  0  0  0  0
  -17.2234   24.1094    2.2039 O   0  0  0  0  0  0  0  0  0  0  0  0
  -21.0326   23.9137    2.3254 H   0  0  0  0  0  0  0  0  0  0  0  0
  -19.7601   25.9337    2.5616 H   0  0  0  0  0  0  0  0  0  0  0  0
  -17.0841   22.2035   -2.9662 N   0  0  0  0  0  0  0  0  0  0  0  0
  -17.2861   23.4552   -2.3993 C   0  0  0  0  0  0  0  0  0  0  0  0
  -17.6672   23.5664   -1.1091 N   0  0  0  0  0  0  0  0  0  0  0  0
  -17.8605   22.4454   -0.3556 C   0  0  0  0  0  0  0  0  0  0  0  0
  -17.6770   21.1855   -0.8737 C   0  0  0  0  0  0  0  0  0  0  0  0
  -17.2625   21.0360   -2.2469 C   0  0  0  0  0  0  0  0  0  0  0  0
  -17.0620   19.8719   -2.7970 N   0  0  0  0  0  0  0  0  0  0  0  0
  -17.9548   20.3003    0.1312 N   0  0  0  0  0  0  0  0  0  0  0  0
  -18.2760   21.0667    1.1829 C   0  0  0  0  0  0  0  0  0  0  0  0
  -18.2372   22.4171    0.9478 N   0  0  0  0  0  0  0  0  0  0  0  0
  -16.7793   19.8143   -3.7382 H   0  0  0  0  0  0  0  0  0  0  0  0
  -17.1932   19.0499   -2.2713 H   0  0  0  0  0  0  0  0  0  0  0  0
 34 35  2  0  0  0
 34 39  1  0  0  0
 35 36  1  0  0  0
 36 37  2  0  0  0
 37 38  1  0  0  0
 37 43  1  0  0  0
 38 39  2  0  0  0
 38 41  1  0  0  0
 39 40  1  0  0  0
 41 42  2  0  0  0
 42 43  1  0  0  0
 43 25  1  0  0  0
  2  3  1  0  0  0
  2  4  2  0  0  0
  2  6  1  0  0  0
  2  1  1  0  0  0
  7  8  1  0  0  0
  7  9  2  0  0  0
  7  6  1  0  0  0
  7 11  1  0  0  0
 25 26  1  0  0  0
 25 31  1  0  0  0
 13 14  1  0  0  0
 13 15  1  0  0  0
 13 20  1  0  0  0
 26 27  1  0  0  0
 26 28  1  0  0  0
 15 16  1  0  0  0
 15 17  1  0  0  0
 28 29  1  0  0  0
 28 30  1  0  0  0
 17 18  1  0  0  0
 17 19  1  0  0  0
 30 31  1  0  0  0
 30 24  1  0  0  0
 19 20  1  0  0  0
 19 12  1  0  0  0
 24  1  1  0  0  0
 12 11  1  0  0  0
 40 44  1  0  0  0
 40 45  1  0  0  0
  3  5  1  0  0  0
  8 10  1  0  0  0
 14 21  1  0  0  0
 27 32  1  0  0  0
 16 22  1  0  0  0
 29 33  1  0  0  0
 18 23  1  0  0  0
M  END
> <minimizedAffinity>
-10.45831

$$$$
2BFQ_AR6_A_1193


 45 48  0  0  0  0  0  0  0  0999 V2000
  -17.6285   23.8497    4.2726 O   0  0  0  0  0  0  0  0  0  0  0  0
  -16.4830   24.7246    4.8275 P   0  0  0  0  0  0  0  0  0  0  0  0
  -17.1052   25.8967    5.5631 O   0  0  0  0  0  0  0  0  0  0  0  0
  -15.6256   25.1751    3.6261 O   0  0  0  0  0  0  0  0  0  0  0  0
  -16.4037   26.4625    5.9218 H   0  0  0  0  0  0  0  0  0  0  0  0
  -15.6371   23.9257    5.8372 O   0  0  0  0  0  0  0  0  0  0  0  0
  -15.2184   24.1880    7.3363 P   0  0  0  0  0  0  0  0  0  0  0  0
  -16.3962   24.2831    8.3221 O   0  0  0  0  0  0  0  0  0  0  0  0
  -14.3131   25.3784    7.3610 O   0  0  0  0  0  0  0  0  0  0  0  0
  -16.9136   25.0812    8.1316 H   0  0  0  0  0  0  0  0  0  0  0  0
  -14.3560   22.9131    7.6081 O   0  0  0  0  0  0  0  0  0  0  0  0
  -13.5076   22.8649    8.7818 C   0  0  0  0  0  0  0  0  0  0  0  0
  -12.6024   19.8932    7.2578 C   0  0  0  0  0  0  0  0  0  0  0  0
  -12.7960   18.4770    7.4686 O   0  0  0  0  0  0  0  0  0  0  0  0
  -11.3445   20.4584    7.8827 C   0  0  0  0  0  0  0  0  0  0  0  0
  -10.1739   19.6347    7.8641 O   0  0  0  0  0  0  0  0  0  0  0  0
  -11.8720   20.8206    9.2597 C   0  0  0  0  0  0  0  0  0  0  0  0
  -11.8057   19.7633   10.2100 O   0  0  0  0  0  0  0  0  0  0  0  0
  -13.2714   21.3918    9.0662 C   0  0  0  0  0  0  0  0  0  0  0  0
  -13.6614   20.6034    7.8997 O   0  0  0  0  0  0  0  0  0  0  0  0
  -12.8487   18.2960    8.4201 H   0  0  0  0  0  0  0  0  0  0  0  0
  -10.3533   18.8072    8.3373 H   0  0  0  0  0  0  0  0  0  0  0  0
  -12.3556   19.0231    9.9090 H   0  0  0  0  0  0  0  0  0  0  0  0
  -17.3291   22.8568    3.2250 C   0  0  0  0  0  0  0  0  0  0  0  0
  -19.8954   24.6528    1.6458 C   0  0  0  0  0  0  0  0  0  0  0  0
  -18.6172   25.4389    1.3032 C   0  0  0  0  0  0  0  0  0  0  0  0
  -18.7849   26.3776    0.2386 O   0  0  0  0  0  0  0  0  0  0  0  0
  -17.6730   24.2694    1.0612 C   0  0  0  0  0  0  0  0  0  0  0  0
  -17.6846   23.8464   -0.2916 O   0  0  0  0  0  0  0  0  0  0  0  0
  -18.1754   23.1322    1.9899 C   0  0  0  0  0  0  0  0  0  0  0  0
  -19.4350   23.6285    2.4881 O   0  0  0  0  0  0  0  0  0  0  0  0
  -19.1168   25.9180   -0.5485 H   0  0  0  0  0  0  0  0  0  0  0  0
  -18.5835   23.5789   -0.5391 H   0  0  0  0  0  0  0  0  0  0  0  0
  -24.1971   23.9862    4.3308 N   0  0  0  0  0  0  0  0  0  0  0  0
  -23.3636   23.0871    3.6783 C   0  0  0  0  0  0  0  0  0  0  0  0
  -22.2720   23.5255    3.0162 N   0  0  0  0  0  0  0  0  0  0  0  0
  -21.9847   24.8590    2.9816 C   0  0  0  0  0  0  0  0  0  0  0  0
  -22.7819   25.7868    3.6087 C   0  0  0  0  0  0  0  0  0  0  0  0
  -23.9505   25.3469    4.3302 C   0  0  0  0  0  0  0  0  0  0  0  0
  -24.7426   26.1725    4.9539 N   0  0  0  0  0  0  0  0  0  0  0  0
  -22.2201   27.0120    3.3769 N   0  0  0  0  0  0  0  0  0  0  0  0
  -21.1289   26.7544    2.6423 C   0  0  0  0  0  0  0  0  0  0  0  0
  -20.9221   25.4288    2.3590 N   0  0  0  0  0  0  0  0  0  0  0  0
  -25.5305   25.8302    5.4349 H   0  0  0  0  0  0  0  0  0  0  0  0
  -24.5532   27.1386    4.9440 H   0  0  0  0  0  0  0  0  0  0  0  0
 34 35  2  0  0  0
 34 39  1  0  0  0
 35 36  1  0  0  0
 36 37  2  0  0  0
 37 38  1  0  0  0
 37 43  1  0  0  0
 38 39  2  0  0  0
 38 41  1  0  0  0
 39 40  1  0  0  0
 41 42  2  0  0  0
 42 43  1  0  0  0
 43 25  1  0  0  0
  2  3  1  0  0  0
  2  4  2  0  0  0
  2  6  1  0  0  0
  2  1  1  0  0  0
  7  8  1  0  0  0
  7  9  2  0  0  0
  7  6  1  0  0  0
  7 11  1  0  0  0
 25 26  1  0  0  0
 25 31  1  0  0  0
 13 14  1  0  0  0
 13 15  1  0  0  0
 13 20  1  0  0  0
 26 27  1  0  0  0
 26 28  1  0  0  0
 15 16  1  0  0  0
 15 17  1  0  0  0
 28 29  1  0  0  0
 28 30  1  0  0  0
 17 18  1  0  0  0
 17 19  1  0  0  0
 30 31  1  0  0  0
 30 24  1  0  0  0
 19 20  1  0  0  0
 19 12  1  0  0  0
 24  1  1  0  0  0
 12 11  1  0  0  0
 40 44  1  0  0  0
 40 45  1  0  0  0
  3  5  1  0  0  0
  8 10  1  0  0  0
 14 21  1  0  0  0
 27 32  1  0  0  0
 16 22  1  0  0  0
 29 33  1  0  0  0
 18 23  1  0  0  0
M  END
> <minimizedAffinity>
-10.45061

$$$$
2BFQ_AR6_A_1193


 45 48  0  0  0  0  0  0  0  0999 V2000
  -17.5257   23.5191    5.7532 O   0  0  0  0  0  0  0  0  0  0  0  0
  -16.2571   24.3369    5.4254 P   0  0  0  0  0  0  0  0  0  0  0  0
  -16.5207   25.7810    5.8091 O   0  0  0  0  0  0  0  0  0  0  0  0
  -15.9818   24.1724    3.9159 O   0  0  0  0  0  0  0  0  0  0  0  0
  -15.7361   26.3162    5.6121 H   0  0  0  0  0  0  0  0  0  0  0  0
  -15.0633   23.8347    6.2595 O   0  0  0  0  0  0  0  0  0  0  0  0
  -14.8013   23.7356    7.8129 P   0  0  0  0  0  0  0  0  0  0  0  0
  -16.0695   23.8086    8.6814 O   0  0  0  0  0  0  0  0  0  0  0  0
  -13.7647   24.7525    8.1718 O   0  0  0  0  0  0  0  0  0  0  0  0
  -16.4564   24.6955    8.6147 H   0  0  0  0  0  0  0  0  0  0  0  0
  -14.1438   22.3197    7.8912 O   0  0  0  0  0  0  0  0  0  0  0  0
  -14.5624   21.2886    6.9633 C   0  0  0  0  0  0  0  0  0  0  0  0
  -11.4200   20.5750    8.2239 C   0  0  0  0  0  0  0  0  0  0  0  0
  -10.3502   19.6373    7.9710 O   0  0  0  0  0  0  0  0  0  0  0  0
  -12.4171   20.1276    9.2716 C   0  0  0  0  0  0  0  0  0  0  0  0
  -11.9077   19.4067   10.3985 O   0  0  0  0  0  0  0  0  0  0  0  0
  -13.4002   19.3706    8.3963 C   0  0  0  0  0  0  0  0  0  0  0  0
  -13.0738   17.9997    8.1977 O   0  0  0  0  0  0  0  0  0  0  0  0
  -13.5511   20.1642    7.1043 C   0  0  0  0  0  0  0  0  0  0  0  0
  -12.1998   20.7153    7.0363 O   0  0  0  0  0  0  0  0  0  0  0  0
  -10.7234   18.7964    7.6635 H   0  0  0  0  0  0  0  0  0  0  0  0
  -11.4674   18.5982   10.0930 H   0  0  0  0  0  0  0  0  0  0  0  0
  -12.2191   17.9334    7.7437 H   0  0  0  0  0  0  0  0  0  0  0  0
  -17.8007   22.2870    4.9921 C   0  0  0  0  0  0  0  0  0  0  0  0
  -19.3165   21.5736    1.9100 C   0  0  0  0  0  0  0  0  0  0  0  0
  -20.0297   20.6428    2.9071 C   0  0  0  0  0  0  0  0  0  0  0  0
  -21.2397   20.0742    2.4015 O   0  0  0  0  0  0  0  0  0  0  0  0
  -20.1462   21.5978    4.0869 C   0  0  0  0  0  0  0  0  0  0  0  0
  -21.3468   22.3502    4.0469 O   0  0  0  0  0  0  0  0  0  0  0  0
  -18.9141   22.5356    3.9841 C   0  0  0  0  0  0  0  0  0  0  0  0
  -18.3474   22.2162    2.6966 O   0  0  0  0  0  0  0  0  0  0  0  0
  -21.8373   20.7842    2.1193 H   0  0  0  0  0  0  0  0  0  0  0  0
  -21.3793   22.8637    3.2246 H   0  0  0  0  0  0  0  0  0  0  0  0
  -16.9644   22.5796   -2.5187 N   0  0  0  0  0  0  0  0  0  0  0  0
  -17.5944   23.4046   -1.5961 C   0  0  0  0  0  0  0  0  0  0  0  0
  -18.1609   22.8815   -0.4881 N   0  0  0  0  0  0  0  0  0  0  0  0
  -18.1206   21.5349   -0.2719 C   0  0  0  0  0  0  0  0  0  0  0  0
  -17.5124   20.6782   -1.1582 C   0  0  0  0  0  0  0  0  0  0  0  0
  -16.8919   21.2093   -2.3468 C   0  0  0  0  0  0  0  0  0  0  0  0
  -16.2909   20.4542   -3.2223 N   0  0  0  0  0  0  0  0  0  0  0  0
  -17.6542   19.4166   -0.6494 N   0  0  0  0  0  0  0  0  0  0  0  0
  -18.3217   19.5847    0.5007 C   0  0  0  0  0  0  0  0  0  0  0  0
  -18.6444   20.8840    0.7975 N   0  0  0  0  0  0  0  0  0  0  0  0
  -15.8800   20.8576   -4.0208 H   0  0  0  0  0  0  0  0  0  0  0  0
  -16.2478   19.4802   -3.0853 H   0  0  0  0  0  0  0  0  0  0  0  0
 34 35  2  0  0  0
 34 39  1  0  0  0
 35 36  1  0  0  0
 36 37  2  0  0  0
 37 38  1  0  0  0
 37 43  1  0  0  0
 38 39  2  0  0  0
 38 41  1  0  0  0
 39 40  1  0  0  0
 41 42  2  0  0  0
 42 43  1  0  0  0
 43 25  1  0  0  0
  2  3  1  0  0  0
  2  4  2  0  0  0
  2  6  1  0  0  0
  2  1  1  0  0  0
  7  8  1  0  0  0
  7  9  2  0  0  0
  7  6  1  0  0  0
  7 11  1  0  0  0
 25 26  1  0  0  0
 25 31  1  0  0  0
 13 14  1  0  0  0
 13 15  1  0  0  0
 13 20  1  0  0  0
 26 27  1  0  0  0
 26 28  1  0  0  0
 15 16  1  0  0  0
 15 17  1  0  0  0
 28 29  1  0  0  0
 28 30  1  0  0  0
 17 18  1  0  0  0
 17 19  1  0  0  0
 30 31  1  0  0  0
 30 24  1  0  0  0
 19 20  1  0  0  0
 19 12  1  0  0  0
 24  1  1  0  0  0
 12 11  1  0  0  0
 40 44  1  0  0  0
 40 45  1  0  0  0
  3  5  1  0  0  0
  8 10  1  0  0  0
 14 21  1  0  0  0
 27 32  1  0  0  0
 16 22  1  0  0  0
 29 33  1  0  0  0
 18 23  1  0  0  0
M  END
> <minimizedAffinity>
-9.86654

$$$$
2BFQ_AR6_A_1193


 45 48  0  0  0  0  0  0  0  0999 V2000
  -19.9725   22.3244    5.0261 O   0  0  0  0  0  0  0  0  0  0  0  0
  -18.7963   21.3268    5.1101 P   0  0  0  0  0  0  0  0  0  0  0  0
  -18.0900   21.3239    3.7672 O   0  0  0  0  0  0  0  0  0  0  0  0
  -19.3889   19.9465    5.4635 O   0  0  0  0  0  0  0  0  0  0  0  0
  -17.3453   20.7031    3.7949 H   0  0  0  0  0  0  0  0  0  0  0  0
  -17.7828   21.7794    6.1782 O   0  0  0  0  0  0  0  0  0  0  0  0
  -16.4064   22.5481    6.0991 P   0  0  0  0  0  0  0  0  0  0  0  0
  -16.5039   24.0623    6.3547 O   0  0  0  0  0  0  0  0  0  0  0  0
  -15.7556   22.1962    4.7990 O   0  0  0  0  0  0  0  0  0  0  0  0
  -16.9928   24.4819    5.6295 H   0  0  0  0  0  0  0  0  0  0  0  0
  -15.6242   21.8307    7.2465 O   0  0  0  0  0  0  0  0  0  0  0  0
  -15.4819   20.3891    7.2173 C   0  0  0  0  0  0  0  0  0  0  0  0
  -12.5197   20.8761    8.9380 C   0  0  0  0  0  0  0  0  0  0  0  0
  -11.1095   20.9755    8.6395 O   0  0  0  0  0  0  0  0  0  0  0  0
  -12.9950   19.4806    9.2833 C   0  0  0  0  0  0  0  0  0  0  0  0
  -12.1109   18.6558   10.0495 O   0  0  0  0  0  0  0  0  0  0  0  0
  -13.3378   18.9663    7.8964 C   0  0  0  0  0  0  0  0  0  0  0  0
  -12.2467   18.3669    7.2068 O   0  0  0  0  0  0  0  0  0  0  0  0
  -13.9894   20.1181    7.1411 C   0  0  0  0  0  0  0  0  0  0  0  0
  -13.2634   21.2195    7.7689 O   0  0  0  0  0  0  0  0  0  0  0  0
  -10.8993   20.4105    7.8796 H   0  0  0  0  0  0  0  0  0  0  0  0
  -11.2785   18.5374    9.5657 H   0  0  0  0  0  0  0  0  0  0  0  0
  -11.5477   19.0259    7.0727 H   0  0  0  0  0  0  0  0  0  0  0  0
  -20.4680   22.7382    3.7009 C   0  0  0  0  0  0  0  0  0  0  0  0
  -18.8242   24.6106    1.2315 C   0  0  0  0  0  0  0  0  0  0  0  0
  -20.3031   25.0134    1.0902 C   0  0  0  0  0  0  0  0  0  0  0  0
  -20.5076   26.1945    0.3117 O   0  0  0  0  0  0  0  0  0  0  0  0
  -20.6777   25.0750    2.5645 C   0  0  0  0  0  0  0  0  0  0  0  0
  -20.4584   26.3619    3.1168 O   0  0  0  0  0  0  0  0  0  0  0  0
  -19.7774   24.0230    3.2651 C   0  0  0  0  0  0  0  0  0  0  0  0
  -18.8457   23.6303    2.2361 O   0  0  0  0  0  0  0  0  0  0  0  0
  -19.9960   26.9254    0.6924 H   0  0  0  0  0  0  0  0  0  0  0  0
  -19.5227   26.5994    3.0217 H   0  0  0  0  0  0  0  0  0  0  0  0
  -17.7186   20.0751   -0.8576 N   0  0  0  0  0  0  0  0  0  0  0  0
  -18.2698   20.4201    0.3695 C   0  0  0  0  0  0  0  0  0  0  0  0
  -18.4529   21.7173    0.6948 N   0  0  0  0  0  0  0  0  0  0  0  0
  -18.0917   22.6983   -0.1822 C   0  0  0  0  0  0  0  0  0  0  0  0
  -17.5388   22.4060   -1.4063 C   0  0  0  0  0  0  0  0  0  0  0  0
  -17.3384   21.0287   -1.7841 C   0  0  0  0  0  0  0  0  0  0  0  0
  -16.8283   20.6828   -2.9322 N   0  0  0  0  0  0  0  0  0  0  0  0
  -17.2937   23.6008   -2.0249 N   0  0  0  0  0  0  0  0  0  0  0  0
  -17.7149   24.5293   -1.1547 C   0  0  0  0  0  0  0  0  0  0  0  0
  -18.2252   24.0338    0.0176 N   0  0  0  0  0  0  0  0  0  0  0  0
  -16.7084   19.7304   -3.1507 H   0  0  0  0  0  0  0  0  0  0  0  0
  -16.5628   21.3739   -3.5812 H   0  0  0  0  0  0  0  0  0  0  0  0
 34 35  2  0  0  0
 34 39  1  0  0  0
 35 36  1  0  0  0
 36 37  2  0  0  0
 37 38  1  0  0  0
 37 43  1  0  0  0
 38 39  2  0  0  0
 38 41  1  0  0  0
 39 40  1  0  0  0
 41 42  2  0  0  0
 42 43  1  0  0  0
 43 25  1  0  0  0
  2  3  1  0  0  0
  2  4  2  0  0  0
  2  6  1  0  0  0
  2  1  1  0  0  0
  7  8  1  0  0  0
  7  9  2  0  0  0
  7  6  1  0  0  0
  7 11  1  0  0  0
 25 26  1  0  0  0
 25 31  1  0  0  0
 13 14  1  0  0  0
 13 15  1  0  0  0
 13 20  1  0  0  0
 26 27  1  0  0  0
 26 28  1  0  0  0
 15 16  1  0  0  0
 15 17  1  0  0  0
 28 29  1  0  0  0
 28 30  1  0  0  0
 17 18  1  0  0  0
 17 19  1  0  0  0
 30 31  1  0  0  0
 30 24  1  0  0  0
 19 20  1  0  0  0
 19 12  1  0  0  0
 24  1  1  0  0  0
 12 11  1  0  0  0
 40 44  1  0  0  0
 40 45  1  0  0  0
  3  5  1  0  0  0
  8 10  1  0  0  0
 14 21  1  0  0  0
 27 32  1  0  0  0
 16 22  1  0  0  0
 29 33  1  0  0  0
 18 23  1  0  0  0
M  END
> <minimizedAffinity>
-9.41960

$$$$
2BFQ_AR6_A_1193


 45 48  0  0  0  0  0  0  0  0999 V2000
  -20.2636   25.2982    0.5181 O   0  0  0  0  0  0  0  0  0  0  0  0
  -21.5129   25.7469    1.3079 P   0  0  0  0  0  0  0  0  0  0  0  0
  -22.7393   25.2901    0.5402 O   0  0  0  0  0  0  0  0  0  0  0  0
  -21.4442   27.2826    1.4427 O   0  0  0  0  0  0  0  0  0  0  0  0
  -23.5390   25.5609    1.0177 H   0  0  0  0  0  0  0  0  0  0  0  0
  -21.5429   25.0745    2.6936 O   0  0  0  0  0  0  0  0  0  0  0  0
  -22.7120   24.5081    3.5902 P   0  0  0  0  0  0  0  0  0  0  0  0
  -23.9403   25.4288    3.6963 O   0  0  0  0  0  0  0  0  0  0  0  0
  -22.1322   24.1204    4.9135 O   0  0  0  0  0  0  0  0  0  0  0  0
  -23.7019   26.2307    4.1872 H   0  0  0  0  0  0  0  0  0  0  0  0
  -23.0524   23.2004    2.8046 O   0  0  0  0  0  0  0  0  0  0  0  0
  -23.0610   21.9317    3.5044 C   0  0  0  0  0  0  0  0  0  0  0  0
  -20.8363   19.7108    4.9506 C   0  0  0  0  0  0  0  0  0  0  0  0
  -19.4062   19.5168    5.0194 O   0  0  0  0  0  0  0  0  0  0  0  0
  -21.5213   18.9645    3.8254 C   0  0  0  0  0  0  0  0  0  0  0  0
  -21.0286   17.6587    3.5071 O   0  0  0  0  0  0  0  0  0  0  0  0
  -21.4121   19.9967    2.7171 C   0  0  0  0  0  0  0  0  0  0  0  0
  -20.2078   19.9222    1.9626 O   0  0  0  0  0  0  0  0  0  0  0  0
  -21.6624   21.3600    3.3501 C   0  0  0  0  0  0  0  0  0  0  0  0
  -21.1017   21.0854    4.6709 O   0  0  0  0  0  0  0  0  0  0  0  0
  -18.9988   19.8187    4.1925 H   0  0  0  0  0  0  0  0  0  0  0  0
  -20.0947   17.7187    3.2520 H   0  0  0  0  0  0  0  0  0  0  0  0
  -19.4503   20.0877    2.5455 H   0  0  0  0  0  0  0  0  0  0  0  0
  -18.9420   25.8201    0.9105 C   0  0  0  0  0  0  0  0  0  0  0  0
  -16.9980   23.8133    3.0316 C   0  0  0  0  0  0  0  0  0  0  0  0
  -18.3259   23.0466    2.8973 C   0  0  0  0  0  0  0  0  0  0  0  0
  -18.2557   21.6891    3.3391 O   0  0  0  0  0  0  0  0  0  0  0  0
  -18.5941   23.2870    1.4181 C   0  0  0  0  0  0  0  0  0  0  0  0
  -18.0183   22.2812    0.6019 O   0  0  0  0  0  0  0  0  0  0  0  0
  -17.9640   24.6693    1.1020 C   0  0  0  0  0  0  0  0  0  0  0  0
  -17.2219   24.9886    2.2972 O   0  0  0  0  0  0  0  0  0  0  0  0
  -17.5521   21.2279    2.8562 H   0  0  0  0  0  0  0  0  0  0  0  0
  -17.0594   22.2576    0.7460 H   0  0  0  0  0  0  0  0  0  0  0  0
  -14.5304   21.9269    7.0949 N   0  0  0  0  0  0  0  0  0  0  0  0
  -14.8107   21.3847    5.8475 C   0  0  0  0  0  0  0  0  0  0  0  0
  -15.5033   22.0973    4.9338 N   0  0  0  0  0  0  0  0  0  0  0  0
  -15.9359   23.3558    5.2350 C   0  0  0  0  0  0  0  0  0  0  0  0
  -15.6863   23.9329    6.4573 C   0  0  0  0  0  0  0  0  0  0  0  0
  -14.9421   23.1983    7.4505 C   0  0  0  0  0  0  0  0  0  0  0  0
  -14.6633   23.6899    8.6246 N   0  0  0  0  0  0  0  0  0  0  0  0
  -16.2536   25.1771    6.4305 N   0  0  0  0  0  0  0  0  0  0  0  0
  -16.7962   25.2793    5.2091 C   0  0  0  0  0  0  0  0  0  0  0  0
  -16.6343   24.1766    4.4103 N   0  0  0  0  0  0  0  0  0  0  0  0
  -14.1524   23.1545    9.2738 H   0  0  0  0  0  0  0  0  0  0  0  0
  -14.9635   24.5969    8.8625 H   0  0  0  0  0  0  0  0  0  0  0  0
 34 35  2  0  0  0
 34 39  1  0  0  0
 35 36  1  0  0  0
 36 37  2  0  0  0
 37 38  1  0  0  0
 37 43  1  0  0  0
 38 39  2  0  0  0
 38 41  1  0  0  0
 39 40  1  0  0  0
 41 42  2  0  0  0
 42 43  1  0  0  0
 43 25  1  0  0  0
  2  3  1  0  0  0
  2  4  2  0  0  0
  2  6  1  0  0  0
  2  1  1  0  0  0
  7  8  1  0  0  0
  7  9  2  0  0  0
  7  6  1  0  0  0
  7 11  1  0  0  0
 25 26  1  0  0  0
 25 31  1  0  0  0
 13 14  1  0  0  0
 13 15  1  0  0  0
 13 20  1  0  0  0
 26 27  1  0  0  0
 26 28  1  0  0  0
 15 16  1  0  0  0
 15 17  1  0  0  0
 28 29  1  0  0  0
 28 30  1  0  0  0
 17 18  1  0  0  0
 17 19  1  0  0  0
 30 31  1  0  0  0
 30 24  1  0  0  0
 19 20  1  0  0  0
 19 12  1  0  0  0
 24  1  1  0  0  0
 12 11  1  0  0  0
 40 44  1  0  0  0
 40 45  1  0  0  0
  3  5  1  0  0  0
  8 10  1  0  0  0
 14 21  1  0  0  0
 27 32  1  0  0  0
 16 22  1  0  0  0
 29 33  1  0  0  0
 18 23  1  0  0  0
M  END
> <minimizedAffinity>
-9.37482

$$$$
