3BXF_FBP_A_401


 27 27  0  0  0  0  0  0  0  0999 V2000
   10.0583    1.3324    2.1187 C   0  0  0  0  0  0  0  0  0  0  0  0
   10.7040    2.4111    2.8361 O   0  0  0  0  0  0  0  0  0  0  0  0
   10.9101    0.9801    0.9161 C   0  0  0  0  0  0  0  0  0  0  0  0
   11.3355    2.0984    0.1844 O   0  0  0  0  0  0  0  0  0  0  0  0
   12.0732    0.2593    1.5599 C   0  0  0  0  0  0  0  0  0  0  0  0
   12.5862   -0.6837    0.6534 O   0  0  0  0  0  0  0  0  0  0  0  0
   11.3216   -0.4959    2.6417 C   0  0  0  0  0  0  0  0  0  0  0  0
   10.1195    0.2045    2.9503 O   0  0  0  0  0  0  0  0  0  0  0  0
   10.6848    3.2161    2.2952 H   0  0  0  0  0  0  0  0  0  0  0  0
   11.8361    2.6931    0.7647 H   0  0  0  0  0  0  0  0  0  0  0  0
   11.8693   -1.2606    0.3467 H   0  0  0  0  0  0  0  0  0  0  0  0
    8.6214    1.7471    1.8131 C   0  0  0  0  0  0  0  0  0  0  0  0
    8.5161    3.0426    1.2759 O   0  0  0  0  0  0  0  0  0  0  0  0
    7.7560    3.1882   -0.1385 P   0  0  0  0  0  0  0  0  0  0  0  0
    8.3543    2.1524   -1.0764 O   0  0  0  0  0  0  0  0  0  0  0  0
    7.8931    4.5921   -0.7033 O   0  0  0  0  0  0  0  0  0  0  0  0
    6.2733    2.9142    0.0765 O   0  0  0  0  0  0  0  0  0  0  0  0
    7.4262    4.6462   -1.5519 H   0  0  0  0  0  0  0  0  0  0  0  0
    5.8031    2.9986   -0.7678 H   0  0  0  0  0  0  0  0  0  0  0  0
   12.1140   -0.8145    3.8797 C   0  0  0  0  0  0  0  0  0  0  0  0
   11.3454   -0.3317    4.9587 O   0  0  0  0  0  0  0  0  0  0  0  0
   12.0163    0.5045    6.1292 P   0  0  0  0  0  0  0  0  0  0  0  0
   13.3680   -0.0922    6.4539 O   0  0  0  0  0  0  0  0  0  0  0  0
   11.0544    0.4586    7.2965 O   0  0  0  0  0  0  0  0  0  0  0  0
   12.1554    1.8957    5.5898 O   0  0  0  0  0  0  0  0  0  0  0  0
   10.9854   -0.4522    7.6230 H   0  0  0  0  0  0  0  0  0  0  0  0
   12.7765    1.8930    4.8448 H   0  0  0  0  0  0  0  0  0  0  0  0
 14 15  2  0  0  0
 14 16  1  0  0  0
 14 17  1  0  0  0
 14 13  1  0  0  0
 13 12  1  0  0  0
 12  1  1  0  0  0
  1  2  1  0  0  0
  1  3  1  0  0  0
  1  8  1  0  0  0
  3  4  1  0  0  0
  3  5  1  0  0  0
  5  6  1  0  0  0
  5  7  1  0  0  0
  7  8  1  0  0  0
  7 20  1  0  0  0
 20 21  1  0  0  0
 21 22  1  0  0  0
 22 23  2  0  0  0
 22 24  1  0  0  0
 22 25  1  0  0  0
 16 18  1  0  0  0
 17 19  1  0  0  0
  2  9  1  0  0  0
  4 10  1  0  0  0
  6 11  1  0  0  0
 24 26  1  0  0  0
 25 27  1  0  0  0
M  END
> <minimizedAffinity>
-9.66562

$$$$
3BXF_FBP_A_401


 27 27  0  0  0  0  0  0  0  0999 V2000
   13.4516   -1.1229    5.4457 C   0  0  0  0  0  0  0  0  0  0  0  0
   14.1748   -0.1164    4.6978 O   0  0  0  0  0  0  0  0  0  0  0  0
   13.0651   -0.5360    6.7880 C   0  0  0  0  0  0  0  0  0  0  0  0
   14.1164    0.1351    7.4293 O   0  0  0  0  0  0  0  0  0  0  0  0
   11.9509    0.4113    6.4035 C   0  0  0  0  0  0  0  0  0  0  0  0
   11.0557    0.5268    7.4802 O   0  0  0  0  0  0  0  0  0  0  0  0
   11.2807   -0.4263    5.3287 C   0  0  0  0  0  0  0  0  0  0  0  0
   12.2369   -1.3257    4.7743 O   0  0  0  0  0  0  0  0  0  0  0  0
   15.0265    0.0567    5.1286 H   0  0  0  0  0  0  0  0  0  0  0  0
   14.4448    0.8448    6.8554 H   0  0  0  0  0  0  0  0  0  0  0  0
   10.7627   -0.3566    7.7533 H   0  0  0  0  0  0  0  0  0  0  0  0
   14.3012   -2.3899    5.4974 C   0  0  0  0  0  0  0  0  0  0  0  0
   13.6614   -3.5145    4.9457 O   0  0  0  0  0  0  0  0  0  0  0  0
   12.9369   -4.5220    5.9750 P   0  0  0  0  0  0  0  0  0  0  0  0
   13.6804   -4.4215    7.2970 O   0  0  0  0  0  0  0  0  0  0  0  0
   12.9312   -5.9475    5.4492 O   0  0  0  0  0  0  0  0  0  0  0  0
   11.4889   -4.0820    6.1471 O   0  0  0  0  0  0  0  0  0  0  0  0
   12.4895   -6.5266    6.0899 H   0  0  0  0  0  0  0  0  0  0  0  0
   11.0404   -4.6805    6.7648 H   0  0  0  0  0  0  0  0  0  0  0  0
   10.5589    0.3475    4.2600 C   0  0  0  0  0  0  0  0  0  0  0  0
   11.5213    0.6089    3.2632 O   0  0  0  0  0  0  0  0  0  0  0  0
   11.3350    0.0613    1.7851 P   0  0  0  0  0  0  0  0  0  0  0  0
   12.1802    0.8862    0.8398 O   0  0  0  0  0  0  0  0  0  0  0  0
    9.8553    0.1435    1.4793 O   0  0  0  0  0  0  0  0  0  0  0  0
   11.8058   -1.3608    1.8295 O   0  0  0  0  0  0  0  0  0  0  0  0
    9.5809    1.0737    1.4573 H   0  0  0  0  0  0  0  0  0  0  0  0
   12.7553   -1.3810    2.0270 H   0  0  0  0  0  0  0  0  0  0  0  0
 14 15  2  0  0  0
 14 16  1  0  0  0
 14 17  1  0  0  0
 14 13  1  0  0  0
 13 12  1  0  0  0
 12  1  1  0  0  0
  1  2  1  0  0  0
  1  3  1  0  0  0
  1  8  1  0  0  0
  3  4  1  0  0  0
  3  5  1  0  0  0
  5  6  1  0  0  0
  5  7  1  0  0  0
  7  8  1  0  0  0
  7 20  1  0  0  0
 20 21  1  0  0  0
 21 22  1  0  0  0
 22 23  2  0  0  0
 22 24  1  0  0  0
 22 25  1  0  0  0
 16 18  1  0  0  0
 17 19  1  0  0  0
  2  9  1  0  0  0
  4 10  1  0  0  0
  6 11  1  0  0  0
 24 26  1  0  0  0
 25 27  1  0  0  0
M  END
> <minimizedAffinity>
-9.28122

$$$$
3BXF_FBP_A_401


 27 27  0  0  0  0  0  0  0  0999 V2000
   11.7338   -0.6001    5.2710 C   0  0  0  0  0  0  0  0  0  0  0  0
   11.0084   -1.5837    6.0465 O   0  0  0  0  0  0  0  0  0  0  0  0
   12.5304    0.2679    6.2238 C   0  0  0  0  0  0  0  0  0  0  0  0
   11.7894    0.7131    7.3282 O   0  0  0  0  0  0  0  0  0  0  0  0
   13.6434   -0.6676    6.6393 C   0  0  0  0  0  0  0  0  0  0  0  0
   14.7873    0.0885    6.9453 O   0  0  0  0  0  0  0  0  0  0  0  0
   13.8857   -1.3614    5.3105 C   0  0  0  0  0  0  0  0  0  0  0  0
   12.6950   -1.3030    4.5298 O   0  0  0  0  0  0  0  0  0  0  0  0
   10.3292   -1.1397    6.5779 H   0  0  0  0  0  0  0  0  0  0  0  0
   11.4397   -0.0513    7.8122 H   0  0  0  0  0  0  0  0  0  0  0  0
   15.0010    0.6686    6.1977 H   0  0  0  0  0  0  0  0  0  0  0  0
   10.7412    0.1378    4.3764 C   0  0  0  0  0  0  0  0  0  0  0  0
   11.3515    0.8195    3.3082 O   0  0  0  0  0  0  0  0  0  0  0  0
   11.2075    0.1618    1.8432 P   0  0  0  0  0  0  0  0  0  0  0  0
    9.7613    0.3434    1.4118 O   0  0  0  0  0  0  0  0  0  0  0  0
   11.6042   -1.3049    1.8490 O   0  0  0  0  0  0  0  0  0  0  0  0
   12.1410    0.8941    0.8882 O   0  0  0  0  0  0  0  0  0  0  0  0
   11.5065   -1.6698    0.9555 H   0  0  0  0  0  0  0  0  0  0  0  0
   12.0644    0.5080    0.0017 H   0  0  0  0  0  0  0  0  0  0  0  0
   14.4251   -2.7625    5.3996 C   0  0  0  0  0  0  0  0  0  0  0  0
   13.3600   -3.6055    5.0213 O   0  0  0  0  0  0  0  0  0  0  0  0
   12.8462   -4.7552    5.9875 P   0  0  0  0  0  0  0  0  0  0  0  0
   13.1481   -6.0999    5.3636 O   0  0  0  0  0  0  0  0  0  0  0  0
   11.3656   -4.5169    6.1901 O   0  0  0  0  0  0  0  0  0  0  0  0
   13.6097   -4.5681    7.2634 O   0  0  0  0  0  0  0  0  0  0  0  0
   10.8995   -4.6451    5.3492 H   0  0  0  0  0  0  0  0  0  0  0  0
   14.5529   -4.7271    7.1021 H   0  0  0  0  0  0  0  0  0  0  0  0
 14 15  2  0  0  0
 14 16  1  0  0  0
 14 17  1  0  0  0
 14 13  1  0  0  0
 13 12  1  0  0  0
 12  1  1  0  0  0
  1  2  1  0  0  0
  1  3  1  0  0  0
  1  8  1  0  0  0
  3  4  1  0  0  0
  3  5  1  0  0  0
  5  6  1  0  0  0
  5  7  1  0  0  0
  7  8  1  0  0  0
  7 20  1  0  0  0
 20 21  1  0  0  0
 21 22  1  0  0  0
 22 23  2  0  0  0
 22 24  1  0  0  0
 22 25  1  0  0  0
 16 18  1  0  0  0
 17 19  1  0  0  0
  2  9  1  0  0  0
  4 10  1  0  0  0
  6 11  1  0  0  0
 24 26  1  0  0  0
 25 27  1  0  0  0
M  END
> <minimizedAffinity>
-9.20944

$$$$
3BXF_FBP_A_401


 27 27  0  0  0  0  0  0  0  0999 V2000
   11.9249   -0.8584    4.8187 C   0  0  0  0  0  0  0  0  0  0  0  0
   11.0559   -1.3403    5.8712 O   0  0  0  0  0  0  0  0  0  0  0  0
   12.9860    0.0260    5.4415 C   0  0  0  0  0  0  0  0  0  0  0  0
   12.4722    0.9597    6.3531 O   0  0  0  0  0  0  0  0  0  0  0  0
   13.8749   -0.9892    6.1241 C   0  0  0  0  0  0  0  0  0  0  0  0
   15.1886   -0.4929    6.1664 O   0  0  0  0  0  0  0  0  0  0  0  0
   13.8274   -2.0926    5.0820 C   0  0  0  0  0  0  0  0  0  0  0  0
   12.6217   -1.9740    4.3316 O   0  0  0  0  0  0  0  0  0  0  0  0
   10.5515   -0.5980    6.2393 H   0  0  0  0  0  0  0  0  0  0  0  0
   11.9934    0.4946    7.0570 H   0  0  0  0  0  0  0  0  0  0  0  0
   15.4687   -0.2428    5.2720 H   0  0  0  0  0  0  0  0  0  0  0  0
   11.0634   -0.2013    3.7435 C   0  0  0  0  0  0  0  0  0  0  0  0
   10.0472    0.6189    4.2659 O   0  0  0  0  0  0  0  0  0  0  0  0
   10.0630    2.1708    3.8292 P   0  0  0  0  0  0  0  0  0  0  0  0
    8.6750    2.7266    4.1030 O   0  0  0  0  0  0  0  0  0  0  0  0
   10.4476    2.3352    2.3684 O   0  0  0  0  0  0  0  0  0  0  0  0
   11.1014    2.9015    4.6703 O   0  0  0  0  0  0  0  0  0  0  0  0
   10.4478    3.2774    2.1382 H   0  0  0  0  0  0  0  0  0  0  0  0
   11.1216    3.8378    4.4176 H   0  0  0  0  0  0  0  0  0  0  0  0
   14.0218   -3.4886    5.6067 C   0  0  0  0  0  0  0  0  0  0  0  0
   14.4192   -4.2611    4.4960 O   0  0  0  0  0  0  0  0  0  0  0  0
   14.3361   -5.8457    4.5322 P   0  0  0  0  0  0  0  0  0  0  0  0
   14.3111   -6.3741    3.1148 O   0  0  0  0  0  0  0  0  0  0  0  0
   13.0881   -6.1932    5.3143 O   0  0  0  0  0  0  0  0  0  0  0  0
   15.5735   -6.2888    5.2521 O   0  0  0  0  0  0  0  0  0  0  0  0
   12.3060   -5.8948    4.8243 H   0  0  0  0  0  0  0  0  0  0  0  0
   16.3547   -6.0529    4.7276 H   0  0  0  0  0  0  0  0  0  0  0  0
 14 15  2  0  0  0
 14 16  1  0  0  0
 14 17  1  0  0  0
 14 13  1  0  0  0
 13 12  1  0  0  0
 12  1  1  0  0  0
  1  2  1  0  0  0
  1  3  1  0  0  0
  1  8  1  0  0  0
  3  4  1  0  0  0
  3  5  1  0  0  0
  5  6  1  0  0  0
  5  7  1  0  0  0
  7  8  1  0  0  0
  7 20  1  0  0  0
 20 21  1  0  0  0
 21 22  1  0  0  0
 22 23  2  0  0  0
 22 24  1  0  0  0
 22 25  1  0  0  0
 16 18  1  0  0  0
 17 19  1  0  0  0
  2  9  1  0  0  0
  4 10  1  0  0  0
  6 11  1  0  0  0
 24 26  1  0  0  0
 25 27  1  0  0  0
M  END
> <minimizedAffinity>
-9.11670

$$$$
3BXF_FBP_A_401


 27 27  0  0  0  0  0  0  0  0999 V2000
    9.9408    1.4868    2.4953 C   0  0  0  0  0  0  0  0  0  0  0  0
   10.7006    2.6568    2.8813 O   0  0  0  0  0  0  0  0  0  0  0  0
   10.6775    0.7870    1.3714 C   0  0  0  0  0  0  0  0  0  0  0  0
   11.1114    1.6560    0.3598 O   0  0  0  0  0  0  0  0  0  0  0  0
   11.8416    0.1607    2.1059 C   0  0  0  0  0  0  0  0  0  0  0  0
   12.2288   -1.0119    1.4357 O   0  0  0  0  0  0  0  0  0  0  0  0
   11.1306   -0.2470    3.3842 C   0  0  0  0  0  0  0  0  0  0  0  0
    9.9982    0.5963    3.5775 O   0  0  0  0  0  0  0  0  0  0  0  0
   10.6880    3.3035    2.1584 H   0  0  0  0  0  0  0  0  0  0  0  0
   11.6882    2.3355    0.7427 H   0  0  0  0  0  0  0  0  0  0  0  0
   11.4583   -1.5907    1.3253 H   0  0  0  0  0  0  0  0  0  0  0  0
    8.5117    1.9210    2.1803 C   0  0  0  0  0  0  0  0  0  0  0  0
    8.4421    3.0807    1.3876 O   0  0  0  0  0  0  0  0  0  0  0  0
    7.7277    2.9415   -0.0510 P   0  0  0  0  0  0  0  0  0  0  0  0
    8.5466    3.7576   -1.0378 O   0  0  0  0  0  0  0  0  0  0  0  0
    6.2841    3.4135   -0.0049 O   0  0  0  0  0  0  0  0  0  0  0  0
    7.7257    1.4722   -0.4521 O   0  0  0  0  0  0  0  0  0  0  0  0
    5.8841    3.3170   -0.8833 H   0  0  0  0  0  0  0  0  0  0  0  0
    7.2981    1.3737   -1.3172 H   0  0  0  0  0  0  0  0  0  0  0  0
   11.9939   -0.3108    4.6141 C   0  0  0  0  0  0  0  0  0  0  0  0
   12.9831   -1.2763    4.3355 O   0  0  0  0  0  0  0  0  0  0  0  0
   13.3385   -2.4084    5.3897 P   0  0  0  0  0  0  0  0  0  0  0  0
   14.2612   -3.4175    4.7424 O   0  0  0  0  0  0  0  0  0  0  0  0
   12.0233   -3.0104    5.8341 O   0  0  0  0  0  0  0  0  0  0  0  0
   14.0225   -1.6963    6.5170 O   0  0  0  0  0  0  0  0  0  0  0  0
   11.6054   -3.4632    5.0850 H   0  0  0  0  0  0  0  0  0  0  0  0
   14.8603   -1.3221    6.2022 H   0  0  0  0  0  0  0  0  0  0  0  0
 14 15  2  0  0  0
 14 16  1  0  0  0
 14 17  1  0  0  0
 14 13  1  0  0  0
 13 12  1  0  0  0
 12  1  1  0  0  0
  1  2  1  0  0  0
  1  3  1  0  0  0
  1  8  1  0  0  0
  3  4  1  0  0  0
  3  5  1  0  0  0
  5  6  1  0  0  0
  5  7  1  0  0  0
  7  8  1  0  0  0
  7 20  1  0  0  0
 20 21  1  0  0  0
 21 22  1  0  0  0
 22 23  2  0  0  0
 22 24  1  0  0  0
 22 25  1  0  0  0
 16 18  1  0  0  0
 17 19  1  0  0  0
  2  9  1  0  0  0
  4 10  1  0  0  0
  6 11  1  0  0  0
 24 26  1  0  0  0
 25 27  1  0  0  0
M  END
> <minimizedAffinity>
-9.11003

$$$$
3BXF_FBP_A_401


 27 27  0  0  0  0  0  0  0  0999 V2000
   12.0916   -0.7060    4.7175 C   0  0  0  0  0  0  0  0  0  0  0  0
   11.1678   -1.6196    5.3556 O   0  0  0  0  0  0  0  0  0  0  0  0
   12.6697    0.2085    5.7783 C   0  0  0  0  0  0  0  0  0  0  0  0
   11.7041    0.7428    6.6437 O   0  0  0  0  0  0  0  0  0  0  0  0
   13.6177   -0.7190    6.5048 C   0  0  0  0  0  0  0  0  0  0  0  0
   14.6826    0.0329    7.0288 O   0  0  0  0  0  0  0  0  0  0  0  0
   14.1437   -1.5065    5.3178 C   0  0  0  0  0  0  0  0  0  0  0  0
   13.1754   -1.4773    4.2726 O   0  0  0  0  0  0  0  0  0  0  0  0
   10.3982   -1.1267    5.6806 H   0  0  0  0  0  0  0  0  0  0  0  0
   11.2221    0.0204    7.0758 H   0  0  0  0  0  0  0  0  0  0  0  0
   15.0885    0.5561    6.3201 H   0  0  0  0  0  0  0  0  0  0  0  0
   11.3672   -0.0109    3.5678 C   0  0  0  0  0  0  0  0  0  0  0  0
   10.1104    0.5060    3.9305 O   0  0  0  0  0  0  0  0  0  0  0  0
    9.8464    2.0673    3.6270 P   0  0  0  0  0  0  0  0  0  0  0  0
   10.9326    2.8521    4.3444 O   0  0  0  0  0  0  0  0  0  0  0  0
    8.4612    2.4970    4.0799 O   0  0  0  0  0  0  0  0  0  0  0  0
    9.9364    2.2917    2.1232 O   0  0  0  0  0  0  0  0  0  0  0  0
    8.3344    3.4384    3.8836 H   0  0  0  0  0  0  0  0  0  0  0  0
    9.7793    3.2284    1.9261 H   0  0  0  0  0  0  0  0  0  0  0  0
   14.5957   -2.9089    5.6192 C   0  0  0  0  0  0  0  0  0  0  0  0
   13.6110   -3.7535    5.0667 O   0  0  0  0  0  0  0  0  0  0  0  0
   12.9204   -4.8835    5.9416 P   0  0  0  0  0  0  0  0  0  0  0  0
   13.5605   -4.9110    7.3121 O   0  0  0  0  0  0  0  0  0  0  0  0
   13.0936   -6.1811    5.1826 O   0  0  0  0  0  0  0  0  0  0  0  0
   11.4773   -4.4887    6.0273 O   0  0  0  0  0  0  0  0  0  0  0  0
   14.0355   -6.4099    5.1440 H   0  0  0  0  0  0  0  0  0  0  0  0
   11.3986   -3.6557    6.5179 H   0  0  0  0  0  0  0  0  0  0  0  0
 14 15  2  0  0  0
 14 16  1  0  0  0
 14 17  1  0  0  0
 14 13  1  0  0  0
 13 12  1  0  0  0
 12  1  1  0  0  0
  1  2  1  0  0  0
  1  3  1  0  0  0
  1  8  1  0  0  0
  3  4  1  0  0  0
  3  5  1  0  0  0
  5  6  1  0  0  0
  5  7  1  0  0  0
  7  8  1  0  0  0
  7 20  1  0  0  0
 20 21  1  0  0  0
 21 22  1  0  0  0
 22 23  2  0  0  0
 22 24  1  0  0  0
 22 25  1  0  0  0
 16 18  1  0  0  0
 17 19  1  0  0  0
  2  9  1  0  0  0
  4 10  1  0  0  0
  6 11  1  0  0  0
 24 26  1  0  0  0
 25 27  1  0  0  0
M  END
> <minimizedAffinity>
-9.04246

$$$$
3BXF_FBP_A_401


 27 27  0  0  0  0  0  0  0  0999 V2000
   10.2482    1.0231    1.7278 C   0  0  0  0  0  0  0  0  0  0  0  0
   11.1613    2.1461    1.7105 O   0  0  0  0  0  0  0  0  0  0  0  0
    8.8386    1.5548    1.8901 C   0  0  0  0  0  0  0  0  0  0  0  0
    8.7173    2.5204    2.9000 O   0  0  0  0  0  0  0  0  0  0  0  0
    8.5685    2.1410    0.5226 C   0  0  0  0  0  0  0  0  0  0  0  0
    7.1909    2.0670    0.2564 O   0  0  0  0  0  0  0  0  0  0  0  0
    9.2643    1.0956   -0.3311 C   0  0  0  0  0  0  0  0  0  0  0  0
   10.2790    0.4613    0.4430 O   0  0  0  0  0  0  0  0  0  0  0  0
   11.1721    2.5675    2.5841 H   0  0  0  0  0  0  0  0  0  0  0  0
    9.3161    3.2603    2.7135 H   0  0  0  0  0  0  0  0  0  0  0  0
    6.8873    1.1534    0.3748 H   0  0  0  0  0  0  0  0  0  0  0  0
   10.7119    0.0397    2.7991 C   0  0  0  0  0  0  0  0  0  0  0  0
   10.3214    0.4054    4.0999 O   0  0  0  0  0  0  0  0  0  0  0  0
   11.4037    1.2003    4.9921 P   0  0  0  0  0  0  0  0  0  0  0  0
   11.1209    0.8602    6.4463 O   0  0  0  0  0  0  0  0  0  0  0  0
   11.3339    2.6987    4.7496 O   0  0  0  0  0  0  0  0  0  0  0  0
   12.7976    0.7284    4.5993 O   0  0  0  0  0  0  0  0  0  0  0  0
   11.9956    3.1464    5.2996 H   0  0  0  0  0  0  0  0  0  0  0  0
   13.4597    1.1993    5.1292 H   0  0  0  0  0  0  0  0  0  0  0  0
    9.7945    1.5845   -1.6508 C   0  0  0  0  0  0  0  0  0  0  0  0
    8.8441    2.5131   -2.1227 O   0  0  0  0  0  0  0  0  0  0  0  0
    9.2616    4.0054   -2.4662 P   0  0  0  0  0  0  0  0  0  0  0  0
   10.7672    4.1304   -2.3876 O   0  0  0  0  0  0  0  0  0  0  0  0
    8.5426    4.8925   -1.4732 O   0  0  0  0  0  0  0  0  0  0  0  0
    8.7723    4.2398   -3.8631 O   0  0  0  0  0  0  0  0  0  0  0  0
    8.8799    4.7184   -0.5806 H   0  0  0  0  0  0  0  0  0  0  0  0
    9.2504    3.6585   -4.4750 H   0  0  0  0  0  0  0  0  0  0  0  0
 14 15  2  0  0  0
 14 16  1  0  0  0
 14 17  1  0  0  0
 14 13  1  0  0  0
 13 12  1  0  0  0
 12  1  1  0  0  0
  1  2  1  0  0  0
  1  3  1  0  0  0
  1  8  1  0  0  0
  3  4  1  0  0  0
  3  5  1  0  0  0
  5  6  1  0  0  0
  5  7  1  0  0  0
  7  8  1  0  0  0
  7 20  1  0  0  0
 20 21  1  0  0  0
 21 22  1  0  0  0
 22 23  2  0  0  0
 22 24  1  0  0  0
 22 25  1  0  0  0
 16 18  1  0  0  0
 17 19  1  0  0  0
  2  9  1  0  0  0
  4 10  1  0  0  0
  6 11  1  0  0  0
 24 26  1  0  0  0
 25 27  1  0  0  0
M  END
> <minimizedAffinity>
-8.97573

$$$$
3BXF_FBP_A_401


 27 27  0  0  0  0  0  0  0  0999 V2000
   13.7852   -1.3474    5.3118 C   0  0  0  0  0  0  0  0  0  0  0  0
   14.5985   -0.3090    4.7156 O   0  0  0  0  0  0  0  0  0  0  0  0
   13.1177   -0.7815    6.5488 C   0  0  0  0  0  0  0  0  0  0  0  0
   13.9930   -0.0687    7.3809 O   0  0  0  0  0  0  0  0  0  0  0  0
   12.0622    0.1190    5.9475 C   0  0  0  0  0  0  0  0  0  0  0  0
   10.9685    0.1934    6.8264 O   0  0  0  0  0  0  0  0  0  0  0  0
   11.6524   -0.7427    4.7663 C   0  0  0  0  0  0  0  0  0  0  0  0
   12.7360   -1.5993    4.4157 O   0  0  0  0  0  0  0  0  0  0  0  0
   15.3407   -0.1015    5.3046 H   0  0  0  0  0  0  0  0  0  0  0  0
   14.3979    0.6560    6.8791 H   0  0  0  0  0  0  0  0  0  0  0  0
   10.6649   -0.7025    7.0411 H   0  0  0  0  0  0  0  0  0  0  0  0
   14.6604   -2.5777    5.5364 C   0  0  0  0  0  0  0  0  0  0  0  0
   14.1235   -3.7539    4.9828 O   0  0  0  0  0  0  0  0  0  0  0  0
   13.1808   -4.6477    5.9378 P   0  0  0  0  0  0  0  0  0  0  0  0
   13.2208   -6.0694    5.4016 O   0  0  0  0  0  0  0  0  0  0  0  0
   11.7601   -4.1107    5.9794 O   0  0  0  0  0  0  0  0  0  0  0  0
   13.7396   -4.5999    7.3539 O   0  0  0  0  0  0  0  0  0  0  0  0
   11.2203   -4.6690    6.5607 H   0  0  0  0  0  0  0  0  0  0  0  0
   13.1812   -5.1343    7.9400 H   0  0  0  0  0  0  0  0  0  0  0  0
   11.1233    0.0032    3.5723 C   0  0  0  0  0  0  0  0  0  0  0  0
    9.9306    0.6182    4.0053 O   0  0  0  0  0  0  0  0  0  0  0  0
    9.4375    1.9842    3.3649 P   0  0  0  0  0  0  0  0  0  0  0  0
    8.0896    1.7689    2.7127 O   0  0  0  0  0  0  0  0  0  0  0  0
   10.5075    2.4100    2.3832 O   0  0  0  0  0  0  0  0  0  0  0  0
    9.3354    2.9430    4.5122 O   0  0  0  0  0  0  0  0  0  0  0  0
   10.5496    1.7717    1.6540 H   0  0  0  0  0  0  0  0  0  0  0  0
    8.6433    2.6443    5.1226 H   0  0  0  0  0  0  0  0  0  0  0  0
 14 15  2  0  0  0
 14 16  1  0  0  0
 14 17  1  0  0  0
 14 13  1  0  0  0
 13 12  1  0  0  0
 12  1  1  0  0  0
  1  2  1  0  0  0
  1  3  1  0  0  0
  1  8  1  0  0  0
  3  4  1  0  0  0
  3  5  1  0  0  0
  5  6  1  0  0  0
  5  7  1  0  0  0
  7  8  1  0  0  0
  7 20  1  0  0  0
 20 21  1  0  0  0
 21 22  1  0  0  0
 22 23  2  0  0  0
 22 24  1  0  0  0
 22 25  1  0  0  0
 16 18  1  0  0  0
 17 19  1  0  0  0
  2  9  1  0  0  0
  4 10  1  0  0  0
  6 11  1  0  0  0
 24 26  1  0  0  0
 25 27  1  0  0  0
M  END
> <minimizedAffinity>
-8.91501

$$$$
3BXF_FBP_A_401


 27 27  0  0  0  0  0  0  0  0999 V2000
   12.6264   -0.9760    4.9248 C   0  0  0  0  0  0  0  0  0  0  0  0
   13.8175   -0.1729    4.7475 O   0  0  0  0  0  0  0  0  0  0  0  0
   11.5121   -0.0767    5.4200 C   0  0  0  0  0  0  0  0  0  0  0  0
   11.9000    0.7699    6.4687 O   0  0  0  0  0  0  0  0  0  0  0  0
   11.1653    0.7039    4.1722 C   0  0  0  0  0  0  0  0  0  0  0  0
    9.8079    1.0635    4.2191 O   0  0  0  0  0  0  0  0  0  0  0  0
   11.3185   -0.4026    3.1436 C   0  0  0  0  0  0  0  0  0  0  0  0
   12.2230   -1.3833    3.6447 O   0  0  0  0  0  0  0  0  0  0  0  0
   14.1335    0.1322    5.6124 H   0  0  0  0  0  0  0  0  0  0  0  0
   12.6469    1.3184    6.1820 H   0  0  0  0  0  0  0  0  0  0  0  0
    9.2684    0.2710    4.3664 H   0  0  0  0  0  0  0  0  0  0  0  0
   12.9711   -2.1595    5.8251 C   0  0  0  0  0  0  0  0  0  0  0  0
   12.9371   -3.3973    5.1582 O   0  0  0  0  0  0  0  0  0  0  0  0
   12.5996   -4.6986    6.0483 P   0  0  0  0  0  0  0  0  0  0  0  0
   13.1023   -5.9093    5.2789 O   0  0  0  0  0  0  0  0  0  0  0  0
   11.1120   -4.8050    6.3387 O   0  0  0  0  0  0  0  0  0  0  0  0
   13.3279   -4.5780    7.3805 O   0  0  0  0  0  0  0  0  0  0  0  0
   10.9429   -5.5959    6.8743 H   0  0  0  0  0  0  0  0  0  0  0  0
   13.1334   -5.3555    7.9269 H   0  0  0  0  0  0  0  0  0  0  0  0
   11.6957    0.0472    1.7589 C   0  0  0  0  0  0  0  0  0  0  0  0
   10.5429   -0.1426    0.9695 O   0  0  0  0  0  0  0  0  0  0  0  0
    9.4903    1.0281    0.7674 P   0  0  0  0  0  0  0  0  0  0  0  0
    8.2539    0.7311    1.5870 O   0  0  0  0  0  0  0  0  0  0  0  0
    9.2104    1.1030   -0.7179 O   0  0  0  0  0  0  0  0  0  0  0  0
   10.1786    2.2658    1.2571 O   0  0  0  0  0  0  0  0  0  0  0  0
    8.7657    0.2900   -1.0046 H   0  0  0  0  0  0  0  0  0  0  0  0
   10.3442    2.1883    2.2097 H   0  0  0  0  0  0  0  0  0  0  0  0
 14 15  2  0  0  0
 14 16  1  0  0  0
 14 17  1  0  0  0
 14 13  1  0  0  0
 13 12  1  0  0  0
 12  1  1  0  0  0
  1  2  1  0  0  0
  1  3  1  0  0  0
  1  8  1  0  0  0
  3  4  1  0  0  0
  3  5  1  0  0  0
  5  6  1  0  0  0
  5  7  1  0  0  0
  7  8  1  0  0  0
  7 20  1  0  0  0
 20 21  1  0  0  0
 21 22  1  0  0  0
 22 23  2  0  0  0
 22 24  1  0  0  0
 22 25  1  0  0  0
 16 18  1  0  0  0
 17 19  1  0  0  0
  2  9  1  0  0  0
  4 10  1  0  0  0
  6 11  1  0  0  0
 24 26  1  0  0  0
 25 27  1  0  0  0
M  END
> <minimizedAffinity>
-8.76789

$$$$
3BXF_FBP_A_401


 27 27  0  0  0  0  0  0  0  0999 V2000
   13.8475   -2.2050    5.6568 C   0  0  0  0  0  0  0  0  0  0  0  0
   13.4328   -1.9629    4.2913 O   0  0  0  0  0  0  0  0  0  0  0  0
   13.0551   -3.3782    6.1968 C   0  0  0  0  0  0  0  0  0  0  0  0
   11.6810   -3.2968    5.9283 O   0  0  0  0  0  0  0  0  0  0  0  0
   13.6960   -4.5434    5.4769 C   0  0  0  0  0  0  0  0  0  0  0  0
   13.5966   -5.6903    6.2823 O   0  0  0  0  0  0  0  0  0  0  0  0
   15.1416   -4.0796    5.5037 C   0  0  0  0  0  0  0  0  0  0  0  0
   15.1737   -2.6580    5.5989 O   0  0  0  0  0  0  0  0  0  0  0  0
   12.5160   -1.6463    4.2831 H   0  0  0  0  0  0  0  0  0  0  0  0
   11.5419   -3.2338    4.9704 H   0  0  0  0  0  0  0  0  0  0  0  0
   13.9645   -5.5020    7.1599 H   0  0  0  0  0  0  0  0  0  0  0  0
   13.7164   -0.9014    6.4400 C   0  0  0  0  0  0  0  0  0  0  0  0
   13.1952    0.1588    5.6768 O   0  0  0  0  0  0  0  0  0  0  0  0
   11.6458    0.5373    5.9130 P   0  0  0  0  0  0  0  0  0  0  0  0
   11.4063    1.8802    5.2424 O   0  0  0  0  0  0  0  0  0  0  0  0
   11.3033    0.5875    7.3924 O   0  0  0  0  0  0  0  0  0  0  0  0
   10.7798   -0.5378    5.2696 O   0  0  0  0  0  0  0  0  0  0  0  0
   10.3670    0.8171    7.4999 H   0  0  0  0  0  0  0  0  0  0  0  0
    9.8437   -0.3224    5.4042 H   0  0  0  0  0  0  0  0  0  0  0  0
   16.0046   -4.5821    4.3792 C   0  0  0  0  0  0  0  0  0  0  0  0
   16.6509   -5.7312    4.8792 O   0  0  0  0  0  0  0  0  0  0  0  0
   16.2080   -7.1834    4.4164 P   0  0  0  0  0  0  0  0  0  0  0  0
   15.3800   -7.8219    5.5096 O   0  0  0  0  0  0  0  0  0  0  0  0
   17.4802   -7.9460    4.1170 O   0  0  0  0  0  0  0  0  0  0  0  0
   15.3936   -6.9704    3.1765 O   0  0  0  0  0  0  0  0  0  0  0  0
   17.9846   -8.0680    4.9365 H   0  0  0  0  0  0  0  0  0  0  0  0
   14.5868   -6.4803    3.3998 H   0  0  0  0  0  0  0  0  0  0  0  0
 14 15  2  0  0  0
 14 16  1  0  0  0
 14 17  1  0  0  0
 14 13  1  0  0  0
 13 12  1  0  0  0
 12  1  1  0  0  0
  1  2  1  0  0  0
  1  3  1  0  0  0
  1  8  1  0  0  0
  3  4  1  0  0  0
  3  5  1  0  0  0
  5  6  1  0  0  0
  5  7  1  0  0  0
  7  8  1  0  0  0
  7 20  1  0  0  0
 20 21  1  0  0  0
 21 22  1  0  0  0
 22 23  2  0  0  0
 22 24  1  0  0  0
 22 25  1  0  0  0
 16 18  1  0  0  0
 17 19  1  0  0  0
  2  9  1  0  0  0
  4 10  1  0  0  0
  6 11  1  0  0  0
 24 26  1  0  0  0
 25 27  1  0  0  0
M  END
> <minimizedAffinity>
-8.59638

$$$$
