3B65_3B6_A_1


 27 28  0  0  0  0  0  0  0  0999 V2000
   29.5933    0.7466    3.6511 C   0  0  0  0  0  0  0  0  0  0  0  0
   30.7981    1.4903    3.4495 O   0  0  0  0  0  0  0  0  0  0  0  0
   29.5756   -0.4897    2.7487 C   0  0  0  0  0  0  0  0  0  0  0  0
   30.8547    1.7691    2.5222 H   0  0  0  0  0  0  0  0  0  0  0  0
   28.3827    2.7967    3.9914 N   0  0  0  0  0  0  0  0  0  0  0  0
   28.3957    1.6439    3.3267 C   0  0  0  0  0  0  0  0  0  0  0  0
   27.5328    1.2825    2.5282 O   0  0  0  0  0  0  0  0  0  0  0  0
   29.1285    2.9611    4.6125 H   0  0  0  0  0  0  0  0  0  0  0  0
   26.0869    3.5133    4.0036 C   0  0  0  0  0  0  0  0  0  0  0  0
   25.1698    4.5560    3.8771 C   0  0  0  0  0  0  0  0  0  0  0  0
   23.1141    4.1757    4.0659 I   0  0  0  0  0  0  0  0  0  0  0  0
   25.6333    5.8448    3.6386 C   0  0  0  0  0  0  0  0  0  0  0  0
   26.9994    6.0898    3.5329 C   0  0  0  0  0  0  0  0  0  0  0  0
   27.9084    5.0455    3.6600 C   0  0  0  0  0  0  0  0  0  0  0  0
   27.4557    3.7500    3.8961 C   0  0  0  0  0  0  0  0  0  0  0  0
   24.7345    6.9485    3.4785 C   0  0  0  0  0  0  0  0  0  0  0  0
   24.0292    7.8308    3.3581 N   0  0  0  0  0  0  0  0  0  0  0  0
   29.5011    0.3077    5.1046 C   0  0  0  0  0  0  0  0  0  0  0  0
   30.0512    1.3330    5.9486 O   0  0  0  0  0  0  0  0  0  0  0  0
   29.8157    1.1520    7.2787 C   0  0  0  0  0  0  0  0  0  0  0  0
   29.0977    2.0762    8.0343 C   0  0  0  0  0  0  0  0  0  0  0  0
   28.8329    1.8340    9.3793 C   0  0  0  0  0  0  0  0  0  0  0  0
   29.2859    0.6620    9.9756 C   0  0  0  0  0  0  0  0  0  0  0  0
   30.0099   -0.2624    9.2268 C   0  0  0  0  0  0  0  0  0  0  0  0
   30.2733   -0.0174    7.8823 C   0  0  0  0  0  0  0  0  0  0  0  0
   28.9630    0.3784   11.3416 C   0  0  0  0  0  0  0  0  0  0  0  0
   28.7028    0.1623   12.4276 N   0  0  0  0  0  0  0  0  0  0  0  0
  9 10  2  0  0  0
  9 15  1  0  0  0
 10 11  1  0  0  0
 10 12  1  0  0  0
 12 16  1  0  0  0
 12 13  2  0  0  0
 16 17  3  0  0  0
 13 14  1  0  0  0
 14 15  2  0  0  0
 15  5  1  0  0  0
  5  6  1  0  0  0
  6  7  2  0  0  0
  6  1  1  0  0  0
  1  2  1  0  0  0
  1  3  1  0  0  0
  1 18  1  0  0  0
 18 19  1  0  0  0
 19 20  1  0  0  0
 20 21  2  0  0  0
 20 25  1  0  0  0
 21 22  1  0  0  0
 22 23  2  0  0  0
 23 26  1  0  0  0
 23 24  1  0  0  0
 26 27  3  0  0  0
 24 25  2  0  0  0
  5  8  1  0  0  0
  2  4  1  0  0  0
M  END
> <minimizedAffinity>
-10.26396

$$$$
3B65_3B6_A_1


 27 28  0  0  0  0  0  0  0  0999 V2000
   29.7470    0.5658    3.8158 C   0  0  0  0  0  0  0  0  0  0  0  0
   30.7637    1.5562    3.6401 O   0  0  0  0  0  0  0  0  0  0  0  0
   30.0646   -0.6752    2.9781 C   0  0  0  0  0  0  0  0  0  0  0  0
   30.8141    1.8052    2.7039 H   0  0  0  0  0  0  0  0  0  0  0  0
   27.8399    1.9532    4.2877 N   0  0  0  0  0  0  0  0  0  0  0  0
   28.4009    1.1540    3.3836 C   0  0  0  0  0  0  0  0  0  0  0  0
   27.9078    0.8702    2.2932 O   0  0  0  0  0  0  0  0  0  0  0  0
   28.3333    2.0898    5.1286 H   0  0  0  0  0  0  0  0  0  0  0  0
   26.5544    3.9627    3.9822 C   0  0  0  0  0  0  0  0  0  0  0  0
   25.3003    4.5631    3.8758 C   0  0  0  0  0  0  0  0  0  0  0  0
   25.1497    6.6359    3.5808 I   0  0  0  0  0  0  0  0  0  0  0  0
   24.1588    3.7735    3.9543 C   0  0  0  0  0  0  0  0  0  0  0  0
   24.2697    2.3974    4.1320 C   0  0  0  0  0  0  0  0  0  0  0  0
   25.5232    1.8052    4.2375 C   0  0  0  0  0  0  0  0  0  0  0  0
   26.6734    2.5863    4.1631 C   0  0  0  0  0  0  0  0  0  0  0  0
   22.8462    4.3408    3.8733 C   0  0  0  0  0  0  0  0  0  0  0  0
   21.8060    4.7941    3.8208 N   0  0  0  0  0  0  0  0  0  0  0  0
   29.6650    0.1728    5.2831 C   0  0  0  0  0  0  0  0  0  0  0  0
   30.0801    1.2817    6.0981 O   0  0  0  0  0  0  0  0  0  0  0  0
   29.8230    1.1287    7.4278 C   0  0  0  0  0  0  0  0  0  0  0  0
   29.0163    2.0203    8.1315 C   0  0  0  0  0  0  0  0  0  0  0  0
   28.7343    1.8046    9.4775 C   0  0  0  0  0  0  0  0  0  0  0  0
   29.2587    0.6922   10.1268 C   0  0  0  0  0  0  0  0  0  0  0  0
   30.0711   -0.1988    9.4300 C   0  0  0  0  0  0  0  0  0  0  0  0
   30.3516    0.0195    8.0844 C   0  0  0  0  0  0  0  0  0  0  0  0
   28.9212    0.4316   11.4939 C   0  0  0  0  0  0  0  0  0  0  0  0
   28.6625    0.2223   12.5816 N   0  0  0  0  0  0  0  0  0  0  0  0
  9 10  2  0  0  0
  9 15  1  0  0  0
 10 11  1  0  0  0
 10 12  1  0  0  0
 12 16  1  0  0  0
 12 13  2  0  0  0
 16 17  3  0  0  0
 13 14  1  0  0  0
 14 15  2  0  0  0
 15  5  1  0  0  0
  5  6  1  0  0  0
  6  7  2  0  0  0
  6  1  1  0  0  0
  1  2  1  0  0  0
  1  3  1  0  0  0
  1 18  1  0  0  0
 18 19  1  0  0  0
 19 20  1  0  0  0
 20 21  2  0  0  0
 20 25  1  0  0  0
 21 22  1  0  0  0
 22 23  2  0  0  0
 23 26  1  0  0  0
 23 24  1  0  0  0
 26 27  3  0  0  0
 24 25  2  0  0  0
  5  8  1  0  0  0
  2  4  1  0  0  0
M  END
> <minimizedAffinity>
-9.33093

$$$$
