3T2Q_149_A_2001


 16 16  0  0  0  0  0  0  0  0999 V2000
  -13.2022  -27.7528  -25.5892 C   0  0  0  0  0  0  0  0  0  0  0  0
  -13.6000  -27.6800  -27.0449 C   0  0  0  0  0  0  0  0  0  0  0  0
  -12.7890  -28.6682  -27.8769 C   0  0  0  0  0  0  0  0  0  0  0  0
  -11.3184  -28.6835  -27.4623 C   0  0  0  0  0  0  0  0  0  0  0  0
  -11.1348  -28.9790  -25.9727 C   0  0  0  0  0  0  0  0  0  0  0  0
  -14.0277  -27.5909  -24.7094 O   0  0  0  0  0  0  0  0  0  0  0  0
  -14.9996  -27.9438  -27.2306 O   0  0  0  0  0  0  0  0  0  0  0  0
  -12.9162  -28.3064  -29.2577 O   0  0  0  0  0  0  0  0  0  0  0  0
  -10.7365  -27.4162  -27.7565 O   0  0  0  0  0  0  0  0  0  0  0  0
  -11.8216  -28.0015  -25.1858 O   0  0  0  0  0  0  0  0  0  0  0  0
  -15.2002  -28.8465  -26.9377 H   0  0  0  0  0  0  0  0  0  0  0  0
  -12.5690  -27.4105  -29.3905 H   0  0  0  0  0  0  0  0  0  0  0  0
  -11.1895  -26.7263  -27.2468 H   0  0  0  0  0  0  0  0  0  0  0  0
   -9.6639  -28.9475  -25.5610 C   0  0  0  0  0  0  0  0  0  0  0  0
   -9.4573  -28.1562  -24.3817 O   0  0  0  0  0  0  0  0  0  0  0  0
   -9.7299  -27.2414  -24.5543 H   0  0  0  0  0  0  0  0  0  0  0  0
  1  2  1  0  0  0
  1  6  2  0  0  0
  1 10  1  0  0  0
  2  3  1  0  0  0
  2  7  1  0  0  0
  3  4  1  0  0  0
  3  8  1  0  0  0
  4  5  1  0  0  0
  4  9  1  0  0  0
  5 14  1  0  0  0
  5 10  1  0  0  0
 14 15  1  0  0  0
  7 11  1  0  0  0
  8 12  1  0  0  0
  9 13  1  0  0  0
 15 16  1  0  0  0
M  END
> <minimizedAffinity>
-7.60964

$$$$
3T2Q_149_A_2001


 16 16  0  0  0  0  0  0  0  0999 V2000
  -12.3580  -28.0509  -27.6989 C   0  0  0  0  0  0  0  0  0  0  0  0
  -11.7218  -28.9019  -26.6247 C   0  0  0  0  0  0  0  0  0  0  0  0
  -12.7515  -29.8320  -25.9916 C   0  0  0  0  0  0  0  0  0  0  0  0
  -14.0819  -29.1209  -25.7478 C   0  0  0  0  0  0  0  0  0  0  0  0
  -14.6531  -28.4981  -27.0228 C   0  0  0  0  0  0  0  0  0  0  0  0
  -11.7355  -27.7416  -28.6981 O   0  0  0  0  0  0  0  0  0  0  0  0
  -10.6318  -29.6840  -27.1378 O   0  0  0  0  0  0  0  0  0  0  0  0
  -12.2148  -30.3265  -24.7582 O   0  0  0  0  0  0  0  0  0  0  0  0
  -13.8923  -28.0943  -24.7776 O   0  0  0  0  0  0  0  0  0  0  0  0
  -13.7260  -27.5577  -27.5727 O   0  0  0  0  0  0  0  0  0  0  0  0
  -10.9634  -30.2978  -27.8117 H   0  0  0  0  0  0  0  0  0  0  0  0
  -12.0399  -29.5828  -24.1605 H   0  0  0  0  0  0  0  0  0  0  0  0
  -13.2566  -27.4439  -25.1150 H   0  0  0  0  0  0  0  0  0  0  0  0
  -15.9599  -27.7520  -26.7584 C   0  0  0  0  0  0  0  0  0  0  0  0
  -16.7948  -28.4535  -25.8255 O   0  0  0  0  0  0  0  0  0  0  0  0
  -17.0256  -29.3229  -26.1884 H   0  0  0  0  0  0  0  0  0  0  0  0
  1  2  1  0  0  0
  1  6  2  0  0  0
  1 10  1  0  0  0
  2  3  1  0  0  0
  2  7  1  0  0  0
  3  4  1  0  0  0
  3  8  1  0  0  0
  4  5  1  0  0  0
  4  9  1  0  0  0
  5 14  1  0  0  0
  5 10  1  0  0  0
 14 15  1  0  0  0
  7 11  1  0  0  0
  8 12  1  0  0  0
  9 13  1  0  0  0
 15 16  1  0  0  0
M  END
> <minimizedAffinity>
-7.13595

$$$$
3T2Q_149_A_2001


 16 16  0  0  0  0  0  0  0  0999 V2000
  -11.9707  -27.8219  -25.6328 C   0  0  0  0  0  0  0  0  0  0  0  0
  -11.5126  -28.2404  -27.0105 C   0  0  0  0  0  0  0  0  0  0  0  0
  -12.6858  -28.2682  -27.9848 C   0  0  0  0  0  0  0  0  0  0  0  0
  -13.9338  -28.8802  -27.3502 C   0  0  0  0  0  0  0  0  0  0  0  0
  -14.3419  -28.1675  -26.0598 C   0  0  0  0  0  0  0  0  0  0  0  0
  -11.2519  -27.1515  -24.9148 O   0  0  0  0  0  0  0  0  0  0  0  0
  -10.4937  -27.3676  -27.5233 O   0  0  0  0  0  0  0  0  0  0  0  0
  -12.2937  -29.0174  -29.1418 O   0  0  0  0  0  0  0  0  0  0  0  0
  -13.6854  -30.2534  -27.0603 O   0  0  0  0  0  0  0  0  0  0  0  0
  -13.2746  -28.2162  -25.1086 O   0  0  0  0  0  0  0  0  0  0  0  0
  -10.8523  -26.4711  -27.6155 H   0  0  0  0  0  0  0  0  0  0  0  0
  -12.0696  -29.9239  -28.8793 H   0  0  0  0  0  0  0  0  0  0  0  0
  -12.9555  -30.3229  -26.4252 H   0  0  0  0  0  0  0  0  0  0  0  0
  -15.5637  -28.8158  -25.4109 C   0  0  0  0  0  0  0  0  0  0  0  0
  -16.5578  -29.1715  -26.3829 O   0  0  0  0  0  0  0  0  0  0  0  0
  -16.8623  -28.3726  -26.8411 H   0  0  0  0  0  0  0  0  0  0  0  0
  1  2  1  0  0  0
  1  6  2  0  0  0
  1 10  1  0  0  0
  2  3  1  0  0  0
  2  7  1  0  0  0
  3  4  1  0  0  0
  3  8  1  0  0  0
  4  5  1  0  0  0
  4  9  1  0  0  0
  5 14  1  0  0  0
  5 10  1  0  0  0
 14 15  1  0  0  0
  7 11  1  0  0  0
  8 12  1  0  0  0
  9 13  1  0  0  0
 15 16  1  0  0  0
M  END
> <minimizedAffinity>
-6.85131

$$$$
3T2Q_149_A_2001


 16 16  0  0  0  0  0  0  0  0999 V2000
  -12.6924  -27.9096  -27.6840 C   0  0  0  0  0  0  0  0  0  0  0  0
  -13.9360  -28.5704  -27.1369 C   0  0  0  0  0  0  0  0  0  0  0  0
  -13.8017  -28.8177  -25.6378 C   0  0  0  0  0  0  0  0  0  0  0  0
  -12.4103  -29.3328  -25.2719 C   0  0  0  0  0  0  0  0  0  0  0  0
  -11.2976  -28.3986  -25.7501 C   0  0  0  0  0  0  0  0  0  0  0  0
  -12.7657  -27.0939  -28.5845 O   0  0  0  0  0  0  0  0  0  0  0  0
  -15.1119  -27.7828  -27.3818 O   0  0  0  0  0  0  0  0  0  0  0  0
  -14.8047  -29.7627  -25.2448 O   0  0  0  0  0  0  0  0  0  0  0  0
  -12.2183  -30.6175  -25.8585 O   0  0  0  0  0  0  0  0  0  0  0  0
  -11.3654  -28.2337  -27.1695 O   0  0  0  0  0  0  0  0  0  0  0  0
  -15.0316  -26.9312  -26.9245 H   0  0  0  0  0  0  0  0  0  0  0  0
  -14.6696  -30.5955  -25.7234 H   0  0  0  0  0  0  0  0  0  0  0  0
  -12.2713  -30.5432  -26.8242 H   0  0  0  0  0  0  0  0  0  0  0  0
   -9.9103  -28.9457  -25.4183 C   0  0  0  0  0  0  0  0  0  0  0  0
   -9.2877  -28.2104  -24.3547 O   0  0  0  0  0  0  0  0  0  0  0  0
   -9.1778  -27.2846  -24.6227 H   0  0  0  0  0  0  0  0  0  0  0  0
  1  2  1  0  0  0
  1  6  2  0  0  0
  1 10  1  0  0  0
  2  3  1  0  0  0
  2  7  1  0  0  0
  3  4  1  0  0  0
  3  8  1  0  0  0
  4  5  1  0  0  0
  4  9  1  0  0  0
  5 14  1  0  0  0
  5 10  1  0  0  0
 14 15  1  0  0  0
  7 11  1  0  0  0
  8 12  1  0  0  0
  9 13  1  0  0  0
 15 16  1  0  0  0
M  END
> <minimizedAffinity>
-6.76663

$$$$
3T2Q_149_A_2001


 16 16  0  0  0  0  0  0  0  0999 V2000
  -12.6784  -29.7365  -25.6576 C   0  0  0  0  0  0  0  0  0  0  0  0
  -11.5109  -29.1494  -26.4159 C   0  0  0  0  0  0  0  0  0  0  0  0
  -11.8002  -27.7079  -26.8219 C   0  0  0  0  0  0  0  0  0  0  0  0
  -13.2324  -27.5390  -27.3271 C   0  0  0  0  0  0  0  0  0  0  0  0
  -14.2704  -28.0145  -26.3092 C   0  0  0  0  0  0  0  0  0  0  0  0
  -12.4970  -30.5278  -24.7507 O   0  0  0  0  0  0  0  0  0  0  0  0
  -10.2990  -29.1887  -25.6459 O   0  0  0  0  0  0  0  0  0  0  0  0
  -10.8630  -27.3285  -27.8374 O   0  0  0  0  0  0  0  0  0  0  0  0
  -13.3936  -28.2825  -28.5324 O   0  0  0  0  0  0  0  0  0  0  0  0
  -14.0572  -29.3929  -25.9917 O   0  0  0  0  0  0  0  0  0  0  0  0
  -10.4055  -28.6483  -24.8475 H   0  0  0  0  0  0  0  0  0  0  0  0
  -10.9682  -27.9088  -28.6075 H   0  0  0  0  0  0  0  0  0  0  0  0
  -13.2425  -29.2240  -28.3542 H   0  0  0  0  0  0  0  0  0  0  0  0
  -15.6959  -27.8825  -26.8427 C   0  0  0  0  0  0  0  0  0  0  0  0
  -16.5001  -29.0213  -26.5022 O   0  0  0  0  0  0  0  0  0  0  0  0
  -16.1151  -29.8189  -26.8977 H   0  0  0  0  0  0  0  0  0  0  0  0
  1  2  1  0  0  0
  1  6  2  0  0  0
  1 10  1  0  0  0
  2  3  1  0  0  0
  2  7  1  0  0  0
  3  4  1  0  0  0
  3  8  1  0  0  0
  4  5  1  0  0  0
  4  9  1  0  0  0
  5 14  1  0  0  0
  5 10  1  0  0  0
 14 15  1  0  0  0
  7 11  1  0  0  0
  8 12  1  0  0  0
  9 13  1  0  0  0
 15 16  1  0  0  0
M  END
> <minimizedAffinity>
-6.39263

$$$$
3T2Q_149_A_2001


 16 16  0  0  0  0  0  0  0  0999 V2000
  -15.3814  -28.6042  -26.3368 C   0  0  0  0  0  0  0  0  0  0  0  0
  -15.2277  -27.5484  -25.2670 C   0  0  0  0  0  0  0  0  0  0  0  0
  -14.0901  -26.5923  -25.6109 C   0  0  0  0  0  0  0  0  0  0  0  0
  -12.8749  -27.3350  -26.1647 C   0  0  0  0  0  0  0  0  0  0  0  0
  -13.2211  -28.1955  -27.3810 C   0  0  0  0  0  0  0  0  0  0  0  0
  -16.4806  -29.0357  -26.6321 O   0  0  0  0  0  0  0  0  0  0  0  0
  -16.4367  -26.7957  -25.0808 O   0  0  0  0  0  0  0  0  0  0  0  0
  -13.7366  -25.8672  -24.4264 O   0  0  0  0  0  0  0  0  0  0  0  0
  -12.3343  -28.1722  -25.1458 O   0  0  0  0  0  0  0  0  0  0  0  0
  -14.2261  -29.1543  -27.0391 O   0  0  0  0  0  0  0  0  0  0  0  0
  -16.6536  -26.3244  -25.9004 H   0  0  0  0  0  0  0  0  0  0  0  0
  -13.4413  -26.4888  -23.7428 H   0  0  0  0  0  0  0  0  0  0  0  0
  -12.9976  -28.8285  -24.8809 H   0  0  0  0  0  0  0  0  0  0  0  0
  -12.0086  -28.9676  -27.8985 C   0  0  0  0  0  0  0  0  0  0  0  0
  -11.9941  -29.0392  -29.3317 O   0  0  0  0  0  0  0  0  0  0  0  0
  -12.7874  -29.5045  -29.6402 H   0  0  0  0  0  0  0  0  0  0  0  0
  1  2  1  0  0  0
  1  6  2  0  0  0
  1 10  1  0  0  0
  2  3  1  0  0  0
  2  7  1  0  0  0
  3  4  1  0  0  0
  3  8  1  0  0  0
  4  5  1  0  0  0
  4  9  1  0  0  0
  5 14  1  0  0  0
  5 10  1  0  0  0
 14 15  1  0  0  0
  7 11  1  0  0  0
  8 12  1  0  0  0
  9 13  1  0  0  0
 15 16  1  0  0  0
M  END
> <minimizedAffinity>
-6.27494

$$$$
3T2Q_149_A_2001


 16 16  0  0  0  0  0  0  0  0999 V2000
  -11.2116  -28.2116  -25.3971 C   0  0  0  0  0  0  0  0  0  0  0  0
  -11.6910  -29.3977  -26.2010 C   0  0  0  0  0  0  0  0  0  0  0  0
  -12.8456  -29.0001  -27.1148 C   0  0  0  0  0  0  0  0  0  0  0  0
  -13.8359  -28.0770  -26.4062 C   0  0  0  0  0  0  0  0  0  0  0  0
  -13.1638  -26.8262  -25.8375 C   0  0  0  0  0  0  0  0  0  0  0  0
  -10.0332  -28.0821  -25.1210 O   0  0  0  0  0  0  0  0  0  0  0  0
  -10.6372  -29.9681  -26.9928 O   0  0  0  0  0  0  0  0  0  0  0  0
  -13.5027  -30.1943  -27.5572 O   0  0  0  0  0  0  0  0  0  0  0  0
  -14.4600  -28.7900  -25.3416 O   0  0  0  0  0  0  0  0  0  0  0  0
  -12.1376  -27.1934  -24.9110 O   0  0  0  0  0  0  0  0  0  0  0  0
  -10.3237  -29.3120  -27.6348 H   0  0  0  0  0  0  0  0  0  0  0  0
  -13.8488  -30.6762  -26.7897 H   0  0  0  0  0  0  0  0  0  0  0  0
  -13.7876  -29.0659  -24.6993 H   0  0  0  0  0  0  0  0  0  0  0  0
  -14.1551  -25.9333  -25.0930 C   0  0  0  0  0  0  0  0  0  0  0  0
  -14.5368  -26.4981  -23.8301 O   0  0  0  0  0  0  0  0  0  0  0  0
  -14.9701  -27.3535  -23.9762 H   0  0  0  0  0  0  0  0  0  0  0  0
  1  2  1  0  0  0
  1  6  2  0  0  0
  1 10  1  0  0  0
  2  3  1  0  0  0
  2  7  1  0  0  0
  3  4  1  0  0  0
  3  8  1  0  0  0
  4  5  1  0  0  0
  4  9  1  0  0  0
  5 14  1  0  0  0
  5 10  1  0  0  0
 14 15  1  0  0  0
  7 11  1  0  0  0
  8 12  1  0  0  0
  9 13  1  0  0  0
 15 16  1  0  0  0
M  END
> <minimizedAffinity>
-6.23885

$$$$
3T2Q_149_A_2001


 16 16  0  0  0  0  0  0  0  0999 V2000
  -12.9237  -27.9975  -28.0461 C   0  0  0  0  0  0  0  0  0  0  0  0
  -11.5957  -28.6642  -27.7730 C   0  0  0  0  0  0  0  0  0  0  0  0
  -11.6448  -29.4523  -26.4681 C   0  0  0  0  0  0  0  0  0  0  0  0
  -12.3808  -28.6845  -25.3709 C   0  0  0  0  0  0  0  0  0  0  0  0
  -13.7945  -28.2782  -25.7905 C   0  0  0  0  0  0  0  0  0  0  0  0
  -13.3367  -27.8757  -29.1846 O   0  0  0  0  0  0  0  0  0  0  0  0
  -11.2091  -29.5434  -28.8411 O   0  0  0  0  0  0  0  0  0  0  0  0
  -10.3003  -29.7387  -26.0631 O   0  0  0  0  0  0  0  0  0  0  0  0
  -11.6408  -27.5108  -25.0448 O   0  0  0  0  0  0  0  0  0  0  0  0
  -13.7472  -27.4637  -26.9655 O   0  0  0  0  0  0  0  0  0  0  0  0
  -11.8608  -30.2570  -28.9244 H   0  0  0  0  0  0  0  0  0  0  0  0
   -9.8213  -28.9072  -25.9210 H   0  0  0  0  0  0  0  0  0  0  0  0
  -11.5787  -26.9401  -25.8267 H   0  0  0  0  0  0  0  0  0  0  0  0
  -14.5039  -27.4729  -24.7032 C   0  0  0  0  0  0  0  0  0  0  0  0
  -14.0156  -26.1253  -24.6336 O   0  0  0  0  0  0  0  0  0  0  0  0
  -13.0701  -26.1348  -24.4171 H   0  0  0  0  0  0  0  0  0  0  0  0
  1  2  1  0  0  0
  1  6  2  0  0  0
  1 10  1  0  0  0
  2  3  1  0  0  0
  2  7  1  0  0  0
  3  4  1  0  0  0
  3  8  1  0  0  0
  4  5  1  0  0  0
  4  9  1  0  0  0
  5 14  1  0  0  0
  5 10  1  0  0  0
 14 15  1  0  0  0
  7 11  1  0  0  0
  8 12  1  0  0  0
  9 13  1  0  0  0
 15 16  1  0  0  0
M  END
> <minimizedAffinity>
-6.22660

$$$$
3T2Q_149_A_2001


 16 16  0  0  0  0  0  0  0  0999 V2000
  -13.2848  -29.4572  -25.2163 C   0  0  0  0  0  0  0  0  0  0  0  0
  -13.3210  -27.9759  -25.5117 C   0  0  0  0  0  0  0  0  0  0  0  0
  -12.1459  -27.5725  -26.3964 C   0  0  0  0  0  0  0  0  0  0  0  0
  -10.8505  -28.2577  -25.9637 C   0  0  0  0  0  0  0  0  0  0  0  0
  -10.9799  -29.7815  -25.9280 C   0  0  0  0  0  0  0  0  0  0  0  0
  -14.3154  -30.0964  -25.1117 O   0  0  0  0  0  0  0  0  0  0  0  0
  -14.5476  -27.5877  -26.1502 O   0  0  0  0  0  0  0  0  0  0  0  0
  -12.0033  -26.1478  -26.3352 O   0  0  0  0  0  0  0  0  0  0  0  0
  -10.4879  -27.7948  -24.6654 O   0  0  0  0  0  0  0  0  0  0  0  0
  -12.0240  -30.1687  -25.0301 O   0  0  0  0  0  0  0  0  0  0  0  0
  -14.6236  -28.0386  -27.0056 H   0  0  0  0  0  0  0  0  0  0  0  0
  -11.8261  -25.8797  -25.4200 H   0  0  0  0  0  0  0  0  0  0  0  0
  -11.1836  -28.0308  -24.0320 H   0  0  0  0  0  0  0  0  0  0  0  0
   -9.6932  -30.4531  -25.4512 C   0  0  0  0  0  0  0  0  0  0  0  0
   -9.7055  -30.6837  -24.0348 O   0  0  0  0  0  0  0  0  0  0  0  0
   -9.7795  -29.8356  -23.5698 H   0  0  0  0  0  0  0  0  0  0  0  0
  1  2  1  0  0  0
  1  6  2  0  0  0
  1 10  1  0  0  0
  2  3  1  0  0  0
  2  7  1  0  0  0
  3  4  1  0  0  0
  3  8  1  0  0  0
  4  5  1  0  0  0
  4  9  1  0  0  0
  5 14  1  0  0  0
  5 10  1  0  0  0
 14 15  1  0  0  0
  7 11  1  0  0  0
  8 12  1  0  0  0
  9 13  1  0  0  0
 15 16  1  0  0  0
M  END
> <minimizedAffinity>
-6.13332

$$$$
3T2Q_149_A_2001


 16 16  0  0  0  0  0  0  0  0999 V2000
  -12.8143  -28.2353  -25.5552 C   0  0  0  0  0  0  0  0  0  0  0  0
  -13.8967  -29.1503  -26.0788 C   0  0  0  0  0  0  0  0  0  0  0  0
  -15.1046  -28.3455  -26.5475 C   0  0  0  0  0  0  0  0  0  0  0  0
  -15.4344  -27.2068  -25.5833 C   0  0  0  0  0  0  0  0  0  0  0  0
  -14.2434  -26.2756  -25.3506 C   0  0  0  0  0  0  0  0  0  0  0  0
  -11.6386  -28.5053  -25.7176 O   0  0  0  0  0  0  0  0  0  0  0  0
  -13.4270  -29.9698  -27.1608 O   0  0  0  0  0  0  0  0  0  0  0  0
  -16.2203  -29.2366  -26.6702 O   0  0  0  0  0  0  0  0  0  0  0  0
  -15.8419  -27.7562  -24.3329 O   0  0  0  0  0  0  0  0  0  0  0  0
  -13.1345  -27.0118  -24.8265 O   0  0  0  0  0  0  0  0  0  0  0  0
  -13.1642  -29.4046  -27.9040 H   0  0  0  0  0  0  0  0  0  0  0  0
  -16.4123  -29.6351  -25.8069 H   0  0  0  0  0  0  0  0  0  0  0  0
  -15.1143  -28.2744  -23.9549 H   0  0  0  0  0  0  0  0  0  0  0  0
  -14.5712  -25.1677  -24.3510 C   0  0  0  0  0  0  0  0  0  0  0  0
  -14.7240  -25.6795  -23.0190 O   0  0  0  0  0  0  0  0  0  0  0  0
  -15.4569  -26.3145  -22.9988 H   0  0  0  0  0  0  0  0  0  0  0  0
  1  2  1  0  0  0
  1  6  2  0  0  0
  1 10  1  0  0  0
  2  3  1  0  0  0
  2  7  1  0  0  0
  3  4  1  0  0  0
  3  8  1  0  0  0
  4  5  1  0  0  0
  4  9  1  0  0  0
  5 14  1  0  0  0
  5 10  1  0  0  0
 14 15  1  0  0  0
  7 11  1  0  0  0
  8 12  1  0  0  0
  9 13  1  0  0  0
 15 16  1  0  0  0
M  END
> <minimizedAffinity>
-6.10332

$$$$
