6HLY_G9Z_A_410


 26 26  0  0  0  0  0  0  0  0999 V2000
   53.8003   14.3190   81.2385 C   0  0  0  0  0  0  0  0  0  0  0  0
   55.1693   14.1141   80.8256 O   0  0  0  0  0  0  0  0  0  0  0  0
   55.3154   14.5412   79.9670 H   0  0  0  0  0  0  0  0  0  0  0  0
   53.5596   15.8317   81.3465 C   0  0  0  0  0  0  0  0  0  0  0  0
   52.1387   16.1300   81.3721 O   0  0  0  0  0  0  0  0  0  0  0  0
   51.7410   15.7412   82.1668 H   0  0  0  0  0  0  0  0  0  0  0  0
   54.3175   16.4964   82.5185 C   0  0  0  0  0  0  0  0  0  0  0  0
   55.7304   16.4871   82.2592 O   0  0  0  0  0  0  0  0  0  0  0  0
   56.0352   15.5714   82.1617 H   0  0  0  0  0  0  0  0  0  0  0  0
   54.0810   15.6808   83.7938 C   0  0  0  0  0  0  0  0  0  0  0  0
   53.3659   16.4999   84.7538 O   0  0  0  0  0  0  0  0  0  0  0  0
   53.8990   17.2797   84.9741 H   0  0  0  0  0  0  0  0  0  0  0  0
   55.4059   15.2015   84.4090 C   0  0  0  0  0  0  0  0  0  0  0  0
   56.0869   16.2609   85.1075 O   0  0  0  0  0  0  0  0  0  0  0  0
   56.2982   16.9747   84.4855 H   0  0  0  0  0  0  0  0  0  0  0  0
   52.8566   13.6928   80.2052 C   0  0  0  0  0  0  0  0  0  0  0  0
   50.1939   13.5853   81.3140 O   0  0  0  0  0  0  0  0  0  0  0  0
   50.8933   12.5389   81.2465 C   0  0  0  0  0  0  0  0  0  0  0  0
   50.4587   11.2505   81.6899 C   0  0  0  0  0  0  0  0  0  0  0  0
   51.7241   10.3478   81.5965 C   0  0  0  0  0  0  0  0  0  0  0  0
   52.8120   11.1979   80.9016 C   0  0  0  0  0  0  0  0  0  0  0  0
   52.1543   12.5180   80.7730 N   0  0  0  0  0  0  0  0  0  0  0  0
   53.2434   10.5397   79.6657 C   0  0  0  0  0  0  0  0  0  0  0  0
   52.3683   10.1983   78.8262 O   0  0  0  0  0  0  0  0  0  0  0  0
   54.4609   10.3658   79.4789 O   0  0  0  0  0  0  0  0  0  0  0  0
   55.0781   10.6351   80.1305 H   0  0  0  0  0  0  0  0  0  0  0  0
 24 23  2  0  0  0
 20 19  2  0  0  0
 20 21  1  0  0  0
 19 18  1  0  0  0
 23 25  1  0  0  0
 23 21  1  0  0  0
 21 22  1  0  0  0
 18 17  2  0  0  0
 18 22  1  0  0  0
 22 16  1  0  0  0
 16  1  1  0  0  0
  1  2  1  0  0  0
  1  4  1  0  0  0
  5  4  1  0  0  0
  4  7  1  0  0  0
  7 10  1  0  0  0
  7  8  1  0  0  0
 10 13  1  0  0  0
 10 11  1  0  0  0
 13 14  1  0  0  0
  2  3  1  0  0  0
  5  6  1  0  0  0
  8  9  1  0  0  0
 11 12  1  0  0  0
 14 15  1  0  0  0
 25 26  1  0  0  0
M  END
> <minimizedAffinity>
-8.46764

$$$$
6HLY_G9Z_A_410


 26 26  0  0  0  0  0  0  0  0999 V2000
   53.0729   14.0604   80.6964 C   0  0  0  0  0  0  0  0  0  0  0  0
   52.0068   14.5850   81.5179 O   0  0  0  0  0  0  0  0  0  0  0  0
   52.3071   14.6444   82.4383 H   0  0  0  0  0  0  0  0  0  0  0  0
   54.2698   15.0159   80.8070 C   0  0  0  0  0  0  0  0  0  0  0  0
   54.1091   16.1529   79.9183 O   0  0  0  0  0  0  0  0  0  0  0  0
   53.3331   16.6681   80.1894 H   0  0  0  0  0  0  0  0  0  0  0  0
   54.5845   15.4478   82.2575 C   0  0  0  0  0  0  0  0  0  0  0  0
   54.2115   16.8211   82.4541 O   0  0  0  0  0  0  0  0  0  0  0  0
   54.7097   17.3826   81.8397 H   0  0  0  0  0  0  0  0  0  0  0  0
   56.0949   15.3458   82.4934 C   0  0  0  0  0  0  0  0  0  0  0  0
   56.6080   14.1901   81.7828 O   0  0  0  0  0  0  0  0  0  0  0  0
   56.1823   13.3870   82.1215 H   0  0  0  0  0  0  0  0  0  0  0  0
   56.4235   15.2200   83.9900 C   0  0  0  0  0  0  0  0  0  0  0  0
   55.9133   16.3342   84.7463 O   0  0  0  0  0  0  0  0  0  0  0  0
   56.3215   17.1547   84.4285 H   0  0  0  0  0  0  0  0  0  0  0  0
   53.4521   12.6582   81.1867 C   0  0  0  0  0  0  0  0  0  0  0  0
   54.5758   10.4792   79.6637 O   0  0  0  0  0  0  0  0  0  0  0  0
   53.3253   10.6071   79.7559 C   0  0  0  0  0  0  0  0  0  0  0  0
   52.3789    9.7255   79.1456 C   0  0  0  0  0  0  0  0  0  0  0  0
   50.9969   10.4086   79.3651 C   0  0  0  0  0  0  0  0  0  0  0  0
   51.2545   11.6191   80.2912 C   0  0  0  0  0  0  0  0  0  0  0  0
   52.7293   11.6159   80.4207 N   0  0  0  0  0  0  0  0  0  0  0  0
   50.4723   11.4788   81.5221 C   0  0  0  0  0  0  0  0  0  0  0  0
   50.5693   10.4092   82.1806 O   0  0  0  0  0  0  0  0  0  0  0  0
   49.7607   12.4321   81.8858 O   0  0  0  0  0  0  0  0  0  0  0  0
   49.7176   13.2099   81.3651 H   0  0  0  0  0  0  0  0  0  0  0  0
 24 23  2  0  0  0
 20 19  2  0  0  0
 20 21  1  0  0  0
 19 18  1  0  0  0
 23 25  1  0  0  0
 23 21  1  0  0  0
 21 22  1  0  0  0
 18 17  2  0  0  0
 18 22  1  0  0  0
 22 16  1  0  0  0
 16  1  1  0  0  0
  1  2  1  0  0  0
  1  4  1  0  0  0
  5  4  1  0  0  0
  4  7  1  0  0  0
  7 10  1  0  0  0
  7  8  1  0  0  0
 10 13  1  0  0  0
 10 11  1  0  0  0
 13 14  1  0  0  0
  2  3  1  0  0  0
  5  6  1  0  0  0
  8  9  1  0  0  0
 11 12  1  0  0  0
 14 15  1  0  0  0
 25 26  1  0  0  0
M  END
> <minimizedAffinity>
-8.36265

$$$$
6HLY_G9Z_A_410


 26 26  0  0  0  0  0  0  0  0999 V2000
   54.4278   13.5610   81.8592 C   0  0  0  0  0  0  0  0  0  0  0  0
   55.6550   14.0309   81.2592 O   0  0  0  0  0  0  0  0  0  0  0  0
   55.5324   14.9390   80.9411 H   0  0  0  0  0  0  0  0  0  0  0  0
   54.0848   14.4948   83.0289 C   0  0  0  0  0  0  0  0  0  0  0  0
   54.4600   13.8961   84.2973 O   0  0  0  0  0  0  0  0  0  0  0  0
   55.4223   13.7774   84.3268 H   0  0  0  0  0  0  0  0  0  0  0  0
   54.6522   15.9236   82.8664 C   0  0  0  0  0  0  0  0  0  0  0  0
   55.8496   16.0693   83.6466 O   0  0  0  0  0  0  0  0  0  0  0  0
   55.6471   15.9117   84.5821 H   0  0  0  0  0  0  0  0  0  0  0  0
   53.6308   16.9315   83.4035 C   0  0  0  0  0  0  0  0  0  0  0  0
   53.1771   16.4951   84.7102 O   0  0  0  0  0  0  0  0  0  0  0  0
   52.7505   15.6275   84.6313 H   0  0  0  0  0  0  0  0  0  0  0  0
   52.4264   17.0702   82.4581 C   0  0  0  0  0  0  0  0  0  0  0  0
   51.3205   16.2470   82.8745 O   0  0  0  0  0  0  0  0  0  0  0  0
   51.5896   15.3152   82.8654 H   0  0  0  0  0  0  0  0  0  0  0  0
   53.3098   13.5732   80.8103 C   0  0  0  0  0  0  0  0  0  0  0  0
   50.5032   13.7431   81.4623 O   0  0  0  0  0  0  0  0  0  0  0  0
   51.0495   12.6177   81.3086 C   0  0  0  0  0  0  0  0  0  0  0  0
   50.3661   11.3676   81.4336 C   0  0  0  0  0  0  0  0  0  0  0  0
   51.4883   10.2901   81.3675 C   0  0  0  0  0  0  0  0  0  0  0  0
   52.7915   11.0434   81.0160 C   0  0  0  0  0  0  0  0  0  0  0  0
   52.3593   12.4592   81.0365 N   0  0  0  0  0  0  0  0  0  0  0  0
   53.3406   10.5274   79.7594 C   0  0  0  0  0  0  0  0  0  0  0  0
   52.5419   10.1661   78.8546 O   0  0  0  0  0  0  0  0  0  0  0  0
   54.5764   10.4896   79.6222 O   0  0  0  0  0  0  0  0  0  0  0  0
   55.1342   10.7681   80.3216 H   0  0  0  0  0  0  0  0  0  0  0  0
 24 23  2  0  0  0
 20 19  2  0  0  0
 20 21  1  0  0  0
 19 18  1  0  0  0
 23 25  1  0  0  0
 23 21  1  0  0  0
 21 22  1  0  0  0
 18 17  2  0  0  0
 18 22  1  0  0  0
 22 16  1  0  0  0
 16  1  1  0  0  0
  1  2  1  0  0  0
  1  4  1  0  0  0
  5  4  1  0  0  0
  4  7  1  0  0  0
  7 10  1  0  0  0
  7  8  1  0  0  0
 10 13  1  0  0  0
 10 11  1  0  0  0
 13 14  1  0  0  0
  2  3  1  0  0  0
  5  6  1  0  0  0
  8  9  1  0  0  0
 11 12  1  0  0  0
 14 15  1  0  0  0
 25 26  1  0  0  0
M  END
> <minimizedAffinity>
-8.25680

$$$$
6HLY_G9Z_A_410


 26 26  0  0  0  0  0  0  0  0999 V2000
   52.4923   15.0185   80.8149 C   0  0  0  0  0  0  0  0  0  0  0  0
   51.7352   15.3980   79.6446 O   0  0  0  0  0  0  0  0  0  0  0  0
   50.8363   15.6493   79.9085 H   0  0  0  0  0  0  0  0  0  0  0  0
   52.5318   16.2242   81.7649 C   0  0  0  0  0  0  0  0  0  0  0  0
   51.4285   16.1776   82.7077 O   0  0  0  0  0  0  0  0  0  0  0  0
   51.5178   15.3934   83.2715 H   0  0  0  0  0  0  0  0  0  0  0  0
   53.8950   16.4121   82.4693 C   0  0  0  0  0  0  0  0  0  0  0  0
   54.9426   15.8296   81.6776 O   0  0  0  0  0  0  0  0  0  0  0  0
   54.7718   14.8817   81.5624 H   0  0  0  0  0  0  0  0  0  0  0  0
   53.8707   15.6729   83.8111 C   0  0  0  0  0  0  0  0  0  0  0  0
   53.3268   16.5536   84.8271 O   0  0  0  0  0  0  0  0  0  0  0  0
   53.8912   17.3380   84.9109 H   0  0  0  0  0  0  0  0  0  0  0  0
   55.2779   15.2128   84.2256 C   0  0  0  0  0  0  0  0  0  0  0  0
   56.0763   16.3061   84.7167 O   0  0  0  0  0  0  0  0  0  0  0  0
   56.1832   16.9686   84.0163 H   0  0  0  0  0  0  0  0  0  0  0  0
   51.8193   13.8182   81.4907 C   0  0  0  0  0  0  0  0  0  0  0  0
   54.4854   13.0554   80.6904 O   0  0  0  0  0  0  0  0  0  0  0  0
   53.5272   12.2494   80.5460 C   0  0  0  0  0  0  0  0  0  0  0  0
   53.6569   10.9347   79.9982 C   0  0  0  0  0  0  0  0  0  0  0  0
   52.1950   10.4247   79.8324 C   0  0  0  0  0  0  0  0  0  0  0  0
   51.2885   11.4848   80.4984 C   0  0  0  0  0  0  0  0  0  0  0  0
   52.2526   12.5467   80.8653 N   0  0  0  0  0  0  0  0  0  0  0  0
   50.5206   10.8708   81.5847 C   0  0  0  0  0  0  0  0  0  0  0  0
   51.1452   10.3692   82.5570 O   0  0  0  0  0  0  0  0  0  0  0  0
   49.2785   10.8907   81.5195 O   0  0  0  0  0  0  0  0  0  0  0  0
   48.8545   11.2742   80.7771 H   0  0  0  0  0  0  0  0  0  0  0  0
 24 23  2  0  0  0
 20 19  2  0  0  0
 20 21  1  0  0  0
 19 18  1  0  0  0
 23 25  1  0  0  0
 23 21  1  0  0  0
 21 22  1  0  0  0
 18 17  2  0  0  0
 18 22  1  0  0  0
 22 16  1  0  0  0
 16  1  1  0  0  0
  1  2  1  0  0  0
  1  4  1  0  0  0
  5  4  1  0  0  0
  4  7  1  0  0  0
  7 10  1  0  0  0
  7  8  1  0  0  0
 10 13  1  0  0  0
 10 11  1  0  0  0
 13 14  1  0  0  0
  2  3  1  0  0  0
  5  6  1  0  0  0
  8  9  1  0  0  0
 11 12  1  0  0  0
 14 15  1  0  0  0
 25 26  1  0  0  0
M  END
> <minimizedAffinity>
-8.24491

$$$$
6HLY_G9Z_A_410


 26 26  0  0  0  0  0  0  0  0999 V2000
   53.8308   12.7476   82.2624 C   0  0  0  0  0  0  0  0  0  0  0  0
   55.2036   12.2980   82.2665 O   0  0  0  0  0  0  0  0  0  0  0  0
   55.7672   12.9763   81.8625 H   0  0  0  0  0  0  0  0  0  0  0  0
   53.7574   14.0524   83.0686 C   0  0  0  0  0  0  0  0  0  0  0  0
   54.3040   13.8696   84.4013 O   0  0  0  0  0  0  0  0  0  0  0  0
   55.2468   13.6508   84.3370 H   0  0  0  0  0  0  0  0  0  0  0  0
   54.3832   15.2646   82.3415 C   0  0  0  0  0  0  0  0  0  0  0  0
   55.8002   15.3008   82.5748 O   0  0  0  0  0  0  0  0  0  0  0  0
   55.9692   15.3787   83.5268 H   0  0  0  0  0  0  0  0  0  0  0  0
   53.7914   16.5544   82.9191 C   0  0  0  0  0  0  0  0  0  0  0  0
   54.0633   16.6040   84.3429 O   0  0  0  0  0  0  0  0  0  0  0  0
   53.6459   15.8444   84.7784 H   0  0  0  0  0  0  0  0  0  0  0  0
   52.2748   16.6343   82.6795 C   0  0  0  0  0  0  0  0  0  0  0  0
   51.9320   16.3413   81.3119 O   0  0  0  0  0  0  0  0  0  0  0  0
   52.3519   16.9912   80.7269 H   0  0  0  0  0  0  0  0  0  0  0  0
   53.3734   12.9772   80.8173 C   0  0  0  0  0  0  0  0  0  0  0  0
   54.5932   10.6135   79.6966 O   0  0  0  0  0  0  0  0  0  0  0  0
   53.3392   10.6908   79.7967 C   0  0  0  0  0  0  0  0  0  0  0  0
   52.4342    9.6623   79.3863 C   0  0  0  0  0  0  0  0  0  0  0  0
   51.0196   10.3011   79.5116 C   0  0  0  0  0  0  0  0  0  0  0  0
   51.2237   11.6752   80.1893 C   0  0  0  0  0  0  0  0  0  0  0  0
   52.6982   11.7736   80.2779 N   0  0  0  0  0  0  0  0  0  0  0  0
   50.4708   11.7270   81.4451 C   0  0  0  0  0  0  0  0  0  0  0  0
   50.4148   10.6904   82.1588 O   0  0  0  0  0  0  0  0  0  0  0  0
   49.9361   12.8012   81.7735 O   0  0  0  0  0  0  0  0  0  0  0  0
   50.0025   13.5484   81.2121 H   0  0  0  0  0  0  0  0  0  0  0  0
 24 23  2  0  0  0
 20 19  2  0  0  0
 20 21  1  0  0  0
 19 18  1  0  0  0
 23 25  1  0  0  0
 23 21  1  0  0  0
 21 22  1  0  0  0
 18 17  2  0  0  0
 18 22  1  0  0  0
 22 16  1  0  0  0
 16  1  1  0  0  0
  1  2  1  0  0  0
  1  4  1  0  0  0
  5  4  1  0  0  0
  4  7  1  0  0  0
  7 10  1  0  0  0
  7  8  1  0  0  0
 10 13  1  0  0  0
 10 11  1  0  0  0
 13 14  1  0  0  0
  2  3  1  0  0  0
  5  6  1  0  0  0
  8  9  1  0  0  0
 11 12  1  0  0  0
 14 15  1  0  0  0
 25 26  1  0  0  0
M  END
> <minimizedAffinity>
-8.12184

$$$$
6HLY_G9Z_A_410


 26 26  0  0  0  0  0  0  0  0999 V2000
   52.5618   15.2661   81.1640 C   0  0  0  0  0  0  0  0  0  0  0  0
   51.9147   16.0259   80.1196 O   0  0  0  0  0  0  0  0  0  0  0  0
   51.1899   16.5463   80.5001 H   0  0  0  0  0  0  0  0  0  0  0  0
   53.1045   16.2572   82.2037 C   0  0  0  0  0  0  0  0  0  0  0  0
   52.0278   17.0370   82.7878 O   0  0  0  0  0  0  0  0  0  0  0  0
   51.4276   16.4482   83.2715 H   0  0  0  0  0  0  0  0  0  0  0  0
   53.9985   15.5980   83.2789 C   0  0  0  0  0  0  0  0  0  0  0  0
   53.7763   16.2218   84.5537 O   0  0  0  0  0  0  0  0  0  0  0  0
   53.9933   17.1653   84.4942 H   0  0  0  0  0  0  0  0  0  0  0  0
   55.4692   15.8198   82.9111 C   0  0  0  0  0  0  0  0  0  0  0  0
   55.8627   14.8370   81.9197 O   0  0  0  0  0  0  0  0  0  0  0  0
   55.7625   13.9461   82.2900 H   0  0  0  0  0  0  0  0  0  0  0  0
   56.3810   15.7042   84.1435 C   0  0  0  0  0  0  0  0  0  0  0  0
   57.5904   16.4707   83.9894 O   0  0  0  0  0  0  0  0  0  0  0  0
   58.0898   16.1371   83.2277 H   0  0  0  0  0  0  0  0  0  0  0  0
   51.5471   14.3113   81.8037 C   0  0  0  0  0  0  0  0  0  0  0  0
   50.6134   13.2168   79.3016 O   0  0  0  0  0  0  0  0  0  0  0  0
   51.2823   12.5008   80.0942 C   0  0  0  0  0  0  0  0  0  0  0  0
   51.6328   11.1366   79.8459 C   0  0  0  0  0  0  0  0  0  0  0  0
   52.2590   10.6355   81.1806 C   0  0  0  0  0  0  0  0  0  0  0  0
   52.3837   11.8767   82.0933 C   0  0  0  0  0  0  0  0  0  0  0  0
   51.7227   12.9318   81.2922 N   0  0  0  0  0  0  0  0  0  0  0  0
   53.7876   12.0889   82.4549 C   0  0  0  0  0  0  0  0  0  0  0  0
   54.0885   12.1899   83.6741 O   0  0  0  0  0  0  0  0  0  0  0  0
   54.6350   12.1353   81.5454 O   0  0  0  0  0  0  0  0  0  0  0  0
   54.3672   12.0559   80.6510 H   0  0  0  0  0  0  0  0  0  0  0  0
 24 23  2  0  0  0
 20 19  2  0  0  0
 20 21  1  0  0  0
 19 18  1  0  0  0
 23 25  1  0  0  0
 23 21  1  0  0  0
 21 22  1  0  0  0
 18 17  2  0  0  0
 18 22  1  0  0  0
 22 16  1  0  0  0
 16  1  1  0  0  0
  1  2  1  0  0  0
  1  4  1  0  0  0
  5  4  1  0  0  0
  4  7  1  0  0  0
  7 10  1  0  0  0
  7  8  1  0  0  0
 10 13  1  0  0  0
 10 11  1  0  0  0
 13 14  1  0  0  0
  2  3  1  0  0  0
  5  6  1  0  0  0
  8  9  1  0  0  0
 11 12  1  0  0  0
 14 15  1  0  0  0
 25 26  1  0  0  0
M  END
> <minimizedAffinity>
-7.30453

$$$$
6HLY_G9Z_A_410


 26 26  0  0  0  0  0  0  0  0999 V2000
   55.2422   15.7071   82.2997 C   0  0  0  0  0  0  0  0  0  0  0  0
   54.9335   17.0394   81.8346 O   0  0  0  0  0  0  0  0  0  0  0  0
   54.6518   17.5864   82.5845 H   0  0  0  0  0  0  0  0  0  0  0  0
   56.3710   15.8165   83.3349 C   0  0  0  0  0  0  0  0  0  0  0  0
   55.8670   16.3210   84.5998 O   0  0  0  0  0  0  0  0  0  0  0  0
   55.2297   15.6898   84.9689 H   0  0  0  0  0  0  0  0  0  0  0  0
   57.1808   14.5111   83.5073 C   0  0  0  0  0  0  0  0  0  0  0  0
   56.9169   13.9348   84.7965 O   0  0  0  0  0  0  0  0  0  0  0  0
   57.1737   14.5625   85.4899 H   0  0  0  0  0  0  0  0  0  0  0  0
   58.6764   14.8389   83.4503 C   0  0  0  0  0  0  0  0  0  0  0  0
   59.0504   15.1056   82.0745 O   0  0  0  0  0  0  0  0  0  0  0  0
   58.8808   14.3177   81.5347 H   0  0  0  0  0  0  0  0  0  0  0  0
   59.5272   13.6836   84.0024 C   0  0  0  0  0  0  0  0  0  0  0  0
   59.0241   12.4004   83.5850 O   0  0  0  0  0  0  0  0  0  0  0  0
   58.1220   12.2818   83.9214 H   0  0  0  0  0  0  0  0  0  0  0  0
   53.9903   15.0829   82.9271 C   0  0  0  0  0  0  0  0  0  0  0  0
   54.2596   12.3990   83.9541 O   0  0  0  0  0  0  0  0  0  0  0  0
   53.7645   12.5918   82.8112 C   0  0  0  0  0  0  0  0  0  0  0  0
   53.3048   11.5491   81.9469 C   0  0  0  0  0  0  0  0  0  0  0  0
   52.9883   12.2588   80.5976 C   0  0  0  0  0  0  0  0  0  0  0  0
   53.1373   13.7747   80.8603 C   0  0  0  0  0  0  0  0  0  0  0  0
   53.6379   13.8113   82.2531 N   0  0  0  0  0  0  0  0  0  0  0  0
   51.8688   14.4542   80.5849 C   0  0  0  0  0  0  0  0  0  0  0  0
   51.8987   15.6036   80.0701 O   0  0  0  0  0  0  0  0  0  0  0  0
   50.8075   13.8598   80.8455 O   0  0  0  0  0  0  0  0  0  0  0  0
   50.8312   13.0050   81.2285 H   0  0  0  0  0  0  0  0  0  0  0  0
 24 23  2  0  0  0
 20 19  2  0  0  0
 20 21  1  0  0  0
 19 18  1  0  0  0
 23 25  1  0  0  0
 23 21  1  0  0  0
 21 22  1  0  0  0
 18 17  2  0  0  0
 18 22  1  0  0  0
 22 16  1  0  0  0
 16  1  1  0  0  0
  1  2  1  0  0  0
  1  4  1  0  0  0
  5  4  1  0  0  0
  4  7  1  0  0  0
  7 10  1  0  0  0
  7  8  1  0  0  0
 10 13  1  0  0  0
 10 11  1  0  0  0
 13 14  1  0  0  0
  2  3  1  0  0  0
  5  6  1  0  0  0
  8  9  1  0  0  0
 11 12  1  0  0  0
 14 15  1  0  0  0
 25 26  1  0  0  0
M  END
> <minimizedAffinity>
-7.28778

$$$$
6HLY_G9Z_A_410


 26 26  0  0  0  0  0  0  0  0999 V2000
   55.9027   15.1365   84.2302 C   0  0  0  0  0  0  0  0  0  0  0  0
   56.0183   16.2261   85.1715 O   0  0  0  0  0  0  0  0  0  0  0  0
   55.5203   16.0125   85.9761 H   0  0  0  0  0  0  0  0  0  0  0  0
   56.4745   13.8751   84.8934 C   0  0  0  0  0  0  0  0  0  0  0  0
   55.4268   12.9021   85.1461 O   0  0  0  0  0  0  0  0  0  0  0  0
   55.0474   12.6090   84.3029 H   0  0  0  0  0  0  0  0  0  0  0  0
   57.6695   13.2617   84.1282 C   0  0  0  0  0  0  0  0  0  0  0  0
   57.2025   12.2710   83.1986 O   0  0  0  0  0  0  0  0  0  0  0  0
   56.7389   11.5685   83.6806 H   0  0  0  0  0  0  0  0  0  0  0  0
   58.5922   12.5540   85.1259 C   0  0  0  0  0  0  0  0  0  0  0  0
   58.3550   13.0902   86.4526 O   0  0  0  0  0  0  0  0  0  0  0  0
   58.5553   14.0393   86.4583 H   0  0  0  0  0  0  0  0  0  0  0  0
   60.0720   12.7372   84.7515 C   0  0  0  0  0  0  0  0  0  0  0  0
   60.2335   13.1039   83.3683 O   0  0  0  0  0  0  0  0  0  0  0  0
   59.8771   12.4004   82.8035 H   0  0  0  0  0  0  0  0  0  0  0  0
   54.4281   14.9342   83.8626 C   0  0  0  0  0  0  0  0  0  0  0  0
   54.5051   12.4979   82.3170 O   0  0  0  0  0  0  0  0  0  0  0  0
   54.2819   13.6004   81.7484 C   0  0  0  0  0  0  0  0  0  0  0  0
   54.0525   13.7501   80.3447 C   0  0  0  0  0  0  0  0  0  0  0  0
   54.0406   15.2884   80.1034 C   0  0  0  0  0  0  0  0  0  0  0  0
   54.0968   15.9463   81.5010 C   0  0  0  0  0  0  0  0  0  0  0  0
   54.2638   14.7804   82.3980 N   0  0  0  0  0  0  0  0  0  0  0  0
   52.9128   16.7851   81.7037 C   0  0  0  0  0  0  0  0  0  0  0  0
   51.7869   16.3323   81.3655 O   0  0  0  0  0  0  0  0  0  0  0  0
   53.0598   17.9040   82.2272 O   0  0  0  0  0  0  0  0  0  0  0  0
   53.9162   18.2018   82.4634 H   0  0  0  0  0  0  0  0  0  0  0  0
 24 23  2  0  0  0
 20 19  2  0  0  0
 20 21  1  0  0  0
 19 18  1  0  0  0
 23 25  1  0  0  0
 23 21  1  0  0  0
 21 22  1  0  0  0
 18 17  2  0  0  0
 18 22  1  0  0  0
 22 16  1  0  0  0
 16  1  1  0  0  0
  1  2  1  0  0  0
  1  4  1  0  0  0
  5  4  1  0  0  0
  4  7  1  0  0  0
  7 10  1  0  0  0
  7  8  1  0  0  0
 10 13  1  0  0  0
 10 11  1  0  0  0
 13 14  1  0  0  0
  2  3  1  0  0  0
  5  6  1  0  0  0
  8  9  1  0  0  0
 11 12  1  0  0  0
 14 15  1  0  0  0
 25 26  1  0  0  0
M  END
> <minimizedAffinity>
-7.20069

$$$$
6HLY_G9Z_A_410


 26 26  0  0  0  0  0  0  0  0999 V2000
   55.6495   15.6081   83.6289 C   0  0  0  0  0  0  0  0  0  0  0  0
   55.9121   16.3077   84.8652 O   0  0  0  0  0  0  0  0  0  0  0  0
   56.1407   15.6672   85.5569 H   0  0  0  0  0  0  0  0  0  0  0  0
   56.9193   14.8357   83.2431 C   0  0  0  0  0  0  0  0  0  0  0  0
   56.8753   14.4289   81.8499 O   0  0  0  0  0  0  0  0  0  0  0  0
   56.8620   15.2163   81.2834 H   0  0  0  0  0  0  0  0  0  0  0  0
   58.2273   15.5816   83.5931 C   0  0  0  0  0  0  0  0  0  0  0  0
   58.5529   16.5184   82.5538 O   0  0  0  0  0  0  0  0  0  0  0  0
   58.6715   16.0438   81.7162 H   0  0  0  0  0  0  0  0  0  0  0  0
   59.3746   14.5692   83.6723 C   0  0  0  0  0  0  0  0  0  0  0  0
   59.9684   14.4228   82.3571 O   0  0  0  0  0  0  0  0  0  0  0  0
   59.3007   14.0927   81.7357 H   0  0  0  0  0  0  0  0  0  0  0  0
   58.8842   13.2009   84.1730 C   0  0  0  0  0  0  0  0  0  0  0  0
   59.5504   12.1144   83.5025 O   0  0  0  0  0  0  0  0  0  0  0  0
   59.3640   12.1583   82.5516 H   0  0  0  0  0  0  0  0  0  0  0  0
   54.4705   14.6483   83.8263 C   0  0  0  0  0  0  0  0  0  0  0  0
   53.7209   12.2382   82.4263 O   0  0  0  0  0  0  0  0  0  0  0  0
   53.3344   13.3609   82.0036 C   0  0  0  0  0  0  0  0  0  0  0  0
   52.5209   13.5471   80.8422 C   0  0  0  0  0  0  0  0  0  0  0  0
   52.4927   15.0876   80.6166 C   0  0  0  0  0  0  0  0  0  0  0  0
   53.1946   15.7174   81.8413 C   0  0  0  0  0  0  0  0  0  0  0  0
   53.6712   14.5288   82.5844 N   0  0  0  0  0  0  0  0  0  0  0  0
   52.2702   16.6171   82.5360 C   0  0  0  0  0  0  0  0  0  0  0  0
   51.1701   16.1566   82.9421 O   0  0  0  0  0  0  0  0  0  0  0  0
   52.6171   17.7970   82.7227 O   0  0  0  0  0  0  0  0  0  0  0  0
   53.4450   18.0981   82.4033 H   0  0  0  0  0  0  0  0  0  0  0  0
 24 23  2  0  0  0
 20 19  2  0  0  0
 20 21  1  0  0  0
 19 18  1  0  0  0
 23 25  1  0  0  0
 23 21  1  0  0  0
 21 22  1  0  0  0
 18 17  2  0  0  0
 18 22  1  0  0  0
 22 16  1  0  0  0
 16  1  1  0  0  0
  1  2  1  0  0  0
  1  4  1  0  0  0
  5  4  1  0  0  0
  4  7  1  0  0  0
  7 10  1  0  0  0
  7  8  1  0  0  0
 10 13  1  0  0  0
 10 11  1  0  0  0
 13 14  1  0  0  0
  2  3  1  0  0  0
  5  6  1  0  0  0
  8  9  1  0  0  0
 11 12  1  0  0  0
 14 15  1  0  0  0
 25 26  1  0  0  0
M  END
> <minimizedAffinity>
-7.17346

$$$$
6HLY_G9Z_A_410


 26 26  0  0  0  0  0  0  0  0999 V2000
   55.2865   12.8649   84.8851 C   0  0  0  0  0  0  0  0  0  0  0  0
   54.0509   12.1167   84.9022 O   0  0  0  0  0  0  0  0  0  0  0  0
   54.2048   11.2300   84.5403 H   0  0  0  0  0  0  0  0  0  0  0  0
   56.3102   12.1080   85.7436 C   0  0  0  0  0  0  0  0  0  0  0  0
   57.1378   13.0320   86.4983 O   0  0  0  0  0  0  0  0  0  0  0  0
   56.5838   13.5269   87.1220 H   0  0  0  0  0  0  0  0  0  0  0  0
   55.6796   11.0200   86.6426 C   0  0  0  0  0  0  0  0  0  0  0  0
   55.0891   11.6234   87.8049 O   0  0  0  0  0  0  0  0  0  0  0  0
   55.7723   12.0945   88.3071 H   0  0  0  0  0  0  0  0  0  0  0  0
   56.7811   10.0724   87.1287 C   0  0  0  0  0  0  0  0  0  0  0  0
   57.7819    9.9363   86.0877 O   0  0  0  0  0  0  0  0  0  0  0  0
   57.3724    9.5604   85.2927 H   0  0  0  0  0  0  0  0  0  0  0  0
   56.2154    8.6882   87.4858 C   0  0  0  0  0  0  0  0  0  0  0  0
   56.5778    7.6930   86.5100 O   0  0  0  0  0  0  0  0  0  0  0  0
   56.2137    7.9401   85.6456 H   0  0  0  0  0  0  0  0  0  0  0  0
   55.7829   12.9971   83.4407 C   0  0  0  0  0  0  0  0  0  0  0  0
   53.1746   13.5161   82.3191 O   0  0  0  0  0  0  0  0  0  0  0  0
   54.0435   14.4287   82.3475 C   0  0  0  0  0  0  0  0  0  0  0  0
   53.8352   15.7540   81.8518 C   0  0  0  0  0  0  0  0  0  0  0  0
   55.2371   16.4289   81.9138 C   0  0  0  0  0  0  0  0  0  0  0  0
   56.1651   15.4329   82.6458 C   0  0  0  0  0  0  0  0  0  0  0  0
   55.2909   14.2515   82.8243 N   0  0  0  0  0  0  0  0  0  0  0  0
   56.7072   16.0558   83.8561 C   0  0  0  0  0  0  0  0  0  0  0  0
   57.9200   16.3965   83.8686 O   0  0  0  0  0  0  0  0  0  0  0  0
   55.9427   16.2494   84.8182 O   0  0  0  0  0  0  0  0  0  0  0  0
   55.0468   15.9798   84.7664 H   0  0  0  0  0  0  0  0  0  0  0  0
 24 23  2  0  0  0
 20 19  2  0  0  0
 20 21  1  0  0  0
 19 18  1  0  0  0
 23 25  1  0  0  0
 23 21  1  0  0  0
 21 22  1  0  0  0
 18 17  2  0  0  0
 18 22  1  0  0  0
 22 16  1  0  0  0
 16  1  1  0  0  0
  1  2  1  0  0  0
  1  4  1  0  0  0
  5  4  1  0  0  0
  4  7  1  0  0  0
  7 10  1  0  0  0
  7  8  1  0  0  0
 10 13  1  0  0  0
 10 11  1  0  0  0
 13 14  1  0  0  0
  2  3  1  0  0  0
  5  6  1  0  0  0
  8  9  1  0  0  0
 11 12  1  0  0  0
 14 15  1  0  0  0
 25 26  1  0  0  0
M  END
> <minimizedAffinity>
-7.11378

$$$$
