4B32_03V_A_1351


 12 13  0  0  0  0  0  0  0  0999 V2000
   22.4422    6.0326   -3.1510 C   0  0  0  0  0  0  0  0  0  0  0  0
   23.4600    8.1646   -3.4317 O   0  0  0  0  0  0  0  0  0  0  0  0
   22.3857    7.4173   -3.0528 C   0  0  0  0  0  0  0  0  0  0  0  0
   21.2361    8.0390   -2.5711 C   0  0  0  0  0  0  0  0  0  0  0  0
   20.1472    7.2572   -2.1874 C   0  0  0  0  0  0  0  0  0  0  0  0
   20.2079    5.8717   -2.2901 C   0  0  0  0  0  0  0  0  0  0  0  0
   21.3562    5.2556   -2.7689 C   0  0  0  0  0  0  0  0  0  0  0  0
   19.1243    5.0874   -1.9119 C   0  0  0  0  0  0  0  0  0  0  0  0
   17.9740    5.6889   -1.4321 C   0  0  0  0  0  0  0  0  0  0  0  0
   17.9096    7.0679   -1.3385 C   0  0  0  0  0  0  0  0  0  0  0  0
   18.9813    7.8568   -1.7112 C   0  0  0  0  0  0  0  0  0  0  0  0
   24.2323    7.7443   -3.7554 H   0  0  0  0  0  0  0  0  0  0  0  0
  3  1  2  0  0  0
  1  7  1  0  0  0
  2  3  1  0  0  0
  4  3  1  0  0  0
  4  5  2  0  0  0
 11  5  1  0  0  0
  5  6  1  0  0  0
  6  8  1  0  0  0
  6  7  2  0  0  0
  9  8  2  0  0  0
 10  9  1  0  0  0
 11 10  2  0  0  0
  2 12  1  0  0  0
M  END
> <minimizedAffinity>
-5.75516

$$$$
4B32_03V_A_1351


 12 13  0  0  0  0  0  0  0  0999 V2000
   18.1797    7.2398   -1.3830 C   0  0  0  0  0  0  0  0  0  0  0  0
   17.0668    5.1613   -1.0649 O   0  0  0  0  0  0  0  0  0  0  0  0
   18.1675    5.8534   -1.4716 C   0  0  0  0  0  0  0  0  0  0  0  0
   19.2743    5.1741   -1.9753 C   0  0  0  0  0  0  0  0  0  0  0  0
   20.3920    5.8997   -2.3855 C   0  0  0  0  0  0  0  0  0  0  0  0
   20.3980    7.2875   -2.2972 C   0  0  0  0  0  0  0  0  0  0  0  0
   19.2938    7.9610   -1.7929 C   0  0  0  0  0  0  0  0  0  0  0  0
   21.5083    8.0164   -2.7077 C   0  0  0  0  0  0  0  0  0  0  0  0
   22.6160    7.3574   -3.2113 C   0  0  0  0  0  0  0  0  0  0  0  0
   22.6069    5.9771   -3.3082 C   0  0  0  0  0  0  0  0  0  0  0  0
   21.5087    5.2429   -2.9024 C   0  0  0  0  0  0  0  0  0  0  0  0
   16.3234    5.6203   -0.7264 H   0  0  0  0  0  0  0  0  0  0  0  0
  3  1  2  0  0  0
  1  7  1  0  0  0
  2  3  1  0  0  0
  4  3  1  0  0  0
  4  5  2  0  0  0
 11  5  1  0  0  0
  5  6  1  0  0  0
  6  8  1  0  0  0
  6  7  2  0  0  0
  9  8  2  0  0  0
 10  9  1  0  0  0
 11 10  2  0  0  0
  2 12  1  0  0  0
M  END
> <minimizedAffinity>
-5.70576

$$$$
4B32_03V_A_1351


 12 13  0  0  0  0  0  0  0  0999 V2000
   18.3728    5.8774   -1.4900 C   0  0  0  0  0  0  0  0  0  0  0  0
   17.4032    7.9991   -1.0229 O   0  0  0  0  0  0  0  0  0  0  0  0
   18.4377    7.2649   -1.5197 C   0  0  0  0  0  0  0  0  0  0  0  0
   19.5553    7.9025   -2.0530 C   0  0  0  0  0  0  0  0  0  0  0  0
   20.6036    7.1340   -2.5576 C   0  0  0  0  0  0  0  0  0  0  0  0
   20.5349    5.7456   -2.5230 C   0  0  0  0  0  0  0  0  0  0  0  0
   19.4185    5.1136   -1.9924 C   0  0  0  0  0  0  0  0  0  0  0  0
   21.5784    4.9742   -3.0217 C   0  0  0  0  0  0  0  0  0  0  0  0
   22.6965    5.5916   -3.5544 C   0  0  0  0  0  0  0  0  0  0  0  0
   22.7695    6.9731   -3.5804 C   0  0  0  0  0  0  0  0  0  0  0  0
   21.7376    7.7492   -3.0879 C   0  0  0  0  0  0  0  0  0  0  0  0
   16.6524    7.5682   -0.6646 H   0  0  0  0  0  0  0  0  0  0  0  0
  3  1  2  0  0  0
  1  7  1  0  0  0
  2  3  1  0  0  0
  4  3  1  0  0  0
  4  5  2  0  0  0
 11  5  1  0  0  0
  5  6  1  0  0  0
  6  8  1  0  0  0
  6  7  2  0  0  0
  9  8  2  0  0  0
 10  9  1  0  0  0
 11 10  2  0  0  0
  2 12  1  0  0  0
M  END
> <minimizedAffinity>
-5.27025

$$$$
4B32_03V_A_1351


 12 13  0  0  0  0  0  0  0  0999 V2000
   19.6873    8.7850   -2.5265 C   0  0  0  0  0  0  0  0  0  0  0  0
   17.9998    7.9773   -1.0569 O   0  0  0  0  0  0  0  0  0  0  0  0
   19.0921    7.7374   -1.8350 C   0  0  0  0  0  0  0  0  0  0  0  0
   19.6082    6.4477   -1.9376 C   0  0  0  0  0  0  0  0  0  0  0  0
   20.7273    6.2220   -2.7380 C   0  0  0  0  0  0  0  0  0  0  0  0
   21.3177    7.2737   -3.4302 C   0  0  0  0  0  0  0  0  0  0  0  0
   20.8017    8.5581   -3.3240 C   0  0  0  0  0  0  0  0  0  0  0  0
   22.4318    7.0541   -4.2322 C   0  0  0  0  0  0  0  0  0  0  0  0
   22.9568    5.7787   -4.3461 C   0  0  0  0  0  0  0  0  0  0  0  0
   22.3640    4.7303   -3.6649 C   0  0  0  0  0  0  0  0  0  0  0  0
   21.2566    4.9377   -2.8645 C   0  0  0  0  0  0  0  0  0  0  0  0
   17.6543    8.8456   -0.9893 H   0  0  0  0  0  0  0  0  0  0  0  0
  3  1  2  0  0  0
  1  7  1  0  0  0
  2  3  1  0  0  0
  4  3  1  0  0  0
  4  5  2  0  0  0
 11  5  1  0  0  0
  5  6  1  0  0  0
  6  8  1  0  0  0
  6  7  2  0  0  0
  9  8  2  0  0  0
 10  9  1  0  0  0
 11 10  2  0  0  0
  2 12  1  0  0  0
M  END
> <minimizedAffinity>
-4.88959

$$$$
4B32_03V_A_1351


 12 13  0  0  0  0  0  0  0  0999 V2000
   18.7681    4.5692   -1.6505 C   0  0  0  0  0  0  0  0  0  0  0  0
   16.6625    5.1648   -0.7170 O   0  0  0  0  0  0  0  0  0  0  0  0
   17.8472    5.5395   -1.2756 C   0  0  0  0  0  0  0  0  0  0  0  0
   18.1339    6.8889   -1.4681 C   0  0  0  0  0  0  0  0  0  0  0  0
   19.3513    7.2529   -2.0423 C   0  0  0  0  0  0  0  0  0  0  0  0
   20.2707    6.2779   -2.4133 C   0  0  0  0  0  0  0  0  0  0  0  0
   19.9807    4.9338   -2.2216 C   0  0  0  0  0  0  0  0  0  0  0  0
   21.4874    6.6350   -2.9833 C   0  0  0  0  0  0  0  0  0  0  0  0
   21.7886    7.9711   -3.1808 C   0  0  0  0  0  0  0  0  0  0  0  0
   20.8780    8.9420   -2.8031 C   0  0  0  0  0  0  0  0  0  0  0  0
   19.6655    8.5979   -2.2363 C   0  0  0  0  0  0  0  0  0  0  0  0
   16.4716    4.2565   -0.5884 H   0  0  0  0  0  0  0  0  0  0  0  0
  3  1  2  0  0  0
  1  7  1  0  0  0
  2  3  1  0  0  0
  4  3  1  0  0  0
  4  5  2  0  0  0
 11  5  1  0  0  0
  5  6  1  0  0  0
  6  8  1  0  0  0
  6  7  2  0  0  0
  9  8  2  0  0  0
 10  9  1  0  0  0
 11 10  2  0  0  0
  2 12  1  0  0  0
M  END
> <minimizedAffinity>
-4.85406

$$$$
4B32_03V_A_1351


 12 13  0  0  0  0  0  0  0  0999 V2000
   22.8366    6.9715   -2.7888 C   0  0  0  0  0  0  0  0  0  0  0  0
   23.7503    4.8016   -3.1302 O   0  0  0  0  0  0  0  0  0  0  0  0
   22.6924    5.5898   -2.7902 C   0  0  0  0  0  0  0  0  0  0  0  0
   21.4728    5.0125   -2.4441 C   0  0  0  0  0  0  0  0  0  0  0  0
   20.4013    5.8357   -2.0999 C   0  0  0  0  0  0  0  0  0  0  0  0
   20.5518    7.2181   -2.0975 C   0  0  0  0  0  0  0  0  0  0  0  0
   21.7682    7.7898   -2.4449 C   0  0  0  0  0  0  0  0  0  0  0  0
   19.4879    8.0436   -1.7522 C   0  0  0  0  0  0  0  0  0  0  0  0
   18.2696    7.4866   -1.4049 C   0  0  0  0  0  0  0  0  0  0  0  0
   18.1221    6.1108   -1.3980 C   0  0  0  0  0  0  0  0  0  0  0  0
   19.1731    5.2811   -1.7402 C   0  0  0  0  0  0  0  0  0  0  0  0
   24.5697    5.1920   -3.3627 H   0  0  0  0  0  0  0  0  0  0  0  0
  3  1  2  0  0  0
  1  7  1  0  0  0
  2  3  1  0  0  0
  4  3  1  0  0  0
  4  5  2  0  0  0
 11  5  1  0  0  0
  5  6  1  0  0  0
  6  8  1  0  0  0
  6  7  2  0  0  0
  9  8  2  0  0  0
 10  9  1  0  0  0
 11 10  2  0  0  0
  2 12  1  0  0  0
M  END
> <minimizedAffinity>
-4.81867

$$$$
4B32_03V_A_1351


 12 13  0  0  0  0  0  0  0  0999 V2000
   20.3777    7.1791   -2.3744 C   0  0  0  0  0  0  0  0  0  0  0  0
   19.5064    9.3906   -2.2749 O   0  0  0  0  0  0  0  0  0  0  0  0
   20.1450    8.4107   -2.9736 C   0  0  0  0  0  0  0  0  0  0  0  0
   20.5638    8.6437   -4.2814 C   0  0  0  0  0  0  0  0  0  0  0  0
   21.2149    7.6282   -4.9807 C   0  0  0  0  0  0  0  0  0  0  0  0
   21.4477    6.3981   -4.3755 C   0  0  0  0  0  0  0  0  0  0  0  0
   21.0272    6.1690   -3.0725 C   0  0  0  0  0  0  0  0  0  0  0  0
   22.0992    5.3831   -5.0668 C   0  0  0  0  0  0  0  0  0  0  0  0
   22.5227    5.5980   -6.3666 C   0  0  0  0  0  0  0  0  0  0  0  0
   22.2996    6.8250   -6.9660 C   0  0  0  0  0  0  0  0  0  0  0  0
   21.6524    7.8406   -6.2880 C   0  0  0  0  0  0  0  0  0  0  0  0
   19.2255    9.2317   -1.3953 H   0  0  0  0  0  0  0  0  0  0  0  0
  3  1  2  0  0  0
  1  7  1  0  0  0
  2  3  1  0  0  0
  4  3  1  0  0  0
  4  5  2  0  0  0
 11  5  1  0  0  0
  5  6  1  0  0  0
  6  8  1  0  0  0
  6  7  2  0  0  0
  9  8  2  0  0  0
 10  9  1  0  0  0
 11 10  2  0  0  0
  2 12  1  0  0  0
M  END
> <minimizedAffinity>
-4.78144

$$$$
4B32_03V_A_1351


 12 13  0  0  0  0  0  0  0  0999 V2000
   22.8256    4.7305   -5.2183 C   0  0  0  0  0  0  0  0  0  0  0  0
   23.1607    3.2719   -3.3689 O   0  0  0  0  0  0  0  0  0  0  0  0
   22.6408    4.4247   -3.8758 C   0  0  0  0  0  0  0  0  0  0  0  0
   21.9290    5.2928   -3.0512 C   0  0  0  0  0  0  0  0  0  0  0  0
   21.4036    6.4673   -3.5884 C   0  0  0  0  0  0  0  0  0  0  0  0
   21.5937    6.7700   -4.9322 C   0  0  0  0  0  0  0  0  0  0  0  0
   22.3021    5.9014   -5.7514 C   0  0  0  0  0  0  0  0  0  0  0  0
   21.0749    7.9411   -5.4726 C   0  0  0  0  0  0  0  0  0  0  0  0
   20.3660    8.8151   -4.6673 C   0  0  0  0  0  0  0  0  0  0  0  0
   20.1846    8.5190   -3.3278 C   0  0  0  0  0  0  0  0  0  0  0  0
   20.6956    7.3573   -2.7808 C   0  0  0  0  0  0  0  0  0  0  0  0
   23.6392    2.6894   -3.9254 H   0  0  0  0  0  0  0  0  0  0  0  0
  3  1  2  0  0  0
  1  7  1  0  0  0
  2  3  1  0  0  0
  4  3  1  0  0  0
  4  5  2  0  0  0
 11  5  1  0  0  0
  5  6  1  0  0  0
  6  8  1  0  0  0
  6  7  2  0  0  0
  9  8  2  0  0  0
 10  9  1  0  0  0
 11 10  2  0  0  0
  2 12  1  0  0  0
M  END
> <minimizedAffinity>
-4.62576

$$$$
4B32_03V_A_1351


 12 13  0  0  0  0  0  0  0  0999 V2000
   22.1989    7.4775   -7.0216 C   0  0  0  0  0  0  0  0  0  0  0  0
   21.5998    9.5110   -8.1014 O   0  0  0  0  0  0  0  0  0  0  0  0
   21.5589    8.7104   -6.9999 C   0  0  0  0  0  0  0  0  0  0  0  0
   20.8773    9.1257   -5.8583 C   0  0  0  0  0  0  0  0  0  0  0  0
   20.8475    8.2929   -4.7404 C   0  0  0  0  0  0  0  0  0  0  0  0
   21.4874    7.0586   -4.7683 C   0  0  0  0  0  0  0  0  0  0  0  0
   22.1673    6.6489   -5.9072 C   0  0  0  0  0  0  0  0  0  0  0  0
   21.4583    6.2229   -3.6578 C   0  0  0  0  0  0  0  0  0  0  0  0
   20.7850    6.6196   -2.5158 C   0  0  0  0  0  0  0  0  0  0  0  0
   20.1401    7.8435   -2.4907 C   0  0  0  0  0  0  0  0  0  0  0  0
   20.1633    8.6823   -3.5889 C   0  0  0  0  0  0  0  0  0  0  0  0
   22.0589    9.2296   -8.8683 H   0  0  0  0  0  0  0  0  0  0  0  0
  3  1  2  0  0  0
  1  7  1  0  0  0
  2  3  1  0  0  0
  4  3  1  0  0  0
  4  5  2  0  0  0
 11  5  1  0  0  0
  5  6  1  0  0  0
  6  8  1  0  0  0
  6  7  2  0  0  0
  9  8  2  0  0  0
 10  9  1  0  0  0
 11 10  2  0  0  0
  2 12  1  0  0  0
M  END
> <minimizedAffinity>
-4.32169

$$$$
4B32_03V_A_1351


 12 13  0  0  0  0  0  0  0  0999 V2000
   20.3661    8.7579   -4.3143 C   0  0  0  0  0  0  0  0  0  0  0  0
   20.2240    9.7005   -6.4940 O   0  0  0  0  0  0  0  0  0  0  0  0
   20.6500    8.7002   -5.6730 C   0  0  0  0  0  0  0  0  0  0  0  0
   21.3680    7.6261   -6.1935 C   0  0  0  0  0  0  0  0  0  0  0  0
   21.7946    6.6114   -5.3377 C   0  0  0  0  0  0  0  0  0  0  0  0
   21.5101    6.6753   -3.9780 C   0  0  0  0  0  0  0  0  0  0  0  0
   20.7926    7.7464   -3.4631 C   0  0  0  0  0  0  0  0  0  0  0  0
   21.9356    5.6681   -3.1195 C   0  0  0  0  0  0  0  0  0  0  0  0
   22.6508    4.5942   -3.6199 C   0  0  0  0  0  0  0  0  0  0  0  0
   22.9422    4.5349   -4.9713 C   0  0  0  0  0  0  0  0  0  0  0  0
   22.5235    5.5305   -5.8335 C   0  0  0  0  0  0  0  0  0  0  0  0
   19.7412   10.4221   -6.1417 H   0  0  0  0  0  0  0  0  0  0  0  0
  3  1  2  0  0  0
  1  7  1  0  0  0
  2  3  1  0  0  0
  4  3  1  0  0  0
  4  5  2  0  0  0
 11  5  1  0  0  0
  5  6  1  0  0  0
  6  8  1  0  0  0
  6  7  2  0  0  0
  9  8  2  0  0  0
 10  9  1  0  0  0
 11 10  2  0  0  0
  2 12  1  0  0  0
M  END
> <minimizedAffinity>
-4.30885

$$$$
