3COW_52H_A_401


 37 39  0  0  0  0  0  0  0  0999 V2000
   12.9246   10.3001    2.0678 C   0  0  0  0  0  0  0  0  0  0  0  0
   13.1459   10.7485    0.7058 O   0  0  0  0  0  0  0  0  0  0  0  0
   13.3400    8.8319    2.1168 C   0  0  0  0  0  0  0  0  0  0  0  0
   12.1709    8.0314    2.1048 O   0  0  0  0  0  0  0  0  0  0  0  0
   14.1458    8.6562    0.8207 C   0  0  0  0  0  0  0  0  0  0  0  0
   14.1287    7.3147    0.2643 O   0  0  0  0  0  0  0  0  0  0  0  0
   13.4113    9.6022   -0.1266 C   0  0  0  0  0  0  0  0  0  0  0  0
   11.6337    8.2553    1.3289 H   0  0  0  0  0  0  0  0  0  0  0  0
   13.2130    7.0517    0.0824 H   0  0  0  0  0  0  0  0  0  0  0  0
   13.9236    9.7525   -2.5649 C   0  0  0  0  0  0  0  0  0  0  0  0
   15.0063   10.1636   -3.3588 C   0  0  0  0  0  0  0  0  0  0  0  0
   14.8623   10.0656   -4.7440 C   0  0  0  0  0  0  0  0  0  0  0  0
   15.5471   10.4116   -1.2844 C   0  0  0  0  0  0  0  0  0  0  0  0
   13.6772    9.6383   -5.2285 N   0  0  0  0  0  0  0  0  0  0  0  0
   12.7699    9.3059   -3.1219 N   0  0  0  0  0  0  0  0  0  0  0  0
   14.2779    9.9253   -1.2947 N   0  0  0  0  0  0  0  0  0  0  0  0
   16.0001   10.5706   -2.5478 N   0  0  0  0  0  0  0  0  0  0  0  0
   12.6750    9.2405   -4.4511 C   0  0  0  0  0  0  0  0  0  0  0  0
   15.8655   10.4388   -5.5647 N   0  0  0  0  0  0  0  0  0  0  0  0
   16.7211   10.7470   -5.1877 H   0  0  0  0  0  0  0  0  0  0  0  0
   15.7421   10.4030   -6.5408 H   0  0  0  0  0  0  0  0  0  0  0  0
   13.8369   11.1646    2.9781 C   0  0  0  0  0  0  0  0  0  0  0  0
   15.2229   11.1673    2.4927 O   0  0  0  0  0  0  0  0  0  0  0  0
   16.2284   11.5816    3.4603 S   0  0  0  0  0  0  0  0  0  0  0  0
   17.4978   11.1403    2.8464 O   0  0  0  0  0  0  0  0  0  0  0  0
   16.1009   13.0364    3.6151 O   0  0  0  0  0  0  0  0  0  0  0  0
   16.0737    9.5932    5.1331 C   0  0  0  0  0  0  0  0  0  0  0  0
   16.2420    8.7389    4.2559 O   0  0  0  0  0  0  0  0  0  0  0  0
   16.0317   10.8928    4.9244 N   0  0  0  0  0  0  0  0  0  0  0  0
   15.8723   11.4820    5.6969 H   0  0  0  0  0  0  0  0  0  0  0  0
   16.0080    9.2052    6.6361 C   0  0  0  0  0  0  0  0  0  0  0  0
   16.8513    8.0159    6.7929 O   0  0  0  0  0  0  0  0  0  0  0  0
   16.4855    7.2884    6.2658 H   0  0  0  0  0  0  0  0  0  0  0  0
   14.0723   10.3132    7.8591 C   0  0  0  0  0  0  0  0  0  0  0  0
   14.5959    9.0012    7.2597 C   0  0  0  0  0  0  0  0  0  0  0  0
   13.5717    8.5399    6.2274 C   0  0  0  0  0  0  0  0  0  0  0  0
   14.7407    8.0294    8.3932 C   0  0  0  0  0  0  0  0  0  0  0  0
 10 11  2  0  0  0
 10 15  1  0  0  0
 10 16  1  0  0  0
 11 12  1  0  0  0
 11 17  1  0  0  0
 12 14  2  0  0  0
 12 19  1  0  0  0
 13 16  1  0  0  0
 13 17  2  0  0  0
 14 18  1  0  0  0
 15 18  2  0  0  0
 34 35  1  0  0  0
 35 36  1  0  0  0
 35 37  1  0  0  0
 35 31  1  0  0  0
 31 32  1  0  0  0
 31 27  1  0  0  0
 27 28  2  0  0  0
 27 29  1  0  0  0
 29 24  1  0  0  0
 24 25  2  0  0  0
 24 26  2  0  0  0
 24 23  1  0  0  0
 23 22  1  0  0  0
 22  1  1  0  0  0
  1  2  1  0  0  0
  1  3  1  0  0  0
  2  7  1  0  0  0
  3  4  1  0  0  0
  3  5  1  0  0  0
  5  6  1  0  0  0
  5  7  1  0  0  0
  7 16  1  0  0  0
 32 33  1  0  0  0
 29 30  1  0  0  0
  4  8  1  0  0  0
  6  9  1  0  0  0
 19 20  1  0  0  0
 19 21  1  0  0  0
M  END
> <minimizedAffinity>
-11.68809

$$$$
3COW_52H_A_401


 37 39  0  0  0  0  0  0  0  0999 V2000
   12.9300   10.2995    2.0621 C   0  0  0  0  0  0  0  0  0  0  0  0
   13.1468   10.7423    0.6976 O   0  0  0  0  0  0  0  0  0  0  0  0
   13.3478    8.8321    2.1164 C   0  0  0  0  0  0  0  0  0  0  0  0
   12.1799    8.0298    2.1112 O   0  0  0  0  0  0  0  0  0  0  0  0
   14.1502    8.6521    0.8188 C   0  0  0  0  0  0  0  0  0  0  0  0
   14.1336    7.3081    0.2683 O   0  0  0  0  0  0  0  0  0  0  0  0
   13.4116    9.5928   -0.1306 C   0  0  0  0  0  0  0  0  0  0  0  0
   11.6402    8.2496    1.3358 H   0  0  0  0  0  0  0  0  0  0  0  0
   13.2178    7.0429    0.0901 H   0  0  0  0  0  0  0  0  0  0  0  0
   13.9122    9.7446   -2.5712 C   0  0  0  0  0  0  0  0  0  0  0  0
   14.9937   10.1496   -3.3699 C   0  0  0  0  0  0  0  0  0  0  0  0
   14.8417   10.0556   -4.7545 C   0  0  0  0  0  0  0  0  0  0  0  0
   15.5471   10.3893   -1.2978 C   0  0  0  0  0  0  0  0  0  0  0  0
   13.6510    9.6380   -5.2337 N   0  0  0  0  0  0  0  0  0  0  0  0
   12.7524    9.3077   -3.1231 N   0  0  0  0  0  0  0  0  0  0  0  0
   14.2744    9.9122   -1.3025 N   0  0  0  0  0  0  0  0  0  0  0  0
   15.9947   10.5477   -2.5632 N   0  0  0  0  0  0  0  0  0  0  0  0
   12.6501    9.2457   -4.4519 C   0  0  0  0  0  0  0  0  0  0  0  0
   15.8433   10.4233   -5.5797 N   0  0  0  0  0  0  0  0  0  0  0  0
   16.7031   10.7245   -5.2065 H   0  0  0  0  0  0  0  0  0  0  0  0
   15.7146   10.3906   -6.5552 H   0  0  0  0  0  0  0  0  0  0  0  0
   13.8435   11.1693    2.9661 C   0  0  0  0  0  0  0  0  0  0  0  0
   14.4840   10.3595    4.0106 O   0  0  0  0  0  0  0  0  0  0  0  0
   15.9061   10.5982    4.2094 S   0  0  0  0  0  0  0  0  0  0  0  0
   15.9777   12.0517    4.4649 O   0  0  0  0  0  0  0  0  0  0  0  0
   16.3277    9.7603    5.3394 O   0  0  0  0  0  0  0  0  0  0  0  0
   18.1072   10.4153    2.8320 C   0  0  0  0  0  0  0  0  0  0  0  0
   18.7922   10.9591    3.7054 O   0  0  0  0  0  0  0  0  0  0  0  0
   16.8105   10.2004    2.9130 N   0  0  0  0  0  0  0  0  0  0  0  0
   16.3617    9.7752    2.1468 H   0  0  0  0  0  0  0  0  0  0  0  0
   18.7568    9.8085    1.5577 C   0  0  0  0  0  0  0  0  0  0  0  0
   19.7263    8.8117    2.0230 O   0  0  0  0  0  0  0  0  0  0  0  0
   20.4151    9.2503    2.5465 H   0  0  0  0  0  0  0  0  0  0  0  0
   18.5513   12.0819    0.4354 C   0  0  0  0  0  0  0  0  0  0  0  0
   19.3890   10.8002    0.5373 C   0  0  0  0  0  0  0  0  0  0  0  0
   20.8002   11.2179    0.9388 C   0  0  0  0  0  0  0  0  0  0  0  0
   19.3503   10.1440   -0.8110 C   0  0  0  0  0  0  0  0  0  0  0  0
 10 11  2  0  0  0
 10 15  1  0  0  0
 10 16  1  0  0  0
 11 12  1  0  0  0
 11 17  1  0  0  0
 12 14  2  0  0  0
 12 19  1  0  0  0
 13 16  1  0  0  0
 13 17  2  0  0  0
 14 18  1  0  0  0
 15 18  2  0  0  0
 34 35  1  0  0  0
 35 36  1  0  0  0
 35 37  1  0  0  0
 35 31  1  0  0  0
 31 32  1  0  0  0
 31 27  1  0  0  0
 27 28  2  0  0  0
 27 29  1  0  0  0
 29 24  1  0  0  0
 24 25  2  0  0  0
 24 26  2  0  0  0
 24 23  1  0  0  0
 23 22  1  0  0  0
 22  1  1  0  0  0
  1  2  1  0  0  0
  1  3  1  0  0  0
  2  7  1  0  0  0
  3  4  1  0  0  0
  3  5  1  0  0  0
  5  6  1  0  0  0
  5  7  1  0  0  0
  7 16  1  0  0  0
 32 33  1  0  0  0
 29 30  1  0  0  0
  4  8  1  0  0  0
  6  9  1  0  0  0
 19 20  1  0  0  0
 19 21  1  0  0  0
M  END
> <minimizedAffinity>
-10.96730

$$$$
3COW_52H_A_401


 37 39  0  0  0  0  0  0  0  0999 V2000
   13.3422   10.2364    2.2683 C   0  0  0  0  0  0  0  0  0  0  0  0
   13.5410   10.7731    0.9351 O   0  0  0  0  0  0  0  0  0  0  0  0
   13.5566    8.7282    2.1681 C   0  0  0  0  0  0  0  0  0  0  0  0
   12.2910    8.0911    2.1740 O   0  0  0  0  0  0  0  0  0  0  0  0
   14.2526    8.5667    0.8081 C   0  0  0  0  0  0  0  0  0  0  0  0
   14.0204    7.2945    0.1470 O   0  0  0  0  0  0  0  0  0  0  0  0
   13.5983    9.6817   -0.0045 C   0  0  0  0  0  0  0  0  0  0  0  0
   11.7440    8.4521    1.4589 H   0  0  0  0  0  0  0  0  0  0  0  0
   13.0683    7.1704    0.0097 H   0  0  0  0  0  0  0  0  0  0  0  0
   14.0413    9.7999   -2.4581 C   0  0  0  0  0  0  0  0  0  0  0  0
   15.0986   10.2061   -3.2880 C   0  0  0  0  0  0  0  0  0  0  0  0
   14.9166   10.0872   -4.6670 C   0  0  0  0  0  0  0  0  0  0  0  0
   15.6955   10.4876   -1.2332 C   0  0  0  0  0  0  0  0  0  0  0  0
   13.7212    9.6457   -5.1118 N   0  0  0  0  0  0  0  0  0  0  0  0
   12.8754    9.3382   -2.9761 N   0  0  0  0  0  0  0  0  0  0  0  0
   14.4298    9.9933   -1.2010 N   0  0  0  0  0  0  0  0  0  0  0  0
   16.1120   10.6310   -2.5110 N   0  0  0  0  0  0  0  0  0  0  0  0
   12.7438    9.2529   -4.3011 C   0  0  0  0  0  0  0  0  0  0  0  0
   15.8940   10.4547   -5.5208 N   0  0  0  0  0  0  0  0  0  0  0  0
   16.7577   10.7736   -5.1723 H   0  0  0  0  0  0  0  0  0  0  0  0
   15.7436   10.4040   -6.4924 H   0  0  0  0  0  0  0  0  0  0  0  0
   14.4160   10.8892    3.1790 C   0  0  0  0  0  0  0  0  0  0  0  0
   15.5355   11.4155    2.3875 O   0  0  0  0  0  0  0  0  0  0  0  0
   16.7922   11.5776    3.1041 S   0  0  0  0  0  0  0  0  0  0  0  0
   17.4344   12.7172    2.4171 O   0  0  0  0  0  0  0  0  0  0  0  0
   16.4543   11.8275    4.5113 O   0  0  0  0  0  0  0  0  0  0  0  0
   17.7667    9.3208    3.9599 C   0  0  0  0  0  0  0  0  0  0  0  0
   17.0945    9.3329    4.9970 O   0  0  0  0  0  0  0  0  0  0  0  0
   17.7453   10.2572    3.0342 N   0  0  0  0  0  0  0  0  0  0  0  0
   18.3388   10.1538    2.2556 H   0  0  0  0  0  0  0  0  0  0  0  0
   18.6476    8.0977    3.5829 C   0  0  0  0  0  0  0  0  0  0  0  0
   17.9827    6.9198    4.1489 O   0  0  0  0  0  0  0  0  0  0  0  0
   17.9537    6.9980    5.1153 H   0  0  0  0  0  0  0  0  0  0  0  0
   20.9890    8.7390    2.8234 C   0  0  0  0  0  0  0  0  0  0  0  0
   20.1542    8.1561    3.9715 C   0  0  0  0  0  0  0  0  0  0  0  0
   20.3998    9.0340    5.1947 C   0  0  0  0  0  0  0  0  0  0  0  0
   20.6204    6.7455    4.1791 C   0  0  0  0  0  0  0  0  0  0  0  0
 10 11  2  0  0  0
 10 15  1  0  0  0
 10 16  1  0  0  0
 11 12  1  0  0  0
 11 17  1  0  0  0
 12 14  2  0  0  0
 12 19  1  0  0  0
 13 16  1  0  0  0
 13 17  2  0  0  0
 14 18  1  0  0  0
 15 18  2  0  0  0
 34 35  1  0  0  0
 35 36  1  0  0  0
 35 37  1  0  0  0
 35 31  1  0  0  0
 31 32  1  0  0  0
 31 27  1  0  0  0
 27 28  2  0  0  0
 27 29  1  0  0  0
 29 24  1  0  0  0
 24 25  2  0  0  0
 24 26  2  0  0  0
 24 23  1  0  0  0
 23 22  1  0  0  0
 22  1  1  0  0  0
  1  2  1  0  0  0
  1  3  1  0  0  0
  2  7  1  0  0  0
  3  4  1  0  0  0
  3  5  1  0  0  0
  5  6  1  0  0  0
  5  7  1  0  0  0
  7 16  1  0  0  0
 32 33  1  0  0  0
 29 30  1  0  0  0
  4  8  1  0  0  0
  6  9  1  0  0  0
 19 20  1  0  0  0
 19 21  1  0  0  0
M  END
> <minimizedAffinity>
-10.11888

$$$$
3COW_52H_A_401


 37 39  0  0  0  0  0  0  0  0999 V2000
   20.4006    9.9342    1.8607 C   0  0  0  0  0  0  0  0  0  0  0  0
   19.1207    9.5339    1.3068 O   0  0  0  0  0  0  0  0  0  0  0  0
   20.5285   11.4367    1.6224 C   0  0  0  0  0  0  0  0  0  0  0  0
   21.4055   11.6472    0.5295 O   0  0  0  0  0  0  0  0  0  0  0  0
   19.0930   11.8552    1.2701 C   0  0  0  0  0  0  0  0  0  0  0  0
   18.9871   13.0145    0.4015 O   0  0  0  0  0  0  0  0  0  0  0  0
   18.5889   10.6215    0.5248 C   0  0  0  0  0  0  0  0  0  0  0  0
   21.0813   11.1595   -0.2438 H   0  0  0  0  0  0  0  0  0  0  0  0
   19.4577   12.8406   -0.4287 H   0  0  0  0  0  0  0  0  0  0  0  0
   16.3794   10.6445   -0.6362 C   0  0  0  0  0  0  0  0  0  0  0  0
   15.0266   10.6517   -0.2599 C   0  0  0  0  0  0  0  0  0  0  0  0
   14.0748   10.6755   -1.2810 C   0  0  0  0  0  0  0  0  0  0  0  0
   16.2335   10.6413    1.5291 C   0  0  0  0  0  0  0  0  0  0  0  0
   14.5139   10.6323   -2.5566 N   0  0  0  0  0  0  0  0  0  0  0  0
   16.7484   10.6301   -1.9417 N   0  0  0  0  0  0  0  0  0  0  0  0
   17.0996   10.6272    0.4817 N   0  0  0  0  0  0  0  0  0  0  0  0
   14.9573   10.6468    1.0841 N   0  0  0  0  0  0  0  0  0  0  0  0
   15.8025   10.6422   -2.8826 C   0  0  0  0  0  0  0  0  0  0  0  0
   12.7580   10.6884   -0.9893 N   0  0  0  0  0  0  0  0  0  0  0  0
   12.4620   10.7201   -0.0509 H   0  0  0  0  0  0  0  0  0  0  0  0
   12.0929   10.6662   -1.7148 H   0  0  0  0  0  0  0  0  0  0  0  0
   20.3511    9.6165    3.3789 C   0  0  0  0  0  0  0  0  0  0  0  0
   18.9664    9.5560    3.8645 O   0  0  0  0  0  0  0  0  0  0  0  0
   18.6341    8.3952    4.6775 S   0  0  0  0  0  0  0  0  0  0  0  0
   18.9355    7.2552    3.7874 O   0  0  0  0  0  0  0  0  0  0  0  0
   19.4695    8.4630    5.8835 O   0  0  0  0  0  0  0  0  0  0  0  0
   16.3534    9.4419    5.3694 C   0  0  0  0  0  0  0  0  0  0  0  0
   16.7712   10.6022    5.2880 O   0  0  0  0  0  0  0  0  0  0  0  0
   17.0714    8.3621    5.1398 N   0  0  0  0  0  0  0  0  0  0  0  0
   16.6396    7.4847    5.2539 H   0  0  0  0  0  0  0  0  0  0  0  0
   14.8550    9.1410    5.6492 C   0  0  0  0  0  0  0  0  0  0  0  0
   14.0852   10.1057    4.8575 O   0  0  0  0  0  0  0  0  0  0  0  0
   14.2853   11.0053    5.1603 H   0  0  0  0  0  0  0  0  0  0  0  0
   15.5958    8.8925    8.0700 C   0  0  0  0  0  0  0  0  0  0  0  0
   14.3978    9.1158    7.1374 C   0  0  0  0  0  0  0  0  0  0  0  0
   13.7391   10.4254    7.5597 C   0  0  0  0  0  0  0  0  0  0  0  0
   13.4851    7.9375    7.3078 C   0  0  0  0  0  0  0  0  0  0  0  0
 10 11  2  0  0  0
 10 15  1  0  0  0
 10 16  1  0  0  0
 11 12  1  0  0  0
 11 17  1  0  0  0
 12 14  2  0  0  0
 12 19  1  0  0  0
 13 16  1  0  0  0
 13 17  2  0  0  0
 14 18  1  0  0  0
 15 18  2  0  0  0
 34 35  1  0  0  0
 35 36  1  0  0  0
 35 37  1  0  0  0
 35 31  1  0  0  0
 31 32  1  0  0  0
 31 27  1  0  0  0
 27 28  2  0  0  0
 27 29  1  0  0  0
 29 24  1  0  0  0
 24 25  2  0  0  0
 24 26  2  0  0  0
 24 23  1  0  0  0
 23 22  1  0  0  0
 22  1  1  0  0  0
  1  2  1  0  0  0
  1  3  1  0  0  0
  2  7  1  0  0  0
  3  4  1  0  0  0
  3  5  1  0  0  0
  5  6  1  0  0  0
  5  7  1  0  0  0
  7 16  1  0  0  0
 32 33  1  0  0  0
 29 30  1  0  0  0
  4  8  1  0  0  0
  6  9  1  0  0  0
 19 20  1  0  0  0
 19 21  1  0  0  0
M  END
> <minimizedAffinity>
-9.78640

$$$$
3COW_52H_A_401


 37 39  0  0  0  0  0  0  0  0999 V2000
   15.0796   10.3408    2.3754 C   0  0  0  0  0  0  0  0  0  0  0  0
   15.3220   10.9961    1.1039 O   0  0  0  0  0  0  0  0  0  0  0  0
   14.3010    9.0643    2.0671 C   0  0  0  0  0  0  0  0  0  0  0  0
   12.9380    9.2780    2.3903 O   0  0  0  0  0  0  0  0  0  0  0  0
   14.4923    8.8992    0.5518 C   0  0  0  0  0  0  0  0  0  0  0  0
   13.4142    8.2056   -0.1311 O   0  0  0  0  0  0  0  0  0  0  0  0
   14.5273   10.3535    0.0876 C   0  0  0  0  0  0  0  0  0  0  0  0
   12.6103   10.0556    1.9121 H   0  0  0  0  0  0  0  0  0  0  0  0
   12.5813    8.6815    0.0127 H   0  0  0  0  0  0  0  0  0  0  0  0
   14.5201   10.1199   -2.3975 C   0  0  0  0  0  0  0  0  0  0  0  0
   15.4295   10.3281   -3.4468 C   0  0  0  0  0  0  0  0  0  0  0  0
   14.9917   10.0491   -4.7428 C   0  0  0  0  0  0  0  0  0  0  0  0
   16.4076   10.8198   -1.5870 C   0  0  0  0  0  0  0  0  0  0  0  0
   13.7114    9.6544   -4.9071 N   0  0  0  0  0  0  0  0  0  0  0  0
   13.2542    9.6934   -2.6354 N   0  0  0  0  0  0  0  0  0  0  0  0
   15.1426   10.4398   -1.2667 N   0  0  0  0  0  0  0  0  0  0  0  0
   16.5909   10.7638   -2.9249 N   0  0  0  0  0  0  0  0  0  0  0  0
   12.8777    9.4505   -3.8921 C   0  0  0  0  0  0  0  0  0  0  0  0
   15.8160   10.2225   -5.7961 N   0  0  0  0  0  0  0  0  0  0  0  0
   16.7461   10.5111   -5.6511 H   0  0  0  0  0  0  0  0  0  0  0  0
   15.4877   10.0605   -6.7100 H   0  0  0  0  0  0  0  0  0  0  0  0
   16.4696   10.0091    2.9808 C   0  0  0  0  0  0  0  0  0  0  0  0
   16.4283    8.7616    3.7547 O   0  0  0  0  0  0  0  0  0  0  0  0
   17.3137    8.7067    4.9088 S   0  0  0  0  0  0  0  0  0  0  0  0
   18.0777    7.4601    4.6963 O   0  0  0  0  0  0  0  0  0  0  0  0
   18.1262    9.9299    4.8846 O   0  0  0  0  0  0  0  0  0  0  0  0
   15.2039    8.5682    6.4271 C   0  0  0  0  0  0  0  0  0  0  0  0
   14.4205    8.5431    5.4715 O   0  0  0  0  0  0  0  0  0  0  0  0
   16.5144    8.6525    6.3283 N   0  0  0  0  0  0  0  0  0  0  0  0
   17.0414    8.6845    7.1593 H   0  0  0  0  0  0  0  0  0  0  0  0
   14.7039    8.3801    7.8861 C   0  0  0  0  0  0  0  0  0  0  0  0
   13.6556    7.3562    7.8347 O   0  0  0  0  0  0  0  0  0  0  0  0
   12.9187    7.6749    7.2904 H   0  0  0  0  0  0  0  0  0  0  0  0
   12.9418    9.3738    9.4281 C   0  0  0  0  0  0  0  0  0  0  0  0
   14.2343    9.6532    8.6496 C   0  0  0  0  0  0  0  0  0  0  0  0
   15.2712   10.1340    9.6601 C   0  0  0  0  0  0  0  0  0  0  0  0
   13.9099   10.6988    7.6240 C   0  0  0  0  0  0  0  0  0  0  0  0
 10 11  2  0  0  0
 10 15  1  0  0  0
 10 16  1  0  0  0
 11 12  1  0  0  0
 11 17  1  0  0  0
 12 14  2  0  0  0
 12 19  1  0  0  0
 13 16  1  0  0  0
 13 17  2  0  0  0
 14 18  1  0  0  0
 15 18  2  0  0  0
 34 35  1  0  0  0
 35 36  1  0  0  0
 35 37  1  0  0  0
 35 31  1  0  0  0
 31 32  1  0  0  0
 31 27  1  0  0  0
 27 28  2  0  0  0
 27 29  1  0  0  0
 29 24  1  0  0  0
 24 25  2  0  0  0
 24 26  2  0  0  0
 24 23  1  0  0  0
 23 22  1  0  0  0
 22  1  1  0  0  0
  1  2  1  0  0  0
  1  3  1  0  0  0
  2  7  1  0  0  0
  3  4  1  0  0  0
  3  5  1  0  0  0
  5  6  1  0  0  0
  5  7  1  0  0  0
  7 16  1  0  0  0
 32 33  1  0  0  0
 29 30  1  0  0  0
  4  8  1  0  0  0
  6  9  1  0  0  0
 19 20  1  0  0  0
 19 21  1  0  0  0
M  END
> <minimizedAffinity>
-9.39737

$$$$
3COW_52H_A_401


 37 39  0  0  0  0  0  0  0  0999 V2000
   18.6525   10.4842    2.2902 C   0  0  0  0  0  0  0  0  0  0  0  0
   18.0360    9.8782    1.1250 O   0  0  0  0  0  0  0  0  0  0  0  0
   18.9709   11.9290    1.9136 C   0  0  0  0  0  0  0  0  0  0  0  0
   20.3582   12.0297    1.6433 O   0  0  0  0  0  0  0  0  0  0  0  0
   18.1405   12.1462    0.6396 C   0  0  0  0  0  0  0  0  0  0  0  0
   18.6822   13.1248   -0.2870 O   0  0  0  0  0  0  0  0  0  0  0  0
   18.1972   10.7618   -0.0022 C   0  0  0  0  0  0  0  0  0  0  0  0
   20.6012   11.3888    0.9568 H   0  0  0  0  0  0  0  0  0  0  0  0
   19.5743   12.8557   -0.5566 H   0  0  0  0  0  0  0  0  0  0  0  0
   15.8495   10.2973   -0.7113 C   0  0  0  0  0  0  0  0  0  0  0  0
   15.1344   10.2603   -1.9192 C   0  0  0  0  0  0  0  0  0  0  0  0
   13.7791    9.9315   -1.8548 C   0  0  0  0  0  0  0  0  0  0  0  0
   17.1863   10.7676   -2.3549 C   0  0  0  0  0  0  0  0  0  0  0  0
   13.2344    9.7278   -0.6368 N   0  0  0  0  0  0  0  0  0  0  0  0
   15.2408   10.0532    0.4764 N   0  0  0  0  0  0  0  0  0  0  0  0
   17.1050   10.6220   -1.0060 N   0  0  0  0  0  0  0  0  0  0  0  0
   15.9788   10.5569   -2.9243 N   0  0  0  0  0  0  0  0  0  0  0  0
   13.9407    9.7539    0.4889 C   0  0  0  0  0  0  0  0  0  0  0  0
   13.0347    9.8732   -2.9781 N   0  0  0  0  0  0  0  0  0  0  0  0
   13.4547   10.0254   -3.8554 H   0  0  0  0  0  0  0  0  0  0  0  0
   12.0714    9.6784   -2.9207 H   0  0  0  0  0  0  0  0  0  0  0  0
   17.6037   10.4279    3.4326 C   0  0  0  0  0  0  0  0  0  0  0  0
   16.2718   10.8167    2.9511 O   0  0  0  0  0  0  0  0  0  0  0  0
   15.4073   11.4526    3.9346 S   0  0  0  0  0  0  0  0  0  0  0  0
   15.7793   12.8797    3.8466 O   0  0  0  0  0  0  0  0  0  0  0  0
   14.0229   11.1593    3.5419 O   0  0  0  0  0  0  0  0  0  0  0  0
   15.3567    9.6637    5.8248 C   0  0  0  0  0  0  0  0  0  0  0  0
   14.8665    8.7935    5.0967 O   0  0  0  0  0  0  0  0  0  0  0  0
   15.6383   10.8937    5.4482 N   0  0  0  0  0  0  0  0  0  0  0  0
   16.0096   11.5110    6.1193 H   0  0  0  0  0  0  0  0  0  0  0  0
   15.8094    9.3415    7.2757 C   0  0  0  0  0  0  0  0  0  0  0  0
   16.6249    8.1257    7.1935 O   0  0  0  0  0  0  0  0  0  0  0  0
   16.0806    7.3927    6.8658 H   0  0  0  0  0  0  0  0  0  0  0  0
   13.3413    9.6665    7.7987 C   0  0  0  0  0  0  0  0  0  0  0  0
   14.6986    9.2226    8.3604 C   0  0  0  0  0  0  0  0  0  0  0  0
   14.5309    7.7904    8.8583 C   0  0  0  0  0  0  0  0  0  0  0  0
   15.0465   10.1740    9.4668 C   0  0  0  0  0  0  0  0  0  0  0  0
 10 11  2  0  0  0
 10 15  1  0  0  0
 10 16  1  0  0  0
 11 12  1  0  0  0
 11 17  1  0  0  0
 12 14  2  0  0  0
 12 19  1  0  0  0
 13 16  1  0  0  0
 13 17  2  0  0  0
 14 18  1  0  0  0
 15 18  2  0  0  0
 34 35  1  0  0  0
 35 36  1  0  0  0
 35 37  1  0  0  0
 35 31  1  0  0  0
 31 32  1  0  0  0
 31 27  1  0  0  0
 27 28  2  0  0  0
 27 29  1  0  0  0
 29 24  1  0  0  0
 24 25  2  0  0  0
 24 26  2  0  0  0
 24 23  1  0  0  0
 23 22  1  0  0  0
 22  1  1  0  0  0
  1  2  1  0  0  0
  1  3  1  0  0  0
  2  7  1  0  0  0
  3  4  1  0  0  0
  3  5  1  0  0  0
  5  6  1  0  0  0
  5  7  1  0  0  0
  7 16  1  0  0  0
 32 33  1  0  0  0
 29 30  1  0  0  0
  4  8  1  0  0  0
  6  9  1  0  0  0
 19 20  1  0  0  0
 19 21  1  0  0  0
M  END
> <minimizedAffinity>
-9.39478

$$$$
3COW_52H_A_401


 37 39  0  0  0  0  0  0  0  0999 V2000
   20.2229   10.3440    1.8248 C   0  0  0  0  0  0  0  0  0  0  0  0
   19.1462    9.7702    1.0396 O   0  0  0  0  0  0  0  0  0  0  0  0
   20.2740   11.8293    1.4758 C   0  0  0  0  0  0  0  0  0  0  0  0
   21.3599   12.0483    0.5924 O   0  0  0  0  0  0  0  0  0  0  0  0
   18.9295   12.0662    0.7714 C   0  0  0  0  0  0  0  0  0  0  0  0
   18.9300   13.1391   -0.2077 O   0  0  0  0  0  0  0  0  0  0  0  0
   18.7201   10.7335    0.0559 C   0  0  0  0  0  0  0  0  0  0  0  0
   21.2676   11.4722   -0.1825 H   0  0  0  0  0  0  0  0  0  0  0  0
   19.5940   12.9538   -0.8901 H   0  0  0  0  0  0  0  0  0  0  0  0
   16.2743   10.6180    0.5409 C   0  0  0  0  0  0  0  0  0  0  0  0
   15.0939   10.4267   -0.1950 C   0  0  0  0  0  0  0  0  0  0  0  0
   13.8891   10.4243    0.5104 C   0  0  0  0  0  0  0  0  0  0  0  0
   16.7671   10.3523   -1.5559 C   0  0  0  0  0  0  0  0  0  0  0  0
   13.9328   10.6618    1.8384 N   0  0  0  0  0  0  0  0  0  0  0  0
   16.2443   10.8234    1.8816 N   0  0  0  0  0  0  0  0  0  0  0  0
   17.2868   10.5787   -0.3205 N   0  0  0  0  0  0  0  0  0  0  0  0
   15.4198   10.2669   -1.4909 N   0  0  0  0  0  0  0  0  0  0  0  0
   15.0678   10.8236    2.5109 C   0  0  0  0  0  0  0  0  0  0  0  0
   12.7186   10.2409   -0.1343 N   0  0  0  0  0  0  0  0  0  0  0  0
   12.7122   10.0690   -1.1036 H   0  0  0  0  0  0  0  0  0  0  0  0
   11.8707   10.2790    0.3645 H   0  0  0  0  0  0  0  0  0  0  0  0
   19.8488   10.1380    3.3167 C   0  0  0  0  0  0  0  0  0  0  0  0
   18.5661    9.4354    3.4509 O   0  0  0  0  0  0  0  0  0  0  0  0
   18.5603    8.3045    4.3674 S   0  0  0  0  0  0  0  0  0  0  0  0
   17.8578    7.2503    3.6072 O   0  0  0  0  0  0  0  0  0  0  0  0
   19.9624    7.9981    4.6793 O   0  0  0  0  0  0  0  0  0  0  0  0
   16.4748    8.7377    5.8636 C   0  0  0  0  0  0  0  0  0  0  0  0
   15.6818    8.6560    4.9191 O   0  0  0  0  0  0  0  0  0  0  0  0
   17.7824    8.6160    5.7655 N   0  0  0  0  0  0  0  0  0  0  0  0
   18.3207    8.7190    6.5833 H   0  0  0  0  0  0  0  0  0  0  0  0
   15.9747    8.8833    7.3274 C   0  0  0  0  0  0  0  0  0  0  0  0
   16.2303    7.5959    7.9810 O   0  0  0  0  0  0  0  0  0  0  0  0
   15.7139    6.9021    7.5418 H   0  0  0  0  0  0  0  0  0  0  0  0
   14.1609   10.4960    6.5660 C   0  0  0  0  0  0  0  0  0  0  0  0
   14.5068    9.3587    7.5364 C   0  0  0  0  0  0  0  0  0  0  0  0
   13.4989    8.2397    7.2928 C   0  0  0  0  0  0  0  0  0  0  0  0
   14.4095    9.9221    8.9232 C   0  0  0  0  0  0  0  0  0  0  0  0
 10 11  2  0  0  0
 10 15  1  0  0  0
 10 16  1  0  0  0
 11 12  1  0  0  0
 11 17  1  0  0  0
 12 14  2  0  0  0
 12 19  1  0  0  0
 13 16  1  0  0  0
 13 17  2  0  0  0
 14 18  1  0  0  0
 15 18  2  0  0  0
 34 35  1  0  0  0
 35 36  1  0  0  0
 35 37  1  0  0  0
 35 31  1  0  0  0
 31 32  1  0  0  0
 31 27  1  0  0  0
 27 28  2  0  0  0
 27 29  1  0  0  0
 29 24  1  0  0  0
 24 25  2  0  0  0
 24 26  2  0  0  0
 24 23  1  0  0  0
 23 22  1  0  0  0
 22  1  1  0  0  0
  1  2  1  0  0  0
  1  3  1  0  0  0
  2  7  1  0  0  0
  3  4  1  0  0  0
  3  5  1  0  0  0
  5  6  1  0  0  0
  5  7  1  0  0  0
  7 16  1  0  0  0
 32 33  1  0  0  0
 29 30  1  0  0  0
  4  8  1  0  0  0
  6  9  1  0  0  0
 19 20  1  0  0  0
 19 21  1  0  0  0
M  END
> <minimizedAffinity>
-9.05917

$$$$
3COW_52H_A_401


 37 39  0  0  0  0  0  0  0  0999 V2000
   13.6927   10.3523   -0.4828 C   0  0  0  0  0  0  0  0  0  0  0  0
   14.8378   11.0749    0.0382 O   0  0  0  0  0  0  0  0  0  0  0  0
   14.0685    9.8951   -1.8901 C   0  0  0  0  0  0  0  0  0  0  0  0
   13.4319   10.7469   -2.8264 O   0  0  0  0  0  0  0  0  0  0  0  0
   15.5932   10.0802   -1.9190 C   0  0  0  0  0  0  0  0  0  0  0  0
   16.1543   10.3486   -3.2316 O   0  0  0  0  0  0  0  0  0  0  0  0
   15.7683   11.3138   -1.0362 C   0  0  0  0  0  0  0  0  0  0  0  0
   13.6735   11.6681   -2.6419 H   0  0  0  0  0  0  0  0  0  0  0  0
   15.7509   11.1511   -3.5977 H   0  0  0  0  0  0  0  0  0  0  0  0
   17.5516   11.3802    0.7090 C   0  0  0  0  0  0  0  0  0  0  0  0
   18.9504   11.4996    0.7377 C   0  0  0  0  0  0  0  0  0  0  0  0
   19.5706   11.5010    1.9884 C   0  0  0  0  0  0  0  0  0  0  0  0
   18.3017   11.5565   -1.3199 C   0  0  0  0  0  0  0  0  0  0  0  0
   18.7948   11.3308    3.0797 N   0  0  0  0  0  0  0  0  0  0  0  0
   16.8321   11.2406    1.8507 N   0  0  0  0  0  0  0  0  0  0  0  0
   17.1796   11.4071   -0.5675 N   0  0  0  0  0  0  0  0  0  0  0  0
   19.3958   11.6048   -0.5279 N   0  0  0  0  0  0  0  0  0  0  0  0
   17.4702   11.2364    3.0224 C   0  0  0  0  0  0  0  0  0  0  0  0
   20.9107   11.6173    2.0879 N   0  0  0  0  0  0  0  0  0  0  0  0
   21.4556   11.7408    1.2774 H   0  0  0  0  0  0  0  0  0  0  0  0
   21.3439   11.5786    2.9712 H   0  0  0  0  0  0  0  0  0  0  0  0
   13.4669    9.1352    0.4532 C   0  0  0  0  0  0  0  0  0  0  0  0
   12.9198    9.5559    1.7495 O   0  0  0  0  0  0  0  0  0  0  0  0
   12.7374    8.4957    2.7302 S   0  0  0  0  0  0  0  0  0  0  0  0
   11.3634    8.7191    3.2255 O   0  0  0  0  0  0  0  0  0  0  0  0
   12.9305    7.2218    2.0255 O   0  0  0  0  0  0  0  0  0  0  0  0
   14.2964    9.6920    4.4373 C   0  0  0  0  0  0  0  0  0  0  0  0
   14.0309   10.8206    4.0091 O   0  0  0  0  0  0  0  0  0  0  0  0
   13.8066    8.5673    3.9584 N   0  0  0  0  0  0  0  0  0  0  0  0
   14.1032    7.7214    4.3655 H   0  0  0  0  0  0  0  0  0  0  0  0
   15.1771    9.4948    5.7019 C   0  0  0  0  0  0  0  0  0  0  0  0
   16.1013    8.3987    5.3947 O   0  0  0  0  0  0  0  0  0  0  0  0
   15.5969    7.5856    5.2352 H   0  0  0  0  0  0  0  0  0  0  0  0
   14.0200   10.6118    7.6726 C   0  0  0  0  0  0  0  0  0  0  0  0
   14.4420    9.2714    7.0562 C   0  0  0  0  0  0  0  0  0  0  0  0
   13.1767    8.4349    6.8934 C   0  0  0  0  0  0  0  0  0  0  0  0
   15.4225    8.6441    8.0023 C   0  0  0  0  0  0  0  0  0  0  0  0
 10 11  2  0  0  0
 10 15  1  0  0  0
 10 16  1  0  0  0
 11 12  1  0  0  0
 11 17  1  0  0  0
 12 14  2  0  0  0
 12 19  1  0  0  0
 13 16  1  0  0  0
 13 17  2  0  0  0
 14 18  1  0  0  0
 15 18  2  0  0  0
 34 35  1  0  0  0
 35 36  1  0  0  0
 35 37  1  0  0  0
 35 31  1  0  0  0
 31 32  1  0  0  0
 31 27  1  0  0  0
 27 28  2  0  0  0
 27 29  1  0  0  0
 29 24  1  0  0  0
 24 25  2  0  0  0
 24 26  2  0  0  0
 24 23  1  0  0  0
 23 22  1  0  0  0
 22  1  1  0  0  0
  1  2  1  0  0  0
  1  3  1  0  0  0
  2  7  1  0  0  0
  3  4  1  0  0  0
  3  5  1  0  0  0
  5  6  1  0  0  0
  5  7  1  0  0  0
  7 16  1  0  0  0
 32 33  1  0  0  0
 29 30  1  0  0  0
  4  8  1  0  0  0
  6  9  1  0  0  0
 19 20  1  0  0  0
 19 21  1  0  0  0
M  END
> <minimizedAffinity>
-8.97513

$$$$
3COW_52H_A_401


 37 39  0  0  0  0  0  0  0  0999 V2000
   15.3119    9.8514    0.5309 C   0  0  0  0  0  0  0  0  0  0  0  0
   15.7142    9.6272    1.9067 O   0  0  0  0  0  0  0  0  0  0  0  0
   13.8393   10.2522    0.5666 C   0  0  0  0  0  0  0  0  0  0  0  0
   13.0582    9.1364    0.1761 O   0  0  0  0  0  0  0  0  0  0  0  0
   13.6103   10.5992    2.0455 C   0  0  0  0  0  0  0  0  0  0  0  0
   12.2526   10.3972    2.5203 O   0  0  0  0  0  0  0  0  0  0  0  0
   14.5385    9.6054    2.7401 C   0  0  0  0  0  0  0  0  0  0  0  0
   13.2669    8.3801    0.7466 H   0  0  0  0  0  0  0  0  0  0  0  0
   11.9993    9.4699    2.3904 H   0  0  0  0  0  0  0  0  0  0  0  0
   14.3243    9.4646    5.2229 C   0  0  0  0  0  0  0  0  0  0  0  0
   14.7998   10.1816    6.3326 C   0  0  0  0  0  0  0  0  0  0  0  0
   14.4082    9.7423    7.5986 C   0  0  0  0  0  0  0  0  0  0  0  0
   15.5537   11.1175    4.5401 C   0  0  0  0  0  0  0  0  0  0  0  0
   13.6490    8.6289    7.6753 N   0  0  0  0  0  0  0  0  0  0  0  0
   13.5394    8.3684    5.3750 N   0  0  0  0  0  0  0  0  0  0  0  0
   14.8110   10.0539    4.1346 N   0  0  0  0  0  0  0  0  0  0  0  0
   15.5610   11.1990    5.8891 N   0  0  0  0  0  0  0  0  0  0  0  0
   13.2004    7.9799    6.6055 C   0  0  0  0  0  0  0  0  0  0  0  0
   14.8251   10.3883    8.7067 N   0  0  0  0  0  0  0  0  0  0  0  0
   15.3782   11.1987    8.6254 H   0  0  0  0  0  0  0  0  0  0  0  0
   14.5762   10.0496    9.5970 H   0  0  0  0  0  0  0  0  0  0  0  0
   16.1891   11.0121   -0.0091 C   0  0  0  0  0  0  0  0  0  0  0  0
   16.9067   11.6872    1.0800 O   0  0  0  0  0  0  0  0  0  0  0  0
   18.3010   12.0081    0.8117 S   0  0  0  0  0  0  0  0  0  0  0  0
   18.4035   11.8909   -0.6576 O   0  0  0  0  0  0  0  0  0  0  0  0
   18.5374   13.3610    1.3321 O   0  0  0  0  0  0  0  0  0  0  0  0
   19.5583    9.7533    1.1437 C   0  0  0  0  0  0  0  0  0  0  0  0
   18.9862    9.2037    0.1959 O   0  0  0  0  0  0  0  0  0  0  0  0
   19.3451   10.9907    1.5406 N   0  0  0  0  0  0  0  0  0  0  0  0
   19.8449   11.3200    2.3223 H   0  0  0  0  0  0  0  0  0  0  0  0
   20.7084    9.0460    1.9125 C   0  0  0  0  0  0  0  0  0  0  0  0
   21.1613    7.9449    1.0566 O   0  0  0  0  0  0  0  0  0  0  0  0
   20.4355    7.3140    0.9303 H   0  0  0  0  0  0  0  0  0  0  0  0
   20.9257    9.5852    4.3888 C   0  0  0  0  0  0  0  0  0  0  0  0
   20.4087    8.5674    3.3634 C   0  0  0  0  0  0  0  0  0  0  0  0
   18.9139    8.3965    3.6162 C   0  0  0  0  0  0  0  0  0  0  0  0
   21.1735    7.2961    3.5849 C   0  0  0  0  0  0  0  0  0  0  0  0
 10 11  2  0  0  0
 10 15  1  0  0  0
 10 16  1  0  0  0
 11 12  1  0  0  0
 11 17  1  0  0  0
 12 14  2  0  0  0
 12 19  1  0  0  0
 13 16  1  0  0  0
 13 17  2  0  0  0
 14 18  1  0  0  0
 15 18  2  0  0  0
 34 35  1  0  0  0
 35 36  1  0  0  0
 35 37  1  0  0  0
 35 31  1  0  0  0
 31 32  1  0  0  0
 31 27  1  0  0  0
 27 28  2  0  0  0
 27 29  1  0  0  0
 29 24  1  0  0  0
 24 25  2  0  0  0
 24 26  2  0  0  0
 24 23  1  0  0  0
 23 22  1  0  0  0
 22  1  1  0  0  0
  1  2  1  0  0  0
  1  3  1  0  0  0
  2  7  1  0  0  0
  3  4  1  0  0  0
  3  5  1  0  0  0
  5  6  1  0  0  0
  5  7  1  0  0  0
  7 16  1  0  0  0
 32 33  1  0  0  0
 29 30  1  0  0  0
  4  8  1  0  0  0
  6  9  1  0  0  0
 19 20  1  0  0  0
 19 21  1  0  0  0
M  END
> <minimizedAffinity>
-8.74568

$$$$
