3CD0_6HI_B_1


 41 43  0  0  0  0  0  0  0  0999 V2000
  -16.5244    8.7610   47.0055 N   0  0  0  0  0  0  0  0  0  0  0  0
  -15.3100    8.8007   46.4743 C   0  0  0  0  0  0  0  0  0  0  0  0
  -17.0014    7.5184   46.8089 C   0  0  0  0  0  0  0  0  0  0  0  0
  -16.1043    6.7457   46.1446 N   0  0  0  0  0  0  0  0  0  0  0  0
  -14.9907    7.4711   45.8856 C   0  0  0  0  0  0  0  0  0  0  0  0
  -12.4117   11.1225   47.2169 C   0  0  0  0  0  0  0  0  0  0  0  0
  -14.6596   10.9968   45.5765 C   0  0  0  0  0  0  0  0  0  0  0  0
  -13.8144   12.1026   45.5206 C   0  0  0  0  0  0  0  0  0  0  0  0
  -14.3695    9.9441   46.4319 C   0  0  0  0  0  0  0  0  0  0  0  0
  -12.6929   12.1706   46.3395 C   0  0  0  0  0  0  0  0  0  0  0  0
  -11.8839   13.2484   46.2766 F   0  0  0  0  0  0  0  0  0  0  0  0
  -13.2597   10.0147   47.2715 C   0  0  0  0  0  0  0  0  0  0  0  0
  -18.5728    7.1899   48.5999 N   0  0  0  0  0  0  0  0  0  0  0  0
  -18.3560    7.1333   47.2887 C   0  0  0  0  0  0  0  0  0  0  0  0
  -19.2753    7.0667   46.4789 O   0  0  0  0  0  0  0  0  0  0  0  0
  -17.7985    7.2673   49.2030 H   0  0  0  0  0  0  0  0  0  0  0  0
  -19.9056    7.1422   49.1797 C   0  0  0  0  0  0  0  0  0  0  0  0
  -21.4376    5.0855   49.1956 C   0  0  0  0  0  0  0  0  0  0  0  0
  -21.7319    3.7972   49.6560 C   0  0  0  0  0  0  0  0  0  0  0  0
  -19.4348    5.1067   50.5316 C   0  0  0  0  0  0  0  0  0  0  0  0
  -21.1291    1.9232   51.0128 F   0  0  0  0  0  0  0  0  0  0  0  0
  -20.8704    3.1642   50.5553 C   0  0  0  0  0  0  0  0  0  0  0  0
  -19.7234    3.8216   50.9919 C   0  0  0  0  0  0  0  0  0  0  0  0
  -20.2839    5.7454   49.6377 C   0  0  0  0  0  0  0  0  0  0  0  0
  -15.0989    4.4994   46.1128 C   0  0  0  0  0  0  0  0  0  0  0  0
  -16.3574    5.3160   45.8019 C   0  0  0  0  0  0  0  0  0  0  0  0
  -16.8706    5.1621   44.3679 C   0  0  0  0  0  0  0  0  0  0  0  0
  -13.7284    7.0439   45.1432 C   0  0  0  0  0  0  0  0  0  0  0  0
  -13.9818    7.1791   43.6308 C   0  0  0  0  0  0  0  0  0  0  0  0
  -12.7949    7.5540   42.7140 C   0  0  0  0  0  0  0  0  0  0  0  0
  -12.1023    6.4271   42.1778 O   0  0  0  0  0  0  0  0  0  0  0  0
  -12.7036    5.9164   41.6135 H   0  0  0  0  0  0  0  0  0  0  0  0
  -13.3032    8.3695   41.5223 C   0  0  0  0  0  0  0  0  0  0  0  0
  -13.1255    9.8787   41.6974 C   0  0  0  0  0  0  0  0  0  0  0  0
  -11.7316   10.1810   41.6490 O   0  0  0  0  0  0  0  0  0  0  0  0
  -11.3681    9.8950   40.7963 H   0  0  0  0  0  0  0  0  0  0  0  0
  -13.9137   10.6197   40.6088 C   0  0  0  0  0  0  0  0  0  0  0  0
  -13.1097   10.8636   39.3437 C   0  0  0  0  0  0  0  0  0  0  0  0
  -12.6915   11.9865   39.0746 O   0  0  0  0  0  0  0  0  0  0  0  0
  -12.8224    9.8638   38.5053 O   0  0  0  0  0  0  0  0  0  0  0  0
  -13.1292    8.9973   38.6870 H   0  0  0  0  0  0  0  0  0  0  0  0
  2  1  1  0  0  0
  1  3  2  0  0  0
 25 26  1  0  0  0
  5  2  2  0  0  0
  9  2  1  0  0  0
 26  4  1  0  0  0
 26 27  1  0  0  0
 28  5  1  0  0  0
 28 29  1  0  0  0
 30 29  1  0  0  0
 30 33  1  0  0  0
 33 34  1  0  0  0
  6 12  2  0  0  0
  6 10  1  0  0  0
 19 18  2  0  0  0
 18 24  1  0  0  0
 19 22  1  0  0  0
  9  7  2  0  0  0
  8  7  1  0  0  0
 10  8  2  0  0  0
 24 20  2  0  0  0
 23 20  1  0  0  0
 21 22  1  0  0  0
 22 23  2  0  0  0
 24 17  1  0  0  0
 13 17  1  0  0  0
 13 14  1  0  0  0
  3 14  1  0  0  0
 14 15  2  0  0  0
  4  3  1  0  0  0
  5  4  1  0  0  0
 12  9  1  0  0  0
 11 10  1  0  0  0
 31 30  1  0  0  0
 35 34  1  0  0  0
 34 37  1  0  0  0
 37 38  1  0  0  0
 39 38  2  0  0  0
 38 40  1  0  0  0
 13 16  1  0  0  0
 31 32  1  0  0  0
 35 36  1  0  0  0
 40 41  1  0  0  0
M  END
> <minimizedAffinity>
-9.41168

$$$$
3CD0_6HI_B_1


 41 43  0  0  0  0  0  0  0  0999 V2000
  -16.1159    8.3280   46.8785 N   0  0  0  0  0  0  0  0  0  0  0  0
  -14.9606    8.5653   46.2723 C   0  0  0  0  0  0  0  0  0  0  0  0
  -16.4684    7.0650   46.5773 C   0  0  0  0  0  0  0  0  0  0  0  0
  -15.5493    6.4763   45.7699 N   0  0  0  0  0  0  0  0  0  0  0  0
  -14.5467    7.3507   45.5175 C   0  0  0  0  0  0  0  0  0  0  0  0
  -12.3094   11.1389   47.1028 C   0  0  0  0  0  0  0  0  0  0  0  0
  -14.6045   10.8880   45.5442 C   0  0  0  0  0  0  0  0  0  0  0  0
  -13.8925   12.0851   45.5523 C   0  0  0  0  0  0  0  0  0  0  0  0
  -14.1576    9.8097   46.2935 C   0  0  0  0  0  0  0  0  0  0  0  0
  -12.7480   12.2155   46.3308 C   0  0  0  0  0  0  0  0  0  0  0  0
  -12.0691   13.3814   46.3310 F   0  0  0  0  0  0  0  0  0  0  0  0
  -13.0241    9.9396   47.0933 C   0  0  0  0  0  0  0  0  0  0  0  0
  -17.6696    5.8807   48.2916 N   0  0  0  0  0  0  0  0  0  0  0  0
  -17.7290    6.4756   47.1034 C   0  0  0  0  0  0  0  0  0  0  0  0
  -18.7951    6.8006   46.5904 O   0  0  0  0  0  0  0  0  0  0  0  0
  -16.7856    5.6641   48.6669 H   0  0  0  0  0  0  0  0  0  0  0  0
  -18.8557    5.5368   49.0596 C   0  0  0  0  0  0  0  0  0  0  0  0
  -18.4043    7.1886   50.9689 C   0  0  0  0  0  0  0  0  0  0  0  0
  -18.8451    8.2116   51.8158 C   0  0  0  0  0  0  0  0  0  0  0  0
  -20.5624    7.1395   49.9028 C   0  0  0  0  0  0  0  0  0  0  0  0
  -20.5986    9.6849   52.5022 F   0  0  0  0  0  0  0  0  0  0  0  0
  -20.1493    8.6990   51.7006 C   0  0  0  0  0  0  0  0  0  0  0  0
  -21.0056    8.1606   50.7440 C   0  0  0  0  0  0  0  0  0  0  0  0
  -19.2684    6.6473   50.0085 C   0  0  0  0  0  0  0  0  0  0  0  0
  -14.4201    4.2905   45.7039 C   0  0  0  0  0  0  0  0  0  0  0  0
  -15.6715    5.0700   45.2872 C   0  0  0  0  0  0  0  0  0  0  0  0
  -15.9801    5.0128   43.7890 C   0  0  0  0  0  0  0  0  0  0  0  0
  -13.3101    7.1542   44.6462 C   0  0  0  0  0  0  0  0  0  0  0  0
  -13.6256    7.6634   43.2281 C   0  0  0  0  0  0  0  0  0  0  0  0
  -12.5453    7.5138   42.1326 C   0  0  0  0  0  0  0  0  0  0  0  0
  -11.9578    6.2142   42.0759 O   0  0  0  0  0  0  0  0  0  0  0  0
  -12.6382    5.5615   41.8482 H   0  0  0  0  0  0  0  0  0  0  0  0
  -13.1659    7.7795   40.7585 C   0  0  0  0  0  0  0  0  0  0  0  0
  -12.6077    9.0258   40.0693 C   0  0  0  0  0  0  0  0  0  0  0  0
  -12.7720    8.8776   38.6594 O   0  0  0  0  0  0  0  0  0  0  0  0
  -13.7138    8.7709   38.4531 H   0  0  0  0  0  0  0  0  0  0  0  0
  -13.3228   10.2739   40.6045 C   0  0  0  0  0  0  0  0  0  0  0  0
  -13.7017   11.2636   39.5167 C   0  0  0  0  0  0  0  0  0  0  0  0
  -12.8683   12.0416   39.0603 O   0  0  0  0  0  0  0  0  0  0  0  0
  -14.9408   11.2999   39.0182 O   0  0  0  0  0  0  0  0  0  0  0  0
  -15.5960   10.7171   39.3486 H   0  0  0  0  0  0  0  0  0  0  0  0
  2  1  1  0  0  0
  1  3  2  0  0  0
 25 26  1  0  0  0
  5  2  2  0  0  0
  9  2  1  0  0  0
 26  4  1  0  0  0
 26 27  1  0  0  0
 28  5  1  0  0  0
 28 29  1  0  0  0
 30 29  1  0  0  0
 30 33  1  0  0  0
 33 34  1  0  0  0
  6 12  2  0  0  0
  6 10  1  0  0  0
 19 18  2  0  0  0
 18 24  1  0  0  0
 19 22  1  0  0  0
  9  7  2  0  0  0
  8  7  1  0  0  0
 10  8  2  0  0  0
 24 20  2  0  0  0
 23 20  1  0  0  0
 21 22  1  0  0  0
 22 23  2  0  0  0
 24 17  1  0  0  0
 13 17  1  0  0  0
 13 14  1  0  0  0
  3 14  1  0  0  0
 14 15  2  0  0  0
  4  3  1  0  0  0
  5  4  1  0  0  0
 12  9  1  0  0  0
 11 10  1  0  0  0
 31 30  1  0  0  0
 35 34  1  0  0  0
 34 37  1  0  0  0
 37 38  1  0  0  0
 39 38  2  0  0  0
 38 40  1  0  0  0
 13 16  1  0  0  0
 31 32  1  0  0  0
 35 36  1  0  0  0
 40 41  1  0  0  0
M  END
> <minimizedAffinity>
-9.19202

$$$$
3CD0_6HI_B_1


 41 43  0  0  0  0  0  0  0  0999 V2000
  -15.5197   10.3806   46.7435 N   0  0  0  0  0  0  0  0  0  0  0  0
  -15.5549    9.7572   47.9134 C   0  0  0  0  0  0  0  0  0  0  0  0
  -14.2260   10.6193   46.4616 C   0  0  0  0  0  0  0  0  0  0  0  0
  -13.4139   10.1590   47.4473 N   0  0  0  0  0  0  0  0  0  0  0  0
  -14.1650    9.5904   48.4200 C   0  0  0  0  0  0  0  0  0  0  0  0
  -18.5672    7.7297   48.9895 C   0  0  0  0  0  0  0  0  0  0  0  0
  -17.2043   10.0482   49.7153 C   0  0  0  0  0  0  0  0  0  0  0  0
  -18.3318    9.6479   50.4285 C   0  0  0  0  0  0  0  0  0  0  0  0
  -16.7432    9.2791   48.6571 C   0  0  0  0  0  0  0  0  0  0  0  0
  -19.0166    8.4929   50.0679 C   0  0  0  0  0  0  0  0  0  0  0  0
  -20.1084    8.1179   50.7660 F   0  0  0  0  0  0  0  0  0  0  0  0
  -17.4367    8.1322   48.2759 C   0  0  0  0  0  0  0  0  0  0  0  0
  -14.2478   10.7782   44.0618 N   0  0  0  0  0  0  0  0  0  0  0  0
  -13.8311   11.3132   45.2062 C   0  0  0  0  0  0  0  0  0  0  0  0
  -13.4089   12.4632   45.2717 O   0  0  0  0  0  0  0  0  0  0  0  0
  -14.6001    9.8589   44.0716 H   0  0  0  0  0  0  0  0  0  0  0  0
  -14.2048   11.4943   42.7968 C   0  0  0  0  0  0  0  0  0  0  0  0
  -13.5193    9.2340   41.7974 C   0  0  0  0  0  0  0  0  0  0  0  0
  -13.1303    8.4643   40.6954 C   0  0  0  0  0  0  0  0  0  0  0  0
  -13.6541   11.1829   40.3901 C   0  0  0  0  0  0  0  0  0  0  0  0
  -12.6355    8.3410   38.3595 F   0  0  0  0  0  0  0  0  0  0  0  0
  -13.0065    9.0597   39.4376 C   0  0  0  0  0  0  0  0  0  0  0  0
  -13.2682   10.4188   39.2882 C   0  0  0  0  0  0  0  0  0  0  0  0
  -13.7802   10.6018   41.6448 C   0  0  0  0  0  0  0  0  0  0  0  0
  -11.3389    8.9199   46.9818 C   0  0  0  0  0  0  0  0  0  0  0  0
  -11.9272   10.2723   47.3969 C   0  0  0  0  0  0  0  0  0  0  0  0
  -11.3596   10.8325   48.7035 C   0  0  0  0  0  0  0  0  0  0  0  0
  -13.7054    8.9611   49.7314 C   0  0  0  0  0  0  0  0  0  0  0  0
  -13.9987    7.4509   49.6778 C   0  0  0  0  0  0  0  0  0  0  0  0
  -13.3387    6.6098   48.5612 C   0  0  0  0  0  0  0  0  0  0  0  0
  -12.8017    5.3680   49.0160 O   0  0  0  0  0  0  0  0  0  0  0  0
  -13.5187    4.8118   49.3586 H   0  0  0  0  0  0  0  0  0  0  0  0
  -14.3769    6.2763   47.4867 C   0  0  0  0  0  0  0  0  0  0  0  0
  -13.7660    6.0279   46.1065 C   0  0  0  0  0  0  0  0  0  0  0  0
  -13.5671    4.6241   45.9434 O   0  0  0  0  0  0  0  0  0  0  0  0
  -14.4181    4.1655   46.0234 H   0  0  0  0  0  0  0  0  0  0  0  0
  -14.6859    6.6089   45.0241 C   0  0  0  0  0  0  0  0  0  0  0  0
  -14.3600    6.1119   43.6265 C   0  0  0  0  0  0  0  0  0  0  0  0
  -13.1944    6.0199   43.2508 O   0  0  0  0  0  0  0  0  0  0  0  0
  -15.3279    5.7463   42.7812 O   0  0  0  0  0  0  0  0  0  0  0  0
  -16.2257    5.8065   43.0426 H   0  0  0  0  0  0  0  0  0  0  0  0
  2  1  1  0  0  0
  1  3  2  0  0  0
 25 26  1  0  0  0
  5  2  2  0  0  0
  9  2  1  0  0  0
 26  4  1  0  0  0
 26 27  1  0  0  0
 28  5  1  0  0  0
 28 29  1  0  0  0
 30 29  1  0  0  0
 30 33  1  0  0  0
 33 34  1  0  0  0
  6 12  2  0  0  0
  6 10  1  0  0  0
 19 18  2  0  0  0
 18 24  1  0  0  0
 19 22  1  0  0  0
  9  7  2  0  0  0
  8  7  1  0  0  0
 10  8  2  0  0  0
 24 20  2  0  0  0
 23 20  1  0  0  0
 21 22  1  0  0  0
 22 23  2  0  0  0
 24 17  1  0  0  0
 13 17  1  0  0  0
 13 14  1  0  0  0
  3 14  1  0  0  0
 14 15  2  0  0  0
  4  3  1  0  0  0
  5  4  1  0  0  0
 12  9  1  0  0  0
 11 10  1  0  0  0
 31 30  1  0  0  0
 35 34  1  0  0  0
 34 37  1  0  0  0
 37 38  1  0  0  0
 39 38  2  0  0  0
 38 40  1  0  0  0
 13 16  1  0  0  0
 31 32  1  0  0  0
 35 36  1  0  0  0
 40 41  1  0  0  0
M  END
> <minimizedAffinity>
-8.33868

$$$$
3CD0_6HI_B_1


 41 43  0  0  0  0  0  0  0  0999 V2000
  -16.2334    6.4326   46.2985 N   0  0  0  0  0  0  0  0  0  0  0  0
  -16.9799    7.0379   47.2123 C   0  0  0  0  0  0  0  0  0  0  0  0
  -15.2239    7.2688   45.9956 C   0  0  0  0  0  0  0  0  0  0  0  0
  -15.3108    8.4232   46.7046 N   0  0  0  0  0  0  0  0  0  0  0  0
  -16.3972    8.3749   47.5113 C   0  0  0  0  0  0  0  0  0  0  0  0
  -20.6026    6.5099   48.1815 C   0  0  0  0  0  0  0  0  0  0  0  0
  -18.0637    5.6247   48.9094 C   0  0  0  0  0  0  0  0  0  0  0  0
  -19.1894    5.1393   49.5707 C   0  0  0  0  0  0  0  0  0  0  0  0
  -18.2067    6.5316   47.8697 C   0  0  0  0  0  0  0  0  0  0  0  0
  -20.4582    5.5805   49.2124 C   0  0  0  0  0  0  0  0  0  0  0  0
  -21.5398    5.1037   49.8627 F   0  0  0  0  0  0  0  0  0  0  0  0
  -19.4732    6.9952   47.5195 C   0  0  0  0  0  0  0  0  0  0  0  0
  -14.3992    7.2801   43.7363 N   0  0  0  0  0  0  0  0  0  0  0  0
  -14.1925    6.8920   44.9917 C   0  0  0  0  0  0  0  0  0  0  0  0
  -13.0930    6.5145   45.3840 O   0  0  0  0  0  0  0  0  0  0  0  0
  -15.2960    7.5971   43.4822 H   0  0  0  0  0  0  0  0  0  0  0  0
  -13.3560    7.2557   42.7234 C   0  0  0  0  0  0  0  0  0  0  0  0
  -13.7032    9.7616   42.3019 C   0  0  0  0  0  0  0  0  0  0  0  0
  -13.7244   10.8512   41.4242 C   0  0  0  0  0  0  0  0  0  0  0  0
  -13.1080    8.3042   40.4803 C   0  0  0  0  0  0  0  0  0  0  0  0
  -13.4446   11.6949   39.2046 F   0  0  0  0  0  0  0  0  0  0  0  0
  -13.4332   10.6625   40.0709 C   0  0  0  0  0  0  0  0  0  0  0  0
  -13.1263    9.3882   39.6019 C   0  0  0  0  0  0  0  0  0  0  0  0
  -13.3958    8.4801   41.8271 C   0  0  0  0  0  0  0  0  0  0  0  0
  -13.5735    9.6766   47.9164 C   0  0  0  0  0  0  0  0  0  0  0  0
  -14.3167    9.5291   46.5848 C   0  0  0  0  0  0  0  0  0  0  0  0
  -14.9667   10.8196   46.0792 C   0  0  0  0  0  0  0  0  0  0  0  0
  -16.9188    9.4411   48.4695 C   0  0  0  0  0  0  0  0  0  0  0  0
  -16.6301    8.9854   49.9114 C   0  0  0  0  0  0  0  0  0  0  0  0
  -17.6819    9.2834   51.0044 C   0  0  0  0  0  0  0  0  0  0  0  0
  -17.5515   10.5774   51.5923 O   0  0  0  0  0  0  0  0  0  0  0  0
  -17.6946   11.2564   50.9146 H   0  0  0  0  0  0  0  0  0  0  0  0
  -19.0866    9.2112   50.3999 C   0  0  0  0  0  0  0  0  0  0  0  0
  -20.1676    8.8372   51.4153 C   0  0  0  0  0  0  0  0  0  0  0  0
  -20.1774    9.8188   52.4513 O   0  0  0  0  0  0  0  0  0  0  0  0
  -20.3610   10.6910   52.0685 H   0  0  0  0  0  0  0  0  0  0  0  0
  -21.5253    8.7334   50.7073 C   0  0  0  0  0  0  0  0  0  0  0  0
  -22.5410    9.7490   51.2008 C   0  0  0  0  0  0  0  0  0  0  0  0
  -23.3805    9.4372   52.0412 O   0  0  0  0  0  0  0  0  0  0  0  0
  -22.5348   11.0064   50.7489 O   0  0  0  0  0  0  0  0  0  0  0  0
  -21.9049   11.2706   50.1076 H   0  0  0  0  0  0  0  0  0  0  0  0
  2  1  1  0  0  0
  1  3  2  0  0  0
 25 26  1  0  0  0
  5  2  2  0  0  0
  9  2  1  0  0  0
 26  4  1  0  0  0
 26 27  1  0  0  0
 28  5  1  0  0  0
 28 29  1  0  0  0
 30 29  1  0  0  0
 30 33  1  0  0  0
 33 34  1  0  0  0
  6 12  2  0  0  0
  6 10  1  0  0  0
 19 18  2  0  0  0
 18 24  1  0  0  0
 19 22  1  0  0  0
  9  7  2  0  0  0
  8  7  1  0  0  0
 10  8  2  0  0  0
 24 20  2  0  0  0
 23 20  1  0  0  0
 21 22  1  0  0  0
 22 23  2  0  0  0
 24 17  1  0  0  0
 13 17  1  0  0  0
 13 14  1  0  0  0
  3 14  1  0  0  0
 14 15  2  0  0  0
  4  3  1  0  0  0
  5  4  1  0  0  0
 12  9  1  0  0  0
 11 10  1  0  0  0
 31 30  1  0  0  0
 35 34  1  0  0  0
 34 37  1  0  0  0
 37 38  1  0  0  0
 39 38  2  0  0  0
 38 40  1  0  0  0
 13 16  1  0  0  0
 31 32  1  0  0  0
 35 36  1  0  0  0
 40 41  1  0  0  0
M  END
> <minimizedAffinity>
-8.17389

$$$$
3CD0_6HI_B_1


 41 43  0  0  0  0  0  0  0  0999 V2000
  -18.6229    6.1340   47.8313 N   0  0  0  0  0  0  0  0  0  0  0  0
  -17.3816    6.4488   47.4865 C   0  0  0  0  0  0  0  0  0  0  0  0
  -18.9562    6.9211   48.8702 C   0  0  0  0  0  0  0  0  0  0  0  0
  -17.9338    7.7467   49.2108 N   0  0  0  0  0  0  0  0  0  0  0  0
  -16.8825    7.5241   48.3869 C   0  0  0  0  0  0  0  0  0  0  0  0
  -16.0931    5.4720   44.0619 C   0  0  0  0  0  0  0  0  0  0  0  0
  -15.4943    5.0532   46.7500 C   0  0  0  0  0  0  0  0  0  0  0  0
  -14.7095    4.4673   45.7595 C   0  0  0  0  0  0  0  0  0  0  0  0
  -16.5613    5.8671   46.3991 C   0  0  0  0  0  0  0  0  0  0  0  0
  -15.0064    4.6716   44.4167 C   0  0  0  0  0  0  0  0  0  0  0  0
  -14.2393    4.0964   43.4677 F   0  0  0  0  0  0  0  0  0  0  0  0
  -16.8785    6.0588   45.0560 C   0  0  0  0  0  0  0  0  0  0  0  0
  -20.4055    6.0376   50.5743 N   0  0  0  0  0  0  0  0  0  0  0  0
  -20.2978    6.8228   49.5059 C   0  0  0  0  0  0  0  0  0  0  0  0
  -21.1510    7.6576   49.2226 O   0  0  0  0  0  0  0  0  0  0  0  0
  -19.6789    5.4021   50.7678 H   0  0  0  0  0  0  0  0  0  0  0  0
  -21.5517    6.0787   51.4684 C   0  0  0  0  0  0  0  0  0  0  0  0
  -21.9732    3.6770   50.6734 C   0  0  0  0  0  0  0  0  0  0  0  0
  -22.7351    2.5039   50.7119 C   0  0  0  0  0  0  0  0  0  0  0  0
  -23.4471    4.6889   52.2859 C   0  0  0  0  0  0  0  0  0  0  0  0
  -24.6046    1.3081   51.6016 F   0  0  0  0  0  0  0  0  0  0  0  0
  -23.8547    2.4265   51.5439 C   0  0  0  0  0  0  0  0  0  0  0  0
  -24.2087    3.5205   52.3288 C   0  0  0  0  0  0  0  0  0  0  0  0
  -22.3325    4.7770   51.4627 C   0  0  0  0  0  0  0  0  0  0  0  0
  -17.7715   10.1420   49.7526 C   0  0  0  0  0  0  0  0  0  0  0  0
  -18.0249    8.7412   50.3191 C   0  0  0  0  0  0  0  0  0  0  0  0
  -17.1183    8.3622   51.4929 C   0  0  0  0  0  0  0  0  0  0  0  0
  -15.5090    8.1878   48.3968 C   0  0  0  0  0  0  0  0  0  0  0  0
  -15.3885    9.0798   47.1479 C   0  0  0  0  0  0  0  0  0  0  0  0
  -14.0014    9.2368   46.4840 C   0  0  0  0  0  0  0  0  0  0  0  0
  -12.9544    8.5468   47.1659 O   0  0  0  0  0  0  0  0  0  0  0  0
  -13.1328    7.5935   47.1519 H   0  0  0  0  0  0  0  0  0  0  0  0
  -14.0464    8.6770   45.0598 C   0  0  0  0  0  0  0  0  0  0  0  0
  -12.6681    8.3139   44.5048 C   0  0  0  0  0  0  0  0  0  0  0  0
  -12.3794    6.9605   44.8541 O   0  0  0  0  0  0  0  0  0  0  0  0
  -13.0584    6.3780   44.4793 H   0  0  0  0  0  0  0  0  0  0  0  0
  -12.6507    8.5329   42.9858 C   0  0  0  0  0  0  0  0  0  0  0  0
  -12.8807    7.2594   42.1911 C   0  0  0  0  0  0  0  0  0  0  0  0
  -13.9842    7.0107   41.7129 O   0  0  0  0  0  0  0  0  0  0  0  0
  -11.8882    6.3909   41.9773 O   0  0  0  0  0  0  0  0  0  0  0  0
  -11.0364    6.5565   42.3309 H   0  0  0  0  0  0  0  0  0  0  0  0
  2  1  1  0  0  0
  1  3  2  0  0  0
 25 26  1  0  0  0
  5  2  2  0  0  0
  9  2  1  0  0  0
 26  4  1  0  0  0
 26 27  1  0  0  0
 28  5  1  0  0  0
 28 29  1  0  0  0
 30 29  1  0  0  0
 30 33  1  0  0  0
 33 34  1  0  0  0
  6 12  2  0  0  0
  6 10  1  0  0  0
 19 18  2  0  0  0
 18 24  1  0  0  0
 19 22  1  0  0  0
  9  7  2  0  0  0
  8  7  1  0  0  0
 10  8  2  0  0  0
 24 20  2  0  0  0
 23 20  1  0  0  0
 21 22  1  0  0  0
 22 23  2  0  0  0
 24 17  1  0  0  0
 13 17  1  0  0  0
 13 14  1  0  0  0
  3 14  1  0  0  0
 14 15  2  0  0  0
  4  3  1  0  0  0
  5  4  1  0  0  0
 12  9  1  0  0  0
 11 10  1  0  0  0
 31 30  1  0  0  0
 35 34  1  0  0  0
 34 37  1  0  0  0
 37 38  1  0  0  0
 39 38  2  0  0  0
 38 40  1  0  0  0
 13 16  1  0  0  0
 31 32  1  0  0  0
 35 36  1  0  0  0
 40 41  1  0  0  0
M  END
> <minimizedAffinity>
-7.98248

$$$$
3CD0_6HI_B_1


 41 43  0  0  0  0  0  0  0  0999 V2000
  -14.3364   10.4025   47.6723 N   0  0  0  0  0  0  0  0  0  0  0  0
  -14.0683    9.5747   48.6730 C   0  0  0  0  0  0  0  0  0  0  0  0
  -13.2449   10.4393   46.8865 C   0  0  0  0  0  0  0  0  0  0  0  0
  -12.2601    9.6419   47.3736 N   0  0  0  0  0  0  0  0  0  0  0  0
  -12.6866    9.0445   48.5114 C   0  0  0  0  0  0  0  0  0  0  0  0
  -16.7115    7.8599   50.7742 C   0  0  0  0  0  0  0  0  0  0  0  0
  -14.8676    9.9385   50.9709 C   0  0  0  0  0  0  0  0  0  0  0  0
  -15.6911    9.6301   52.0512 C   0  0  0  0  0  0  0  0  0  0  0  0
  -14.9470    9.1945   49.8031 C   0  0  0  0  0  0  0  0  0  0  0  0
  -16.6146    8.5952   51.9563 C   0  0  0  0  0  0  0  0  0  0  0  0
  -17.4075    8.3085   53.0095 F   0  0  0  0  0  0  0  0  0  0  0  0
  -15.8851    8.1702   49.6925 C   0  0  0  0  0  0  0  0  0  0  0  0
  -13.8751   10.8346   44.5993 N   0  0  0  0  0  0  0  0  0  0  0  0
  -13.2114   11.2828   45.6614 C   0  0  0  0  0  0  0  0  0  0  0  0
  -12.8425   12.4492   45.7543 O   0  0  0  0  0  0  0  0  0  0  0  0
  -14.1687    9.8950   44.5885 H   0  0  0  0  0  0  0  0  0  0  0  0
  -14.1852   11.6746   43.4533 C   0  0  0  0  0  0  0  0  0  0  0  0
  -14.3302   11.4713   40.9008 C   0  0  0  0  0  0  0  0  0  0  0  0
  -14.0192   10.7879   39.7200 C   0  0  0  0  0  0  0  0  0  0  0  0
  -13.1258    9.8211   42.1747 C   0  0  0  0  0  0  0  0  0  0  0  0
  -12.9408    8.9422   38.6490 F   0  0  0  0  0  0  0  0  0  0  0  0
  -13.2563    9.6186   39.7712 C   0  0  0  0  0  0  0  0  0  0  0  0
  -12.8118    9.1374   40.9996 C   0  0  0  0  0  0  0  0  0  0  0  0
  -13.8834   10.9840   42.1357 C   0  0  0  0  0  0  0  0  0  0  0  0
  -10.1758   10.8009   46.7650 C   0  0  0  0  0  0  0  0  0  0  0  0
  -10.9398    9.4745   46.6994 C   0  0  0  0  0  0  0  0  0  0  0  0
  -11.0961    8.9061   45.2866 C   0  0  0  0  0  0  0  0  0  0  0  0
  -11.9280    8.0871   49.4251 C   0  0  0  0  0  0  0  0  0  0  0  0
  -12.3816    6.6499   49.1114 C   0  0  0  0  0  0  0  0  0  0  0  0
  -12.4701    6.2099   47.6322 C   0  0  0  0  0  0  0  0  0  0  0  0
  -11.6323    5.1002   47.3097 O   0  0  0  0  0  0  0  0  0  0  0  0
  -11.9131    4.3242   47.8195 H   0  0  0  0  0  0  0  0  0  0  0  0
  -13.9057    5.7907   47.3052 C   0  0  0  0  0  0  0  0  0  0  0  0
  -14.0836    5.2985   45.8679 C   0  0  0  0  0  0  0  0  0  0  0  0
  -14.1426    3.8726   45.8798 O   0  0  0  0  0  0  0  0  0  0  0  0
  -14.8876    3.5843   46.4300 H   0  0  0  0  0  0  0  0  0  0  0  0
  -15.3487    5.9222   45.2630 C   0  0  0  0  0  0  0  0  0  0  0  0
  -15.8961    5.1450   44.0786 C   0  0  0  0  0  0  0  0  0  0  0  0
  -17.0635    4.7642   44.0654 O   0  0  0  0  0  0  0  0  0  0  0  0
  -15.1300    4.8737   43.0180 O   0  0  0  0  0  0  0  0  0  0  0  0
  -14.2357    5.1529   43.0024 H   0  0  0  0  0  0  0  0  0  0  0  0
  2  1  1  0  0  0
  1  3  2  0  0  0
 25 26  1  0  0  0
  5  2  2  0  0  0
  9  2  1  0  0  0
 26  4  1  0  0  0
 26 27  1  0  0  0
 28  5  1  0  0  0
 28 29  1  0  0  0
 30 29  1  0  0  0
 30 33  1  0  0  0
 33 34  1  0  0  0
  6 12  2  0  0  0
  6 10  1  0  0  0
 19 18  2  0  0  0
 18 24  1  0  0  0
 19 22  1  0  0  0
  9  7  2  0  0  0
  8  7  1  0  0  0
 10  8  2  0  0  0
 24 20  2  0  0  0
 23 20  1  0  0  0
 21 22  1  0  0  0
 22 23  2  0  0  0
 24 17  1  0  0  0
 13 17  1  0  0  0
 13 14  1  0  0  0
  3 14  1  0  0  0
 14 15  2  0  0  0
  4  3  1  0  0  0
  5  4  1  0  0  0
 12  9  1  0  0  0
 11 10  1  0  0  0
 31 30  1  0  0  0
 35 34  1  0  0  0
 34 37  1  0  0  0
 37 38  1  0  0  0
 39 38  2  0  0  0
 38 40  1  0  0  0
 13 16  1  0  0  0
 31 32  1  0  0  0
 35 36  1  0  0  0
 40 41  1  0  0  0
M  END
> <minimizedAffinity>
-7.85271

$$$$
3CD0_6HI_B_1


 41 43  0  0  0  0  0  0  0  0999 V2000
  -14.4363    8.5242   47.0397 N   0  0  0  0  0  0  0  0  0  0  0  0
  -15.5329    8.1621   47.6916 C   0  0  0  0  0  0  0  0  0  0  0  0
  -14.2673    7.6476   46.0331 C   0  0  0  0  0  0  0  0  0  0  0  0
  -15.2474    6.7083   46.0279 N   0  0  0  0  0  0  0  0  0  0  0  0
  -16.1062    6.9488   47.0469 C   0  0  0  0  0  0  0  0  0  0  0  0
  -17.6343   10.4131   49.8960 C   0  0  0  0  0  0  0  0  0  0  0  0
  -15.6883    8.4339   50.1317 C   0  0  0  0  0  0  0  0  0  0  0  0
  -16.2202    9.0306   51.2724 C   0  0  0  0  0  0  0  0  0  0  0  0
  -16.1450    8.8069   48.8762 C   0  0  0  0  0  0  0  0  0  0  0  0
  -17.1897   10.0206   51.1592 C   0  0  0  0  0  0  0  0  0  0  0  0
  -17.6948   10.5917   52.2722 F   0  0  0  0  0  0  0  0  0  0  0  0
  -17.1003    9.8138   48.7536 C   0  0  0  0  0  0  0  0  0  0  0  0
  -13.3993    7.9251   43.8073 N   0  0  0  0  0  0  0  0  0  0  0  0
  -13.1167    7.7682   45.0977 C   0  0  0  0  0  0  0  0  0  0  0  0
  -12.0036    8.0082   45.5544 O   0  0  0  0  0  0  0  0  0  0  0  0
  -14.3162    7.7413   43.4995 H   0  0  0  0  0  0  0  0  0  0  0  0
  -12.4104    8.3566   42.8322 C   0  0  0  0  0  0  0  0  0  0  0  0
  -13.7089   10.4765   42.2018 C   0  0  0  0  0  0  0  0  0  0  0  0
  -14.2137   11.3431   41.2259 C   0  0  0  0  0  0  0  0  0  0  0  0
  -12.7689    9.0820   40.4789 C   0  0  0  0  0  0  0  0  0  0  0  0
  -14.4638   11.8949   38.9130 F   0  0  0  0  0  0  0  0  0  0  0  0
  -13.9906   11.0757   39.8729 C   0  0  0  0  0  0  0  0  0  0  0  0
  -13.2689    9.9443   39.5026 C   0  0  0  0  0  0  0  0  0  0  0  0
  -12.9846    9.3378   41.8265 C   0  0  0  0  0  0  0  0  0  0  0  0
  -16.6879    5.6776   44.3190 C   0  0  0  0  0  0  0  0  0  0  0  0
  -15.3238    5.6167   45.0139 C   0  0  0  0  0  0  0  0  0  0  0  0
  -14.9880    4.2542   45.6256 C   0  0  0  0  0  0  0  0  0  0  0  0
  -17.3418    6.1540   47.4573 C   0  0  0  0  0  0  0  0  0  0  0  0
  -18.5936    6.9476   47.0416 C   0  0  0  0  0  0  0  0  0  0  0  0
  -19.8190    6.9405   47.9839 C   0  0  0  0  0  0  0  0  0  0  0  0
  -21.0600    6.7207   47.3141 O   0  0  0  0  0  0  0  0  0  0  0  0
  -21.0544    5.8421   46.9031 H   0  0  0  0  0  0  0  0  0  0  0  0
  -19.6680    5.8197   49.0156 C   0  0  0  0  0  0  0  0  0  0  0  0
  -20.2101    6.1876   50.3978 C   0  0  0  0  0  0  0  0  0  0  0  0
  -19.5907    5.3442   51.3683 O   0  0  0  0  0  0  0  0  0  0  0  0
  -18.6292    5.4690   51.3386 H   0  0  0  0  0  0  0  0  0  0  0  0
  -19.9473    7.6741   50.6749 C   0  0  0  0  0  0  0  0  0  0  0  0
  -21.2038    8.4532   51.0221 C   0  0  0  0  0  0  0  0  0  0  0  0
  -21.5227    8.6371   52.1938 O   0  0  0  0  0  0  0  0  0  0  0  0
  -21.9802    8.9718   50.0664 O   0  0  0  0  0  0  0  0  0  0  0  0
  -21.7598    8.8463   49.1643 H   0  0  0  0  0  0  0  0  0  0  0  0
  2  1  1  0  0  0
  1  3  2  0  0  0
 25 26  1  0  0  0
  5  2  2  0  0  0
  9  2  1  0  0  0
 26  4  1  0  0  0
 26 27  1  0  0  0
 28  5  1  0  0  0
 28 29  1  0  0  0
 30 29  1  0  0  0
 30 33  1  0  0  0
 33 34  1  0  0  0
  6 12  2  0  0  0
  6 10  1  0  0  0
 19 18  2  0  0  0
 18 24  1  0  0  0
 19 22  1  0  0  0
  9  7  2  0  0  0
  8  7  1  0  0  0
 10  8  2  0  0  0
 24 20  2  0  0  0
 23 20  1  0  0  0
 21 22  1  0  0  0
 22 23  2  0  0  0
 24 17  1  0  0  0
 13 17  1  0  0  0
 13 14  1  0  0  0
  3 14  1  0  0  0
 14 15  2  0  0  0
  4  3  1  0  0  0
  5  4  1  0  0  0
 12  9  1  0  0  0
 11 10  1  0  0  0
 31 30  1  0  0  0
 35 34  1  0  0  0
 34 37  1  0  0  0
 37 38  1  0  0  0
 39 38  2  0  0  0
 38 40  1  0  0  0
 13 16  1  0  0  0
 31 32  1  0  0  0
 35 36  1  0  0  0
 40 41  1  0  0  0
M  END
> <minimizedAffinity>
-7.73068

$$$$
3CD0_6HI_B_1


 41 43  0  0  0  0  0  0  0  0999 V2000
  -14.4244    8.3488   47.2970 N   0  0  0  0  0  0  0  0  0  0  0  0
  -15.4470    8.0957   48.1025 C   0  0  0  0  0  0  0  0  0  0  0  0
  -14.4064    7.3794   46.3643 C   0  0  0  0  0  0  0  0  0  0  0  0
  -15.4114    6.4881   46.5606 N   0  0  0  0  0  0  0  0  0  0  0  0
  -16.1339    6.8566   47.6450 C   0  0  0  0  0  0  0  0  0  0  0  0
  -15.6619    9.5602   51.5883 C   0  0  0  0  0  0  0  0  0  0  0  0
  -17.0749    9.5869   49.1879 C   0  0  0  0  0  0  0  0  0  0  0  0
  -17.5419   10.3115   50.2819 C   0  0  0  0  0  0  0  0  0  0  0  0
  -15.8913    8.8702   49.2842 C   0  0  0  0  0  0  0  0  0  0  0  0
  -16.8412   10.2988   51.4827 C   0  0  0  0  0  0  0  0  0  0  0  0
  -17.3059   11.0035   52.5351 F   0  0  0  0  0  0  0  0  0  0  0  0
  -15.1951    8.8346   50.4906 C   0  0  0  0  0  0  0  0  0  0  0  0
  -13.5811    8.1471   44.2397 N   0  0  0  0  0  0  0  0  0  0  0  0
  -13.3721    7.3647   45.2949 C   0  0  0  0  0  0  0  0  0  0  0  0
  -12.2703    6.8850   45.5420 O   0  0  0  0  0  0  0  0  0  0  0  0
  -14.4799    8.5250   44.1033 H   0  0  0  0  0  0  0  0  0  0  0  0
  -12.5374    8.4677   43.2790 C   0  0  0  0  0  0  0  0  0  0  0  0
  -12.9010    8.9007   40.7774 C   0  0  0  0  0  0  0  0  0  0  0  0
  -13.4057    9.7019   39.7471 C   0  0  0  0  0  0  0  0  0  0  0  0
  -13.7279   10.4705   42.4049 C   0  0  0  0  0  0  0  0  0  0  0  0
  -14.5732   11.6784   39.0787 F   0  0  0  0  0  0  0  0  0  0  0  0
  -14.0756   10.8895   40.0515 C   0  0  0  0  0  0  0  0  0  0  0  0
  -14.2344   11.2715   41.3808 C   0  0  0  0  0  0  0  0  0  0  0  0
  -13.0604    9.2882   42.1140 C   0  0  0  0  0  0  0  0  0  0  0  0
  -14.4338    4.3802   45.7490 C   0  0  0  0  0  0  0  0  0  0  0  0
  -15.6451    5.3150   45.6691 C   0  0  0  0  0  0  0  0  0  0  0  0
  -16.0126    5.7507   44.2484 C   0  0  0  0  0  0  0  0  0  0  0  0
  -17.3379    6.1575   48.2682 C   0  0  0  0  0  0  0  0  0  0  0  0
  -18.6138    6.6748   47.5794 C   0  0  0  0  0  0  0  0  0  0  0  0
  -19.9474    6.6211   48.3593 C   0  0  0  0  0  0  0  0  0  0  0  0
  -21.1044    6.6229   47.5235 O   0  0  0  0  0  0  0  0  0  0  0  0
  -21.1049    5.8261   46.9704 H   0  0  0  0  0  0  0  0  0  0  0  0
  -20.0049    5.3380   49.1923 C   0  0  0  0  0  0  0  0  0  0  0  0
  -21.0362    5.3907   50.3208 C   0  0  0  0  0  0  0  0  0  0  0  0
  -21.5553    6.7177   50.4006 O   0  0  0  0  0  0  0  0  0  0  0  0
  -21.9675    6.9550   49.5552 H   0  0  0  0  0  0  0  0  0  0  0  0
  -22.1387    4.3556   50.0594 C   0  0  0  0  0  0  0  0  0  0  0  0
  -22.1850    3.2495   51.0990 C   0  0  0  0  0  0  0  0  0  0  0  0
  -22.5040    3.4940   52.2595 O   0  0  0  0  0  0  0  0  0  0  0  0
  -21.8993    1.9853   50.7744 O   0  0  0  0  0  0  0  0  0  0  0  0
  -21.6531    1.7713   49.8960 H   0  0  0  0  0  0  0  0  0  0  0  0
  2  1  1  0  0  0
  1  3  2  0  0  0
 25 26  1  0  0  0
  5  2  2  0  0  0
  9  2  1  0  0  0
 26  4  1  0  0  0
 26 27  1  0  0  0
 28  5  1  0  0  0
 28 29  1  0  0  0
 30 29  1  0  0  0
 30 33  1  0  0  0
 33 34  1  0  0  0
  6 12  2  0  0  0
  6 10  1  0  0  0
 19 18  2  0  0  0
 18 24  1  0  0  0
 19 22  1  0  0  0
  9  7  2  0  0  0
  8  7  1  0  0  0
 10  8  2  0  0  0
 24 20  2  0  0  0
 23 20  1  0  0  0
 21 22  1  0  0  0
 22 23  2  0  0  0
 24 17  1  0  0  0
 13 17  1  0  0  0
 13 14  1  0  0  0
  3 14  1  0  0  0
 14 15  2  0  0  0
  4  3  1  0  0  0
  5  4  1  0  0  0
 12  9  1  0  0  0
 11 10  1  0  0  0
 31 30  1  0  0  0
 35 34  1  0  0  0
 34 37  1  0  0  0
 37 38  1  0  0  0
 39 38  2  0  0  0
 38 40  1  0  0  0
 13 16  1  0  0  0
 31 32  1  0  0  0
 35 36  1  0  0  0
 40 41  1  0  0  0
M  END
> <minimizedAffinity>
-7.66141

$$$$
3CD0_6HI_B_1


 41 43  0  0  0  0  0  0  0  0999 V2000
  -12.5578   11.1449   45.2521 N   0  0  0  0  0  0  0  0  0  0  0  0
  -12.8529   10.2382   44.3304 C   0  0  0  0  0  0  0  0  0  0  0  0
  -12.1533   10.4774   46.3480 C   0  0  0  0  0  0  0  0  0  0  0  0
  -12.1886    9.1351   46.1483 N   0  0  0  0  0  0  0  0  0  0  0  0
  -12.6207    8.8787   44.8909 C   0  0  0  0  0  0  0  0  0  0  0  0
  -13.1878   10.1602   40.5590 C   0  0  0  0  0  0  0  0  0  0  0  0
  -14.4163   11.3237   42.7718 C   0  0  0  0  0  0  0  0  0  0  0  0
  -14.8949   11.5832   41.4897 C   0  0  0  0  0  0  0  0  0  0  0  0
  -13.3418   10.4650   42.9509 C   0  0  0  0  0  0  0  0  0  0  0  0
  -14.2831   11.0068   40.3823 C   0  0  0  0  0  0  0  0  0  0  0  0
  -14.7556   11.2684   39.1461 F   0  0  0  0  0  0  0  0  0  0  0  0
  -12.7095    9.9009   41.8448 C   0  0  0  0  0  0  0  0  0  0  0  0
  -10.8922   10.5862   48.3931 N   0  0  0  0  0  0  0  0  0  0  0  0
  -11.7443   11.2044   47.5799 C   0  0  0  0  0  0  0  0  0  0  0  0
  -11.9589   12.4099   47.6561 O   0  0  0  0  0  0  0  0  0  0  0  0
  -10.7396    9.6212   48.2711 H   0  0  0  0  0  0  0  0  0  0  0  0
  -10.1766   11.2760   49.4547 C   0  0  0  0  0  0  0  0  0  0  0  0
  -11.4686    9.8406   51.1423 C   0  0  0  0  0  0  0  0  0  0  0  0
  -12.0123    9.6669   52.4199 C   0  0  0  0  0  0  0  0  0  0  0  0
  -10.6565   12.0149   51.7820 C   0  0  0  0  0  0  0  0  0  0  0  0
  -12.3850   10.5300   54.6183 F   0  0  0  0  0  0  0  0  0  0  0  0
  -11.8729   10.6725   53.3798 C   0  0  0  0  0  0  0  0  0  0  0  0
  -11.1954   11.8453   53.0577 C   0  0  0  0  0  0  0  0  0  0  0  0
  -10.7891   11.0223   50.8202 C   0  0  0  0  0  0  0  0  0  0  0  0
  -10.6863    7.2410   46.6102 C   0  0  0  0  0  0  0  0  0  0  0  0
  -11.7792    8.1462   47.1876 C   0  0  0  0  0  0  0  0  0  0  0  0
  -12.9851    7.3944   47.7568 C   0  0  0  0  0  0  0  0  0  0  0  0
  -12.8472    7.5276   44.2198 C   0  0  0  0  0  0  0  0  0  0  0  0
  -14.2909    7.0760   44.5058 C   0  0  0  0  0  0  0  0  0  0  0  0
  -15.0727    6.3501   43.3871 C   0  0  0  0  0  0  0  0  0  0  0  0
  -14.4123    6.3614   42.1217 O   0  0  0  0  0  0  0  0  0  0  0  0
  -13.5716    5.8827   42.1915 H   0  0  0  0  0  0  0  0  0  0  0  0
  -15.2726    4.8812   43.7691 C   0  0  0  0  0  0  0  0  0  0  0  0
  -16.4760    4.6488   44.6843 C   0  0  0  0  0  0  0  0  0  0  0  0
  -16.0011    4.2163   45.9588 O   0  0  0  0  0  0  0  0  0  0  0  0
  -15.4179    4.8947   46.3337 H   0  0  0  0  0  0  0  0  0  0  0  0
  -17.3030    5.9377   44.7849 C   0  0  0  0  0  0  0  0  0  0  0  0
  -17.4827    6.4282   46.2109 C   0  0  0  0  0  0  0  0  0  0  0  0
  -16.5078    6.6920   46.9096 O   0  0  0  0  0  0  0  0  0  0  0  0
  -18.7005    6.6021   46.7323 O   0  0  0  0  0  0  0  0  0  0  0  0
  -19.4612    6.4084   46.2207 H   0  0  0  0  0  0  0  0  0  0  0  0
  2  1  1  0  0  0
  1  3  2  0  0  0
 25 26  1  0  0  0
  5  2  2  0  0  0
  9  2  1  0  0  0
 26  4  1  0  0  0
 26 27  1  0  0  0
 28  5  1  0  0  0
 28 29  1  0  0  0
 30 29  1  0  0  0
 30 33  1  0  0  0
 33 34  1  0  0  0
  6 12  2  0  0  0
  6 10  1  0  0  0
 19 18  2  0  0  0
 18 24  1  0  0  0
 19 22  1  0  0  0
  9  7  2  0  0  0
  8  7  1  0  0  0
 10  8  2  0  0  0
 24 20  2  0  0  0
 23 20  1  0  0  0
 21 22  1  0  0  0
 22 23  2  0  0  0
 24 17  1  0  0  0
 13 17  1  0  0  0
 13 14  1  0  0  0
  3 14  1  0  0  0
 14 15  2  0  0  0
  4  3  1  0  0  0
  5  4  1  0  0  0
 12  9  1  0  0  0
 11 10  1  0  0  0
 31 30  1  0  0  0
 35 34  1  0  0  0
 34 37  1  0  0  0
 37 38  1  0  0  0
 39 38  2  0  0  0
 38 40  1  0  0  0
 13 16  1  0  0  0
 31 32  1  0  0  0
 35 36  1  0  0  0
 40 41  1  0  0  0
M  END
> <minimizedAffinity>
-7.56600

$$$$
3CD0_6HI_B_1


 41 43  0  0  0  0  0  0  0  0999 V2000
  -17.4029    9.4832   49.6630 N   0  0  0  0  0  0  0  0  0  0  0  0
  -16.9658    9.1177   48.4655 C   0  0  0  0  0  0  0  0  0  0  0  0
  -18.3353    8.5870   50.0339 C   0  0  0  0  0  0  0  0  0  0  0  0
  -18.5142    7.6385   49.0793 N   0  0  0  0  0  0  0  0  0  0  0  0
  -17.6859    7.8871   48.0375 C   0  0  0  0  0  0  0  0  0  0  0  0
  -15.2683   11.3304   45.9033 C   0  0  0  0  0  0  0  0  0  0  0  0
  -14.6231    9.3481   47.7509 C   0  0  0  0  0  0  0  0  0  0  0  0
  -13.6260    9.9252   46.9680 C   0  0  0  0  0  0  0  0  0  0  0  0
  -15.9364    9.7774   47.6294 C   0  0  0  0  0  0  0  0  0  0  0  0
  -13.9440   10.9130   46.0428 C   0  0  0  0  0  0  0  0  0  0  0  0
  -12.9688   11.4620   45.2895 F   0  0  0  0  0  0  0  0  0  0  0  0
  -16.2665   10.7511   46.6890 C   0  0  0  0  0  0  0  0  0  0  0  0
  -20.3114    9.0771   51.3142 N   0  0  0  0  0  0  0  0  0  0  0  0
  -19.0344    8.7059   51.3418 C   0  0  0  0  0  0  0  0  0  0  0  0
  -18.5259    8.1953   52.3348 O   0  0  0  0  0  0  0  0  0  0  0  0
  -20.6737    9.4592   50.4824 H   0  0  0  0  0  0  0  0  0  0  0  0
  -21.1949    8.9420   52.4614 C   0  0  0  0  0  0  0  0  0  0  0  0
  -22.3726   10.8232   53.7468 C   0  0  0  0  0  0  0  0  0  0  0  0
  -23.2970   11.8732   53.7811 C   0  0  0  0  0  0  0  0  0  0  0  0
  -22.9101   10.4238   51.4342 C   0  0  0  0  0  0  0  0  0  0  0  0
  -24.9215   13.2055   52.6398 F   0  0  0  0  0  0  0  0  0  0  0  0
  -24.0265   12.1978   52.6347 C   0  0  0  0  0  0  0  0  0  0  0  0
  -23.8316   11.4711   51.4633 C   0  0  0  0  0  0  0  0  0  0  0  0
  -22.1797   10.0923   52.5675 C   0  0  0  0  0  0  0  0  0  0  0  0
  -18.6937    5.1907   49.2629 C   0  0  0  0  0  0  0  0  0  0  0  0
  -19.4760    6.5074   49.2255 C   0  0  0  0  0  0  0  0  0  0  0  0
  -20.5733    6.5588   48.1593 C   0  0  0  0  0  0  0  0  0  0  0  0
  -17.5454    7.1159   46.7288 C   0  0  0  0  0  0  0  0  0  0  0  0
  -16.2925    6.2259   46.8183 C   0  0  0  0  0  0  0  0  0  0  0  0
  -15.6116    5.7754   45.5056 C   0  0  0  0  0  0  0  0  0  0  0  0
  -16.4994    5.1457   44.5823 O   0  0  0  0  0  0  0  0  0  0  0  0
  -17.1814    5.7781   44.3070 H   0  0  0  0  0  0  0  0  0  0  0  0
  -15.0184    6.9919   44.7902 C   0  0  0  0  0  0  0  0  0  0  0  0
  -13.8142    6.6529   43.9100 C   0  0  0  0  0  0  0  0  0  0  0  0
  -13.9258    5.2933   43.4909 O   0  0  0  0  0  0  0  0  0  0  0  0
  -14.7508    5.1746   42.9946 H   0  0  0  0  0  0  0  0  0  0  0  0
  -13.7581    7.6199   42.7195 C   0  0  0  0  0  0  0  0  0  0  0  0
  -12.5586    7.3937   41.8159 C   0  0  0  0  0  0  0  0  0  0  0  0
  -11.7781    6.4702   42.0311 O   0  0  0  0  0  0  0  0  0  0  0  0
  -12.3338    8.1786   40.7583 O   0  0  0  0  0  0  0  0  0  0  0  0
  -12.9138    8.8903   40.5714 H   0  0  0  0  0  0  0  0  0  0  0  0
  2  1  1  0  0  0
  1  3  2  0  0  0
 25 26  1  0  0  0
  5  2  2  0  0  0
  9  2  1  0  0  0
 26  4  1  0  0  0
 26 27  1  0  0  0
 28  5  1  0  0  0
 28 29  1  0  0  0
 30 29  1  0  0  0
 30 33  1  0  0  0
 33 34  1  0  0  0
  6 12  2  0  0  0
  6 10  1  0  0  0
 19 18  2  0  0  0
 18 24  1  0  0  0
 19 22  1  0  0  0
  9  7  2  0  0  0
  8  7  1  0  0  0
 10  8  2  0  0  0
 24 20  2  0  0  0
 23 20  1  0  0  0
 21 22  1  0  0  0
 22 23  2  0  0  0
 24 17  1  0  0  0
 13 17  1  0  0  0
 13 14  1  0  0  0
  3 14  1  0  0  0
 14 15  2  0  0  0
  4  3  1  0  0  0
  5  4  1  0  0  0
 12  9  1  0  0  0
 11 10  1  0  0  0
 31 30  1  0  0  0
 35 34  1  0  0  0
 34 37  1  0  0  0
 37 38  1  0  0  0
 39 38  2  0  0  0
 38 40  1  0  0  0
 13 16  1  0  0  0
 31 32  1  0  0  0
 35 36  1  0  0  0
 40 41  1  0  0  0
M  END
> <minimizedAffinity>
-7.50158

$$$$
