3NES_B72_A_1


 26 27  0  0  0  0  0  0  0  0999 V2000
   -0.9125    1.3419    0.1160 C   0  0  0  0  0  0  0  0  0  0  0  0
   -0.0543    0.2971   -0.1998 C   0  0  0  0  0  0  0  0  0  0  0  0
   -0.0259   -0.1992   -1.4970 C   0  0  0  0  0  0  0  0  0  0  0  0
    0.9333   -1.3562   -1.8227 C   0  0  0  0  0  0  0  0  0  0  0  0
   -0.8601    0.3362   -2.4894 C   0  0  0  0  0  0  0  0  0  0  0  0
   -1.7340    1.3617   -2.1610 C   0  0  0  0  0  0  0  0  0  0  0  0
   -1.7505    1.8658   -0.8664 C   0  0  0  0  0  0  0  0  0  0  0  0
   -2.6749    1.9571   -3.2236 C   0  0  0  0  0  0  0  0  0  0  0  0
   -0.9568    1.8680    1.3894 O   0  0  0  0  0  0  0  0  0  0  0  0
   -2.2369    1.8861    2.1026 C   0  0  0  0  0  0  0  0  0  0  0  0
   -2.8583   -0.3691    2.6426 O   0  0  0  0  0  0  0  0  0  0  0  0
   -3.2119    0.6951    2.0892 C   0  0  0  0  0  0  0  0  0  0  0  0
   -4.3201    0.8446    1.5320 O   0  0  0  0  0  0  0  0  0  0  0  0
   -2.0151   -0.4293    3.0467 H   0  0  0  0  0  0  0  0  0  0  0  0
   -0.8769   -0.2557   -3.8933 C   0  0  0  0  0  0  0  0  0  0  0  0
   -0.0192    0.4870   -4.8652 C   0  0  0  0  0  0  0  0  0  0  0  0
   -0.1135    0.1827   -6.2281 C   0  0  0  0  0  0  0  0  0  0  0  0
    0.6646    0.8830   -7.1163 C   0  0  0  0  0  0  0  0  0  0  0  0
    1.4867    1.8685   -6.6111 C   0  0  0  0  0  0  0  0  0  0  0  0
    2.2437    2.5430   -7.4958 O   0  0  0  0  0  0  0  0  0  0  0  0
    1.5585    2.1776   -5.2528 C   0  0  0  0  0  0  0  0  0  0  0  0
    0.7848    1.4786   -4.3571 C   0  0  0  0  0  0  0  0  0  0  0  0
    2.1954    2.3352   -8.4082 H   0  0  0  0  0  0  0  0  0  0  0  0
    0.6608    0.6146   -8.6318 C   0  0  0  0  0  0  0  0  0  0  0  0
    1.5276   -0.5986   -8.9553 C   0  0  0  0  0  0  0  0  0  0  0  0
   -0.7747    0.3802   -9.0767 C   0  0  0  0  0  0  0  0  0  0  0  0
 12 13  2  0  0  0
 12 11  1  0  0  0
 10 12  1  0  0  0
  9 10  1  0  0  0
  1  9  1  0  0  0
  2  1  1  0  0  0
  3  2  2  0  0  0
  4  3  1  0  0  0
  5  6  2  0  0  0
  5  3  1  0  0  0
  6  7  1  0  0  0
  7  1  2  0  0  0
  8  6  1  0  0  0
 15  5  1  0  0  0
 16 22  1  0  0  0
 16 15  1  0  0  0
 17 16  2  0  0  0
 18 19  2  0  0  0
 18 17  1  0  0  0
 24 18  1  0  0  0
 24 26  1  0  0  0
 25 24  1  0  0  0
 19 21  1  0  0  0
 20 19  1  0  0  0
 21 22  2  0  0  0
 11 14  1  0  0  0
 20 23  1  0  0  0
M  END
> <minimizedAffinity>
-8.19514

$$$$
3NES_B72_A_1


 26 27  0  0  0  0  0  0  0  0999 V2000
    0.8040   -1.3768    0.0679 C   0  0  0  0  0  0  0  0  0  0  0  0
    0.0155   -0.2897   -0.2850 C   0  0  0  0  0  0  0  0  0  0  0  0
    0.0552    0.1925   -1.5872 C   0  0  0  0  0  0  0  0  0  0  0  0
   -0.8275    1.3969   -1.9543 C   0  0  0  0  0  0  0  0  0  0  0  0
    0.8886   -0.3996   -2.5475 C   0  0  0  0  0  0  0  0  0  0  0  0
    1.6934   -1.4682   -2.1816 C   0  0  0  0  0  0  0  0  0  0  0  0
    1.6416   -1.9575   -0.8823 C   0  0  0  0  0  0  0  0  0  0  0  0
    2.6322   -2.1269   -3.2081 C   0  0  0  0  0  0  0  0  0  0  0  0
    0.7794   -1.8899    1.3472 O   0  0  0  0  0  0  0  0  0  0  0  0
    2.0020   -1.8373    2.1536 C   0  0  0  0  0  0  0  0  0  0  0  0
    2.6008    0.4455    2.5937 O   0  0  0  0  0  0  0  0  0  0  0  0
    2.9748   -0.6453    2.1100 C   0  0  0  0  0  0  0  0  0  0  0  0
    4.1015   -0.8202    1.5993 O   0  0  0  0  0  0  0  0  0  0  0  0
    1.7443    0.5241    2.9654 H   0  0  0  0  0  0  0  0  0  0  0  0
    0.9820    0.1742   -3.9559 C   0  0  0  0  0  0  0  0  0  0  0  0
    0.0809   -0.5014   -4.9373 C   0  0  0  0  0  0  0  0  0  0  0  0
    0.1789   -0.1686   -6.2933 C   0  0  0  0  0  0  0  0  0  0  0  0
   -0.6399   -0.8080   -7.1909 C   0  0  0  0  0  0  0  0  0  0  0  0
   -1.5052   -1.7643   -6.7020 C   0  0  0  0  0  0  0  0  0  0  0  0
   -2.3016   -2.3789   -7.5957 O   0  0  0  0  0  0  0  0  0  0  0  0
   -1.5809   -2.1029   -5.3511 C   0  0  0  0  0  0  0  0  0  0  0  0
   -0.7665   -1.4649   -4.4460 C   0  0  0  0  0  0  0  0  0  0  0  0
   -2.2506   -2.1513   -8.5032 H   0  0  0  0  0  0  0  0  0  0  0  0
   -0.6353   -0.5027   -8.6994 C   0  0  0  0  0  0  0  0  0  0  0  0
   -1.4624    0.7466   -8.9878 C   0  0  0  0  0  0  0  0  0  0  0  0
    0.8048   -0.3059   -9.1476 C   0  0  0  0  0  0  0  0  0  0  0  0
 12 13  2  0  0  0
 12 11  1  0  0  0
 10 12  1  0  0  0
  9 10  1  0  0  0
  1  9  1  0  0  0
  2  1  1  0  0  0
  3  2  2  0  0  0
  4  3  1  0  0  0
  5  6  2  0  0  0
  5  3  1  0  0  0
  6  7  1  0  0  0
  7  1  2  0  0  0
  8  6  1  0  0  0
 15  5  1  0  0  0
 16 22  1  0  0  0
 16 15  1  0  0  0
 17 16  2  0  0  0
 18 19  2  0  0  0
 18 17  1  0  0  0
 24 18  1  0  0  0
 24 26  1  0  0  0
 25 24  1  0  0  0
 19 21  1  0  0  0
 20 19  1  0  0  0
 21 22  2  0  0  0
 11 14  1  0  0  0
 20 23  1  0  0  0
M  END
> <minimizedAffinity>
-8.19275

$$$$
3NES_B72_A_1


 26 27  0  0  0  0  0  0  0  0999 V2000
   -1.2984    1.1470    0.0166 C   0  0  0  0  0  0  0  0  0  0  0  0
   -1.4528    1.9368   -1.1149 C   0  0  0  0  0  0  0  0  0  0  0  0
   -0.7795    1.6014   -2.2827 C   0  0  0  0  0  0  0  0  0  0  0  0
   -0.9669    2.4909   -3.5230 C   0  0  0  0  0  0  0  0  0  0  0  0
    0.0615    0.4798   -2.3303 C   0  0  0  0  0  0  0  0  0  0  0  0
    0.2322   -0.2894   -1.1891 C   0  0  0  0  0  0  0  0  0  0  0  0
   -0.4532    0.0400   -0.0263 C   0  0  0  0  0  0  0  0  0  0  0  0
    1.1629   -1.5152   -1.2048 C   0  0  0  0  0  0  0  0  0  0  0  0
   -1.9620    1.4425    1.1882 O   0  0  0  0  0  0  0  0  0  0  0  0
   -3.0137    2.4629    1.1671 C   0  0  0  0  0  0  0  0  0  0  0  0
   -4.9025    0.9851    1.0556 O   0  0  0  0  0  0  0  0  0  0  0  0
   -4.4785    2.1384    0.8233 C   0  0  0  0  0  0  0  0  0  0  0  0
   -5.1853    3.0445    0.3331 O   0  0  0  0  0  0  0  0  0  0  0  0
   -4.3305    0.3412    1.4245 H   0  0  0  0  0  0  0  0  0  0  0  0
    0.8523    0.1540   -3.5912 C   0  0  0  0  0  0  0  0  0  0  0  0
    0.0325   -0.4905   -4.6609 C   0  0  0  0  0  0  0  0  0  0  0  0
    0.1996   -0.0790   -5.9883 C   0  0  0  0  0  0  0  0  0  0  0  0
   -0.5442   -0.6897   -6.9674 C   0  0  0  0  0  0  0  0  0  0  0  0
   -1.4060   -1.6963   -6.5848 C   0  0  0  0  0  0  0  0  0  0  0  0
   -2.1285   -2.2818   -7.5574 O   0  0  0  0  0  0  0  0  0  0  0  0
   -1.5503   -2.1126   -5.2614 C   0  0  0  0  0  0  0  0  0  0  0  0
   -0.8114   -1.5038   -4.2751 C   0  0  0  0  0  0  0  0  0  0  0  0
   -2.0313   -2.0020   -8.4463 H   0  0  0  0  0  0  0  0  0  0  0  0
   -0.4605   -0.2997   -8.4539 C   0  0  0  0  0  0  0  0  0  0  0  0
   -1.3812    0.8821   -8.7424 C   0  0  0  0  0  0  0  0  0  0  0  0
    0.9825    0.0545   -8.7793 C   0  0  0  0  0  0  0  0  0  0  0  0
 12 13  2  0  0  0
 12 11  1  0  0  0
 10 12  1  0  0  0
  9 10  1  0  0  0
  1  9  1  0  0  0
  2  1  1  0  0  0
  3  2  2  0  0  0
  4  3  1  0  0  0
  5  6  2  0  0  0
  5  3  1  0  0  0
  6  7  1  0  0  0
  7  1  2  0  0  0
  8  6  1  0  0  0
 15  5  1  0  0  0
 16 22  1  0  0  0
 16 15  1  0  0  0
 17 16  2  0  0  0
 18 19  2  0  0  0
 18 17  1  0  0  0
 24 18  1  0  0  0
 24 26  1  0  0  0
 25 24  1  0  0  0
 19 21  1  0  0  0
 20 19  1  0  0  0
 21 22  2  0  0  0
 11 14  1  0  0  0
 20 23  1  0  0  0
M  END
> <minimizedAffinity>
-8.14518

$$$$
3NES_B72_A_1


 26 27  0  0  0  0  0  0  0  0999 V2000
   -0.1349   -0.1700   -7.5059 C   0  0  0  0  0  0  0  0  0  0  0  0
   -0.9274   -1.1684   -6.9553 C   0  0  0  0  0  0  0  0  0  0  0  0
   -0.9621   -1.3346   -5.5766 C   0  0  0  0  0  0  0  0  0  0  0  0
   -1.8477   -2.4466   -4.9903 C   0  0  0  0  0  0  0  0  0  0  0  0
   -0.1995   -0.5120   -4.7344 C   0  0  0  0  0  0  0  0  0  0  0  0
    0.6103    0.4658   -5.2923 C   0  0  0  0  0  0  0  0  0  0  0  0
    0.6326    0.6393   -6.6705 C   0  0  0  0  0  0  0  0  0  0  0  0
    1.4729    1.3716   -4.3953 C   0  0  0  0  0  0  0  0  0  0  0  0
   -0.0871    0.0320   -8.8687 O   0  0  0  0  0  0  0  0  0  0  0  0
   -0.8238    1.1616   -9.4423 C   0  0  0  0  0  0  0  0  0  0  0  0
   -0.8136    3.4015  -10.3061 O   0  0  0  0  0  0  0  0  0  0  0  0
   -0.1984    2.5568   -9.6192 C   0  0  0  0  0  0  0  0  0  0  0  0
    0.8953    2.7894   -9.0619 O   0  0  0  0  0  0  0  0  0  0  0  0
   -1.6317    3.1762  -10.7033 H   0  0  0  0  0  0  0  0  0  0  0  0
   -0.1859   -0.7412   -3.2281 C   0  0  0  0  0  0  0  0  0  0  0  0
   -1.1282    0.1447   -2.4804 C   0  0  0  0  0  0  0  0  0  0  0  0
   -0.8676    0.4364   -1.1365 C   0  0  0  0  0  0  0  0  0  0  0  0
   -1.7283    1.2666   -0.4621 C   0  0  0  0  0  0  0  0  0  0  0  0
   -2.7985    1.7855   -1.1605 C   0  0  0  0  0  0  0  0  0  0  0  0
   -3.6329    2.5952   -0.4830 O   0  0  0  0  0  0  0  0  0  0  0  0
   -3.0381    1.5044   -2.5055 C   0  0  0  0  0  0  0  0  0  0  0  0
   -2.1824    0.6716   -3.1865 C   0  0  0  0  0  0  0  0  0  0  0  0
   -3.4717    2.7839    0.4206 H   0  0  0  0  0  0  0  0  0  0  0  0
   -1.5533    1.6336    1.0223 C   0  0  0  0  0  0  0  0  0  0  0  0
   -2.1281    0.5335    1.9095 C   0  0  0  0  0  0  0  0  0  0  0  0
   -0.0702    1.8249    1.3004 C   0  0  0  0  0  0  0  0  0  0  0  0
 12 13  2  0  0  0
 12 11  1  0  0  0
 10 12  1  0  0  0
  9 10  1  0  0  0
  1  9  1  0  0  0
  2  1  1  0  0  0
  3  2  2  0  0  0
  4  3  1  0  0  0
  5  6  2  0  0  0
  5  3  1  0  0  0
  6  7  1  0  0  0
  7  1  2  0  0  0
  8  6  1  0  0  0
 15  5  1  0  0  0
 16 22  1  0  0  0
 16 15  1  0  0  0
 17 16  2  0  0  0
 18 19  2  0  0  0
 18 17  1  0  0  0
 24 18  1  0  0  0
 24 26  1  0  0  0
 25 24  1  0  0  0
 19 21  1  0  0  0
 20 19  1  0  0  0
 21 22  2  0  0  0
 11 14  1  0  0  0
 20 23  1  0  0  0
M  END
> <minimizedAffinity>
-8.14372

$$$$
3NES_B72_A_1


 26 27  0  0  0  0  0  0  0  0999 V2000
   -0.2754   -0.0453   -0.2839 C   0  0  0  0  0  0  0  0  0  0  0  0
    0.7596   -0.7386   -0.8971 C   0  0  0  0  0  0  0  0  0  0  0  0
    1.0903   -0.4526   -2.2157 C   0  0  0  0  0  0  0  0  0  0  0  0
    2.2408   -1.2330   -2.8730 C   0  0  0  0  0  0  0  0  0  0  0  0
    0.3856    0.5216   -2.9380 C   0  0  0  0  0  0  0  0  0  0  0  0
   -0.6644    1.1916   -2.3281 C   0  0  0  0  0  0  0  0  0  0  0  0
   -0.9841    0.9137   -1.0050 C   0  0  0  0  0  0  0  0  0  0  0  0
   -1.4684    2.2525   -3.1007 C   0  0  0  0  0  0  0  0  0  0  0  0
   -0.6214   -0.2937    1.0271 O   0  0  0  0  0  0  0  0  0  0  0  0
   -1.4680    0.6740    1.7304 C   0  0  0  0  0  0  0  0  0  0  0  0
   -3.3123   -0.3302    2.8939 O   0  0  0  0  0  0  0  0  0  0  0  0
   -2.9704    0.4419    1.9715 C   0  0  0  0  0  0  0  0  0  0  0  0
   -3.7861    1.0415    1.2394 O   0  0  0  0  0  0  0  0  0  0  0  0
   -2.6600   -0.7558    3.4146 H   0  0  0  0  0  0  0  0  0  0  0  0
    0.7047    0.7845   -4.4045 C   0  0  0  0  0  0  0  0  0  0  0  0
   -0.0338   -0.1097   -5.3462 C   0  0  0  0  0  0  0  0  0  0  0  0
    0.1608    0.0424   -6.7239 C   0  0  0  0  0  0  0  0  0  0  0  0
   -0.5074   -0.7959   -7.5816 C   0  0  0  0  0  0  0  0  0  0  0  0
   -1.3235   -1.7611   -7.0297 C   0  0  0  0  0  0  0  0  0  0  0  0
   -1.9722   -2.5722   -7.8853 O   0  0  0  0  0  0  0  0  0  0  0  0
   -1.4950   -1.9173   -5.6543 C   0  0  0  0  0  0  0  0  0  0  0  0
   -0.8318   -1.0797   -4.7894 C   0  0  0  0  0  0  0  0  0  0  0  0
   -1.8568   -2.4671   -8.8092 H   0  0  0  0  0  0  0  0  0  0  0  0
   -0.3885   -0.7016   -9.1132 C   0  0  0  0  0  0  0  0  0  0  0  0
   -1.1313    0.5286   -9.6257 C   0  0  0  0  0  0  0  0  0  0  0  0
    1.0860   -0.6271   -9.4790 C   0  0  0  0  0  0  0  0  0  0  0  0
 12 13  2  0  0  0
 12 11  1  0  0  0
 10 12  1  0  0  0
  9 10  1  0  0  0
  1  9  1  0  0  0
  2  1  1  0  0  0
  3  2  2  0  0  0
  4  3  1  0  0  0
  5  6  2  0  0  0
  5  3  1  0  0  0
  6  7  1  0  0  0
  7  1  2  0  0  0
  8  6  1  0  0  0
 15  5  1  0  0  0
 16 22  1  0  0  0
 16 15  1  0  0  0
 17 16  2  0  0  0
 18 19  2  0  0  0
 18 17  1  0  0  0
 24 18  1  0  0  0
 24 26  1  0  0  0
 25 24  1  0  0  0
 19 21  1  0  0  0
 20 19  1  0  0  0
 21 22  2  0  0  0
 11 14  1  0  0  0
 20 23  1  0  0  0
M  END
> <minimizedAffinity>
-8.12418

$$$$
3NES_B72_A_1


 26 27  0  0  0  0  0  0  0  0999 V2000
    0.1310    0.1833   -7.4660 C   0  0  0  0  0  0  0  0  0  0  0  0
    0.9182    1.1814   -6.9074 C   0  0  0  0  0  0  0  0  0  0  0  0
    0.9494    1.3388   -5.5276 C   0  0  0  0  0  0  0  0  0  0  0  0
    1.8293    2.4507   -4.9323 C   0  0  0  0  0  0  0  0  0  0  0  0
    0.1886    0.5077   -4.6922 C   0  0  0  0  0  0  0  0  0  0  0  0
   -0.6161   -0.4698   -5.2580 C   0  0  0  0  0  0  0  0  0  0  0  0
   -0.6350   -0.6345   -6.6374 C   0  0  0  0  0  0  0  0  0  0  0  0
   -1.4768   -1.3848   -4.3686 C   0  0  0  0  0  0  0  0  0  0  0  0
    0.0867   -0.0101   -8.8302 O   0  0  0  0  0  0  0  0  0  0  0  0
    0.8301   -1.1322   -9.4097 C   0  0  0  0  0  0  0  0  0  0  0  0
    0.8359   -3.3650  -10.2920 O   0  0  0  0  0  0  0  0  0  0  0  0
    0.2071   -2.5252   -9.6114 C   0  0  0  0  0  0  0  0  0  0  0  0
   -0.8985   -2.7609   -9.0795 O   0  0  0  0  0  0  0  0  0  0  0  0
    1.6626   -3.1374  -10.6698 H   0  0  0  0  0  0  0  0  0  0  0  0
    0.1709    0.7271   -3.1846 C   0  0  0  0  0  0  0  0  0  0  0  0
    1.1156   -0.1594   -2.4407 C   0  0  0  0  0  0  0  0  0  0  0  0
    0.8615   -0.4491   -1.0951 C   0  0  0  0  0  0  0  0  0  0  0  0
    1.7245   -1.2798   -0.4242 C   0  0  0  0  0  0  0  0  0  0  0  0
    2.7902   -1.8012   -1.1274 C   0  0  0  0  0  0  0  0  0  0  0  0
    3.6268   -2.6115   -0.4533 O   0  0  0  0  0  0  0  0  0  0  0  0
    3.0233   -1.5221   -2.4740 C   0  0  0  0  0  0  0  0  0  0  0  0
    2.1655   -0.6888   -3.1516 C   0  0  0  0  0  0  0  0  0  0  0  0
    3.4700   -2.7989    0.4513 H   0  0  0  0  0  0  0  0  0  0  0  0
    1.5565   -1.6449    1.0615 C   0  0  0  0  0  0  0  0  0  0  0  0
    2.1559   -0.5543    1.9442 C   0  0  0  0  0  0  0  0  0  0  0  0
    0.0730   -1.8132    1.3523 C   0  0  0  0  0  0  0  0  0  0  0  0
 12 13  2  0  0  0
 12 11  1  0  0  0
 10 12  1  0  0  0
  9 10  1  0  0  0
  1  9  1  0  0  0
  2  1  1  0  0  0
  3  2  2  0  0  0
  4  3  1  0  0  0
  5  6  2  0  0  0
  5  3  1  0  0  0
  6  7  1  0  0  0
  7  1  2  0  0  0
  8  6  1  0  0  0
 15  5  1  0  0  0
 16 22  1  0  0  0
 16 15  1  0  0  0
 17 16  2  0  0  0
 18 19  2  0  0  0
 18 17  1  0  0  0
 24 18  1  0  0  0
 24 26  1  0  0  0
 25 24  1  0  0  0
 19 21  1  0  0  0
 20 19  1  0  0  0
 21 22  2  0  0  0
 11 14  1  0  0  0
 20 23  1  0  0  0
M  END
> <minimizedAffinity>
-8.11195

$$$$
3NES_B72_A_1


 26 27  0  0  0  0  0  0  0  0999 V2000
    1.2676   -1.3672   -0.0577 C   0  0  0  0  0  0  0  0  0  0  0  0
    1.4225   -2.1154   -1.2171 C   0  0  0  0  0  0  0  0  0  0  0  0
    0.7728   -1.7211   -2.3799 C   0  0  0  0  0  0  0  0  0  0  0  0
    0.9603   -2.5653   -3.6514 C   0  0  0  0  0  0  0  0  0  0  0  0
   -0.0449   -0.5816   -2.3949 C   0  0  0  0  0  0  0  0  0  0  0  0
   -0.2166    0.1460   -1.2268 C   0  0  0  0  0  0  0  0  0  0  0  0
    0.4453   -0.2423   -0.0687 C   0  0  0  0  0  0  0  0  0  0  0  0
   -1.1225    1.3902   -1.2071 C   0  0  0  0  0  0  0  0  0  0  0  0
    1.9082   -1.7216    1.1104 O   0  0  0  0  0  0  0  0  0  0  0  0
    3.1494   -2.4965    1.0289 C   0  0  0  0  0  0  0  0  0  0  0  0
    4.9617   -2.4488   -0.5450 O   0  0  0  0  0  0  0  0  0  0  0  0
    4.4575   -1.9124    0.4659 C   0  0  0  0  0  0  0  0  0  0  0  0
    4.9569   -0.9209    1.0388 O   0  0  0  0  0  0  0  0  0  0  0  0
    4.5468   -3.1917   -0.9373 H   0  0  0  0  0  0  0  0  0  0  0  0
   -0.8110   -0.1909   -3.6526 C   0  0  0  0  0  0  0  0  0  0  0  0
    0.0236    0.5290   -4.6611 C   0  0  0  0  0  0  0  0  0  0  0  0
   -0.0516    0.1467   -6.0055 C   0  0  0  0  0  0  0  0  0  0  0  0
    0.7045    0.8260   -6.9283 C   0  0  0  0  0  0  0  0  0  0  0  0
    1.4860    1.8683   -6.4756 C   0  0  0  0  0  0  0  0  0  0  0  0
    2.2220    2.5212   -7.3936 O   0  0  0  0  0  0  0  0  0  0  0  0
    1.5385    2.2543   -5.1362 C   0  0  0  0  0  0  0  0  0  0  0  0
    0.7867    1.5770   -4.2059 C   0  0  0  0  0  0  0  0  0  0  0  0
    2.1865    2.2617   -8.2933 H   0  0  0  0  0  0  0  0  0  0  0  0
    0.7192    0.4744   -8.4267 C   0  0  0  0  0  0  0  0  0  0  0  0
    1.7314   -0.6342   -8.6989 C   0  0  0  0  0  0  0  0  0  0  0  0
   -0.6789    0.0338   -8.8327 C   0  0  0  0  0  0  0  0  0  0  0  0
 12 13  2  0  0  0
 12 11  1  0  0  0
 10 12  1  0  0  0
  9 10  1  0  0  0
  1  9  1  0  0  0
  2  1  1  0  0  0
  3  2  2  0  0  0
  4  3  1  0  0  0
  5  6  2  0  0  0
  5  3  1  0  0  0
  6  7  1  0  0  0
  7  1  2  0  0  0
  8  6  1  0  0  0
 15  5  1  0  0  0
 16 22  1  0  0  0
 16 15  1  0  0  0
 17 16  2  0  0  0
 18 19  2  0  0  0
 18 17  1  0  0  0
 24 18  1  0  0  0
 24 26  1  0  0  0
 25 24  1  0  0  0
 19 21  1  0  0  0
 20 19  1  0  0  0
 21 22  2  0  0  0
 11 14  1  0  0  0
 20 23  1  0  0  0
M  END
> <minimizedAffinity>
-8.06471

$$$$
3NES_B72_A_1


 26 27  0  0  0  0  0  0  0  0999 V2000
   -0.1295   -0.0963   -0.3109 C   0  0  0  0  0  0  0  0  0  0  0  0
    0.9126   -0.7304   -0.9743 C   0  0  0  0  0  0  0  0  0  0  0  0
    1.1711   -0.4176   -2.3029 C   0  0  0  0  0  0  0  0  0  0  0  0
    2.3309   -1.1325   -3.0161 C   0  0  0  0  0  0  0  0  0  0  0  0
    0.3869    0.5242   -2.9851 C   0  0  0  0  0  0  0  0  0  0  0  0
   -0.6690    1.1342   -2.3245 C   0  0  0  0  0  0  0  0  0  0  0  0
   -0.9169    0.8301   -0.9918 C   0  0  0  0  0  0  0  0  0  0  0  0
   -1.5590    2.1579   -3.0519 C   0  0  0  0  0  0  0  0  0  0  0  0
   -0.4056   -0.3722    1.0111 O   0  0  0  0  0  0  0  0  0  0  0  0
    0.6560   -0.9297    1.8537 C   0  0  0  0  0  0  0  0  0  0  0  0
    2.6927    0.3010    2.1712 O   0  0  0  0  0  0  0  0  0  0  0  0
    1.6066   -0.0481    2.6834 C   0  0  0  0  0  0  0  0  0  0  0  0
    1.2491    0.2884    3.8322 O   0  0  0  0  0  0  0  0  0  0  0  0
    2.9136    0.0210    1.3048 H   0  0  0  0  0  0  0  0  0  0  0  0
    0.6287    0.8143   -4.4611 C   0  0  0  0  0  0  0  0  0  0  0  0
   -0.1124   -0.1019   -5.3794 C   0  0  0  0  0  0  0  0  0  0  0  0
   -0.0120    0.0918   -6.7620 C   0  0  0  0  0  0  0  0  0  0  0  0
   -0.6812   -0.7663   -7.5991 C   0  0  0  0  0  0  0  0  0  0  0  0
   -1.4038   -1.7907   -7.0240 C   0  0  0  0  0  0  0  0  0  0  0  0
   -2.0550   -2.6205   -7.8596 O   0  0  0  0  0  0  0  0  0  0  0  0
   -1.4811   -1.9869   -5.6452 C   0  0  0  0  0  0  0  0  0  0  0  0
   -0.8164   -1.1301   -4.8006 C   0  0  0  0  0  0  0  0  0  0  0  0
   -2.0029   -2.4884   -8.7858 H   0  0  0  0  0  0  0  0  0  0  0  0
   -0.6622   -0.6315   -9.1322 C   0  0  0  0  0  0  0  0  0  0  0  0
   -1.0702    0.7800   -9.5432 C   0  0  0  0  0  0  0  0  0  0  0  0
    0.7407   -0.9482   -9.6271 C   0  0  0  0  0  0  0  0  0  0  0  0
 12 13  2  0  0  0
 12 11  1  0  0  0
 10 12  1  0  0  0
  9 10  1  0  0  0
  1  9  1  0  0  0
  2  1  1  0  0  0
  3  2  2  0  0  0
  4  3  1  0  0  0
  5  6  2  0  0  0
  5  3  1  0  0  0
  6  7  1  0  0  0
  7  1  2  0  0  0
  8  6  1  0  0  0
 15  5  1  0  0  0
 16 22  1  0  0  0
 16 15  1  0  0  0
 17 16  2  0  0  0
 18 19  2  0  0  0
 18 17  1  0  0  0
 24 18  1  0  0  0
 24 26  1  0  0  0
 25 24  1  0  0  0
 19 21  1  0  0  0
 20 19  1  0  0  0
 21 22  2  0  0  0
 11 14  1  0  0  0
 20 23  1  0  0  0
M  END
> <minimizedAffinity>
-8.06032

$$$$
3NES_B72_A_1


 26 27  0  0  0  0  0  0  0  0999 V2000
   -0.5018    0.1963   -7.5654 C   0  0  0  0  0  0  0  0  0  0  0  0
    0.2962    1.0567   -6.8231 C   0  0  0  0  0  0  0  0  0  0  0  0
    0.4786    0.8235   -5.4658 C   0  0  0  0  0  0  0  0  0  0  0  0
    1.3673    1.7897   -4.6650 C   0  0  0  0  0  0  0  0  0  0  0  0
   -0.1406   -0.2651   -4.8342 C   0  0  0  0  0  0  0  0  0  0  0  0
   -0.9577   -1.1051   -5.5759 C   0  0  0  0  0  0  0  0  0  0  0  0
   -1.1275   -0.8780   -6.9360 C   0  0  0  0  0  0  0  0  0  0  0  0
   -1.6657   -2.2971   -4.9072 C   0  0  0  0  0  0  0  0  0  0  0  0
   -0.6937    0.3897   -8.9167 O   0  0  0  0  0  0  0  0  0  0  0  0
   -0.4387   -0.7247   -9.8336 C   0  0  0  0  0  0  0  0  0  0  0  0
    0.6582   -2.8586   -9.9168 O   0  0  0  0  0  0  0  0  0  0  0  0
    0.7983   -1.6328   -9.7131 C   0  0  0  0  0  0  0  0  0  0  0  0
    1.8931   -1.1050   -9.4239 O   0  0  0  0  0  0  0  0  0  0  0  0
   -0.1858   -3.2045  -10.1309 H   0  0  0  0  0  0  0  0  0  0  0  0
    0.0052   -0.4786   -3.3327 C   0  0  0  0  0  0  0  0  0  0  0  0
   -0.9857    0.2902   -2.5209 C   0  0  0  0  0  0  0  0  0  0  0  0
   -0.7440    0.4842   -1.1560 C   0  0  0  0  0  0  0  0  0  0  0  0
   -1.6502    1.2080   -0.4214 C   0  0  0  0  0  0  0  0  0  0  0  0
   -2.7460    1.7235   -1.0816 C   0  0  0  0  0  0  0  0  0  0  0  0
   -3.6247    2.4281   -0.3454 O   0  0  0  0  0  0  0  0  0  0  0  0
   -2.9673    1.5412   -2.4466 C   0  0  0  0  0  0  0  0  0  0  0  0
   -2.0660    0.8151   -3.1882 C   0  0  0  0  0  0  0  0  0  0  0  0
   -3.4758    2.5504    0.5716 H   0  0  0  0  0  0  0  0  0  0  0  0
   -1.4984    1.4609    1.0892 C   0  0  0  0  0  0  0  0  0  0  0  0
   -1.8500    0.2004    1.8735 C   0  0  0  0  0  0  0  0  0  0  0  0
   -0.0628    1.8802    1.3663 C   0  0  0  0  0  0  0  0  0  0  0  0
 12 13  2  0  0  0
 12 11  1  0  0  0
 10 12  1  0  0  0
  9 10  1  0  0  0
  1  9  1  0  0  0
  2  1  1  0  0  0
  3  2  2  0  0  0
  4  3  1  0  0  0
  5  6  2  0  0  0
  5  3  1  0  0  0
  6  7  1  0  0  0
  7  1  2  0  0  0
  8  6  1  0  0  0
 15  5  1  0  0  0
 16 22  1  0  0  0
 16 15  1  0  0  0
 17 16  2  0  0  0
 18 19  2  0  0  0
 18 17  1  0  0  0
 24 18  1  0  0  0
 24 26  1  0  0  0
 25 24  1  0  0  0
 19 21  1  0  0  0
 20 19  1  0  0  0
 21 22  2  0  0  0
 11 14  1  0  0  0
 20 23  1  0  0  0
M  END
> <minimizedAffinity>
-7.99113

$$$$
3NES_B72_A_1


 26 27  0  0  0  0  0  0  0  0999 V2000
    0.1635    0.0743   -0.1810 C   0  0  0  0  0  0  0  0  0  0  0  0
   -0.8599    0.8288   -0.7389 C   0  0  0  0  0  0  0  0  0  0  0  0
   -1.2082    0.6347   -2.0696 C   0  0  0  0  0  0  0  0  0  0  0  0
   -2.3453    1.4817   -2.6649 C   0  0  0  0  0  0  0  0  0  0  0  0
   -0.5328   -0.3077   -2.8590 C   0  0  0  0  0  0  0  0  0  0  0  0
    0.5061   -1.0390   -2.3030 C   0  0  0  0  0  0  0  0  0  0  0  0
    0.8434   -0.8531   -0.9681 C   0  0  0  0  0  0  0  0  0  0  0  0
    1.2785   -2.0670   -3.1490 C   0  0  0  0  0  0  0  0  0  0  0  0
    0.5262    0.2309    1.1397 O   0  0  0  0  0  0  0  0  0  0  0  0
    1.4440   -0.7406    1.7409 C   0  0  0  0  0  0  0  0  0  0  0  0
    3.1680    0.4555    2.9074 O   0  0  0  0  0  0  0  0  0  0  0  0
    2.9173   -0.4137    2.0441 C   0  0  0  0  0  0  0  0  0  0  0  0
    3.8017   -1.0369    1.4194 O   0  0  0  0  0  0  0  0  0  0  0  0
    2.4669    0.8944    3.3477 H   0  0  0  0  0  0  0  0  0  0  0  0
   -0.8701   -0.4694   -4.3360 C   0  0  0  0  0  0  0  0  0  0  0  0
    0.0028    0.3381   -5.2402 C   0  0  0  0  0  0  0  0  0  0  0  0
    0.0164    0.0500   -6.6099 C   0  0  0  0  0  0  0  0  0  0  0  0
    0.8071    0.8092   -7.4364 C   0  0  0  0  0  0  0  0  0  0  0  0
    1.5332    1.8340   -6.8664 C   0  0  0  0  0  0  0  0  0  0  0  0
    2.3043    2.5661   -7.6912 O   0  0  0  0  0  0  0  0  0  0  0  0
    1.4971    2.1256   -5.5029 C   0  0  0  0  0  0  0  0  0  0  0  0
    0.7103    1.3679   -4.6686 C   0  0  0  0  0  0  0  0  0  0  0  0
    2.3283    2.3700   -8.6071 H   0  0  0  0  0  0  0  0  0  0  0  0
    0.9187    0.5646   -8.9518 C   0  0  0  0  0  0  0  0  0  0  0  0
    1.0903   -0.9247   -9.2350 C   0  0  0  0  0  0  0  0  0  0  0  0
   -0.3407    1.0946   -9.6201 C   0  0  0  0  0  0  0  0  0  0  0  0
 12 13  2  0  0  0
 12 11  1  0  0  0
 10 12  1  0  0  0
  9 10  1  0  0  0
  1  9  1  0  0  0
  2  1  1  0  0  0
  3  2  2  0  0  0
  4  3  1  0  0  0
  5  6  2  0  0  0
  5  3  1  0  0  0
  6  7  1  0  0  0
  7  1  2  0  0  0
  8  6  1  0  0  0
 15  5  1  0  0  0
 16 22  1  0  0  0
 16 15  1  0  0  0
 17 16  2  0  0  0
 18 19  2  0  0  0
 18 17  1  0  0  0
 24 18  1  0  0  0
 24 26  1  0  0  0
 25 24  1  0  0  0
 19 21  1  0  0  0
 20 19  1  0  0  0
 21 22  2  0  0  0
 11 14  1  0  0  0
 20 23  1  0  0  0
M  END
> <minimizedAffinity>
-7.98455

$$$$
