1K4H_APQ_A_900


 23 24  0  0  0  0  0  0  0  0999 V2000
   15.7592   16.9321   20.4393 C   0  0  0  0  0  0  0  0  0  0  0  0
   15.9930   16.9999   21.8369 C   0  0  0  0  0  0  0  0  0  0  0  0
   14.9577   16.8467   22.7416 N   0  0  0  0  0  0  0  0  0  0  0  0
   15.1074   16.8974   24.0216 C   0  0  0  0  0  0  0  0  0  0  0  0
   16.3117   17.1003   24.5813 N   0  0  0  0  0  0  0  0  0  0  0  0
   17.4196   17.2626   23.8517 C   0  0  0  0  0  0  0  0  0  0  0  0
   18.5286   17.4516   24.3642 O   0  0  0  0  0  0  0  0  0  0  0  0
   17.3106   17.2138   22.3312 C   0  0  0  0  0  0  0  0  0  0  0  0
   18.4069   17.3729   21.4390 C   0  0  0  0  0  0  0  0  0  0  0  0
   18.1703   17.3075   20.0396 C   0  0  0  0  0  0  0  0  0  0  0  0
   19.1787   17.4527   19.1453 N   0  0  0  0  0  0  0  0  0  0  0  0
   16.8579   17.0934   19.5693 C   0  0  0  0  0  0  0  0  0  0  0  0
   14.0601   16.7430   24.7919 N   0  0  0  0  0  0  0  0  0  0  0  0
   16.3806   17.1304   25.5629 H   0  0  0  0  0  0  0  0  0  0  0  0
   20.0990   17.6026   19.4612 H   0  0  0  0  0  0  0  0  0  0  0  0
   18.9907   17.4083   18.1799 H   0  0  0  0  0  0  0  0  0  0  0  0
   13.1728   16.5938   24.3922 H   0  0  0  0  0  0  0  0  0  0  0  0
   14.1597   16.7761   25.7708 H   0  0  0  0  0  0  0  0  0  0  0  0
   14.3006   16.7066   19.9470 C   0  0  0  0  0  0  0  0  0  0  0  0
   13.9280   15.1921   18.9425 S   0  0  0  0  0  0  0  0  0  0  0  0
   12.7149   15.6403   17.6705 C   0  0  0  0  0  0  0  0  0  0  0  0
   12.1996   17.0770   17.9518 C   0  0  0  0  0  0  0  0  0  0  0  0
   12.6844   18.0141   16.8059 C   0  0  0  0  0  0  0  0  0  0  0  0
 21 22  1  0  0  0
 21 20  1  0  0  0
 22 23  1  0  0  0
 20 19  1  0  0  0
 19  1  1  0  0  0
  1  2  1  0  0  0
  1 12  2  0  0  0
  2  3  1  0  0  0
  2  8  2  0  0  0
  3  4  2  0  0  0
  4  5  1  0  0  0
  4 13  1  0  0  0
  5  6  1  0  0  0
  6  7  2  0  0  0
  6  8  1  0  0  0
  8  9  1  0  0  0
  9 10  2  0  0  0
 10 11  1  0  0  0
 10 12  1  0  0  0
  5 14  1  0  0  0
 11 15  1  0  0  0
 11 16  1  0  0  0
 13 17  1  0  0  0
 13 18  1  0  0  0
M  END
> <minimizedAffinity>
-8.25454

$$$$
1K4H_APQ_A_900


 23 24  0  0  0  0  0  0  0  0999 V2000
   15.0606   16.6550   20.9296 C   0  0  0  0  0  0  0  0  0  0  0  0
   16.3106   16.9735   21.5199 C   0  0  0  0  0  0  0  0  0  0  0  0
   17.4420   17.1491   20.7435 N   0  0  0  0  0  0  0  0  0  0  0  0
   18.6043   17.4398   21.2211 C   0  0  0  0  0  0  0  0  0  0  0  0
   18.8016   17.6044   22.5397 N   0  0  0  0  0  0  0  0  0  0  0  0
   17.8139   17.4762   23.4307 C   0  0  0  0  0  0  0  0  0  0  0  0
   17.9933   17.6250   24.6448 O   0  0  0  0  0  0  0  0  0  0  0  0
   16.4146   17.1327   22.9306 C   0  0  0  0  0  0  0  0  0  0  0  0
   15.2775   16.9658   23.7687 C   0  0  0  0  0  0  0  0  0  0  0  0
   14.0271   16.6440   23.1760 C   0  0  0  0  0  0  0  0  0  0  0  0
   12.9120   16.4736   23.9279 N   0  0  0  0  0  0  0  0  0  0  0  0
   13.9439   16.4919   21.7761 C   0  0  0  0  0  0  0  0  0  0  0  0
   19.6133   17.5815   20.3990 N   0  0  0  0  0  0  0  0  0  0  0  0
   19.7052   17.8273   22.8608 H   0  0  0  0  0  0  0  0  0  0  0  0
   12.9573   16.5771   24.9059 H   0  0  0  0  0  0  0  0  0  0  0  0
   12.0570   16.2465   23.4960 H   0  0  0  0  0  0  0  0  0  0  0  0
   19.4798   17.4631   19.4308 H   0  0  0  0  0  0  0  0  0  0  0  0
   20.5056   17.8066   20.7490 H   0  0  0  0  0  0  0  0  0  0  0  0
   14.9989   16.4815   19.3848 C   0  0  0  0  0  0  0  0  0  0  0  0
   14.8176   14.7704   18.6913 S   0  0  0  0  0  0  0  0  0  0  0  0
   13.0568   14.4712   18.3740 C   0  0  0  0  0  0  0  0  0  0  0  0
   12.5260   15.5686   17.4134 C   0  0  0  0  0  0  0  0  0  0  0  0
   12.1347   14.9013   16.0614 C   0  0  0  0  0  0  0  0  0  0  0  0
 21 22  1  0  0  0
 21 20  1  0  0  0
 22 23  1  0  0  0
 20 19  1  0  0  0
 19  1  1  0  0  0
  1  2  1  0  0  0
  1 12  2  0  0  0
  2  3  1  0  0  0
  2  8  2  0  0  0
  3  4  2  0  0  0
  4  5  1  0  0  0
  4 13  1  0  0  0
  5  6  1  0  0  0
  6  7  2  0  0  0
  6  8  1  0  0  0
  8  9  1  0  0  0
  9 10  2  0  0  0
 10 11  1  0  0  0
 10 12  1  0  0  0
  5 14  1  0  0  0
 11 15  1  0  0  0
 11 16  1  0  0  0
 13 17  1  0  0  0
 13 18  1  0  0  0
M  END
> <minimizedAffinity>
-7.65314

$$$$
1K4H_APQ_A_900


 23 24  0  0  0  0  0  0  0  0999 V2000
   15.6350   16.9821   20.7059 C   0  0  0  0  0  0  0  0  0  0  0  0
   16.8492   17.4831   20.1700 C   0  0  0  0  0  0  0  0  0  0  0  0
   17.0206   17.6275   18.8049 N   0  0  0  0  0  0  0  0  0  0  0  0
   18.0991   18.0772   18.2589 C   0  0  0  0  0  0  0  0  0  0  0  0
   19.1566   18.4541   18.9967 N   0  0  0  0  0  0  0  0  0  0  0  0
   19.1567   18.3848   20.3313 C   0  0  0  0  0  0  0  0  0  0  0  0
   20.1293   18.7289   21.0124 O   0  0  0  0  0  0  0  0  0  0  0  0
   17.9114   17.8611   21.0390 C   0  0  0  0  0  0  0  0  0  0  0  0
   17.7792   17.7342   22.4496 C   0  0  0  0  0  0  0  0  0  0  0  0
   16.5635   17.2295   22.9842 C   0  0  0  0  0  0  0  0  0  0  0  0
   16.3846   17.0879   24.3205 N   0  0  0  0  0  0  0  0  0  0  0  0
   15.5221   16.8617   22.1069 C   0  0  0  0  0  0  0  0  0  0  0  0
   18.1607   18.1718   16.9545 N   0  0  0  0  0  0  0  0  0  0  0  0
   19.9593   18.7930   18.5383 H   0  0  0  0  0  0  0  0  0  0  0  0
   17.1040   17.3411   24.9430 H   0  0  0  0  0  0  0  0  0  0  0  0
   15.5352   16.7318   24.6684 H   0  0  0  0  0  0  0  0  0  0  0  0
   17.3915   17.8984   16.4042 H   0  0  0  0  0  0  0  0  0  0  0  0
   18.9763   18.5163   16.5239 H   0  0  0  0  0  0  0  0  0  0  0  0
   14.5068   16.5730   19.7157 C   0  0  0  0  0  0  0  0  0  0  0  0
   14.5570   14.8767   18.9662 S   0  0  0  0  0  0  0  0  0  0  0  0
   12.9258   14.5226   18.2562 C   0  0  0  0  0  0  0  0  0  0  0  0
   12.5726   15.6326   17.2305 C   0  0  0  0  0  0  0  0  0  0  0  0
   12.1305   14.9581   15.8980 C   0  0  0  0  0  0  0  0  0  0  0  0
 21 22  1  0  0  0
 21 20  1  0  0  0
 22 23  1  0  0  0
 20 19  1  0  0  0
 19  1  1  0  0  0
  1  2  1  0  0  0
  1 12  2  0  0  0
  2  3  1  0  0  0
  2  8  2  0  0  0
  3  4  2  0  0  0
  4  5  1  0  0  0
  4 13  1  0  0  0
  5  6  1  0  0  0
  6  7  2  0  0  0
  6  8  1  0  0  0
  8  9  1  0  0  0
  9 10  2  0  0  0
 10 11  1  0  0  0
 10 12  1  0  0  0
  5 14  1  0  0  0
 11 15  1  0  0  0
 11 16  1  0  0  0
 13 17  1  0  0  0
 13 18  1  0  0  0
M  END
> <minimizedAffinity>
-7.29227

$$$$
1K4H_APQ_A_900


 23 24  0  0  0  0  0  0  0  0999 V2000
   16.2029   16.7893   20.2642 C   0  0  0  0  0  0  0  0  0  0  0  0
   16.0668   16.8608   21.6744 C   0  0  0  0  0  0  0  0  0  0  0  0
   17.1694   17.0463   22.4891 N   0  0  0  0  0  0  0  0  0  0  0  0
   17.1093   17.1200   23.7753 C   0  0  0  0  0  0  0  0  0  0  0  0
   15.9407   17.0271   24.4312 N   0  0  0  0  0  0  0  0  0  0  0  0
   14.7779   16.8520   23.7963 C   0  0  0  0  0  0  0  0  0  0  0  0
   13.7013   16.7641   24.3977 O   0  0  0  0  0  0  0  0  0  0  0  0
   14.7801   16.7565   22.2741 C   0  0  0  0  0  0  0  0  0  0  0  0
   13.6173   16.5693   21.4766 C   0  0  0  0  0  0  0  0  0  0  0  0
   13.7560   16.4950   20.0645 C   0  0  0  0  0  0  0  0  0  0  0  0
   12.6812   16.3172   19.2577 N   0  0  0  0  0  0  0  0  0  0  0  0
   15.0393   16.6021   19.4890 C   0  0  0  0  0  0  0  0  0  0  0  0
   18.2145   17.2937   24.4555 N   0  0  0  0  0  0  0  0  0  0  0  0
   15.9408   17.0901   25.4137 H   0  0  0  0  0  0  0  0  0  0  0  0
   11.7804   16.2411   19.6474 H   0  0  0  0  0  0  0  0  0  0  0  0
   12.8016   16.2642   18.2820 H   0  0  0  0  0  0  0  0  0  0  0  0
   19.0764   17.3631   23.9848 H   0  0  0  0  0  0  0  0  0  0  0  0
   18.1836   17.3550   25.4376 H   0  0  0  0  0  0  0  0  0  0  0  0
   17.6308   16.8987   19.6560 C   0  0  0  0  0  0  0  0  0  0  0  0
   18.1068   18.4674   18.7875 S   0  0  0  0  0  0  0  0  0  0  0  0
   18.0132   18.1758   16.9995 C   0  0  0  0  0  0  0  0  0  0  0  0
   16.5238   18.2008   16.5638 C   0  0  0  0  0  0  0  0  0  0  0  0
   16.3951   19.0686   15.2767 C   0  0  0  0  0  0  0  0  0  0  0  0
 21 22  1  0  0  0
 21 20  1  0  0  0
 22 23  1  0  0  0
 20 19  1  0  0  0
 19  1  1  0  0  0
  1  2  1  0  0  0
  1 12  2  0  0  0
  2  3  1  0  0  0
  2  8  2  0  0  0
  3  4  2  0  0  0
  4  5  1  0  0  0
  4 13  1  0  0  0
  5  6  1  0  0  0
  6  7  2  0  0  0
  6  8  1  0  0  0
  8  9  1  0  0  0
  9 10  2  0  0  0
 10 11  1  0  0  0
 10 12  1  0  0  0
  5 14  1  0  0  0
 11 15  1  0  0  0
 11 16  1  0  0  0
 13 17  1  0  0  0
 13 18  1  0  0  0
M  END
> <minimizedAffinity>
-6.91616

$$$$
1K4H_APQ_A_900


 23 24  0  0  0  0  0  0  0  0999 V2000
   14.9168   16.6219   20.1440 C   0  0  0  0  0  0  0  0  0  0  0  0
   14.4820   16.7394   21.4892 C   0  0  0  0  0  0  0  0  0  0  0  0
   15.3792   16.6555   22.5389 N   0  0  0  0  0  0  0  0  0  0  0  0
   15.0451   16.7552   23.7806 C   0  0  0  0  0  0  0  0  0  0  0  0
   13.7704   16.9604   24.1516 N   0  0  0  0  0  0  0  0  0  0  0  0
   12.7777   17.0712   23.2638 C   0  0  0  0  0  0  0  0  0  0  0  0
   11.6036   17.2579   23.6027 O   0  0  0  0  0  0  0  0  0  0  0  0
   13.1062   16.9621   21.7784 C   0  0  0  0  0  0  0  0  0  0  0  0
   12.1479   17.0594   20.7318 C   0  0  0  0  0  0  0  0  0  0  0  0
   12.5848   16.9385   19.3853 C   0  0  0  0  0  0  0  0  0  0  0  0
   11.7139   17.0231   18.3499 N   0  0  0  0  0  0  0  0  0  0  0  0
   13.9526   16.7195   19.1190 C   0  0  0  0  0  0  0  0  0  0  0  0
   15.9728   16.6579   24.6994 N   0  0  0  0  0  0  0  0  0  0  0  0
   13.5602   17.0317   25.1108 H   0  0  0  0  0  0  0  0  0  0  0  0
   10.7569   17.1757   18.5228 H   0  0  0  0  0  0  0  0  0  0  0  0
   12.0386   16.9318   17.4249 H   0  0  0  0  0  0  0  0  0  0  0  0
   16.9101   16.5075   24.4386 H   0  0  0  0  0  0  0  0  0  0  0  0
   15.7330   16.7352   25.6511 H   0  0  0  0  0  0  0  0  0  0  0  0
   16.4288   16.3691   19.8786 C   0  0  0  0  0  0  0  0  0  0  0  0
   17.5177   17.8226   19.4999 S   0  0  0  0  0  0  0  0  0  0  0  0
   19.2214   17.3847   19.9427 C   0  0  0  0  0  0  0  0  0  0  0  0
   19.2264   16.7601   21.3635 C   0  0  0  0  0  0  0  0  0  0  0  0
   18.5774   17.7708   22.3551 C   0  0  0  0  0  0  0  0  0  0  0  0
 21 22  1  0  0  0
 21 20  1  0  0  0
 22 23  1  0  0  0
 20 19  1  0  0  0
 19  1  1  0  0  0
  1  2  1  0  0  0
  1 12  2  0  0  0
  2  3  1  0  0  0
  2  8  2  0  0  0
  3  4  2  0  0  0
  4  5  1  0  0  0
  4 13  1  0  0  0
  5  6  1  0  0  0
  6  7  2  0  0  0
  6  8  1  0  0  0
  8  9  1  0  0  0
  9 10  2  0  0  0
 10 11  1  0  0  0
 10 12  1  0  0  0
  5 14  1  0  0  0
 11 15  1  0  0  0
 11 16  1  0  0  0
 13 17  1  0  0  0
 13 18  1  0  0  0
M  END
> <minimizedAffinity>
-6.87282

$$$$
1K4H_APQ_A_900


 23 24  0  0  0  0  0  0  0  0999 V2000
   15.2321   17.2207   19.1151 C   0  0  0  0  0  0  0  0  0  0  0  0
   16.5864   17.5624   19.3630 C   0  0  0  0  0  0  0  0  0  0  0  0
   17.4143   17.9858   18.3386 N   0  0  0  0  0  0  0  0  0  0  0  0
   18.6518   18.3103   18.5014 C   0  0  0  0  0  0  0  0  0  0  0  0
   19.2374   18.2664   19.7097 N   0  0  0  0  0  0  0  0  0  0  0  0
   18.5791   17.8848   20.8083 C   0  0  0  0  0  0  0  0  0  0  0  0
   19.1162   17.8414   21.9209 O   0  0  0  0  0  0  0  0  0  0  0  0
   17.1119   17.4875   20.6837 C   0  0  0  0  0  0  0  0  0  0  0  0
   16.2972   17.0615   21.7692 C   0  0  0  0  0  0  0  0  0  0  0  0
   14.9419   16.7170   21.5185 C   0  0  0  0  0  0  0  0  0  0  0  0
   14.1218   16.3046   22.5161 N   0  0  0  0  0  0  0  0  0  0  0  0
   14.4393   16.7990   20.2031 C   0  0  0  0  0  0  0  0  0  0  0  0
   19.3509   18.6956   17.4636 N   0  0  0  0  0  0  0  0  0  0  0  0
   20.1842   18.5243   19.7886 H   0  0  0  0  0  0  0  0  0  0  0  0
   14.4609   16.2432   23.4383 H   0  0  0  0  0  0  0  0  0  0  0  0
   13.1872   16.0666   22.3183 H   0  0  0  0  0  0  0  0  0  0  0  0
   18.9317   18.7315   16.5735 H   0  0  0  0  0  0  0  0  0  0  0  0
   20.2958   18.9495   17.5733 H   0  0  0  0  0  0  0  0  0  0  0  0
   14.7063   17.3089   17.6535 C   0  0  0  0  0  0  0  0  0  0  0  0
   14.4162   15.7328   16.7189 S   0  0  0  0  0  0  0  0  0  0  0  0
   13.4999   16.1322   15.2052 C   0  0  0  0  0  0  0  0  0  0  0  0
   14.3399   17.1237   14.3565 C   0  0  0  0  0  0  0  0  0  0  0  0
   15.3392   16.3094   13.4820 C   0  0  0  0  0  0  0  0  0  0  0  0
 21 22  1  0  0  0
 21 20  1  0  0  0
 22 23  1  0  0  0
 20 19  1  0  0  0
 19  1  1  0  0  0
  1  2  1  0  0  0
  1 12  2  0  0  0
  2  3  1  0  0  0
  2  8  2  0  0  0
  3  4  2  0  0  0
  4  5  1  0  0  0
  4 13  1  0  0  0
  5  6  1  0  0  0
  6  7  2  0  0  0
  6  8  1  0  0  0
  8  9  1  0  0  0
  9 10  2  0  0  0
 10 11  1  0  0  0
 10 12  1  0  0  0
  5 14  1  0  0  0
 11 15  1  0  0  0
 11 16  1  0  0  0
 13 17  1  0  0  0
 13 18  1  0  0  0
M  END
> <minimizedAffinity>
-6.85049

$$$$
1K4H_APQ_A_900


 23 24  0  0  0  0  0  0  0  0999 V2000
   15.9043   17.5923   18.0024 C   0  0  0  0  0  0  0  0  0  0  0  0
   16.4803   17.4857   19.2945 C   0  0  0  0  0  0  0  0  0  0  0  0
   15.7042   17.1814   20.3985 N   0  0  0  0  0  0  0  0  0  0  0  0
   16.1694   17.0704   21.5963 C   0  0  0  0  0  0  0  0  0  0  0  0
   17.4754   17.2392   21.8621 N   0  0  0  0  0  0  0  0  0  0  0  0
   18.3654   17.5323   20.9093 C   0  0  0  0  0  0  0  0  0  0  0  0
   19.5674   17.6903   21.1515 O   0  0  0  0  0  0  0  0  0  0  0  0
   17.8796   17.6778   19.4709 C   0  0  0  0  0  0  0  0  0  0  0  0
   18.7179   17.9883   18.3645 C   0  0  0  0  0  0  0  0  0  0  0  0
   18.1388   18.0975   17.0717 C   0  0  0  0  0  0  0  0  0  0  0  0
   18.8914   18.3916   15.9833 N   0  0  0  0  0  0  0  0  0  0  0  0
   16.7505   17.9022   16.9170 C   0  0  0  0  0  0  0  0  0  0  0  0
   15.3480   16.7819   22.5742 N   0  0  0  0  0  0  0  0  0  0  0  0
   17.7875   17.1438   22.7909 H   0  0  0  0  0  0  0  0  0  0  0  0
   19.8615   18.5301   16.0784 H   0  0  0  0  0  0  0  0  0  0  0  0
   18.4679   18.4667   15.0977 H   0  0  0  0  0  0  0  0  0  0  0  0
   14.3890   16.6561   22.3906 H   0  0  0  0  0  0  0  0  0  0  0  0
   15.6893   16.6909   23.4932 H   0  0  0  0  0  0  0  0  0  0  0  0
   14.3690   17.3837   17.8613 C   0  0  0  0  0  0  0  0  0  0  0  0
   13.7579   15.9266   16.8891 S   0  0  0  0  0  0  0  0  0  0  0  0
   13.0528   14.7256   18.0514 C   0  0  0  0  0  0  0  0  0  0  0  0
   14.1884   14.1741   18.9544 C   0  0  0  0  0  0  0  0  0  0  0  0
   13.5483   13.4898   20.1987 C   0  0  0  0  0  0  0  0  0  0  0  0
 21 22  1  0  0  0
 21 20  1  0  0  0
 22 23  1  0  0  0
 20 19  1  0  0  0
 19  1  1  0  0  0
  1  2  1  0  0  0
  1 12  2  0  0  0
  2  3  1  0  0  0
  2  8  2  0  0  0
  3  4  2  0  0  0
  4  5  1  0  0  0
  4 13  1  0  0  0
  5  6  1  0  0  0
  6  7  2  0  0  0
  6  8  1  0  0  0
  8  9  1  0  0  0
  9 10  2  0  0  0
 10 11  1  0  0  0
 10 12  1  0  0  0
  5 14  1  0  0  0
 11 15  1  0  0  0
 11 16  1  0  0  0
 13 17  1  0  0  0
 13 18  1  0  0  0
M  END
> <minimizedAffinity>
-6.62187

$$$$
1K4H_APQ_A_900


 23 24  0  0  0  0  0  0  0  0999 V2000
   15.0845   16.9559   19.7539 C   0  0  0  0  0  0  0  0  0  0  0  0
   15.8762   17.3841   18.6575 C   0  0  0  0  0  0  0  0  0  0  0  0
   17.2370   17.5900   18.7975 N   0  0  0  0  0  0  0  0  0  0  0  0
   18.0083   17.9778   17.8393 C   0  0  0  0  0  0  0  0  0  0  0  0
   17.5337   18.2076   16.6037 N   0  0  0  0  0  0  0  0  0  0  0  0
   16.2430   18.0516   16.2945 C   0  0  0  0  0  0  0  0  0  0  0  0
   15.8034   18.2645   15.1588 O   0  0  0  0  0  0  0  0  0  0  0  0
   15.2776   17.5952   17.3834 C   0  0  0  0  0  0  0  0  0  0  0  0
   13.8829   17.3923   17.1908 C   0  0  0  0  0  0  0  0  0  0  0  0
   13.0912   16.9661   18.2908 C   0  0  0  0  0  0  0  0  0  0  0  0
   11.7578   16.7581   18.1626 N   0  0  0  0  0  0  0  0  0  0  0  0
   13.7030   16.7610   19.5450 C   0  0  0  0  0  0  0  0  0  0  0  0
   19.2846   18.1466   18.0778 N   0  0  0  0  0  0  0  0  0  0  0  0
   18.1585   18.5011   15.9017 H   0  0  0  0  0  0  0  0  0  0  0  0
   11.3192   16.8979   17.2924 H   0  0  0  0  0  0  0  0  0  0  0  0
   11.2280   16.4672   18.9398 H   0  0  0  0  0  0  0  0  0  0  0  0
   19.6429   17.9810   18.9797 H   0  0  0  0  0  0  0  0  0  0  0  0
   19.8859   18.4391   17.3553 H   0  0  0  0  0  0  0  0  0  0  0  0
   15.7822   16.7482   21.1290 C   0  0  0  0  0  0  0  0  0  0  0  0
   14.7316   16.6947   22.6571 S   0  0  0  0  0  0  0  0  0  0  0  0
   15.8177   16.8816   24.0980 C   0  0  0  0  0  0  0  0  0  0  0  0
   16.8246   18.0300   23.8224 C   0  0  0  0  0  0  0  0  0  0  0  0
   18.2603   17.4295   23.7563 C   0  0  0  0  0  0  0  0  0  0  0  0
 21 22  1  0  0  0
 21 20  1  0  0  0
 22 23  1  0  0  0
 20 19  1  0  0  0
 19  1  1  0  0  0
  1  2  1  0  0  0
  1 12  2  0  0  0
  2  3  1  0  0  0
  2  8  2  0  0  0
  3  4  2  0  0  0
  4  5  1  0  0  0
  4 13  1  0  0  0
  5  6  1  0  0  0
  6  7  2  0  0  0
  6  8  1  0  0  0
  8  9  1  0  0  0
  9 10  2  0  0  0
 10 11  1  0  0  0
 10 12  1  0  0  0
  5 14  1  0  0  0
 11 15  1  0  0  0
 11 16  1  0  0  0
 13 17  1  0  0  0
 13 18  1  0  0  0
M  END
> <minimizedAffinity>
-6.58480

$$$$
1K4H_APQ_A_900


 23 24  0  0  0  0  0  0  0  0999 V2000
   16.0674   17.5919   18.0840 C   0  0  0  0  0  0  0  0  0  0  0  0
   16.7172   17.6270   19.3445 C   0  0  0  0  0  0  0  0  0  0  0  0
   18.0166   18.0864   19.4647 N   0  0  0  0  0  0  0  0  0  0  0  0
   18.6592   18.1429   20.5815 C   0  0  0  0  0  0  0  0  0  0  0  0
   18.0950   17.7569   21.7379 N   0  0  0  0  0  0  0  0  0  0  0  0
   16.8435   17.2924   21.8013 C   0  0  0  0  0  0  0  0  0  0  0  0
   16.3227   16.9345   22.8638 O   0  0  0  0  0  0  0  0  0  0  0  0
   16.0291   17.2000   20.5151 C   0  0  0  0  0  0  0  0  0  0  0  0
   14.6908   16.7237   20.4409 C   0  0  0  0  0  0  0  0  0  0  0  0
   14.0427   16.6866   19.1772 C   0  0  0  0  0  0  0  0  0  0  0  0
   12.7685   16.2417   19.0497 N   0  0  0  0  0  0  0  0  0  0  0  0
   14.7408   17.1154   18.0290 C   0  0  0  0  0  0  0  0  0  0  0  0
   19.8892   18.5915   20.5864 N   0  0  0  0  0  0  0  0  0  0  0  0
   18.6216   17.8182   22.5674 H   0  0  0  0  0  0  0  0  0  0  0  0
   12.2708   15.9397   19.8437 H   0  0  0  0  0  0  0  0  0  0  0  0
   12.3408   16.2206   18.1632 H   0  0  0  0  0  0  0  0  0  0  0  0
   20.3124   18.8771   19.7446 H   0  0  0  0  0  0  0  0  0  0  0  0
   20.3909   18.6433   21.4318 H   0  0  0  0  0  0  0  0  0  0  0  0
   16.8638   18.0596   16.8319 C   0  0  0  0  0  0  0  0  0  0  0  0
   16.1280   17.7696   15.1538 S   0  0  0  0  0  0  0  0  0  0  0  0
   14.9567   19.1112   14.8093 C   0  0  0  0  0  0  0  0  0  0  0  0
   13.5268   18.5161   14.7087 C   0  0  0  0  0  0  0  0  0  0  0  0
   12.6140   19.2326   15.7478 C   0  0  0  0  0  0  0  0  0  0  0  0
 21 22  1  0  0  0
 21 20  1  0  0  0
 22 23  1  0  0  0
 20 19  1  0  0  0
 19  1  1  0  0  0
  1  2  1  0  0  0
  1 12  2  0  0  0
  2  3  1  0  0  0
  2  8  2  0  0  0
  3  4  2  0  0  0
  4  5  1  0  0  0
  4 13  1  0  0  0
  5  6  1  0  0  0
  6  7  2  0  0  0
  6  8  1  0  0  0
  8  9  1  0  0  0
  9 10  2  0  0  0
 10 11  1  0  0  0
 10 12  1  0  0  0
  5 14  1  0  0  0
 11 15  1  0  0  0
 11 16  1  0  0  0
 13 17  1  0  0  0
 13 18  1  0  0  0
M  END
> <minimizedAffinity>
-6.56163

$$$$
1K4H_APQ_A_900


 23 24  0  0  0  0  0  0  0  0999 V2000
   15.5013   17.4155   17.8709 C   0  0  0  0  0  0  0  0  0  0  0  0
   15.7136   17.2793   19.2669 C   0  0  0  0  0  0  0  0  0  0  0  0
   14.7078   16.8238   20.1004 N   0  0  0  0  0  0  0  0  0  0  0  0
   14.8404   16.6785   21.3750 C   0  0  0  0  0  0  0  0  0  0  0  0
   15.9968   16.9592   21.9983 N   0  0  0  0  0  0  0  0  0  0  0  0
   17.0719   17.4047   21.3413 C   0  0  0  0  0  0  0  0  0  0  0  0
   18.1365   17.6659   21.9128 O   0  0  0  0  0  0  0  0  0  0  0  0
   16.9808   17.5986   19.8313 C   0  0  0  0  0  0  0  0  0  0  0  0
   18.0460   18.0667   19.0130 C   0  0  0  0  0  0  0  0  0  0  0  0
   17.8305   18.2052   17.6155 C   0  0  0  0  0  0  0  0  0  0  0  0
   18.8109   18.6472   16.7902 N   0  0  0  0  0  0  0  0  0  0  0  0
   16.5683   17.8824   17.0750 C   0  0  0  0  0  0  0  0  0  0  0  0
   13.8236   16.2427   22.0754 N   0  0  0  0  0  0  0  0  0  0  0  0
   16.0543   16.8324   22.9730 H   0  0  0  0  0  0  0  0  0  0  0  0
   19.6961   18.8757   17.1555 H   0  0  0  0  0  0  0  0  0  0  0  0
   18.6377   18.7397   15.8255 H   0  0  0  0  0  0  0  0  0  0  0  0
   12.9715   16.0339   21.6287 H   0  0  0  0  0  0  0  0  0  0  0  0
   13.9112   16.1239   23.0488 H   0  0  0  0  0  0  0  0  0  0  0  0
   14.0965   17.0637   17.3022 C   0  0  0  0  0  0  0  0  0  0  0  0
   13.3048   18.2393   16.1052 S   0  0  0  0  0  0  0  0  0  0  0  0
   13.8706   17.8137   14.4351 C   0  0  0  0  0  0  0  0  0  0  0  0
   14.1383   16.2863   14.3694 C   0  0  0  0  0  0  0  0  0  0  0  0
   15.5330   16.0520   13.7167 C   0  0  0  0  0  0  0  0  0  0  0  0
 21 22  1  0  0  0
 21 20  1  0  0  0
 22 23  1  0  0  0
 20 19  1  0  0  0
 19  1  1  0  0  0
  1  2  1  0  0  0
  1 12  2  0  0  0
  2  3  1  0  0  0
  2  8  2  0  0  0
  3  4  2  0  0  0
  4  5  1  0  0  0
  4 13  1  0  0  0
  5  6  1  0  0  0
  6  7  2  0  0  0
  6  8  1  0  0  0
  8  9  1  0  0  0
  9 10  2  0  0  0
 10 11  1  0  0  0
 10 12  1  0  0  0
  5 14  1  0  0  0
 11 15  1  0  0  0
 11 16  1  0  0  0
 13 17  1  0  0  0
 13 18  1  0  0  0
M  END
> <minimizedAffinity>
-6.46515

$$$$
