4Q87_4FH_A_303


 13 13  0  0  0  0  0  0  0  0999 V2000
   14.6605    5.3804   14.2767 S   0  0  0  0  0  0  0  0  0  0  0  0
   15.1674    3.8080   14.7585 C   0  0  0  0  0  0  0  0  0  0  0  0
   14.7476    3.2675   16.0480 C   0  0  0  0  0  0  0  0  0  0  0  0
   15.1453    2.0395   16.4222 C   0  0  0  0  0  0  0  0  0  0  0  0
   15.9671    1.2759   15.5684 C   0  0  0  0  0  0  0  0  0  0  0  0
   16.3690    1.7971   14.3320 C   0  0  0  0  0  0  0  0  0  0  0  0
   15.9558    3.0721   13.9422 N   0  0  0  0  0  0  0  0  0  0  0  0
   16.3410    3.5664   12.7621 O   0  0  0  0  0  0  0  0  0  0  0  0
   16.8872    3.0568   12.1965 H   0  0  0  0  0  0  0  0  0  0  0  0
   14.7020    1.4607   17.7907 C   0  0  0  0  0  0  0  0  0  0  0  0
   15.4868    0.5262   18.1295 F   0  0  0  0  0  0  0  0  0  0  0  0
   14.7345    2.4372   18.7248 F   0  0  0  0  0  0  0  0  0  0  0  0
   13.5142    1.0032   17.6946 F   0  0  0  0  0  0  0  0  0  0  0  0
  6  5  2  0  0  0
  6  7  1  0  0  0
  5  4  1  0  0  0
 13 10  1  0  0  0
 12 10  1  0  0  0
  8  7  1  0  0  0
  7  2  1  0  0  0
  4 10  1  0  0  0
  4  3  2  0  0  0
 10 11  1  0  0  0
  2  3  1  0  0  0
  2  1  2  0  0  0
  8  9  1  0  0  0
M  END
> <minimizedAffinity>
-6.13976

$$$$
4Q87_4FH_A_303


 13 13  0  0  0  0  0  0  0  0999 V2000
   16.7253    1.8750   12.9181 S   0  0  0  0  0  0  0  0  0  0  0  0
   15.8922    2.5989   14.2384 C   0  0  0  0  0  0  0  0  0  0  0  0
   15.6169    1.8222   15.4435 C   0  0  0  0  0  0  0  0  0  0  0  0
   14.9656    2.3898   16.4730 C   0  0  0  0  0  0  0  0  0  0  0  0
   14.5497    3.7340   16.3870 C   0  0  0  0  0  0  0  0  0  0  0  0
   14.8145    4.4767   15.2293 C   0  0  0  0  0  0  0  0  0  0  0  0
   15.4916    3.8884   14.1598 N   0  0  0  0  0  0  0  0  0  0  0  0
   15.7426    4.5996   13.0569 O   0  0  0  0  0  0  0  0  0  0  0  0
   15.4651    5.4929   13.0023 H   0  0  0  0  0  0  0  0  0  0  0  0
   14.6709    1.5693   17.7553 C   0  0  0  0  0  0  0  0  0  0  0  0
   15.5216    0.6377   17.8668 F   0  0  0  0  0  0  0  0  0  0  0  0
   14.7452    2.3788   18.8353 F   0  0  0  0  0  0  0  0  0  0  0  0
   13.4997    1.0673   17.6797 F   0  0  0  0  0  0  0  0  0  0  0  0
  6  5  2  0  0  0
  6  7  1  0  0  0
  5  4  1  0  0  0
 13 10  1  0  0  0
 12 10  1  0  0  0
  8  7  1  0  0  0
  7  2  1  0  0  0
  4 10  1  0  0  0
  4  3  2  0  0  0
 10 11  1  0  0  0
  2  3  1  0  0  0
  2  1  2  0  0  0
  8  9  1  0  0  0
M  END
> <minimizedAffinity>
-6.09130

$$$$
4Q87_4FH_A_303


 13 13  0  0  0  0  0  0  0  0999 V2000
   15.0291    0.9267   17.5981 S   0  0  0  0  0  0  0  0  0  0  0  0
   15.4874    1.7835   16.1779 C   0  0  0  0  0  0  0  0  0  0  0  0
   15.0580    3.1658   15.9873 C   0  0  0  0  0  0  0  0  0  0  0  0
   15.4167    3.8326   14.8770 C   0  0  0  0  0  0  0  0  0  0  0  0
   16.2070    3.1957   13.8987 C   0  0  0  0  0  0  0  0  0  0  0  0
   16.6171    1.8692   14.0836 C   0  0  0  0  0  0  0  0  0  0  0  0
   16.2457    1.1761   15.2369 N   0  0  0  0  0  0  0  0  0  0  0  0
   16.6384   -0.0892   15.4103 O   0  0  0  0  0  0  0  0  0  0  0  0
   17.1637   -0.5101   14.7585 H   0  0  0  0  0  0  0  0  0  0  0  0
   14.9635    5.3009   14.6699 C   0  0  0  0  0  0  0  0  0  0  0  0
   13.9385    5.3269   13.9265 F   0  0  0  0  0  0  0  0  0  0  0  0
   14.6660    5.8538   15.8669 F   0  0  0  0  0  0  0  0  0  0  0  0
   15.9048    5.9630   14.1176 F   0  0  0  0  0  0  0  0  0  0  0  0
  6  5  2  0  0  0
  6  7  1  0  0  0
  5  4  1  0  0  0
 13 10  1  0  0  0
 12 10  1  0  0  0
  8  7  1  0  0  0
  7  2  1  0  0  0
  4 10  1  0  0  0
  4  3  2  0  0  0
 10 11  1  0  0  0
  2  3  1  0  0  0
  2  1  2  0  0  0
  8  9  1  0  0  0
M  END
> <minimizedAffinity>
-6.04024

$$$$
4Q87_4FH_A_303


 13 13  0  0  0  0  0  0  0  0999 V2000
   16.8648    0.7729   12.5855 S   0  0  0  0  0  0  0  0  0  0  0  0
   16.3268    1.6722   13.9505 C   0  0  0  0  0  0  0  0  0  0  0  0
   15.8921    3.0566   13.7889 C   0  0  0  0  0  0  0  0  0  0  0  0
   15.4729    3.7570   14.8566 C   0  0  0  0  0  0  0  0  0  0  0  0
   15.4538    3.1532   16.1303 C   0  0  0  0  0  0  0  0  0  0  0  0
   15.8720    1.8251   16.2827 C   0  0  0  0  0  0  0  0  0  0  0  0
   16.3067    1.0966   15.1742 N   0  0  0  0  0  0  0  0  0  0  0  0
   16.7051   -0.1700   15.3230 O   0  0  0  0  0  0  0  0  0  0  0  0
   16.6913   -0.5690   16.1707 H   0  0  0  0  0  0  0  0  0  0  0  0
   15.0100    5.2275   14.6903 C   0  0  0  0  0  0  0  0  0  0  0  0
   13.9828    5.2670   13.9507 F   0  0  0  0  0  0  0  0  0  0  0  0
   14.7125    5.7460   15.9027 F   0  0  0  0  0  0  0  0  0  0  0  0
   15.9457    5.9101   14.1537 F   0  0  0  0  0  0  0  0  0  0  0  0
  6  5  2  0  0  0
  6  7  1  0  0  0
  5  4  1  0  0  0
 13 10  1  0  0  0
 12 10  1  0  0  0
  8  7  1  0  0  0
  7  2  1  0  0  0
  4 10  1  0  0  0
  4  3  2  0  0  0
 10 11  1  0  0  0
  2  3  1  0  0  0
  2  1  2  0  0  0
  8  9  1  0  0  0
M  END
> <minimizedAffinity>
-5.98663

$$$$
4Q87_4FH_A_303


 13 13  0  0  0  0  0  0  0  0999 V2000
   17.3104    4.5642   12.8376 S   0  0  0  0  0  0  0  0  0  0  0  0
   18.0719    3.1605   12.1965 C   0  0  0  0  0  0  0  0  0  0  0  0
   17.3281    1.9086   12.0916 C   0  0  0  0  0  0  0  0  0  0  0  0
   17.9253    0.8135   11.5912 C   0  0  0  0  0  0  0  0  0  0  0  0
   19.2687    0.8762   11.1685 C   0  0  0  0  0  0  0  0  0  0  0  0
   19.9802    2.0784   11.2708 C   0  0  0  0  0  0  0  0  0  0  0  0
   19.3606    3.2165   11.7897 N   0  0  0  0  0  0  0  0  0  0  0  0
   20.0421    4.3616   11.8861 O   0  0  0  0  0  0  0  0  0  0  0  0
   20.9349    4.4007   11.6043 H   0  0  0  0  0  0  0  0  0  0  0  0
   17.1398   -0.5185   11.4774 C   0  0  0  0  0  0  0  0  0  0  0  0
   16.8126   -0.9173   12.6341 F   0  0  0  0  0  0  0  0  0  0  0  0
   16.0261   -0.3230   10.7366 F   0  0  0  0  0  0  0  0  0  0  0  0
   17.8743   -1.3993   10.9171 F   0  0  0  0  0  0  0  0  0  0  0  0
  6  5  2  0  0  0
  6  7  1  0  0  0
  5  4  1  0  0  0
 13 10  1  0  0  0
 12 10  1  0  0  0
  8  7  1  0  0  0
  7  2  1  0  0  0
  4 10  1  0  0  0
  4  3  2  0  0  0
 10 11  1  0  0  0
  2  3  1  0  0  0
  2  1  2  0  0  0
  8  9  1  0  0  0
M  END
> <minimizedAffinity>
-5.21725

$$$$
4Q87_4FH_A_303


 13 13  0  0  0  0  0  0  0  0999 V2000
   17.8053    3.5379   12.8032 S   0  0  0  0  0  0  0  0  0  0  0  0
   16.5733    3.7677   13.9825 C   0  0  0  0  0  0  0  0  0  0  0  0
   16.3268    2.7421   14.9918 C   0  0  0  0  0  0  0  0  0  0  0  0
   15.3637    2.9238   15.9114 C   0  0  0  0  0  0  0  0  0  0  0  0
   14.5935    4.1045   15.8993 C   0  0  0  0  0  0  0  0  0  0  0  0
   14.8317    5.0866   14.9294 C   0  0  0  0  0  0  0  0  0  0  0  0
   15.8323    4.8992   13.9744 N   0  0  0  0  0  0  0  0  0  0  0  0
   16.0568    5.8379   13.0506 O   0  0  0  0  0  0  0  0  0  0  0  0
   15.5436    6.6218   13.0448 H   0  0  0  0  0  0  0  0  0  0  0  0
   15.0980    1.8377   16.9857 C   0  0  0  0  0  0  0  0  0  0  0  0
   14.8110    2.3929   18.0872 F   0  0  0  0  0  0  0  0  0  0  0  0
   14.0666    1.0575   16.5923 F   0  0  0  0  0  0  0  0  0  0  0  0
   16.1430    1.1194   17.1322 F   0  0  0  0  0  0  0  0  0  0  0  0
  6  5  2  0  0  0
  6  7  1  0  0  0
  5  4  1  0  0  0
 13 10  1  0  0  0
 12 10  1  0  0  0
  8  7  1  0  0  0
  7  2  1  0  0  0
  4 10  1  0  0  0
  4  3  2  0  0  0
 10 11  1  0  0  0
  2  3  1  0  0  0
  2  1  2  0  0  0
  8  9  1  0  0  0
M  END
> <minimizedAffinity>
-5.20362

$$$$
4Q87_4FH_A_303


 13 13  0  0  0  0  0  0  0  0999 V2000
   17.1282    5.8726   13.8263 S   0  0  0  0  0  0  0  0  0  0  0  0
   16.6309    4.2945   14.2992 C   0  0  0  0  0  0  0  0  0  0  0  0
   15.7262    4.1217   15.4319 C   0  0  0  0  0  0  0  0  0  0  0  0
   15.3398    2.8881   15.7995 C   0  0  0  0  0  0  0  0  0  0  0  0
   15.8089    1.7636   15.0904 C   0  0  0  0  0  0  0  0  0  0  0  0
   16.6773    1.9322   14.0044 C   0  0  0  0  0  0  0  0  0  0  0  0
   17.0786    3.2130   13.6214 N   0  0  0  0  0  0  0  0  0  0  0  0
   17.9072    3.3704   12.5851 O   0  0  0  0  0  0  0  0  0  0  0  0
   18.2174    2.6213   12.1154 H   0  0  0  0  0  0  0  0  0  0  0  0
   14.3788    2.6991   17.0017 C   0  0  0  0  0  0  0  0  0  0  0  0
   13.5248    1.8058   16.7249 F   0  0  0  0  0  0  0  0  0  0  0  0
   15.0871    2.3234   18.0900 F   0  0  0  0  0  0  0  0  0  0  0  0
   13.7786    3.7993   17.2438 F   0  0  0  0  0  0  0  0  0  0  0  0
  6  5  2  0  0  0
  6  7  1  0  0  0
  5  4  1  0  0  0
 13 10  1  0  0  0
 12 10  1  0  0  0
  8  7  1  0  0  0
  7  2  1  0  0  0
  4 10  1  0  0  0
  4  3  2  0  0  0
 10 11  1  0  0  0
  2  3  1  0  0  0
  2  1  2  0  0  0
  8  9  1  0  0  0
M  END
> <minimizedAffinity>
-5.10474

$$$$
4Q87_4FH_A_303


 13 13  0  0  0  0  0  0  0  0999 V2000
   16.1088    1.3996   16.2399 S   0  0  0  0  0  0  0  0  0  0  0  0
   16.3985    1.7073   14.5717 C   0  0  0  0  0  0  0  0  0  0  0  0
   16.6413    0.5974   13.6549 C   0  0  0  0  0  0  0  0  0  0  0  0
   16.8679    0.8404   12.3527 C   0  0  0  0  0  0  0  0  0  0  0  0
   16.8705    2.1666   11.8748 C   0  0  0  0  0  0  0  0  0  0  0  0
   16.6379    3.2297   12.7567 C   0  0  0  0  0  0  0  0  0  0  0  0
   16.4017    2.9783   14.1092 N   0  0  0  0  0  0  0  0  0  0  0  0
   16.1803    3.9946   14.9479 O   0  0  0  0  0  0  0  0  0  0  0  0
   16.1825    4.8752   14.6277 H   0  0  0  0  0  0  0  0  0  0  0  0
   17.1261   -0.3349   11.3747 C   0  0  0  0  0  0  0  0  0  0  0  0
   16.4789   -0.1439   10.3029 F   0  0  0  0  0  0  0  0  0  0  0  0
   18.4469   -0.4078   11.0965 F   0  0  0  0  0  0  0  0  0  0  0  0
   16.7435   -1.4277   11.9122 F   0  0  0  0  0  0  0  0  0  0  0  0
  6  5  2  0  0  0
  6  7  1  0  0  0
  5  4  1  0  0  0
 13 10  1  0  0  0
 12 10  1  0  0  0
  8  7  1  0  0  0
  7  2  1  0  0  0
  4 10  1  0  0  0
  4  3  2  0  0  0
 10 11  1  0  0  0
  2  3  1  0  0  0
  2  1  2  0  0  0
  8  9  1  0  0  0
M  END
> <minimizedAffinity>
-5.10075

$$$$
4Q87_4FH_A_303


 13 13  0  0  0  0  0  0  0  0999 V2000
   16.9977   -0.6779   11.6560 S   0  0  0  0  0  0  0  0  0  0  0  0
   17.2701    0.9438   12.1629 C   0  0  0  0  0  0  0  0  0  0  0  0
   16.5140    1.4966   13.2827 C   0  0  0  0  0  0  0  0  0  0  0  0
   16.7282    2.7637   13.6763 C   0  0  0  0  0  0  0  0  0  0  0  0
   17.6827    3.5562   13.0069 C   0  0  0  0  0  0  0  0  0  0  0  0
   18.4064    3.0236   11.9324 C   0  0  0  0  0  0  0  0  0  0  0  0
   18.1852    1.7075   11.5234 N   0  0  0  0  0  0  0  0  0  0  0  0
   18.8771    1.2024   10.4980 O   0  0  0  0  0  0  0  0  0  0  0  0
   19.5110    1.7313   10.0548 H   0  0  0  0  0  0  0  0  0  0  0  0
   15.9279    3.3555   14.8653 C   0  0  0  0  0  0  0  0  0  0  0  0
   16.3977    4.4920   15.1680 F   0  0  0  0  0  0  0  0  0  0  0  0
   14.6288    3.4840   14.5145 F   0  0  0  0  0  0  0  0  0  0  0  0
   16.0218    2.5759   15.8716 F   0  0  0  0  0  0  0  0  0  0  0  0
  6  5  2  0  0  0
  6  7  1  0  0  0
  5  4  1  0  0  0
 13 10  1  0  0  0
 12 10  1  0  0  0
  8  7  1  0  0  0
  7  2  1  0  0  0
  4 10  1  0  0  0
  4  3  2  0  0  0
 10 11  1  0  0  0
  2  3  1  0  0  0
  2  1  2  0  0  0
  8  9  1  0  0  0
M  END
> <minimizedAffinity>
-5.05000

$$$$
4Q87_4FH_A_303


 13 13  0  0  0  0  0  0  0  0999 V2000
   17.0932   -1.1863   11.7225 S   0  0  0  0  0  0  0  0  0  0  0  0
   16.6956    0.3563   12.3734 C   0  0  0  0  0  0  0  0  0  0  0  0
   16.5630    0.5286   13.8170 C   0  0  0  0  0  0  0  0  0  0  0  0
   16.2519    1.7343   14.3228 C   0  0  0  0  0  0  0  0  0  0  0  0
   16.0543    2.8300   13.4581 C   0  0  0  0  0  0  0  0  0  0  0  0
   16.1814    2.6617   12.0734 C   0  0  0  0  0  0  0  0  0  0  0  0
   16.5053    1.4101   11.5472 N   0  0  0  0  0  0  0  0  0  0  0  0
   16.6258    1.2529   10.2258 O   0  0  0  0  0  0  0  0  0  0  0  0
   16.4940    1.9828    9.6532 H   0  0  0  0  0  0  0  0  0  0  0  0
   16.1101    1.9228   15.8554 C   0  0  0  0  0  0  0  0  0  0  0  0
   15.1216    1.2515   16.2749 F   0  0  0  0  0  0  0  0  0  0  0  0
   17.2370    1.4961   16.4680 F   0  0  0  0  0  0  0  0  0  0  0  0
   15.9254    3.1584   16.1169 F   0  0  0  0  0  0  0  0  0  0  0  0
  6  5  2  0  0  0
  6  7  1  0  0  0
  5  4  1  0  0  0
 13 10  1  0  0  0
 12 10  1  0  0  0
  8  7  1  0  0  0
  7  2  1  0  0  0
  4 10  1  0  0  0
  4  3  2  0  0  0
 10 11  1  0  0  0
  2  3  1  0  0  0
  2  1  2  0  0  0
  8  9  1  0  0  0
M  END
> <minimizedAffinity>
-5.04529

$$$$
