2YPI_PGA_A_249


 12 11  0  0  0  0  0  0  0  0999 V2000
   91.5831   42.9600   50.4456 P   0  0  0  0  0  0  0  0  0  0  0  0
   90.1332   43.3187   50.2901 O   0  0  0  0  0  0  0  0  0  0  0  0
   92.5728   44.0774   50.8202 O   0  0  0  0  0  0  0  0  0  0  0  0
   91.8502   41.7962   51.3805 O   0  0  0  0  0  0  0  0  0  0  0  0
   92.4314   44.8423   50.2406 H   0  0  0  0  0  0  0  0  0  0  0  0
   91.2423   41.0692   51.1736 H   0  0  0  0  0  0  0  0  0  0  0  0
   92.3394   42.2992   49.1304 O   0  0  0  0  0  0  0  0  0  0  0  0
   93.5722   42.7923   48.7844 C   0  0  0  0  0  0  0  0  0  0  0  0
   94.6756   41.7080   49.0075 C   0  0  0  0  0  0  0  0  0  0  0  0
   94.7840   40.6623   48.2915 O   0  0  0  0  0  0  0  0  0  0  0  0
   95.3277   41.9948   50.1478 O   0  0  0  0  0  0  0  0  0  0  0  0
   95.1635   42.8040   50.5907 H   0  0  0  0  0  0  0  0  0  0  0  0
  1  7  1  0  0  0
  1  2  2  0  0  0
  1  3  1  0  0  0
  1  4  1  0  0  0
  7  8  1  0  0  0
  8  9  1  0  0  0
  9 10  2  0  0  0
  9 11  1  0  0  0
  3  5  1  0  0  0
  4  6  1  0  0  0
 11 12  1  0  0  0
M  END
> <minimizedAffinity>
-5.96648

$$$$
2YPI_PGA_A_249


 12 11  0  0  0  0  0  0  0  0999 V2000
   93.6169   42.6275   48.9839 P   0  0  0  0  0  0  0  0  0  0  0  0
   94.9071   42.2935   49.6759 O   0  0  0  0  0  0  0  0  0  0  0  0
   92.3035   42.4421   49.7645 O   0  0  0  0  0  0  0  0  0  0  0  0
   93.5729   44.0087   48.3593 O   0  0  0  0  0  0  0  0  0  0  0  0
   92.2953   41.5656   50.1800 H   0  0  0  0  0  0  0  0  0  0  0  0
   94.3882   44.1623   47.8566 H   0  0  0  0  0  0  0  0  0  0  0  0
   93.2740   41.8000   47.5924 O   0  0  0  0  0  0  0  0  0  0  0  0
   94.2130   41.8101   46.5921 C   0  0  0  0  0  0  0  0  0  0  0  0
   95.0587   40.4960   46.6245 C   0  0  0  0  0  0  0  0  0  0  0  0
   94.7258   39.4661   47.2927 O   0  0  0  0  0  0  0  0  0  0  0  0
   96.2234   40.7254   45.9932 O   0  0  0  0  0  0  0  0  0  0  0  0
   96.3544   41.5287   45.5290 H   0  0  0  0  0  0  0  0  0  0  0  0
  1  7  1  0  0  0
  1  2  2  0  0  0
  1  3  1  0  0  0
  1  4  1  0  0  0
  7  8  1  0  0  0
  8  9  1  0  0  0
  9 10  2  0  0  0
  9 11  1  0  0  0
  3  5  1  0  0  0
  4  6  1  0  0  0
 11 12  1  0  0  0
M  END
> <minimizedAffinity>
-5.65282

$$$$
2YPI_PGA_A_249


 12 11  0  0  0  0  0  0  0  0999 V2000
   93.0961   42.4392   47.7470 P   0  0  0  0  0  0  0  0  0  0  0  0
   91.6954   42.4733   47.2067 O   0  0  0  0  0  0  0  0  0  0  0  0
   94.0286   41.3074   47.2801 O   0  0  0  0  0  0  0  0  0  0  0  0
   93.8634   43.7388   47.5984 O   0  0  0  0  0  0  0  0  0  0  0  0
   93.5700   40.4565   47.3611 H   0  0  0  0  0  0  0  0  0  0  0  0
   93.3050   44.4785   47.8845 H   0  0  0  0  0  0  0  0  0  0  0  0
   93.2659   42.3278   49.3893 O   0  0  0  0  0  0  0  0  0  0  0  0
   92.5965   43.2389   50.1667 C   0  0  0  0  0  0  0  0  0  0  0  0
   91.2384   42.6423   50.6592 C   0  0  0  0  0  0  0  0  0  0  0  0
   90.1056   43.1280   50.3447 O   0  0  0  0  0  0  0  0  0  0  0  0
   91.4995   41.6881   51.5698 O   0  0  0  0  0  0  0  0  0  0  0  0
   92.3820   41.4090   51.7160 H   0  0  0  0  0  0  0  0  0  0  0  0
  1  7  1  0  0  0
  1  2  2  0  0  0
  1  3  1  0  0  0
  1  4  1  0  0  0
  7  8  1  0  0  0
  8  9  1  0  0  0
  9 10  2  0  0  0
  9 11  1  0  0  0
  3  5  1  0  0  0
  4  6  1  0  0  0
 11 12  1  0  0  0
M  END
> <minimizedAffinity>
-5.60417

$$$$
2YPI_PGA_A_249


 12 11  0  0  0  0  0  0  0  0999 V2000
   93.6093   42.6269   49.3749 P   0  0  0  0  0  0  0  0  0  0  0  0
   93.5432   44.1073   49.1322 O   0  0  0  0  0  0  0  0  0  0  0  0
   94.9281   42.0342   49.9020 O   0  0  0  0  0  0  0  0  0  0  0  0
   92.4948   42.0778   50.2446 O   0  0  0  0  0  0  0  0  0  0  0  0
   95.6673   42.3644   49.3678 H   0  0  0  0  0  0  0  0  0  0  0  0
   91.6439   42.4310   49.9410 H   0  0  0  0  0  0  0  0  0  0  0  0
   93.3172   41.6389   48.0798 O   0  0  0  0  0  0  0  0  0  0  0  0
   93.9871   41.8986   46.9109 C   0  0  0  0  0  0  0  0  0  0  0  0
   94.9935   40.7462   46.5913 C   0  0  0  0  0  0  0  0  0  0  0  0
   95.7522   40.7428   45.5704 O   0  0  0  0  0  0  0  0  0  0  0  0
   94.7764   39.7410   47.4576 O   0  0  0  0  0  0  0  0  0  0  0  0
   94.1903   39.8623   48.1786 H   0  0  0  0  0  0  0  0  0  0  0  0
  1  7  1  0  0  0
  1  2  2  0  0  0
  1  3  1  0  0  0
  1  4  1  0  0  0
  7  8  1  0  0  0
  8  9  1  0  0  0
  9 10  2  0  0  0
  9 11  1  0  0  0
  3  5  1  0  0  0
  4  6  1  0  0  0
 11 12  1  0  0  0
M  END
> <minimizedAffinity>
-5.57182

$$$$
2YPI_PGA_A_249


 12 11  0  0  0  0  0  0  0  0999 V2000
   92.8018   43.1294   50.0424 P   0  0  0  0  0  0  0  0  0  0  0  0
   91.5549   42.2961   50.1187 O   0  0  0  0  0  0  0  0  0  0  0  0
   92.8218   44.4783   50.7830 O   0  0  0  0  0  0  0  0  0  0  0  0
   94.0762   42.3970   50.4158 O   0  0  0  0  0  0  0  0  0  0  0  0
   92.0183   44.9773   50.5677 H   0  0  0  0  0  0  0  0  0  0  0  0
   94.0992   41.5381   49.9657 H   0  0  0  0  0  0  0  0  0  0  0  0
   93.3062   43.5917   48.5356 O   0  0  0  0  0  0  0  0  0  0  0  0
   92.8403   42.8823   47.4575 C   0  0  0  0  0  0  0  0  0  0  0  0
   93.9894   42.0307   46.8271 C   0  0  0  0  0  0  0  0  0  0  0  0
   94.5284   42.3026   45.7074 O   0  0  0  0  0  0  0  0  0  0  0  0
   94.1539   40.9231   47.5713 O   0  0  0  0  0  0  0  0  0  0  0  0
   93.7000   40.8346   48.3862 H   0  0  0  0  0  0  0  0  0  0  0  0
  1  7  1  0  0  0
  1  2  2  0  0  0
  1  3  1  0  0  0
  1  4  1  0  0  0
  7  8  1  0  0  0
  8  9  1  0  0  0
  9 10  2  0  0  0
  9 11  1  0  0  0
  3  5  1  0  0  0
  4  6  1  0  0  0
 11 12  1  0  0  0
M  END
> <minimizedAffinity>
-5.44177

$$$$
2YPI_PGA_A_249


 12 11  0  0  0  0  0  0  0  0999 V2000
   93.8989   42.0388   46.4961 P   0  0  0  0  0  0  0  0  0  0  0  0
   94.2262   40.6952   47.0812 O   0  0  0  0  0  0  0  0  0  0  0  0
   94.8137   42.5928   45.3894 O   0  0  0  0  0  0  0  0  0  0  0  0
   92.4704   42.1857   46.0085 O   0  0  0  0  0  0  0  0  0  0  0  0
   95.7400   42.5153   45.6667 H   0  0  0  0  0  0  0  0  0  0  0  0
   91.8619   41.8454   46.6830 H   0  0  0  0  0  0  0  0  0  0  0  0
   93.8559   43.3229   47.5391 O   0  0  0  0  0  0  0  0  0  0  0  0
   93.0302   43.2347   48.6314 C   0  0  0  0  0  0  0  0  0  0  0  0
   93.8410   42.7979   49.8942 C   0  0  0  0  0  0  0  0  0  0  0  0
   94.9859   42.2467   49.8346 O   0  0  0  0  0  0  0  0  0  0  0  0
   93.0549   42.9454   50.9750 O   0  0  0  0  0  0  0  0  0  0  0  0
   92.2246   43.3723   50.8957 H   0  0  0  0  0  0  0  0  0  0  0  0
  1  7  1  0  0  0
  1  2  2  0  0  0
  1  3  1  0  0  0
  1  4  1  0  0  0
  7  8  1  0  0  0
  8  9  1  0  0  0
  9 10  2  0  0  0
  9 11  1  0  0  0
  3  5  1  0  0  0
  4  6  1  0  0  0
 11 12  1  0  0  0
M  END
> <minimizedAffinity>
-5.21368

$$$$
2YPI_PGA_A_249


 12 11  0  0  0  0  0  0  0  0999 V2000
   94.0368   42.0991   48.1086 P   0  0  0  0  0  0  0  0  0  0  0  0
   94.9312   42.2057   49.3101 O   0  0  0  0  0  0  0  0  0  0  0  0
   94.0799   43.2311   47.0669 O   0  0  0  0  0  0  0  0  0  0  0  0
   94.1493   40.7908   47.3500 O   0  0  0  0  0  0  0  0  0  0  0  0
   94.0101   44.0876   47.5170 H   0  0  0  0  0  0  0  0  0  0  0  0
   94.1256   40.0507   47.9766 H   0  0  0  0  0  0  0  0  0  0  0  0
   92.4094   41.9938   48.3898 O   0  0  0  0  0  0  0  0  0  0  0  0
   91.7909   43.0633   48.9865 C   0  0  0  0  0  0  0  0  0  0  0  0
   91.6407   42.8190   50.5229 C   0  0  0  0  0  0  0  0  0  0  0  0
   90.5380   42.5132   51.0784 O   0  0  0  0  0  0  0  0  0  0  0  0
   92.7969   43.1557   51.1210 O   0  0  0  0  0  0  0  0  0  0  0  0
   93.5496   43.3625   50.6027 H   0  0  0  0  0  0  0  0  0  0  0  0
  1  7  1  0  0  0
  1  2  2  0  0  0
  1  3  1  0  0  0
  1  4  1  0  0  0
  7  8  1  0  0  0
  8  9  1  0  0  0
  9 10  2  0  0  0
  9 11  1  0  0  0
  3  5  1  0  0  0
  4  6  1  0  0  0
 11 12  1  0  0  0
M  END
> <minimizedAffinity>
-5.12935

$$$$
2YPI_PGA_A_249


 12 11  0  0  0  0  0  0  0  0999 V2000
   93.7032   42.2749   46.4752 P   0  0  0  0  0  0  0  0  0  0  0  0
   92.6247   42.0570   45.4533 O   0  0  0  0  0  0  0  0  0  0  0  0
   94.1438   41.0766   47.3346 O   0  0  0  0  0  0  0  0  0  0  0  0
   94.9633   42.9245   45.9367 O   0  0  0  0  0  0  0  0  0  0  0  0
   93.3609   40.6340   47.6979 H   0  0  0  0  0  0  0  0  0  0  0  0
   94.7244   43.6874   45.3875 H   0  0  0  0  0  0  0  0  0  0  0  0
   93.4129   43.4093   47.6445 O   0  0  0  0  0  0  0  0  0  0  0  0
   92.4382   43.1399   48.5718 C   0  0  0  0  0  0  0  0  0  0  0  0
   93.0042   43.2992   50.0200 C   0  0  0  0  0  0  0  0  0  0  0  0
   92.8475   44.3491   50.7210 O   0  0  0  0  0  0  0  0  0  0  0  0
   93.7937   42.2437   50.2854 O   0  0  0  0  0  0  0  0  0  0  0  0
   93.8269   41.5218   49.6890 H   0  0  0  0  0  0  0  0  0  0  0  0
  1  7  1  0  0  0
  1  2  2  0  0  0
  1  3  1  0  0  0
  1  4  1  0  0  0
  7  8  1  0  0  0
  8  9  1  0  0  0
  9 10  2  0  0  0
  9 11  1  0  0  0
  3  5  1  0  0  0
  4  6  1  0  0  0
 11 12  1  0  0  0
M  END
> <minimizedAffinity>
-4.87199

$$$$
2YPI_PGA_A_249


 12 11  0  0  0  0  0  0  0  0999 V2000
   91.2221   42.7241   50.8153 P   0  0  0  0  0  0  0  0  0  0  0  0
   90.8484   44.1526   51.0882 O   0  0  0  0  0  0  0  0  0  0  0  0
   91.2695   41.7451   52.0018 O   0  0  0  0  0  0  0  0  0  0  0  0
   90.4140   42.0569   49.7190 O   0  0  0  0  0  0  0  0  0  0  0  0
   91.7806   42.1392   52.7259 H   0  0  0  0  0  0  0  0  0  0  0  0
   90.3621   42.6470   48.9509 H   0  0  0  0  0  0  0  0  0  0  0  0
   92.7017   42.4526   50.1256 O   0  0  0  0  0  0  0  0  0  0  0  0
   93.1173   43.3116   49.1397 C   0  0  0  0  0  0  0  0  0  0  0  0
   92.9687   42.6424   47.7351 C   0  0  0  0  0  0  0  0  0  0  0  0
   92.1827   43.0752   46.8335 O   0  0  0  0  0  0  0  0  0  0  0  0
   93.6572   41.4876   47.7403 O   0  0  0  0  0  0  0  0  0  0  0  0
   94.2098   41.2748   48.4666 H   0  0  0  0  0  0  0  0  0  0  0  0
  1  7  1  0  0  0
  1  2  2  0  0  0
  1  3  1  0  0  0
  1  4  1  0  0  0
  7  8  1  0  0  0
  8  9  1  0  0  0
  9 10  2  0  0  0
  9 11  1  0  0  0
  3  5  1  0  0  0
  4  6  1  0  0  0
 11 12  1  0  0  0
M  END
> <minimizedAffinity>
-4.76793

$$$$
2YPI_PGA_A_249


 12 11  0  0  0  0  0  0  0  0999 V2000
   93.4516   42.4148   47.4114 P   0  0  0  0  0  0  0  0  0  0  0  0
   93.8776   43.8512   47.5111 O   0  0  0  0  0  0  0  0  0  0  0  0
   94.0182   41.4152   48.4353 O   0  0  0  0  0  0  0  0  0  0  0  0
   91.9509   42.2016   47.3639 O   0  0  0  0  0  0  0  0  0  0  0  0
   94.9805   41.5223   48.4934 H   0  0  0  0  0  0  0  0  0  0  0  0
   91.5569   42.8171   46.7260 H   0  0  0  0  0  0  0  0  0  0  0  0
   93.7803   41.6298   45.9921 O   0  0  0  0  0  0  0  0  0  0  0  0
   94.9342   41.9615   45.3280 C   0  0  0  0  0  0  0  0  0  0  0  0
   96.0356   40.8804   45.5748 C   0  0  0  0  0  0  0  0  0  0  0  0
   97.2289   40.9867   45.1471 O   0  0  0  0  0  0  0  0  0  0  0  0
   95.4558   39.8040   46.1344 O   0  0  0  0  0  0  0  0  0  0  0  0
   94.5622   39.8452   46.4132 H   0  0  0  0  0  0  0  0  0  0  0  0
  1  7  1  0  0  0
  1  2  2  0  0  0
  1  3  1  0  0  0
  1  4  1  0  0  0
  7  8  1  0  0  0
  8  9  1  0  0  0
  9 10  2  0  0  0
  9 11  1  0  0  0
  3  5  1  0  0  0
  4  6  1  0  0  0
 11 12  1  0  0  0
M  END
> <minimizedAffinity>
-4.60755

$$$$
