5N18_8HZ_A_501


 27 30  0  0  0  0  0  0  0  0999 V2000
   58.2131    7.5958   34.6124 C   0  0  0  0  0  0  0  0  0  0  0  0
   57.7712    6.2684   35.1140 C   0  0  0  0  0  0  0  0  0  0  0  0
   59.1074    5.2689   33.4068 C   0  0  0  0  0  0  0  0  0  0  0  0
   58.2420    5.1291   34.4815 C   0  0  0  0  0  0  0  0  0  0  0  0
   58.5272    9.7647   34.3250 C   0  0  0  0  0  0  0  0  0  0  0  0
   59.2781    8.9545   33.3513 C   0  0  0  0  0  0  0  0  0  0  0  0
   57.8892    8.8391   35.0650 N   0  0  0  0  0  0  0  0  0  0  0  0
   59.0583    7.6519   33.5583 N   0  0  0  0  0  0  0  0  0  0  0  0
   59.4970    6.5311   32.9648 C   0  0  0  0  0  0  0  0  0  0  0  0
   56.8298    6.1698   36.2842 C   0  0  0  0  0  0  0  0  0  0  0  0
   58.4182   11.2371   34.4902 C   0  0  0  0  0  0  0  0  0  0  0  0
   57.1562   11.8018   34.3831 C   0  0  0  0  0  0  0  0  0  0  0  0
   56.9863   13.1711   34.5224 C   0  0  0  0  0  0  0  0  0  0  0  0
   59.5294   12.0329   34.7352 C   0  0  0  0  0  0  0  0  0  0  0  0
   59.3574   13.4079   34.8756 C   0  0  0  0  0  0  0  0  0  0  0  0
   57.9109   15.3189   34.9031 O   0  0  0  0  0  0  0  0  0  0  0  0
   58.0906   13.9749   34.7695 C   0  0  0  0  0  0  0  0  0  0  0  0
   57.0521   15.6864   34.8292 H   0  0  0  0  0  0  0  0  0  0  0  0
   60.0667    9.4850   32.3780 N   0  0  0  0  0  0  0  0  0  0  0  0
   59.6322    9.9705   31.6399 H   0  0  0  0  0  0  0  0  0  0  0  0
   61.4241    9.3809   32.3693 C   0  0  0  0  0  0  0  0  0  0  0  0
   62.1261    9.5615   33.5548 C   0  0  0  0  0  0  0  0  0  0  0  0
   62.1232    9.0959   31.1975 C   0  0  0  0  0  0  0  0  0  0  0  0
   63.5103    9.0070   31.2109 C   0  0  0  0  0  0  0  0  0  0  0  0
   64.2047    9.1872   32.4012 C   0  0  0  0  0  0  0  0  0  0  0  0
   65.7075    9.0878   32.4285 C   0  0  0  0  0  0  0  0  0  0  0  0
   63.5142    9.4658   33.5733 C   0  0  0  0  0  0  0  0  0  0  0  0
 22 27  2  0  0  0
 22 21  1  0  0  0
 27 25  1  0  0  0
  9  3  2  0  0  0
  9  8  1  0  0  0
 19 21  1  0  0  0
 19  6  1  0  0  0
  3  4  1  0  0  0
 21 23  2  0  0  0
 25 26  1  0  0  0
 25 24  2  0  0  0
  8  6  1  0  0  0
  8  1  1  0  0  0
  6  5  2  0  0  0
  4  2  2  0  0  0
 23 24  1  0  0  0
  1  2  1  0  0  0
  1  7  2  0  0  0
  2 10  1  0  0  0
  5  7  1  0  0  0
  5 11  1  0  0  0
 11 12  2  0  0  0
 11 14  1  0  0  0
 12 13  1  0  0  0
 14 15  2  0  0  0
 13 17  2  0  0  0
 15 17  1  0  0  0
 17 16  1  0  0  0
 16 18  1  0  0  0
 19 20  1  0  0  0
M  END
> <minimizedAffinity>
-9.41266

$$$$
5N18_8HZ_A_501


 27 30  0  0  0  0  0  0  0  0999 V2000
   61.6561    9.4260   33.0004 C   0  0  0  0  0  0  0  0  0  0  0  0
   63.0248    9.0120   32.5954 C   0  0  0  0  0  0  0  0  0  0  0  0
   62.2152    6.7712   32.4462 C   0  0  0  0  0  0  0  0  0  0  0  0
   63.2618    7.6734   32.3278 C   0  0  0  0  0  0  0  0  0  0  0  0
   59.8779   10.5890   33.6095 C   0  0  0  0  0  0  0  0  0  0  0  0
   59.5862    9.1534   33.4606 C   0  0  0  0  0  0  0  0  0  0  0  0
   61.1878   10.6670   33.3103 N   0  0  0  0  0  0  0  0  0  0  0  0
   60.6867    8.4879   33.0948 N   0  0  0  0  0  0  0  0  0  0  0  0
   60.9462    7.1981   32.8305 C   0  0  0  0  0  0  0  0  0  0  0  0
   64.1276   10.0301   32.4819 C   0  0  0  0  0  0  0  0  0  0  0  0
   59.0101   11.7228   34.0200 C   0  0  0  0  0  0  0  0  0  0  0  0
   59.6254   12.8248   34.5945 C   0  0  0  0  0  0  0  0  0  0  0  0
   58.8720   13.9148   35.0039 C   0  0  0  0  0  0  0  0  0  0  0  0
   57.6325   11.6927   33.8488 C   0  0  0  0  0  0  0  0  0  0  0  0
   56.8770   12.7882   34.2599 C   0  0  0  0  0  0  0  0  0  0  0  0
   56.7651   14.9714   35.2430 O   0  0  0  0  0  0  0  0  0  0  0  0
   57.4944   13.8951   34.8353 C   0  0  0  0  0  0  0  0  0  0  0  0
   57.1945   15.7095   35.6287 H   0  0  0  0  0  0  0  0  0  0  0  0
   58.3612    8.6059   33.6850 N   0  0  0  0  0  0  0  0  0  0  0  0
   57.6799    8.6839   32.9786 H   0  0  0  0  0  0  0  0  0  0  0  0
   58.0264    7.9560   34.8335 C   0  0  0  0  0  0  0  0  0  0  0  0
   57.8374    8.6899   35.9982 C   0  0  0  0  0  0  0  0  0  0  0  0
   57.8682    6.5714   34.8648 C   0  0  0  0  0  0  0  0  0  0  0  0
   57.5384    5.9286   36.0523 C   0  0  0  0  0  0  0  0  0  0  0  0
   57.3495    6.6703   37.2123 C   0  0  0  0  0  0  0  0  0  0  0  0
   56.9865    5.9848   38.5036 C   0  0  0  0  0  0  0  0  0  0  0  0
   57.4999    8.0504   37.1870 C   0  0  0  0  0  0  0  0  0  0  0  0
 22 27  2  0  0  0
 22 21  1  0  0  0
 27 25  1  0  0  0
  9  3  2  0  0  0
  9  8  1  0  0  0
 19 21  1  0  0  0
 19  6  1  0  0  0
  3  4  1  0  0  0
 21 23  2  0  0  0
 25 26  1  0  0  0
 25 24  2  0  0  0
  8  6  1  0  0  0
  8  1  1  0  0  0
  6  5  2  0  0  0
  4  2  2  0  0  0
 23 24  1  0  0  0
  1  2  1  0  0  0
  1  7  2  0  0  0
  2 10  1  0  0  0
  5  7  1  0  0  0
  5 11  1  0  0  0
 11 12  2  0  0  0
 11 14  1  0  0  0
 12 13  1  0  0  0
 14 15  2  0  0  0
 13 17  2  0  0  0
 15 17  1  0  0  0
 17 16  1  0  0  0
 16 18  1  0  0  0
 19 20  1  0  0  0
M  END
> <minimizedAffinity>
-8.87405

$$$$
5N18_8HZ_A_501


 27 30  0  0  0  0  0  0  0  0999 V2000
   57.4540    6.8902   36.1939 C   0  0  0  0  0  0  0  0  0  0  0  0
   56.9861    5.8713   37.1695 C   0  0  0  0  0  0  0  0  0  0  0  0
   57.5836    4.1930   35.5803 C   0  0  0  0  0  0  0  0  0  0  0  0
   57.0680    4.5324   36.8222 C   0  0  0  0  0  0  0  0  0  0  0  0
   57.9931    8.7833   35.1886 C   0  0  0  0  0  0  0  0  0  0  0  0
   58.2870    7.6031   34.3585 C   0  0  0  0  0  0  0  0  0  0  0  0
   57.4725    8.2474   36.3080 N   0  0  0  0  0  0  0  0  0  0  0  0
   57.9440    6.4819   35.0015 N   0  0  0  0  0  0  0  0  0  0  0  0
   58.0102    5.1778   34.6923 C   0  0  0  0  0  0  0  0  0  0  0  0
   56.4335    6.2910   38.5051 C   0  0  0  0  0  0  0  0  0  0  0  0
   58.1631   10.2338   34.9159 C   0  0  0  0  0  0  0  0  0  0  0  0
   59.4214   10.7804   35.1189 C   0  0  0  0  0  0  0  0  0  0  0  0
   59.6460   12.1291   34.8873 C   0  0  0  0  0  0  0  0  0  0  0  0
   57.1102   11.0277   34.4812 C   0  0  0  0  0  0  0  0  0  0  0  0
   57.3371   12.3820   34.2483 C   0  0  0  0  0  0  0  0  0  0  0  0
   58.8333   14.2546   34.2280 O   0  0  0  0  0  0  0  0  0  0  0  0
   58.6004   12.9307   34.4506 C   0  0  0  0  0  0  0  0  0  0  0  0
   59.6889   14.6099   34.3685 H   0  0  0  0  0  0  0  0  0  0  0  0
   58.8198    7.6741   33.1089 N   0  0  0  0  0  0  0  0  0  0  0  0
   58.2160    7.8672   32.3556 H   0  0  0  0  0  0  0  0  0  0  0  0
   60.1427    7.4927   32.8435 C   0  0  0  0  0  0  0  0  0  0  0  0
   60.5784    6.2582   32.3777 C   0  0  0  0  0  0  0  0  0  0  0  0
   61.0679    8.5189   33.0280 C   0  0  0  0  0  0  0  0  0  0  0  0
   62.4156    8.3061   32.7623 C   0  0  0  0  0  0  0  0  0  0  0  0
   62.8426    7.0689   32.2950 C   0  0  0  0  0  0  0  0  0  0  0  0
   64.2999    6.8287   31.9986 C   0  0  0  0  0  0  0  0  0  0  0  0
   61.9256    6.0440   32.1036 C   0  0  0  0  0  0  0  0  0  0  0  0
 22 27  2  0  0  0
 22 21  1  0  0  0
 27 25  1  0  0  0
  9  3  2  0  0  0
  9  8  1  0  0  0
 19 21  1  0  0  0
 19  6  1  0  0  0
  3  4  1  0  0  0
 21 23  2  0  0  0
 25 26  1  0  0  0
 25 24  2  0  0  0
  8  6  1  0  0  0
  8  1  1  0  0  0
  6  5  2  0  0  0
  4  2  2  0  0  0
 23 24  1  0  0  0
  1  2  1  0  0  0
  1  7  2  0  0  0
  2 10  1  0  0  0
  5  7  1  0  0  0
  5 11  1  0  0  0
 11 12  2  0  0  0
 11 14  1  0  0  0
 12 13  1  0  0  0
 14 15  2  0  0  0
 13 17  2  0  0  0
 15 17  1  0  0  0
 17 16  1  0  0  0
 16 18  1  0  0  0
 19 20  1  0  0  0
M  END
> <minimizedAffinity>
-8.32988

$$$$
5N18_8HZ_A_501


 27 30  0  0  0  0  0  0  0  0999 V2000
   58.6454   12.2847   34.3958 C   0  0  0  0  0  0  0  0  0  0  0  0
   58.1375   13.6345   34.7550 C   0  0  0  0  0  0  0  0  0  0  0  0
   56.0007   12.6403   35.1354 C   0  0  0  0  0  0  0  0  0  0  0  0
   56.8073   13.7684   35.1186 C   0  0  0  0  0  0  0  0  0  0  0  0
   59.9193   10.5814   33.7948 C   0  0  0  0  0  0  0  0  0  0  0  0
   58.5332   10.1734   34.0786 C   0  0  0  0  0  0  0  0  0  0  0  0
   59.8971   11.9096   34.0112 N   0  0  0  0  0  0  0  0  0  0  0  0
   57.7977   11.2318   34.4350 N   0  0  0  0  0  0  0  0  0  0  0  0
   56.5137   11.3921   34.7901 C   0  0  0  0  0  0  0  0  0  0  0  0
   59.0535   14.8284   34.7205 C   0  0  0  0  0  0  0  0  0  0  0  0
   61.0943    9.7931   33.3419 C   0  0  0  0  0  0  0  0  0  0  0  0
   60.9852    9.1161   32.1365 C   0  0  0  0  0  0  0  0  0  0  0  0
   62.0440    8.3584   31.6592 C   0  0  0  0  0  0  0  0  0  0  0  0
   62.2622    9.7203   34.0893 C   0  0  0  0  0  0  0  0  0  0  0  0
   63.3252    8.9595   33.6086 C   0  0  0  0  0  0  0  0  0  0  0  0
   64.2492    7.5321   31.9191 O   0  0  0  0  0  0  0  0  0  0  0  0
   63.2165    8.2810   32.3980 C   0  0  0  0  0  0  0  0  0  0  0  0
   64.1615    7.0809   31.1026 H   0  0  0  0  0  0  0  0  0  0  0  0
   58.0873    8.8928   33.9708 N   0  0  0  0  0  0  0  0  0  0  0  0
   57.8660    8.5507   33.0745 H   0  0  0  0  0  0  0  0  0  0  0  0
   57.9303    8.0585   35.0352 C   0  0  0  0  0  0  0  0  0  0  0  0
   57.9271    6.6848   34.8261 C   0  0  0  0  0  0  0  0  0  0  0  0
   57.7742    8.5533   36.3289 C   0  0  0  0  0  0  0  0  0  0  0  0
   57.6029    7.6822   37.3985 C   0  0  0  0  0  0  0  0  0  0  0  0
   57.6027    6.3096   37.1808 C   0  0  0  0  0  0  0  0  0  0  0  0
   57.4232    5.3561   38.3331 C   0  0  0  0  0  0  0  0  0  0  0  0
   57.7633    5.8097   35.8954 C   0  0  0  0  0  0  0  0  0  0  0  0
 22 27  2  0  0  0
 22 21  1  0  0  0
 27 25  1  0  0  0
  9  3  2  0  0  0
  9  8  1  0  0  0
 19 21  1  0  0  0
 19  6  1  0  0  0
  3  4  1  0  0  0
 21 23  2  0  0  0
 25 26  1  0  0  0
 25 24  2  0  0  0
  8  6  1  0  0  0
  8  1  1  0  0  0
  6  5  2  0  0  0
  4  2  2  0  0  0
 23 24  1  0  0  0
  1  2  1  0  0  0
  1  7  2  0  0  0
  2 10  1  0  0  0
  5  7  1  0  0  0
  5 11  1  0  0  0
 11 12  2  0  0  0
 11 14  1  0  0  0
 12 13  1  0  0  0
 14 15  2  0  0  0
 13 17  2  0  0  0
 15 17  1  0  0  0
 17 16  1  0  0  0
 16 18  1  0  0  0
 19 20  1  0  0  0
M  END
> <minimizedAffinity>
-8.24773

$$$$
5N18_8HZ_A_501


 27 30  0  0  0  0  0  0  0  0999 V2000
   59.3122   11.0539   34.1246 C   0  0  0  0  0  0  0  0  0  0  0  0
   58.8026   12.3758   34.5738 C   0  0  0  0  0  0  0  0  0  0  0  0
   56.5905   11.5024   34.3672 C   0  0  0  0  0  0  0  0  0  0  0  0
   57.4333   12.5582   34.6809 C   0  0  0  0  0  0  0  0  0  0  0  0
   60.6044    9.3584   33.5409 C   0  0  0  0  0  0  0  0  0  0  0  0
   59.1725    9.0208   33.4783 C   0  0  0  0  0  0  0  0  0  0  0  0
   60.5981   10.6421   33.9453 N   0  0  0  0  0  0  0  0  0  0  0  0
   58.4279   10.0724   33.8356 N   0  0  0  0  0  0  0  0  0  0  0  0
   57.1067   10.2786   33.9477 C   0  0  0  0  0  0  0  0  0  0  0  0
   59.7590   13.4907   34.9021 C   0  0  0  0  0  0  0  0  0  0  0  0
   61.8109    8.5537   33.2182 C   0  0  0  0  0  0  0  0  0  0  0  0
   62.9940    8.8880   33.8597 C   0  0  0  0  0  0  0  0  0  0  0  0
   64.1574    8.1794   33.5997 C   0  0  0  0  0  0  0  0  0  0  0  0
   61.7737    7.5082   32.3053 C   0  0  0  0  0  0  0  0  0  0  0  0
   62.9426    6.7968   32.0454 C   0  0  0  0  0  0  0  0  0  0  0  0
   65.2799    6.4435   32.4422 O   0  0  0  0  0  0  0  0  0  0  0  0
   64.1301    7.1312   32.6902 C   0  0  0  0  0  0  0  0  0  0  0  0
   66.0718    6.6800   32.8838 H   0  0  0  0  0  0  0  0  0  0  0  0
   58.7010    7.8044   33.0928 N   0  0  0  0  0  0  0  0  0  0  0  0
   58.4797    7.6705   32.1429 H   0  0  0  0  0  0  0  0  0  0  0  0
   58.5186    6.7621   33.9495 C   0  0  0  0  0  0  0  0  0  0  0  0
   57.8395    6.9754   35.1429 C   0  0  0  0  0  0  0  0  0  0  0  0
   58.9973    5.4867   33.6539 C   0  0  0  0  0  0  0  0  0  0  0  0
   58.8099    4.4408   34.5501 C   0  0  0  0  0  0  0  0  0  0  0  0
   58.1281    4.6623   35.7407 C   0  0  0  0  0  0  0  0  0  0  0  0
   57.9146    3.5350   36.7168 C   0  0  0  0  0  0  0  0  0  0  0  0
   57.6437    5.9290   36.0389 C   0  0  0  0  0  0  0  0  0  0  0  0
 22 27  2  0  0  0
 22 21  1  0  0  0
 27 25  1  0  0  0
  9  3  2  0  0  0
  9  8  1  0  0  0
 19 21  1  0  0  0
 19  6  1  0  0  0
  3  4  1  0  0  0
 21 23  2  0  0  0
 25 26  1  0  0  0
 25 24  2  0  0  0
  8  6  1  0  0  0
  8  1  1  0  0  0
  6  5  2  0  0  0
  4  2  2  0  0  0
 23 24  1  0  0  0
  1  2  1  0  0  0
  1  7  2  0  0  0
  2 10  1  0  0  0
  5  7  1  0  0  0
  5 11  1  0  0  0
 11 12  2  0  0  0
 11 14  1  0  0  0
 12 13  1  0  0  0
 14 15  2  0  0  0
 13 17  2  0  0  0
 15 17  1  0  0  0
 17 16  1  0  0  0
 16 18  1  0  0  0
 19 20  1  0  0  0
M  END
> <minimizedAffinity>
-7.65830

$$$$
5N18_8HZ_A_501


 27 30  0  0  0  0  0  0  0  0999 V2000
   57.8109   11.8741   34.8104 C   0  0  0  0  0  0  0  0  0  0  0  0
   57.1448   13.2025   34.7860 C   0  0  0  0  0  0  0  0  0  0  0  0
   59.3134   14.1979   34.7106 C   0  0  0  0  0  0  0  0  0  0  0  0
   57.9341   14.3402   34.7367 C   0  0  0  0  0  0  0  0  0  0  0  0
   58.2286    9.7040   34.8504 C   0  0  0  0  0  0  0  0  0  0  0  0
   59.4587   10.5120   34.8036 C   0  0  0  0  0  0  0  0  0  0  0  0
   57.2538   10.6320   34.8580 N   0  0  0  0  0  0  0  0  0  0  0  0
   59.1616   11.8156   34.7834 N   0  0  0  0  0  0  0  0  0  0  0  0
   59.9002   12.9349   34.7367 C   0  0  0  0  0  0  0  0  0  0  0  0
   55.6434   13.3039   34.8166 C   0  0  0  0  0  0  0  0  0  0  0  0
   58.0301    8.2330   34.9142 C   0  0  0  0  0  0  0  0  0  0  0  0
   57.5004    7.7085   36.0836 C   0  0  0  0  0  0  0  0  0  0  0  0
   57.2945    6.3429   36.2096 C   0  0  0  0  0  0  0  0  0  0  0  0
   58.3645    7.4002   33.8548 C   0  0  0  0  0  0  0  0  0  0  0  0
   58.1568    6.0289   33.9822 C   0  0  0  0  0  0  0  0  0  0  0  0
   57.4180    4.1622   35.2918 O   0  0  0  0  0  0  0  0  0  0  0  0
   57.6237    5.5022   35.1553 C   0  0  0  0  0  0  0  0  0  0  0  0
   57.0584    3.8220   36.0874 H   0  0  0  0  0  0  0  0  0  0  0  0
   60.7105    9.9796   34.7974 N   0  0  0  0  0  0  0  0  0  0  0  0
   61.1305    9.7676   35.6622 H   0  0  0  0  0  0  0  0  0  0  0  0
   61.4140    9.7241   33.6601 C   0  0  0  0  0  0  0  0  0  0  0  0
   62.8020    9.7779   33.6942 C   0  0  0  0  0  0  0  0  0  0  0  0
   60.7713    9.4087   32.4641 C   0  0  0  0  0  0  0  0  0  0  0  0
   61.5105    9.1640   31.3126 C   0  0  0  0  0  0  0  0  0  0  0  0
   62.8985    9.2182   31.3558 C   0  0  0  0  0  0  0  0  0  0  0  0
   63.7098    8.9496   30.1153 C   0  0  0  0  0  0  0  0  0  0  0  0
   63.5453    9.5262   32.5452 C   0  0  0  0  0  0  0  0  0  0  0  0
 22 27  2  0  0  0
 22 21  1  0  0  0
 27 25  1  0  0  0
  9  3  2  0  0  0
  9  8  1  0  0  0
 19 21  1  0  0  0
 19  6  1  0  0  0
  3  4  1  0  0  0
 21 23  2  0  0  0
 25 26  1  0  0  0
 25 24  2  0  0  0
  8  6  1  0  0  0
  8  1  1  0  0  0
  6  5  2  0  0  0
  4  2  2  0  0  0
 23 24  1  0  0  0
  1  2  1  0  0  0
  1  7  2  0  0  0
  2 10  1  0  0  0
  5  7  1  0  0  0
  5 11  1  0  0  0
 11 12  2  0  0  0
 11 14  1  0  0  0
 12 13  1  0  0  0
 14 15  2  0  0  0
 13 17  2  0  0  0
 15 17  1  0  0  0
 17 16  1  0  0  0
 16 18  1  0  0  0
 19 20  1  0  0  0
M  END
> <minimizedAffinity>
-7.63118

$$$$
5N18_8HZ_A_501


 27 30  0  0  0  0  0  0  0  0999 V2000
   57.2870    6.2377   35.5153 C   0  0  0  0  0  0  0  0  0  0  0  0
   56.4369    5.8102   36.6570 C   0  0  0  0  0  0  0  0  0  0  0  0
   56.9002    7.9145   37.6847 C   0  0  0  0  0  0  0  0  0  0  0  0
   56.2702    6.6796   37.7229 C   0  0  0  0  0  0  0  0  0  0  0  0
   58.3878    6.3327   33.6010 C   0  0  0  0  0  0  0  0  0  0  0  0
   58.5477    7.5577   34.4023 C   0  0  0  0  0  0  0  0  0  0  0  0
   57.5949    5.5652   34.3714 N   0  0  0  0  0  0  0  0  0  0  0  0
   57.8697    7.4575   35.5504 N   0  0  0  0  0  0  0  0  0  0  0  0
   57.6909    8.2780   36.5971 C   0  0  0  0  0  0  0  0  0  0  0  0
   55.7748    4.4585   36.6511 C   0  0  0  0  0  0  0  0  0  0  0  0
   58.9566    5.9483   32.2835 C   0  0  0  0  0  0  0  0  0  0  0  0
   58.0993    5.3688   31.3603 C   0  0  0  0  0  0  0  0  0  0  0  0
   58.5680    4.9829   30.1135 C   0  0  0  0  0  0  0  0  0  0  0  0
   60.2957    6.1479   31.9752 C   0  0  0  0  0  0  0  0  0  0  0  0
   60.7652    5.7604   30.7225 C   0  0  0  0  0  0  0  0  0  0  0  0
   60.3533    4.7952   28.5674 O   0  0  0  0  0  0  0  0  0  0  0  0
   59.9045    5.1800   29.7951 C   0  0  0  0  0  0  0  0  0  0  0  0
   59.7622    4.4058   27.9534 H   0  0  0  0  0  0  0  0  0  0  0  0
   59.2988    8.6220   34.0105 N   0  0  0  0  0  0  0  0  0  0  0  0
   60.1665    8.4463   33.5797 H   0  0  0  0  0  0  0  0  0  0  0  0
   58.9157    9.9172   34.1818 C   0  0  0  0  0  0  0  0  0  0  0  0
   59.8107   10.8214   34.7405 C   0  0  0  0  0  0  0  0  0  0  0  0
   57.6462   10.3546   33.8075 C   0  0  0  0  0  0  0  0  0  0  0  0
   57.2731   11.6792   34.0039 C   0  0  0  0  0  0  0  0  0  0  0  0
   58.1750   12.5775   34.5617 C   0  0  0  0  0  0  0  0  0  0  0  0
   57.7834   14.0165   34.7741 C   0  0  0  0  0  0  0  0  0  0  0  0
   59.4432   12.1498   34.9316 C   0  0  0  0  0  0  0  0  0  0  0  0
 22 27  2  0  0  0
 22 21  1  0  0  0
 27 25  1  0  0  0
  9  3  2  0  0  0
  9  8  1  0  0  0
 19 21  1  0  0  0
 19  6  1  0  0  0
  3  4  1  0  0  0
 21 23  2  0  0  0
 25 26  1  0  0  0
 25 24  2  0  0  0
  8  6  1  0  0  0
  8  1  1  0  0  0
  6  5  2  0  0  0
  4  2  2  0  0  0
 23 24  1  0  0  0
  1  2  1  0  0  0
  1  7  2  0  0  0
  2 10  1  0  0  0
  5  7  1  0  0  0
  5 11  1  0  0  0
 11 12  2  0  0  0
 11 14  1  0  0  0
 12 13  1  0  0  0
 14 15  2  0  0  0
 13 17  2  0  0  0
 15 17  1  0  0  0
 17 16  1  0  0  0
 16 18  1  0  0  0
 19 20  1  0  0  0
M  END
> <minimizedAffinity>
-7.45083

$$$$
5N18_8HZ_A_501


 27 30  0  0  0  0  0  0  0  0999 V2000
   59.6088    6.5145   32.4866 C   0  0  0  0  0  0  0  0  0  0  0  0
   58.7949    5.2769   32.3644 C   0  0  0  0  0  0  0  0  0  0  0  0
   57.7272    5.8736   34.4145 C   0  0  0  0  0  0  0  0  0  0  0  0
   57.8651    4.9934   33.3517 C   0  0  0  0  0  0  0  0  0  0  0  0
   61.0431    8.1604   32.1413 C   0  0  0  0  0  0  0  0  0  0  0  0
   60.2695    8.3403   33.3812 C   0  0  0  0  0  0  0  0  0  0  0  0
   60.5719    6.9978   31.6534 N   0  0  0  0  0  0  0  0  0  0  0  0
   59.4179    7.3238   33.5530 N   0  0  0  0  0  0  0  0  0  0  0  0
   58.5103    7.0227   34.4945 C   0  0  0  0  0  0  0  0  0  0  0  0
   58.9828    4.3530   31.1911 C   0  0  0  0  0  0  0  0  0  0  0  0
   62.1169    8.9877   31.5334 C   0  0  0  0  0  0  0  0  0  0  0  0
   62.2073    9.0034   30.1496 C   0  0  0  0  0  0  0  0  0  0  0  0
   63.1901    9.7517   29.5193 C   0  0  0  0  0  0  0  0  0  0  0  0
   63.0092    9.7172   32.3076 C   0  0  0  0  0  0  0  0  0  0  0  0
   63.9956   10.4688   31.6735 C   0  0  0  0  0  0  0  0  0  0  0  0
   65.0477   11.2161   29.6535 O   0  0  0  0  0  0  0  0  0  0  0  0
   64.0857   10.4860   30.2845 C   0  0  0  0  0  0  0  0  0  0  0  0
   65.0961   11.2180   28.7178 H   0  0  0  0  0  0  0  0  0  0  0  0
   60.4304    9.3964   34.2235 N   0  0  0  0  0  0  0  0  0  0  0  0
   61.2079    9.3961   34.8274 H   0  0  0  0  0  0  0  0  0  0  0  0
   59.5743   10.4537   34.2765 C   0  0  0  0  0  0  0  0  0  0  0  0
   60.0402   11.6821   34.7292 C   0  0  0  0  0  0  0  0  0  0  0  0
   58.2421   10.3299   33.8853 C   0  0  0  0  0  0  0  0  0  0  0  0
   57.3836   11.4206   33.9602 C   0  0  0  0  0  0  0  0  0  0  0  0
   57.8581   12.6460   34.4124 C   0  0  0  0  0  0  0  0  0  0  0  0
   56.9380   13.8360   34.4927 C   0  0  0  0  0  0  0  0  0  0  0  0
   59.1854   12.7778   34.7984 C   0  0  0  0  0  0  0  0  0  0  0  0
 22 27  2  0  0  0
 22 21  1  0  0  0
 27 25  1  0  0  0
  9  3  2  0  0  0
  9  8  1  0  0  0
 19 21  1  0  0  0
 19  6  1  0  0  0
  3  4  1  0  0  0
 21 23  2  0  0  0
 25 26  1  0  0  0
 25 24  2  0  0  0
  8  6  1  0  0  0
  8  1  1  0  0  0
  6  5  2  0  0  0
  4  2  2  0  0  0
 23 24  1  0  0  0
  1  2  1  0  0  0
  1  7  2  0  0  0
  2 10  1  0  0  0
  5  7  1  0  0  0
  5 11  1  0  0  0
 11 12  2  0  0  0
 11 14  1  0  0  0
 12 13  1  0  0  0
 14 15  2  0  0  0
 13 17  2  0  0  0
 15 17  1  0  0  0
 17 16  1  0  0  0
 16 18  1  0  0  0
 19 20  1  0  0  0
M  END
> <minimizedAffinity>
-7.27030

$$$$
5N18_8HZ_A_501


 27 30  0  0  0  0  0  0  0  0999 V2000
   58.6261    4.9008   34.8977 C   0  0  0  0  0  0  0  0  0  0  0  0
   58.4690    4.1551   36.1738 C   0  0  0  0  0  0  0  0  0  0  0  0
   57.4281    6.0995   37.0876 C   0  0  0  0  0  0  0  0  0  0  0  0
   57.8645    4.7925   37.2452 C   0  0  0  0  0  0  0  0  0  0  0  0
   59.1019    5.4854   32.8200 C   0  0  0  0  0  0  0  0  0  0  0  0
   58.4432    6.5672   33.5710 C   0  0  0  0  0  0  0  0  0  0  0  0
   59.1809    4.4907   33.7232 N   0  0  0  0  0  0  0  0  0  0  0  0
   58.1760    6.1736   34.8207 N   0  0  0  0  0  0  0  0  0  0  0  0
   57.5954    6.7655   35.8757 C   0  0  0  0  0  0  0  0  0  0  0  0
   58.9602    2.7375   36.2945 C   0  0  0  0  0  0  0  0  0  0  0  0
   59.6150    5.4382   31.4265 C   0  0  0  0  0  0  0  0  0  0  0  0
   60.8468    6.0245   31.1775 C   0  0  0  0  0  0  0  0  0  0  0  0
   61.3804    6.0189   29.8975 C   0  0  0  0  0  0  0  0  0  0  0  0
   58.8971    4.8402   30.3994 C   0  0  0  0  0  0  0  0  0  0  0  0
   59.4342    4.8347   29.1144 C   0  0  0  0  0  0  0  0  0  0  0  0
   61.2055    5.4242   27.6108 O   0  0  0  0  0  0  0  0  0  0  0  0
   60.6713    5.4219   28.8643 C   0  0  0  0  0  0  0  0  0  0  0  0
   62.0393    5.8233   27.4576 H   0  0  0  0  0  0  0  0  0  0  0  0
   58.1701    7.7918   33.0454 N   0  0  0  0  0  0  0  0  0  0  0  0
   57.5776    7.8401   32.2606 H   0  0  0  0  0  0  0  0  0  0  0  0
   58.6717    8.9543   33.5460 C   0  0  0  0  0  0  0  0  0  0  0  0
   57.7970    9.9112   34.0461 C   0  0  0  0  0  0  0  0  0  0  0  0
   60.0430    9.2036   33.5682 C   0  0  0  0  0  0  0  0  0  0  0  0
   60.5309   10.4034   34.0728 C   0  0  0  0  0  0  0  0  0  0  0  0
   59.6493   11.3544   34.5727 C   0  0  0  0  0  0  0  0  0  0  0  0
   60.1673   12.6558   35.1268 C   0  0  0  0  0  0  0  0  0  0  0  0
   58.2825   11.1102   34.5588 C   0  0  0  0  0  0  0  0  0  0  0  0
 22 27  2  0  0  0
 22 21  1  0  0  0
 27 25  1  0  0  0
  9  3  2  0  0  0
  9  8  1  0  0  0
 19 21  1  0  0  0
 19  6  1  0  0  0
  3  4  1  0  0  0
 21 23  2  0  0  0
 25 26  1  0  0  0
 25 24  2  0  0  0
  8  6  1  0  0  0
  8  1  1  0  0  0
  6  5  2  0  0  0
  4  2  2  0  0  0
 23 24  1  0  0  0
  1  2  1  0  0  0
  1  7  2  0  0  0
  2 10  1  0  0  0
  5  7  1  0  0  0
  5 11  1  0  0  0
 11 12  2  0  0  0
 11 14  1  0  0  0
 12 13  1  0  0  0
 14 15  2  0  0  0
 13 17  2  0  0  0
 15 17  1  0  0  0
 17 16  1  0  0  0
 16 18  1  0  0  0
 19 20  1  0  0  0
M  END
> <minimizedAffinity>
-7.13413

$$$$
5N18_8HZ_A_501


 27 30  0  0  0  0  0  0  0  0999 V2000
   57.4135    6.0128   35.5975 C   0  0  0  0  0  0  0  0  0  0  0  0
   56.8313    5.8824   36.9587 C   0  0  0  0  0  0  0  0  0  0  0  0
   57.2457    8.2126   37.2710 C   0  0  0  0  0  0  0  0  0  0  0  0
   56.7669    7.0080   37.7641 C   0  0  0  0  0  0  0  0  0  0  0  0
   58.1379    5.6192   33.5467 C   0  0  0  0  0  0  0  0  0  0  0  0
   58.3080    7.0274   33.9419 C   0  0  0  0  0  0  0  0  0  0  0  0
   57.5812    5.0610   34.6375 N   0  0  0  0  0  0  0  0  0  0  0  0
   57.8607    7.2212   35.1871 N   0  0  0  0  0  0  0  0  0  0  0  0
   57.7862    8.2939   35.9898 C   0  0  0  0  0  0  0  0  0  0  0  0
   56.3256    4.5518   37.4479 C   0  0  0  0  0  0  0  0  0  0  0  0
   58.4994    4.9078   32.2935 C   0  0  0  0  0  0  0  0  0  0  0  0
   59.1741    3.7022   32.4134 C   0  0  0  0  0  0  0  0  0  0  0  0
   59.5445    2.9902   31.2825 C   0  0  0  0  0  0  0  0  0  0  0  0
   58.1874    5.4210   31.0416 C   0  0  0  0  0  0  0  0  0  0  0  0
   58.5595    4.7047   29.9065 C   0  0  0  0  0  0  0  0  0  0  0  0
   59.6061    2.7857   28.9229 O   0  0  0  0  0  0  0  0  0  0  0  0
   59.2355    3.4938   30.0265 C   0  0  0  0  0  0  0  0  0  0  0  0
   60.0607    1.9721   29.0192 H   0  0  0  0  0  0  0  0  0  0  0  0
   58.8601    7.9749   33.1369 N   0  0  0  0  0  0  0  0  0  0  0  0
   58.2728    8.4480   32.5041 H   0  0  0  0  0  0  0  0  0  0  0  0
   60.1810    8.3043   33.1589 C   0  0  0  0  0  0  0  0  0  0  0  0
   60.5576    9.5701   33.5911 C   0  0  0  0  0  0  0  0  0  0  0  0
   61.1621    7.3987   32.7586 C   0  0  0  0  0  0  0  0  0  0  0  0
   62.5036    7.7621   32.7778 C   0  0  0  0  0  0  0  0  0  0  0  0
   62.8719    9.0295   33.2132 C   0  0  0  0  0  0  0  0  0  0  0  0
   64.3231    9.4322   33.2433 C   0  0  0  0  0  0  0  0  0  0  0  0
   61.9002    9.9346   33.6186 C   0  0  0  0  0  0  0  0  0  0  0  0
 22 27  2  0  0  0
 22 21  1  0  0  0
 27 25  1  0  0  0
  9  3  2  0  0  0
  9  8  1  0  0  0
 19 21  1  0  0  0
 19  6  1  0  0  0
  3  4  1  0  0  0
 21 23  2  0  0  0
 25 26  1  0  0  0
 25 24  2  0  0  0
  8  6  1  0  0  0
  8  1  1  0  0  0
  6  5  2  0  0  0
  4  2  2  0  0  0
 23 24  1  0  0  0
  1  2  1  0  0  0
  1  7  2  0  0  0
  2 10  1  0  0  0
  5  7  1  0  0  0
  5 11  1  0  0  0
 11 12  2  0  0  0
 11 14  1  0  0  0
 12 13  1  0  0  0
 14 15  2  0  0  0
 13 17  2  0  0  0
 15 17  1  0  0  0
 17 16  1  0  0  0
 16 18  1  0  0  0
 19 20  1  0  0  0
M  END
> <minimizedAffinity>
-6.96417

$$$$
