4FHT_DHB_A_201


 14 14  0  0  0  0  0  0  0  0999 V2000
   33.3652   39.7911   23.0850 C   0  0  0  0  0  0  0  0  0  0  0  0
   32.3468   40.5244   22.4982 C   0  0  0  0  0  0  0  0  0  0  0  0
   32.5489   41.8536   22.1603 C   0  0  0  0  0  0  0  0  0  0  0  0
   31.5370   42.5735   21.5658 O   0  0  0  0  0  0  0  0  0  0  0  0
   33.7711   42.4544   22.4141 C   0  0  0  0  0  0  0  0  0  0  0  0
   33.9618   43.7742   22.0783 O   0  0  0  0  0  0  0  0  0  0  0  0
   34.7962   41.7257   23.0044 C   0  0  0  0  0  0  0  0  0  0  0  0
   34.5936   40.3916   23.3403 C   0  0  0  0  0  0  0  0  0  0  0  0
   30.7106   42.1664   21.3944 H   0  0  0  0  0  0  0  0  0  0  0  0
   33.2674   44.2615   21.6804 H   0  0  0  0  0  0  0  0  0  0  0  0
   33.1327   38.3627   23.4506 C   0  0  0  0  0  0  0  0  0  0  0  0
   32.1834   37.7216   22.9264 O   0  0  0  0  0  0  0  0  0  0  0  0
   33.8315   37.8236   24.3464 O   0  0  0  0  0  0  0  0  0  0  0  0
   34.5382   38.2980   24.7381 H   0  0  0  0  0  0  0  0  0  0  0  0
  1  2  2  0  0  0
  1  8  1  0  0  0
  1 11  1  0  0  0
  2  3  1  0  0  0
  3  4  1  0  0  0
  3  5  2  0  0  0
  5  6  1  0  0  0
  5  7  1  0  0  0
  7  8  2  0  0  0
 11 12  2  0  0  0
 11 13  1  0  0  0
  4  9  1  0  0  0
  6 10  1  0  0  0
 13 14  1  0  0  0
M  END
> <minimizedAffinity>
-7.41226

$$$$
4FHT_DHB_A_201


 14 14  0  0  0  0  0  0  0  0999 V2000
   33.5397   41.3880   22.7969 C   0  0  0  0  0  0  0  0  0  0  0  0
   32.4722   40.5143   22.6687 C   0  0  0  0  0  0  0  0  0  0  0  0
   32.5810   39.2082   23.1204 C   0  0  0  0  0  0  0  0  0  0  0  0
   31.5123   38.3484   23.0017 O   0  0  0  0  0  0  0  0  0  0  0  0
   33.7621   38.7714   23.6978 C   0  0  0  0  0  0  0  0  0  0  0  0
   33.8621   37.4733   24.1405 O   0  0  0  0  0  0  0  0  0  0  0  0
   34.8374   39.6415   23.8276 C   0  0  0  0  0  0  0  0  0  0  0  0
   34.7265   40.9524   23.3769 C   0  0  0  0  0  0  0  0  0  0  0  0
   30.7138   38.6446   22.6110 H   0  0  0  0  0  0  0  0  0  0  0  0
   33.1341   36.8903   24.0507 H   0  0  0  0  0  0  0  0  0  0  0  0
   33.4124   42.7899   22.3000 C   0  0  0  0  0  0  0  0  0  0  0  0
   32.2792   43.3355   22.2281 O   0  0  0  0  0  0  0  0  0  0  0  0
   34.4268   43.3972   21.8719 O   0  0  0  0  0  0  0  0  0  0  0  0
   35.2710   42.9940   21.9241 H   0  0  0  0  0  0  0  0  0  0  0  0
  1  2  2  0  0  0
  1  8  1  0  0  0
  1 11  1  0  0  0
  2  3  1  0  0  0
  3  4  1  0  0  0
  3  5  2  0  0  0
  5  6  1  0  0  0
  5  7  1  0  0  0
  7  8  2  0  0  0
 11 12  2  0  0  0
 11 13  1  0  0  0
  4  9  1  0  0  0
  6 10  1  0  0  0
 13 14  1  0  0  0
M  END
> <minimizedAffinity>
-7.33854

$$$$
4FHT_DHB_A_201


 14 14  0  0  0  0  0  0  0  0999 V2000
   33.1768   39.8282   23.0899 C   0  0  0  0  0  0  0  0  0  0  0  0
   34.3267   40.4978   23.4755 C   0  0  0  0  0  0  0  0  0  0  0  0
   34.5014   41.8326   23.1448 C   0  0  0  0  0  0  0  0  0  0  0  0
   35.6407   42.4960   23.5419 O   0  0  0  0  0  0  0  0  0  0  0  0
   33.5263   42.5002   22.4218 C   0  0  0  0  0  0  0  0  0  0  0  0
   33.7094   43.8236   22.0956 O   0  0  0  0  0  0  0  0  0  0  0  0
   32.3717   41.8345   22.0298 C   0  0  0  0  0  0  0  0  0  0  0  0
   32.1958   40.4962   22.3645 C   0  0  0  0  0  0  0  0  0  0  0  0
   36.2997   42.0438   24.0309 H   0  0  0  0  0  0  0  0  0  0  0  0
   34.4899   44.2682   22.3623 H   0  0  0  0  0  0  0  0  0  0  0  0
   33.0039   38.3890   23.4460 C   0  0  0  0  0  0  0  0  0  0  0  0
   32.0380   37.7319   22.9745 O   0  0  0  0  0  0  0  0  0  0  0  0
   33.7732   37.8545   24.2848 O   0  0  0  0  0  0  0  0  0  0  0  0
   34.4925   38.3407   24.6373 H   0  0  0  0  0  0  0  0  0  0  0  0
  1  2  2  0  0  0
  1  8  1  0  0  0
  1 11  1  0  0  0
  2  3  1  0  0  0
  3  4  1  0  0  0
  3  5  2  0  0  0
  5  6  1  0  0  0
  5  7  1  0  0  0
  7  8  2  0  0  0
 11 12  2  0  0  0
 11 13  1  0  0  0
  4  9  1  0  0  0
  6 10  1  0  0  0
 13 14  1  0  0  0
M  END
> <minimizedAffinity>
-6.61528

$$$$
4FHT_DHB_A_201


 14 14  0  0  0  0  0  0  0  0999 V2000
   33.3922   41.7144   22.7015 C   0  0  0  0  0  0  0  0  0  0  0  0
   34.4306   41.2143   23.4702 C   0  0  0  0  0  0  0  0  0  0  0  0
   34.4381   39.8815   23.8513 C   0  0  0  0  0  0  0  0  0  0  0  0
   35.4793   39.3875   24.6046 O   0  0  0  0  0  0  0  0  0  0  0  0
   33.4018   39.0458   23.4676 C   0  0  0  0  0  0  0  0  0  0  0  0
   33.4160   37.7257   23.8526 O   0  0  0  0  0  0  0  0  0  0  0  0
   32.3561   39.5410   22.6986 C   0  0  0  0  0  0  0  0  0  0  0  0
   32.3509   40.8774   22.3142 C   0  0  0  0  0  0  0  0  0  0  0  0
   36.1797   39.9533   24.8637 H   0  0  0  0  0  0  0  0  0  0  0  0
   34.1235   37.3965   24.3712 H   0  0  0  0  0  0  0  0  0  0  0  0
   33.3922   43.1531   22.3037 C   0  0  0  0  0  0  0  0  0  0  0  0
   32.3533   43.8503   22.4499 O   0  0  0  0  0  0  0  0  0  0  0  0
   34.4031   43.6478   21.7426 O   0  0  0  0  0  0  0  0  0  0  0  0
   35.1773   43.1316   21.6324 H   0  0  0  0  0  0  0  0  0  0  0  0
  1  2  2  0  0  0
  1  8  1  0  0  0
  1 11  1  0  0  0
  2  3  1  0  0  0
  3  4  1  0  0  0
  3  5  2  0  0  0
  5  6  1  0  0  0
  5  7  1  0  0  0
  7  8  2  0  0  0
 11 12  2  0  0  0
 11 13  1  0  0  0
  4  9  1  0  0  0
  6 10  1  0  0  0
 13 14  1  0  0  0
M  END
> <minimizedAffinity>
-6.19188

$$$$
4FHT_DHB_A_201


 14 14  0  0  0  0  0  0  0  0999 V2000
   32.9872   41.9898   22.5784 C   0  0  0  0  0  0  0  0  0  0  0  0
   32.3429   40.7634   22.5907 C   0  0  0  0  0  0  0  0  0  0  0  0
   33.0275   39.6189   22.9690 C   0  0  0  0  0  0  0  0  0  0  0  0
   32.3782   38.4051   22.9912 O   0  0  0  0  0  0  0  0  0  0  0  0
   34.3622   39.6986   23.3316 C   0  0  0  0  0  0  0  0  0  0  0  0
   35.0343   38.5576   23.7028 O   0  0  0  0  0  0  0  0  0  0  0  0
   35.0153   40.9247   23.3196 C   0  0  0  0  0  0  0  0  0  0  0  0
   34.3270   42.0728   22.9428 C   0  0  0  0  0  0  0  0  0  0  0  0
   31.4755   38.3520   22.7458 H   0  0  0  0  0  0  0  0  0  0  0  0
   34.5894   37.7330   23.7093 H   0  0  0  0  0  0  0  0  0  0  0  0
   32.2408   43.2137   22.1622 C   0  0  0  0  0  0  0  0  0  0  0  0
   31.2337   43.1164   21.4118 O   0  0  0  0  0  0  0  0  0  0  0  0
   32.6681   44.3499   22.4906 O   0  0  0  0  0  0  0  0  0  0  0  0
   33.4170   44.4255   23.0487 H   0  0  0  0  0  0  0  0  0  0  0  0
  1  2  2  0  0  0
  1  8  1  0  0  0
  1 11  1  0  0  0
  2  3  1  0  0  0
  3  4  1  0  0  0
  3  5  2  0  0  0
  5  6  1  0  0  0
  5  7  1  0  0  0
  7  8  2  0  0  0
 11 12  2  0  0  0
 11 13  1  0  0  0
  4  9  1  0  0  0
  6 10  1  0  0  0
 13 14  1  0  0  0
M  END
> <minimizedAffinity>
-5.98583

$$$$
4FHT_DHB_A_201


 14 14  0  0  0  0  0  0  0  0999 V2000
   34.1970   40.6804   23.1750 C   0  0  0  0  0  0  0  0  0  0  0  0
   34.3869   42.0348   22.9536 C   0  0  0  0  0  0  0  0  0  0  0  0
   33.3931   42.7896   22.3501 C   0  0  0  0  0  0  0  0  0  0  0  0
   33.5828   44.1376   22.1442 O   0  0  0  0  0  0  0  0  0  0  0  0
   32.2069   42.1886   21.9613 C   0  0  0  0  0  0  0  0  0  0  0  0
   31.2277   42.9446   21.3607 O   0  0  0  0  0  0  0  0  0  0  0  0
   32.0105   40.8305   22.1782 C   0  0  0  0  0  0  0  0  0  0  0  0
   33.0067   40.0746   22.7864 C   0  0  0  0  0  0  0  0  0  0  0  0
   34.3854   44.5433   22.4074 H   0  0  0  0  0  0  0  0  0  0  0  0
   31.3649   43.8602   21.2166 H   0  0  0  0  0  0  0  0  0  0  0  0
   35.2777   39.8772   23.8193 C   0  0  0  0  0  0  0  0  0  0  0  0
   36.4785   40.0408   23.4757 O   0  0  0  0  0  0  0  0  0  0  0  0
   34.9809   38.9757   24.6443 O   0  0  0  0  0  0  0  0  0  0  0  0
   34.0886   38.8516   24.9018 H   0  0  0  0  0  0  0  0  0  0  0  0
  1  2  2  0  0  0
  1  8  1  0  0  0
  1 11  1  0  0  0
  2  3  1  0  0  0
  3  4  1  0  0  0
  3  5  2  0  0  0
  5  6  1  0  0  0
  5  7  1  0  0  0
  7  8  2  0  0  0
 11 12  2  0  0  0
 11 13  1  0  0  0
  4  9  1  0  0  0
  6 10  1  0  0  0
 13 14  1  0  0  0
M  END
> <minimizedAffinity>
-4.58048

$$$$
