3TKW_017_B_401


 42 45  0  0  0  0  0  0  0  0999 V2000
  -13.4473   19.9293  -17.9716 C   0  0  0  0  0  0  0  0  0  0  0  0
  -14.4464   18.9828  -18.3788 O   0  0  0  0  0  0  0  0  0  0  0  0
  -15.2471   19.4562  -18.6539 H   0  0  0  0  0  0  0  0  0  0  0  0
  -13.9330   20.7248  -16.7616 C   0  0  0  0  0  0  0  0  0  0  0  0
  -13.5926   20.0448  -15.5204 N   0  0  0  0  0  0  0  0  0  0  0  0
  -12.0561   20.3340  -15.0765 S   0  0  0  0  0  0  0  0  0  0  0  0
  -11.9377   20.0317  -13.6206 O   0  0  0  0  0  0  0  0  0  0  0  0
  -11.6985   21.7426  -15.4227 O   0  0  0  0  0  0  0  0  0  0  0  0
   -8.4339   16.8355  -18.0226 N   0  0  0  0  0  0  0  0  0  0  0  0
   -9.1747   17.6868  -17.3567 C   0  0  0  0  0  0  0  0  0  0  0  0
  -10.4598   17.2212  -17.1072 C   0  0  0  0  0  0  0  0  0  0  0  0
  -11.3612   18.0290  -16.4047 C   0  0  0  0  0  0  0  0  0  0  0  0
  -10.9650   19.2806  -15.9634 C   0  0  0  0  0  0  0  0  0  0  0  0
   -9.6897   19.7562  -16.2046 C   0  0  0  0  0  0  0  0  0  0  0  0
   -8.7947   18.9535  -16.9036 C   0  0  0  0  0  0  0  0  0  0  0  0
   -8.8066   15.9654  -18.2933 H   0  0  0  0  0  0  0  0  0  0  0  0
   -7.5048   17.0659  -18.2522 H   0  0  0  0  0  0  0  0  0  0  0  0
  -14.6019   20.0906  -14.4901 C   0  0  0  0  0  0  0  0  0  0  0  0
  -15.1254   21.5194  -14.3364 C   0  0  0  0  0  0  0  0  0  0  0  0
  -16.6620   21.5497  -14.3965 C   0  0  0  0  0  0  0  0  0  0  0  0
  -14.6058   22.1706  -13.0490 C   0  0  0  0  0  0  0  0  0  0  0  0
  -13.1495   20.8187  -19.1892 C   0  0  0  0  0  0  0  0  0  0  0  0
  -14.2902   21.7269  -19.3339 N   0  0  0  0  0  0  0  0  0  0  0  0
  -14.3146   22.7538  -20.1905 C   0  0  0  0  0  0  0  0  0  0  0  0
  -13.3881   22.9730  -20.9732 O   0  0  0  0  0  0  0  0  0  0  0  0
  -15.0821   21.5728  -18.7696 H   0  0  0  0  0  0  0  0  0  0  0  0
  -15.4002   23.5441  -20.1531 O   0  0  0  0  0  0  0  0  0  0  0  0
  -15.2919   24.9275  -19.9375 C   0  0  0  0  0  0  0  0  0  0  0  0
  -16.2404   25.6154  -20.9328 C   0  0  0  0  0  0  0  0  0  0  0  0
  -17.5321   25.4087  -20.3388 O   0  0  0  0  0  0  0  0  0  0  0  0
  -17.3874   25.5143  -18.9235 C   0  0  0  0  0  0  0  0  0  0  0  0
  -18.0814   24.4397  -18.2629 O   0  0  0  0  0  0  0  0  0  0  0  0
  -17.1348   23.5394  -17.7141 C   0  0  0  0  0  0  0  0  0  0  0  0
  -15.8431   24.3316  -17.4938 C   0  0  0  0  0  0  0  0  0  0  0  0
  -15.9030   25.3935  -18.6077 C   0  0  0  0  0  0  0  0  0  0  0  0
  -11.8612   21.6213  -18.9771 C   0  0  0  0  0  0  0  0  0  0  0  0
  -10.8352   19.6062  -20.1270 C   0  0  0  0  0  0  0  0  0  0  0  0
   -9.7412   18.9369  -20.6625 C   0  0  0  0  0  0  0  0  0  0  0  0
   -8.4843   19.5300  -20.6584 C   0  0  0  0  0  0  0  0  0  0  0  0
   -8.3414   20.8112  -20.1414 C   0  0  0  0  0  0  0  0  0  0  0  0
   -9.4253   21.4973  -19.6100 C   0  0  0  0  0  0  0  0  0  0  0  0
  -10.6737   20.8885  -19.6129 C   0  0  0  0  0  0  0  0  0  0  0  0
  9 10  1  0  0  0
 10 11  2  0  0  0
 10 15  1  0  0  0
 11 12  1  0  0  0
 12 13  2  0  0  0
 13 14  1  0  0  0
 13  6  1  0  0  0
 14 15  2  0  0  0
  6  7  2  0  0  0
  6  8  2  0  0  0
  6  5  1  0  0  0
  5 18  1  0  0  0
  5  4  1  0  0  0
 18 19  1  0  0  0
 19 20  1  0  0  0
 19 21  1  0  0  0
  4  1  1  0  0  0
  1  2  1  0  0  0
  1 22  1  0  0  0
 22 23  1  0  0  0
 22 36  1  0  0  0
 23 24  1  0  0  0
 24 25  2  0  0  0
 24 27  1  0  0  0
 27 28  1  0  0  0
 28 29  1  0  0  0
 28 35  1  0  0  0
 29 30  1  0  0  0
 30 31  1  0  0  0
 31 32  1  0  0  0
 31 35  1  0  0  0
 32 33  1  0  0  0
 33 34  1  0  0  0
 34 35  1  0  0  0
 36 42  1  0  0  0
 37 38  2  0  0  0
 37 42  1  0  0  0
 38 39  1  0  0  0
 39 40  2  0  0  0
 40 41  1  0  0  0
 41 42  2  0  0  0
  9 16  1  0  0  0
  9 17  1  0  0  0
  2  3  1  0  0  0
 23 26  1  0  0  0
M  END
> <minimizedAffinity>
-9.63254

$$$$
3TKW_017_B_401


 42 45  0  0  0  0  0  0  0  0999 V2000
  -12.2499   18.7063  -18.1098 C   0  0  0  0  0  0  0  0  0  0  0  0
  -12.7540   17.6215  -18.9027 O   0  0  0  0  0  0  0  0  0  0  0  0
  -12.7216   17.8646  -19.8412 H   0  0  0  0  0  0  0  0  0  0  0  0
  -13.1312   19.9419  -18.2810 C   0  0  0  0  0  0  0  0  0  0  0  0
  -12.8771   20.9131  -17.2269 N   0  0  0  0  0  0  0  0  0  0  0  0
  -12.2600   22.2959  -17.8174 S   0  0  0  0  0  0  0  0  0  0  0  0
  -11.0675   21.9469  -18.6428 O   0  0  0  0  0  0  0  0  0  0  0  0
  -11.9505   23.2215  -16.6864 O   0  0  0  0  0  0  0  0  0  0  0  0
  -16.1893   24.9464  -21.2195 N   0  0  0  0  0  0  0  0  0  0  0  0
  -15.2683   24.3120  -20.5367 C   0  0  0  0  0  0  0  0  0  0  0  0
  -15.3500   24.5301  -19.1669 C   0  0  0  0  0  0  0  0  0  0  0  0
  -14.4263   23.9144  -18.3147 C   0  0  0  0  0  0  0  0  0  0  0  0
  -13.4433   23.0937  -18.8421 C   0  0  0  0  0  0  0  0  0  0  0  0
  -13.3505   22.8680  -20.2027 C   0  0  0  0  0  0  0  0  0  0  0  0
  -14.2680   23.4809  -21.0492 C   0  0  0  0  0  0  0  0  0  0  0  0
  -16.8486   25.5088  -20.7523 H   0  0  0  0  0  0  0  0  0  0  0  0
  -16.2221   24.8605  -22.1997 H   0  0  0  0  0  0  0  0  0  0  0  0
  -13.9056   21.0207  -16.2204 C   0  0  0  0  0  0  0  0  0  0  0  0
  -13.5243   20.1895  -14.9946 C   0  0  0  0  0  0  0  0  0  0  0  0
  -12.0062   20.2348  -14.7521 C   0  0  0  0  0  0  0  0  0  0  0  0
  -14.3003   20.6384  -13.7504 C   0  0  0  0  0  0  0  0  0  0  0  0
  -10.7966   18.9453  -18.5491 C   0  0  0  0  0  0  0  0  0  0  0  0
   -9.9724   17.9834  -17.8125 N   0  0  0  0  0  0  0  0  0  0  0  0
   -9.0968   18.3329  -16.8639 C   0  0  0  0  0  0  0  0  0  0  0  0
   -8.9655   19.5017  -16.4953 O   0  0  0  0  0  0  0  0  0  0  0  0
  -10.0685   17.0276  -18.0277 H   0  0  0  0  0  0  0  0  0  0  0  0
   -8.3576   17.3450  -16.3326 O   0  0  0  0  0  0  0  0  0  0  0  0
   -7.9318   17.3869  -14.9952 C   0  0  0  0  0  0  0  0  0  0  0  0
   -9.0881   16.8501  -14.1359 C   0  0  0  0  0  0  0  0  0  0  0  0
   -9.0059   15.4304  -14.3402 O   0  0  0  0  0  0  0  0  0  0  0  0
   -7.6262   15.0764  -14.4193 C   0  0  0  0  0  0  0  0  0  0  0  0
   -7.3959   14.1846  -15.5258 O   0  0  0  0  0  0  0  0  0  0  0  0
   -6.6843   14.8723  -16.5401 C   0  0  0  0  0  0  0  0  0  0  0  0
   -5.9296   16.0160  -15.8568 C   0  0  0  0  0  0  0  0  0  0  0  0
   -6.8411   16.3577  -14.6633 C   0  0  0  0  0  0  0  0  0  0  0  0
  -10.6393   18.7267  -20.0578 C   0  0  0  0  0  0  0  0  0  0  0  0
   -8.4713   17.7237  -20.9119 C   0  0  0  0  0  0  0  0  0  0  0  0
   -7.1225   17.8316  -21.2289 C   0  0  0  0  0  0  0  0  0  0  0  0
   -6.4565   19.0401  -21.0628 C   0  0  0  0  0  0  0  0  0  0  0  0
   -7.1627   20.1456  -20.6062 C   0  0  0  0  0  0  0  0  0  0  0  0
   -8.5124   20.0575  -20.2926 C   0  0  0  0  0  0  0  0  0  0  0  0
   -9.1627   18.8409  -20.4553 C   0  0  0  0  0  0  0  0  0  0  0  0
  9 10  1  0  0  0
 10 11  2  0  0  0
 10 15  1  0  0  0
 11 12  1  0  0  0
 12 13  2  0  0  0
 13 14  1  0  0  0
 13  6  1  0  0  0
 14 15  2  0  0  0
  6  7  2  0  0  0
  6  8  2  0  0  0
  6  5  1  0  0  0
  5 18  1  0  0  0
  5  4  1  0  0  0
 18 19  1  0  0  0
 19 20  1  0  0  0
 19 21  1  0  0  0
  4  1  1  0  0  0
  1  2  1  0  0  0
  1 22  1  0  0  0
 22 23  1  0  0  0
 22 36  1  0  0  0
 23 24  1  0  0  0
 24 25  2  0  0  0
 24 27  1  0  0  0
 27 28  1  0  0  0
 28 29  1  0  0  0
 28 35  1  0  0  0
 29 30  1  0  0  0
 30 31  1  0  0  0
 31 32  1  0  0  0
 31 35  1  0  0  0
 32 33  1  0  0  0
 33 34  1  0  0  0
 34 35  1  0  0  0
 36 42  1  0  0  0
 37 38  2  0  0  0
 37 42  1  0  0  0
 38 39  1  0  0  0
 39 40  2  0  0  0
 40 41  1  0  0  0
 41 42  2  0  0  0
  9 16  1  0  0  0
  9 17  1  0  0  0
  2  3  1  0  0  0
 23 26  1  0  0  0
M  END
> <minimizedAffinity>
-9.47492

$$$$
3TKW_017_B_401


 42 45  0  0  0  0  0  0  0  0999 V2000
  -10.0008   20.5429  -19.3823 C   0  0  0  0  0  0  0  0  0  0  0  0
   -9.3614   21.7554  -19.8072 O   0  0  0  0  0  0  0  0  0  0  0  0
   -8.6079   21.9444  -19.2262 H   0  0  0  0  0  0  0  0  0  0  0  0
  -10.5569   20.7043  -17.9690 C   0  0  0  0  0  0  0  0  0  0  0  0
  -11.9948   20.9293  -17.9975 N   0  0  0  0  0  0  0  0  0  0  0  0
  -12.8117   19.6920  -17.3317 S   0  0  0  0  0  0  0  0  0  0  0  0
  -11.9483   18.4785  -17.4149 O   0  0  0  0  0  0  0  0  0  0  0  0
  -14.1252   19.5364  -18.0264 O   0  0  0  0  0  0  0  0  0  0  0  0
  -13.9246   20.8243  -11.7176 N   0  0  0  0  0  0  0  0  0  0  0  0
  -13.7701   20.5833  -12.9963 C   0  0  0  0  0  0  0  0  0  0  0  0
  -12.4565   20.2990  -13.3485 C   0  0  0  0  0  0  0  0  0  0  0  0
  -12.1456   20.0228  -14.6847 C   0  0  0  0  0  0  0  0  0  0  0  0
  -13.1472   20.0328  -15.6412 C   0  0  0  0  0  0  0  0  0  0  0  0
  -14.4581   20.3139  -15.3048 C   0  0  0  0  0  0  0  0  0  0  0  0
  -14.7664   20.5893  -13.9769 C   0  0  0  0  0  0  0  0  0  0  0  0
  -13.1479   20.7928  -11.1134 H   0  0  0  0  0  0  0  0  0  0  0  0
  -14.8173   21.0369  -11.3611 H   0  0  0  0  0  0  0  0  0  0  0  0
  -12.4212   22.2658  -17.6595 C   0  0  0  0  0  0  0  0  0  0  0  0
  -13.5175   22.7226  -18.6229 C   0  0  0  0  0  0  0  0  0  0  0  0
  -13.8355   24.2142  -18.4243 C   0  0  0  0  0  0  0  0  0  0  0  0
  -13.1435   22.4224  -20.0795 C   0  0  0  0  0  0  0  0  0  0  0  0
   -8.9530   19.4232  -19.4862 C   0  0  0  0  0  0  0  0  0  0  0  0
   -9.1275   18.5748  -18.3043 N   0  0  0  0  0  0  0  0  0  0  0  0
   -8.1267   17.9108  -17.7158 C   0  0  0  0  0  0  0  0  0  0  0  0
   -6.9594   18.0174  -18.0969 O   0  0  0  0  0  0  0  0  0  0  0  0
  -10.0308   18.4890  -17.9225 H   0  0  0  0  0  0  0  0  0  0  0  0
   -8.4563   17.1117  -16.6875 O   0  0  0  0  0  0  0  0  0  0  0  0
   -8.0911   17.4269  -15.3688 C   0  0  0  0  0  0  0  0  0  0  0  0
   -9.2880   17.0723  -14.4714 C   0  0  0  0  0  0  0  0  0  0  0  0
   -9.2048   15.6411  -14.3782 O   0  0  0  0  0  0  0  0  0  0  0  0
   -7.8249   15.2834  -14.3209 C   0  0  0  0  0  0  0  0  0  0  0  0
   -7.5500   14.1856  -15.2108 O   0  0  0  0  0  0  0  0  0  0  0  0
   -6.7895   14.6546  -16.3106 C   0  0  0  0  0  0  0  0  0  0  0  0
   -6.0599   15.9164  -15.8412 C   0  0  0  0  0  0  0  0  0  0  0  0
   -7.0224   16.4909  -14.7850 C   0  0  0  0  0  0  0  0  0  0  0  0
   -9.1597   18.5985  -20.7613 C   0  0  0  0  0  0  0  0  0  0  0  0
   -7.7819   16.6369  -21.5914 C   0  0  0  0  0  0  0  0  0  0  0  0
   -6.5647   16.0701  -21.9502 C   0  0  0  0  0  0  0  0  0  0  0  0
   -5.3967   16.8211  -21.8943 C   0  0  0  0  0  0  0  0  0  0  0  0
   -5.4654   18.1529  -21.5057 C   0  0  0  0  0  0  0  0  0  0  0  0
   -6.6742   18.7372  -21.1518 C   0  0  0  0  0  0  0  0  0  0  0  0
   -7.8321   17.9719  -21.2041 C   0  0  0  0  0  0  0  0  0  0  0  0
  9 10  1  0  0  0
 10 11  2  0  0  0
 10 15  1  0  0  0
 11 12  1  0  0  0
 12 13  2  0  0  0
 13 14  1  0  0  0
 13  6  1  0  0  0
 14 15  2  0  0  0
  6  7  2  0  0  0
  6  8  2  0  0  0
  6  5  1  0  0  0
  5 18  1  0  0  0
  5  4  1  0  0  0
 18 19  1  0  0  0
 19 20  1  0  0  0
 19 21  1  0  0  0
  4  1  1  0  0  0
  1  2  1  0  0  0
  1 22  1  0  0  0
 22 23  1  0  0  0
 22 36  1  0  0  0
 23 24  1  0  0  0
 24 25  2  0  0  0
 24 27  1  0  0  0
 27 28  1  0  0  0
 28 29  1  0  0  0
 28 35  1  0  0  0
 29 30  1  0  0  0
 30 31  1  0  0  0
 31 32  1  0  0  0
 31 35  1  0  0  0
 32 33  1  0  0  0
 33 34  1  0  0  0
 34 35  1  0  0  0
 36 42  1  0  0  0
 37 38  2  0  0  0
 37 42  1  0  0  0
 38 39  1  0  0  0
 39 40  2  0  0  0
 40 41  1  0  0  0
 41 42  2  0  0  0
  9 16  1  0  0  0
  9 17  1  0  0  0
  2  3  1  0  0  0
 23 26  1  0  0  0
M  END
> <minimizedAffinity>
-9.30497

$$$$
3TKW_017_B_401


 42 45  0  0  0  0  0  0  0  0999 V2000
  -12.1458   20.2531  -18.4878 C   0  0  0  0  0  0  0  0  0  0  0  0
  -12.5607   18.8794  -18.5159 O   0  0  0  0  0  0  0  0  0  0  0  0
  -12.4816   18.4995  -17.6269 H   0  0  0  0  0  0  0  0  0  0  0  0
  -10.6750   20.3542  -18.0888 C   0  0  0  0  0  0  0  0  0  0  0  0
   -9.9064   19.2523  -18.6489 N   0  0  0  0  0  0  0  0  0  0  0  0
   -9.5103   19.5218  -20.2020 S   0  0  0  0  0  0  0  0  0  0  0  0
   -9.2914   20.9879  -20.3686 O   0  0  0  0  0  0  0  0  0  0  0  0
  -10.5828   18.9760  -21.0874 O   0  0  0  0  0  0  0  0  0  0  0  0
   -4.5641   16.7218  -21.5186 N   0  0  0  0  0  0  0  0  0  0  0  0
   -5.6208   17.4305  -21.2058 C   0  0  0  0  0  0  0  0  0  0  0  0
   -6.8083   16.7135  -21.2854 C   0  0  0  0  0  0  0  0  0  0  0  0
   -8.0179   17.3473  -20.9791 C   0  0  0  0  0  0  0  0  0  0  0  0
   -8.0207   18.6788  -20.5981 C   0  0  0  0  0  0  0  0  0  0  0  0
   -6.8468   19.4039  -20.5147 C   0  0  0  0  0  0  0  0  0  0  0  0
   -5.6452   18.7740  -20.8201 C   0  0  0  0  0  0  0  0  0  0  0  0
   -4.6640   15.7772  -21.7775 H   0  0  0  0  0  0  0  0  0  0  0  0
   -3.6703   17.1338  -21.4948 H   0  0  0  0  0  0  0  0  0  0  0  0
   -8.8853   18.7063  -17.7877 C   0  0  0  0  0  0  0  0  0  0  0  0
   -9.3482   17.3659  -17.2151 C   0  0  0  0  0  0  0  0  0  0  0  0
   -8.2667   16.2880  -17.3997 C   0  0  0  0  0  0  0  0  0  0  0  0
   -9.7575   17.4973  -15.7431 C   0  0  0  0  0  0  0  0  0  0  0  0
  -13.0802   20.9837  -17.5103 C   0  0  0  0  0  0  0  0  0  0  0  0
  -13.8900   21.9039  -18.3131 N   0  0  0  0  0  0  0  0  0  0  0  0
  -14.4915   22.9889  -17.8133 C   0  0  0  0  0  0  0  0  0  0  0  0
  -14.3529   23.3283  -16.6365 O   0  0  0  0  0  0  0  0  0  0  0  0
  -13.9973   21.7130  -19.2729 H   0  0  0  0  0  0  0  0  0  0  0  0
  -15.2640   23.6924  -18.6577 O   0  0  0  0  0  0  0  0  0  0  0  0
  -14.7367   24.7351  -19.4365 C   0  0  0  0  0  0  0  0  0  0  0  0
  -14.7680   24.2660  -20.9002 C   0  0  0  0  0  0  0  0  0  0  0  0
  -16.1522   24.4157  -21.2545 O   0  0  0  0  0  0  0  0  0  0  0  0
  -16.6456   25.5912  -20.6142 C   0  0  0  0  0  0  0  0  0  0  0  0
  -17.9221   25.3343  -20.0001 O   0  0  0  0  0  0  0  0  0  0  0  0
  -17.7702   25.3271  -18.5913 C   0  0  0  0  0  0  0  0  0  0  0  0
  -16.5314   26.1690  -18.2731 C   0  0  0  0  0  0  0  0  0  0  0  0
  -15.6532   25.9647  -19.5217 C   0  0  0  0  0  0  0  0  0  0  0  0
  -13.9859   19.9900  -16.7747 C   0  0  0  0  0  0  0  0  0  0  0  0
  -15.0215   20.6228  -14.5471 C   0  0  0  0  0  0  0  0  0  0  0  0
  -14.9184   20.8670  -13.1828 C   0  0  0  0  0  0  0  0  0  0  0  0
  -13.6943   20.7391  -12.5371 C   0  0  0  0  0  0  0  0  0  0  0  0
  -12.5832   20.3342  -13.2655 C   0  0  0  0  0  0  0  0  0  0  0  0
  -12.6703   20.0781  -14.6274 C   0  0  0  0  0  0  0  0  0  0  0  0
  -13.8983   20.2186  -15.2610 C   0  0  0  0  0  0  0  0  0  0  0  0
  9 10  1  0  0  0
 10 11  2  0  0  0
 10 15  1  0  0  0
 11 12  1  0  0  0
 12 13  2  0  0  0
 13 14  1  0  0  0
 13  6  1  0  0  0
 14 15  2  0  0  0
  6  7  2  0  0  0
  6  8  2  0  0  0
  6  5  1  0  0  0
  5 18  1  0  0  0
  5  4  1  0  0  0
 18 19  1  0  0  0
 19 20  1  0  0  0
 19 21  1  0  0  0
  4  1  1  0  0  0
  1  2  1  0  0  0
  1 22  1  0  0  0
 22 23  1  0  0  0
 22 36  1  0  0  0
 23 24  1  0  0  0
 24 25  2  0  0  0
 24 27  1  0  0  0
 27 28  1  0  0  0
 28 29  1  0  0  0
 28 35  1  0  0  0
 29 30  1  0  0  0
 30 31  1  0  0  0
 31 32  1  0  0  0
 31 35  1  0  0  0
 32 33  1  0  0  0
 33 34  1  0  0  0
 34 35  1  0  0  0
 36 42  1  0  0  0
 37 38  2  0  0  0
 37 42  1  0  0  0
 38 39  1  0  0  0
 39 40  2  0  0  0
 40 41  1  0  0  0
 41 42  2  0  0  0
  9 16  1  0  0  0
  9 17  1  0  0  0
  2  3  1  0  0  0
 23 26  1  0  0  0
M  END
> <minimizedAffinity>
-9.25818

$$$$
3TKW_017_B_401


 42 45  0  0  0  0  0  0  0  0999 V2000
  -13.9756   20.4012  -17.1242 C   0  0  0  0  0  0  0  0  0  0  0  0
  -14.4302   19.4031  -18.0499 O   0  0  0  0  0  0  0  0  0  0  0  0
  -15.1365   19.7726  -18.6026 H   0  0  0  0  0  0  0  0  0  0  0  0
  -15.1093   20.8089  -16.1855 C   0  0  0  0  0  0  0  0  0  0  0  0
  -14.7546   21.9994  -15.4267 N   0  0  0  0  0  0  0  0  0  0  0  0
  -16.0441   22.6399  -14.6727 S   0  0  0  0  0  0  0  0  0  0  0  0
  -15.5537   23.3535  -13.4580 O   0  0  0  0  0  0  0  0  0  0  0  0
  -17.0279   21.5571  -14.3701 O   0  0  0  0  0  0  0  0  0  0  0  0
  -18.6970   26.4846  -18.1683 N   0  0  0  0  0  0  0  0  0  0  0  0
  -18.0942   25.6924  -17.3162 C   0  0  0  0  0  0  0  0  0  0  0  0
  -17.9087   24.4029  -17.7993 C   0  0  0  0  0  0  0  0  0  0  0  0
  -17.2777   23.4490  -16.9929 C   0  0  0  0  0  0  0  0  0  0  0  0
  -16.8427   23.7980  -15.7252 C   0  0  0  0  0  0  0  0  0  0  0  0
  -17.0206   25.0770  -15.2321 C   0  0  0  0  0  0  0  0  0  0  0  0
  -17.6487   26.0244  -16.0334 C   0  0  0  0  0  0  0  0  0  0  0  0
  -18.9691   26.1429  -19.0506 H   0  0  0  0  0  0  0  0  0  0  0  0
  -18.8778   27.4216  -17.9262 H   0  0  0  0  0  0  0  0  0  0  0  0
  -13.5221   21.9160  -14.6807 C   0  0  0  0  0  0  0  0  0  0  0  0
  -13.4229   20.5561  -13.9880 C   0  0  0  0  0  0  0  0  0  0  0  0
  -12.0318   19.9344  -14.1973 C   0  0  0  0  0  0  0  0  0  0  0  0
  -13.7673   20.6606  -12.4974 C   0  0  0  0  0  0  0  0  0  0  0  0
  -13.4408   21.5761  -17.9584 C   0  0  0  0  0  0  0  0  0  0  0  0
  -12.1067   21.1872  -18.4233 N   0  0  0  0  0  0  0  0  0  0  0  0
  -10.9724   21.6650  -17.9002 C   0  0  0  0  0  0  0  0  0  0  0  0
  -10.9706   22.4311  -16.9347 O   0  0  0  0  0  0  0  0  0  0  0  0
  -12.0419   20.5385  -19.1611 H   0  0  0  0  0  0  0  0  0  0  0  0
   -9.8277   21.2736  -18.4843 O   0  0  0  0  0  0  0  0  0  0  0  0
   -9.7972   20.8432  -19.8206 C   0  0  0  0  0  0  0  0  0  0  0  0
   -8.5834   21.5143  -20.4838 C   0  0  0  0  0  0  0  0  0  0  0  0
   -7.4793   20.7412  -19.9868 O   0  0  0  0  0  0  0  0  0  0  0  0
   -7.8965   19.3792  -19.9070 C   0  0  0  0  0  0  0  0  0  0  0  0
   -7.4984   18.8016  -18.6498 O   0  0  0  0  0  0  0  0  0  0  0  0
   -8.6464   18.5993  -17.8440 C   0  0  0  0  0  0  0  0  0  0  0  0
   -9.8417   18.4822  -18.7938 C   0  0  0  0  0  0  0  0  0  0  0  0
   -9.4168   19.3640  -19.9830 C   0  0  0  0  0  0  0  0  0  0  0  0
  -14.3549   21.8560  -19.1562 C   0  0  0  0  0  0  0  0  0  0  0  0
  -15.3135   23.8663  -20.3707 C   0  0  0  0  0  0  0  0  0  0  0  0
  -15.5105   25.2371  -20.4879 C   0  0  0  0  0  0  0  0  0  0  0  0
  -14.9923   26.1050  -19.5341 C   0  0  0  0  0  0  0  0  0  0  0  0
  -14.3028   25.5835  -18.4469 C   0  0  0  0  0  0  0  0  0  0  0  0
  -14.1040   24.2162  -18.3101 C   0  0  0  0  0  0  0  0  0  0  0  0
  -14.6201   23.3616  -19.2758 C   0  0  0  0  0  0  0  0  0  0  0  0
  9 10  1  0  0  0
 10 11  2  0  0  0
 10 15  1  0  0  0
 11 12  1  0  0  0
 12 13  2  0  0  0
 13 14  1  0  0  0
 13  6  1  0  0  0
 14 15  2  0  0  0
  6  7  2  0  0  0
  6  8  2  0  0  0
  6  5  1  0  0  0
  5 18  1  0  0  0
  5  4  1  0  0  0
 18 19  1  0  0  0
 19 20  1  0  0  0
 19 21  1  0  0  0
  4  1  1  0  0  0
  1  2  1  0  0  0
  1 22  1  0  0  0
 22 23  1  0  0  0
 22 36  1  0  0  0
 23 24  1  0  0  0
 24 25  2  0  0  0
 24 27  1  0  0  0
 27 28  1  0  0  0
 28 29  1  0  0  0
 28 35  1  0  0  0
 29 30  1  0  0  0
 30 31  1  0  0  0
 31 32  1  0  0  0
 31 35  1  0  0  0
 32 33  1  0  0  0
 33 34  1  0  0  0
 34 35  1  0  0  0
 36 42  1  0  0  0
 37 38  2  0  0  0
 37 42  1  0  0  0
 38 39  1  0  0  0
 39 40  2  0  0  0
 40 41  1  0  0  0
 41 42  2  0  0  0
  9 16  1  0  0  0
  9 17  1  0  0  0
  2  3  1  0  0  0
 23 26  1  0  0  0
M  END
> <minimizedAffinity>
-9.23752

$$$$
3TKW_017_B_401


 42 45  0  0  0  0  0  0  0  0999 V2000
  -12.4058   18.7892  -17.7298 C   0  0  0  0  0  0  0  0  0  0  0  0
  -12.7342   17.5352  -18.3457 O   0  0  0  0  0  0  0  0  0  0  0  0
  -12.7037   17.6310  -19.3105 H   0  0  0  0  0  0  0  0  0  0  0  0
  -13.4381   19.8504  -18.1055 C   0  0  0  0  0  0  0  0  0  0  0  0
  -13.4491   20.9336  -17.1331 N   0  0  0  0  0  0  0  0  0  0  0  0
  -14.1563   20.4857  -15.7400 S   0  0  0  0  0  0  0  0  0  0  0  0
  -13.0859   20.0019  -14.8205 O   0  0  0  0  0  0  0  0  0  0  0  0
  -15.2041   19.4597  -16.0252 O   0  0  0  0  0  0  0  0  0  0  0  0
  -16.8121   25.0640  -13.2855 N   0  0  0  0  0  0  0  0  0  0  0  0
  -16.2870   24.0351  -13.9040 C   0  0  0  0  0  0  0  0  0  0  0  0
  -15.1188   23.5730  -13.3104 C   0  0  0  0  0  0  0  0  0  0  0  0
  -14.4492   22.4778  -13.8676 C   0  0  0  0  0  0  0  0  0  0  0  0
  -14.9564   21.8642  -15.0009 C   0  0  0  0  0  0  0  0  0  0  0  0
  -16.1175   22.3134  -15.6016 C   0  0  0  0  0  0  0  0  0  0  0  0
  -16.7820   23.4025  -15.0481 C   0  0  0  0  0  0  0  0  0  0  0  0
  -16.3760   25.4309  -12.4827 H   0  0  0  0  0  0  0  0  0  0  0  0
  -17.6428   25.4701  -13.6235 H   0  0  0  0  0  0  0  0  0  0  0  0
  -12.2296   21.6999  -17.0431 C   0  0  0  0  0  0  0  0  0  0  0  0
  -12.2935   22.8950  -17.9952 C   0  0  0  0  0  0  0  0  0  0  0  0
  -11.9306   22.4737  -19.4292 C   0  0  0  0  0  0  0  0  0  0  0  0
  -13.6661   23.5771  -17.9461 C   0  0  0  0  0  0  0  0  0  0  0  0
  -10.9837   19.1536  -18.1851 C   0  0  0  0  0  0  0  0  0  0  0  0
  -10.0830   18.1757  -17.5692 N   0  0  0  0  0  0  0  0  0  0  0  0
   -9.1835   18.4872  -16.6297 C   0  0  0  0  0  0  0  0  0  0  0  0
   -9.0912   19.6255  -16.1661 O   0  0  0  0  0  0  0  0  0  0  0  0
  -10.1432   17.2380  -17.8630 H   0  0  0  0  0  0  0  0  0  0  0  0
   -8.3754   17.4965  -16.2170 O   0  0  0  0  0  0  0  0  0  0  0  0
   -7.9132   17.4321  -14.8926 C   0  0  0  0  0  0  0  0  0  0  0  0
   -9.0555   16.8512  -14.0432 C   0  0  0  0  0  0  0  0  0  0  0  0
   -9.0041   15.4495  -14.3542 O   0  0  0  0  0  0  0  0  0  0  0  0
   -7.6335   15.0807  -14.4979 C   0  0  0  0  0  0  0  0  0  0  0  0
   -7.4489   14.2702  -15.6734 O   0  0  0  0  0  0  0  0  0  0  0  0
   -6.7525   15.0200  -16.6535 C   0  0  0  0  0  0  0  0  0  0  0  0
   -5.9596   16.0977  -15.9089 C   0  0  0  0  0  0  0  0  0  0  0  0
   -6.8326   16.3640  -14.6684 C   0  0  0  0  0  0  0  0  0  0  0  0
  -10.8659   19.0894  -19.7118 C   0  0  0  0  0  0  0  0  0  0  0  0
   -8.6966   18.1832  -20.6649 C   0  0  0  0  0  0  0  0  0  0  0  0
   -7.3580   18.3386  -21.0048 C   0  0  0  0  0  0  0  0  0  0  0  0
   -6.7150   19.5517  -20.7888 C   0  0  0  0  0  0  0  0  0  0  0  0
   -7.4345   20.6149  -20.2586 C   0  0  0  0  0  0  0  0  0  0  0  0
   -8.7745   20.4793  -19.9211 C   0  0  0  0  0  0  0  0  0  0  0  0
   -9.4016   19.2584  -20.1344 C   0  0  0  0  0  0  0  0  0  0  0  0
  9 10  1  0  0  0
 10 11  2  0  0  0
 10 15  1  0  0  0
 11 12  1  0  0  0
 12 13  2  0  0  0
 13 14  1  0  0  0
 13  6  1  0  0  0
 14 15  2  0  0  0
  6  7  2  0  0  0
  6  8  2  0  0  0
  6  5  1  0  0  0
  5 18  1  0  0  0
  5  4  1  0  0  0
 18 19  1  0  0  0
 19 20  1  0  0  0
 19 21  1  0  0  0
  4  1  1  0  0  0
  1  2  1  0  0  0
  1 22  1  0  0  0
 22 23  1  0  0  0
 22 36  1  0  0  0
 23 24  1  0  0  0
 24 25  2  0  0  0
 24 27  1  0  0  0
 27 28  1  0  0  0
 28 29  1  0  0  0
 28 35  1  0  0  0
 29 30  1  0  0  0
 30 31  1  0  0  0
 31 32  1  0  0  0
 31 35  1  0  0  0
 32 33  1  0  0  0
 33 34  1  0  0  0
 34 35  1  0  0  0
 36 42  1  0  0  0
 37 38  2  0  0  0
 37 42  1  0  0  0
 38 39  1  0  0  0
 39 40  2  0  0  0
 40 41  1  0  0  0
 41 42  2  0  0  0
  9 16  1  0  0  0
  9 17  1  0  0  0
  2  3  1  0  0  0
 23 26  1  0  0  0
M  END
> <minimizedAffinity>
-9.06728

$$$$
3TKW_017_B_401


 42 45  0  0  0  0  0  0  0  0999 V2000
  -11.2902   19.9076  -19.0056 C   0  0  0  0  0  0  0  0  0  0  0  0
  -11.8287   18.5774  -19.0157 O   0  0  0  0  0  0  0  0  0  0  0  0
  -12.4523   18.4754  -18.2798 H   0  0  0  0  0  0  0  0  0  0  0  0
  -10.5049   20.1515  -17.7186 C   0  0  0  0  0  0  0  0  0  0  0  0
   -9.3505   19.2684  -17.6376 N   0  0  0  0  0  0  0  0  0  0  0  0
   -9.4906   18.2037  -16.4176 S   0  0  0  0  0  0  0  0  0  0  0  0
  -10.7760   17.4691  -16.5992 O   0  0  0  0  0  0  0  0  0  0  0  0
   -9.3992   18.9298  -15.1151 O   0  0  0  0  0  0  0  0  0  0  0  0
   -5.0954   14.3710  -16.5939 N   0  0  0  0  0  0  0  0  0  0  0  0
   -6.1145   15.1933  -16.6386 C   0  0  0  0  0  0  0  0  0  0  0  0
   -6.1625   16.0702  -15.5618 C   0  0  0  0  0  0  0  0  0  0  0  0
   -7.2007   17.0049  -15.4800 C   0  0  0  0  0  0  0  0  0  0  0  0
   -8.1670   17.0497  -16.4711 C   0  0  0  0  0  0  0  0  0  0  0  0
   -8.1315   16.1835  -17.5478 C   0  0  0  0  0  0  0  0  0  0  0  0
   -7.1001   15.2540  -17.6281 C   0  0  0  0  0  0  0  0  0  0  0  0
   -4.4583   14.4169  -15.8447 H   0  0  0  0  0  0  0  0  0  0  0  0
   -4.9667   13.7072  -17.3095 H   0  0  0  0  0  0  0  0  0  0  0  0
   -8.8587   18.7716  -18.9001 C   0  0  0  0  0  0  0  0  0  0  0  0
   -7.6055   19.5453  -19.3121 C   0  0  0  0  0  0  0  0  0  0  0  0
   -6.5169   18.5899  -19.8297 C   0  0  0  0  0  0  0  0  0  0  0  0
   -7.9317   20.6298  -20.3460 C   0  0  0  0  0  0  0  0  0  0  0  0
  -12.4751   20.8723  -19.1727 C   0  0  0  0  0  0  0  0  0  0  0  0
  -13.0335   21.0859  -17.8350 N   0  0  0  0  0  0  0  0  0  0  0  0
  -14.0372   20.3618  -17.3278 C   0  0  0  0  0  0  0  0  0  0  0  0
  -14.5282   19.4097  -17.9373 O   0  0  0  0  0  0  0  0  0  0  0  0
  -12.6489   21.8016  -17.2790 H   0  0  0  0  0  0  0  0  0  0  0  0
  -14.4926   20.7273  -16.1180 O   0  0  0  0  0  0  0  0  0  0  0  0
  -14.1654   20.0004  -14.9620 C   0  0  0  0  0  0  0  0  0  0  0  0
  -12.6752   20.2500  -14.6781 C   0  0  0  0  0  0  0  0  0  0  0  0
  -12.6749   21.5682  -14.1069 O   0  0  0  0  0  0  0  0  0  0  0  0
  -13.8399   21.6954  -13.2933 C   0  0  0  0  0  0  0  0  0  0  0  0
  -14.4976   22.9510  -13.5453 O   0  0  0  0  0  0  0  0  0  0  0  0
  -15.7104   22.7126  -14.2383 C   0  0  0  0  0  0  0  0  0  0  0  0
  -16.1367   21.2793  -13.9089 C   0  0  0  0  0  0  0  0  0  0  0  0
  -14.7893   20.5696  -13.6791 C   0  0  0  0  0  0  0  0  0  0  0  0
  -12.0132   22.2062  -19.7695 C   0  0  0  0  0  0  0  0  0  0  0  0
  -13.9202   23.2725  -21.0587 C   0  0  0  0  0  0  0  0  0  0  0  0
  -14.9648   24.1842  -21.1538 C   0  0  0  0  0  0  0  0  0  0  0  0
  -15.2696   25.0171  -20.0837 C   0  0  0  0  0  0  0  0  0  0  0  0
  -14.5380   24.9052  -18.9083 C   0  0  0  0  0  0  0  0  0  0  0  0
  -13.4965   23.9941  -18.7934 C   0  0  0  0  0  0  0  0  0  0  0  0
  -13.1977   23.1744  -19.8742 C   0  0  0  0  0  0  0  0  0  0  0  0
  9 10  1  0  0  0
 10 11  2  0  0  0
 10 15  1  0  0  0
 11 12  1  0  0  0
 12 13  2  0  0  0
 13 14  1  0  0  0
 13  6  1  0  0  0
 14 15  2  0  0  0
  6  7  2  0  0  0
  6  8  2  0  0  0
  6  5  1  0  0  0
  5 18  1  0  0  0
  5  4  1  0  0  0
 18 19  1  0  0  0
 19 20  1  0  0  0
 19 21  1  0  0  0
  4  1  1  0  0  0
  1  2  1  0  0  0
  1 22  1  0  0  0
 22 23  1  0  0  0
 22 36  1  0  0  0
 23 24  1  0  0  0
 24 25  2  0  0  0
 24 27  1  0  0  0
 27 28  1  0  0  0
 28 29  1  0  0  0
 28 35  1  0  0  0
 29 30  1  0  0  0
 30 31  1  0  0  0
 31 32  1  0  0  0
 31 35  1  0  0  0
 32 33  1  0  0  0
 33 34  1  0  0  0
 34 35  1  0  0  0
 36 42  1  0  0  0
 37 38  2  0  0  0
 37 42  1  0  0  0
 38 39  1  0  0  0
 39 40  2  0  0  0
 40 41  1  0  0  0
 41 42  2  0  0  0
  9 16  1  0  0  0
  9 17  1  0  0  0
  2  3  1  0  0  0
 23 26  1  0  0  0
M  END
> <minimizedAffinity>
-9.06322

$$$$
3TKW_017_B_401


 42 45  0  0  0  0  0  0  0  0999 V2000
  -11.9665   21.8045  -17.1173 C   0  0  0  0  0  0  0  0  0  0  0  0
  -10.6428   22.2764  -16.8262 O   0  0  0  0  0  0  0  0  0  0  0  0
   -9.9921   21.6997  -17.2563 H   0  0  0  0  0  0  0  0  0  0  0  0
  -12.1667   20.4023  -16.5458 C   0  0  0  0  0  0  0  0  0  0  0  0
  -11.9123   20.3828  -15.1127 N   0  0  0  0  0  0  0  0  0  0  0  0
  -13.2702   20.1066  -14.2633 S   0  0  0  0  0  0  0  0  0  0  0  0
  -12.8768   19.8375  -12.8498 O   0  0  0  0  0  0  0  0  0  0  0  0
  -14.0279   18.9841  -14.8940 O   0  0  0  0  0  0  0  0  0  0  0  0
  -16.7010   24.8238  -14.3920 N   0  0  0  0  0  0  0  0  0  0  0  0
  -15.9779   23.7323  -14.4426 C   0  0  0  0  0  0  0  0  0  0  0  0
  -15.0303   23.6518  -13.4297 C   0  0  0  0  0  0  0  0  0  0  0  0
  -14.1861   22.5377  -13.3627 C   0  0  0  0  0  0  0  0  0  0  0  0
  -14.3036   21.5269  -14.3022 C   0  0  0  0  0  0  0  0  0  0  0  0
  -15.2420   21.5940  -15.3150 C   0  0  0  0  0  0  0  0  0  0  0  0
  -16.0800   22.7018  -15.3818 C   0  0  0  0  0  0  0  0  0  0  0  0
  -16.5422   25.4870  -13.6819 H   0  0  0  0  0  0  0  0  0  0  0  0
  -17.4030   24.9809  -15.0641 H   0  0  0  0  0  0  0  0  0  0  0  0
  -10.7184   19.6832  -14.7032 C   0  0  0  0  0  0  0  0  0  0  0  0
  -10.2715   18.7243  -15.8076 C   0  0  0  0  0  0  0  0  0  0  0  0
   -9.0672   19.2953  -16.5753 C   0  0  0  0  0  0  0  0  0  0  0  0
   -9.9645   17.3300  -15.2480 C   0  0  0  0  0  0  0  0  0  0  0  0
  -12.1351   21.8554  -18.6442 C   0  0  0  0  0  0  0  0  0  0  0  0
  -13.2087   22.8150  -18.9156 N   0  0  0  0  0  0  0  0  0  0  0  0
  -14.5055   22.4886  -18.9348 C   0  0  0  0  0  0  0  0  0  0  0  0
  -14.8968   21.3524  -18.6605 O   0  0  0  0  0  0  0  0  0  0  0  0
  -12.9618   23.7513  -19.0936 H   0  0  0  0  0  0  0  0  0  0  0  0
  -15.3669   23.4615  -19.2757 O   0  0  0  0  0  0  0  0  0  0  0  0
  -14.9174   24.7048  -19.7490 C   0  0  0  0  0  0  0  0  0  0  0  0
  -15.1749   24.7312  -21.2644 C   0  0  0  0  0  0  0  0  0  0  0  0
  -16.5889   24.9724  -21.3444 O   0  0  0  0  0  0  0  0  0  0  0  0
  -16.9413   25.8742  -20.2966 C   0  0  0  0  0  0  0  0  0  0  0  0
  -18.1259   25.4199  -19.6160 O   0  0  0  0  0  0  0  0  0  0  0  0
  -17.7747   24.9615  -18.3220 C   0  0  0  0  0  0  0  0  0  0  0  0
  -16.4725   25.6692  -17.9374 C   0  0  0  0  0  0  0  0  0  0  0  0
  -15.7899   25.8867  -19.3008 C   0  0  0  0  0  0  0  0  0  0  0  0
  -10.8381   22.3109  -19.3218 C   0  0  0  0  0  0  0  0  0  0  0  0
  -10.6709   19.8633  -19.9674 C   0  0  0  0  0  0  0  0  0  0  0  0
   -9.9289   18.7584  -20.3676 C   0  0  0  0  0  0  0  0  0  0  0  0
   -8.5598   18.8708  -20.5780 C   0  0  0  0  0  0  0  0  0  0  0  0
   -7.9483   20.1071  -20.4139 C   0  0  0  0  0  0  0  0  0  0  0  0
   -8.6759   21.2230  -20.0224 C   0  0  0  0  0  0  0  0  0  0  0  0
  -10.0420   21.0935  -19.8073 C   0  0  0  0  0  0  0  0  0  0  0  0
  9 10  1  0  0  0
 10 11  2  0  0  0
 10 15  1  0  0  0
 11 12  1  0  0  0
 12 13  2  0  0  0
 13 14  1  0  0  0
 13  6  1  0  0  0
 14 15  2  0  0  0
  6  7  2  0  0  0
  6  8  2  0  0  0
  6  5  1  0  0  0
  5 18  1  0  0  0
  5  4  1  0  0  0
 18 19  1  0  0  0
 19 20  1  0  0  0
 19 21  1  0  0  0
  4  1  1  0  0  0
  1  2  1  0  0  0
  1 22  1  0  0  0
 22 23  1  0  0  0
 22 36  1  0  0  0
 23 24  1  0  0  0
 24 25  2  0  0  0
 24 27  1  0  0  0
 27 28  1  0  0  0
 28 29  1  0  0  0
 28 35  1  0  0  0
 29 30  1  0  0  0
 30 31  1  0  0  0
 31 32  1  0  0  0
 31 35  1  0  0  0
 32 33  1  0  0  0
 33 34  1  0  0  0
 34 35  1  0  0  0
 36 42  1  0  0  0
 37 38  2  0  0  0
 37 42  1  0  0  0
 38 39  1  0  0  0
 39 40  2  0  0  0
 40 41  1  0  0  0
 41 42  2  0  0  0
  9 16  1  0  0  0
  9 17  1  0  0  0
  2  3  1  0  0  0
 23 26  1  0  0  0
M  END
> <minimizedAffinity>
-8.84331

$$$$
3TKW_017_B_401


 42 45  0  0  0  0  0  0  0  0999 V2000
  -11.1190   21.2581  -16.7744 C   0  0  0  0  0  0  0  0  0  0  0  0
  -10.4048   22.0772  -15.8371 O   0  0  0  0  0  0  0  0  0  0  0  0
  -11.0217   22.4203  -15.1718 H   0  0  0  0  0  0  0  0  0  0  0  0
  -12.1607   22.0904  -17.5193 C   0  0  0  0  0  0  0  0  0  0  0  0
  -12.2580   21.6781  -18.9119 N   0  0  0  0  0  0  0  0  0  0  0  0
  -13.7944   21.7024  -19.4417 S   0  0  0  0  0  0  0  0  0  0  0  0
  -14.5013   20.5332  -18.8433 O   0  0  0  0  0  0  0  0  0  0  0  0
  -13.8020   21.7013  -20.9356 O   0  0  0  0  0  0  0  0  0  0  0  0
  -16.4376   26.5977  -17.6843 N   0  0  0  0  0  0  0  0  0  0  0  0
  -15.8988   25.4496  -18.0138 C   0  0  0  0  0  0  0  0  0  0  0  0
  -14.9379   25.5583  -19.0115 C   0  0  0  0  0  0  0  0  0  0  0  0
  -14.2804   24.4085  -19.4633 C   0  0  0  0  0  0  0  0  0  0  0  0
  -14.5903   23.1764  -18.9121 C   0  0  0  0  0  0  0  0  0  0  0  0
  -15.5439   23.0538  -17.9190 C   0  0  0  0  0  0  0  0  0  0  0  0
  -16.1978   24.1965  -17.4711 C   0  0  0  0  0  0  0  0  0  0  0  0
  -16.1493   27.4241  -18.1349 H   0  0  0  0  0  0  0  0  0  0  0  0
  -17.1307   26.6337  -16.9860 H   0  0  0  0  0  0  0  0  0  0  0  0
  -11.2438   22.2104  -19.7896 C   0  0  0  0  0  0  0  0  0  0  0  0
   -9.9933   21.3317  -19.7346 C   0  0  0  0  0  0  0  0  0  0  0  0
  -10.3407   19.8642  -20.0366 C   0  0  0  0  0  0  0  0  0  0  0  0
   -8.9022   21.8510  -20.6787 C   0  0  0  0  0  0  0  0  0  0  0  0
  -11.7405   20.1010  -15.9762 C   0  0  0  0  0  0  0  0  0  0  0  0
  -10.7629   19.0095  -15.9901 N   0  0  0  0  0  0  0  0  0  0  0  0
  -10.9454   17.8610  -16.6506 C   0  0  0  0  0  0  0  0  0  0  0  0
  -11.9378   17.6634  -17.3545 O   0  0  0  0  0  0  0  0  0  0  0  0
   -9.9259   19.1282  -15.4855 H   0  0  0  0  0  0  0  0  0  0  0  0
   -9.9938   16.9242  -16.5048 O   0  0  0  0  0  0  0  0  0  0  0  0
   -8.9895   17.0457  -15.5309 C   0  0  0  0  0  0  0  0  0  0  0  0
   -9.1180   15.8324  -14.5956 C   0  0  0  0  0  0  0  0  0  0  0  0
   -8.5365   14.7700  -15.3684 O   0  0  0  0  0  0  0  0  0  0  0  0
   -7.4325   15.3075  -16.0946 C   0  0  0  0  0  0  0  0  0  0  0  0
   -7.4642   14.8639  -17.4638 O   0  0  0  0  0  0  0  0  0  0  0  0
   -7.8047   15.9552  -18.3010 C   0  0  0  0  0  0  0  0  0  0  0  0
   -7.4064   17.2308  -17.5533 C   0  0  0  0  0  0  0  0  0  0  0  0
   -7.5713   16.8234  -16.0772 C   0  0  0  0  0  0  0  0  0  0  0  0
  -12.0326   20.5278  -14.5335 C   0  0  0  0  0  0  0  0  0  0  0  0
  -13.7916   22.1120  -13.6216 C   0  0  0  0  0  0  0  0  0  0  0  0
  -15.1157   22.5115  -13.4848 C   0  0  0  0  0  0  0  0  0  0  0  0
  -16.1327   21.7964  -14.1060 C   0  0  0  0  0  0  0  0  0  0  0  0
  -15.8068   20.6971  -14.8900 C   0  0  0  0  0  0  0  0  0  0  0  0
  -14.4886   20.2891  -15.0440 C   0  0  0  0  0  0  0  0  0  0  0  0
  -13.4835   21.0083  -14.4101 C   0  0  0  0  0  0  0  0  0  0  0  0
  9 10  1  0  0  0
 10 11  2  0  0  0
 10 15  1  0  0  0
 11 12  1  0  0  0
 12 13  2  0  0  0
 13 14  1  0  0  0
 13  6  1  0  0  0
 14 15  2  0  0  0
  6  7  2  0  0  0
  6  8  2  0  0  0
  6  5  1  0  0  0
  5 18  1  0  0  0
  5  4  1  0  0  0
 18 19  1  0  0  0
 19 20  1  0  0  0
 19 21  1  0  0  0
  4  1  1  0  0  0
  1  2  1  0  0  0
  1 22  1  0  0  0
 22 23  1  0  0  0
 22 36  1  0  0  0
 23 24  1  0  0  0
 24 25  2  0  0  0
 24 27  1  0  0  0
 27 28  1  0  0  0
 28 29  1  0  0  0
 28 35  1  0  0  0
 29 30  1  0  0  0
 30 31  1  0  0  0
 31 32  1  0  0  0
 31 35  1  0  0  0
 32 33  1  0  0  0
 33 34  1  0  0  0
 34 35  1  0  0  0
 36 42  1  0  0  0
 37 38  2  0  0  0
 37 42  1  0  0  0
 38 39  1  0  0  0
 39 40  2  0  0  0
 40 41  1  0  0  0
 41 42  2  0  0  0
  9 16  1  0  0  0
  9 17  1  0  0  0
  2  3  1  0  0  0
 23 26  1  0  0  0
M  END
> <minimizedAffinity>
-8.79254

$$$$
3TKW_017_B_401


 42 45  0  0  0  0  0  0  0  0999 V2000
  -11.3282   19.8067  -15.2514 C   0  0  0  0  0  0  0  0  0  0  0  0
  -11.7466   19.7129  -13.8818 O   0  0  0  0  0  0  0  0  0  0  0  0
  -12.1661   18.8516  -13.7301 H   0  0  0  0  0  0  0  0  0  0  0  0
  -12.5375   19.7298  -16.1811 C   0  0  0  0  0  0  0  0  0  0  0  0
  -13.0408   21.0598  -16.4923 N   0  0  0  0  0  0  0  0  0  0  0  0
  -12.1328   21.7993  -17.6194 S   0  0  0  0  0  0  0  0  0  0  0  0
  -11.5349   20.7438  -18.4874 O   0  0  0  0  0  0  0  0  0  0  0  0
  -11.1161   22.6626  -16.9464 O   0  0  0  0  0  0  0  0  0  0  0  0
  -15.4717   25.2700  -20.9126 N   0  0  0  0  0  0  0  0  0  0  0  0
  -14.7316   24.5559  -20.1006 C   0  0  0  0  0  0  0  0  0  0  0  0
  -14.2650   23.3786  -20.6723 C   0  0  0  0  0  0  0  0  0  0  0  0
  -13.4620   22.5168  -19.9169 C   0  0  0  0  0  0  0  0  0  0  0  0
  -13.1381   22.8448  -18.6109 C   0  0  0  0  0  0  0  0  0  0  0  0
  -13.5953   24.0127  -18.0297 C   0  0  0  0  0  0  0  0  0  0  0  0
  -14.3942   24.8684  -18.7804 C   0  0  0  0  0  0  0  0  0  0  0  0
  -15.6459   24.9519  -21.8278 H   0  0  0  0  0  0  0  0  0  0  0  0
  -15.8534   26.1246  -20.6074 H   0  0  0  0  0  0  0  0  0  0  0  0
  -14.4743   21.1678  -16.6177 C   0  0  0  0  0  0  0  0  0  0  0  0
  -15.0572   21.8401  -15.3739 C   0  0  0  0  0  0  0  0  0  0  0  0
  -16.2492   22.7388  -15.7441 C   0  0  0  0  0  0  0  0  0  0  0  0
  -15.4484   20.8069  -14.3104 C   0  0  0  0  0  0  0  0  0  0  0  0
  -10.3193   18.6722  -15.4908 C   0  0  0  0  0  0  0  0  0  0  0  0
   -9.4429   19.1133  -16.5790 N   0  0  0  0  0  0  0  0  0  0  0  0
   -9.1684   18.3692  -17.6559 C   0  0  0  0  0  0  0  0  0  0  0  0
   -9.6911   17.2681  -17.8391 O   0  0  0  0  0  0  0  0  0  0  0  0
   -9.0337   20.0064  -16.5139 H   0  0  0  0  0  0  0  0  0  0  0  0
   -8.2855   18.8784  -18.5312 O   0  0  0  0  0  0  0  0  0  0  0  0
   -8.5789   18.9633  -19.9018 C   0  0  0  0  0  0  0  0  0  0  0  0
   -8.2715   20.4042  -20.3411 C   0  0  0  0  0  0  0  0  0  0  0  0
   -6.8377   20.4123  -20.4302 O   0  0  0  0  0  0  0  0  0  0  0  0
   -6.4212   19.1460  -20.9384 C   0  0  0  0  0  0  0  0  0  0  0  0
   -5.3168   18.6320  -20.1711 O   0  0  0  0  0  0  0  0  0  0  0  0
   -5.7580   17.5299  -19.3974 C   0  0  0  0  0  0  0  0  0  0  0  0
   -6.9853   16.9511  -20.1068 C   0  0  0  0  0  0  0  0  0  0  0  0
   -7.5955   18.1884  -20.7915 C   0  0  0  0  0  0  0  0  0  0  0  0
   -9.4945   18.3996  -14.2282 C   0  0  0  0  0  0  0  0  0  0  0  0
   -7.1584   17.4992  -14.6375 C   0  0  0  0  0  0  0  0  0  0  0  0
   -6.2888   16.4484  -14.9044 C   0  0  0  0  0  0  0  0  0  0  0  0
   -6.7737   15.1532  -15.0417 C   0  0  0  0  0  0  0  0  0  0  0  0
   -8.1328   14.9176  -14.8780 C   0  0  0  0  0  0  0  0  0  0  0  0
   -9.0143   15.9545  -14.6030 C   0  0  0  0  0  0  0  0  0  0  0  0
   -8.5165   17.2451  -14.4772 C   0  0  0  0  0  0  0  0  0  0  0  0
  9 10  1  0  0  0
 10 11  2  0  0  0
 10 15  1  0  0  0
 11 12  1  0  0  0
 12 13  2  0  0  0
 13 14  1  0  0  0
 13  6  1  0  0  0
 14 15  2  0  0  0
  6  7  2  0  0  0
  6  8  2  0  0  0
  6  5  1  0  0  0
  5 18  1  0  0  0
  5  4  1  0  0  0
 18 19  1  0  0  0
 19 20  1  0  0  0
 19 21  1  0  0  0
  4  1  1  0  0  0
  1  2  1  0  0  0
  1 22  1  0  0  0
 22 23  1  0  0  0
 22 36  1  0  0  0
 23 24  1  0  0  0
 24 25  2  0  0  0
 24 27  1  0  0  0
 27 28  1  0  0  0
 28 29  1  0  0  0
 28 35  1  0  0  0
 29 30  1  0  0  0
 30 31  1  0  0  0
 31 32  1  0  0  0
 31 35  1  0  0  0
 32 33  1  0  0  0
 33 34  1  0  0  0
 34 35  1  0  0  0
 36 42  1  0  0  0
 37 38  2  0  0  0
 37 42  1  0  0  0
 38 39  1  0  0  0
 39 40  2  0  0  0
 40 41  1  0  0  0
 41 42  2  0  0  0
  9 16  1  0  0  0
  9 17  1  0  0  0
  2  3  1  0  0  0
 23 26  1  0  0  0
M  END
> <minimizedAffinity>
-8.69480

$$$$
