5L4I_6J3_A_201


 20 21  0  0  0  0  0  0  0  0999 V2000
   -0.1503    1.3351    9.7172 C   0  0  0  0  0  0  0  0  0  0  0  0
    0.1699    1.1334   11.0568 C   0  0  0  0  0  0  0  0  0  0  0  0
    0.0724   -0.1479   11.6180 C   0  0  0  0  0  0  0  0  0  0  0  0
   -0.3524   -1.1920   10.7767 C   0  0  0  0  0  0  0  0  0  0  0  0
   -0.6716   -1.0287    9.4645 N   0  0  0  0  0  0  0  0  0  0  0  0
   -0.5748    0.2127    8.9360 C   0  0  0  0  0  0  0  0  0  0  0  0
   -0.9360    3.0763    8.3169 O   0  0  0  0  0  0  0  0  0  0  0  0
   -0.0296    2.6947    9.1595 C   0  0  0  0  0  0  0  0  0  0  0  0
    0.9352    3.4251    9.5288 O   0  0  0  0  0  0  0  0  0  0  0  0
    1.5631    3.0971   10.1421 H   0  0  0  0  0  0  0  0  0  0  0  0
   -0.8986    0.3705    7.6271 N   0  0  0  0  0  0  0  0  0  0  0  0
   -1.6676    0.9569    7.4424 H   0  0  0  0  0  0  0  0  0  0  0  0
   -0.2812   -0.1919    6.5122 C   0  0  0  0  0  0  0  0  0  0  0  0
   -0.2155    0.5807    5.3180 C   0  0  0  0  0  0  0  0  0  0  0  0
   -0.7725    1.9594    5.1987 C   0  0  0  0  0  0  0  0  0  0  0  0
    0.4076   -0.0080    4.2212 C   0  0  0  0  0  0  0  0  0  0  0  0
    0.4895    0.8932    2.7724 Cl  0  0  0  0  0  0  0  0  0  0  0  0
    0.9563   -1.2809    4.2232 C   0  0  0  0  0  0  0  0  0  0  0  0
    0.8841   -2.0248    5.4041 C   0  0  0  0  0  0  0  0  0  0  0  0
    0.2667   -1.4903    6.5331 C   0  0  0  0  0  0  0  0  0  0  0  0
  7  8  2  0  0  0
  2  3  2  0  0  0
  2  1  1  0  0  0
  8  1  1  0  0  0
  8  9  1  0  0  0
  3  4  1  0  0  0
  1  6  2  0  0  0
  4  5  2  0  0  0
  6  5  1  0  0  0
  6 11  1  0  0  0
 11 13  1  0  0  0
 13 20  2  0  0  0
 13 14  1  0  0  0
 15 14  1  0  0  0
 20 19  1  0  0  0
 14 16  2  0  0  0
 19 18  2  0  0  0
 16 18  1  0  0  0
 16 17  1  0  0  0
  9 10  1  0  0  0
 11 12  1  0  0  0
M  END
> <minimizedAffinity>
-7.27092

$$$$
5L4I_6J3_A_201


 20 21  0  0  0  0  0  0  0  0999 V2000
    0.1507   -1.3243    9.7145 C   0  0  0  0  0  0  0  0  0  0  0  0
   -0.1649   -1.1165   11.0543 C   0  0  0  0  0  0  0  0  0  0  0  0
   -0.0620    0.1666   11.6103 C   0  0  0  0  0  0  0  0  0  0  0  0
    0.3632    1.2062   10.7636 C   0  0  0  0  0  0  0  0  0  0  0  0
    0.6780    1.0370    9.4511 N   0  0  0  0  0  0  0  0  0  0  0  0
    0.5760   -0.2061    8.9277 C   0  0  0  0  0  0  0  0  0  0  0  0
    0.9300   -3.0749    8.3226 O   0  0  0  0  0  0  0  0  0  0  0  0
    0.0244   -2.6857    9.1624 C   0  0  0  0  0  0  0  0  0  0  0  0
   -0.9441   -3.4101    9.5336 O   0  0  0  0  0  0  0  0  0  0  0  0
   -1.5713   -3.0766   10.1447 H   0  0  0  0  0  0  0  0  0  0  0  0
    0.8954   -0.3698    7.6185 N   0  0  0  0  0  0  0  0  0  0  0  0
    1.6612   -0.9602    7.4336 H   0  0  0  0  0  0  0  0  0  0  0  0
    0.2773    0.1914    6.5034 C   0  0  0  0  0  0  0  0  0  0  0  0
    0.2078   -0.5837    5.3110 C   0  0  0  0  0  0  0  0  0  0  0  0
    0.7617   -1.9639    5.1938 C   0  0  0  0  0  0  0  0  0  0  0  0
   -0.4159    0.0039    4.2140 C   0  0  0  0  0  0  0  0  0  0  0  0
   -0.5022   -0.9004    2.7673 Cl  0  0  0  0  0  0  0  0  0  0  0  0
   -0.9618    1.2779    4.2141 C   0  0  0  0  0  0  0  0  0  0  0  0
   -0.8860    2.0244    5.3932 C   0  0  0  0  0  0  0  0  0  0  0  0
   -0.2678    1.4910    6.5223 C   0  0  0  0  0  0  0  0  0  0  0  0
  7  8  2  0  0  0
  2  3  2  0  0  0
  2  1  1  0  0  0
  8  1  1  0  0  0
  8  9  1  0  0  0
  3  4  1  0  0  0
  1  6  2  0  0  0
  4  5  2  0  0  0
  6  5  1  0  0  0
  6 11  1  0  0  0
 11 13  1  0  0  0
 13 20  2  0  0  0
 13 14  1  0  0  0
 15 14  1  0  0  0
 20 19  1  0  0  0
 14 16  2  0  0  0
 19 18  2  0  0  0
 16 18  1  0  0  0
 16 17  1  0  0  0
  9 10  1  0  0  0
 11 12  1  0  0  0
M  END
> <minimizedAffinity>
-7.26385

$$$$
5L4I_6J3_A_201


 20 21  0  0  0  0  0  0  0  0999 V2000
   -0.1985   -1.2604    9.6175 C   0  0  0  0  0  0  0  0  0  0  0  0
    0.2475   -0.9292   10.8939 C   0  0  0  0  0  0  0  0  0  0  0  0
    0.2152    0.4043   11.3262 C   0  0  0  0  0  0  0  0  0  0  0  0
   -0.2815    1.3643   10.4261 C   0  0  0  0  0  0  0  0  0  0  0  0
   -0.7255    1.0738    9.1736 N   0  0  0  0  0  0  0  0  0  0  0  0
   -0.6874   -0.2162    8.7684 C   0  0  0  0  0  0  0  0  0  0  0  0
    0.8206   -3.0393    8.4316 O   0  0  0  0  0  0  0  0  0  0  0  0
   -0.1559   -2.6737    9.1994 C   0  0  0  0  0  0  0  0  0  0  0  0
   -1.0569   -3.4615    9.6097 O   0  0  0  0  0  0  0  0  0  0  0  0
   -1.7413   -3.1423   10.1644 H   0  0  0  0  0  0  0  0  0  0  0  0
   -1.1278   -0.4996    7.5159 N   0  0  0  0  0  0  0  0  0  0  0  0
   -2.0756   -0.7551    7.4414 H   0  0  0  0  0  0  0  0  0  0  0  0
   -0.4092   -0.4748    6.3229 C   0  0  0  0  0  0  0  0  0  0  0  0
   -0.2740    0.7696    5.6442 C   0  0  0  0  0  0  0  0  0  0  0  0
   -0.8611    2.0468    6.1437 C   0  0  0  0  0  0  0  0  0  0  0  0
    0.4497    0.7624    4.4551 C   0  0  0  0  0  0  0  0  0  0  0  0
    0.6169    2.2403    3.6149 Cl  0  0  0  0  0  0  0  0  0  0  0  0
    1.0344   -0.3660    3.9019 C   0  0  0  0  0  0  0  0  0  0  0  0
    0.8930   -1.5788    4.5818 C   0  0  0  0  0  0  0  0  0  0  0  0
    0.1741   -1.6347    5.7741 C   0  0  0  0  0  0  0  0  0  0  0  0
  7  8  2  0  0  0
  2  3  2  0  0  0
  2  1  1  0  0  0
  8  1  1  0  0  0
  8  9  1  0  0  0
  3  4  1  0  0  0
  1  6  2  0  0  0
  4  5  2  0  0  0
  6  5  1  0  0  0
  6 11  1  0  0  0
 11 13  1  0  0  0
 13 20  2  0  0  0
 13 14  1  0  0  0
 15 14  1  0  0  0
 20 19  1  0  0  0
 14 16  2  0  0  0
 19 18  2  0  0  0
 16 18  1  0  0  0
 16 17  1  0  0  0
  9 10  1  0  0  0
 11 12  1  0  0  0
M  END
> <minimizedAffinity>
-6.84150

$$$$
5L4I_6J3_A_201


 20 21  0  0  0  0  0  0  0  0999 V2000
    0.0755   -0.4415    9.8668 C   0  0  0  0  0  0  0  0  0  0  0  0
   -0.5379   -1.1112   10.9218 C   0  0  0  0  0  0  0  0  0  0  0  0
   -0.9189   -2.4528   10.7766 C   0  0  0  0  0  0  0  0  0  0  0  0
   -0.6527   -3.0708    9.5415 C   0  0  0  0  0  0  0  0  0  0  0  0
   -0.0546   -2.4455    8.4919 N   0  0  0  0  0  0  0  0  0  0  0  0
    0.3064   -1.1509    8.6446 C   0  0  0  0  0  0  0  0  0  0  0  0
    1.6071    1.3400    9.5667 O   0  0  0  0  0  0  0  0  0  0  0  0
    0.4685    0.9668   10.0577 C   0  0  0  0  0  0  0  0  0  0  0  0
   -0.3158    1.7433   10.6762 O   0  0  0  0  0  0  0  0  0  0  0  0
   -1.1287    1.4190   11.0110 H   0  0  0  0  0  0  0  0  0  0  0  0
    0.8992   -0.5307    7.5925 N   0  0  0  0  0  0  0  0  0  0  0  0
    1.8834   -0.5119    7.6037 H   0  0  0  0  0  0  0  0  0  0  0  0
    0.2918    0.0825    6.4990 C   0  0  0  0  0  0  0  0  0  0  0  0
    0.2298   -0.6375    5.2722 C   0  0  0  0  0  0  0  0  0  0  0  0
    0.7807   -2.0127    5.0970 C   0  0  0  0  0  0  0  0  0  0  0  0
   -0.3832    0.0013    4.1980 C   0  0  0  0  0  0  0  0  0  0  0  0
   -0.4603   -0.8362    2.7112 Cl  0  0  0  0  0  0  0  0  0  0  0  0
   -0.9254    1.2758    4.2516 C   0  0  0  0  0  0  0  0  0  0  0  0
   -0.8571    1.9677    5.4639 C   0  0  0  0  0  0  0  0  0  0  0  0
   -0.2497    1.3817    6.5726 C   0  0  0  0  0  0  0  0  0  0  0  0
  7  8  2  0  0  0
  2  3  2  0  0  0
  2  1  1  0  0  0
  8  1  1  0  0  0
  8  9  1  0  0  0
  3  4  1  0  0  0
  1  6  2  0  0  0
  4  5  2  0  0  0
  6  5  1  0  0  0
  6 11  1  0  0  0
 11 13  1  0  0  0
 13 20  2  0  0  0
 13 14  1  0  0  0
 15 14  1  0  0  0
 20 19  1  0  0  0
 14 16  2  0  0  0
 19 18  2  0  0  0
 16 18  1  0  0  0
 16 17  1  0  0  0
  9 10  1  0  0  0
 11 12  1  0  0  0
M  END
> <minimizedAffinity>
-6.77143

$$$$
5L4I_6J3_A_201


 20 21  0  0  0  0  0  0  0  0999 V2000
    0.0858   -0.8898    5.1472 C   0  0  0  0  0  0  0  0  0  0  0  0
    0.8620   -1.8025    4.4385 C   0  0  0  0  0  0  0  0  0  0  0  0
    1.5728   -2.8003    5.1205 C   0  0  0  0  0  0  0  0  0  0  0  0
    1.4604   -2.8312    6.5223 C   0  0  0  0  0  0  0  0  0  0  0  0
    0.7104   -1.9556    7.2442 N   0  0  0  0  0  0  0  0  0  0  0  0
    0.0311   -0.9968    6.5741 C   0  0  0  0  0  0  0  0  0  0  0  0
   -1.3740   -0.2511    3.3949 O   0  0  0  0  0  0  0  0  0  0  0  0
   -0.6530    0.1419    4.3962 C   0  0  0  0  0  0  0  0  0  0  0  0
   -0.5607    1.3497    4.7615 O   0  0  0  0  0  0  0  0  0  0  0  0
   -0.0233    1.5777    5.4945 H   0  0  0  0  0  0  0  0  0  0  0  0
   -0.7123   -0.1231    7.2999 N   0  0  0  0  0  0  0  0  0  0  0  0
   -1.6541   -0.0312    7.0282 H   0  0  0  0  0  0  0  0  0  0  0  0
   -0.3121    0.6597    8.3804 C   0  0  0  0  0  0  0  0  0  0  0  0
   -0.3882    0.0953    9.6854 C   0  0  0  0  0  0  0  0  0  0  0  0
   -0.8736   -1.2892    9.9556 C   0  0  0  0  0  0  0  0  0  0  0  0
    0.0188    0.9018   10.7445 C   0  0  0  0  0  0  0  0  0  0  0  0
   -0.0736    0.2527   12.3219 Cl  0  0  0  0  0  0  0  0  0  0  0  0
    0.4839    2.2001   10.6053 C   0  0  0  0  0  0  0  0  0  0  0  0
    0.5533    2.7380    9.3173 C   0  0  0  0  0  0  0  0  0  0  0  0
    0.1536    1.9802    8.2184 C   0  0  0  0  0  0  0  0  0  0  0  0
  7  8  2  0  0  0
  2  3  2  0  0  0
  2  1  1  0  0  0
  8  1  1  0  0  0
  8  9  1  0  0  0
  3  4  1  0  0  0
  1  6  2  0  0  0
  4  5  2  0  0  0
  6  5  1  0  0  0
  6 11  1  0  0  0
 11 13  1  0  0  0
 13 20  2  0  0  0
 13 14  1  0  0  0
 15 14  1  0  0  0
 20 19  1  0  0  0
 14 16  2  0  0  0
 19 18  2  0  0  0
 16 18  1  0  0  0
 16 17  1  0  0  0
  9 10  1  0  0  0
 11 12  1  0  0  0
M  END
> <minimizedAffinity>
-6.74576

$$$$
5L4I_6J3_A_201


 20 21  0  0  0  0  0  0  0  0999 V2000
   -0.0894    0.8976    5.1442 C   0  0  0  0  0  0  0  0  0  0  0  0
   -0.8652    1.8113    4.4363 C   0  0  0  0  0  0  0  0  0  0  0  0
   -1.5758    2.8086    5.1193 C   0  0  0  0  0  0  0  0  0  0  0  0
   -1.4636    2.8380    6.5211 C   0  0  0  0  0  0  0  0  0  0  0  0
   -0.7139    1.9613    7.2422 N   0  0  0  0  0  0  0  0  0  0  0  0
   -0.0348    1.0031    6.5711 C   0  0  0  0  0  0  0  0  0  0  0  0
    1.3805    0.2619    3.3992 O   0  0  0  0  0  0  0  0  0  0  0  0
    0.6493   -0.1334    4.3922 C   0  0  0  0  0  0  0  0  0  0  0  0
    0.5471   -1.3430    4.7487 O   0  0  0  0  0  0  0  0  0  0  0  0
    0.0027   -1.5727    5.4759 H   0  0  0  0  0  0  0  0  0  0  0  0
    0.7083    0.1285    7.2962 N   0  0  0  0  0  0  0  0  0  0  0  0
    1.6491    0.0337    7.0220 H   0  0  0  0  0  0  0  0  0  0  0  0
    0.3090   -0.6519    8.3788 C   0  0  0  0  0  0  0  0  0  0  0  0
    0.3882   -0.0853    9.6826 C   0  0  0  0  0  0  0  0  0  0  0  0
    0.8759    1.2990    9.9494 C   0  0  0  0  0  0  0  0  0  0  0  0
   -0.0181   -0.8893   10.7438 C   0  0  0  0  0  0  0  0  0  0  0  0
    0.0780   -0.2375   12.3199 Cl  0  0  0  0  0  0  0  0  0  0  0  0
   -0.4851   -2.1873   10.6078 C   0  0  0  0  0  0  0  0  0  0  0  0
   -0.5576   -2.7273    9.3209 C   0  0  0  0  0  0  0  0  0  0  0  0
   -0.1588   -1.9720    8.2200 C   0  0  0  0  0  0  0  0  0  0  0  0
  7  8  2  0  0  0
  2  3  2  0  0  0
  2  1  1  0  0  0
  8  1  1  0  0  0
  8  9  1  0  0  0
  3  4  1  0  0  0
  1  6  2  0  0  0
  4  5  2  0  0  0
  6  5  1  0  0  0
  6 11  1  0  0  0
 11 13  1  0  0  0
 13 20  2  0  0  0
 13 14  1  0  0  0
 15 14  1  0  0  0
 20 19  1  0  0  0
 14 16  2  0  0  0
 19 18  2  0  0  0
 16 18  1  0  0  0
 16 17  1  0  0  0
  9 10  1  0  0  0
 11 12  1  0  0  0
M  END
> <minimizedAffinity>
-6.74386

$$$$
5L4I_6J3_A_201


 20 21  0  0  0  0  0  0  0  0999 V2000
   -0.0023   -1.1315    9.0740 C   0  0  0  0  0  0  0  0  0  0  0  0
    0.3949   -0.3764   10.1739 C   0  0  0  0  0  0  0  0  0  0  0  0
    0.0413    0.9775   10.2622 C   0  0  0  0  0  0  0  0  0  0  0  0
   -0.7189    1.5176    9.2091 C   0  0  0  0  0  0  0  0  0  0  0  0
   -1.1236    0.8074    8.1218 N   0  0  0  0  0  0  0  0  0  0  0  0
   -0.7743   -0.4973    8.0482 C   0  0  0  0  0  0  0  0  0  0  0  0
    1.0616   -2.9480    7.9886 O   0  0  0  0  0  0  0  0  0  0  0  0
    0.3821   -2.5539    9.0181 C   0  0  0  0  0  0  0  0  0  0  0  0
    0.0453   -3.3175    9.9690 O   0  0  0  0  0  0  0  0  0  0  0  0
   -0.4471   -2.9782   10.6904 H   0  0  0  0  0  0  0  0  0  0  0  0
   -1.1773   -1.2000    6.9589 N   0  0  0  0  0  0  0  0  0  0  0  0
   -1.7966   -1.9453    7.1333 H   0  0  0  0  0  0  0  0  0  0  0  0
   -0.8262   -1.0007    5.6257 C   0  0  0  0  0  0  0  0  0  0  0  0
   -1.6295   -1.6093    4.6198 C   0  0  0  0  0  0  0  0  0  0  0  0
   -2.8261   -2.4483    4.9189 C   0  0  0  0  0  0  0  0  0  0  0  0
   -1.2536   -1.3917    3.2973 C   0  0  0  0  0  0  0  0  0  0  0  0
   -2.1938   -2.1205    2.0713 Cl  0  0  0  0  0  0  0  0  0  0  0  0
   -0.1610   -0.6321    2.9093 C   0  0  0  0  0  0  0  0  0  0  0  0
    0.6157   -0.0408    3.9095 C   0  0  0  0  0  0  0  0  0  0  0  0
    0.2919   -0.2283    5.2517 C   0  0  0  0  0  0  0  0  0  0  0  0
  7  8  2  0  0  0
  2  3  2  0  0  0
  2  1  1  0  0  0
  8  1  1  0  0  0
  8  9  1  0  0  0
  3  4  1  0  0  0
  1  6  2  0  0  0
  4  5  2  0  0  0
  6  5  1  0  0  0
  6 11  1  0  0  0
 11 13  1  0  0  0
 13 20  2  0  0  0
 13 14  1  0  0  0
 15 14  1  0  0  0
 20 19  1  0  0  0
 14 16  2  0  0  0
 19 18  2  0  0  0
 16 18  1  0  0  0
 16 17  1  0  0  0
  9 10  1  0  0  0
 11 12  1  0  0  0
M  END
> <minimizedAffinity>
-6.69996

$$$$
5L4I_6J3_A_201


 20 21  0  0  0  0  0  0  0  0999 V2000
    0.7736   -1.7503    5.8019 C   0  0  0  0  0  0  0  0  0  0  0  0
    1.0450   -1.6698    4.4389 C   0  0  0  0  0  0  0  0  0  0  0  0
    0.3376   -0.7664    3.6331 C   0  0  0  0  0  0  0  0  0  0  0  0
   -0.6335    0.0357    4.2592 C   0  0  0  0  0  0  0  0  0  0  0  0
   -0.9219   -0.0175    5.5875 N   0  0  0  0  0  0  0  0  0  0  0  0
   -0.2335   -0.8946    6.3532 C   0  0  0  0  0  0  0  0  0  0  0  0
    1.7533   -2.3974    7.8588 O   0  0  0  0  0  0  0  0  0  0  0  0
    1.5417   -2.7072    6.6194 C   0  0  0  0  0  0  0  0  0  0  0  0
    1.9485   -3.7802    6.0865 O   0  0  0  0  0  0  0  0  0  0  0  0
    1.7665   -3.9532    5.1837 H   0  0  0  0  0  0  0  0  0  0  0  0
   -0.5284   -0.9464    7.6774 N   0  0  0  0  0  0  0  0  0  0  0  0
   -0.9637   -1.7727    7.9886 H   0  0  0  0  0  0  0  0  0  0  0  0
   -0.2935    0.0211    8.6516 C   0  0  0  0  0  0  0  0  0  0  0  0
   -0.2217   -0.3961   10.0111 C   0  0  0  0  0  0  0  0  0  0  0  0
   -0.3848   -1.8138   10.4459 C   0  0  0  0  0  0  0  0  0  0  0  0
    0.0143    0.5933   10.9614 C   0  0  0  0  0  0  0  0  0  0  0  0
    0.0933    0.1210   12.6011 Cl  0  0  0  0  0  0  0  0  0  0  0  0
    0.1787    1.9377   10.6667 C   0  0  0  0  0  0  0  0  0  0  0  0
    0.1066    2.3296    9.3271 C   0  0  0  0  0  0  0  0  0  0  0  0
   -0.1336    1.3845    8.3319 C   0  0  0  0  0  0  0  0  0  0  0  0
  7  8  2  0  0  0
  2  3  2  0  0  0
  2  1  1  0  0  0
  8  1  1  0  0  0
  8  9  1  0  0  0
  3  4  1  0  0  0
  1  6  2  0  0  0
  4  5  2  0  0  0
  6  5  1  0  0  0
  6 11  1  0  0  0
 11 13  1  0  0  0
 13 20  2  0  0  0
 13 14  1  0  0  0
 15 14  1  0  0  0
 20 19  1  0  0  0
 14 16  2  0  0  0
 19 18  2  0  0  0
 16 18  1  0  0  0
 16 17  1  0  0  0
  9 10  1  0  0  0
 11 12  1  0  0  0
M  END
> <minimizedAffinity>
-6.64345

$$$$
5L4I_6J3_A_201


 20 21  0  0  0  0  0  0  0  0999 V2000
   -0.7458    1.7098    5.7717 C   0  0  0  0  0  0  0  0  0  0  0  0
   -1.0298    1.6350    4.4110 C   0  0  0  0  0  0  0  0  0  0  0  0
   -0.3066    0.7595    3.5886 C   0  0  0  0  0  0  0  0  0  0  0  0
    0.6932   -0.0213    4.1963 C   0  0  0  0  0  0  0  0  0  0  0  0
    0.9946    0.0270    5.5218 N   0  0  0  0  0  0  0  0  0  0  0  0
    0.2906    0.8772    6.3037 C   0  0  0  0  0  0  0  0  0  0  0  0
   -1.8208    2.2561    7.8102 O   0  0  0  0  0  0  0  0  0  0  0  0
   -1.5312    2.6370    6.6070 C   0  0  0  0  0  0  0  0  0  0  0  0
   -1.8766    3.7541    6.1238 O   0  0  0  0  0  0  0  0  0  0  0  0
   -1.6393    3.9781    5.2454 H   0  0  0  0  0  0  0  0  0  0  0  0
    0.5985    0.9243    7.6250 N   0  0  0  0  0  0  0  0  0  0  0  0
    1.0520    1.7425    7.9316 H   0  0  0  0  0  0  0  0  0  0  0  0
    0.3544   -0.0380    8.6022 C   0  0  0  0  0  0  0  0  0  0  0  0
    0.2648    0.3872    9.9580 C   0  0  0  0  0  0  0  0  0  0  0  0
    0.4184    1.8079   10.3863 C   0  0  0  0  0  0  0  0  0  0  0  0
    0.0199   -0.5972   10.9114 C   0  0  0  0  0  0  0  0  0  0  0  0
   -0.0805   -0.1152   12.5471 Cl  0  0  0  0  0  0  0  0  0  0  0  0
   -0.1370   -1.9438   10.6229 C   0  0  0  0  0  0  0  0  0  0  0  0
   -0.0473   -2.3436    9.2867 C   0  0  0  0  0  0  0  0  0  0  0  0
    0.2024   -1.4038    8.2888 C   0  0  0  0  0  0  0  0  0  0  0  0
  7  8  2  0  0  0
  2  3  2  0  0  0
  2  1  1  0  0  0
  8  1  1  0  0  0
  8  9  1  0  0  0
  3  4  1  0  0  0
  1  6  2  0  0  0
  4  5  2  0  0  0
  6  5  1  0  0  0
  6 11  1  0  0  0
 11 13  1  0  0  0
 13 20  2  0  0  0
 13 14  1  0  0  0
 15 14  1  0  0  0
 20 19  1  0  0  0
 14 16  2  0  0  0
 19 18  2  0  0  0
 16 18  1  0  0  0
 16 17  1  0  0  0
  9 10  1  0  0  0
 11 12  1  0  0  0
M  END
> <minimizedAffinity>
-6.63606

$$$$
5L4I_6J3_A_201


 20 21  0  0  0  0  0  0  0  0999 V2000
   -0.0413    0.4471   10.0264 C   0  0  0  0  0  0  0  0  0  0  0  0
    0.5423    1.3152   10.9449 C   0  0  0  0  0  0  0  0  0  0  0  0
    0.8726    2.6237   10.5644 C   0  0  0  0  0  0  0  0  0  0  0  0
    0.5875    3.0038    9.2405 C   0  0  0  0  0  0  0  0  0  0  0  0
    0.0174    2.1810    8.3195 N   0  0  0  0  0  0  0  0  0  0  0  0
   -0.2947    0.9207    8.6990 C   0  0  0  0  0  0  0  0  0  0  0  0
   -1.5016   -1.4175   10.0476 O   0  0  0  0  0  0  0  0  0  0  0  0
   -0.3811   -0.9194   10.4637 C   0  0  0  0  0  0  0  0  0  0  0  0
    0.4288   -1.5434   11.2090 O   0  0  0  0  0  0  0  0  0  0  0  0
    1.2266   -1.1337   11.4804 H   0  0  0  0  0  0  0  0  0  0  0  0
   -0.8596    0.1027    7.7745 N   0  0  0  0  0  0  0  0  0  0  0  0
   -1.7419   -0.2657    8.0088 H   0  0  0  0  0  0  0  0  0  0  0  0
   -0.3495   -0.2816    6.5365 C   0  0  0  0  0  0  0  0  0  0  0  0
    0.4307   -1.4707    6.4698 C   0  0  0  0  0  0  0  0  0  0  0  0
    0.7300   -2.3256    7.6551 C   0  0  0  0  0  0  0  0  0  0  0  0
    0.9263   -1.8288    5.2192 C   0  0  0  0  0  0  0  0  0  0  0  0
    1.8754   -3.2451    5.1136 Cl  0  0  0  0  0  0  0  0  0  0  0  0
    0.7099   -1.1068    4.0559 C   0  0  0  0  0  0  0  0  0  0  0  0
   -0.0592    0.0571    4.1393 C   0  0  0  0  0  0  0  0  0  0  0  0
   -0.5770    0.4692    5.3655 C   0  0  0  0  0  0  0  0  0  0  0  0
  7  8  2  0  0  0
  2  3  2  0  0  0
  2  1  1  0  0  0
  8  1  1  0  0  0
  8  9  1  0  0  0
  3  4  1  0  0  0
  1  6  2  0  0  0
  4  5  2  0  0  0
  6  5  1  0  0  0
  6 11  1  0  0  0
 11 13  1  0  0  0
 13 20  2  0  0  0
 13 14  1  0  0  0
 15 14  1  0  0  0
 20 19  1  0  0  0
 14 16  2  0  0  0
 19 18  2  0  0  0
 16 18  1  0  0  0
 16 17  1  0  0  0
  9 10  1  0  0  0
 11 12  1  0  0  0
M  END
> <minimizedAffinity>
-6.56877

$$$$
