1MTR_PI6_B_101


 48 50  0  0  0  0  0  0  0  0999 V2000
    5.1339   -2.0766   16.6390 C   0  0  0  0  0  0  0  0  0  0  0  0
    6.1085   -3.1519   16.1432 C   0  0  0  0  0  0  0  0  0  0  0  0
    6.3966   -3.2453   14.9443 O   0  0  0  0  0  0  0  0  0  0  0  0
    3.7150   -2.4336   16.1796 C   0  0  0  0  0  0  0  0  0  0  0  0
    3.4079   -3.9011   16.3274 C   0  0  0  0  0  0  0  0  0  0  0  0
    3.4203   -4.7427   15.2106 C   0  0  0  0  0  0  0  0  0  0  0  0
    3.2460   -4.4834   17.5982 C   0  0  0  0  0  0  0  0  0  0  0  0
    3.2969   -6.1168   15.3421 C   0  0  0  0  0  0  0  0  0  0  0  0
    3.1285   -5.8485   17.7388 C   0  0  0  0  0  0  0  0  0  0  0  0
    3.1616   -6.6649   16.6022 C   0  0  0  0  0  0  0  0  0  0  0  0
    6.5787   -3.9626   17.0923 N   0  0  0  0  0  0  0  0  0  0  0  0
    7.4738   -5.1189   16.8636 C   0  0  0  0  0  0  0  0  0  0  0  0
    6.9786   -6.1094   17.9210 C   0  0  0  0  0  0  0  0  0  0  0  0
    6.8964   -5.7710   19.1165 O   0  0  0  0  0  0  0  0  0  0  0  0
    3.0960   -8.0404   16.6794 O   0  0  0  0  0  0  0  0  0  0  0  0
    6.6188   -7.3074   17.4716 N   0  0  0  0  0  0  0  0  0  0  0  0
    6.1207   -8.3394   18.3641 C   0  0  0  0  0  0  0  0  0  0  0  0
    5.0382   -9.1459   17.6566 C   0  0  0  0  0  0  0  0  0  0  0  0
    3.6601   -8.5354   17.8796 C   0  0  0  0  0  0  0  0  0  0  0  0
    6.3083   -3.7767   18.0205 H   0  0  0  0  0  0  0  0  0  0  0  0
    6.6919   -7.5002   16.5089 H   0  0  0  0  0  0  0  0  0  0  0  0
    5.4789   -0.6701   16.2978 N   0  0  0  0  0  0  0  0  0  0  0  0
    6.4305   -0.6626   15.9307 H   0  0  0  0  0  0  0  0  0  0  0  0
    4.6123   -0.0162   15.3116 C   0  0  0  0  0  0  0  0  0  0  0  0
    5.5574    0.5300   14.2508 C   0  0  0  0  0  0  0  0  0  0  0  0
    6.6462   -0.3693   14.0949 O   0  0  0  0  0  0  0  0  0  0  0  0
    6.3127   -1.2346   13.8104 H   0  0  0  0  0  0  0  0  0  0  0  0
    4.8524    0.6671   12.9145 C   0  0  0  0  0  0  0  0  0  0  0  0
    4.6712    2.7426   11.0346 O   0  0  0  0  0  0  0  0  0  0  0  0
    5.6725    1.9856   11.0122 C   0  0  0  0  0  0  0  0  0  0  0  0
    5.8116    0.9660   11.8515 N   0  0  0  0  0  0  0  0  0  0  0  0
    6.5987    0.3828   11.7535 H   0  0  0  0  0  0  0  0  0  0  0  0
    6.6533    2.1023   10.1238 O   0  0  0  0  0  0  0  0  0  0  0  0
    7.9302    2.5632   10.5768 C   0  0  0  0  0  0  0  0  0  0  0  0
    7.7430    3.4745   11.8082 C   0  0  0  0  0  0  0  0  0  0  0  0
    8.8395    1.3946   10.8675 C   0  0  0  0  0  0  0  0  0  0  0  0
    8.5158    3.3570    9.4435 C   0  0  0  0  0  0  0  0  0  0  0  0
    4.1271   -0.6262   12.6124 C   0  0  0  0  0  0  0  0  0  0  0  0
    2.7364   -0.4289   12.1964 C   0  0  0  0  0  0  0  0  0  0  0  0
    2.4444    0.0082   10.9088 C   0  0  0  0  0  0  0  0  0  0  0  0
    1.7093   -0.5904   13.1119 C   0  0  0  0  0  0  0  0  0  0  0  0
    1.1448    0.2916   10.5423 C   0  0  0  0  0  0  0  0  0  0  0  0
    0.4092   -0.3076   12.7554 C   0  0  0  0  0  0  0  0  0  0  0  0
    0.1219    0.1360   11.4725 C   0  0  0  0  0  0  0  0  0  0  0  0
    8.9708   -4.8651   17.1862 C   0  0  0  0  0  0  0  0  0  0  0  0
    9.7864   -6.1050   16.8238 C   0  0  0  0  0  0  0  0  0  0  0  0
    9.5170   -3.6398   16.4507 C   0  0  0  0  0  0  0  0  0  0  0  0
   10.0520   -3.9569   15.1189 C   0  0  0  0  0  0  0  0  0  0  0  0
 29 30  2  0  0  0
 30 33  1  0  0  0
 33 34  1  0  0  0
 34 35  1  0  0  0
 34 36  1  0  0  0
 34 37  1  0  0  0
 31 28  1  0  0  0
 28 25  1  0  0  0
 28 38  1  0  0  0
 25 26  1  0  0  0
 25 24  1  0  0  0
 38 39  1  0  0  0
 39 40  2  0  0  0
 39 41  1  0  0  0
 40 42  1  0  0  0
 41 43  2  0  0  0
 42 44  2  0  0  0
 43 44  1  0  0  0
 22  1  1  0  0  0
  1  2  1  0  0  0
  1  4  1  0  0  0
  2  3  2  0  0  0
  4  5  1  0  0  0
  5  6  2  0  0  0
  5  7  1  0  0  0
  6  8  1  0  0  0
  7  9  2  0  0  0
  8 10  2  0  0  0
  9 10  1  0  0  0
 10 15  1  0  0  0
 11 12  1  0  0  0
 12 13  1  0  0  0
 12 45  1  0  0  0
 13 14  2  0  0  0
 45 47  1  0  0  0
 45 46  1  0  0  0
 47 48  1  0  0  0
 16 17  1  0  0  0
 17 18  1  0  0  0
 30 31  1  0  0  0
 24 22  1  0  0  0
  2 11  1  0  0  0
 13 16  1  0  0  0
 18 19  1  0  0  0
 15 19  1  0  0  0
 31 32  1  0  0  0
 26 27  1  0  0  0
 22 23  1  0  0  0
 11 20  1  0  0  0
 16 21  1  0  0  0
M  END
> <minimizedAffinity>
-11.36104

$$$$
1MTR_PI6_B_101


 48 50  0  0  0  0  0  0  0  0999 V2000
    4.8803   -2.3827   16.8240 C   0  0  0  0  0  0  0  0  0  0  0  0
    5.9315   -3.3623   16.2881 C   0  0  0  0  0  0  0  0  0  0  0  0
    6.2224   -3.3888   15.0866 O   0  0  0  0  0  0  0  0  0  0  0  0
    3.4909   -2.8278   16.3516 C   0  0  0  0  0  0  0  0  0  0  0  0
    3.2953   -4.3188   16.4441 C   0  0  0  0  0  0  0  0  0  0  0  0
    3.3676   -5.1146   15.2965 C   0  0  0  0  0  0  0  0  0  0  0  0
    3.1812   -4.9587   17.6922 C   0  0  0  0  0  0  0  0  0  0  0  0
    3.3482   -6.4981   15.3764 C   0  0  0  0  0  0  0  0  0  0  0  0
    3.1670   -6.3331   17.7815 C   0  0  0  0  0  0  0  0  0  0  0  0
    3.2580   -7.1016   16.6150 C   0  0  0  0  0  0  0  0  0  0  0  0
    6.4639   -4.1704   17.2061 N   0  0  0  0  0  0  0  0  0  0  0  0
    7.4427   -5.2468   16.9341 C   0  0  0  0  0  0  0  0  0  0  0  0
    7.0263   -6.3105   17.9536 C   0  0  0  0  0  0  0  0  0  0  0  0
    6.9223   -6.0242   19.1609 O   0  0  0  0  0  0  0  0  0  0  0  0
    3.2962   -8.4800   16.6405 O   0  0  0  0  0  0  0  0  0  0  0  0
    6.7563   -7.5145   17.4595 N   0  0  0  0  0  0  0  0  0  0  0  0
    6.3395   -8.6137   18.3126 C   0  0  0  0  0  0  0  0  0  0  0  0
    5.3187   -9.4723   17.5754 C   0  0  0  0  0  0  0  0  0  0  0  0
    3.8993   -8.9759   17.8213 C   0  0  0  0  0  0  0  0  0  0  0  0
    6.1830   -4.0402   18.1406 H   0  0  0  0  0  0  0  0  0  0  0  0
    6.8408   -7.6652   16.4903 H   0  0  0  0  0  0  0  0  0  0  0  0
    5.1177   -0.9424   16.5359 N   0  0  0  0  0  0  0  0  0  0  0  0
    6.0842   -0.7300   16.7831 H   0  0  0  0  0  0  0  0  0  0  0  0
    4.9070   -0.5209   15.1469 C   0  0  0  0  0  0  0  0  0  0  0  0
    6.1557    0.2661   14.7756 C   0  0  0  0  0  0  0  0  0  0  0  0
    7.2360   -0.6390   14.5961 O   0  0  0  0  0  0  0  0  0  0  0  0
    7.0238   -1.2577   13.8798 H   0  0  0  0  0  0  0  0  0  0  0  0
    5.9503    1.0316   13.4819 C   0  0  0  0  0  0  0  0  0  0  0  0
    4.4150    1.3030   11.1488 O   0  0  0  0  0  0  0  0  0  0  0  0
    3.9064    1.6160   12.2531 C   0  0  0  0  0  0  0  0  0  0  0  0
    4.5822    1.5413   13.3937 N   0  0  0  0  0  0  0  0  0  0  0  0
    4.1409    1.8436   14.2202 H   0  0  0  0  0  0  0  0  0  0  0  0
    2.6728    2.0935   12.3770 O   0  0  0  0  0  0  0  0  0  0  0  0
    1.5739    1.1974   12.1833 C   0  0  0  0  0  0  0  0  0  0  0  0
    1.6804    0.5434   10.7894 C   0  0  0  0  0  0  0  0  0  0  0  0
    1.5283    0.1726   13.2899 C   0  0  0  0  0  0  0  0  0  0  0  0
    0.3302    2.0373   12.2550 C   0  0  0  0  0  0  0  0  0  0  0  0
    6.9369    2.1780   13.4334 C   0  0  0  0  0  0  0  0  0  0  0  0
    7.5233    2.3841   12.1069 C   0  0  0  0  0  0  0  0  0  0  0  0
    7.5315    3.6506   11.5323 C   0  0  0  0  0  0  0  0  0  0  0  0
    7.9918    1.3017   11.3802 C   0  0  0  0  0  0  0  0  0  0  0  0
    7.9908    3.8333   10.2442 C   0  0  0  0  0  0  0  0  0  0  0  0
    8.4502    1.4745   10.0928 C   0  0  0  0  0  0  0  0  0  0  0  0
    8.4495    2.7379    9.5193 C   0  0  0  0  0  0  0  0  0  0  0  0
    8.9173   -4.8933   17.2659 C   0  0  0  0  0  0  0  0  0  0  0  0
    9.7963   -6.1238   17.0487 C   0  0  0  0  0  0  0  0  0  0  0  0
    9.4304   -3.7225   16.4255 C   0  0  0  0  0  0  0  0  0  0  0  0
    9.9941   -4.1418   15.1345 C   0  0  0  0  0  0  0  0  0  0  0  0
 29 30  2  0  0  0
 30 33  1  0  0  0
 33 34  1  0  0  0
 34 35  1  0  0  0
 34 36  1  0  0  0
 34 37  1  0  0  0
 31 28  1  0  0  0
 28 25  1  0  0  0
 28 38  1  0  0  0
 25 26  1  0  0  0
 25 24  1  0  0  0
 38 39  1  0  0  0
 39 40  2  0  0  0
 39 41  1  0  0  0
 40 42  1  0  0  0
 41 43  2  0  0  0
 42 44  2  0  0  0
 43 44  1  0  0  0
 22  1  1  0  0  0
  1  2  1  0  0  0
  1  4  1  0  0  0
  2  3  2  0  0  0
  4  5  1  0  0  0
  5  6  2  0  0  0
  5  7  1  0  0  0
  6  8  1  0  0  0
  7  9  2  0  0  0
  8 10  2  0  0  0
  9 10  1  0  0  0
 10 15  1  0  0  0
 11 12  1  0  0  0
 12 13  1  0  0  0
 12 45  1  0  0  0
 13 14  2  0  0  0
 45 47  1  0  0  0
 45 46  1  0  0  0
 47 48  1  0  0  0
 16 17  1  0  0  0
 17 18  1  0  0  0
 30 31  1  0  0  0
 24 22  1  0  0  0
  2 11  1  0  0  0
 13 16  1  0  0  0
 18 19  1  0  0  0
 15 19  1  0  0  0
 31 32  1  0  0  0
 26 27  1  0  0  0
 22 23  1  0  0  0
 11 20  1  0  0  0
 16 21  1  0  0  0
M  END
> <minimizedAffinity>
-11.17953

$$$$
1MTR_PI6_B_101


 48 50  0  0  0  0  0  0  0  0999 V2000
    5.5339    0.9052   14.7963 C   0  0  0  0  0  0  0  0  0  0  0  0
    4.6575    0.6761   13.5586 C   0  0  0  0  0  0  0  0  0  0  0  0
    4.4696   -0.4622   13.1141 O   0  0  0  0  0  0  0  0  0  0  0  0
    7.0009    0.6531   14.4274 C   0  0  0  0  0  0  0  0  0  0  0  0
    7.3702    1.2291   13.0852 C   0  0  0  0  0  0  0  0  0  0  0  0
    7.4887    0.3981   11.9667 C   0  0  0  0  0  0  0  0  0  0  0  0
    7.4615    2.6203   12.8939 C   0  0  0  0  0  0  0  0  0  0  0  0
    7.6717    0.9211   10.6964 C   0  0  0  0  0  0  0  0  0  0  0  0
    7.6374    3.1490   11.6343 C   0  0  0  0  0  0  0  0  0  0  0  0
    7.7356    2.2907   10.5329 C   0  0  0  0  0  0  0  0  0  0  0  0
    4.1565    1.7857   13.0137 N   0  0  0  0  0  0  0  0  0  0  0  0
    3.3426    1.8402   11.7787 C   0  0  0  0  0  0  0  0  0  0  0  0
    3.8034    3.1630   11.1607 C   0  0  0  0  0  0  0  0  0  0  0  0
    3.7741    4.2163   11.8244 O   0  0  0  0  0  0  0  0  0  0  0  0
    7.8654    2.7585    9.2419 O   0  0  0  0  0  0  0  0  0  0  0  0
    4.2583    3.0945    9.9137 N   0  0  0  0  0  0  0  0  0  0  0  0
    4.7371    4.2715    9.2101 C   0  0  0  0  0  0  0  0  0  0  0  0
    5.9117    3.8889    8.3175 C   0  0  0  0  0  0  0  0  0  0  0  0
    7.2349    4.0131    9.0627 C   0  0  0  0  0  0  0  0  0  0  0  0
    4.3434    2.6378   13.4701 H   0  0  0  0  0  0  0  0  0  0  0  0
    4.2710    2.2234    9.4552 H   0  0  0  0  0  0  0  0  0  0  0  0
    5.1450    0.1589   16.0233 N   0  0  0  0  0  0  0  0  0  0  0  0
    4.1294    0.2034   16.1068 H   0  0  0  0  0  0  0  0  0  0  0  0
    5.5375   -1.2536   16.0688 C   0  0  0  0  0  0  0  0  0  0  0  0
    4.2845   -2.0015   16.5017 C   0  0  0  0  0  0  0  0  0  0  0  0
    3.2105   -1.6380   15.6456 O   0  0  0  0  0  0  0  0  0  0  0  0
    3.4283   -1.8817   14.7323 H   0  0  0  0  0  0  0  0  0  0  0  0
    4.4879   -3.5019   16.4067 C   0  0  0  0  0  0  0  0  0  0  0  0
    6.6970   -4.5941   15.0646 O   0  0  0  0  0  0  0  0  0  0  0  0
    6.7794   -4.3774   16.2985 C   0  0  0  0  0  0  0  0  0  0  0  0
    5.7655   -3.8899   17.0038 N   0  0  0  0  0  0  0  0  0  0  0  0
    5.8793   -3.7845   17.9760 H   0  0  0  0  0  0  0  0  0  0  0  0
    7.8615   -4.6589   17.0161 O   0  0  0  0  0  0  0  0  0  0  0  0
    9.1442   -4.3466   16.4638 C   0  0  0  0  0  0  0  0  0  0  0  0
    9.4330   -5.2797   15.2689 C   0  0  0  0  0  0  0  0  0  0  0  0
    9.2104   -2.8897   16.0762 C   0  0  0  0  0  0  0  0  0  0  0  0
   10.1440   -4.5987   17.5566 C   0  0  0  0  0  0  0  0  0  0  0  0
    3.3478   -4.1933   17.1223 C   0  0  0  0  0  0  0  0  0  0  0  0
    3.3663   -5.6505   16.9724 C   0  0  0  0  0  0  0  0  0  0  0  0
    3.3823   -6.4712   18.0950 C   0  0  0  0  0  0  0  0  0  0  0  0
    3.4587   -6.2166   15.7114 C   0  0  0  0  0  0  0  0  0  0  0  0
    3.5006   -7.8394   17.9617 C   0  0  0  0  0  0  0  0  0  0  0  0
    3.5794   -7.5813   15.5690 C   0  0  0  0  0  0  0  0  0  0  0  0
    3.6033   -8.3970   16.6912 C   0  0  0  0  0  0  0  0  0  0  0  0
    1.8139    1.9858   12.0051 C   0  0  0  0  0  0  0  0  0  0  0  0
    1.1115    2.1292   10.6561 C   0  0  0  0  0  0  0  0  0  0  0  0
    1.2327    0.8018   12.7802 C   0  0  0  0  0  0  0  0  0  0  0  0
    0.6991   -0.2536   11.9074 C   0  0  0  0  0  0  0  0  0  0  0  0
 29 30  2  0  0  0
 30 33  1  0  0  0
 33 34  1  0  0  0
 34 35  1  0  0  0
 34 36  1  0  0  0
 34 37  1  0  0  0
 31 28  1  0  0  0
 28 25  1  0  0  0
 28 38  1  0  0  0
 25 26  1  0  0  0
 25 24  1  0  0  0
 38 39  1  0  0  0
 39 40  2  0  0  0
 39 41  1  0  0  0
 40 42  1  0  0  0
 41 43  2  0  0  0
 42 44  2  0  0  0
 43 44  1  0  0  0
 22  1  1  0  0  0
  1  2  1  0  0  0
  1  4  1  0  0  0
  2  3  2  0  0  0
  4  5  1  0  0  0
  5  6  2  0  0  0
  5  7  1  0  0  0
  6  8  1  0  0  0
  7  9  2  0  0  0
  8 10  2  0  0  0
  9 10  1  0  0  0
 10 15  1  0  0  0
 11 12  1  0  0  0
 12 13  1  0  0  0
 12 45  1  0  0  0
 13 14  2  0  0  0
 45 47  1  0  0  0
 45 46  1  0  0  0
 47 48  1  0  0  0
 16 17  1  0  0  0
 17 18  1  0  0  0
 30 31  1  0  0  0
 24 22  1  0  0  0
  2 11  1  0  0  0
 13 16  1  0  0  0
 18 19  1  0  0  0
 15 19  1  0  0  0
 31 32  1  0  0  0
 26 27  1  0  0  0
 22 23  1  0  0  0
 11 20  1  0  0  0
 16 21  1  0  0  0
M  END
> <minimizedAffinity>
-10.97196

$$$$
1MTR_PI6_B_101


 48 50  0  0  0  0  0  0  0  0999 V2000
    4.9988    0.3029   14.6712 C   0  0  0  0  0  0  0  0  0  0  0  0
    4.3416    0.1705   13.2919 C   0  0  0  0  0  0  0  0  0  0  0  0
    4.2649   -0.9264   12.7264 O   0  0  0  0  0  0  0  0  0  0  0  0
    6.5135    0.1116   14.5271 C   0  0  0  0  0  0  0  0  0  0  0  0
    7.0757    0.8128   13.3179 C   0  0  0  0  0  0  0  0  0  0  0  0
    7.4001    0.0882   12.1667 C   0  0  0  0  0  0  0  0  0  0  0  0
    7.1514    2.2170   13.2644 C   0  0  0  0  0  0  0  0  0  0  0  0
    7.7685    0.7267   10.9931 C   0  0  0  0  0  0  0  0  0  0  0  0
    7.5110    2.8601   12.1007 C   0  0  0  0  0  0  0  0  0  0  0  0
    7.8135    2.1063   10.9606 C   0  0  0  0  0  0  0  0  0  0  0  0
    3.8993    1.3154   12.7697 N   0  0  0  0  0  0  0  0  0  0  0  0
    3.2940    1.4663   11.4275 C   0  0  0  0  0  0  0  0  0  0  0  0
    3.8052    2.8475   11.0092 C   0  0  0  0  0  0  0  0  0  0  0  0
    3.6350    3.8359   11.7471 O   0  0  0  0  0  0  0  0  0  0  0  0
    8.1346    2.6908    9.7533 O   0  0  0  0  0  0  0  0  0  0  0  0
    4.4573    2.8997    9.8523 N   0  0  0  0  0  0  0  0  0  0  0  0
    5.0050    4.1438    9.3402 C   0  0  0  0  0  0  0  0  0  0  0  0
    6.3200    3.8644    8.6223 C   0  0  0  0  0  0  0  0  0  0  0  0
    7.5009    3.9449    9.5818 C   0  0  0  0  0  0  0  0  0  0  0  0
    3.9822    2.1262   13.3220 H   0  0  0  0  0  0  0  0  0  0  0  0
    4.5722    2.0739    9.3288 H   0  0  0  0  0  0  0  0  0  0  0  0
    4.4415   -0.5577   15.7494 N   0  0  0  0  0  0  0  0  0  0  0  0
    3.5993   -1.0051   15.3875 H   0  0  0  0  0  0  0  0  0  0  0  0
    5.3279   -1.6116   16.2541 C   0  0  0  0  0  0  0  0  0  0  0  0
    4.5260   -2.8995   16.1309 C   0  0  0  0  0  0  0  0  0  0  0  0
    3.9726   -2.9759   14.8246 O   0  0  0  0  0  0  0  0  0  0  0  0
    4.6884   -2.9817   14.1700 H   0  0  0  0  0  0  0  0  0  0  0  0
    5.4103   -4.1126   16.3498 C   0  0  0  0  0  0  0  0  0  0  0  0
    3.7707   -5.4859   18.1664 O   0  0  0  0  0  0  0  0  0  0  0  0
    3.8882   -5.9274   16.9970 C   0  0  0  0  0  0  0  0  0  0  0  0
    4.6687   -5.3469   16.0932 N   0  0  0  0  0  0  0  0  0  0  0  0
    4.7522   -5.7677   15.2071 H   0  0  0  0  0  0  0  0  0  0  0  0
    3.2873   -7.0339   16.5731 O   0  0  0  0  0  0  0  0  0  0  0  0
    3.8506   -8.2972   16.9401 C   0  0  0  0  0  0  0  0  0  0  0  0
    3.9594   -9.1966   15.6906 C   0  0  0  0  0  0  0  0  0  0  0  0
    5.1846   -8.1023   17.6181 C   0  0  0  0  0  0  0  0  0  0  0  0
    2.8967   -8.9115   17.9249 C   0  0  0  0  0  0  0  0  0  0  0  0
    6.6022   -4.0192   15.4221 C   0  0  0  0  0  0  0  0  0  0  0  0
    7.8884   -4.0960   16.1192 C   0  0  0  0  0  0  0  0  0  0  0  0
    8.9266   -3.2378   15.7728 C   0  0  0  0  0  0  0  0  0  0  0  0
    8.1063   -5.0839   17.0655 C   0  0  0  0  0  0  0  0  0  0  0  0
   10.1703   -3.3709   16.3550 C   0  0  0  0  0  0  0  0  0  0  0  0
    9.3453   -5.2256   17.6503 C   0  0  0  0  0  0  0  0  0  0  0  0
   10.3815   -4.3732   17.2967 C   0  0  0  0  0  0  0  0  0  0  0  0
    1.7448    1.5633   11.4124 C   0  0  0  0  0  0  0  0  0  0  0  0
    1.2768    2.0100   10.0285 C   0  0  0  0  0  0  0  0  0  0  0  0
    1.0826    0.2373   11.7916 C   0  0  0  0  0  0  0  0  0  0  0  0
    0.5256    0.2384   13.1518 C   0  0  0  0  0  0  0  0  0  0  0  0
 29 30  2  0  0  0
 30 33  1  0  0  0
 33 34  1  0  0  0
 34 35  1  0  0  0
 34 36  1  0  0  0
 34 37  1  0  0  0
 31 28  1  0  0  0
 28 25  1  0  0  0
 28 38  1  0  0  0
 25 26  1  0  0  0
 25 24  1  0  0  0
 38 39  1  0  0  0
 39 40  2  0  0  0
 39 41  1  0  0  0
 40 42  1  0  0  0
 41 43  2  0  0  0
 42 44  2  0  0  0
 43 44  1  0  0  0
 22  1  1  0  0  0
  1  2  1  0  0  0
  1  4  1  0  0  0
  2  3  2  0  0  0
  4  5  1  0  0  0
  5  6  2  0  0  0
  5  7  1  0  0  0
  6  8  1  0  0  0
  7  9  2  0  0  0
  8 10  2  0  0  0
  9 10  1  0  0  0
 10 15  1  0  0  0
 11 12  1  0  0  0
 12 13  1  0  0  0
 12 45  1  0  0  0
 13 14  2  0  0  0
 45 47  1  0  0  0
 45 46  1  0  0  0
 47 48  1  0  0  0
 16 17  1  0  0  0
 17 18  1  0  0  0
 30 31  1  0  0  0
 24 22  1  0  0  0
  2 11  1  0  0  0
 13 16  1  0  0  0
 18 19  1  0  0  0
 15 19  1  0  0  0
 31 32  1  0  0  0
 26 27  1  0  0  0
 22 23  1  0  0  0
 11 20  1  0  0  0
 16 21  1  0  0  0
M  END
> <minimizedAffinity>
-10.61180

$$$$
1MTR_PI6_B_101


 48 50  0  0  0  0  0  0  0  0999 V2000
    4.4589   -0.9992   12.8087 C   0  0  0  0  0  0  0  0  0  0  0  0
    4.8334    0.4758   12.9987 C   0  0  0  0  0  0  0  0  0  0  0  0
    4.7345    1.0199   14.1046 O   0  0  0  0  0  0  0  0  0  0  0  0
    2.9356   -1.1477   12.9039 C   0  0  0  0  0  0  0  0  0  0  0  0
    2.1982   -0.0502   12.1817 C   0  0  0  0  0  0  0  0  0  0  0  0
    1.6179    1.0021   12.8970 C   0  0  0  0  0  0  0  0  0  0  0  0
    2.1994    0.0208   10.7763 C   0  0  0  0  0  0  0  0  0  0  0  0
    1.0732    2.0997   12.2495 C   0  0  0  0  0  0  0  0  0  0  0  0
    1.6656    1.1105   10.1247 C   0  0  0  0  0  0  0  0  0  0  0  0
    1.1071    2.1554   10.8703 C   0  0  0  0  0  0  0  0  0  0  0  0
    5.2376    1.0985   11.8906 N   0  0  0  0  0  0  0  0  0  0  0  0
    5.5856    2.5338   11.7942 C   0  0  0  0  0  0  0  0  0  0  0  0
    5.0895    2.8803   10.3878 C   0  0  0  0  0  0  0  0  0  0  0  0
    5.4564    2.2110    9.4040 O   0  0  0  0  0  0  0  0  0  0  0  0
    0.5992    3.2938   10.2801 O   0  0  0  0  0  0  0  0  0  0  0  0
    4.2343    3.8946   10.3068 N   0  0  0  0  0  0  0  0  0  0  0  0
    3.6764    4.3230    9.0360 C   0  0  0  0  0  0  0  0  0  0  0  0
    2.2345    4.7735    9.2384 C   0  0  0  0  0  0  0  0  0  0  0  0
    1.2641    3.6108    9.0713 C   0  0  0  0  0  0  0  0  0  0  0  0
    5.3105    0.5594   11.0700 H   0  0  0  0  0  0  0  0  0  0  0  0
    3.9721    4.3676   11.1295 H   0  0  0  0  0  0  0  0  0  0  0  0
    5.1570   -1.9728   13.6911 N   0  0  0  0  0  0  0  0  0  0  0  0
    6.1322   -1.6833   13.7650 H   0  0  0  0  0  0  0  0  0  0  0  0
    4.6240   -2.1055   15.0511 C   0  0  0  0  0  0  0  0  0  0  0  0
    5.8055   -1.8308   15.9705 C   0  0  0  0  0  0  0  0  0  0  0  0
    5.3279   -1.2474   17.1747 O   0  0  0  0  0  0  0  0  0  0  0  0
    4.7188   -1.8624   17.6126 H   0  0  0  0  0  0  0  0  0  0  0  0
    6.5352   -3.1153   16.3155 C   0  0  0  0  0  0  0  0  0  0  0  0
    6.2216   -5.3133   18.0315 O   0  0  0  0  0  0  0  0  0  0  0  0
    5.5543   -5.2694   16.9690 C   0  0  0  0  0  0  0  0  0  0  0  0
    5.6723   -4.2758   16.0961 N   0  0  0  0  0  0  0  0  0  0  0  0
    5.1536   -4.3224   15.2606 H   0  0  0  0  0  0  0  0  0  0  0  0
    4.7124   -6.2279   16.5983 O   0  0  0  0  0  0  0  0  0  0  0  0
    3.3357   -6.1051   16.9694 C   0  0  0  0  0  0  0  0  0  0  0  0
    2.9154   -7.3314   17.8070 C   0  0  0  0  0  0  0  0  0  0  0  0
    3.1018   -4.8079   17.7039 C   0  0  0  0  0  0  0  0  0  0  0  0
    2.5560   -6.0773   15.6855 C   0  0  0  0  0  0  0  0  0  0  0  0
    7.7741   -3.2175   15.4524 C   0  0  0  0  0  0  0  0  0  0  0  0
    8.7752   -4.1473   15.9810 C   0  0  0  0  0  0  0  0  0  0  0  0
    8.8348   -5.4553   15.5121 C   0  0  0  0  0  0  0  0  0  0  0  0
    9.6090   -3.7541   17.0150 C   0  0  0  0  0  0  0  0  0  0  0  0
    9.7076   -6.3632   16.0756 C   0  0  0  0  0  0  0  0  0  0  0  0
   10.4819   -4.6544   17.5850 C   0  0  0  0  0  0  0  0  0  0  0  0
   10.5334   -5.9608   17.1207 C   0  0  0  0  0  0  0  0  0  0  0  0
    7.1067    2.8429   11.7971 C   0  0  0  0  0  0  0  0  0  0  0  0
    7.3360    4.2634   12.3105 C   0  0  0  0  0  0  0  0  0  0  0  0
    7.8947    1.8415   12.6438 C   0  0  0  0  0  0  0  0  0  0  0  0
    7.9504    2.2063   14.0665 C   0  0  0  0  0  0  0  0  0  0  0  0
 29 30  2  0  0  0
 30 33  1  0  0  0
 33 34  1  0  0  0
 34 35  1  0  0  0
 34 36  1  0  0  0
 34 37  1  0  0  0
 31 28  1  0  0  0
 28 25  1  0  0  0
 28 38  1  0  0  0
 25 26  1  0  0  0
 25 24  1  0  0  0
 38 39  1  0  0  0
 39 40  2  0  0  0
 39 41  1  0  0  0
 40 42  1  0  0  0
 41 43  2  0  0  0
 42 44  2  0  0  0
 43 44  1  0  0  0
 22  1  1  0  0  0
  1  2  1  0  0  0
  1  4  1  0  0  0
  2  3  2  0  0  0
  4  5  1  0  0  0
  5  6  2  0  0  0
  5  7  1  0  0  0
  6  8  1  0  0  0
  7  9  2  0  0  0
  8 10  2  0  0  0
  9 10  1  0  0  0
 10 15  1  0  0  0
 11 12  1  0  0  0
 12 13  1  0  0  0
 12 45  1  0  0  0
 13 14  2  0  0  0
 45 47  1  0  0  0
 45 46  1  0  0  0
 47 48  1  0  0  0
 16 17  1  0  0  0
 17 18  1  0  0  0
 30 31  1  0  0  0
 24 22  1  0  0  0
  2 11  1  0  0  0
 13 16  1  0  0  0
 18 19  1  0  0  0
 15 19  1  0  0  0
 31 32  1  0  0  0
 26 27  1  0  0  0
 22 23  1  0  0  0
 11 20  1  0  0  0
 16 21  1  0  0  0
M  END
> <minimizedAffinity>
-9.91888

$$$$
1MTR_PI6_B_101


 48 50  0  0  0  0  0  0  0  0999 V2000
    4.5420   -0.9157   12.7826 C   0  0  0  0  0  0  0  0  0  0  0  0
    4.7988    0.5825   12.9865 C   0  0  0  0  0  0  0  0  0  0  0  0
    4.6566    1.1069   14.0973 O   0  0  0  0  0  0  0  0  0  0  0  0
    3.0350   -1.1848   12.8746 C   0  0  0  0  0  0  0  0  0  0  0  0
    2.2137   -0.1423   12.1616 C   0  0  0  0  0  0  0  0  0  0  0  0
    1.5517    0.8543   12.8858 C   0  0  0  0  0  0  0  0  0  0  0  0
    2.2100   -0.0584   10.7569 C   0  0  0  0  0  0  0  0  0  0  0  0
    0.9224    1.9114   12.2477 C   0  0  0  0  0  0  0  0  0  0  0  0
    1.5921    0.9917   10.1146 C   0  0  0  0  0  0  0  0  0  0  0  0
    0.9525    1.9823   10.8691 C   0  0  0  0  0  0  0  0  0  0  0  0
    5.1531    1.2454   11.8847 N   0  0  0  0  0  0  0  0  0  0  0  0
    5.3867    2.7045   11.8018 C   0  0  0  0  0  0  0  0  0  0  0  0
    4.8655    3.0238   10.3981 C   0  0  0  0  0  0  0  0  0  0  0  0
    5.2846    2.3945    9.4087 O   0  0  0  0  0  0  0  0  0  0  0  0
    0.3566    3.0824   10.2887 O   0  0  0  0  0  0  0  0  0  0  0  0
    3.9329    3.9680   10.3254 N   0  0  0  0  0  0  0  0  0  0  0  0
    3.3435    4.3628    9.0579 C   0  0  0  0  0  0  0  0  0  0  0  0
    1.8705    4.6962    9.2626 C   0  0  0  0  0  0  0  0  0  0  0  0
    0.9950    3.4621    9.0837 C   0  0  0  0  0  0  0  0  0  0  0  0
    5.2687    0.7214   11.0592 H   0  0  0  0  0  0  0  0  0  0  0  0
    3.6338    4.4113   11.1520 H   0  0  0  0  0  0  0  0  0  0  0  0
    5.3143   -1.8392   13.6569 N   0  0  0  0  0  0  0  0  0  0  0  0
    5.8846   -2.4340   13.0557 H   0  0  0  0  0  0  0  0  0  0  0  0
    6.2044   -1.2051   14.6352 C   0  0  0  0  0  0  0  0  0  0  0  0
    5.6304   -1.5762   15.9952 C   0  0  0  0  0  0  0  0  0  0  0  0
    4.4459   -0.8240   16.2176 O   0  0  0  0  0  0  0  0  0  0  0  0
    3.7958   -1.0333   15.5288 H   0  0  0  0  0  0  0  0  0  0  0  0
    5.2806   -3.0514   16.0526 C   0  0  0  0  0  0  0  0  0  0  0  0
    7.3080   -4.4247   14.6822 O   0  0  0  0  0  0  0  0  0  0  0  0
    7.3142   -4.4227   15.9377 C   0  0  0  0  0  0  0  0  0  0  0  0
    6.3717   -3.8191   16.6522 N   0  0  0  0  0  0  0  0  0  0  0  0
    6.4091   -3.8919   17.6333 H   0  0  0  0  0  0  0  0  0  0  0  0
    8.2278   -5.0597   16.6620 O   0  0  0  0  0  0  0  0  0  0  0  0
    9.6072   -4.8859   16.3226 C   0  0  0  0  0  0  0  0  0  0  0  0
    9.8537   -5.3943   14.8864 C   0  0  0  0  0  0  0  0  0  0  0  0
   10.0137   -3.4426   16.4923 C   0  0  0  0  0  0  0  0  0  0  0  0
   10.3874   -5.7222   17.2969 C   0  0  0  0  0  0  0  0  0  0  0  0
    4.0166   -3.2200   16.8674 C   0  0  0  0  0  0  0  0  0  0  0  0
    3.5434   -4.6051   16.9256 C   0  0  0  0  0  0  0  0  0  0  0  0
    3.4049   -5.2484   18.1509 C   0  0  0  0  0  0  0  0  0  0  0  0
    3.3174   -5.3104   15.7549 C   0  0  0  0  0  0  0  0  0  0  0  0
    3.0562   -6.5822   18.2072 C   0  0  0  0  0  0  0  0  0  0  0  0
    2.9711   -6.6428   15.8016 C   0  0  0  0  0  0  0  0  0  0  0  0
    2.8417   -7.2840   17.0252 C   0  0  0  0  0  0  0  0  0  0  0  0
    6.8787    3.1327   11.8095 C   0  0  0  0  0  0  0  0  0  0  0  0
    6.9890    4.5834   12.2753 C   0  0  0  0  0  0  0  0  0  0  0  0
    7.7319    2.2259   12.6985 C   0  0  0  0  0  0  0  0  0  0  0  0
    8.5369    1.2614   11.9356 C   0  0  0  0  0  0  0  0  0  0  0  0
 29 30  2  0  0  0
 30 33  1  0  0  0
 33 34  1  0  0  0
 34 35  1  0  0  0
 34 36  1  0  0  0
 34 37  1  0  0  0
 31 28  1  0  0  0
 28 25  1  0  0  0
 28 38  1  0  0  0
 25 26  1  0  0  0
 25 24  1  0  0  0
 38 39  1  0  0  0
 39 40  2  0  0  0
 39 41  1  0  0  0
 40 42  1  0  0  0
 41 43  2  0  0  0
 42 44  2  0  0  0
 43 44  1  0  0  0
 22  1  1  0  0  0
  1  2  1  0  0  0
  1  4  1  0  0  0
  2  3  2  0  0  0
  4  5  1  0  0  0
  5  6  2  0  0  0
  5  7  1  0  0  0
  6  8  1  0  0  0
  7  9  2  0  0  0
  8 10  2  0  0  0
  9 10  1  0  0  0
 10 15  1  0  0  0
 11 12  1  0  0  0
 12 13  1  0  0  0
 12 45  1  0  0  0
 13 14  2  0  0  0
 45 47  1  0  0  0
 45 46  1  0  0  0
 47 48  1  0  0  0
 16 17  1  0  0  0
 17 18  1  0  0  0
 30 31  1  0  0  0
 24 22  1  0  0  0
  2 11  1  0  0  0
 13 16  1  0  0  0
 18 19  1  0  0  0
 15 19  1  0  0  0
 31 32  1  0  0  0
 26 27  1  0  0  0
 22 23  1  0  0  0
 11 20  1  0  0  0
 16 21  1  0  0  0
M  END
> <minimizedAffinity>
-9.45634

$$$$
1MTR_PI6_B_101


 48 50  0  0  0  0  0  0  0  0999 V2000
    4.3320   -7.9452   17.4900 C   0  0  0  0  0  0  0  0  0  0  0  0
    5.2355   -6.9063   18.1656 C   0  0  0  0  0  0  0  0  0  0  0  0
    5.0645   -6.5875   19.3480 O   0  0  0  0  0  0  0  0  0  0  0  0
    2.9411   -7.3369   17.2730 C   0  0  0  0  0  0  0  0  0  0  0  0
    2.9990   -5.9116   16.7883 C   0  0  0  0  0  0  0  0  0  0  0  0
    2.7519   -4.8539   17.6691 C   0  0  0  0  0  0  0  0  0  0  0  0
    3.4408   -5.6057   15.4877 C   0  0  0  0  0  0  0  0  0  0  0  0
    2.9525   -3.5366   17.2879 C   0  0  0  0  0  0  0  0  0  0  0  0
    3.6483   -4.2999   15.1021 C   0  0  0  0  0  0  0  0  0  0  0  0
    3.4078   -3.2646   16.0131 C   0  0  0  0  0  0  0  0  0  0  0  0
    6.1734   -6.3812   17.3759 N   0  0  0  0  0  0  0  0  0  0  0  0
    7.1206   -5.3130   17.7660 C   0  0  0  0  0  0  0  0  0  0  0  0
    7.2582   -4.5269   16.4594 C   0  0  0  0  0  0  0  0  0  0  0  0
    7.5677   -5.1061   15.4015 O   0  0  0  0  0  0  0  0  0  0  0  0
    3.6406   -1.9407   15.7041 O   0  0  0  0  0  0  0  0  0  0  0  0
    6.9925   -3.2266   16.5329 N   0  0  0  0  0  0  0  0  0  0  0  0
    7.0733   -2.3639   15.3672 C   0  0  0  0  0  0  0  0  0  0  0  0
    5.9804   -1.3042   15.4406 C   0  0  0  0  0  0  0  0  0  0  0  0
    4.6976   -1.7870   14.7751 C   0  0  0  0  0  0  0  0  0  0  0  0
    6.2411   -6.7329   16.4588 H   0  0  0  0  0  0  0  0  0  0  0  0
    6.7342   -2.8382   17.3999 H   0  0  0  0  0  0  0  0  0  0  0  0
    4.2476   -9.2735   18.1549 N   0  0  0  0  0  0  0  0  0  0  0  0
    4.5321   -9.1544   19.1272 H   0  0  0  0  0  0  0  0  0  0  0  0
    2.9278   -9.9133   18.1488 C   0  0  0  0  0  0  0  0  0  0  0  0
    3.2026  -11.3914   17.9114 C   0  0  0  0  0  0  0  0  0  0  0  0
    1.9648  -12.0761   17.7790 O   0  0  0  0  0  0  0  0  0  0  0  0
    1.4758  -11.7167   17.0223 H   0  0  0  0  0  0  0  0  0  0  0  0
    4.0039  -11.5972   16.6397 C   0  0  0  0  0  0  0  0  0  0  0  0
    6.5394  -10.4825   16.1890 O   0  0  0  0  0  0  0  0  0  0  0  0
    6.4580  -11.6177   16.7190 C   0  0  0  0  0  0  0  0  0  0  0  0
    5.2941  -12.2191   16.9357 N   0  0  0  0  0  0  0  0  0  0  0  0
    5.3000  -13.1280   17.3141 H   0  0  0  0  0  0  0  0  0  0  0  0
    7.5199  -12.3376   17.0641 O   0  0  0  0  0  0  0  0  0  0  0  0
    8.3328  -11.8746   18.1472 C   0  0  0  0  0  0  0  0  0  0  0  0
    9.4664  -10.9831   17.5976 C   0  0  0  0  0  0  0  0  0  0  0  0
    7.4882  -11.1544   19.1694 C   0  0  0  0  0  0  0  0  0  0  0  0
    8.9181  -13.1017   18.7865 C   0  0  0  0  0  0  0  0  0  0  0  0
    3.2067  -12.4748   15.6993 C   0  0  0  0  0  0  0  0  0  0  0  0
    3.0426  -11.8962   14.3636 C   0  0  0  0  0  0  0  0  0  0  0  0
    2.1648  -12.4730   13.4520 C   0  0  0  0  0  0  0  0  0  0  0  0
    3.8279  -10.8247   13.9709 C   0  0  0  0  0  0  0  0  0  0  0  0
    2.0797  -11.9940   12.1609 C   0  0  0  0  0  0  0  0  0  0  0  0
    3.7512  -10.3413   12.6833 C   0  0  0  0  0  0  0  0  0  0  0  0
    2.8805  -10.9241   11.7737 C   0  0  0  0  0  0  0  0  0  0  0  0
    8.5507   -5.8005   18.1220 C   0  0  0  0  0  0  0  0  0  0  0  0
    8.7819   -7.1836   17.5160 C   0  0  0  0  0  0  0  0  0  0  0  0
    9.6265   -4.8257   17.6396 C   0  0  0  0  0  0  0  0  0  0  0  0
   10.8709   -5.4941   17.2332 C   0  0  0  0  0  0  0  0  0  0  0  0
 29 30  2  0  0  0
 30 33  1  0  0  0
 33 34  1  0  0  0
 34 35  1  0  0  0
 34 36  1  0  0  0
 34 37  1  0  0  0
 31 28  1  0  0  0
 28 25  1  0  0  0
 28 38  1  0  0  0
 25 26  1  0  0  0
 25 24  1  0  0  0
 38 39  1  0  0  0
 39 40  2  0  0  0
 39 41  1  0  0  0
 40 42  1  0  0  0
 41 43  2  0  0  0
 42 44  2  0  0  0
 43 44  1  0  0  0
 22  1  1  0  0  0
  1  2  1  0  0  0
  1  4  1  0  0  0
  2  3  2  0  0  0
  4  5  1  0  0  0
  5  6  2  0  0  0
  5  7  1  0  0  0
  6  8  1  0  0  0
  7  9  2  0  0  0
  8 10  2  0  0  0
  9 10  1  0  0  0
 10 15  1  0  0  0
 11 12  1  0  0  0
 12 13  1  0  0  0
 12 45  1  0  0  0
 13 14  2  0  0  0
 45 47  1  0  0  0
 45 46  1  0  0  0
 47 48  1  0  0  0
 16 17  1  0  0  0
 17 18  1  0  0  0
 30 31  1  0  0  0
 24 22  1  0  0  0
  2 11  1  0  0  0
 13 16  1  0  0  0
 18 19  1  0  0  0
 15 19  1  0  0  0
 31 32  1  0  0  0
 26 27  1  0  0  0
 22 23  1  0  0  0
 11 20  1  0  0  0
 16 21  1  0  0  0
M  END
> <minimizedAffinity>
-9.40345

$$$$
1MTR_PI6_B_101


 48 50  0  0  0  0  0  0  0  0999 V2000
    7.9498   -5.5505   16.6148 C   0  0  0  0  0  0  0  0  0  0  0  0
    6.8265   -5.9160   17.5929 C   0  0  0  0  0  0  0  0  0  0  0  0
    6.8251   -5.4823   18.7508 O   0  0  0  0  0  0  0  0  0  0  0  0
    9.2374   -6.2686   17.0367 C   0  0  0  0  0  0  0  0  0  0  0  0
    8.9963   -7.6944   17.4595 C   0  0  0  0  0  0  0  0  0  0  0  0
    8.9790   -8.0373   18.8151 C   0  0  0  0  0  0  0  0  0  0  0  0
    8.6418   -8.6792   16.5189 C   0  0  0  0  0  0  0  0  0  0  0  0
    8.6052   -9.3046   19.2333 C   0  0  0  0  0  0  0  0  0  0  0  0
    8.2634   -9.9394   16.9258 C   0  0  0  0  0  0  0  0  0  0  0  0
    8.2403  -10.2461   18.2914 C   0  0  0  0  0  0  0  0  0  0  0  0
    5.8985   -6.7370   17.0990 N   0  0  0  0  0  0  0  0  0  0  0  0
    4.7559   -7.2924   17.8583 C   0  0  0  0  0  0  0  0  0  0  0  0
    4.6223   -8.6879   17.2429 C   0  0  0  0  0  0  0  0  0  0  0  0
    4.5178   -8.8290   16.0101 O   0  0  0  0  0  0  0  0  0  0  0  0
    7.8266  -11.4735   18.7653 O   0  0  0  0  0  0  0  0  0  0  0  0
    4.6638   -9.7058   18.0966 N   0  0  0  0  0  0  0  0  0  0  0  0
    4.5595  -11.0832   17.6477 C   0  0  0  0  0  0  0  0  0  0  0  0
    5.4522  -11.9689   18.5087 C   0  0  0  0  0  0  0  0  0  0  0  0
    6.8562  -12.0708   17.9256 C   0  0  0  0  0  0  0  0  0  0  0  0
    5.9804   -6.9946   16.1523 H   0  0  0  0  0  0  0  0  0  0  0  0
    4.7681   -9.5213   19.0580 H   0  0  0  0  0  0  0  0  0  0  0  0
    8.1832   -4.0974   16.3964 N   0  0  0  0  0  0  0  0  0  0  0  0
    9.1470   -3.9798   16.0839 H   0  0  0  0  0  0  0  0  0  0  0  0
    7.3104   -3.4461   15.4140 C   0  0  0  0  0  0  0  0  0  0  0  0
    6.1575   -2.8713   16.2246 C   0  0  0  0  0  0  0  0  0  0  0  0
    6.6805   -2.2185   17.3730 O   0  0  0  0  0  0  0  0  0  0  0  0
    7.2668   -1.4971   17.0960 H   0  0  0  0  0  0  0  0  0  0  0  0
    5.3739   -1.8583   15.4113 C   0  0  0  0  0  0  0  0  0  0  0  0
    4.9846    0.9199   15.4760 O   0  0  0  0  0  0  0  0  0  0  0  0
    6.0276    0.4627   14.9474 C   0  0  0  0  0  0  0  0  0  0  0  0
    6.2650   -0.8405   14.8550 N   0  0  0  0  0  0  0  0  0  0  0  0
    7.0805   -1.1360   14.3893 H   0  0  0  0  0  0  0  0  0  0  0  0
    6.9589    1.2305   14.3924 O   0  0  0  0  0  0  0  0  0  0  0  0
    6.9042    1.4527   12.9797 C   0  0  0  0  0  0  0  0  0  0  0  0
    7.8507    2.6119   12.6023 C   0  0  0  0  0  0  0  0  0  0  0  0
    7.2345    0.1834   12.2335 C   0  0  0  0  0  0  0  0  0  0  0  0
    5.4850    1.8363   12.6701 C   0  0  0  0  0  0  0  0  0  0  0  0
    4.6521   -2.5836   14.2964 C   0  0  0  0  0  0  0  0  0  0  0  0
    3.6301   -1.7664   13.6379 C   0  0  0  0  0  0  0  0  0  0  0  0
    3.7778   -1.3976   12.3051 C   0  0  0  0  0  0  0  0  0  0  0  0
    2.5553   -1.2817   14.3653 C   0  0  0  0  0  0  0  0  0  0  0  0
    2.8707   -0.5464   11.7083 C   0  0  0  0  0  0  0  0  0  0  0  0
    1.6460   -0.4297   13.7782 C   0  0  0  0  0  0  0  0  0  0  0  0
    1.8005   -0.0570   12.4507 C   0  0  0  0  0  0  0  0  0  0  0  0
    3.3963   -6.5857   17.6100 C   0  0  0  0  0  0  0  0  0  0  0  0
    2.9655   -5.8519   18.8788 C   0  0  0  0  0  0  0  0  0  0  0  0
    3.4621   -5.6112   16.4325 C   0  0  0  0  0  0  0  0  0  0  0  0
    2.3219   -4.6848   16.3855 C   0  0  0  0  0  0  0  0  0  0  0  0
 29 30  2  0  0  0
 30 33  1  0  0  0
 33 34  1  0  0  0
 34 35  1  0  0  0
 34 36  1  0  0  0
 34 37  1  0  0  0
 31 28  1  0  0  0
 28 25  1  0  0  0
 28 38  1  0  0  0
 25 26  1  0  0  0
 25 24  1  0  0  0
 38 39  1  0  0  0
 39 40  2  0  0  0
 39 41  1  0  0  0
 40 42  1  0  0  0
 41 43  2  0  0  0
 42 44  2  0  0  0
 43 44  1  0  0  0
 22  1  1  0  0  0
  1  2  1  0  0  0
  1  4  1  0  0  0
  2  3  2  0  0  0
  4  5  1  0  0  0
  5  6  2  0  0  0
  5  7  1  0  0  0
  6  8  1  0  0  0
  7  9  2  0  0  0
  8 10  2  0  0  0
  9 10  1  0  0  0
 10 15  1  0  0  0
 11 12  1  0  0  0
 12 13  1  0  0  0
 12 45  1  0  0  0
 13 14  2  0  0  0
 45 47  1  0  0  0
 45 46  1  0  0  0
 47 48  1  0  0  0
 16 17  1  0  0  0
 17 18  1  0  0  0
 30 31  1  0  0  0
 24 22  1  0  0  0
  2 11  1  0  0  0
 13 16  1  0  0  0
 18 19  1  0  0  0
 15 19  1  0  0  0
 31 32  1  0  0  0
 26 27  1  0  0  0
 22 23  1  0  0  0
 11 20  1  0  0  0
 16 21  1  0  0  0
M  END
> <minimizedAffinity>
-8.68534

$$$$
1MTR_PI6_B_101


 48 50  0  0  0  0  0  0  0  0999 V2000
    7.8670   -5.6211   16.9874 C   0  0  0  0  0  0  0  0  0  0  0  0
    6.7305   -6.1174   17.8896 C   0  0  0  0  0  0  0  0  0  0  0  0
    6.6806   -5.7989   19.0833 O   0  0  0  0  0  0  0  0  0  0  0  0
    9.1675   -6.3334   17.3787 C   0  0  0  0  0  0  0  0  0  0  0  0
    8.9664   -7.8009   17.6542 C   0  0  0  0  0  0  0  0  0  0  0  0
    8.9232   -8.2747   18.9692 C   0  0  0  0  0  0  0  0  0  0  0  0
    8.6746   -8.7006   16.6123 C   0  0  0  0  0  0  0  0  0  0  0  0
    8.5840   -9.5885   19.2512 C   0  0  0  0  0  0  0  0  0  0  0  0
    8.3309  -10.0065   16.8836 C   0  0  0  0  0  0  0  0  0  0  0  0
    8.2804  -10.4453   18.2119 C   0  0  0  0  0  0  0  0  0  0  0  0
    5.8474   -6.9169   17.2897 N   0  0  0  0  0  0  0  0  0  0  0  0
    4.7046   -7.5815   17.9554 C   0  0  0  0  0  0  0  0  0  0  0  0
    4.6392   -8.9141   17.2043 C   0  0  0  0  0  0  0  0  0  0  0  0
    4.5749   -8.9378   15.9610 O   0  0  0  0  0  0  0  0  0  0  0  0
    7.8983  -11.7262   18.5520 O   0  0  0  0  0  0  0  0  0  0  0  0
    4.6935  -10.0083   17.9568 N   0  0  0  0  0  0  0  0  0  0  0  0
    4.6520  -11.3382   17.3741 C   0  0  0  0  0  0  0  0  0  0  0  0
    5.5516  -12.2732   18.1736 C   0  0  0  0  0  0  0  0  0  0  0  0
    6.9743  -12.2709   17.6282 C   0  0  0  0  0  0  0  0  0  0  0  0
    5.9652   -7.0782   16.3257 H   0  0  0  0  0  0  0  0  0  0  0  0
    4.7637   -9.9151   18.9344 H   0  0  0  0  0  0  0  0  0  0  0  0
    8.0537   -4.1466   16.9176 N   0  0  0  0  0  0  0  0  0  0  0  0
    8.7257   -3.9520   16.1754 H   0  0  0  0  0  0  0  0  0  0  0  0
    6.8470   -3.3574   16.6485 C   0  0  0  0  0  0  0  0  0  0  0  0
    6.4300   -3.7367   15.2347 C   0  0  0  0  0  0  0  0  0  0  0  0
    5.1724   -4.3960   15.2851 O   0  0  0  0  0  0  0  0  0  0  0  0
    4.5090   -3.7984   15.6642 H   0  0  0  0  0  0  0  0  0  0  0  0
    6.2917   -2.5046   14.3604 C   0  0  0  0  0  0  0  0  0  0  0  0
    4.7043   -2.3024   12.0554 O   0  0  0  0  0  0  0  0  0  0  0  0
    4.1989   -2.0226   13.1701 C   0  0  0  0  0  0  0  0  0  0  0  0
    4.8973   -2.0676   14.2985 N   0  0  0  0  0  0  0  0  0  0  0  0
    4.4549   -1.7935   15.1342 H   0  0  0  0  0  0  0  0  0  0  0  0
    2.9441   -1.6118   13.3177 O   0  0  0  0  0  0  0  0  0  0  0  0
    2.6231   -0.2638   12.9602 C   0  0  0  0  0  0  0  0  0  0  0  0
    3.7243    0.6844   13.4799 C   0  0  0  0  0  0  0  0  0  0  0  0
    2.4295   -0.1463   11.4683 C   0  0  0  0  0  0  0  0  0  0  0  0
    1.3208    0.0516   13.6397 C   0  0  0  0  0  0  0  0  0  0  0  0
    7.1574   -1.4030   14.9324 C   0  0  0  0  0  0  0  0  0  0  0  0
    7.2886   -0.2463   14.0431 C   0  0  0  0  0  0  0  0  0  0  0  0
    7.4440   -0.4285   12.6731 C   0  0  0  0  0  0  0  0  0  0  0  0
    7.3486    1.0323   14.5729 C   0  0  0  0  0  0  0  0  0  0  0  0
    7.6681    0.6506   11.8431 C   0  0  0  0  0  0  0  0  0  0  0  0
    7.5741    2.1152   13.7521 C   0  0  0  0  0  0  0  0  0  0  0  0
    7.7370    1.9295   12.3867 C   0  0  0  0  0  0  0  0  0  0  0  0
    3.3278   -6.8998   17.7334 C   0  0  0  0  0  0  0  0  0  0  0  0
    2.2118   -7.8772   18.0982 C   0  0  0  0  0  0  0  0  0  0  0  0
    3.1875   -5.6108   18.5453 C   0  0  0  0  0  0  0  0  0  0  0  0
    2.8880   -4.4354   17.7152 C   0  0  0  0  0  0  0  0  0  0  0  0
 29 30  2  0  0  0
 30 33  1  0  0  0
 33 34  1  0  0  0
 34 35  1  0  0  0
 34 36  1  0  0  0
 34 37  1  0  0  0
 31 28  1  0  0  0
 28 25  1  0  0  0
 28 38  1  0  0  0
 25 26  1  0  0  0
 25 24  1  0  0  0
 38 39  1  0  0  0
 39 40  2  0  0  0
 39 41  1  0  0  0
 40 42  1  0  0  0
 41 43  2  0  0  0
 42 44  2  0  0  0
 43 44  1  0  0  0
 22  1  1  0  0  0
  1  2  1  0  0  0
  1  4  1  0  0  0
  2  3  2  0  0  0
  4  5  1  0  0  0
  5  6  2  0  0  0
  5  7  1  0  0  0
  6  8  1  0  0  0
  7  9  2  0  0  0
  8 10  2  0  0  0
  9 10  1  0  0  0
 10 15  1  0  0  0
 11 12  1  0  0  0
 12 13  1  0  0  0
 12 45  1  0  0  0
 13 14  2  0  0  0
 45 47  1  0  0  0
 45 46  1  0  0  0
 47 48  1  0  0  0
 16 17  1  0  0  0
 17 18  1  0  0  0
 30 31  1  0  0  0
 24 22  1  0  0  0
  2 11  1  0  0  0
 13 16  1  0  0  0
 18 19  1  0  0  0
 15 19  1  0  0  0
 31 32  1  0  0  0
 26 27  1  0  0  0
 22 23  1  0  0  0
 11 20  1  0  0  0
 16 21  1  0  0  0
M  END
> <minimizedAffinity>
-8.41042

$$$$
