4KNN_E1F_B_302


 23 24  0  0  0  0  0  0  0  0999 V2000
   -7.4797   -0.9435   18.4490 C   0  0  0  0  0  0  0  0  0  0  0  0
   -6.9477   -3.4326   18.7264 C   0  0  0  0  0  0  0  0  0  0  0  0
   -6.9059   -4.8797   19.7830 Cl  0  0  0  0  0  0  0  0  0  0  0  0
   -7.4202   -2.1392   19.2224 C   0  0  0  0  0  0  0  0  0  0  0  0
   -7.0689   -1.0893   17.0980 C   0  0  0  0  0  0  0  0  0  0  0  0
   -6.6123   -2.3371   16.5947 C   0  0  0  0  0  0  0  0  0  0  0  0
   -6.5499   -3.5017   17.3671 C   0  0  0  0  0  0  0  0  0  0  0  0
   -4.9574   -5.8019   17.6675 O   0  0  0  0  0  0  0  0  0  0  0  0
   -5.9653   -5.0534   16.6798 S   0  0  0  0  0  0  0  0  0  0  0  0
   -5.0873   -4.6590   15.2909 N   0  0  0  0  0  0  0  0  0  0  0  0
   -7.1923   -5.7757   16.3489 O   0  0  0  0  0  0  0  0  0  0  0  0
   -5.6958   -4.1768   14.6294 H   0  0  0  0  0  0  0  0  0  0  0  0
   -4.7275   -5.5119   14.8624 H   0  0  0  0  0  0  0  0  0  0  0  0
   -7.9537    0.3994   18.8986 C   0  0  0  0  0  0  0  0  0  0  0  0
   -8.3019    0.6054   20.1157 O   0  0  0  0  0  0  0  0  0  0  0  0
   -8.0875    1.4854   17.8423 C   0  0  0  0  0  0  0  0  0  0  0  0
   -9.6529    2.1017   17.0506 S   0  0  0  0  0  0  0  0  0  0  0  0
   -8.4069    0.4380   13.6149 C   0  0  0  0  0  0  0  0  0  0  0  0
   -8.7223    1.6873   15.5813 C   0  0  0  0  0  0  0  0  0  0  0  0
   -7.5323    2.3536   15.2935 N   0  0  0  0  0  0  0  0  0  0  0  0
   -6.7603    2.0960   14.2272 C   0  0  0  0  0  0  0  0  0  0  0  0
   -7.2109    1.1149   13.3318 C   0  0  0  0  0  0  0  0  0  0  0  0
   -9.1600    0.7147   14.7314 N   0  0  0  0  0  0  0  0  0  0  0  0
 17 19  1  0  0  0
 17 16  1  0  0  0
 20 19  2  0  0  0
 20 21  1  0  0  0
 19 23  1  0  0  0
 16 14  1  0  0  0
 15 14  2  0  0  0
 21 22  2  0  0  0
 14  1  1  0  0  0
  5  1  2  0  0  0
  5  6  1  0  0  0
  1  4  1  0  0  0
 23 18  2  0  0  0
 22 18  1  0  0  0
  6  7  2  0  0  0
  4  2  2  0  0  0
  7  2  1  0  0  0
  7  9  1  0  0  0
  2  3  1  0  0  0
 10  9  1  0  0  0
 11  9  2  0  0  0
  9  8  2  0  0  0
 10 12  1  0  0  0
 10 13  1  0  0  0
M  END
> <minimizedAffinity>
-8.33457

$$$$
4KNN_E1F_B_302


 23 24  0  0  0  0  0  0  0  0999 V2000
   -7.3977   -0.9697   18.4751 C   0  0  0  0  0  0  0  0  0  0  0  0
   -6.3848   -2.4305   16.6324 C   0  0  0  0  0  0  0  0  0  0  0  0
   -5.7536   -2.5653   14.9603 Cl  0  0  0  0  0  0  0  0  0  0  0  0
   -6.8772   -1.1579   17.1617 C   0  0  0  0  0  0  0  0  0  0  0  0
   -7.3802   -2.1301   19.2925 C   0  0  0  0  0  0  0  0  0  0  0  0
   -6.9011   -3.3739   18.8004 C   0  0  0  0  0  0  0  0  0  0  0  0
   -6.4011   -3.5477   17.5056 C   0  0  0  0  0  0  0  0  0  0  0  0
   -4.6656   -4.9933   15.8277 O   0  0  0  0  0  0  0  0  0  0  0  0
   -5.8070   -5.1425   16.9352 S   0  0  0  0  0  0  0  0  0  0  0  0
   -7.1191   -5.9003   16.1869 N   0  0  0  0  0  0  0  0  0  0  0  0
   -5.4207   -5.8336   18.1639 O   0  0  0  0  0  0  0  0  0  0  0  0
   -7.8750   -6.0161   16.8619 H   0  0  0  0  0  0  0  0  0  0  0  0
   -6.8306   -6.8148   15.8393 H   0  0  0  0  0  0  0  0  0  0  0  0
   -7.9098    0.3012   19.0693 C   0  0  0  0  0  0  0  0  0  0  0  0
   -8.2530    0.3639   20.3035 O   0  0  0  0  0  0  0  0  0  0  0  0
   -8.0874    1.4895   18.1369 C   0  0  0  0  0  0  0  0  0  0  0  0
   -9.6697    2.0950   17.3709 S   0  0  0  0  0  0  0  0  0  0  0  0
   -8.5192    0.2079   14.0183 C   0  0  0  0  0  0  0  0  0  0  0  0
   -8.7955    1.6015   15.8915 C   0  0  0  0  0  0  0  0  0  0  0  0
   -7.6556    2.2939   15.4862 N   0  0  0  0  0  0  0  0  0  0  0  0
   -6.9269    1.9830   14.4038 C   0  0  0  0  0  0  0  0  0  0  0  0
   -7.3737    0.9115   13.6166 C   0  0  0  0  0  0  0  0  0  0  0  0
   -9.2275    0.5428   15.1482 N   0  0  0  0  0  0  0  0  0  0  0  0
 17 19  1  0  0  0
 17 16  1  0  0  0
 20 19  2  0  0  0
 20 21  1  0  0  0
 19 23  1  0  0  0
 16 14  1  0  0  0
 15 14  2  0  0  0
 21 22  2  0  0  0
 14  1  1  0  0  0
  5  1  2  0  0  0
  5  6  1  0  0  0
  1  4  1  0  0  0
 23 18  2  0  0  0
 22 18  1  0  0  0
  6  7  2  0  0  0
  4  2  2  0  0  0
  7  2  1  0  0  0
  7  9  1  0  0  0
  2  3  1  0  0  0
 10  9  1  0  0  0
 11  9  2  0  0  0
  9  8  2  0  0  0
 10 12  1  0  0  0
 10 13  1  0  0  0
M  END
> <minimizedAffinity>
-7.91538

$$$$
4KNN_E1F_B_302


 23 24  0  0  0  0  0  0  0  0999 V2000
   -7.3417   -1.0340   18.7257 C   0  0  0  0  0  0  0  0  0  0  0  0
   -6.8850   -3.5499   18.8580 C   0  0  0  0  0  0  0  0  0  0  0  0
   -6.8693   -5.0528   19.8345 Cl  0  0  0  0  0  0  0  0  0  0  0  0
   -7.3057   -2.2712   19.4325 C   0  0  0  0  0  0  0  0  0  0  0  0
   -6.9624   -1.1191   17.3604 C   0  0  0  0  0  0  0  0  0  0  0  0
   -6.5563   -2.3514   16.7813 C   0  0  0  0  0  0  0  0  0  0  0  0
   -6.5165   -3.5576   17.4887 C   0  0  0  0  0  0  0  0  0  0  0  0
   -4.9879   -5.9158   17.6285 O   0  0  0  0  0  0  0  0  0  0  0  0
   -5.9959   -5.0873   16.7070 S   0  0  0  0  0  0  0  0  0  0  0  0
   -5.1397   -4.6458   15.3186 N   0  0  0  0  0  0  0  0  0  0  0  0
   -7.2518   -5.7551   16.3703 O   0  0  0  0  0  0  0  0  0  0  0  0
   -5.7490   -4.1119   14.6988 H   0  0  0  0  0  0  0  0  0  0  0  0
   -4.8164   -5.4851   14.8373 H   0  0  0  0  0  0  0  0  0  0  0  0
   -7.7632    0.2967   19.2565 C   0  0  0  0  0  0  0  0  0  0  0  0
   -7.5565    0.6167   20.4812 O   0  0  0  0  0  0  0  0  0  0  0  0
   -8.5198    1.2198   18.3140 C   0  0  0  0  0  0  0  0  0  0  0  0
   -8.7807    3.0515   18.4979 S   0  0  0  0  0  0  0  0  0  0  0  0
  -12.1360    1.6976   20.2394 C   0  0  0  0  0  0  0  0  0  0  0  0
  -10.4480    2.4837   18.8042 C   0  0  0  0  0  0  0  0  0  0  0  0
  -11.3631    2.3967   17.7563 N   0  0  0  0  0  0  0  0  0  0  0  0
  -12.6259    1.9640   17.8890 C   0  0  0  0  0  0  0  0  0  0  0  0
  -13.0513    1.6147   19.1791 C   0  0  0  0  0  0  0  0  0  0  0  0
  -10.8416    2.1247   20.0596 N   0  0  0  0  0  0  0  0  0  0  0  0
 17 19  1  0  0  0
 17 16  1  0  0  0
 20 19  2  0  0  0
 20 21  1  0  0  0
 19 23  1  0  0  0
 16 14  1  0  0  0
 15 14  2  0  0  0
 21 22  2  0  0  0
 14  1  1  0  0  0
  5  1  2  0  0  0
  5  6  1  0  0  0
  1  4  1  0  0  0
 23 18  2  0  0  0
 22 18  1  0  0  0
  6  7  2  0  0  0
  4  2  2  0  0  0
  7  2  1  0  0  0
  7  9  1  0  0  0
  2  3  1  0  0  0
 10  9  1  0  0  0
 11  9  2  0  0  0
  9  8  2  0  0  0
 10 12  1  0  0  0
 10 13  1  0  0  0
M  END
> <minimizedAffinity>
-7.24875

$$$$
4KNN_E1F_B_302


 23 24  0  0  0  0  0  0  0  0999 V2000
   -7.5726   -0.9933   18.4488 C   0  0  0  0  0  0  0  0  0  0  0  0
   -6.9474   -3.4612   18.7208 C   0  0  0  0  0  0  0  0  0  0  0  0
   -6.8318   -4.9026   19.7798 Cl  0  0  0  0  0  0  0  0  0  0  0  0
   -7.4542   -2.1836   19.2238 C   0  0  0  0  0  0  0  0  0  0  0  0
   -7.1865   -1.1290   17.0895 C   0  0  0  0  0  0  0  0  0  0  0  0
   -6.6974   -2.3616   16.5794 C   0  0  0  0  0  0  0  0  0  0  0  0
   -6.5773   -3.5208   17.3532 C   0  0  0  0  0  0  0  0  0  0  0  0
   -4.9527   -5.7983   17.6545 O   0  0  0  0  0  0  0  0  0  0  0  0
   -5.9536   -5.0533   16.6572 S   0  0  0  0  0  0  0  0  0  0  0  0
   -5.0555   -4.6257   15.2911 N   0  0  0  0  0  0  0  0  0  0  0  0
   -7.1617   -5.7911   16.2927 O   0  0  0  0  0  0  0  0  0  0  0  0
   -5.6590   -4.1447   14.6242 H   0  0  0  0  0  0  0  0  0  0  0  0
   -4.6733   -5.4667   14.8586 H   0  0  0  0  0  0  0  0  0  0  0  0
   -8.0837    0.3337   18.9054 C   0  0  0  0  0  0  0  0  0  0  0  0
   -9.1307    0.8562   18.3804 O   0  0  0  0  0  0  0  0  0  0  0  0
   -7.2687    1.0761   19.9531 C   0  0  0  0  0  0  0  0  0  0  0  0
   -6.1054    2.4998   19.6761 S   0  0  0  0  0  0  0  0  0  0  0  0
   -5.5901    0.6990   23.2280 C   0  0  0  0  0  0  0  0  0  0  0  0
   -5.7571    2.1646   21.3973 C   0  0  0  0  0  0  0  0  0  0  0  0
   -5.3688    3.1978   22.2487 N   0  0  0  0  0  0  0  0  0  0  0  0
   -5.1070    3.0431   23.5552 C   0  0  0  0  0  0  0  0  0  0  0  0
   -5.1980    1.7445   24.0776 C   0  0  0  0  0  0  0  0  0  0  0  0
   -5.8724    0.9012   21.8977 N   0  0  0  0  0  0  0  0  0  0  0  0
 17 19  1  0  0  0
 17 16  1  0  0  0
 20 19  2  0  0  0
 20 21  1  0  0  0
 19 23  1  0  0  0
 16 14  1  0  0  0
 15 14  2  0  0  0
 21 22  2  0  0  0
 14  1  1  0  0  0
  5  1  2  0  0  0
  5  6  1  0  0  0
  1  4  1  0  0  0
 23 18  2  0  0  0
 22 18  1  0  0  0
  6  7  2  0  0  0
  4  2  2  0  0  0
  7  2  1  0  0  0
  7  9  1  0  0  0
  2  3  1  0  0  0
 10  9  1  0  0  0
 11  9  2  0  0  0
  9  8  2  0  0  0
 10 12  1  0  0  0
 10 13  1  0  0  0
M  END
> <minimizedAffinity>
-7.24203

$$$$
4KNN_E1F_B_302


 23 24  0  0  0  0  0  0  0  0999 V2000
   -7.5661   -1.1106   18.7142 C   0  0  0  0  0  0  0  0  0  0  0  0
   -6.9412   -3.5912   18.8226 C   0  0  0  0  0  0  0  0  0  0  0  0
   -6.8402   -5.1032   19.7797 Cl  0  0  0  0  0  0  0  0  0  0  0  0
   -7.4583   -2.3523   19.4055 C   0  0  0  0  0  0  0  0  0  0  0  0
   -7.1578   -1.1504   17.3552 C   0  0  0  0  0  0  0  0  0  0  0  0
   -6.6583   -2.3440   16.7679 C   0  0  0  0  0  0  0  0  0  0  0  0
   -6.5488   -3.5545   17.4604 C   0  0  0  0  0  0  0  0  0  0  0  0
   -4.8654   -5.8049   17.5982 O   0  0  0  0  0  0  0  0  0  0  0  0
   -5.9112   -5.0340   16.6689 S   0  0  0  0  0  0  0  0  0  0  0  0
   -5.0627   -4.5158   15.3024 N   0  0  0  0  0  0  0  0  0  0  0  0
   -7.1124   -5.7809   16.3004 O   0  0  0  0  0  0  0  0  0  0  0  0
   -5.6960   -4.0159   14.6783 H   0  0  0  0  0  0  0  0  0  0  0  0
   -4.6744   -5.3242   14.8165 H   0  0  0  0  0  0  0  0  0  0  0  0
   -8.0868    0.1807   19.2542 C   0  0  0  0  0  0  0  0  0  0  0  0
   -9.2759    0.2694   19.7266 O   0  0  0  0  0  0  0  0  0  0  0  0
   -7.1856    1.4008   19.1443 C   0  0  0  0  0  0  0  0  0  0  0  0
   -6.2048    2.2043   20.5043 S   0  0  0  0  0  0  0  0  0  0  0  0
   -5.7518    3.8338   16.8623 C   0  0  0  0  0  0  0  0  0  0  0  0
   -5.7699    3.2854   19.1484 C   0  0  0  0  0  0  0  0  0  0  0  0
   -5.0717    4.4675   19.3897 N   0  0  0  0  0  0  0  0  0  0  0  0
   -4.6872    5.3271   18.4345 C   0  0  0  0  0  0  0  0  0  0  0  0
   -5.0505    5.0227   17.1144 C   0  0  0  0  0  0  0  0  0  0  0  0
   -6.1088    2.9655   17.8667 N   0  0  0  0  0  0  0  0  0  0  0  0
 17 19  1  0  0  0
 17 16  1  0  0  0
 20 19  2  0  0  0
 20 21  1  0  0  0
 19 23  1  0  0  0
 16 14  1  0  0  0
 15 14  2  0  0  0
 21 22  2  0  0  0
 14  1  1  0  0  0
  5  1  2  0  0  0
  5  6  1  0  0  0
  1  4  1  0  0  0
 23 18  2  0  0  0
 22 18  1  0  0  0
  6  7  2  0  0  0
  4  2  2  0  0  0
  7  2  1  0  0  0
  7  9  1  0  0  0
  2  3  1  0  0  0
 10  9  1  0  0  0
 11  9  2  0  0  0
  9  8  2  0  0  0
 10 12  1  0  0  0
 10 13  1  0  0  0
M  END
> <minimizedAffinity>
-7.00603

$$$$
4KNN_E1F_B_302


 23 24  0  0  0  0  0  0  0  0999 V2000
   -7.8284   -1.0937   18.9583 C   0  0  0  0  0  0  0  0  0  0  0  0
   -6.7924   -2.1066   16.8473 C   0  0  0  0  0  0  0  0  0  0  0  0
   -6.2916   -1.9010   15.1387 Cl  0  0  0  0  0  0  0  0  0  0  0  0
   -7.3999   -1.0093   17.6016 C   0  0  0  0  0  0  0  0  0  0  0  0
   -7.5917   -2.3484   19.5786 C   0  0  0  0  0  0  0  0  0  0  0  0
   -6.9979   -3.4250   18.8664 C   0  0  0  0  0  0  0  0  0  0  0  0
   -6.5900   -3.3321   17.5315 C   0  0  0  0  0  0  0  0  0  0  0  0
   -6.9148   -5.5458   15.8254 O   0  0  0  0  0  0  0  0  0  0  0  0
   -5.8436   -4.7243   16.6793 S   0  0  0  0  0  0  0  0  0  0  0  0
   -5.2709   -5.7668   17.8796 N   0  0  0  0  0  0  0  0  0  0  0  0
   -4.7451   -4.1257   15.9232 O   0  0  0  0  0  0  0  0  0  0  0  0
   -4.5805   -5.2803   18.4515 H   0  0  0  0  0  0  0  0  0  0  0  0
   -4.8384   -6.5816   17.4443 H   0  0  0  0  0  0  0  0  0  0  0  0
   -8.4497   -0.0106   19.7775 C   0  0  0  0  0  0  0  0  0  0  0  0
   -9.7235    0.1262   19.8377 O   0  0  0  0  0  0  0  0  0  0  0  0
   -7.5146    0.9715   20.4661 C   0  0  0  0  0  0  0  0  0  0  0  0
   -6.2656    2.0910   19.6639 S   0  0  0  0  0  0  0  0  0  0  0  0
   -5.0154    3.4610   23.2254 C   0  0  0  0  0  0  0  0  0  0  0  0
   -5.7227    2.2128   21.3629 C   0  0  0  0  0  0  0  0  0  0  0  0
   -5.5914    1.0641   22.1415 N   0  0  0  0  0  0  0  0  0  0  0  0
   -5.1730    1.0581   23.4159 C   0  0  0  0  0  0  0  0  0  0  0  0
   -4.8876    2.2998   24.0026 C   0  0  0  0  0  0  0  0  0  0  0  0
   -5.4259    3.4245   21.9137 N   0  0  0  0  0  0  0  0  0  0  0  0
 17 19  1  0  0  0
 17 16  1  0  0  0
 20 19  2  0  0  0
 20 21  1  0  0  0
 19 23  1  0  0  0
 16 14  1  0  0  0
 15 14  2  0  0  0
 21 22  2  0  0  0
 14  1  1  0  0  0
  5  1  2  0  0  0
  5  6  1  0  0  0
  1  4  1  0  0  0
 23 18  2  0  0  0
 22 18  1  0  0  0
  6  7  2  0  0  0
  4  2  2  0  0  0
  7  2  1  0  0  0
  7  9  1  0  0  0
  2  3  1  0  0  0
 10  9  1  0  0  0
 11  9  2  0  0  0
  9  8  2  0  0  0
 10 12  1  0  0  0
 10 13  1  0  0  0
M  END
> <minimizedAffinity>
-6.72143

$$$$
4KNN_E1F_B_302


 23 24  0  0  0  0  0  0  0  0999 V2000
   -7.3998   -0.9365   18.4108 C   0  0  0  0  0  0  0  0  0  0  0  0
   -6.9320   -3.4372   18.6989 C   0  0  0  0  0  0  0  0  0  0  0  0
   -6.9278   -4.8805   19.7615 Cl  0  0  0  0  0  0  0  0  0  0  0  0
   -7.3714   -2.1301   19.1892 C   0  0  0  0  0  0  0  0  0  0  0  0
   -6.9923   -1.0984   17.0607 C   0  0  0  0  0  0  0  0  0  0  0  0
   -6.5676   -2.3596   16.5628 C   0  0  0  0  0  0  0  0  0  0  0  0
   -6.5355   -3.5222   17.3400 C   0  0  0  0  0  0  0  0  0  0  0  0
   -5.0062   -5.8632   17.6529 O   0  0  0  0  0  0  0  0  0  0  0  0
   -5.9905   -5.0913   16.6596 S   0  0  0  0  0  0  0  0  0  0  0  0
   -5.0980   -4.7250   15.2722 N   0  0  0  0  0  0  0  0  0  0  0  0
   -7.2354   -5.7815   16.3271 O   0  0  0  0  0  0  0  0  0  0  0  0
   -5.6913   -4.2289   14.6073 H   0  0  0  0  0  0  0  0  0  0  0  0
   -4.7599   -5.5886   14.8476 H   0  0  0  0  0  0  0  0  0  0  0  0
   -7.8395    0.4200   18.8545 C   0  0  0  0  0  0  0  0  0  0  0  0
   -8.1648    0.6444   20.0746 O   0  0  0  0  0  0  0  0  0  0  0  0
   -7.9670    1.4987   17.7900 C   0  0  0  0  0  0  0  0  0  0  0  0
   -9.4116    1.8018   16.6593 S   0  0  0  0  0  0  0  0  0  0  0  0
   -8.6076    5.3330   18.3939 C   0  0  0  0  0  0  0  0  0  0  0  0
   -8.9157    3.4922   16.9643 C   0  0  0  0  0  0  0  0  0  0  0  0
   -8.4370    4.2822   15.9204 N   0  0  0  0  0  0  0  0  0  0  0  0
   -8.0617    5.5633   16.0522 C   0  0  0  0  0  0  0  0  0  0  0  0
   -8.1252    6.1206   17.3377 C   0  0  0  0  0  0  0  0  0  0  0  0
   -9.0049    4.0290   18.2148 N   0  0  0  0  0  0  0  0  0  0  0  0
 17 19  1  0  0  0
 17 16  1  0  0  0
 20 19  2  0  0  0
 20 21  1  0  0  0
 19 23  1  0  0  0
 16 14  1  0  0  0
 15 14  2  0  0  0
 21 22  2  0  0  0
 14  1  1  0  0  0
  5  1  2  0  0  0
  5  6  1  0  0  0
  1  4  1  0  0  0
 23 18  2  0  0  0
 22 18  1  0  0  0
  6  7  2  0  0  0
  4  2  2  0  0  0
  7  2  1  0  0  0
  7  9  1  0  0  0
  2  3  1  0  0  0
 10  9  1  0  0  0
 11  9  2  0  0  0
  9  8  2  0  0  0
 10 12  1  0  0  0
 10 13  1  0  0  0
M  END
> <minimizedAffinity>
-6.65328

$$$$
4KNN_E1F_B_302


 23 24  0  0  0  0  0  0  0  0999 V2000
   -7.4009   -0.8076   18.1669 C   0  0  0  0  0  0  0  0  0  0  0  0
   -6.9443   -3.2912   18.5894 C   0  0  0  0  0  0  0  0  0  0  0  0
   -6.9454   -4.6750   19.7285 Cl  0  0  0  0  0  0  0  0  0  0  0  0
   -7.3770   -1.9574   19.0087 C   0  0  0  0  0  0  0  0  0  0  0  0
   -6.9960   -1.0442   16.8270 C   0  0  0  0  0  0  0  0  0  0  0  0
   -6.5779   -2.3325   16.3976 C   0  0  0  0  0  0  0  0  0  0  0  0
   -6.5501   -3.4515   17.2366 C   0  0  0  0  0  0  0  0  0  0  0  0
   -5.0396   -5.7839   17.6786 O   0  0  0  0  0  0  0  0  0  0  0  0
   -6.0134   -5.0576   16.6415 S   0  0  0  0  0  0  0  0  0  0  0  0
   -5.1114   -4.7703   15.2416 N   0  0  0  0  0  0  0  0  0  0  0  0
   -7.2617   -5.7553   16.3387 O   0  0  0  0  0  0  0  0  0  0  0  0
   -5.6978   -4.3051   14.5488 H   0  0  0  0  0  0  0  0  0  0  0  0
   -4.7776   -5.6572   14.8643 H   0  0  0  0  0  0  0  0  0  0  0  0
   -7.8337    0.5730   18.5371 C   0  0  0  0  0  0  0  0  0  0  0  0
   -7.3667    1.5995   17.9261 O   0  0  0  0  0  0  0  0  0  0  0  0
   -8.7809    0.7178   19.7181 C   0  0  0  0  0  0  0  0  0  0  0  0
  -10.5279    1.3536   19.6910 S   0  0  0  0  0  0  0  0  0  0  0  0
   -8.0804    3.3017   22.2087 C   0  0  0  0  0  0  0  0  0  0  0  0
   -9.8737    2.3450   21.0272 C   0  0  0  0  0  0  0  0  0  0  0  0
  -10.7359    2.9376   21.9483 N   0  0  0  0  0  0  0  0  0  0  0  0
  -10.3343    3.6796   22.9911 C   0  0  0  0  0  0  0  0  0  0  0  0
   -8.9555    3.8960   23.1305 C   0  0  0  0  0  0  0  0  0  0  0  0
   -8.5293    2.5279   21.1647 N   0  0  0  0  0  0  0  0  0  0  0  0
 17 19  1  0  0  0
 17 16  1  0  0  0
 20 19  2  0  0  0
 20 21  1  0  0  0
 19 23  1  0  0  0
 16 14  1  0  0  0
 15 14  2  0  0  0
 21 22  2  0  0  0
 14  1  1  0  0  0
  5  1  2  0  0  0
  5  6  1  0  0  0
  1  4  1  0  0  0
 23 18  2  0  0  0
 22 18  1  0  0  0
  6  7  2  0  0  0
  4  2  2  0  0  0
  7  2  1  0  0  0
  7  9  1  0  0  0
  2  3  1  0  0  0
 10  9  1  0  0  0
 11  9  2  0  0  0
  9  8  2  0  0  0
 10 12  1  0  0  0
 10 13  1  0  0  0
M  END
> <minimizedAffinity>
-6.54847

$$$$
4KNN_E1F_B_302


 23 24  0  0  0  0  0  0  0  0999 V2000
   -7.4503   -1.1794   18.7893 C   0  0  0  0  0  0  0  0  0  0  0  0
   -6.4483   -2.4434   16.8009 C   0  0  0  0  0  0  0  0  0  0  0  0
   -5.8685   -2.4154   15.1052 Cl  0  0  0  0  0  0  0  0  0  0  0  0
   -6.9673   -1.2385   17.4497 C   0  0  0  0  0  0  0  0  0  0  0  0
   -7.3650   -2.4021   19.5056 C   0  0  0  0  0  0  0  0  0  0  0  0
   -6.8591   -3.5819   18.8966 C   0  0  0  0  0  0  0  0  0  0  0  0
   -6.3964   -3.6289   17.5773 C   0  0  0  0  0  0  0  0  0  0  0  0
   -4.6872   -4.8634   15.7141 O   0  0  0  0  0  0  0  0  0  0  0  0
   -5.7659   -5.1475   16.8574 S   0  0  0  0  0  0  0  0  0  0  0  0
   -7.0808   -5.9040   16.1129 N   0  0  0  0  0  0  0  0  0  0  0  0
   -5.2918   -5.9122   18.0094 O   0  0  0  0  0  0  0  0  0  0  0  0
   -7.7974   -6.1046   16.8105 H   0  0  0  0  0  0  0  0  0  0  0  0
   -6.7724   -6.7756   15.6820 H   0  0  0  0  0  0  0  0  0  0  0  0
   -7.9867    0.0176   19.5033 C   0  0  0  0  0  0  0  0  0  0  0  0
   -9.2494    0.1986   19.6361 O   0  0  0  0  0  0  0  0  0  0  0  0
   -6.9832    1.0516   19.9900 C   0  0  0  0  0  0  0  0  0  0  0  0
   -6.4362    1.3551   21.7409 S   0  0  0  0  0  0  0  0  0  0  0  0
   -5.4646    4.2258   19.1066 C   0  0  0  0  0  0  0  0  0  0  0  0
   -5.8681    2.8734   20.9868 C   0  0  0  0  0  0  0  0  0  0  0  0
   -5.3673    3.9054   21.7786 N   0  0  0  0  0  0  0  0  0  0  0  0
   -4.9020    5.0687   21.2993 C   0  0  0  0  0  0  0  0  0  0  0  0
   -4.9636    5.2604   19.9112 C   0  0  0  0  0  0  0  0  0  0  0  0
   -5.9118    3.0373   19.6336 N   0  0  0  0  0  0  0  0  0  0  0  0
 17 19  1  0  0  0
 17 16  1  0  0  0
 20 19  2  0  0  0
 20 21  1  0  0  0
 19 23  1  0  0  0
 16 14  1  0  0  0
 15 14  2  0  0  0
 21 22  2  0  0  0
 14  1  1  0  0  0
  5  1  2  0  0  0
  5  6  1  0  0  0
  1  4  1  0  0  0
 23 18  2  0  0  0
 22 18  1  0  0  0
  6  7  2  0  0  0
  4  2  2  0  0  0
  7  2  1  0  0  0
  7  9  1  0  0  0
  2  3  1  0  0  0
 10  9  1  0  0  0
 11  9  2  0  0  0
  9  8  2  0  0  0
 10 12  1  0  0  0
 10 13  1  0  0  0
M  END
> <minimizedAffinity>
-6.49825

$$$$
4KNN_E1F_B_302


 23 24  0  0  0  0  0  0  0  0999 V2000
   -7.4500   -0.9759   18.4588 C   0  0  0  0  0  0  0  0  0  0  0  0
   -6.4132   -2.4363   16.6292 C   0  0  0  0  0  0  0  0  0  0  0  0
   -5.7725   -2.5739   14.9610 Cl  0  0  0  0  0  0  0  0  0  0  0  0
   -6.9211   -1.1660   17.1491 C   0  0  0  0  0  0  0  0  0  0  0  0
   -7.4248   -2.1317   19.2827 C   0  0  0  0  0  0  0  0  0  0  0  0
   -6.9306   -3.3732   18.7998 C   0  0  0  0  0  0  0  0  0  0  0  0
   -6.4225   -3.5489   17.5084 C   0  0  0  0  0  0  0  0  0  0  0  0
   -4.6657   -4.9860   15.8454 O   0  0  0  0  0  0  0  0  0  0  0  0
   -5.8094   -5.1407   16.9496 S   0  0  0  0  0  0  0  0  0  0  0  0
   -7.1107   -5.9168   16.2012 N   0  0  0  0  0  0  0  0  0  0  0  0
   -5.4202   -5.8204   18.1838 O   0  0  0  0  0  0  0  0  0  0  0  0
   -7.8678   -6.0366   16.8742 H   0  0  0  0  0  0  0  0  0  0  0  0
   -6.8112   -6.8303   15.8602 H   0  0  0  0  0  0  0  0  0  0  0  0
   -7.9778    0.2928   19.0436 C   0  0  0  0  0  0  0  0  0  0  0  0
   -8.4088    0.3365   20.2508 O   0  0  0  0  0  0  0  0  0  0  0  0
   -8.0627    1.5045   18.1284 C   0  0  0  0  0  0  0  0  0  0  0  0
   -9.4715    1.9771   17.0109 S   0  0  0  0  0  0  0  0  0  0  0  0
   -6.4654    4.6309   17.2243 C   0  0  0  0  0  0  0  0  0  0  0  0
   -8.4472    3.4306   16.8253 C   0  0  0  0  0  0  0  0  0  0  0  0
   -8.9066    4.5237   16.0924 N   0  0  0  0  0  0  0  0  0  0  0  0
   -8.2166    5.6606   15.9173 C   0  0  0  0  0  0  0  0  0  0  0  0
   -6.9349    5.7260   16.4833 C   0  0  0  0  0  0  0  0  0  0  0  0
   -7.2123    3.4901   17.4009 N   0  0  0  0  0  0  0  0  0  0  0  0
 17 19  1  0  0  0
 17 16  1  0  0  0
 20 19  2  0  0  0
 20 21  1  0  0  0
 19 23  1  0  0  0
 16 14  1  0  0  0
 15 14  2  0  0  0
 21 22  2  0  0  0
 14  1  1  0  0  0
  5  1  2  0  0  0
  5  6  1  0  0  0
  1  4  1  0  0  0
 23 18  2  0  0  0
 22 18  1  0  0  0
  6  7  2  0  0  0
  4  2  2  0  0  0
  7  2  1  0  0  0
  7  9  1  0  0  0
  2  3  1  0  0  0
 10  9  1  0  0  0
 11  9  2  0  0  0
  9  8  2  0  0  0
 10 12  1  0  0  0
 10 13  1  0  0  0
M  END
> <minimizedAffinity>
-6.35047

$$$$
