5VB5_92A_A_602


 39 41  0  0  0  0  0  0  0  0999 V2000
   -4.1273   22.7329   13.8415 C   0  0  0  0  0  0  0  0  0  0  0  0
   -6.5562   22.9269   13.2467 C   0  0  0  0  0  0  0  0  0  0  0  0
   -8.2521   23.1642   14.9317 C   0  0  0  0  0  0  0  0  0  0  0  0
   -7.2668   23.1168   15.9066 C   0  0  0  0  0  0  0  0  0  0  0  0
   -5.5777   22.8887   14.2249 C   0  0  0  0  0  0  0  0  0  0  0  0
   -5.9380   22.9822   15.5560 C   0  0  0  0  0  0  0  0  0  0  0  0
   -7.8871   23.0606   13.5944 C   0  0  0  0  0  0  0  0  0  0  0  0
  -10.4071   24.2625   14.8631 C   0  0  0  0  0  0  0  0  0  0  0  0
   -9.5960   23.2851   15.3060 N   0  0  0  0  0  0  0  0  0  0  0  0
   -9.9867   25.1105   14.1132 O   0  0  0  0  0  0  0  0  0  0  0  0
   -9.9677   22.6181   15.9275 H   0  0  0  0  0  0  0  0  0  0  0  0
  -11.8478   24.3087   15.3083 C   0  0  0  0  0  0  0  0  0  0  0  0
  -12.7429   23.6245   14.2671 C   0  0  0  0  0  0  0  0  0  0  0  0
  -12.9014   22.1728   14.6269 C   0  0  0  0  0  0  0  0  0  0  0  0
  -13.8290   21.7948   15.5788 C   0  0  0  0  0  0  0  0  0  0  0  0
  -13.1831   19.5072   15.3086 C   0  0  0  0  0  0  0  0  0  0  0  0
  -12.2549   19.8870   14.3556 C   0  0  0  0  0  0  0  0  0  0  0  0
  -12.1142   21.2194   14.0152 C   0  0  0  0  0  0  0  0  0  0  0  0
  -13.3548   17.8366   15.7366 Cl  0  0  0  0  0  0  0  0  0  0  0  0
  -13.9723   20.4642   15.9181 C   0  0  0  0  0  0  0  0  0  0  0  0
   -3.3318   24.0101   14.0991 C   0  0  0  0  0  0  0  0  0  0  0  0
   -3.9780   25.1181   12.1252 O   0  0  0  0  0  0  0  0  0  0  0  0
   -3.9668   25.1430   13.3368 C   0  0  0  0  0  0  0  0  0  0  0  0
   -4.5270   26.1751   13.9993 N   0  0  0  0  0  0  0  0  0  0  0  0
   -5.1488   27.2797   13.2565 C   0  0  0  0  0  0  0  0  0  0  0  0
   -6.5708   27.5661   13.7496 C   0  0  0  0  0  0  0  0  0  0  0  0
   -6.9045   26.9245   15.1013 C   0  0  0  0  0  0  0  0  0  0  0  0
   -8.0876   27.6585   15.7312 C   0  0  0  0  0  0  0  0  0  0  0  0
   -5.7020   27.0066   16.0424 C   0  0  0  0  0  0  0  0  0  0  0  0
   -4.5175   26.2163   15.4699 C   0  0  0  0  0  0  0  0  0  0  0  0
   -0.9374   24.4321   14.2856 C   0  0  0  0  0  0  0  0  0  0  0  0
   -1.9531   23.8229   13.6469 N   0  0  0  0  0  0  0  0  0  0  0  0
   -1.1557   25.1409   15.2386 O   0  0  0  0  0  0  0  0  0  0  0  0
   -1.7672   23.2475   12.8700 H   0  0  0  0  0  0  0  0  0  0  0  0
    0.4760   24.2396   13.8097 C   0  0  0  0  0  0  0  0  0  0  0  0
    1.2978   25.4953   14.0981 C   0  0  0  0  0  0  0  0  0  0  0  0
    2.5719   25.0980   14.8396 C   0  0  0  0  0  0  0  0  0  0  0  0
    2.9313   23.6588   14.4752 C   0  0  0  0  0  0  0  0  0  0  0  0
    2.3493   25.2090   16.3486 C   0  0  0  0  0  0  0  0  0  0  0  0
 22 23  2  0  0  0
 25 26  1  0  0  0
 25 24  1  0  0  0
 26 27  1  0  0  0
  2  7  2  0  0  0
  2  5  1  0  0  0
 23 24  1  0  0  0
 23 21  1  0  0  0
 10  8  2  0  0  0
  7  3  1  0  0  0
 18 17  2  0  0  0
 18 14  1  0  0  0
 35 31  1  0  0  0
 35 36  1  0  0  0
 24 30  1  0  0  0
 17 16  1  0  0  0
 13 14  1  0  0  0
 13 12  1  0  0  0
  1 21  1  0  0  0
  1  5  1  0  0  0
 32 31  1  0  0  0
 32 21  1  0  0  0
 31 33  2  0  0  0
 14 15  2  0  0  0
  5  6  2  0  0  0
 27 28  1  0  0  0
 27 29  1  0  0  0
  8 12  1  0  0  0
  8  9  1  0  0  0
 38 37  1  0  0  0
 16 19  1  0  0  0
 16 20  2  0  0  0
  3  9  1  0  0  0
  3  4  2  0  0  0
 37 36  1  0  0  0
 37 39  1  0  0  0
 15 20  1  0  0  0
 30 29  1  0  0  0
  6  4  1  0  0  0
 32 34  1  0  0  0
  9 11  1  0  0  0
M  END
> <minimizedAffinity>
-10.55348

$$$$
5VB5_92A_A_602


 39 41  0  0  0  0  0  0  0  0999 V2000
   -8.1618   22.4541   15.0952 C   0  0  0  0  0  0  0  0  0  0  0  0
   -5.7367   22.8467   15.6007 C   0  0  0  0  0  0  0  0  0  0  0  0
   -4.2114   23.6411   13.9233 C   0  0  0  0  0  0  0  0  0  0  0  0
   -5.2533   23.6596   13.0081 C   0  0  0  0  0  0  0  0  0  0  0  0
   -6.7732   22.8756   14.6840 C   0  0  0  0  0  0  0  0  0  0  0  0
   -6.5265   23.2815   13.3859 C   0  0  0  0  0  0  0  0  0  0  0  0
   -4.4610   23.2236   15.2254 C   0  0  0  0  0  0  0  0  0  0  0  0
   -2.2837   25.1027   13.9794 C   0  0  0  0  0  0  0  0  0  0  0  0
   -2.9233   24.0127   13.5187 N   0  0  0  0  0  0  0  0  0  0  0  0
   -2.8223   25.8351   14.7742 O   0  0  0  0  0  0  0  0  0  0  0  0
   -2.4604   23.4450   12.8609 H   0  0  0  0  0  0  0  0  0  0  0  0
   -0.8896   25.4205   13.4985 C   0  0  0  0  0  0  0  0  0  0  0  0
   -0.1829   24.1362   13.0461 C   0  0  0  0  0  0  0  0  0  0  0  0
    0.8494   23.7514   14.0698 C   0  0  0  0  0  0  0  0  0  0  0  0
    2.1673   24.1296   13.8972 C   0  0  0  0  0  0  0  0  0  0  0  0
    2.7567   23.0290   15.9381 C   0  0  0  0  0  0  0  0  0  0  0  0
    1.4369   22.6512   16.1096 C   0  0  0  0  0  0  0  0  0  0  0  0
    0.4839   23.0123   15.1756 C   0  0  0  0  0  0  0  0  0  0  0  0
    3.9504   22.5717   17.1082 Cl  0  0  0  0  0  0  0  0  0  0  0  0
    3.1198   23.7718   14.8304 C   0  0  0  0  0  0  0  0  0  0  0  0
   -9.1166   23.6429   15.1710 C   0  0  0  0  0  0  0  0  0  0  0  0
   -8.3202   24.4881   17.2186 O   0  0  0  0  0  0  0  0  0  0  0  0
   -8.5024   24.7077   16.0409 C   0  0  0  0  0  0  0  0  0  0  0  0
   -8.1499   25.8959   15.5099 N   0  0  0  0  0  0  0  0  0  0  0  0
   -7.5485   26.9346   16.3572 C   0  0  0  0  0  0  0  0  0  0  0  0
   -6.2463   27.4739   15.7566 C   0  0  0  0  0  0  0  0  0  0  0  0
   -6.0393   27.1074   14.2824 C   0  0  0  0  0  0  0  0  0  0  0  0
   -5.0379   28.0769   13.6561 C   0  0  0  0  0  0  0  0  0  0  0  0
   -7.3632   27.1892   13.5213 C   0  0  0  0  0  0  0  0  0  0  0  0
   -8.3682   26.1738   14.0818 C   0  0  0  0  0  0  0  0  0  0  0  0
  -11.5522   23.6932   15.2773 C   0  0  0  0  0  0  0  0  0  0  0  0
  -10.3887   23.2078   15.7479 N   0  0  0  0  0  0  0  0  0  0  0  0
  -11.5563   24.4946   14.3739 O   0  0  0  0  0  0  0  0  0  0  0  0
  -10.3936   22.5556   16.4853 H   0  0  0  0  0  0  0  0  0  0  0  0
  -12.8548   23.2457   15.8807 C   0  0  0  0  0  0  0  0  0  0  0  0
  -13.5968   22.3365   14.9020 C   0  0  0  0  0  0  0  0  0  0  0  0
  -12.7853   21.0601   14.6941 C   0  0  0  0  0  0  0  0  0  0  0  0
  -12.5396   20.8646   13.1993 C   0  0  0  0  0  0  0  0  0  0  0  0
  -13.5530   19.8612   15.2530 C   0  0  0  0  0  0  0  0  0  0  0  0
 22 23  2  0  0  0
 25 26  1  0  0  0
 25 24  1  0  0  0
 26 27  1  0  0  0
  2  7  2  0  0  0
  2  5  1  0  0  0
 23 24  1  0  0  0
 23 21  1  0  0  0
 10  8  2  0  0  0
  7  3  1  0  0  0
 18 17  2  0  0  0
 18 14  1  0  0  0
 35 31  1  0  0  0
 35 36  1  0  0  0
 24 30  1  0  0  0
 17 16  1  0  0  0
 13 14  1  0  0  0
 13 12  1  0  0  0
  1 21  1  0  0  0
  1  5  1  0  0  0
 32 31  1  0  0  0
 32 21  1  0  0  0
 31 33  2  0  0  0
 14 15  2  0  0  0
  5  6  2  0  0  0
 27 28  1  0  0  0
 27 29  1  0  0  0
  8 12  1  0  0  0
  8  9  1  0  0  0
 38 37  1  0  0  0
 16 19  1  0  0  0
 16 20  2  0  0  0
  3  9  1  0  0  0
  3  4  2  0  0  0
 37 36  1  0  0  0
 37 39  1  0  0  0
 15 20  1  0  0  0
 30 29  1  0  0  0
  6  4  1  0  0  0
 32 34  1  0  0  0
  9 11  1  0  0  0
M  END
> <minimizedAffinity>
-10.34592

$$$$
5VB5_92A_A_602


 39 41  0  0  0  0  0  0  0  0999 V2000
   -8.4816   23.7724   13.3176 C   0  0  0  0  0  0  0  0  0  0  0  0
   -6.2726   22.8804   14.1022 C   0  0  0  0  0  0  0  0  0  0  0  0
   -4.1937   23.8159   13.3444 C   0  0  0  0  0  0  0  0  0  0  0  0
   -4.9028   24.7194   12.5669 C   0  0  0  0  0  0  0  0  0  0  0  0
   -6.9734   23.7905   13.3301 C   0  0  0  0  0  0  0  0  0  0  0  0
   -6.2836   24.7087   12.5611 C   0  0  0  0  0  0  0  0  0  0  0  0
   -4.8906   22.8878   14.1094 C   0  0  0  0  0  0  0  0  0  0  0  0
   -2.0647   23.9054   12.1979 C   0  0  0  0  0  0  0  0  0  0  0  0
   -2.7936   23.8307   13.3259 N   0  0  0  0  0  0  0  0  0  0  0  0
   -2.6101   23.9473   11.1213 O   0  0  0  0  0  0  0  0  0  0  0  0
   -2.3165   23.7839   14.1858 H   0  0  0  0  0  0  0  0  0  0  0  0
   -0.5581   23.9296   12.2718 C   0  0  0  0  0  0  0  0  0  0  0  0
   -0.0970   24.9962   13.2735 C   0  0  0  0  0  0  0  0  0  0  0  0
    0.8980   24.3875   14.2228 C   0  0  0  0  0  0  0  0  0  0  0  0
    0.5713   23.2432   14.9252 C   0  0  0  0  0  0  0  0  0  0  0  0
    2.7155   23.2749   15.9860 C   0  0  0  0  0  0  0  0  0  0  0  0
    3.0413   24.4204   15.2819 C   0  0  0  0  0  0  0  0  0  0  0  0
    2.1326   24.9764   14.4009 C   0  0  0  0  0  0  0  0  0  0  0  0
    3.8547   22.5821   17.0930 Cl  0  0  0  0  0  0  0  0  0  0  0  0
    1.4787   22.6854   15.8037 C   0  0  0  0  0  0  0  0  0  0  0  0
   -9.0651   24.1629   14.6732 C   0  0  0  0  0  0  0  0  0  0  0  0
  -11.1230   25.2997   14.5527 O   0  0  0  0  0  0  0  0  0  0  0  0
  -10.5655   24.2237   14.5596 C   0  0  0  0  0  0  0  0  0  0  0  0
  -11.2836   23.0870   14.4578 N   0  0  0  0  0  0  0  0  0  0  0  0
  -12.7473   23.1453   14.3446 C   0  0  0  0  0  0  0  0  0  0  0  0
  -13.2579   22.3262   13.1549 C   0  0  0  0  0  0  0  0  0  0  0  0
  -12.2233   21.3548   12.5750 C   0  0  0  0  0  0  0  0  0  0  0  0
  -12.9424   20.2633   11.7833 C   0  0  0  0  0  0  0  0  0  0  0  0
  -11.4093   20.7097   13.6973 C   0  0  0  0  0  0  0  0  0  0  0  0
  -10.6173   21.7754   14.4668 C   0  0  0  0  0  0  0  0  0  0  0  0
   -7.8449   25.6159   16.2048 C   0  0  0  0  0  0  0  0  0  0  0  0
   -8.5467   25.4735   15.0656 N   0  0  0  0  0  0  0  0  0  0  0  0
   -7.6377   24.6616   16.9152 O   0  0  0  0  0  0  0  0  0  0  0  0
   -8.7124   26.2565   14.4922 H   0  0  0  0  0  0  0  0  0  0  0  0
   -7.3216   26.9680   16.6039 C   0  0  0  0  0  0  0  0  0  0  0  0
   -7.0514   27.8102   15.3577 C   0  0  0  0  0  0  0  0  0  0  0  0
   -5.7444   27.3486   14.7178 C   0  0  0  0  0  0  0  0  0  0  0  0
   -4.6216   27.4542   15.7481 C   0  0  0  0  0  0  0  0  0  0  0  0
   -5.4208   28.2273   13.5086 C   0  0  0  0  0  0  0  0  0  0  0  0
 22 23  2  0  0  0
 25 26  1  0  0  0
 25 24  1  0  0  0
 26 27  1  0  0  0
  2  7  2  0  0  0
  2  5  1  0  0  0
 23 24  1  0  0  0
 23 21  1  0  0  0
 10  8  2  0  0  0
  7  3  1  0  0  0
 18 17  2  0  0  0
 18 14  1  0  0  0
 35 31  1  0  0  0
 35 36  1  0  0  0
 24 30  1  0  0  0
 17 16  1  0  0  0
 13 14  1  0  0  0
 13 12  1  0  0  0
  1 21  1  0  0  0
  1  5  1  0  0  0
 32 31  1  0  0  0
 32 21  1  0  0  0
 31 33  2  0  0  0
 14 15  2  0  0  0
  5  6  2  0  0  0
 27 28  1  0  0  0
 27 29  1  0  0  0
  8 12  1  0  0  0
  8  9  1  0  0  0
 38 37  1  0  0  0
 16 19  1  0  0  0
 16 20  2  0  0  0
  3  9  1  0  0  0
  3  4  2  0  0  0
 37 36  1  0  0  0
 37 39  1  0  0  0
 15 20  1  0  0  0
 30 29  1  0  0  0
  6  4  1  0  0  0
 32 34  1  0  0  0
  9 11  1  0  0  0
M  END
> <minimizedAffinity>
-9.64404

$$$$
5VB5_92A_A_602


 39 41  0  0  0  0  0  0  0  0999 V2000
   -8.2981   22.6715   15.8824 C   0  0  0  0  0  0  0  0  0  0  0  0
   -6.1842   22.4513   14.5507 C   0  0  0  0  0  0  0  0  0  0  0  0
   -4.2969   23.8875   14.9340 C   0  0  0  0  0  0  0  0  0  0  0  0
   -5.0126   24.5347   15.9302 C   0  0  0  0  0  0  0  0  0  0  0  0
   -6.8893   23.0966   15.5517 C   0  0  0  0  0  0  0  0  0  0  0  0
   -6.2996   24.1409   16.2390 C   0  0  0  0  0  0  0  0  0  0  0  0
   -4.8963   22.8438   14.2386 C   0  0  0  0  0  0  0  0  0  0  0  0
   -2.6615   24.8801   13.4524 C   0  0  0  0  0  0  0  0  0  0  0  0
   -2.9986   24.3104   14.6233 N   0  0  0  0  0  0  0  0  0  0  0  0
   -3.4917   25.0381   12.5899 O   0  0  0  0  0  0  0  0  0  0  0  0
   -2.2939   24.1839   15.2991 H   0  0  0  0  0  0  0  0  0  0  0  0
   -1.2390   25.3186   13.2072 C   0  0  0  0  0  0  0  0  0  0  0  0
   -0.3881   24.1221   12.7623 C   0  0  0  0  0  0  0  0  0  0  0  0
    0.6094   23.7954   13.8393 C   0  0  0  0  0  0  0  0  0  0  0  0
    1.9167   24.2280   13.7237 C   0  0  0  0  0  0  0  0  0  0  0  0
    2.4540   23.1800   15.8062 C   0  0  0  0  0  0  0  0  0  0  0  0
    1.1448   22.7476   15.9206 C   0  0  0  0  0  0  0  0  0  0  0  0
    0.2232   23.0551   14.9374 C   0  0  0  0  0  0  0  0  0  0  0  0
    3.6087   22.7896   17.0381 Cl  0  0  0  0  0  0  0  0  0  0  0  0
    2.8378   23.9236   14.7061 C   0  0  0  0  0  0  0  0  0  0  0  0
   -9.3270   23.3931   15.0156 C   0  0  0  0  0  0  0  0  0  0  0  0
   -9.4268   21.6212   13.4691 O   0  0  0  0  0  0  0  0  0  0  0  0
  -10.0564   22.3776   14.1762 C   0  0  0  0  0  0  0  0  0  0  0  0
  -11.4022   22.3055   14.2177 N   0  0  0  0  0  0  0  0  0  0  0  0
  -12.1146   21.3137   13.4009 C   0  0  0  0  0  0  0  0  0  0  0  0
  -13.0989   20.4903   14.2378 C   0  0  0  0  0  0  0  0  0  0  0  0
  -13.4008   21.0895   15.6162 C   0  0  0  0  0  0  0  0  0  0  0  0
  -14.7196   20.5202   16.1373 C   0  0  0  0  0  0  0  0  0  0  0  0
  -13.5108   22.6120   15.5237 C   0  0  0  0  0  0  0  0  0  0  0  0
  -12.1764   23.2201   15.0712 C   0  0  0  0  0  0  0  0  0  0  0  0
   -9.1069   25.6086   14.0211 C   0  0  0  0  0  0  0  0  0  0  0  0
   -8.6434   24.3516   14.1471 N   0  0  0  0  0  0  0  0  0  0  0  0
  -10.0937   25.9565   14.6239 O   0  0  0  0  0  0  0  0  0  0  0  0
   -7.8389   24.0751   13.6515 H   0  0  0  0  0  0  0  0  0  0  0  0
   -8.4021   26.5852   13.1208 C   0  0  0  0  0  0  0  0  0  0  0  0
   -6.8922   26.4991   13.3401 C   0  0  0  0  0  0  0  0  0  0  0  0
   -6.4199   27.7609   14.0583 C   0  0  0  0  0  0  0  0  0  0  0  0
   -4.8929   27.7709   14.0944 C   0  0  0  0  0  0  0  0  0  0  0  0
   -6.9708   27.7820   15.4849 C   0  0  0  0  0  0  0  0  0  0  0  0
 22 23  2  0  0  0
 25 26  1  0  0  0
 25 24  1  0  0  0
 26 27  1  0  0  0
  2  7  2  0  0  0
  2  5  1  0  0  0
 23 24  1  0  0  0
 23 21  1  0  0  0
 10  8  2  0  0  0
  7  3  1  0  0  0
 18 17  2  0  0  0
 18 14  1  0  0  0
 35 31  1  0  0  0
 35 36  1  0  0  0
 24 30  1  0  0  0
 17 16  1  0  0  0
 13 14  1  0  0  0
 13 12  1  0  0  0
  1 21  1  0  0  0
  1  5  1  0  0  0
 32 31  1  0  0  0
 32 21  1  0  0  0
 31 33  2  0  0  0
 14 15  2  0  0  0
  5  6  2  0  0  0
 27 28  1  0  0  0
 27 29  1  0  0  0
  8 12  1  0  0  0
  8  9  1  0  0  0
 38 37  1  0  0  0
 16 19  1  0  0  0
 16 20  2  0  0  0
  3  9  1  0  0  0
  3  4  2  0  0  0
 37 36  1  0  0  0
 37 39  1  0  0  0
 15 20  1  0  0  0
 30 29  1  0  0  0
  6  4  1  0  0  0
 32 34  1  0  0  0
  9 11  1  0  0  0
M  END
> <minimizedAffinity>
-9.62747

$$$$
5VB5_92A_A_602


 39 41  0  0  0  0  0  0  0  0999 V2000
   -2.6446   26.7811   14.8389 C   0  0  0  0  0  0  0  0  0  0  0  0
   -4.8618   27.2808   13.7783 C   0  0  0  0  0  0  0  0  0  0  0  0
   -6.9305   26.8818   14.9327 C   0  0  0  0  0  0  0  0  0  0  0  0
   -6.2126   26.4140   16.0233 C   0  0  0  0  0  0  0  0  0  0  0  0
   -4.1520   26.8203   14.8736 C   0  0  0  0  0  0  0  0  0  0  0  0
   -4.8324   26.3853   15.9953 C   0  0  0  0  0  0  0  0  0  0  0  0
   -6.2434   27.3098   13.8027 C   0  0  0  0  0  0  0  0  0  0  0  0
   -9.0631   25.9305   15.5669 C   0  0  0  0  0  0  0  0  0  0  0  0
   -8.3303   26.8890   14.9723 N   0  0  0  0  0  0  0  0  0  0  0  0
   -8.5222   24.9873   16.0922 O   0  0  0  0  0  0  0  0  0  0  0  0
   -8.8040   27.6367   14.5414 H   0  0  0  0  0  0  0  0  0  0  0  0
  -10.5687   26.0253   15.5738 C   0  0  0  0  0  0  0  0  0  0  0  0
  -11.1378   25.4635   14.2645 C   0  0  0  0  0  0  0  0  0  0  0  0
  -11.7619   24.1213   14.5309 C   0  0  0  0  0  0  0  0  0  0  0  0
  -13.0214   24.0451   15.0941 C   0  0  0  0  0  0  0  0  0  0  0  0
  -12.9065   21.6560   15.0428 C   0  0  0  0  0  0  0  0  0  0  0  0
  -11.6456   21.7338   14.4788 C   0  0  0  0  0  0  0  0  0  0  0  0
  -11.0737   22.9660   14.2232 C   0  0  0  0  0  0  0  0  0  0  0  0
  -13.6197   20.1100   15.3662 Cl  0  0  0  0  0  0  0  0  0  0  0  0
  -13.5949   22.8151   15.3478 C   0  0  0  0  0  0  0  0  0  0  0  0
   -2.1146   25.3498   14.8074 C   0  0  0  0  0  0  0  0  0  0  0  0
   -0.5110   26.2432   13.3336 O   0  0  0  0  0  0  0  0  0  0  0  0
   -0.7945   25.3339   14.0828 C   0  0  0  0  0  0  0  0  0  0  0  0
    0.0704   24.3172   14.2734 N   0  0  0  0  0  0  0  0  0  0  0  0
    1.3596   24.3019   13.5688 C   0  0  0  0  0  0  0  0  0  0  0  0
    2.5306   24.0832   14.5320 C   0  0  0  0  0  0  0  0  0  0  0  0
    2.1140   23.5749   15.9171 C   0  0  0  0  0  0  0  0  0  0  0  0
    3.3138   22.9154   16.5958 C   0  0  0  0  0  0  0  0  0  0  0  0
    0.9819   22.5545   15.7926 C   0  0  0  0  0  0  0  0  0  0  0  0
   -0.2642   23.2074   15.1793 C   0  0  0  0  0  0  0  0  0  0  0  0
   -3.6871   23.4869   14.7554 C   0  0  0  0  0  0  0  0  0  0  0  0
   -3.0718   24.4930   14.1074 N   0  0  0  0  0  0  0  0  0  0  0  0
   -3.4531   23.2814   15.9221 O   0  0  0  0  0  0  0  0  0  0  0  0
   -3.2670   24.6535   13.1559 H   0  0  0  0  0  0  0  0  0  0  0  0
   -4.6644   22.6068   14.0263 C   0  0  0  0  0  0  0  0  0  0  0  0
   -5.3705   23.4073   12.9328 C   0  0  0  0  0  0  0  0  0  0  0  0
   -6.7757   23.7685   13.4079 C   0  0  0  0  0  0  0  0  0  0  0  0
   -7.4683   22.5062   13.9180 C   0  0  0  0  0  0  0  0  0  0  0  0
   -7.5768   24.3656   12.2499 C   0  0  0  0  0  0  0  0  0  0  0  0
 22 23  2  0  0  0
 25 26  1  0  0  0
 25 24  1  0  0  0
 26 27  1  0  0  0
  2  7  2  0  0  0
  2  5  1  0  0  0
 23 24  1  0  0  0
 23 21  1  0  0  0
 10  8  2  0  0  0
  7  3  1  0  0  0
 18 17  2  0  0  0
 18 14  1  0  0  0
 35 31  1  0  0  0
 35 36  1  0  0  0
 24 30  1  0  0  0
 17 16  1  0  0  0
 13 14  1  0  0  0
 13 12  1  0  0  0
  1 21  1  0  0  0
  1  5  1  0  0  0
 32 31  1  0  0  0
 32 21  1  0  0  0
 31 33  2  0  0  0
 14 15  2  0  0  0
  5  6  2  0  0  0
 27 28  1  0  0  0
 27 29  1  0  0  0
  8 12  1  0  0  0
  8  9  1  0  0  0
 38 37  1  0  0  0
 16 19  1  0  0  0
 16 20  2  0  0  0
  3  9  1  0  0  0
  3  4  2  0  0  0
 37 36  1  0  0  0
 37 39  1  0  0  0
 15 20  1  0  0  0
 30 29  1  0  0  0
  6  4  1  0  0  0
 32 34  1  0  0  0
  9 11  1  0  0  0
M  END
> <minimizedAffinity>
-9.55198

$$$$
5VB5_92A_A_602


 39 41  0  0  0  0  0  0  0  0999 V2000
   -3.9583   23.0428   13.4887 C   0  0  0  0  0  0  0  0  0  0  0  0
   -6.4580   22.8753   13.3682 C   0  0  0  0  0  0  0  0  0  0  0  0
   -7.8674   23.7902   15.0851 C   0  0  0  0  0  0  0  0  0  0  0  0
   -6.7356   24.2149   15.7649 C   0  0  0  0  0  0  0  0  0  0  0  0
   -5.3334   23.3094   14.0483 C   0  0  0  0  0  0  0  0  0  0  0  0
   -5.4767   23.9783   15.2493 C   0  0  0  0  0  0  0  0  0  0  0  0
   -7.7194   23.1097   13.8821 C   0  0  0  0  0  0  0  0  0  0  0  0
  -10.0242   24.8871   15.1048 C   0  0  0  0  0  0  0  0  0  0  0  0
   -9.1356   24.0248   15.6305 N   0  0  0  0  0  0  0  0  0  0  0  0
   -9.7446   25.5248   14.1183 O   0  0  0  0  0  0  0  0  0  0  0  0
   -9.3910   23.5316   16.4434 H   0  0  0  0  0  0  0  0  0  0  0  0
  -11.3752   25.0679   15.7513 C   0  0  0  0  0  0  0  0  0  0  0  0
  -11.9268   23.7108   16.2072 C   0  0  0  0  0  0  0  0  0  0  0  0
  -12.2020   22.8568   15.0003 C   0  0  0  0  0  0  0  0  0  0  0  0
  -11.4867   21.6912   14.8017 C   0  0  0  0  0  0  0  0  0  0  0  0
  -12.6883   21.2925   12.7717 C   0  0  0  0  0  0  0  0  0  0  0  0
  -13.4038   22.4596   12.9719 C   0  0  0  0  0  0  0  0  0  0  0  0
  -13.1603   23.2413   14.0857 C   0  0  0  0  0  0  0  0  0  0  0  0
  -12.9923   20.3162   11.3725 Cl  0  0  0  0  0  0  0  0  0  0  0  0
  -11.7303   20.9082   13.6910 C   0  0  0  0  0  0  0  0  0  0  0  0
   -3.0061   24.2085   13.7435 C   0  0  0  0  0  0  0  0  0  0  0  0
   -3.8978   26.2821   13.0754 O   0  0  0  0  0  0  0  0  0  0  0  0
   -3.2831   25.2941   12.7372 C   0  0  0  0  0  0  0  0  0  0  0  0
   -2.8421   25.1705   11.4690 N   0  0  0  0  0  0  0  0  0  0  0  0
   -3.1098   26.2301   10.4871 C   0  0  0  0  0  0  0  0  0  0  0  0
   -1.8316   26.6754    9.7694 C   0  0  0  0  0  0  0  0  0  0  0  0
   -0.6504   25.7136    9.9424 C   0  0  0  0  0  0  0  0  0  0  0  0
    0.3622   25.9496    8.8225 C   0  0  0  0  0  0  0  0  0  0  0  0
   -1.1313   24.2629    9.8893 C   0  0  0  0  0  0  0  0  0  0  0  0
   -2.0963   23.9746   11.0473 C   0  0  0  0  0  0  0  0  0  0  0  0
   -0.6525   24.2600   14.3788 C   0  0  0  0  0  0  0  0  0  0  0  0
   -1.6250   23.7467   13.6033 N   0  0  0  0  0  0  0  0  0  0  0  0
   -0.9116   25.1087   15.1978 O   0  0  0  0  0  0  0  0  0  0  0  0
   -1.4056   23.0558   12.9371 H   0  0  0  0  0  0  0  0  0  0  0  0
    0.7656   23.7845   14.2232 C   0  0  0  0  0  0  0  0  0  0  0  0
    1.7148   24.9816   14.1859 C   0  0  0  0  0  0  0  0  0  0  0  0
    2.8760   24.7272   15.1440 C   0  0  0  0  0  0  0  0  0  0  0  0
    3.0285   23.2217   15.3523 C   0  0  0  0  0  0  0  0  0  0  0  0
    2.6005   25.4093   16.4848 C   0  0  0  0  0  0  0  0  0  0  0  0
 22 23  2  0  0  0
 25 26  1  0  0  0
 25 24  1  0  0  0
 26 27  1  0  0  0
  2  7  2  0  0  0
  2  5  1  0  0  0
 23 24  1  0  0  0
 23 21  1  0  0  0
 10  8  2  0  0  0
  7  3  1  0  0  0
 18 17  2  0  0  0
 18 14  1  0  0  0
 35 31  1  0  0  0
 35 36  1  0  0  0
 24 30  1  0  0  0
 17 16  1  0  0  0
 13 14  1  0  0  0
 13 12  1  0  0  0
  1 21  1  0  0  0
  1  5  1  0  0  0
 32 31  1  0  0  0
 32 21  1  0  0  0
 31 33  2  0  0  0
 14 15  2  0  0  0
  5  6  2  0  0  0
 27 28  1  0  0  0
 27 29  1  0  0  0
  8 12  1  0  0  0
  8  9  1  0  0  0
 38 37  1  0  0  0
 16 19  1  0  0  0
 16 20  2  0  0  0
  3  9  1  0  0  0
  3  4  2  0  0  0
 37 36  1  0  0  0
 37 39  1  0  0  0
 15 20  1  0  0  0
 30 29  1  0  0  0
  6  4  1  0  0  0
 32 34  1  0  0  0
  9 11  1  0  0  0
M  END
> <minimizedAffinity>
-8.91452

$$$$
5VB5_92A_A_602


 39 41  0  0  0  0  0  0  0  0999 V2000
   -4.6284   22.6627   14.3772 C   0  0  0  0  0  0  0  0  0  0  0  0
   -7.0827   22.7616   13.8697 C   0  0  0  0  0  0  0  0  0  0  0  0
   -8.6955   23.3480   15.5509 C   0  0  0  0  0  0  0  0  0  0  0  0
   -7.6647   23.4845   16.4687 C   0  0  0  0  0  0  0  0  0  0  0  0
   -6.0585   22.9078   14.7891 C   0  0  0  0  0  0  0  0  0  0  0  0
   -6.3544   23.2681   16.0903 C   0  0  0  0  0  0  0  0  0  0  0  0
   -8.3952   22.9765   14.2455 C   0  0  0  0  0  0  0  0  0  0  0  0
  -10.7554   24.6172   15.5795 C   0  0  0  0  0  0  0  0  0  0  0  0
  -10.0197   23.5559   15.9559 N   0  0  0  0  0  0  0  0  0  0  0  0
  -10.2788   25.4675   14.8668 O   0  0  0  0  0  0  0  0  0  0  0  0
  -10.4351   22.8886   16.5487 H   0  0  0  0  0  0  0  0  0  0  0  0
  -12.1812   24.7547   16.0531 C   0  0  0  0  0  0  0  0  0  0  0  0
  -12.7852   23.3689   16.3147 C   0  0  0  0  0  0  0  0  0  0  0  0
  -12.8221   22.5930   15.0269 C   0  0  0  0  0  0  0  0  0  0  0  0
  -13.3181   23.1826   13.8797 C   0  0  0  0  0  0  0  0  0  0  0  0
  -12.9124   21.1648   12.6601 C   0  0  0  0  0  0  0  0  0  0  0  0
  -12.4159   20.5759   13.8093 C   0  0  0  0  0  0  0  0  0  0  0  0
  -12.3711   21.2899   14.9921 C   0  0  0  0  0  0  0  0  0  0  0  0
  -12.9715   20.2662   11.1794 Cl  0  0  0  0  0  0  0  0  0  0  0  0
  -13.3614   22.4715   12.6971 C   0  0  0  0  0  0  0  0  0  0  0  0
   -3.7510   23.8890   14.6157 C   0  0  0  0  0  0  0  0  0  0  0  0
   -4.1831   24.8649   12.5175 O   0  0  0  0  0  0  0  0  0  0  0  0
   -4.2191   25.0059   13.7206 C   0  0  0  0  0  0  0  0  0  0  0  0
   -4.6835   26.1532   14.2555 N   0  0  0  0  0  0  0  0  0  0  0  0
   -5.1426   27.2425   13.3831 C   0  0  0  0  0  0  0  0  0  0  0  0
   -6.5412   27.7313   13.7731 C   0  0  0  0  0  0  0  0  0  0  0  0
   -7.0022   27.2650   15.1588 C   0  0  0  0  0  0  0  0  0  0  0  0
   -8.1178   28.1833   15.6562 C   0  0  0  0  0  0  0  0  0  0  0  0
   -5.8381   27.3042   16.1497 C   0  0  0  0  0  0  0  0  0  0  0  0
   -4.7300   26.3357   15.7146 C   0  0  0  0  0  0  0  0  0  0  0  0
   -1.5150   23.1804   15.2823 C   0  0  0  0  0  0  0  0  0  0  0  0
   -2.3600   23.5585   14.3056 N   0  0  0  0  0  0  0  0  0  0  0  0
   -1.8980   23.1119   16.4255 O   0  0  0  0  0  0  0  0  0  0  0  0
   -2.0400   23.6130   13.3762 H   0  0  0  0  0  0  0  0  0  0  0  0
   -0.0851   22.8491   14.9556 C   0  0  0  0  0  0  0  0  0  0  0  0
    0.5036   21.9535   16.0449 C   0  0  0  0  0  0  0  0  0  0  0  0
    1.5396   21.0228   15.4193 C   0  0  0  0  0  0  0  0  0  0  0  0
    1.3416   19.6134   15.9738 C   0  0  0  0  0  0  0  0  0  0  0  0
    2.9482   21.5164   15.7529 C   0  0  0  0  0  0  0  0  0  0  0  0
 22 23  2  0  0  0
 25 26  1  0  0  0
 25 24  1  0  0  0
 26 27  1  0  0  0
  2  7  2  0  0  0
  2  5  1  0  0  0
 23 24  1  0  0  0
 23 21  1  0  0  0
 10  8  2  0  0  0
  7  3  1  0  0  0
 18 17  2  0  0  0
 18 14  1  0  0  0
 35 31  1  0  0  0
 35 36  1  0  0  0
 24 30  1  0  0  0
 17 16  1  0  0  0
 13 14  1  0  0  0
 13 12  1  0  0  0
  1 21  1  0  0  0
  1  5  1  0  0  0
 32 31  1  0  0  0
 32 21  1  0  0  0
 31 33  2  0  0  0
 14 15  2  0  0  0
  5  6  2  0  0  0
 27 28  1  0  0  0
 27 29  1  0  0  0
  8 12  1  0  0  0
  8  9  1  0  0  0
 38 37  1  0  0  0
 16 19  1  0  0  0
 16 20  2  0  0  0
  3  9  1  0  0  0
  3  4  2  0  0  0
 37 36  1  0  0  0
 37 39  1  0  0  0
 15 20  1  0  0  0
 30 29  1  0  0  0
  6  4  1  0  0  0
 32 34  1  0  0  0
  9 11  1  0  0  0
M  END
> <minimizedAffinity>
-8.85501

$$$$
5VB5_92A_A_602


 39 41  0  0  0  0  0  0  0  0999 V2000
   -4.3939   23.5019   14.6389 C   0  0  0  0  0  0  0  0  0  0  0  0
   -6.7729   23.0584   13.9798 C   0  0  0  0  0  0  0  0  0  0  0  0
   -8.5889   23.3795   15.5194 C   0  0  0  0  0  0  0  0  0  0  0  0
   -7.6772   23.7759   16.4864 C   0  0  0  0  0  0  0  0  0  0  0  0
   -5.8698   23.4628   14.9475 C   0  0  0  0  0  0  0  0  0  0  0  0
   -6.3266   23.8196   16.2023 C   0  0  0  0  0  0  0  0  0  0  0  0
   -8.1252   23.0126   14.2614 C   0  0  0  0  0  0  0  0  0  0  0  0
  -10.8598   24.1986   15.3541 C   0  0  0  0  0  0  0  0  0  0  0  0
   -9.9534   23.3260   15.8298 N   0  0  0  0  0  0  0  0  0  0  0  0
  -10.5155   25.1012   14.6297 O   0  0  0  0  0  0  0  0  0  0  0  0
  -10.2664   22.6105   16.4292 H   0  0  0  0  0  0  0  0  0  0  0  0
  -12.3140   24.0579   15.7302 C   0  0  0  0  0  0  0  0  0  0  0  0
  -13.0805   23.3411   14.6111 C   0  0  0  0  0  0  0  0  0  0  0  0
  -13.0933   21.8628   14.8871 C   0  0  0  0  0  0  0  0  0  0  0  0
  -14.0718   21.3203   15.6982 C   0  0  0  0  0  0  0  0  0  0  0  0
  -13.1100   19.1480   15.4159 C   0  0  0  0  0  0  0  0  0  0  0  0
  -12.1310   19.6925   14.6039 C   0  0  0  0  0  0  0  0  0  0  0  0
  -12.1228   21.0493   14.3400 C   0  0  0  0  0  0  0  0  0  0  0  0
  -13.1157   17.4472   15.7487 Cl  0  0  0  0  0  0  0  0  0  0  0  0
  -14.0827   19.9649   15.9608 C   0  0  0  0  0  0  0  0  0  0  0  0
   -3.8823   24.9328   14.4930 C   0  0  0  0  0  0  0  0  0  0  0  0
   -5.0948   25.4723   12.5488 O   0  0  0  0  0  0  0  0  0  0  0  0
   -4.8911   25.7350   13.7141 C   0  0  0  0  0  0  0  0  0  0  0  0
   -5.5696   26.7345   14.3129 N   0  0  0  0  0  0  0  0  0  0  0  0
   -6.5557   27.5162   13.5545 C   0  0  0  0  0  0  0  0  0  0  0  0
   -7.9036   27.5864   14.2794 C   0  0  0  0  0  0  0  0  0  0  0  0
   -7.8437   27.1653   15.7522 C   0  0  0  0  0  0  0  0  0  0  0  0
   -9.0501   27.7414   16.4924 C   0  0  0  0  0  0  0  0  0  0  0  0
   -6.5598   27.6815   16.4030 C   0  0  0  0  0  0  0  0  0  0  0  0
   -5.3289   27.0630   15.7266 C   0  0  0  0  0  0  0  0  0  0  0  0
   -2.2152   23.8295   13.0968 C   0  0  0  0  0  0  0  0  0  0  0  0
   -2.6047   24.9213   13.7802 N   0  0  0  0  0  0  0  0  0  0  0  0
   -2.9175   22.8476   13.0670 O   0  0  0  0  0  0  0  0  0  0  0  0
   -2.0262   25.7176   13.8006 H   0  0  0  0  0  0  0  0  0  0  0  0
   -0.8973   23.8239   12.3726 C   0  0  0  0  0  0  0  0  0  0  0  0
   -0.4434   25.2587   12.1067 C   0  0  0  0  0  0  0  0  0  0  0  0
   -0.5075   25.5318   10.6059 C   0  0  0  0  0  0  0  0  0  0  0  0
   -1.5468   26.6197   10.3421 C   0  0  0  0  0  0  0  0  0  0  0  0
   -0.8974   24.2532    9.8627 C   0  0  0  0  0  0  0  0  0  0  0  0
 22 23  2  0  0  0
 25 26  1  0  0  0
 25 24  1  0  0  0
 26 27  1  0  0  0
  2  7  2  0  0  0
  2  5  1  0  0  0
 23 24  1  0  0  0
 23 21  1  0  0  0
 10  8  2  0  0  0
  7  3  1  0  0  0
 18 17  2  0  0  0
 18 14  1  0  0  0
 35 31  1  0  0  0
 35 36  1  0  0  0
 24 30  1  0  0  0
 17 16  1  0  0  0
 13 14  1  0  0  0
 13 12  1  0  0  0
  1 21  1  0  0  0
  1  5  1  0  0  0
 32 31  1  0  0  0
 32 21  1  0  0  0
 31 33  2  0  0  0
 14 15  2  0  0  0
  5  6  2  0  0  0
 27 28  1  0  0  0
 27 29  1  0  0  0
  8 12  1  0  0  0
  8  9  1  0  0  0
 38 37  1  0  0  0
 16 19  1  0  0  0
 16 20  2  0  0  0
  3  9  1  0  0  0
  3  4  2  0  0  0
 37 36  1  0  0  0
 37 39  1  0  0  0
 15 20  1  0  0  0
 30 29  1  0  0  0
  6  4  1  0  0  0
 32 34  1  0  0  0
  9 11  1  0  0  0
M  END
> <minimizedAffinity>
-8.54778

$$$$
5VB5_92A_A_602


 39 41  0  0  0  0  0  0  0  0999 V2000
   -9.0055   24.1476   13.9943 C   0  0  0  0  0  0  0  0  0  0  0  0
   -6.9740   22.8310   14.6503 C   0  0  0  0  0  0  0  0  0  0  0  0
   -4.8818   23.0821   13.4967 C   0  0  0  0  0  0  0  0  0  0  0  0
   -5.4720   24.0221   12.6651 C   0  0  0  0  0  0  0  0  0  0  0  0
   -7.5540   23.7759   13.8218 C   0  0  0  0  0  0  0  0  0  0  0  0
   -6.7987   24.3687   12.8275 C   0  0  0  0  0  0  0  0  0  0  0  0
   -5.6467   22.4811   14.4897 C   0  0  0  0  0  0  0  0  0  0  0  0
   -2.5095   23.4133   13.8395 C   0  0  0  0  0  0  0  0  0  0  0  0
   -3.5395   22.7310   13.3076 N   0  0  0  0  0  0  0  0  0  0  0  0
   -2.7112   24.3974   14.5095 O   0  0  0  0  0  0  0  0  0  0  0  0
   -3.3386   21.9414   12.7549 H   0  0  0  0  0  0  0  0  0  0  0  0
   -1.0930   22.9555   13.5948 C   0  0  0  0  0  0  0  0  0  0  0  0
   -0.1373   24.1550   13.6360 C   0  0  0  0  0  0  0  0  0  0  0  0
   -0.2515   24.9242   12.3487 C   0  0  0  0  0  0  0  0  0  0  0  0
   -0.1939   26.3048   12.3621 C   0  0  0  0  0  0  0  0  0  0  0  0
   -0.4821   26.3458    9.9874 C   0  0  0  0  0  0  0  0  0  0  0  0
   -0.5394   24.9635    9.9756 C   0  0  0  0  0  0  0  0  0  0  0  0
   -0.4244   24.2533   11.1559 C   0  0  0  0  0  0  0  0  0  0  0  0
   -0.6307   27.2342    8.5069 Cl  0  0  0  0  0  0  0  0  0  0  0  0
   -0.3063   27.0154   11.1837 C   0  0  0  0  0  0  0  0  0  0  0  0
   -9.4754   23.9481   15.4330 C   0  0  0  0  0  0  0  0  0  0  0  0
  -11.6992   24.6214   15.8113 O   0  0  0  0  0  0  0  0  0  0  0  0
  -10.9660   23.7333   15.4344 C   0  0  0  0  0  0  0  0  0  0  0  0
  -11.4818   22.5617   15.0107 N   0  0  0  0  0  0  0  0  0  0  0  0
  -12.9359   22.3520   15.0094 C   0  0  0  0  0  0  0  0  0  0  0  0
  -13.4366   21.8529   13.6502 C   0  0  0  0  0  0  0  0  0  0  0  0
  -12.3267   21.3400   12.7254 C   0  0  0  0  0  0  0  0  0  0  0  0
  -12.9352   20.4227   11.6655 C   0  0  0  0  0  0  0  0  0  0  0  0
  -11.2824   20.5611   13.5262 C   0  0  0  0  0  0  0  0  0  0  0  0
  -10.6008   21.4761   14.5526 C   0  0  0  0  0  0  0  0  0  0  0  0
   -9.2895   26.3657   15.6904 C   0  0  0  0  0  0  0  0  0  0  0  0
   -9.1477   25.1369   16.2201 N   0  0  0  0  0  0  0  0  0  0  0  0
   -9.6879   26.4979   14.5581 O   0  0  0  0  0  0  0  0  0  0  0  0
   -8.8212   25.0372   17.1436 H   0  0  0  0  0  0  0  0  0  0  0  0
   -8.9437   27.5820   16.5041 C   0  0  0  0  0  0  0  0  0  0  0  0
   -8.1009   28.5448   15.6687 C   0  0  0  0  0  0  0  0  0  0  0  0
   -6.6622   28.0359   15.6216 C   0  0  0  0  0  0  0  0  0  0  0  0
   -6.2956   27.7139   14.1741 C   0  0  0  0  0  0  0  0  0  0  0  0
   -6.5292   26.7776   16.4807 C   0  0  0  0  0  0  0  0  0  0  0  0
 22 23  2  0  0  0
 25 26  1  0  0  0
 25 24  1  0  0  0
 26 27  1  0  0  0
  2  7  2  0  0  0
  2  5  1  0  0  0
 23 24  1  0  0  0
 23 21  1  0  0  0
 10  8  2  0  0  0
  7  3  1  0  0  0
 18 17  2  0  0  0
 18 14  1  0  0  0
 35 31  1  0  0  0
 35 36  1  0  0  0
 24 30  1  0  0  0
 17 16  1  0  0  0
 13 14  1  0  0  0
 13 12  1  0  0  0
  1 21  1  0  0  0
  1  5  1  0  0  0
 32 31  1  0  0  0
 32 21  1  0  0  0
 31 33  2  0  0  0
 14 15  2  0  0  0
  5  6  2  0  0  0
 27 28  1  0  0  0
 27 29  1  0  0  0
  8 12  1  0  0  0
  8  9  1  0  0  0
 38 37  1  0  0  0
 16 19  1  0  0  0
 16 20  2  0  0  0
  3  9  1  0  0  0
  3  4  2  0  0  0
 37 36  1  0  0  0
 37 39  1  0  0  0
 15 20  1  0  0  0
 30 29  1  0  0  0
  6  4  1  0  0  0
 32 34  1  0  0  0
  9 11  1  0  0  0
M  END
> <minimizedAffinity>
-7.71121

$$$$
