5NW1_9BH_C_301


 39 42  0  0  0  0  0  0  0  0999 V2000
   12.3409   54.6823   92.9500 C   0  0  0  0  0  0  0  0  0  0  0  0
   11.1815   54.4981   92.6136 O   0  0  0  0  0  0  0  0  0  0  0  0
   13.3054   54.9731   92.0408 N   0  0  0  0  0  0  0  0  0  0  0  0
   14.7507   55.3477   92.2126 C   0  0  0  0  0  0  0  0  0  0  0  0
   15.1462   56.0422   90.9095 C   0  0  0  0  0  0  0  0  0  0  0  0
   14.8323   57.4553   90.9261 O   0  0  0  0  0  0  0  0  0  0  0  0
   14.2816   55.3101   89.8815 C   0  0  0  0  0  0  0  0  0  0  0  0
   12.9464   54.9988   90.5840 C   0  0  0  0  0  0  0  0  0  0  0  0
   13.8852   57.5742   91.0984 H   0  0  0  0  0  0  0  0  0  0  0  0
   12.4433   53.7560   90.0756 C   0  0  0  0  0  0  0  0  0  0  0  0
   12.7731   52.6837   90.5651 O   0  0  0  0  0  0  0  0  0  0  0  0
   11.6962   53.8112   88.9618 N   0  0  0  0  0  0  0  0  0  0  0  0
   11.4539   54.6939   88.5993 H   0  0  0  0  0  0  0  0  0  0  0  0
   11.2188   52.5926   88.2518 C   0  0  0  0  0  0  0  0  0  0  0  0
   11.9280   52.3588   87.0190 C   0  0  0  0  0  0  0  0  0  0  0  0
   12.1109   51.0837   86.4779 C   0  0  0  0  0  0  0  0  0  0  0  0
   12.8079   50.8876   85.2729 C   0  0  0  0  0  0  0  0  0  0  0  0
   12.4682   53.4259   86.3037 C   0  0  0  0  0  0  0  0  0  0  0  0
   13.1718   53.2273   85.1065 C   0  0  0  0  0  0  0  0  0  0  0  0
   13.3668   51.9483   84.5637 C   0  0  0  0  0  0  0  0  0  0  0  0
   14.0552   51.7316   83.4078 C   0  0  0  0  0  0  0  0  0  0  0  0
   13.5297   50.7787   82.0337 S   0  0  0  0  0  0  0  0  0  0  0  0
   14.8926   51.0397   81.1361 C   0  0  0  0  0  0  0  0  0  0  0  0
   15.7312   51.8024   81.8486 N   0  0  0  0  0  0  0  0  0  0  0  0
   15.2881   52.1764   83.0708 C   0  0  0  0  0  0  0  0  0  0  0  0
   16.2021   53.0626   83.9439 C   0  0  0  0  0  0  0  0  0  0  0  0
   12.7212   54.6803   94.4587 C   0  0  0  0  0  0  0  0  0  0  0  0
   11.5073   56.5648   95.8242 C   0  0  0  0  0  0  0  0  0  0  0  0
   12.4548   57.3030   96.1194 O   0  0  0  0  0  0  0  0  0  0  0  0
   11.6628   55.4152   95.1692 N   0  0  0  0  0  0  0  0  0  0  0  0
   10.8198   54.9068   95.1568 H   0  0  0  0  0  0  0  0  0  0  0  0
    9.8509   56.3134   97.6913 C   0  0  0  0  0  0  0  0  0  0  0  0
    9.9701   57.7118   98.2633 C   0  0  0  0  0  0  0  0  0  0  0  0
    9.9560   58.2761   96.8552 C   0  0  0  0  0  0  0  0  0  0  0  0
   10.0870   56.8704   96.3025 C   0  0  0  0  0  0  0  0  0  0  0  0
   12.9312   53.2928   95.0775 C   0  0  0  0  0  0  0  0  0  0  0  0
   11.5558   52.7404   95.4962 C   0  0  0  0  0  0  0  0  0  0  0  0
   13.8079   53.4060   96.3366 C   0  0  0  0  0  0  0  0  0  0  0  0
   13.5520   52.2874   94.0804 C   0  0  0  0  0  0  0  0  0  0  0  0
 24 23  2  0  0  0
 24 25  1  0  0  0
 23 22  1  0  0  0
 26 25  1  0  0  0
 25 21  2  0  0  0
 22 21  1  0  0  0
 21 20  1  0  0  0
 20 19  2  0  0  0
 20 17  1  0  0  0
 19 18  1  0  0  0
 17 16  2  0  0  0
 18 15  2  0  0  0
 16 15  1  0  0  0
 15 14  1  0  0  0
 14 12  1  0  0  0
 12 10  1  0  0  0
  7  8  1  0  0  0
  7  5  1  0  0  0
 10 11  2  0  0  0
 10  8  1  0  0  0
  8  3  1  0  0  0
  5  6  1  0  0  0
  5  4  1  0  0  0
  3  4  1  0  0  0
  3  1  1  0  0  0
  2  1  2  0  0  0
  1 27  1  0  0  0
 38 36  1  0  0  0
 27 36  1  0  0  0
 27 30  1  0  0  0
 36 39  1  0  0  0
 36 37  1  0  0  0
 30 28  1  0  0  0
 28 29  2  0  0  0
 28 35  1  0  0  0
 35 34  1  0  0  0
 35 32  1  0  0  0
 34 33  1  0  0  0
 32 33  1  0  0  0
 30 31  1  0  0  0
  6  9  1  0  0  0
 12 13  1  0  0  0
M  END
> <minimizedAffinity>
-9.27673

$$$$
5NW1_9BH_C_301


 39 42  0  0  0  0  0  0  0  0999 V2000
   12.7419   54.8154   93.0616 C   0  0  0  0  0  0  0  0  0  0  0  0
   11.5262   54.8943   92.9760 O   0  0  0  0  0  0  0  0  0  0  0  0
   13.5480   55.1238   92.0145 N   0  0  0  0  0  0  0  0  0  0  0  0
   15.0443   55.2156   91.9074 C   0  0  0  0  0  0  0  0  0  0  0  0
   15.3091   56.0862   90.6791 C   0  0  0  0  0  0  0  0  0  0  0  0
   15.2978   57.4984   90.9973 O   0  0  0  0  0  0  0  0  0  0  0  0
   14.1298   55.7284   89.7728 C   0  0  0  0  0  0  0  0  0  0  0  0
   12.9233   55.5025   90.7038 C   0  0  0  0  0  0  0  0  0  0  0  0
   14.4469   57.7323   91.4001 H   0  0  0  0  0  0  0  0  0  0  0  0
   12.0890   54.4873   90.1295 C   0  0  0  0  0  0  0  0  0  0  0  0
   10.8707   54.5201   90.2433 O   0  0  0  0  0  0  0  0  0  0  0  0
   12.7070   53.4344   89.5718 N   0  0  0  0  0  0  0  0  0  0  0  0
   13.6889   53.4468   89.5007 H   0  0  0  0  0  0  0  0  0  0  0  0
   11.9690   52.2485   89.0561 C   0  0  0  0  0  0  0  0  0  0  0  0
   12.0930   52.0995   87.6279 C   0  0  0  0  0  0  0  0  0  0  0  0
   12.3425   53.1743   86.7708 C   0  0  0  0  0  0  0  0  0  0  0  0
   12.4582   52.9972   85.3810 C   0  0  0  0  0  0  0  0  0  0  0  0
   11.9673   50.8436   87.0370 C   0  0  0  0  0  0  0  0  0  0  0  0
   12.0734   50.6702   85.6490 C   0  0  0  0  0  0  0  0  0  0  0  0
   12.3142   51.7474   84.7828 C   0  0  0  0  0  0  0  0  0  0  0  0
   12.4110   51.6033   83.4312 C   0  0  0  0  0  0  0  0  0  0  0  0
   13.8321   51.1246   82.5238 S   0  0  0  0  0  0  0  0  0  0  0  0
   13.1016   51.2018   81.0433 C   0  0  0  0  0  0  0  0  0  0  0  0
   11.8333   51.5947   81.2151 N   0  0  0  0  0  0  0  0  0  0  0  0
   11.4561   51.8136   82.4956 C   0  0  0  0  0  0  0  0  0  0  0  0
   10.0042   52.2627   82.7670 C   0  0  0  0  0  0  0  0  0  0  0  0
   13.4020   54.4456   94.4211 C   0  0  0  0  0  0  0  0  0  0  0  0
   11.7533   55.6685   96.0569 C   0  0  0  0  0  0  0  0  0  0  0  0
   10.6759   55.1377   95.7616 O   0  0  0  0  0  0  0  0  0  0  0  0
   12.8915   55.3984   95.4194 N   0  0  0  0  0  0  0  0  0  0  0  0
   13.6013   56.0207   95.6991 H   0  0  0  0  0  0  0  0  0  0  0  0
   12.3429   58.0648   96.5081 C   0  0  0  0  0  0  0  0  0  0  0  0
   10.9346   58.6246   96.5255 C   0  0  0  0  0  0  0  0  0  0  0  0
   10.4841   57.4335   97.3501 C   0  0  0  0  0  0  0  0  0  0  0  0
   11.8283   56.7740   97.1113 C   0  0  0  0  0  0  0  0  0  0  0  0
   13.1798   53.0003   94.8834 C   0  0  0  0  0  0  0  0  0  0  0  0
   14.2174   52.1059   94.1794 C   0  0  0  0  0  0  0  0  0  0  0  0
   11.7760   52.5259   94.4696 C   0  0  0  0  0  0  0  0  0  0  0  0
   13.3761   52.8290   96.4074 C   0  0  0  0  0  0  0  0  0  0  0  0
 24 23  2  0  0  0
 24 25  1  0  0  0
 23 22  1  0  0  0
 26 25  1  0  0  0
 25 21  2  0  0  0
 22 21  1  0  0  0
 21 20  1  0  0  0
 20 19  2  0  0  0
 20 17  1  0  0  0
 19 18  1  0  0  0
 17 16  2  0  0  0
 18 15  2  0  0  0
 16 15  1  0  0  0
 15 14  1  0  0  0
 14 12  1  0  0  0
 12 10  1  0  0  0
  7  8  1  0  0  0
  7  5  1  0  0  0
 10 11  2  0  0  0
 10  8  1  0  0  0
  8  3  1  0  0  0
  5  6  1  0  0  0
  5  4  1  0  0  0
  3  4  1  0  0  0
  3  1  1  0  0  0
  2  1  2  0  0  0
  1 27  1  0  0  0
 38 36  1  0  0  0
 27 36  1  0  0  0
 27 30  1  0  0  0
 36 39  1  0  0  0
 36 37  1  0  0  0
 30 28  1  0  0  0
 28 29  2  0  0  0
 28 35  1  0  0  0
 35 34  1  0  0  0
 35 32  1  0  0  0
 34 33  1  0  0  0
 32 33  1  0  0  0
 30 31  1  0  0  0
  6  9  1  0  0  0
 12 13  1  0  0  0
M  END
> <minimizedAffinity>
-7.34237

$$$$
5NW1_9BH_C_301


 39 42  0  0  0  0  0  0  0  0999 V2000
   10.6633   51.7044   83.3121 C   0  0  0  0  0  0  0  0  0  0  0  0
   10.6414   52.9221   83.4022 O   0  0  0  0  0  0  0  0  0  0  0  0
    9.6522   51.0189   82.7212 N   0  0  0  0  0  0  0  0  0  0  0  0
    9.5021   49.5603   82.3914 C   0  0  0  0  0  0  0  0  0  0  0  0
    8.4300   49.5000   81.3034 C   0  0  0  0  0  0  0  0  0  0  0  0
    8.9838   49.6884   79.9792 O   0  0  0  0  0  0  0  0  0  0  0  0
    7.5244   50.6736   81.6810 C   0  0  0  0  0  0  0  0  0  0  0  0
    8.4512   51.7739   82.2321 C   0  0  0  0  0  0  0  0  0  0  0  0
    9.4545   50.5358   79.9432 H   0  0  0  0  0  0  0  0  0  0  0  0
    7.7469   52.4931   83.2534 C   0  0  0  0  0  0  0  0  0  0  0  0
    7.3681   53.6441   83.0803 O   0  0  0  0  0  0  0  0  0  0  0  0
    7.6321   51.8960   84.4500 N   0  0  0  0  0  0  0  0  0  0  0  0
    7.9506   50.9695   84.5476 H   0  0  0  0  0  0  0  0  0  0  0  0
    7.0430   52.5769   85.6359 C   0  0  0  0  0  0  0  0  0  0  0  0
    8.0038   52.7762   86.6916 C   0  0  0  0  0  0  0  0  0  0  0  0
    9.0960   53.6392   86.5718 C   0  0  0  0  0  0  0  0  0  0  0  0
   10.0168   53.8124   87.6199 C   0  0  0  0  0  0  0  0  0  0  0  0
    7.8714   52.0982   87.9020 C   0  0  0  0  0  0  0  0  0  0  0  0
    8.7966   52.2650   88.9431 C   0  0  0  0  0  0  0  0  0  0  0  0
    9.9004   53.1228   88.8247 C   0  0  0  0  0  0  0  0  0  0  0  0
   10.8166   53.2924   89.8191 C   0  0  0  0  0  0  0  0  0  0  0  0
   10.9715   54.6780   90.8812 S   0  0  0  0  0  0  0  0  0  0  0  0
   12.2584   54.0791   91.7277 C   0  0  0  0  0  0  0  0  0  0  0  0
   12.5812   52.8828   91.2203 N   0  0  0  0  0  0  0  0  0  0  0  0
   11.8115   52.4548   90.1936 C   0  0  0  0  0  0  0  0  0  0  0  0
   12.1240   51.0800   89.5647 C   0  0  0  0  0  0  0  0  0  0  0  0
   11.9125   50.9125   83.7951 C   0  0  0  0  0  0  0  0  0  0  0  0
   13.9852   51.5678   82.3242 C   0  0  0  0  0  0  0  0  0  0  0  0
   14.0599   50.5983   81.5597 O   0  0  0  0  0  0  0  0  0  0  0  0
   13.0960   51.6421   83.3134 N   0  0  0  0  0  0  0  0  0  0  0  0
   13.2874   52.4137   83.8941 H   0  0  0  0  0  0  0  0  0  0  0  0
   15.5160   53.0590   83.6379 C   0  0  0  0  0  0  0  0  0  0  0  0
   16.8171   52.3479   83.3242 C   0  0  0  0  0  0  0  0  0  0  0  0
   16.3863   52.2244   81.8749 C   0  0  0  0  0  0  0  0  0  0  0  0
   15.0014   52.7090   82.2569 C   0  0  0  0  0  0  0  0  0  0  0  0
   11.9937   50.6808   85.3090 C   0  0  0  0  0  0  0  0  0  0  0  0
   12.5300   51.9675   85.9638 C   0  0  0  0  0  0  0  0  0  0  0  0
   12.9786   49.5391   85.6140 C   0  0  0  0  0  0  0  0  0  0  0  0
   10.6132   50.3802   85.9370 C   0  0  0  0  0  0  0  0  0  0  0  0
 24 23  2  0  0  0
 24 25  1  0  0  0
 23 22  1  0  0  0
 26 25  1  0  0  0
 25 21  2  0  0  0
 22 21  1  0  0  0
 21 20  1  0  0  0
 20 19  2  0  0  0
 20 17  1  0  0  0
 19 18  1  0  0  0
 17 16  2  0  0  0
 18 15  2  0  0  0
 16 15  1  0  0  0
 15 14  1  0  0  0
 14 12  1  0  0  0
 12 10  1  0  0  0
  7  8  1  0  0  0
  7  5  1  0  0  0
 10 11  2  0  0  0
 10  8  1  0  0  0
  8  3  1  0  0  0
  5  6  1  0  0  0
  5  4  1  0  0  0
  3  4  1  0  0  0
  3  1  1  0  0  0
  2  1  2  0  0  0
  1 27  1  0  0  0
 38 36  1  0  0  0
 27 36  1  0  0  0
 27 30  1  0  0  0
 36 39  1  0  0  0
 36 37  1  0  0  0
 30 28  1  0  0  0
 28 29  2  0  0  0
 28 35  1  0  0  0
 35 34  1  0  0  0
 35 32  1  0  0  0
 34 33  1  0  0  0
 32 33  1  0  0  0
 30 31  1  0  0  0
  6  9  1  0  0  0
 12 13  1  0  0  0
M  END
> <minimizedAffinity>
-6.97749

$$$$
5NW1_9BH_C_301


 39 42  0  0  0  0  0  0  0  0999 V2000
   12.1741   52.0171   91.0624 C   0  0  0  0  0  0  0  0  0  0  0  0
   12.5219   52.3721   89.9469 O   0  0  0  0  0  0  0  0  0  0  0  0
   12.2936   50.7268   91.4653 N   0  0  0  0  0  0  0  0  0  0  0  0
   12.0495   50.0767   92.7981 C   0  0  0  0  0  0  0  0  0  0  0  0
   12.8374   48.7673   92.7598 C   0  0  0  0  0  0  0  0  0  0  0  0
   14.2170   48.9475   93.1594 O   0  0  0  0  0  0  0  0  0  0  0  0
   12.7500   48.3844   91.2813 C   0  0  0  0  0  0  0  0  0  0  0  0
   12.8001   49.7052   90.4899 C   0  0  0  0  0  0  0  0  0  0  0  0
   14.6352   49.6104   92.5879 H   0  0  0  0  0  0  0  0  0  0  0  0
   11.9956   49.5607   89.3117 C   0  0  0  0  0  0  0  0  0  0  0  0
   11.7451   48.4599   88.8387 O   0  0  0  0  0  0  0  0  0  0  0  0
   11.6349   50.6878   88.6783 N   0  0  0  0  0  0  0  0  0  0  0  0
   11.8568   51.5533   89.0919 H   0  0  0  0  0  0  0  0  0  0  0  0
   10.9130   50.6834   87.3760 C   0  0  0  0  0  0  0  0  0  0  0  0
   11.7836   50.9619   86.2616 C   0  0  0  0  0  0  0  0  0  0  0  0
   12.3214   49.9606   85.4489 C   0  0  0  0  0  0  0  0  0  0  0  0
   13.1682   50.2639   84.3686 C   0  0  0  0  0  0  0  0  0  0  0  0
   12.1263   52.2755   85.9463 C   0  0  0  0  0  0  0  0  0  0  0  0
   12.9792   52.5756   84.8739 C   0  0  0  0  0  0  0  0  0  0  0  0
   13.5297   51.5736   84.0606 C   0  0  0  0  0  0  0  0  0  0  0  0
   14.3680   51.8417   83.0202 C   0  0  0  0  0  0  0  0  0  0  0  0
   14.2309   51.2440   81.3783 S   0  0  0  0  0  0  0  0  0  0  0  0
   15.5804   52.0178   80.8204 C   0  0  0  0  0  0  0  0  0  0  0  0
   16.1349   52.6911   81.8363 N   0  0  0  0  0  0  0  0  0  0  0  0
   15.4894   52.5994   83.0215 C   0  0  0  0  0  0  0  0  0  0  0  0
   16.0705   53.3565   84.2349 C   0  0  0  0  0  0  0  0  0  0  0  0
   11.6685   53.0704   92.0899 C   0  0  0  0  0  0  0  0  0  0  0  0
   13.8689   54.4546   92.4525 C   0  0  0  0  0  0  0  0  0  0  0  0
   14.5256   53.6886   93.1678 O   0  0  0  0  0  0  0  0  0  0  0  0
   12.6230   54.1899   92.0621 N   0  0  0  0  0  0  0  0  0  0  0  0
   12.2222   54.9761   91.6257 H   0  0  0  0  0  0  0  0  0  0  0  0
   15.4528   55.7128   90.9687 C   0  0  0  0  0  0  0  0  0  0  0  0
   14.4387   56.2101   89.9581 C   0  0  0  0  0  0  0  0  0  0  0  0
   13.4939   56.5550   91.0938 C   0  0  0  0  0  0  0  0  0  0  0  0
   14.4098   55.8307   92.0609 C   0  0  0  0  0  0  0  0  0  0  0  0
   10.2362   53.5693   91.8626 C   0  0  0  0  0  0  0  0  0  0  0  0
    9.6851   54.0767   93.2083 C   0  0  0  0  0  0  0  0  0  0  0  0
    9.3454   52.4099   91.3842 C   0  0  0  0  0  0  0  0  0  0  0  0
   10.1705   54.7448   90.8604 C   0  0  0  0  0  0  0  0  0  0  0  0
 24 23  2  0  0  0
 24 25  1  0  0  0
 23 22  1  0  0  0
 26 25  1  0  0  0
 25 21  2  0  0  0
 22 21  1  0  0  0
 21 20  1  0  0  0
 20 19  2  0  0  0
 20 17  1  0  0  0
 19 18  1  0  0  0
 17 16  2  0  0  0
 18 15  2  0  0  0
 16 15  1  0  0  0
 15 14  1  0  0  0
 14 12  1  0  0  0
 12 10  1  0  0  0
  7  8  1  0  0  0
  7  5  1  0  0  0
 10 11  2  0  0  0
 10  8  1  0  0  0
  8  3  1  0  0  0
  5  6  1  0  0  0
  5  4  1  0  0  0
  3  4  1  0  0  0
  3  1  1  0  0  0
  2  1  2  0  0  0
  1 27  1  0  0  0
 38 36  1  0  0  0
 27 36  1  0  0  0
 27 30  1  0  0  0
 36 39  1  0  0  0
 36 37  1  0  0  0
 30 28  1  0  0  0
 28 29  2  0  0  0
 28 35  1  0  0  0
 35 34  1  0  0  0
 35 32  1  0  0  0
 34 33  1  0  0  0
 32 33  1  0  0  0
 30 31  1  0  0  0
  6  9  1  0  0  0
 12 13  1  0  0  0
M  END
> <minimizedAffinity>
-6.88326

$$$$
5NW1_9BH_C_301


 39 42  0  0  0  0  0  0  0  0999 V2000
   12.2604   53.1077   92.3672 C   0  0  0  0  0  0  0  0  0  0  0  0
   13.0993   52.4253   91.7998 O   0  0  0  0  0  0  0  0  0  0  0  0
   11.2539   53.7081   91.6832 N   0  0  0  0  0  0  0  0  0  0  0  0
   10.0586   54.4865   92.1567 C   0  0  0  0  0  0  0  0  0  0  0  0
    9.0619   54.4413   90.9985 C   0  0  0  0  0  0  0  0  0  0  0  0
    8.2362   53.2528   91.0340 O   0  0  0  0  0  0  0  0  0  0  0  0
    9.9873   54.4185   89.7805 C   0  0  0  0  0  0  0  0  0  0  0  0
   11.2167   53.5843   90.1883 C   0  0  0  0  0  0  0  0  0  0  0  0
    8.8024   52.4653   91.0235 H   0  0  0  0  0  0  0  0  0  0  0  0
   12.3691   54.1156   89.5207 C   0  0  0  0  0  0  0  0  0  0  0  0
   13.1795   54.8215   90.1065 O   0  0  0  0  0  0  0  0  0  0  0  0
   12.4546   53.9109   88.1969 N   0  0  0  0  0  0  0  0  0  0  0  0
   11.7817   53.3375   87.7636 H   0  0  0  0  0  0  0  0  0  0  0  0
   13.5251   54.5151   87.3565 C   0  0  0  0  0  0  0  0  0  0  0  0
   13.7420   53.7871   86.1317 C   0  0  0  0  0  0  0  0  0  0  0  0
   14.8135   54.0464   85.2734 C   0  0  0  0  0  0  0  0  0  0  0  0
   14.9983   53.3189   84.0848 C   0  0  0  0  0  0  0  0  0  0  0  0
   12.8677   52.7702   85.7523 C   0  0  0  0  0  0  0  0  0  0  0  0
   13.0484   52.0518   84.5610 C   0  0  0  0  0  0  0  0  0  0  0  0
   14.1170   52.3146   83.6907 C   0  0  0  0  0  0  0  0  0  0  0  0
   14.3059   51.6361   82.5241 C   0  0  0  0  0  0  0  0  0  0  0  0
   13.2527   50.4167   81.8343 S   0  0  0  0  0  0  0  0  0  0  0  0
   14.1871   50.1452   80.4985 C   0  0  0  0  0  0  0  0  0  0  0  0
   15.2703   50.9287   80.5710 N   0  0  0  0  0  0  0  0  0  0  0  0
   15.3412   51.7312   81.6577 C   0  0  0  0  0  0  0  0  0  0  0  0
   16.5612   52.6661   81.8019 C   0  0  0  0  0  0  0  0  0  0  0  0
   12.2753   53.2253   93.9186 C   0  0  0  0  0  0  0  0  0  0  0  0
   12.4003   50.8079   94.9333 C   0  0  0  0  0  0  0  0  0  0  0  0
   11.2148   50.5997   95.2181 O   0  0  0  0  0  0  0  0  0  0  0  0
   12.8327   51.9670   94.4392 N   0  0  0  0  0  0  0  0  0  0  0  0
   13.8167   51.9879   94.4153 H   0  0  0  0  0  0  0  0  0  0  0  0
   14.7016   50.4313   95.8583 C   0  0  0  0  0  0  0  0  0  0  0  0
   14.2938   49.9006   97.2181 C   0  0  0  0  0  0  0  0  0  0  0  0
   13.2279   49.0502   96.5532 C   0  0  0  0  0  0  0  0  0  0  0  0
   13.4827   49.7731   95.2451 C   0  0  0  0  0  0  0  0  0  0  0  0
   13.0410   54.4322   94.4747 C   0  0  0  0  0  0  0  0  0  0  0  0
   12.0184   55.5278   94.8297 C   0  0  0  0  0  0  0  0  0  0  0  0
   13.9921   54.9909   93.4024 C   0  0  0  0  0  0  0  0  0  0  0  0
   13.8255   54.0934   95.7633 C   0  0  0  0  0  0  0  0  0  0  0  0
 24 23  2  0  0  0
 24 25  1  0  0  0
 23 22  1  0  0  0
 26 25  1  0  0  0
 25 21  2  0  0  0
 22 21  1  0  0  0
 21 20  1  0  0  0
 20 19  2  0  0  0
 20 17  1  0  0  0
 19 18  1  0  0  0
 17 16  2  0  0  0
 18 15  2  0  0  0
 16 15  1  0  0  0
 15 14  1  0  0  0
 14 12  1  0  0  0
 12 10  1  0  0  0
  7  8  1  0  0  0
  7  5  1  0  0  0
 10 11  2  0  0  0
 10  8  1  0  0  0
  8  3  1  0  0  0
  5  6  1  0  0  0
  5  4  1  0  0  0
  3  4  1  0  0  0
  3  1  1  0  0  0
  2  1  2  0  0  0
  1 27  1  0  0  0
 38 36  1  0  0  0
 27 36  1  0  0  0
 27 30  1  0  0  0
 36 39  1  0  0  0
 36 37  1  0  0  0
 30 28  1  0  0  0
 28 29  2  0  0  0
 28 35  1  0  0  0
 35 34  1  0  0  0
 35 32  1  0  0  0
 34 33  1  0  0  0
 32 33  1  0  0  0
 30 31  1  0  0  0
  6  9  1  0  0  0
 12 13  1  0  0  0
M  END
> <minimizedAffinity>
-6.85495

$$$$
5NW1_9BH_C_301


 39 42  0  0  0  0  0  0  0  0999 V2000
   12.6243   52.8224   93.4520 C   0  0  0  0  0  0  0  0  0  0  0  0
   13.5291   53.2802   92.7715 O   0  0  0  0  0  0  0  0  0  0  0  0
   11.7083   51.9673   92.9313 N   0  0  0  0  0  0  0  0  0  0  0  0
   10.5931   51.1940   93.5770 C   0  0  0  0  0  0  0  0  0  0  0  0
   10.2771   50.0547   92.6080 C   0  0  0  0  0  0  0  0  0  0  0  0
   11.1285   48.9035   92.8214 O   0  0  0  0  0  0  0  0  0  0  0  0
   10.5703   50.6979   91.2513 C   0  0  0  0  0  0  0  0  0  0  0  0
   11.7729   51.6357   91.4693 C   0  0  0  0  0  0  0  0  0  0  0  0
   12.0578   49.1690   92.7393 H   0  0  0  0  0  0  0  0  0  0  0  0
   11.6325   52.7661   90.5983 C   0  0  0  0  0  0  0  0  0  0  0  0
   10.5776   53.3810   90.5127 O   0  0  0  0  0  0  0  0  0  0  0  0
   12.6663   53.0432   89.7883 N   0  0  0  0  0  0  0  0  0  0  0  0
   13.4968   52.5241   89.8887 H   0  0  0  0  0  0  0  0  0  0  0  0
   12.6090   54.1032   88.7441 C   0  0  0  0  0  0  0  0  0  0  0  0
   12.8951   53.5953   87.4260 C   0  0  0  0  0  0  0  0  0  0  0  0
   13.7943   54.2123   86.5527 C   0  0  0  0  0  0  0  0  0  0  0  0
   14.0525   53.6927   85.2723 C   0  0  0  0  0  0  0  0  0  0  0  0
   12.2692   52.4382   86.9656 C   0  0  0  0  0  0  0  0  0  0  0  0
   12.5208   51.9266   85.6839 C   0  0  0  0  0  0  0  0  0  0  0  0
   13.4154   52.5476   84.7994 C   0  0  0  0  0  0  0  0  0  0  0  0
   13.6672   52.0736   83.5468 C   0  0  0  0  0  0  0  0  0  0  0  0
   12.5112   51.3564   82.4417 S   0  0  0  0  0  0  0  0  0  0  0  0
   13.6042   51.0839   81.2324 C   0  0  0  0  0  0  0  0  0  0  0  0
   14.8083   51.4980   81.6463 N   0  0  0  0  0  0  0  0  0  0  0  0
   14.8495   52.0294   82.8896 C   0  0  0  0  0  0  0  0  0  0  0  0
   16.2056   52.5335   83.4283 C   0  0  0  0  0  0  0  0  0  0  0  0
   12.5597   53.1411   94.9736 C   0  0  0  0  0  0  0  0  0  0  0  0
   14.2844   51.3698   95.8550 C   0  0  0  0  0  0  0  0  0  0  0  0
   13.6425   50.3197   95.7319 O   0  0  0  0  0  0  0  0  0  0  0  0
   13.7698   52.5683   95.5839 N   0  0  0  0  0  0  0  0  0  0  0  0
   14.3798   53.2822   95.8796 H   0  0  0  0  0  0  0  0  0  0  0  0
   15.7801   52.2999   97.6414 C   0  0  0  0  0  0  0  0  0  0  0  0
   15.7687   51.0995   98.5665 C   0  0  0  0  0  0  0  0  0  0  0  0
   15.9333   50.1874   97.3655 C   0  0  0  0  0  0  0  0  0  0  0  0
   15.6943   51.3706   96.4482 C   0  0  0  0  0  0  0  0  0  0  0  0
   12.4235   54.6279   95.3243 C   0  0  0  0  0  0  0  0  0  0  0  0
   12.3705   54.7567   96.8581 C   0  0  0  0  0  0  0  0  0  0  0  0
   11.1103   55.1856   94.7489 C   0  0  0  0  0  0  0  0  0  0  0  0
   13.6247   55.4657   94.8286 C   0  0  0  0  0  0  0  0  0  0  0  0
 24 23  2  0  0  0
 24 25  1  0  0  0
 23 22  1  0  0  0
 26 25  1  0  0  0
 25 21  2  0  0  0
 22 21  1  0  0  0
 21 20  1  0  0  0
 20 19  2  0  0  0
 20 17  1  0  0  0
 19 18  1  0  0  0
 17 16  2  0  0  0
 18 15  2  0  0  0
 16 15  1  0  0  0
 15 14  1  0  0  0
 14 12  1  0  0  0
 12 10  1  0  0  0
  7  8  1  0  0  0
  7  5  1  0  0  0
 10 11  2  0  0  0
 10  8  1  0  0  0
  8  3  1  0  0  0
  5  6  1  0  0  0
  5  4  1  0  0  0
  3  4  1  0  0  0
  3  1  1  0  0  0
  2  1  2  0  0  0
  1 27  1  0  0  0
 38 36  1  0  0  0
 27 36  1  0  0  0
 27 30  1  0  0  0
 36 39  1  0  0  0
 36 37  1  0  0  0
 30 28  1  0  0  0
 28 29  2  0  0  0
 28 35  1  0  0  0
 35 34  1  0  0  0
 35 32  1  0  0  0
 34 33  1  0  0  0
 32 33  1  0  0  0
 30 31  1  0  0  0
  6  9  1  0  0  0
 12 13  1  0  0  0
M  END
> <minimizedAffinity>
-6.70132

$$$$
5NW1_9BH_C_301


 39 42  0  0  0  0  0  0  0  0999 V2000
   11.4138   52.1243   86.8666 C   0  0  0  0  0  0  0  0  0  0  0  0
   12.3655   52.8605   86.6576 O   0  0  0  0  0  0  0  0  0  0  0  0
   10.5047   52.3986   87.8360 N   0  0  0  0  0  0  0  0  0  0  0  0
    9.2126   51.7250   88.2039 C   0  0  0  0  0  0  0  0  0  0  0  0
    8.4212   52.7702   88.9902 C   0  0  0  0  0  0  0  0  0  0  0  0
    7.6583   53.6438   88.1239 O   0  0  0  0  0  0  0  0  0  0  0  0
    9.5327   53.5483   89.6968 C   0  0  0  0  0  0  0  0  0  0  0  0
   10.7175   53.5972   88.7133 C   0  0  0  0  0  0  0  0  0  0  0  0
    8.2556   54.0760   87.4934 H   0  0  0  0  0  0  0  0  0  0  0  0
   11.9368   53.5707   89.4676 C   0  0  0  0  0  0  0  0  0  0  0  0
   12.4506   52.5160   89.8166 O   0  0  0  0  0  0  0  0  0  0  0  0
   12.4222   54.7513   89.8826 N   0  0  0  0  0  0  0  0  0  0  0  0
   11.9786   55.5765   89.5801 H   0  0  0  0  0  0  0  0  0  0  0  0
   13.6037   54.8644   90.7816 C   0  0  0  0  0  0  0  0  0  0  0  0
   13.2316   55.0057   92.1669 C   0  0  0  0  0  0  0  0  0  0  0  0
   11.9558   54.6979   92.6460 C   0  0  0  0  0  0  0  0  0  0  0  0
   11.6227   54.8464   94.0036 C   0  0  0  0  0  0  0  0  0  0  0  0
   14.1577   55.4643   93.1019 C   0  0  0  0  0  0  0  0  0  0  0  0
   13.8207   55.6210   94.4546 C   0  0  0  0  0  0  0  0  0  0  0  0
   12.5383   55.3227   94.9392 C   0  0  0  0  0  0  0  0  0  0  0  0
   12.1865   55.4769   96.2467 C   0  0  0  0  0  0  0  0  0  0  0  0
   11.9672   54.2060   97.4336 S   0  0  0  0  0  0  0  0  0  0  0  0
   11.5720   55.2225   98.6753 C   0  0  0  0  0  0  0  0  0  0  0  0
   11.5824   56.4798   98.2150 N   0  0  0  0  0  0  0  0  0  0  0  0
   11.9103   56.6234   96.9105 C   0  0  0  0  0  0  0  0  0  0  0  0
   11.9481   58.0473   96.3152 C   0  0  0  0  0  0  0  0  0  0  0  0
   11.1701   50.8912   85.9497 C   0  0  0  0  0  0  0  0  0  0  0  0
   11.1418   51.2499   83.3497 C   0  0  0  0  0  0  0  0  0  0  0  0
   10.0936   50.6742   83.0339 O   0  0  0  0  0  0  0  0  0  0  0  0
   11.6094   51.2685   84.5970 N   0  0  0  0  0  0  0  0  0  0  0  0
   12.5181   51.6466   84.6207 H   0  0  0  0  0  0  0  0  0  0  0  0
   13.4933   51.5049   82.5137 C   0  0  0  0  0  0  0  0  0  0  0  0
   13.4064   50.5350   81.3524 C   0  0  0  0  0  0  0  0  0  0  0  0
   12.0479   51.1063   80.9924 C   0  0  0  0  0  0  0  0  0  0  0  0
   12.0443   51.8873   82.2920 C   0  0  0  0  0  0  0  0  0  0  0  0
   11.8532   49.5950   86.4031 C   0  0  0  0  0  0  0  0  0  0  0  0
   13.2208   49.5017   85.7010 C   0  0  0  0  0  0  0  0  0  0  0  0
   11.0103   48.3802   85.9783 C   0  0  0  0  0  0  0  0  0  0  0  0
   12.1100   49.5628   87.9274 C   0  0  0  0  0  0  0  0  0  0  0  0
 24 23  2  0  0  0
 24 25  1  0  0  0
 23 22  1  0  0  0
 26 25  1  0  0  0
 25 21  2  0  0  0
 22 21  1  0  0  0
 21 20  1  0  0  0
 20 19  2  0  0  0
 20 17  1  0  0  0
 19 18  1  0  0  0
 17 16  2  0  0  0
 18 15  2  0  0  0
 16 15  1  0  0  0
 15 14  1  0  0  0
 14 12  1  0  0  0
 12 10  1  0  0  0
  7  8  1  0  0  0
  7  5  1  0  0  0
 10 11  2  0  0  0
 10  8  1  0  0  0
  8  3  1  0  0  0
  5  6  1  0  0  0
  5  4  1  0  0  0
  3  4  1  0  0  0
  3  1  1  0  0  0
  2  1  2  0  0  0
  1 27  1  0  0  0
 38 36  1  0  0  0
 27 36  1  0  0  0
 27 30  1  0  0  0
 36 39  1  0  0  0
 36 37  1  0  0  0
 30 28  1  0  0  0
 28 29  2  0  0  0
 28 35  1  0  0  0
 35 34  1  0  0  0
 35 32  1  0  0  0
 34 33  1  0  0  0
 32 33  1  0  0  0
 30 31  1  0  0  0
  6  9  1  0  0  0
 12 13  1  0  0  0
M  END
> <minimizedAffinity>
-6.69473

$$$$
5NW1_9BH_C_301


 39 42  0  0  0  0  0  0  0  0999 V2000
   11.0671   52.8474   89.3958 C   0  0  0  0  0  0  0  0  0  0  0  0
   11.5305   53.5992   88.5523 O   0  0  0  0  0  0  0  0  0  0  0  0
   11.0902   51.5002   89.2343 N   0  0  0  0  0  0  0  0  0  0  0  0
   10.6968   50.3830   90.1593 C   0  0  0  0  0  0  0  0  0  0  0  0
   11.4239   49.1461   89.6317 C   0  0  0  0  0  0  0  0  0  0  0  0
   12.7685   49.0370   90.1568 O   0  0  0  0  0  0  0  0  0  0  0  0
   11.4533   49.4104   88.1252 C   0  0  0  0  0  0  0  0  0  0  0  0
   11.6355   50.9310   87.9574 C   0  0  0  0  0  0  0  0  0  0  0  0
   13.2667   49.8403   89.9393 H   0  0  0  0  0  0  0  0  0  0  0  0
   10.9352   51.3458   86.7769 C   0  0  0  0  0  0  0  0  0  0  0  0
    9.7790   51.0041   86.5652 O   0  0  0  0  0  0  0  0  0  0  0  0
   11.6411   52.0187   85.8546 N   0  0  0  0  0  0  0  0  0  0  0  0
   12.5688   52.2736   86.0639 H   0  0  0  0  0  0  0  0  0  0  0  0
   11.0792   52.3956   84.5282 C   0  0  0  0  0  0  0  0  0  0  0  0
   11.6077   51.5903   83.4561 C   0  0  0  0  0  0  0  0  0  0  0  0
   12.3296   50.4142   83.6741 C   0  0  0  0  0  0  0  0  0  0  0  0
   12.8328   49.6498   82.6070 C   0  0  0  0  0  0  0  0  0  0  0  0
   11.4091   51.9662   82.1288 C   0  0  0  0  0  0  0  0  0  0  0  0
   11.9202   51.2073   81.0655 C   0  0  0  0  0  0  0  0  0  0  0  0
   12.6541   50.0308   81.2789 C   0  0  0  0  0  0  0  0  0  0  0  0
   13.1681   49.2839   80.2616 C   0  0  0  0  0  0  0  0  0  0  0  0
   12.4105   47.9113   79.4779 S   0  0  0  0  0  0  0  0  0  0  0  0
   13.6534   47.6308   78.4253 C   0  0  0  0  0  0  0  0  0  0  0  0
   14.6215   48.5247   78.6627 N   0  0  0  0  0  0  0  0  0  0  0  0
   14.3678   49.4149   79.6492 C   0  0  0  0  0  0  0  0  0  0  0  0
   15.4390   50.4786   79.9718 C   0  0  0  0  0  0  0  0  0  0  0  0
   10.5195   53.4241   90.7331 C   0  0  0  0  0  0  0  0  0  0  0  0
   12.7207   54.2660   91.8887 C   0  0  0  0  0  0  0  0  0  0  0  0
   13.1777   53.2109   92.3443 O   0  0  0  0  0  0  0  0  0  0  0  0
   11.5477   54.3348   91.2608 N   0  0  0  0  0  0  0  0  0  0  0  0
   11.2935   55.2728   91.1033 H   0  0  0  0  0  0  0  0  0  0  0  0
   14.9296   55.4151   92.1940 C   0  0  0  0  0  0  0  0  0  0  0  0
   15.0581   55.9908   90.7979 C   0  0  0  0  0  0  0  0  0  0  0  0
   13.5969   56.3963   90.8436 C   0  0  0  0  0  0  0  0  0  0  0  0
   13.4280   55.6017   92.1238 C   0  0  0  0  0  0  0  0  0  0  0  0
    9.1633   54.1330   90.6318 C   0  0  0  0  0  0  0  0  0  0  0  0
    9.4211   55.6264   90.3575 C   0  0  0  0  0  0  0  0  0  0  0  0
    8.4063   54.0124   91.9657 C   0  0  0  0  0  0  0  0  0  0  0  0
    8.2964   53.5902   89.4724 C   0  0  0  0  0  0  0  0  0  0  0  0
 24 23  2  0  0  0
 24 25  1  0  0  0
 23 22  1  0  0  0
 26 25  1  0  0  0
 25 21  2  0  0  0
 22 21  1  0  0  0
 21 20  1  0  0  0
 20 19  2  0  0  0
 20 17  1  0  0  0
 19 18  1  0  0  0
 17 16  2  0  0  0
 18 15  2  0  0  0
 16 15  1  0  0  0
 15 14  1  0  0  0
 14 12  1  0  0  0
 12 10  1  0  0  0
  7  8  1  0  0  0
  7  5  1  0  0  0
 10 11  2  0  0  0
 10  8  1  0  0  0
  8  3  1  0  0  0
  5  6  1  0  0  0
  5  4  1  0  0  0
  3  4  1  0  0  0
  3  1  1  0  0  0
  2  1  2  0  0  0
  1 27  1  0  0  0
 38 36  1  0  0  0
 27 36  1  0  0  0
 27 30  1  0  0  0
 36 39  1  0  0  0
 36 37  1  0  0  0
 30 28  1  0  0  0
 28 29  2  0  0  0
 28 35  1  0  0  0
 35 34  1  0  0  0
 35 32  1  0  0  0
 34 33  1  0  0  0
 32 33  1  0  0  0
 30 31  1  0  0  0
  6  9  1  0  0  0
 12 13  1  0  0  0
M  END
> <minimizedAffinity>
-6.68097

$$$$
5NW1_9BH_C_301


 39 42  0  0  0  0  0  0  0  0999 V2000
   10.9577   54.6048   94.3405 C   0  0  0  0  0  0  0  0  0  0  0  0
   11.6919   55.4366   94.8509 O   0  0  0  0  0  0  0  0  0  0  0  0
    9.6601   54.4784   94.7167 N   0  0  0  0  0  0  0  0  0  0  0  0
    8.5470   53.6284   94.1713 C   0  0  0  0  0  0  0  0  0  0  0  0
    7.2573   54.2968   94.6474 C   0  0  0  0  0  0  0  0  0  0  0  0
    6.8232   55.3477   93.7514 O   0  0  0  0  0  0  0  0  0  0  0  0
    7.6784   54.8794   95.9978 C   0  0  0  0  0  0  0  0  0  0  0  0
    9.1409   55.3351   95.8339 C   0  0  0  0  0  0  0  0  0  0  0  0
    7.5301   56.0054   93.6580 H   0  0  0  0  0  0  0  0  0  0  0  0
    9.8176   55.1522   97.0848 C   0  0  0  0  0  0  0  0  0  0  0  0
   10.3608   56.0854   97.6611 O   0  0  0  0  0  0  0  0  0  0  0  0
    9.9389   53.8929   97.5333 N   0  0  0  0  0  0  0  0  0  0  0  0
    9.4873   53.1706   97.0397 H   0  0  0  0  0  0  0  0  0  0  0  0
   10.7281   53.5432   98.7466 C   0  0  0  0  0  0  0  0  0  0  0  0
   11.9981   52.9427   98.4246 C   0  0  0  0  0  0  0  0  0  0  0  0
   13.0009   53.6164   97.7229 C   0  0  0  0  0  0  0  0  0  0  0  0
   14.2300   53.0033   97.4235 C   0  0  0  0  0  0  0  0  0  0  0  0
   12.2779   51.6343   98.8150 C   0  0  0  0  0  0  0  0  0  0  0  0
   13.5012   51.0209   98.5069 C   0  0  0  0  0  0  0  0  0  0  0  0
   14.5079   51.6895   97.7942 C   0  0  0  0  0  0  0  0  0  0  0  0
   15.6993   51.1098   97.4756 C   0  0  0  0  0  0  0  0  0  0  0  0
   17.2046   51.2434   98.3634 S   0  0  0  0  0  0  0  0  0  0  0  0
   18.0744   50.2855   97.3353 C   0  0  0  0  0  0  0  0  0  0  0  0
   17.2702   49.8894   96.3407 N   0  0  0  0  0  0  0  0  0  0  0  0
   15.9931   50.3300   96.4092 C   0  0  0  0  0  0  0  0  0  0  0  0
   15.0093   49.9058   95.2977 C   0  0  0  0  0  0  0  0  0  0  0  0
   11.4778   53.7263   93.1664 C   0  0  0  0  0  0  0  0  0  0  0  0
   12.3175   54.9547   91.0041 C   0  0  0  0  0  0  0  0  0  0  0  0
   11.6595   54.3836   90.1263 O   0  0  0  0  0  0  0  0  0  0  0  0
   12.2663   54.6056   92.2888 N   0  0  0  0  0  0  0  0  0  0  0  0
   12.9621   55.0751   92.8033 H   0  0  0  0  0  0  0  0  0  0  0  0
   14.3914   56.1647   91.7309 C   0  0  0  0  0  0  0  0  0  0  0  0
   15.3788   55.4350   90.8422 C   0  0  0  0  0  0  0  0  0  0  0  0
   14.3983   55.5373   89.6891 C   0  0  0  0  0  0  0  0  0  0  0  0
   13.3377   56.0379   90.6500 C   0  0  0  0  0  0  0  0  0  0  0  0
   12.2948   52.4969   93.5827 C   0  0  0  0  0  0  0  0  0  0  0  0
   13.7361   52.9543   93.8748 C   0  0  0  0  0  0  0  0  0  0  0  0
   12.3372   51.4790   92.4300 C   0  0  0  0  0  0  0  0  0  0  0  0
   11.7493   51.8304   94.8668 C   0  0  0  0  0  0  0  0  0  0  0  0
 24 23  2  0  0  0
 24 25  1  0  0  0
 23 22  1  0  0  0
 26 25  1  0  0  0
 25 21  2  0  0  0
 22 21  1  0  0  0
 21 20  1  0  0  0
 20 19  2  0  0  0
 20 17  1  0  0  0
 19 18  1  0  0  0
 17 16  2  0  0  0
 18 15  2  0  0  0
 16 15  1  0  0  0
 15 14  1  0  0  0
 14 12  1  0  0  0
 12 10  1  0  0  0
  7  8  1  0  0  0
  7  5  1  0  0  0
 10 11  2  0  0  0
 10  8  1  0  0  0
  8  3  1  0  0  0
  5  6  1  0  0  0
  5  4  1  0  0  0
  3  4  1  0  0  0
  3  1  1  0  0  0
  2  1  2  0  0  0
  1 27  1  0  0  0
 38 36  1  0  0  0
 27 36  1  0  0  0
 27 30  1  0  0  0
 36 39  1  0  0  0
 36 37  1  0  0  0
 30 28  1  0  0  0
 28 29  2  0  0  0
 28 35  1  0  0  0
 35 34  1  0  0  0
 35 32  1  0  0  0
 34 33  1  0  0  0
 32 33  1  0  0  0
 30 31  1  0  0  0
  6  9  1  0  0  0
 12 13  1  0  0  0
M  END
> <minimizedAffinity>
-6.61681

$$$$
5NW1_9BH_C_301


 39 42  0  0  0  0  0  0  0  0999 V2000
   12.3502   51.7462   91.6943 C   0  0  0  0  0  0  0  0  0  0  0  0
   12.5501   51.7689   90.4898 O   0  0  0  0  0  0  0  0  0  0  0  0
   12.7814   50.7162   92.4654 N   0  0  0  0  0  0  0  0  0  0  0  0
   12.7608   50.5151   93.9546 C   0  0  0  0  0  0  0  0  0  0  0  0
   13.8235   49.4524   94.2340 C   0  0  0  0  0  0  0  0  0  0  0  0
   15.1444   50.0260   94.3825 O   0  0  0  0  0  0  0  0  0  0  0  0
   13.7501   48.5874   92.9743 C   0  0  0  0  0  0  0  0  0  0  0  0
   13.4568   49.5491   91.8071 C   0  0  0  0  0  0  0  0  0  0  0  0
   15.3704   50.5283   93.5841 H   0  0  0  0  0  0  0  0  0  0  0  0
   12.6471   48.8620   90.8435 C   0  0  0  0  0  0  0  0  0  0  0  0
   11.6182   48.2838   91.1680 O   0  0  0  0  0  0  0  0  0  0  0  0
   13.1305   48.7725   89.5945 N   0  0  0  0  0  0  0  0  0  0  0  0
   13.9620   49.2517   89.3748 H   0  0  0  0  0  0  0  0  0  0  0  0
   12.4611   47.9783   88.5275 C   0  0  0  0  0  0  0  0  0  0  0  0
   12.4121   48.6773   87.2681 C   0  0  0  0  0  0  0  0  0  0  0  0
   12.3292   50.0689   87.1742 C   0  0  0  0  0  0  0  0  0  0  0  0
   12.2828   50.7221   85.9303 C   0  0  0  0  0  0  0  0  0  0  0  0
   12.4492   47.9700   86.0678 C   0  0  0  0  0  0  0  0  0  0  0  0
   12.3930   48.6230   84.8276 C   0  0  0  0  0  0  0  0  0  0  0  0
   12.2999   50.0193   84.7276 C   0  0  0  0  0  0  0  0  0  0  0  0
   12.2342   50.6735   83.5340 C   0  0  0  0  0  0  0  0  0  0  0  0
   10.8342   50.8173   82.4893 S   0  0  0  0  0  0  0  0  0  0  0  0
   11.5982   51.7166   81.3323 C   0  0  0  0  0  0  0  0  0  0  0  0
   12.8731   51.8909   81.7024 N   0  0  0  0  0  0  0  0  0  0  0  0
   13.2219   51.3317   82.8837 C   0  0  0  0  0  0  0  0  0  0  0  0
   14.6758   51.4993   83.3749 C   0  0  0  0  0  0  0  0  0  0  0  0
   11.6711   52.9601   92.3915 C   0  0  0  0  0  0  0  0  0  0  0  0
   13.8302   54.4510   92.4627 C   0  0  0  0  0  0  0  0  0  0  0  0
   14.5876   53.7534   93.1479 O   0  0  0  0  0  0  0  0  0  0  0  0
   12.5659   54.1143   92.2117 N   0  0  0  0  0  0  0  0  0  0  0  0
   12.0891   54.8579   91.7772 H   0  0  0  0  0  0  0  0  0  0  0  0
   15.3491   55.6907   90.8976 C   0  0  0  0  0  0  0  0  0  0  0  0
   14.3288   55.9992   89.8202 C   0  0  0  0  0  0  0  0  0  0  0  0
   13.3241   56.3702   90.8947 C   0  0  0  0  0  0  0  0  0  0  0  0
   14.2668   55.8240   91.9491 C   0  0  0  0  0  0  0  0  0  0  0  0
   10.2550   53.2865   91.9014 C   0  0  0  0  0  0  0  0  0  0  0  0
    9.5579   54.1375   92.9793 C   0  0  0  0  0  0  0  0  0  0  0  0
    9.4500   51.9884   91.7181 C   0  0  0  0  0  0  0  0  0  0  0  0
   10.2562   54.1063   90.5906 C   0  0  0  0  0  0  0  0  0  0  0  0
 24 23  2  0  0  0
 24 25  1  0  0  0
 23 22  1  0  0  0
 26 25  1  0  0  0
 25 21  2  0  0  0
 22 21  1  0  0  0
 21 20  1  0  0  0
 20 19  2  0  0  0
 20 17  1  0  0  0
 19 18  1  0  0  0
 17 16  2  0  0  0
 18 15  2  0  0  0
 16 15  1  0  0  0
 15 14  1  0  0  0
 14 12  1  0  0  0
 12 10  1  0  0  0
  7  8  1  0  0  0
  7  5  1  0  0  0
 10 11  2  0  0  0
 10  8  1  0  0  0
  8  3  1  0  0  0
  5  6  1  0  0  0
  5  4  1  0  0  0
  3  4  1  0  0  0
  3  1  1  0  0  0
  2  1  2  0  0  0
  1 27  1  0  0  0
 38 36  1  0  0  0
 27 36  1  0  0  0
 27 30  1  0  0  0
 36 39  1  0  0  0
 36 37  1  0  0  0
 30 28  1  0  0  0
 28 29  2  0  0  0
 28 35  1  0  0  0
 35 34  1  0  0  0
 35 32  1  0  0  0
 34 33  1  0  0  0
 32 33  1  0  0  0
 30 31  1  0  0  0
  6  9  1  0  0  0
 12 13  1  0  0  0
M  END
> <minimizedAffinity>
-6.53480

$$$$
