5ZAJ_32I_U_301


 36 38  0  0  0  0  0  0  0  0999 V2000
  -29.0509  -16.6363   -3.5149 C   0  0  0  0  0  0  0  0  0  0  0  0
  -29.3946  -15.8380   -2.4799 N   0  0  0  0  0  0  0  0  0  0  0  0
  -28.5566  -14.8976   -1.9824 C   0  0  0  0  0  0  0  0  0  0  0  0
  -27.8049  -16.4810   -4.1044 C   0  0  0  0  0  0  0  0  0  0  0  0
  -27.4352  -17.2535   -5.1505 N   0  0  0  0  0  0  0  0  0  0  0  0
  -26.9640  -15.5386   -3.6205 N   0  0  0  0  0  0  0  0  0  0  0  0
  -27.2778  -14.7140   -2.5662 C   0  0  0  0  0  0  0  0  0  0  0  0
  -26.5483  -17.1346   -5.5611 H   0  0  0  0  0  0  0  0  0  0  0  0
  -28.0528  -17.9351   -5.5017 H   0  0  0  0  0  0  0  0  0  0  0  0
  -26.2710  -13.7723   -2.1840 N   0  0  0  0  0  0  0  0  0  0  0  0
  -25.6147  -13.7484   -0.8594 C   0  0  0  0  0  0  0  0  0  0  0  0
  -25.2683  -12.3350   -0.3782 C   0  0  0  0  0  0  0  0  0  0  0  0
  -25.8393  -12.7563   -3.1632 C   0  0  0  0  0  0  0  0  0  0  0  0
  -26.4697  -11.3918   -2.8589 C   0  0  0  0  0  0  0  0  0  0  0  0
  -27.3102  -11.3010   -1.5804 C   0  0  0  0  0  0  0  0  0  0  0  0
  -26.4910  -11.4227   -0.2954 C   0  0  0  0  0  0  0  0  0  0  0  0
  -29.1789  -14.1559   -0.8463 C   0  0  0  0  0  0  0  0  0  0  0  0
  -30.0744  -13.1224   -1.1418 C   0  0  0  0  0  0  0  0  0  0  0  0
  -28.9320  -14.4644    0.4909 C   0  0  0  0  0  0  0  0  0  0  0  0
  -29.5543  -13.7448    1.4552 N   0  0  0  0  0  0  0  0  0  0  0  0
  -30.4109  -12.7437    1.1547 C   0  0  0  0  0  0  0  0  0  0  0  0
  -30.6721  -12.4344   -0.1457 N   0  0  0  0  0  0  0  0  0  0  0  0
  -28.0716  -15.4665    0.8597 O   0  0  0  0  0  0  0  0  0  0  0  0
  -28.5559  -16.7651    1.2221 C   0  0  0  0  0  0  0  0  0  0  0  0
  -30.9876  -12.0640    2.1957 O   0  0  0  0  0  0  0  0  0  0  0  0
  -30.8447  -12.4322    3.5654 C   0  0  0  0  0  0  0  0  0  0  0  0
  -30.3196  -17.6927   -5.1859 O   0  0  0  0  0  0  0  0  0  0  0  0
  -30.0514  -17.6357   -3.9934 C   0  0  0  0  0  0  0  0  0  0  0  0
  -30.6361  -18.3772   -3.0406 N   0  0  0  0  0  0  0  0  0  0  0  0
  -30.4450  -18.1318   -2.1065 H   0  0  0  0  0  0  0  0  0  0  0  0
  -31.4487  -19.4114   -3.2354 C   0  0  0  0  0  0  0  0  0  0  0  0
  -32.2438  -19.4315   -4.2101 N   0  0  0  0  0  0  0  0  0  0  0  0
  -31.4123  -20.4070   -2.3593 N   0  0  0  0  0  0  0  0  0  0  0  0
  -32.2568  -18.6837   -4.8503 H   0  0  0  0  0  0  0  0  0  0  0  0
  -32.0017  -21.1870   -2.4758 H   0  0  0  0  0  0  0  0  0  0  0  0
  -30.7959  -20.3659   -1.5927 H   0  0  0  0  0  0  0  0  0  0  0  0
  5  4  1  0  0  0
 27 28  2  0  0  0
 32 31  2  0  0  0
  4  6  2  0  0  0
  4  1  1  0  0  0
 28  1  1  0  0  0
 28 29  1  0  0  0
  6  7  1  0  0  0
  1  2  2  0  0  0
 31 29  1  0  0  0
 31 33  1  0  0  0
 14 13  1  0  0  0
 14 15  1  0  0  0
 13 10  1  0  0  0
  7 10  1  0  0  0
  7  3  2  0  0  0
  2  3  1  0  0  0
 15 16  1  0  0  0
 10 11  1  0  0  0
  3 17  1  0  0  0
 16 12  1  0  0  0
 11 12  1  0  0  0
 17 19  2  0  0  0
 17 18  1  0  0  0
 23 19  1  0  0  0
 23 24  1  0  0  0
 19 20  1  0  0  0
 18 22  2  0  0  0
 22 21  1  0  0  0
 20 21  2  0  0  0
 21 25  1  0  0  0
 25 26  1  0  0  0
 29 30  1  0  0  0
 32 34  1  0  0  0
 33 35  1  0  0  0
 33 36  1  0  0  0
  5  8  1  0  0  0
  5  9  1  0  0  0
M  END
> <minimizedAffinity>
-8.82385

$$$$
5ZAJ_32I_U_301


 36 38  0  0  0  0  0  0  0  0999 V2000
  -29.2793  -17.4465   -2.8145 C   0  0  0  0  0  0  0  0  0  0  0  0
  -29.1288  -17.3417   -1.4755 N   0  0  0  0  0  0  0  0  0  0  0  0
  -28.3839  -16.3647   -0.9056 C   0  0  0  0  0  0  0  0  0  0  0  0
  -28.6667  -16.5145   -3.6393 C   0  0  0  0  0  0  0  0  0  0  0  0
  -28.8085  -16.5823   -4.9820 N   0  0  0  0  0  0  0  0  0  0  0  0
  -27.9277  -15.5296   -3.0794 N   0  0  0  0  0  0  0  0  0  0  0  0
  -27.7482  -15.3963   -1.7230 C   0  0  0  0  0  0  0  0  0  0  0  0
  -28.3692  -15.9154   -5.5577 H   0  0  0  0  0  0  0  0  0  0  0  0
  -29.3511  -17.2987   -5.3842 H   0  0  0  0  0  0  0  0  0  0  0  0
  -26.9365  -14.2962   -1.3019 N   0  0  0  0  0  0  0  0  0  0  0  0
  -27.4420  -12.9230   -1.0900 C   0  0  0  0  0  0  0  0  0  0  0  0
  -26.4253  -11.8373   -1.4602 C   0  0  0  0  0  0  0  0  0  0  0  0
  -25.5012  -14.5274   -1.0488 C   0  0  0  0  0  0  0  0  0  0  0  0
  -24.6448  -14.0164   -2.2140 C   0  0  0  0  0  0  0  0  0  0  0  0
  -25.3900  -13.2845   -3.3357 C   0  0  0  0  0  0  0  0  0  0  0  0
  -25.9629  -11.9315   -2.9132 C   0  0  0  0  0  0  0  0  0  0  0  0
  -28.3833  -16.4747    0.5830 C   0  0  0  0  0  0  0  0  0  0  0  0
  -29.3347  -15.7423    1.3012 C   0  0  0  0  0  0  0  0  0  0  0  0
  -27.5003  -17.2937    1.2857 C   0  0  0  0  0  0  0  0  0  0  0  0
  -27.5841  -17.3403    2.6370 N   0  0  0  0  0  0  0  0  0  0  0  0
  -28.5032  -16.6210    3.3180 C   0  0  0  0  0  0  0  0  0  0  0  0
  -29.3805  -15.8230    2.6482 N   0  0  0  0  0  0  0  0  0  0  0  0
  -26.5441  -18.0453    0.6524 O   0  0  0  0  0  0  0  0  0  0  0  0
  -25.5106  -18.7076    1.3909 C   0  0  0  0  0  0  0  0  0  0  0  0
  -28.5084  -16.7236    4.6847 O   0  0  0  0  0  0  0  0  0  0  0  0
  -28.0455  -17.8662    5.4005 C   0  0  0  0  0  0  0  0  0  0  0  0
  -29.8262  -19.0937   -4.3974 O   0  0  0  0  0  0  0  0  0  0  0  0
  -30.1289  -18.5555   -3.3410 C   0  0  0  0  0  0  0  0  0  0  0  0
  -31.2221  -18.8452   -2.6195 N   0  0  0  0  0  0  0  0  0  0  0  0
  -31.4348  -18.2403   -1.8725 H   0  0  0  0  0  0  0  0  0  0  0  0
  -32.0461  -19.8701   -2.8155 C   0  0  0  0  0  0  0  0  0  0  0  0
  -32.0098  -20.5306   -3.8856 N   0  0  0  0  0  0  0  0  0  0  0  0
  -32.9211  -20.1583   -1.8609 N   0  0  0  0  0  0  0  0  0  0  0  0
  -31.3535  -20.3022   -4.5830 H   0  0  0  0  0  0  0  0  0  0  0  0
  -33.5449  -20.9113   -1.9760 H   0  0  0  0  0  0  0  0  0  0  0  0
  -32.9467  -19.6193   -1.0375 H   0  0  0  0  0  0  0  0  0  0  0  0
  5  4  1  0  0  0
 27 28  2  0  0  0
 32 31  2  0  0  0
  4  6  2  0  0  0
  4  1  1  0  0  0
 28  1  1  0  0  0
 28 29  1  0  0  0
  6  7  1  0  0  0
  1  2  2  0  0  0
 31 29  1  0  0  0
 31 33  1  0  0  0
 14 13  1  0  0  0
 14 15  1  0  0  0
 13 10  1  0  0  0
  7 10  1  0  0  0
  7  3  2  0  0  0
  2  3  1  0  0  0
 15 16  1  0  0  0
 10 11  1  0  0  0
  3 17  1  0  0  0
 16 12  1  0  0  0
 11 12  1  0  0  0
 17 19  2  0  0  0
 17 18  1  0  0  0
 23 19  1  0  0  0
 23 24  1  0  0  0
 19 20  1  0  0  0
 18 22  2  0  0  0
 22 21  1  0  0  0
 20 21  2  0  0  0
 21 25  1  0  0  0
 25 26  1  0  0  0
 29 30  1  0  0  0
 32 34  1  0  0  0
 33 35  1  0  0  0
 33 36  1  0  0  0
  5  8  1  0  0  0
  5  9  1  0  0  0
M  END
> <minimizedAffinity>
-8.72669

$$$$
5ZAJ_32I_U_301


 36 38  0  0  0  0  0  0  0  0999 V2000
  -29.2277  -17.3351   -3.2905 C   0  0  0  0  0  0  0  0  0  0  0  0
  -29.2264  -16.8004   -2.0492 N   0  0  0  0  0  0  0  0  0  0  0  0
  -28.2239  -16.0057   -1.6050 C   0  0  0  0  0  0  0  0  0  0  0  0
  -28.1776  -17.0502   -4.1510 C   0  0  0  0  0  0  0  0  0  0  0  0
  -28.1550  -17.5574   -5.4040 N   0  0  0  0  0  0  0  0  0  0  0  0
  -27.1757  -16.2504   -3.7198 N   0  0  0  0  0  0  0  0  0  0  0  0
  -27.1387  -15.6948   -2.4628 C   0  0  0  0  0  0  0  0  0  0  0  0
  -27.4046  -17.3486   -6.0061 H   0  0  0  0  0  0  0  0  0  0  0  0
  -28.8890  -18.1355   -5.7143 H   0  0  0  0  0  0  0  0  0  0  0  0
  -26.0048  -14.8724   -2.1726 N   0  0  0  0  0  0  0  0  0  0  0  0
  -25.3626  -14.7803   -0.8441 C   0  0  0  0  0  0  0  0  0  0  0  0
  -24.8112  -13.3849   -0.5310 C   0  0  0  0  0  0  0  0  0  0  0  0
  -25.4176  -14.0624   -3.2574 C   0  0  0  0  0  0  0  0  0  0  0  0
  -25.8380  -12.5922   -3.1395 C   0  0  0  0  0  0  0  0  0  0  0  0
  -26.6651  -12.2184   -1.9045 C   0  0  0  0  0  0  0  0  0  0  0  0
  -25.8833  -12.2983   -0.5931 C   0  0  0  0  0  0  0  0  0  0  0  0
  -28.4671  -15.5488   -0.2050 C   0  0  0  0  0  0  0  0  0  0  0  0
  -28.0325  -16.3670    0.8433 C   0  0  0  0  0  0  0  0  0  0  0  0
  -29.0790  -14.3347    0.1044 C   0  0  0  0  0  0  0  0  0  0  0  0
  -29.2446  -13.9970    1.4058 N   0  0  0  0  0  0  0  0  0  0  0  0
  -28.8268  -14.8014    2.4081 C   0  0  0  0  0  0  0  0  0  0  0  0
  -28.2182  -15.9866    2.1254 N   0  0  0  0  0  0  0  0  0  0  0  0
  -29.5269  -13.4770   -0.8673 O   0  0  0  0  0  0  0  0  0  0  0  0
  -30.1852  -12.2503   -0.5292 C   0  0  0  0  0  0  0  0  0  0  0  0
  -29.0443  -14.3823    3.6947 O   0  0  0  0  0  0  0  0  0  0  0  0
  -28.4149  -13.2452    4.2805 C   0  0  0  0  0  0  0  0  0  0  0  0
  -30.7808  -18.1688   -4.8431 O   0  0  0  0  0  0  0  0  0  0  0  0
  -30.3854  -18.1911   -3.6853 C   0  0  0  0  0  0  0  0  0  0  0  0
  -30.9529  -18.8966   -2.6956 N   0  0  0  0  0  0  0  0  0  0  0  0
  -30.6377  -18.7126   -1.7812 H   0  0  0  0  0  0  0  0  0  0  0  0
  -31.8997  -19.8204   -2.8297 C   0  0  0  0  0  0  0  0  0  0  0  0
  -31.9847  -20.5083   -3.8795 N   0  0  0  0  0  0  0  0  0  0  0  0
  -32.7640  -19.9767   -1.8354 N   0  0  0  0  0  0  0  0  0  0  0  0
  -31.3342  -20.3785   -4.6071 H   0  0  0  0  0  0  0  0  0  0  0  0
  -33.4767  -20.6524   -1.9044 H   0  0  0  0  0  0  0  0  0  0  0  0
  -32.6927  -19.4171   -1.0286 H   0  0  0  0  0  0  0  0  0  0  0  0
  5  4  1  0  0  0
 27 28  2  0  0  0
 32 31  2  0  0  0
  4  6  2  0  0  0
  4  1  1  0  0  0
 28  1  1  0  0  0
 28 29  1  0  0  0
  6  7  1  0  0  0
  1  2  2  0  0  0
 31 29  1  0  0  0
 31 33  1  0  0  0
 14 13  1  0  0  0
 14 15  1  0  0  0
 13 10  1  0  0  0
  7 10  1  0  0  0
  7  3  2  0  0  0
  2  3  1  0  0  0
 15 16  1  0  0  0
 10 11  1  0  0  0
  3 17  1  0  0  0
 16 12  1  0  0  0
 11 12  1  0  0  0
 17 19  2  0  0  0
 17 18  1  0  0  0
 23 19  1  0  0  0
 23 24  1  0  0  0
 19 20  1  0  0  0
 18 22  2  0  0  0
 22 21  1  0  0  0
 20 21  2  0  0  0
 21 25  1  0  0  0
 25 26  1  0  0  0
 29 30  1  0  0  0
 32 34  1  0  0  0
 33 35  1  0  0  0
 33 36  1  0  0  0
  5  8  1  0  0  0
  5  9  1  0  0  0
M  END
> <minimizedAffinity>
-8.68264

$$$$
5ZAJ_32I_U_301


 36 38  0  0  0  0  0  0  0  0999 V2000
  -29.3980  -17.2669   -2.9002 C   0  0  0  0  0  0  0  0  0  0  0  0
  -29.2559  -17.0967   -1.5669 N   0  0  0  0  0  0  0  0  0  0  0  0
  -28.5759  -16.0510   -1.0395 C   0  0  0  0  0  0  0  0  0  0  0  0
  -28.8457  -16.3326   -3.7641 C   0  0  0  0  0  0  0  0  0  0  0  0
  -28.9816  -16.4654   -5.1026 N   0  0  0  0  0  0  0  0  0  0  0  0
  -28.1721  -15.2798   -3.2471 N   0  0  0  0  0  0  0  0  0  0  0  0
  -28.0029  -15.0787   -1.8976 C   0  0  0  0  0  0  0  0  0  0  0  0
  -28.5854  -15.7962   -5.7064 H   0  0  0  0  0  0  0  0  0  0  0  0
  -29.4766  -17.2313   -5.4736 H   0  0  0  0  0  0  0  0  0  0  0  0
  -27.2639  -13.9121   -1.5242 N   0  0  0  0  0  0  0  0  0  0  0  0
  -27.5759  -12.5450   -1.9927 C   0  0  0  0  0  0  0  0  0  0  0  0
  -26.3318  -11.6719   -2.1910 C   0  0  0  0  0  0  0  0  0  0  0  0
  -26.1181  -14.0598   -0.6062 C   0  0  0  0  0  0  0  0  0  0  0  0
  -24.7882  -14.0012   -1.3678 C   0  0  0  0  0  0  0  0  0  0  0  0
  -24.8763  -13.6985   -2.8677 C   0  0  0  0  0  0  0  0  0  0  0  0
  -25.3382  -12.2755   -3.1822 C   0  0  0  0  0  0  0  0  0  0  0  0
  -28.5697  -16.0986    0.4523 C   0  0  0  0  0  0  0  0  0  0  0  0
  -27.9955  -17.2111    1.0768 C   0  0  0  0  0  0  0  0  0  0  0  0
  -29.0818  -15.0752    1.2490 C   0  0  0  0  0  0  0  0  0  0  0  0
  -29.0192  -15.1998    2.5964 N   0  0  0  0  0  0  0  0  0  0  0  0
  -28.4687  -16.2842    3.1857 C   0  0  0  0  0  0  0  0  0  0  0  0
  -27.9545  -17.2894    2.4240 N   0  0  0  0  0  0  0  0  0  0  0  0
  -29.6551  -13.9516    0.7110 O   0  0  0  0  0  0  0  0  0  0  0  0
  -29.3886  -12.6513    1.2498 C   0  0  0  0  0  0  0  0  0  0  0  0
  -28.4571  -16.3285    4.5555 O   0  0  0  0  0  0  0  0  0  0  0  0
  -27.9599  -17.4285    5.3138 C   0  0  0  0  0  0  0  0  0  0  0  0
  -29.8140  -19.0333   -4.3915 O   0  0  0  0  0  0  0  0  0  0  0  0
  -30.1741  -18.4491   -3.3785 C   0  0  0  0  0  0  0  0  0  0  0  0
  -31.2711  -18.7523   -2.6685 N   0  0  0  0  0  0  0  0  0  0  0  0
  -31.5360  -18.1155   -1.9660 H   0  0  0  0  0  0  0  0  0  0  0  0
  -32.0354  -19.8294   -2.8216 C   0  0  0  0  0  0  0  0  0  0  0  0
  -32.0382  -20.4688   -3.9050 N   0  0  0  0  0  0  0  0  0  0  0  0
  -32.8107  -20.1933   -1.8084 N   0  0  0  0  0  0  0  0  0  0  0  0
  -31.4561  -20.1840   -4.6462 H   0  0  0  0  0  0  0  0  0  0  0  0
  -33.3882  -20.9864   -1.8906 H   0  0  0  0  0  0  0  0  0  0  0  0
  -32.8084  -19.6704   -0.9743 H   0  0  0  0  0  0  0  0  0  0  0  0
  5  4  1  0  0  0
 27 28  2  0  0  0
 32 31  2  0  0  0
  4  6  2  0  0  0
  4  1  1  0  0  0
 28  1  1  0  0  0
 28 29  1  0  0  0
  6  7  1  0  0  0
  1  2  2  0  0  0
 31 29  1  0  0  0
 31 33  1  0  0  0
 14 13  1  0  0  0
 14 15  1  0  0  0
 13 10  1  0  0  0
  7 10  1  0  0  0
  7  3  2  0  0  0
  2  3  1  0  0  0
 15 16  1  0  0  0
 10 11  1  0  0  0
  3 17  1  0  0  0
 16 12  1  0  0  0
 11 12  1  0  0  0
 17 19  2  0  0  0
 17 18  1  0  0  0
 23 19  1  0  0  0
 23 24  1  0  0  0
 19 20  1  0  0  0
 18 22  2  0  0  0
 22 21  1  0  0  0
 20 21  2  0  0  0
 21 25  1  0  0  0
 25 26  1  0  0  0
 29 30  1  0  0  0
 32 34  1  0  0  0
 33 35  1  0  0  0
 33 36  1  0  0  0
  5  8  1  0  0  0
  5  9  1  0  0  0
M  END
> <minimizedAffinity>
-8.52963

$$$$
5ZAJ_32I_U_301


 36 38  0  0  0  0  0  0  0  0999 V2000
  -29.3165  -17.2105   -2.6084 C   0  0  0  0  0  0  0  0  0  0  0  0
  -29.1770  -17.1495   -1.2654 N   0  0  0  0  0  0  0  0  0  0  0  0
  -28.5235  -16.1346   -0.6515 C   0  0  0  0  0  0  0  0  0  0  0  0
  -28.7896  -16.1930   -3.3902 C   0  0  0  0  0  0  0  0  0  0  0  0
  -28.9238  -16.2162   -4.7353 N   0  0  0  0  0  0  0  0  0  0  0  0
  -28.1427  -15.1703   -2.7860 N   0  0  0  0  0  0  0  0  0  0  0  0
  -27.9769  -15.0791   -1.4243 C   0  0  0  0  0  0  0  0  0  0  0  0
  -28.5458  -15.4886   -5.2804 H   0  0  0  0  0  0  0  0  0  0  0  0
  -29.3994  -16.9607   -5.1698 H   0  0  0  0  0  0  0  0  0  0  0  0
  -27.2678  -13.9294   -0.9534 N   0  0  0  0  0  0  0  0  0  0  0  0
  -26.3357  -13.9397    0.1942 C   0  0  0  0  0  0  0  0  0  0  0  0
  -26.3548  -12.6386    1.0042 C   0  0  0  0  0  0  0  0  0  0  0  0
  -27.4580  -12.6422   -1.6496 C   0  0  0  0  0  0  0  0  0  0  0  0
  -28.3957  -11.7201   -0.8606 C   0  0  0  0  0  0  0  0  0  0  0  0
  -28.8591  -12.2314    0.5080 C   0  0  0  0  0  0  0  0  0  0  0  0
  -27.7418  -12.3020    1.5491 C   0  0  0  0  0  0  0  0  0  0  0  0
  -28.5141  -16.3072    0.8312 C   0  0  0  0  0  0  0  0  0  0  0  0
  -29.4515  -15.5945    1.5865 C   0  0  0  0  0  0  0  0  0  0  0  0
  -27.6364  -17.1655    1.4923 C   0  0  0  0  0  0  0  0  0  0  0  0
  -27.7114  -17.2681    2.8410 N   0  0  0  0  0  0  0  0  0  0  0  0
  -28.6170  -16.5671    3.5584 C   0  0  0  0  0  0  0  0  0  0  0  0
  -29.4891  -15.7313    2.9292 N   0  0  0  0  0  0  0  0  0  0  0  0
  -26.6937  -17.9011    0.8209 O   0  0  0  0  0  0  0  0  0  0  0  0
  -25.6683  -18.6129    1.5238 C   0  0  0  0  0  0  0  0  0  0  0  0
  -28.6141  -16.7272    4.9195 O   0  0  0  0  0  0  0  0  0  0  0  0
  -28.3837  -17.9715    5.5759 C   0  0  0  0  0  0  0  0  0  0  0  0
  -29.6537  -18.8938   -4.2116 O   0  0  0  0  0  0  0  0  0  0  0  0
  -30.0624  -18.3679   -3.1851 C   0  0  0  0  0  0  0  0  0  0  0  0
  -31.1878  -18.7147   -2.5425 N   0  0  0  0  0  0  0  0  0  0  0  0
  -31.4879  -18.1188   -1.8186 H   0  0  0  0  0  0  0  0  0  0  0  0
  -31.9372  -19.7850   -2.7885 C   0  0  0  0  0  0  0  0  0  0  0  0
  -31.9458  -20.3174   -3.9283 N   0  0  0  0  0  0  0  0  0  0  0  0
  -32.6914  -20.2579   -1.8049 N   0  0  0  0  0  0  0  0  0  0  0  0
  -31.3794  -19.9528   -4.6463 H   0  0  0  0  0  0  0  0  0  0  0  0
  -33.2575  -21.0492   -1.9554 H   0  0  0  0  0  0  0  0  0  0  0  0
  -32.6850  -19.8176   -0.9244 H   0  0  0  0  0  0  0  0  0  0  0  0
  5  4  1  0  0  0
 27 28  2  0  0  0
 32 31  2  0  0  0
  4  6  2  0  0  0
  4  1  1  0  0  0
 28  1  1  0  0  0
 28 29  1  0  0  0
  6  7  1  0  0  0
  1  2  2  0  0  0
 31 29  1  0  0  0
 31 33  1  0  0  0
 14 13  1  0  0  0
 14 15  1  0  0  0
 13 10  1  0  0  0
  7 10  1  0  0  0
  7  3  2  0  0  0
  2  3  1  0  0  0
 15 16  1  0  0  0
 10 11  1  0  0  0
  3 17  1  0  0  0
 16 12  1  0  0  0
 11 12  1  0  0  0
 17 19  2  0  0  0
 17 18  1  0  0  0
 23 19  1  0  0  0
 23 24  1  0  0  0
 19 20  1  0  0  0
 18 22  2  0  0  0
 22 21  1  0  0  0
 20 21  2  0  0  0
 21 25  1  0  0  0
 25 26  1  0  0  0
 29 30  1  0  0  0
 32 34  1  0  0  0
 33 35  1  0  0  0
 33 36  1  0  0  0
  5  8  1  0  0  0
  5  9  1  0  0  0
M  END
> <minimizedAffinity>
-8.43621

$$$$
5ZAJ_32I_U_301


 36 38  0  0  0  0  0  0  0  0999 V2000
  -29.0085  -17.5797   -2.7959 C   0  0  0  0  0  0  0  0  0  0  0  0
  -28.5733  -17.7703   -1.5306 N   0  0  0  0  0  0  0  0  0  0  0  0
  -27.7056  -16.9225   -0.9287 C   0  0  0  0  0  0  0  0  0  0  0  0
  -28.5690  -16.4699   -3.5025 C   0  0  0  0  0  0  0  0  0  0  0  0
  -28.9958  -16.2420   -4.7650 N   0  0  0  0  0  0  0  0  0  0  0  0
  -27.7090  -15.6124   -2.9071 N   0  0  0  0  0  0  0  0  0  0  0  0
  -27.2412  -15.7783   -1.6251 C   0  0  0  0  0  0  0  0  0  0  0  0
  -28.6772  -15.4511   -5.2571 H   0  0  0  0  0  0  0  0  0  0  0  0
  -29.6252  -16.8670   -5.1921 H   0  0  0  0  0  0  0  0  0  0  0  0
  -26.3376  -14.7754   -1.1514 N   0  0  0  0  0  0  0  0  0  0  0  0
  -25.2448  -15.0288   -0.1883 C   0  0  0  0  0  0  0  0  0  0  0  0
  -24.9846  -13.8522    0.7589 C   0  0  0  0  0  0  0  0  0  0  0  0
  -26.4830  -13.3944   -1.6504 C   0  0  0  0  0  0  0  0  0  0  0  0
  -27.1712  -12.5005   -0.6116 C   0  0  0  0  0  0  0  0  0  0  0  0
  -27.4709  -13.1436    0.7471 C   0  0  0  0  0  0  0  0  0  0  0  0
  -26.2202  -13.4600    1.5674 C   0  0  0  0  0  0  0  0  0  0  0  0
  -27.3889  -17.3603    0.4628 C   0  0  0  0  0  0  0  0  0  0  0  0
  -26.2675  -18.1728    0.6620 C   0  0  0  0  0  0  0  0  0  0  0  0
  -28.1398  -16.9739    1.5722 C   0  0  0  0  0  0  0  0  0  0  0  0
  -27.7674  -17.4094    2.7997 N   0  0  0  0  0  0  0  0  0  0  0  0
  -26.6861  -18.2006    2.9760 C   0  0  0  0  0  0  0  0  0  0  0  0
  -25.9347  -18.5804    1.9053 N   0  0  0  0  0  0  0  0  0  0  0  0
  -29.2485  -16.1750    1.4582 O   0  0  0  0  0  0  0  0  0  0  0  0
  -29.6909  -15.3586    2.5490 C   0  0  0  0  0  0  0  0  0  0  0  0
  -26.3898  -18.6002    4.2530 O   0  0  0  0  0  0  0  0  0  0  0  0
  -25.3454  -18.0371    5.0430 C   0  0  0  0  0  0  0  0  0  0  0  0
  -29.7750  -19.0237   -4.4825 O   0  0  0  0  0  0  0  0  0  0  0  0
  -29.9718  -18.5688   -3.3638 C   0  0  0  0  0  0  0  0  0  0  0  0
  -31.0396  -18.8468   -2.6009 N   0  0  0  0  0  0  0  0  0  0  0  0
  -31.1599  -18.3025   -1.7894 H   0  0  0  0  0  0  0  0  0  0  0  0
  -31.9512  -19.7860   -2.8343 C   0  0  0  0  0  0  0  0  0  0  0  0
  -32.0292  -20.3426   -3.9599 N   0  0  0  0  0  0  0  0  0  0  0  0
  -32.7888  -20.0997   -1.8545 N   0  0  0  0  0  0  0  0  0  0  0  0
  -31.3990  -20.0970   -4.6752 H   0  0  0  0  0  0  0  0  0  0  0  0
  -33.4752  -20.7911   -1.9962 H   0  0  0  0  0  0  0  0  0  0  0  0
  -32.7240  -19.6410   -0.9858 H   0  0  0  0  0  0  0  0  0  0  0  0
  5  4  1  0  0  0
 27 28  2  0  0  0
 32 31  2  0  0  0
  4  6  2  0  0  0
  4  1  1  0  0  0
 28  1  1  0  0  0
 28 29  1  0  0  0
  6  7  1  0  0  0
  1  2  2  0  0  0
 31 29  1  0  0  0
 31 33  1  0  0  0
 14 13  1  0  0  0
 14 15  1  0  0  0
 13 10  1  0  0  0
  7 10  1  0  0  0
  7  3  2  0  0  0
  2  3  1  0  0  0
 15 16  1  0  0  0
 10 11  1  0  0  0
  3 17  1  0  0  0
 16 12  1  0  0  0
 11 12  1  0  0  0
 17 19  2  0  0  0
 17 18  1  0  0  0
 23 19  1  0  0  0
 23 24  1  0  0  0
 19 20  1  0  0  0
 18 22  2  0  0  0
 22 21  1  0  0  0
 20 21  2  0  0  0
 21 25  1  0  0  0
 25 26  1  0  0  0
 29 30  1  0  0  0
 32 34  1  0  0  0
 33 35  1  0  0  0
 33 36  1  0  0  0
  5  8  1  0  0  0
  5  9  1  0  0  0
M  END
> <minimizedAffinity>
-8.27201

$$$$
5ZAJ_32I_U_301


 36 38  0  0  0  0  0  0  0  0999 V2000
  -25.0239  -13.9649   -2.8780 C   0  0  0  0  0  0  0  0  0  0  0  0
  -25.9764  -14.8918   -3.1235 N   0  0  0  0  0  0  0  0  0  0  0  0
  -27.1590  -14.9061   -2.4637 C   0  0  0  0  0  0  0  0  0  0  0  0
  -25.2659  -12.9805   -1.9311 C   0  0  0  0  0  0  0  0  0  0  0  0
  -24.3401  -12.0301   -1.6714 N   0  0  0  0  0  0  0  0  0  0  0  0
  -26.4475  -12.9808   -1.2728 N   0  0  0  0  0  0  0  0  0  0  0  0
  -27.4357  -13.9110   -1.4924 C   0  0  0  0  0  0  0  0  0  0  0  0
  -24.5226  -11.3363   -0.9972 H   0  0  0  0  0  0  0  0  0  0  0  0
  -23.4834  -12.0319   -2.1565 H   0  0  0  0  0  0  0  0  0  0  0  0
  -28.6233  -13.7627   -0.7088 N   0  0  0  0  0  0  0  0  0  0  0  0
  -29.9347  -13.3540   -1.2559 C   0  0  0  0  0  0  0  0  0  0  0  0
  -30.7575  -12.4982   -0.2864 C   0  0  0  0  0  0  0  0  0  0  0  0
  -28.5590  -14.0391    0.7393 C   0  0  0  0  0  0  0  0  0  0  0  0
  -28.5078  -12.7376    1.5489 C   0  0  0  0  0  0  0  0  0  0  0  0
  -28.6419  -11.4353    0.7520 C   0  0  0  0  0  0  0  0  0  0  0  0
  -30.0287  -11.2261    0.1435 C   0  0  0  0  0  0  0  0  0  0  0  0
  -28.0288  -16.0285   -2.9235 C   0  0  0  0  0  0  0  0  0  0  0  0
  -28.7256  -15.8758   -4.1271 C   0  0  0  0  0  0  0  0  0  0  0  0
  -28.1551  -17.2292   -2.2259 C   0  0  0  0  0  0  0  0  0  0  0  0
  -28.9575  -18.1979   -2.7285 N   0  0  0  0  0  0  0  0  0  0  0  0
  -29.6309  -18.0331   -3.8885 C   0  0  0  0  0  0  0  0  0  0  0  0
  -29.5123  -16.8711   -4.5889 N   0  0  0  0  0  0  0  0  0  0  0  0
  -27.5001  -17.4557   -1.0426 O   0  0  0  0  0  0  0  0  0  0  0  0
  -28.2054  -17.4782    0.2041 C   0  0  0  0  0  0  0  0  0  0  0  0
  -30.4266  -19.0639   -4.3158 O   0  0  0  0  0  0  0  0  0  0  0  0
  -31.6842  -19.3957   -3.7322 C   0  0  0  0  0  0  0  0  0  0  0  0
  -22.6867  -13.8784   -3.0965 O   0  0  0  0  0  0  0  0  0  0  0  0
  -23.7583  -14.0325   -3.6669 C   0  0  0  0  0  0  0  0  0  0  0  0
  -23.9041  -14.2068   -4.9889 N   0  0  0  0  0  0  0  0  0  0  0  0
  -24.8213  -14.1655   -5.3443 H   0  0  0  0  0  0  0  0  0  0  0  0
  -22.9300  -14.4300   -5.8659 C   0  0  0  0  0  0  0  0  0  0  0  0
  -22.9406  -15.4563   -6.5934 N   0  0  0  0  0  0  0  0  0  0  0  0
  -21.9375  -13.5522   -5.9328 N   0  0  0  0  0  0  0  0  0  0  0  0
  -23.6856  -16.0969   -6.5301 H   0  0  0  0  0  0  0  0  0  0  0  0
  -21.2014  -13.6892   -6.5719 H   0  0  0  0  0  0  0  0  0  0  0  0
  -21.9372  -12.7637   -5.3432 H   0  0  0  0  0  0  0  0  0  0  0  0
  5  4  1  0  0  0
 27 28  2  0  0  0
 32 31  2  0  0  0
  4  6  2  0  0  0
  4  1  1  0  0  0
 28  1  1  0  0  0
 28 29  1  0  0  0
  6  7  1  0  0  0
  1  2  2  0  0  0
 31 29  1  0  0  0
 31 33  1  0  0  0
 14 13  1  0  0  0
 14 15  1  0  0  0
 13 10  1  0  0  0
  7 10  1  0  0  0
  7  3  2  0  0  0
  2  3  1  0  0  0
 15 16  1  0  0  0
 10 11  1  0  0  0
  3 17  1  0  0  0
 16 12  1  0  0  0
 11 12  1  0  0  0
 17 19  2  0  0  0
 17 18  1  0  0  0
 23 19  1  0  0  0
 23 24  1  0  0  0
 19 20  1  0  0  0
 18 22  2  0  0  0
 22 21  1  0  0  0
 20 21  2  0  0  0
 21 25  1  0  0  0
 25 26  1  0  0  0
 29 30  1  0  0  0
 32 34  1  0  0  0
 33 35  1  0  0  0
 33 36  1  0  0  0
  5  8  1  0  0  0
  5  9  1  0  0  0
M  END
> <minimizedAffinity>
-8.19236

$$$$
5ZAJ_32I_U_301


 36 38  0  0  0  0  0  0  0  0999 V2000
  -26.9308  -16.5072    1.0257 C   0  0  0  0  0  0  0  0  0  0  0  0
  -26.3474  -16.0838   -0.1176 N   0  0  0  0  0  0  0  0  0  0  0  0
  -26.7670  -14.9779   -0.7773 C   0  0  0  0  0  0  0  0  0  0  0  0
  -27.9852  -15.7791    1.5571 C   0  0  0  0  0  0  0  0  0  0  0  0
  -28.5818  -16.1672    2.7066 N   0  0  0  0  0  0  0  0  0  0  0  0
  -28.4061  -14.6682    0.9104 N   0  0  0  0  0  0  0  0  0  0  0  0
  -27.8406  -14.2122   -0.2567 C   0  0  0  0  0  0  0  0  0  0  0  0
  -29.3294  -15.6428    3.0746 H   0  0  0  0  0  0  0  0  0  0  0  0
  -28.2687  -16.9742    3.1756 H   0  0  0  0  0  0  0  0  0  0  0  0
  -28.4091  -13.0200   -0.8063 N   0  0  0  0  0  0  0  0  0  0  0  0
  -27.8763  -11.6607   -0.5731 C   0  0  0  0  0  0  0  0  0  0  0  0
  -28.9656  -10.5847   -0.5034 C   0  0  0  0  0  0  0  0  0  0  0  0
  -29.5993  -13.1330   -1.6713 C   0  0  0  0  0  0  0  0  0  0  0  0
  -30.8742  -12.7475   -0.9111 C   0  0  0  0  0  0  0  0  0  0  0  0
  -30.6827  -12.2259    0.5173 C   0  0  0  0  0  0  0  0  0  0  0  0
  -29.9993  -10.8601    0.5873 C   0  0  0  0  0  0  0  0  0  0  0  0
  -25.9551  -14.7323   -2.0055 C   0  0  0  0  0  0  0  0  0  0  0  0
  -24.8558  -13.8721   -1.9112 C   0  0  0  0  0  0  0  0  0  0  0  0
  -26.2238  -15.3416   -3.2305 C   0  0  0  0  0  0  0  0  0  0  0  0
  -25.4224  -15.0688   -4.2880 N   0  0  0  0  0  0  0  0  0  0  0  0
  -24.3685  -14.2293   -4.1840 C   0  0  0  0  0  0  0  0  0  0  0  0
  -24.0845  -13.6325   -2.9931 N   0  0  0  0  0  0  0  0  0  0  0  0
  -27.2795  -16.2003   -3.4002 O   0  0  0  0  0  0  0  0  0  0  0  0
  -28.5076  -15.7595   -3.9915 C   0  0  0  0  0  0  0  0  0  0  0  0
  -23.6182  -14.0055   -5.3088 O   0  0  0  0  0  0  0  0  0  0  0  0
  -23.0331  -12.7486   -5.6403 C   0  0  0  0  0  0  0  0  0  0  0  0
  -27.1601  -18.5857    2.0957 O   0  0  0  0  0  0  0  0  0  0  0  0
  -26.3864  -17.7340    1.6794 C   0  0  0  0  0  0  0  0  0  0  0  0
  -25.0524  -17.7805    1.8123 N   0  0  0  0  0  0  0  0  0  0  0  0
  -24.5532  -16.9662    1.5734 H   0  0  0  0  0  0  0  0  0  0  0  0
  -24.3389  -18.8195    2.2354 C   0  0  0  0  0  0  0  0  0  0  0  0
  -23.6042  -18.7255    3.2523 N   0  0  0  0  0  0  0  0  0  0  0  0
  -24.4068  -19.9475    1.5403 N   0  0  0  0  0  0  0  0  0  0  0  0
  -23.5665  -17.8803    3.7559 H   0  0  0  0  0  0  0  0  0  0  0  0
  -23.8903  -20.7347    1.8279 H   0  0  0  0  0  0  0  0  0  0  0  0
  -24.9736  -19.9972    0.7369 H   0  0  0  0  0  0  0  0  0  0  0  0
  5  4  1  0  0  0
 27 28  2  0  0  0
 32 31  2  0  0  0
  4  6  2  0  0  0
  4  1  1  0  0  0
 28  1  1  0  0  0
 28 29  1  0  0  0
  6  7  1  0  0  0
  1  2  2  0  0  0
 31 29  1  0  0  0
 31 33  1  0  0  0
 14 13  1  0  0  0
 14 15  1  0  0  0
 13 10  1  0  0  0
  7 10  1  0  0  0
  7  3  2  0  0  0
  2  3  1  0  0  0
 15 16  1  0  0  0
 10 11  1  0  0  0
  3 17  1  0  0  0
 16 12  1  0  0  0
 11 12  1  0  0  0
 17 19  2  0  0  0
 17 18  1  0  0  0
 23 19  1  0  0  0
 23 24  1  0  0  0
 19 20  1  0  0  0
 18 22  2  0  0  0
 22 21  1  0  0  0
 20 21  2  0  0  0
 21 25  1  0  0  0
 25 26  1  0  0  0
 29 30  1  0  0  0
 32 34  1  0  0  0
 33 35  1  0  0  0
 33 36  1  0  0  0
  5  8  1  0  0  0
  5  9  1  0  0  0
M  END
> <minimizedAffinity>
-7.33853

$$$$
5ZAJ_32I_U_301


 36 38  0  0  0  0  0  0  0  0999 V2000
  -28.1992  -13.1581    1.2590 C   0  0  0  0  0  0  0  0  0  0  0  0
  -28.3465  -14.0295    0.2364 N   0  0  0  0  0  0  0  0  0  0  0  0
  -27.8824  -15.3003    0.2965 C   0  0  0  0  0  0  0  0  0  0  0  0
  -27.5671  -13.5781    2.4201 C   0  0  0  0  0  0  0  0  0  0  0  0
  -27.4159  -12.7359    3.4669 N   0  0  0  0  0  0  0  0  0  0  0  0
  -27.1077  -14.8481    2.4934 N   0  0  0  0  0  0  0  0  0  0  0  0
  -27.2346  -15.7588    1.4713 C   0  0  0  0  0  0  0  0  0  0  0  0
  -26.9656  -13.0448    4.2861 H   0  0  0  0  0  0  0  0  0  0  0  0
  -27.7560  -11.8138    3.4099 H   0  0  0  0  0  0  0  0  0  0  0  0
  -26.6923  -17.0594    1.7180 N   0  0  0  0  0  0  0  0  0  0  0  0
  -27.4952  -18.2306    2.1295 C   0  0  0  0  0  0  0  0  0  0  0  0
  -26.7512  -19.1728    3.0826 C   0  0  0  0  0  0  0  0  0  0  0  0
  -25.2415  -17.2689    1.5478 C   0  0  0  0  0  0  0  0  0  0  0  0
  -24.5249  -17.3025    2.9032 C   0  0  0  0  0  0  0  0  0  0  0  0
  -25.4181  -17.2300    4.1467 C   0  0  0  0  0  0  0  0  0  0  0  0
  -26.2817  -18.4738    4.3574 C   0  0  0  0  0  0  0  0  0  0  0  0
  -28.1754  -16.0501   -0.9605 C   0  0  0  0  0  0  0  0  0  0  0  0
  -29.3991  -16.7206   -1.0614 C   0  0  0  0  0  0  0  0  0  0  0  0
  -27.3010  -16.0881   -2.0459 C   0  0  0  0  0  0  0  0  0  0  0  0
  -27.6591  -16.7834   -3.1519 N   0  0  0  0  0  0  0  0  0  0  0  0
  -28.8413  -17.4331   -3.2320 C   0  0  0  0  0  0  0  0  0  0  0  0
  -29.7126  -17.3991   -2.1857 N   0  0  0  0  0  0  0  0  0  0  0  0
  -26.0864  -15.4519   -2.0247 O   0  0  0  0  0  0  0  0  0  0  0  0
  -25.5673  -14.8032   -3.1917 C   0  0  0  0  0  0  0  0  0  0  0  0
  -29.1153  -18.1183   -4.3869 O   0  0  0  0  0  0  0  0  0  0  0  0
  -30.4017  -18.6324   -4.7232 C   0  0  0  0  0  0  0  0  0  0  0  0
  -29.3933  -11.2798    2.0099 O   0  0  0  0  0  0  0  0  0  0  0  0
  -28.7551  -11.7823    1.0948 C   0  0  0  0  0  0  0  0  0  0  0  0
  -28.5516  -11.2103   -0.1015 N   0  0  0  0  0  0  0  0  0  0  0  0
  -28.1556  -11.7761   -0.8031 H   0  0  0  0  0  0  0  0  0  0  0  0
  -28.8329   -9.9535   -0.4315 C   0  0  0  0  0  0  0  0  0  0  0  0
  -27.9196   -9.1547   -0.7641 N   0  0  0  0  0  0  0  0  0  0  0  0
  -30.0994   -9.5624   -0.3758 N   0  0  0  0  0  0  0  0  0  0  0  0
  -26.9852   -9.4628   -0.7999 H   0  0  0  0  0  0  0  0  0  0  0  0
  -30.3401   -8.6379   -0.6140 H   0  0  0  0  0  0  0  0  0  0  0  0
  -30.7986  -10.1966   -0.0963 H   0  0  0  0  0  0  0  0  0  0  0  0
  5  4  1  0  0  0
 27 28  2  0  0  0
 32 31  2  0  0  0
  4  6  2  0  0  0
  4  1  1  0  0  0
 28  1  1  0  0  0
 28 29  1  0  0  0
  6  7  1  0  0  0
  1  2  2  0  0  0
 31 29  1  0  0  0
 31 33  1  0  0  0
 14 13  1  0  0  0
 14 15  1  0  0  0
 13 10  1  0  0  0
  7 10  1  0  0  0
  7  3  2  0  0  0
  2  3  1  0  0  0
 15 16  1  0  0  0
 10 11  1  0  0  0
  3 17  1  0  0  0
 16 12  1  0  0  0
 11 12  1  0  0  0
 17 19  2  0  0  0
 17 18  1  0  0  0
 23 19  1  0  0  0
 23 24  1  0  0  0
 19 20  1  0  0  0
 18 22  2  0  0  0
 22 21  1  0  0  0
 20 21  2  0  0  0
 21 25  1  0  0  0
 25 26  1  0  0  0
 29 30  1  0  0  0
 32 34  1  0  0  0
 33 35  1  0  0  0
 33 36  1  0  0  0
  5  8  1  0  0  0
  5  9  1  0  0  0
M  END
> <minimizedAffinity>
-6.89058

$$$$
5ZAJ_32I_U_301


 36 38  0  0  0  0  0  0  0  0999 V2000
  -26.9164  -16.4571    1.1280 C   0  0  0  0  0  0  0  0  0  0  0  0
  -26.3402  -16.0477   -0.0240 N   0  0  0  0  0  0  0  0  0  0  0  0
  -26.7538  -14.9412   -0.6862 C   0  0  0  0  0  0  0  0  0  0  0  0
  -27.9566  -15.7135    1.6658 C   0  0  0  0  0  0  0  0  0  0  0  0
  -28.5456  -16.0874    2.8239 N   0  0  0  0  0  0  0  0  0  0  0  0
  -28.3714  -14.6018    1.0165 N   0  0  0  0  0  0  0  0  0  0  0  0
  -27.8129  -14.1597   -0.1594 C   0  0  0  0  0  0  0  0  0  0  0  0
  -29.2831  -15.5521    3.1963 H   0  0  0  0  0  0  0  0  0  0  0  0
  -28.2369  -16.8951    3.2947 H   0  0  0  0  0  0  0  0  0  0  0  0
  -28.3734  -12.9645   -0.7105 N   0  0  0  0  0  0  0  0  0  0  0  0
  -27.9206  -11.5992   -0.3683 C   0  0  0  0  0  0  0  0  0  0  0  0
  -29.0540  -10.5674   -0.3598 C   0  0  0  0  0  0  0  0  0  0  0  0
  -29.4691  -13.0798   -1.6922 C   0  0  0  0  0  0  0  0  0  0  0  0
  -30.8258  -12.7760   -1.0449 C   0  0  0  0  0  0  0  0  0  0  0  0
  -30.7940  -12.3149    0.4164 C   0  0  0  0  0  0  0  0  0  0  0  0
  -30.1761  -10.9302    0.6115 C   0  0  0  0  0  0  0  0  0  0  0  0
  -25.9521  -14.7127   -1.9244 C   0  0  0  0  0  0  0  0  0  0  0  0
  -26.2933  -15.4305   -3.0758 C   0  0  0  0  0  0  0  0  0  0  0  0
  -24.9016  -13.7985   -1.9935 C   0  0  0  0  0  0  0  0  0  0  0  0
  -24.2397  -13.6481   -3.1658 N   0  0  0  0  0  0  0  0  0  0  0  0
  -24.5753  -14.3544   -4.2680 C   0  0  0  0  0  0  0  0  0  0  0  0
  -25.6050  -15.2448   -4.2223 N   0  0  0  0  0  0  0  0  0  0  0  0
  -24.5118  -13.0545   -0.9096 O   0  0  0  0  0  0  0  0  0  0  0  0
  -23.9751  -11.7358   -1.0682 C   0  0  0  0  0  0  0  0  0  0  0  0
  -23.8442  -14.1432   -5.4077 O   0  0  0  0  0  0  0  0  0  0  0  0
  -22.5258  -14.6448   -5.6141 C   0  0  0  0  0  0  0  0  0  0  0  0
  -27.1584  -18.5084    2.2467 O   0  0  0  0  0  0  0  0  0  0  0  0
  -26.3794  -17.6861    1.7838 C   0  0  0  0  0  0  0  0  0  0  0  0
  -25.0429  -17.7667    1.8652 N   0  0  0  0  0  0  0  0  0  0  0  0
  -24.5320  -16.9711    1.5910 H   0  0  0  0  0  0  0  0  0  0  0  0
  -24.3411  -18.8170    2.2803 C   0  0  0  0  0  0  0  0  0  0  0  0
  -23.6083  -18.7400    3.3000 N   0  0  0  0  0  0  0  0  0  0  0  0
  -24.4186  -19.9375    1.5743 N   0  0  0  0  0  0  0  0  0  0  0  0
  -23.5633  -17.9001    3.8117 H   0  0  0  0  0  0  0  0  0  0  0  0
  -23.9109  -20.7327    1.8558 H   0  0  0  0  0  0  0  0  0  0  0  0
  -24.9837  -19.9739    0.7690 H   0  0  0  0  0  0  0  0  0  0  0  0
  5  4  1  0  0  0
 27 28  2  0  0  0
 32 31  2  0  0  0
  4  6  2  0  0  0
  4  1  1  0  0  0
 28  1  1  0  0  0
 28 29  1  0  0  0
  6  7  1  0  0  0
  1  2  2  0  0  0
 31 29  1  0  0  0
 31 33  1  0  0  0
 14 13  1  0  0  0
 14 15  1  0  0  0
 13 10  1  0  0  0
  7 10  1  0  0  0
  7  3  2  0  0  0
  2  3  1  0  0  0
 15 16  1  0  0  0
 10 11  1  0  0  0
  3 17  1  0  0  0
 16 12  1  0  0  0
 11 12  1  0  0  0
 17 19  2  0  0  0
 17 18  1  0  0  0
 23 19  1  0  0  0
 23 24  1  0  0  0
 19 20  1  0  0  0
 18 22  2  0  0  0
 22 21  1  0  0  0
 20 21  2  0  0  0
 21 25  1  0  0  0
 25 26  1  0  0  0
 29 30  1  0  0  0
 32 34  1  0  0  0
 33 35  1  0  0  0
 33 36  1  0  0  0
  5  8  1  0  0  0
  5  9  1  0  0  0
M  END
> <minimizedAffinity>
-6.87008

$$$$
