4WRB_3TW_A_201


 28 31  0  0  0  0  0  0  0  0999 V2000
  -12.9850   -0.6488   -3.2474 C   0  0  0  0  0  0  0  0  0  0  0  0
  -13.1242   -0.8881   -4.5596 N   0  0  0  0  0  0  0  0  0  0  0  0
  -11.8711    0.0292   -2.7584 C   0  0  0  0  0  0  0  0  0  0  0  0
  -10.8880    0.4707   -3.6296 C   0  0  0  0  0  0  0  0  0  0  0  0
  -11.0393    0.2251   -4.9778 C   0  0  0  0  0  0  0  0  0  0  0  0
  -10.0740    0.6683   -5.8733 C   0  0  0  0  0  0  0  0  0  0  0  0
  -12.1761   -0.4620   -5.4257 C   0  0  0  0  0  0  0  0  0  0  0  0
  -12.3484   -0.7222   -6.7766 C   0  0  0  0  0  0  0  0  0  0  0  0
  -11.3824   -0.2890   -7.6748 C   0  0  0  0  0  0  0  0  0  0  0  0
  -10.2529    0.4033   -7.2322 C   0  0  0  0  0  0  0  0  0  0  0  0
  -15.1765   -1.7784   -0.5774 N   0  0  0  0  0  0  0  0  0  0  0  0
  -13.9734   -1.2324   -0.9045 C   0  0  0  0  0  0  0  0  0  0  0  0
  -15.9289   -2.0039   -1.6874 N   0  0  0  0  0  0  0  0  0  0  0  0
  -15.1924   -1.6074   -2.7242 N   0  0  0  0  0  0  0  0  0  0  0  0
  -13.9904   -1.1321   -2.2779 C   0  0  0  0  0  0  0  0  0  0  0  0
  -16.8180   -2.7968    4.5875 O   0  0  0  0  0  0  0  0  0  0  0  0
  -16.3968   -2.5417    3.3397 C   0  0  0  0  0  0  0  0  0  0  0  0
  -17.3393   -2.2223    2.3873 C   0  0  0  0  0  0  0  0  0  0  0  0
  -16.9342   -1.9482    1.0891 C   0  0  0  0  0  0  0  0  0  0  0  0
  -15.0612   -2.6290    3.0261 C   0  0  0  0  0  0  0  0  0  0  0  0
  -14.6383   -2.3608    1.7335 C   0  0  0  0  0  0  0  0  0  0  0  0
  -15.5817   -2.0365    0.7593 C   0  0  0  0  0  0  0  0  0  0  0  0
  -16.1986   -3.0166    5.2554 H   0  0  0  0  0  0  0  0  0  0  0  0
   -9.3431    0.8176   -8.1765 O   0  0  0  0  0  0  0  0  0  0  0  0
   -8.4640   -0.0980   -8.8367 C   0  0  0  0  0  0  0  0  0  0  0  0
   -7.1439   -0.1078   -8.0914 C   0  0  0  0  0  0  0  0  0  0  0  0
   -6.7374   -1.4688   -7.9718 O   0  0  0  0  0  0  0  0  0  0  0  0
   -6.5229   -2.1036   -9.2325 C   0  0  0  0  0  0  0  0  0  0  0  0
 28 27  1  0  0  0
 27 26  1  0  0  0
 26 25  1  0  0  0
 24 25  1  0  0  0
 24 10  1  0  0  0
  9 10  2  0  0  0
  9  8  1  0  0  0
 10  6  1  0  0  0
  8  7  2  0  0  0
  6  5  2  0  0  0
  7  5  1  0  0  0
  7  2  1  0  0  0
  5  4  1  0  0  0
  2  1  2  0  0  0
  4  3  2  0  0  0
  1  3  1  0  0  0
  1 15  1  0  0  0
 14 15  1  0  0  0
 14 13  2  0  0  0
 15 12  2  0  0  0
 13 11  1  0  0  0
 12 11  1  0  0  0
 11 22  1  0  0  0
 22 21  2  0  0  0
 22 19  1  0  0  0
 21 20  1  0  0  0
 19 18  2  0  0  0
 20 17  2  0  0  0
 18 17  1  0  0  0
 17 16  1  0  0  0
 16 23  1  0  0  0
M  END
> <minimizedAffinity>
-9.66694

$$$$
4WRB_3TW_A_201


 28 31  0  0  0  0  0  0  0  0999 V2000
  -12.9760   -0.6151   -3.2561 C   0  0  0  0  0  0  0  0  0  0  0  0
  -13.1087   -0.8432   -4.5709 N   0  0  0  0  0  0  0  0  0  0  0  0
  -11.8649    0.0593   -2.7559 C   0  0  0  0  0  0  0  0  0  0  0  0
  -10.8778    0.5087   -3.6186 C   0  0  0  0  0  0  0  0  0  0  0  0
  -11.0225    0.2746   -4.9695 C   0  0  0  0  0  0  0  0  0  0  0  0
  -10.0531    0.7260   -5.8565 C   0  0  0  0  0  0  0  0  0  0  0  0
  -12.1567   -0.4092   -5.4288 C   0  0  0  0  0  0  0  0  0  0  0  0
  -12.3223   -0.6579   -6.7827 C   0  0  0  0  0  0  0  0  0  0  0  0
  -11.3522   -0.2166   -7.6724 C   0  0  0  0  0  0  0  0  0  0  0  0
  -10.2253    0.4725   -7.2184 C   0  0  0  0  0  0  0  0  0  0  0  0
  -15.1831   -1.7594   -0.6052 N   0  0  0  0  0  0  0  0  0  0  0  0
  -13.9850   -1.1963   -0.9213 C   0  0  0  0  0  0  0  0  0  0  0  0
  -15.9173   -2.0061   -1.7229 N   0  0  0  0  0  0  0  0  0  0  0  0
  -15.1740   -1.6058   -2.7533 N   0  0  0  0  0  0  0  0  0  0  0  0
  -13.9858   -1.1072   -2.2956 C   0  0  0  0  0  0  0  0  0  0  0  0
  -16.7380   -2.7299    4.5956 O   0  0  0  0  0  0  0  0  0  0  0  0
  -16.3820   -2.5011    3.3227 C   0  0  0  0  0  0  0  0  0  0  0  0
  -15.0466   -2.5850    2.9953 C   0  0  0  0  0  0  0  0  0  0  0  0
  -14.6478   -2.3589    1.6860 C   0  0  0  0  0  0  0  0  0  0  0  0
  -17.3302   -2.1639    2.3861 C   0  0  0  0  0  0  0  0  0  0  0  0
  -16.9499   -1.9321    1.0735 C   0  0  0  0  0  0  0  0  0  0  0  0
  -15.6013   -2.0135    0.7283 C   0  0  0  0  0  0  0  0  0  0  0  0
  -17.6394   -2.6795    4.8463 H   0  0  0  0  0  0  0  0  0  0  0  0
   -9.3111    0.8953   -8.1548 O   0  0  0  0  0  0  0  0  0  0  0  0
   -7.9016    0.7458   -7.9611 C   0  0  0  0  0  0  0  0  0  0  0  0
   -7.5314   -0.6920   -8.2675 C   0  0  0  0  0  0  0  0  0  0  0  0
   -6.4031   -1.0183   -7.4598 O   0  0  0  0  0  0  0  0  0  0  0  0
   -5.6495    0.1263   -7.0592 C   0  0  0  0  0  0  0  0  0  0  0  0
 28 27  1  0  0  0
 27 26  1  0  0  0
 26 25  1  0  0  0
 24 25  1  0  0  0
 24 10  1  0  0  0
  9 10  2  0  0  0
  9  8  1  0  0  0
 10  6  1  0  0  0
  8  7  2  0  0  0
  6  5  2  0  0  0
  7  5  1  0  0  0
  7  2  1  0  0  0
  5  4  1  0  0  0
  2  1  2  0  0  0
  4  3  2  0  0  0
  1  3  1  0  0  0
  1 15  1  0  0  0
 14 15  1  0  0  0
 14 13  2  0  0  0
 15 12  2  0  0  0
 13 11  1  0  0  0
 12 11  1  0  0  0
 11 22  1  0  0  0
 22 21  2  0  0  0
 22 19  1  0  0  0
 21 20  1  0  0  0
 19 18  2  0  0  0
 20 17  2  0  0  0
 18 17  1  0  0  0
 17 16  1  0  0  0
 16 23  1  0  0  0
M  END
> <minimizedAffinity>
-9.62690

$$$$
4WRB_3TW_A_201


 28 31  0  0  0  0  0  0  0  0999 V2000
  -12.9927   -0.6322   -3.2043 C   0  0  0  0  0  0  0  0  0  0  0  0
  -13.1183   -0.8652   -4.5190 N   0  0  0  0  0  0  0  0  0  0  0  0
  -11.8837    0.0430   -2.7006 C   0  0  0  0  0  0  0  0  0  0  0  0
  -10.8914    0.4882   -3.5594 C   0  0  0  0  0  0  0  0  0  0  0  0
  -11.0288    0.2491   -4.9102 C   0  0  0  0  0  0  0  0  0  0  0  0
  -10.0541    0.6962   -5.7935 C   0  0  0  0  0  0  0  0  0  0  0  0
  -12.1611   -0.4354   -5.3732 C   0  0  0  0  0  0  0  0  0  0  0  0
  -12.3195   -0.6891   -6.7270 C   0  0  0  0  0  0  0  0  0  0  0  0
  -11.3440   -0.2521   -7.6130 C   0  0  0  0  0  0  0  0  0  0  0  0
  -10.2189    0.4377   -7.1554 C   0  0  0  0  0  0  0  0  0  0  0  0
  -15.2101   -1.7797   -0.5635 N   0  0  0  0  0  0  0  0  0  0  0  0
  -13.9994   -1.2420   -0.8758 C   0  0  0  0  0  0  0  0  0  0  0  0
  -15.9593   -1.9793   -1.6806 N   0  0  0  0  0  0  0  0  0  0  0  0
  -15.2131   -1.5746   -2.7073 N   0  0  0  0  0  0  0  0  0  0  0  0
  -14.0083   -1.1197   -2.2476 C   0  0  0  0  0  0  0  0  0  0  0  0
  -16.8893   -2.8610    4.5765 O   0  0  0  0  0  0  0  0  0  0  0  0
  -16.4588   -2.5913    3.3350 C   0  0  0  0  0  0  0  0  0  0  0  0
  -17.3914   -2.2345    2.3860 C   0  0  0  0  0  0  0  0  0  0  0  0
  -16.9764   -1.9444    1.0945 C   0  0  0  0  0  0  0  0  0  0  0  0
  -15.1242   -2.7003    3.0236 C   0  0  0  0  0  0  0  0  0  0  0  0
  -14.6916   -2.4167    1.7376 C   0  0  0  0  0  0  0  0  0  0  0  0
  -15.6250   -2.0545    0.7670 C   0  0  0  0  0  0  0  0  0  0  0  0
  -16.2768   -3.1062    5.2419 H   0  0  0  0  0  0  0  0  0  0  0  0
   -9.2992    0.8560   -8.0883 O   0  0  0  0  0  0  0  0  0  0  0  0
   -8.3628    1.9026   -7.8149 C   0  0  0  0  0  0  0  0  0  0  0  0
   -7.0266    1.2677   -7.4838 C   0  0  0  0  0  0  0  0  0  0  0  0
   -6.6378    1.7488   -6.1996 O   0  0  0  0  0  0  0  0  0  0  0  0
   -7.1891    3.0287   -5.8889 C   0  0  0  0  0  0  0  0  0  0  0  0
 28 27  1  0  0  0
 27 26  1  0  0  0
 26 25  1  0  0  0
 24 25  1  0  0  0
 24 10  1  0  0  0
  9 10  2  0  0  0
  9  8  1  0  0  0
 10  6  1  0  0  0
  8  7  2  0  0  0
  6  5  2  0  0  0
  7  5  1  0  0  0
  7  2  1  0  0  0
  5  4  1  0  0  0
  2  1  2  0  0  0
  4  3  2  0  0  0
  1  3  1  0  0  0
  1 15  1  0  0  0
 14 15  1  0  0  0
 14 13  2  0  0  0
 15 12  2  0  0  0
 13 11  1  0  0  0
 12 11  1  0  0  0
 11 22  1  0  0  0
 22 21  2  0  0  0
 22 19  1  0  0  0
 21 20  1  0  0  0
 19 18  2  0  0  0
 20 17  2  0  0  0
 18 17  1  0  0  0
 17 16  1  0  0  0
 16 23  1  0  0  0
M  END
> <minimizedAffinity>
-9.50156

$$$$
4WRB_3TW_A_201


 28 31  0  0  0  0  0  0  0  0999 V2000
  -12.9763    0.2759   -2.8189 C   0  0  0  0  0  0  0  0  0  0  0  0
  -13.3560    1.4279   -3.3908 N   0  0  0  0  0  0  0  0  0  0  0  0
  -11.6965   -0.2348   -3.0206 C   0  0  0  0  0  0  0  0  0  0  0  0
  -10.7927    0.4489   -3.8182 C   0  0  0  0  0  0  0  0  0  0  0  0
  -11.1881    1.6348   -4.3997 C   0  0  0  0  0  0  0  0  0  0  0  0
  -10.2967    2.3458   -5.1935 C   0  0  0  0  0  0  0  0  0  0  0  0
  -12.4863    2.1111   -4.1702 C   0  0  0  0  0  0  0  0  0  0  0  0
  -12.9066    3.3001   -4.7465 C   0  0  0  0  0  0  0  0  0  0  0  0
  -12.0225    4.0101   -5.5476 C   0  0  0  0  0  0  0  0  0  0  0  0
  -10.7256    3.5422   -5.7710 C   0  0  0  0  0  0  0  0  0  0  0  0
  -15.0753   -1.5233   -0.4598 N   0  0  0  0  0  0  0  0  0  0  0  0
  -14.0405   -0.6549   -0.6261 C   0  0  0  0  0  0  0  0  0  0  0  0
  -15.5952   -1.8994   -1.6586 N   0  0  0  0  0  0  0  0  0  0  0  0
  -14.8776   -1.2727   -2.5896 N   0  0  0  0  0  0  0  0  0  0  0  0
  -13.9180   -0.5052   -1.9897 C   0  0  0  0  0  0  0  0  0  0  0  0
  -16.9930   -3.1482    4.4484 O   0  0  0  0  0  0  0  0  0  0  0  0
  -16.5049   -2.7472    3.2650 C   0  0  0  0  0  0  0  0  0  0  0  0
  -17.3925   -2.2883    2.3167 C   0  0  0  0  0  0  0  0  0  0  0  0
  -16.9177   -1.8617    1.0851 C   0  0  0  0  0  0  0  0  0  0  0  0
  -15.1568   -2.8250    3.0073 C   0  0  0  0  0  0  0  0  0  0  0  0
  -14.6646   -2.4054    1.7813 C   0  0  0  0  0  0  0  0  0  0  0  0
  -15.5519   -1.9388    0.8121 C   0  0  0  0  0  0  0  0  0  0  0  0
  -16.4120   -3.4649    5.1118 H   0  0  0  0  0  0  0  0  0  0  0  0
   -9.8963    4.3025   -6.5619 O   0  0  0  0  0  0  0  0  0  0  0  0
   -8.9274    5.1966   -6.0065 C   0  0  0  0  0  0  0  0  0  0  0  0
   -7.5533    4.5870   -6.2027 C   0  0  0  0  0  0  0  0  0  0  0  0
   -6.8423    4.7465   -4.9777 O   0  0  0  0  0  0  0  0  0  0  0  0
   -7.6883    4.7069   -3.8282 C   0  0  0  0  0  0  0  0  0  0  0  0
 28 27  1  0  0  0
 27 26  1  0  0  0
 26 25  1  0  0  0
 24 25  1  0  0  0
 24 10  1  0  0  0
  9 10  2  0  0  0
  9  8  1  0  0  0
 10  6  1  0  0  0
  8  7  2  0  0  0
  6  5  2  0  0  0
  7  5  1  0  0  0
  7  2  1  0  0  0
  5  4  1  0  0  0
  2  1  2  0  0  0
  4  3  2  0  0  0
  1  3  1  0  0  0
  1 15  1  0  0  0
 14 15  1  0  0  0
 14 13  2  0  0  0
 15 12  2  0  0  0
 13 11  1  0  0  0
 12 11  1  0  0  0
 11 22  1  0  0  0
 22 21  2  0  0  0
 22 19  1  0  0  0
 21 20  1  0  0  0
 19 18  2  0  0  0
 20 17  2  0  0  0
 18 17  1  0  0  0
 17 16  1  0  0  0
 16 23  1  0  0  0
M  END
> <minimizedAffinity>
-8.97858

$$$$
4WRB_3TW_A_201


 28 31  0  0  0  0  0  0  0  0999 V2000
  -12.6568   -0.6179   -3.3494 C   0  0  0  0  0  0  0  0  0  0  0  0
  -11.9053    0.4602   -3.0825 N   0  0  0  0  0  0  0  0  0  0  0  0
  -12.4764   -1.3419   -4.5253 C   0  0  0  0  0  0  0  0  0  0  0  0
  -11.5082   -0.9553   -5.4383 C   0  0  0  0  0  0  0  0  0  0  0  0
  -10.7362    0.1514   -5.1558 C   0  0  0  0  0  0  0  0  0  0  0  0
   -9.7503    0.5523   -6.0488 C   0  0  0  0  0  0  0  0  0  0  0  0
  -10.9530    0.8510   -3.9605 C   0  0  0  0  0  0  0  0  0  0  0  0
  -10.1903    1.9682   -3.6564 C   0  0  0  0  0  0  0  0  0  0  0  0
   -9.2096    2.3781   -4.5496 C   0  0  0  0  0  0  0  0  0  0  0  0
   -8.9857    1.6778   -5.7373 C   0  0  0  0  0  0  0  0  0  0  0  0
  -15.0052   -1.6497   -0.7748 N   0  0  0  0  0  0  0  0  0  0  0  0
  -13.7496   -1.2046   -1.0541 C   0  0  0  0  0  0  0  0  0  0  0  0
  -15.7488   -1.7580   -1.9082 N   0  0  0  0  0  0  0  0  0  0  0  0
  -14.9547   -1.3886   -2.9120 N   0  0  0  0  0  0  0  0  0  0  0  0
  -13.7250   -1.0459   -2.4219 C   0  0  0  0  0  0  0  0  0  0  0  0
  -16.7187   -2.6981    4.3606 O   0  0  0  0  0  0  0  0  0  0  0  0
  -16.3234   -2.4513    3.1027 C   0  0  0  0  0  0  0  0  0  0  0  0
  -14.9737   -2.4749    2.8282 C   0  0  0  0  0  0  0  0  0  0  0  0
  -14.5342   -2.2288    1.5357 C   0  0  0  0  0  0  0  0  0  0  0  0
  -17.2482   -2.1552    2.1295 C   0  0  0  0  0  0  0  0  0  0  0  0
  -16.8271   -1.9043    0.8329 C   0  0  0  0  0  0  0  0  0  0  0  0
  -15.4638   -1.9247    0.5411 C   0  0  0  0  0  0  0  0  0  0  0  0
  -17.6306   -2.6885    4.5756 H   0  0  0  0  0  0  0  0  0  0  0  0
   -7.9881    2.1285   -6.5697 O   0  0  0  0  0  0  0  0  0  0  0  0
   -8.2633    2.9470   -7.7104 C   0  0  0  0  0  0  0  0  0  0  0  0
   -7.2310    2.6361   -8.7763 C   0  0  0  0  0  0  0  0  0  0  0  0
   -6.7547    3.8822   -9.2783 O   0  0  0  0  0  0  0  0  0  0  0  0
   -7.3020    5.0094   -8.5938 C   0  0  0  0  0  0  0  0  0  0  0  0
 28 27  1  0  0  0
 27 26  1  0  0  0
 26 25  1  0  0  0
 24 25  1  0  0  0
 24 10  1  0  0  0
  9 10  2  0  0  0
  9  8  1  0  0  0
 10  6  1  0  0  0
  8  7  2  0  0  0
  6  5  2  0  0  0
  7  5  1  0  0  0
  7  2  1  0  0  0
  5  4  1  0  0  0
  2  1  2  0  0  0
  4  3  2  0  0  0
  1  3  1  0  0  0
  1 15  1  0  0  0
 14 15  1  0  0  0
 14 13  2  0  0  0
 15 12  2  0  0  0
 13 11  1  0  0  0
 12 11  1  0  0  0
 11 22  1  0  0  0
 22 21  2  0  0  0
 22 19  1  0  0  0
 21 20  1  0  0  0
 19 18  2  0  0  0
 20 17  2  0  0  0
 18 17  1  0  0  0
 17 16  1  0  0  0
 16 23  1  0  0  0
M  END
> <minimizedAffinity>
-8.64859

$$$$
4WRB_3TW_A_201


 28 31  0  0  0  0  0  0  0  0999 V2000
  -12.3215   -0.1334   -3.5465 C   0  0  0  0  0  0  0  0  0  0  0  0
  -12.2848   -0.4417   -4.8511 N   0  0  0  0  0  0  0  0  0  0  0  0
  -11.3292    0.6557   -2.9701 C   0  0  0  0  0  0  0  0  0  0  0  0
  -10.2865    1.1378   -3.7451 C   0  0  0  0  0  0  0  0  0  0  0  0
  -10.2571    0.8206   -5.0864 C   0  0  0  0  0  0  0  0  0  0  0  0
   -9.2292    1.3019   -5.8877 C   0  0  0  0  0  0  0  0  0  0  0  0
  -11.2762    0.0224   -5.6243 C   0  0  0  0  0  0  0  0  0  0  0  0
  -11.2661   -0.3112   -6.9700 C   0  0  0  0  0  0  0  0  0  0  0  0
  -10.2364    0.1600   -7.7733 C   0  0  0  0  0  0  0  0  0  0  0  0
   -9.2243    0.9626   -7.2418 C   0  0  0  0  0  0  0  0  0  0  0  0
  -14.6948   -1.3891   -1.0973 N   0  0  0  0  0  0  0  0  0  0  0  0
  -13.4583   -0.8632   -1.3144 C   0  0  0  0  0  0  0  0  0  0  0  0
  -15.3904   -1.4991   -2.2605 N   0  0  0  0  0  0  0  0  0  0  0  0
  -14.5844   -1.0494   -3.2211 N   0  0  0  0  0  0  0  0  0  0  0  0
  -13.3948   -0.6546   -2.6743 C   0  0  0  0  0  0  0  0  0  0  0  0
  -16.6529   -2.7596    3.8722 O   0  0  0  0  0  0  0  0  0  0  0  0
  -16.1562   -2.4174    2.6740 C   0  0  0  0  0  0  0  0  0  0  0  0
  -17.0430   -2.1431    1.6562 C   0  0  0  0  0  0  0  0  0  0  0  0
  -16.5599   -1.7812    0.4071 C   0  0  0  0  0  0  0  0  0  0  0  0
  -14.7971   -2.3740    2.4723 C   0  0  0  0  0  0  0  0  0  0  0  0
  -14.2962   -2.0167    1.2301 C   0  0  0  0  0  0  0  0  0  0  0  0
  -15.1826   -1.7366    0.1907 C   0  0  0  0  0  0  0  0  0  0  0  0
  -16.0727   -2.9515    4.5824 H   0  0  0  0  0  0  0  0  0  0  0  0
   -8.2433    1.4083   -8.0963 O   0  0  0  0  0  0  0  0  0  0  0  0
   -6.9260    0.8500   -8.0970 C   0  0  0  0  0  0  0  0  0  0  0  0
   -6.0659    1.6673   -9.0406 C   0  0  0  0  0  0  0  0  0  0  0  0
   -5.2961    0.7486   -9.8121 O   0  0  0  0  0  0  0  0  0  0  0  0
   -4.2960    0.0740   -9.0485 C   0  0  0  0  0  0  0  0  0  0  0  0
 28 27  1  0  0  0
 27 26  1  0  0  0
 26 25  1  0  0  0
 24 25  1  0  0  0
 24 10  1  0  0  0
  9 10  2  0  0  0
  9  8  1  0  0  0
 10  6  1  0  0  0
  8  7  2  0  0  0
  6  5  2  0  0  0
  7  5  1  0  0  0
  7  2  1  0  0  0
  5  4  1  0  0  0
  2  1  2  0  0  0
  4  3  2  0  0  0
  1  3  1  0  0  0
  1 15  1  0  0  0
 14 15  1  0  0  0
 14 13  2  0  0  0
 15 12  2  0  0  0
 13 11  1  0  0  0
 12 11  1  0  0  0
 11 22  1  0  0  0
 22 21  2  0  0  0
 22 19  1  0  0  0
 21 20  1  0  0  0
 19 18  2  0  0  0
 20 17  2  0  0  0
 18 17  1  0  0  0
 17 16  1  0  0  0
 16 23  1  0  0  0
M  END
> <minimizedAffinity>
-7.86253

$$$$
4WRB_3TW_A_201


 28 31  0  0  0  0  0  0  0  0999 V2000
  -13.1932   -0.0333   -3.6520 C   0  0  0  0  0  0  0  0  0  0  0  0
  -13.1534   -0.7689   -4.7725 N   0  0  0  0  0  0  0  0  0  0  0  0
  -12.9737    1.3414   -3.6910 C   0  0  0  0  0  0  0  0  0  0  0  0
  -12.7130    1.9700   -4.8981 C   0  0  0  0  0  0  0  0  0  0  0  0
  -12.6776    1.2085   -6.0469 C   0  0  0  0  0  0  0  0  0  0  0  0
  -12.4307    1.8166   -7.2714 C   0  0  0  0  0  0  0  0  0  0  0  0
  -12.9033   -0.1723   -5.9609 C   0  0  0  0  0  0  0  0  0  0  0  0
  -12.8704   -0.9584   -7.1025 C   0  0  0  0  0  0  0  0  0  0  0  0
  -12.6154   -0.3569   -8.3276 C   0  0  0  0  0  0  0  0  0  0  0  0
  -12.3987    1.0200   -8.4174 C   0  0  0  0  0  0  0  0  0  0  0  0
  -14.1609   -1.4508   -0.4485 N   0  0  0  0  0  0  0  0  0  0  0  0
  -14.5693   -0.8006   -1.5724 C   0  0  0  0  0  0  0  0  0  0  0  0
  -12.8307   -1.7282   -0.5003 N   0  0  0  0  0  0  0  0  0  0  0  0
  -12.3930   -1.2409   -1.6603 N   0  0  0  0  0  0  0  0  0  0  0  0
  -13.4324   -0.6661   -2.3379 C   0  0  0  0  0  0  0  0  0  0  0  0
  -17.5084   -2.8374    3.7083 O   0  0  0  0  0  0  0  0  0  0  0  0
  -16.7119   -2.5061    2.6811 C   0  0  0  0  0  0  0  0  0  0  0  0
  -15.3488   -2.5931    2.8603 C   0  0  0  0  0  0  0  0  0  0  0  0
  -14.4991   -2.2623    1.8148 C   0  0  0  0  0  0  0  0  0  0  0  0
  -17.2529   -2.0651    1.4968 C   0  0  0  0  0  0  0  0  0  0  0  0
  -16.4191   -1.7279    0.4420 C   0  0  0  0  0  0  0  0  0  0  0  0
  -15.0373   -1.8111    0.6096 C   0  0  0  0  0  0  0  0  0  0  0  0
  -18.4394   -2.7876    3.6143 H   0  0  0  0  0  0  0  0  0  0  0  0
  -12.1673    1.5534   -9.6636 O   0  0  0  0  0  0  0  0  0  0  0  0
  -11.5012    0.8163  -10.6931 C   0  0  0  0  0  0  0  0  0  0  0  0
  -10.0209    1.1358  -10.6220 C   0  0  0  0  0  0  0  0  0  0  0  0
   -9.4016    0.0993   -9.8645 O   0  0  0  0  0  0  0  0  0  0  0  0
   -8.6711    0.5865   -8.7386 C   0  0  0  0  0  0  0  0  0  0  0  0
 28 27  1  0  0  0
 27 26  1  0  0  0
 26 25  1  0  0  0
 24 25  1  0  0  0
 24 10  1  0  0  0
  9 10  2  0  0  0
  9  8  1  0  0  0
 10  6  1  0  0  0
  8  7  2  0  0  0
  6  5  2  0  0  0
  7  5  1  0  0  0
  7  2  1  0  0  0
  5  4  1  0  0  0
  2  1  2  0  0  0
  4  3  2  0  0  0
  1  3  1  0  0  0
  1 15  1  0  0  0
 14 15  1  0  0  0
 14 13  2  0  0  0
 15 12  2  0  0  0
 13 11  1  0  0  0
 12 11  1  0  0  0
 11 22  1  0  0  0
 22 21  2  0  0  0
 22 19  1  0  0  0
 21 20  1  0  0  0
 19 18  2  0  0  0
 20 17  2  0  0  0
 18 17  1  0  0  0
 17 16  1  0  0  0
 16 23  1  0  0  0
M  END
> <minimizedAffinity>
-7.55528

$$$$
4WRB_3TW_A_201


 28 31  0  0  0  0  0  0  0  0999 V2000
  -12.5997   -0.7840   -4.0795 C   0  0  0  0  0  0  0  0  0  0  0  0
  -13.8196   -1.2524   -3.7780 N   0  0  0  0  0  0  0  0  0  0  0  0
  -11.7111   -0.4055   -3.0762 C   0  0  0  0  0  0  0  0  0  0  0  0
  -12.0791   -0.5126   -1.7445 C   0  0  0  0  0  0  0  0  0  0  0  0
  -13.3331   -0.9988   -1.4414 C   0  0  0  0  0  0  0  0  0  0  0  0
  -13.7217   -1.1278   -0.1138 C   0  0  0  0  0  0  0  0  0  0  0  0
  -14.1956   -1.3670   -2.4834 C   0  0  0  0  0  0  0  0  0  0  0  0
  -15.4621   -1.8562   -2.2025 C   0  0  0  0  0  0  0  0  0  0  0  0
  -15.8585   -1.9789   -0.8776 C   0  0  0  0  0  0  0  0  0  0  0  0
  -14.9980   -1.6209    0.1628 C   0  0  0  0  0  0  0  0  0  0  0  0
  -11.2018   -0.2609   -7.3931 N   0  0  0  0  0  0  0  0  0  0  0  0
  -10.9671   -0.2857   -6.0526 C   0  0  0  0  0  0  0  0  0  0  0  0
  -12.4958   -0.5751   -7.6687 N   0  0  0  0  0  0  0  0  0  0  0  0
  -13.0858   -0.7899   -6.4939 N   0  0  0  0  0  0  0  0  0  0  0  0
  -12.1773   -0.6191   -5.4862 C   0  0  0  0  0  0  0  0  0  0  0  0
   -7.3631    0.8783  -11.1845 O   0  0  0  0  0  0  0  0  0  0  0  0
   -8.2798    0.5898  -10.2486 C   0  0  0  0  0  0  0  0  0  0  0  0
   -9.5954    0.4741  -10.6402 C   0  0  0  0  0  0  0  0  0  0  0  0
  -10.5659    0.1713   -9.6962 C   0  0  0  0  0  0  0  0  0  0  0  0
   -7.9076    0.4451   -8.9332 C   0  0  0  0  0  0  0  0  0  0  0  0
   -8.8640    0.1447   -7.9758 C   0  0  0  0  0  0  0  0  0  0  0  0
  -10.1996    0.0250   -8.3582 C   0  0  0  0  0  0  0  0  0  0  0  0
   -6.4609    0.9629  -10.9463 H   0  0  0  0  0  0  0  0  0  0  0  0
  -15.4481   -1.7824    1.4522 O   0  0  0  0  0  0  0  0  0  0  0  0
  -16.7713   -2.2426    1.7424 C   0  0  0  0  0  0  0  0  0  0  0  0
  -16.7345   -2.9883    3.0618 C   0  0  0  0  0  0  0  0  0  0  0  0
  -15.4666   -2.7276    3.6584 O   0  0  0  0  0  0  0  0  0  0  0  0
  -15.5583   -1.9626    4.8605 C   0  0  0  0  0  0  0  0  0  0  0  0
 28 27  1  0  0  0
 27 26  1  0  0  0
 26 25  1  0  0  0
 24 25  1  0  0  0
 24 10  1  0  0  0
  9 10  2  0  0  0
  9  8  1  0  0  0
 10  6  1  0  0  0
  8  7  2  0  0  0
  6  5  2  0  0  0
  7  5  1  0  0  0
  7  2  1  0  0  0
  5  4  1  0  0  0
  2  1  2  0  0  0
  4  3  2  0  0  0
  1  3  1  0  0  0
  1 15  1  0  0  0
 14 15  1  0  0  0
 14 13  2  0  0  0
 15 12  2  0  0  0
 13 11  1  0  0  0
 12 11  1  0  0  0
 11 22  1  0  0  0
 22 21  2  0  0  0
 22 19  1  0  0  0
 21 20  1  0  0  0
 19 18  2  0  0  0
 20 17  2  0  0  0
 18 17  1  0  0  0
 17 16  1  0  0  0
 16 23  1  0  0  0
M  END
> <minimizedAffinity>
-7.48436

$$$$
4WRB_3TW_A_201


 28 31  0  0  0  0  0  0  0  0999 V2000
  -12.7434    0.6393   -3.0843 C   0  0  0  0  0  0  0  0  0  0  0  0
  -11.4697    0.6812   -3.5018 N   0  0  0  0  0  0  0  0  0  0  0  0
  -13.7010    1.4949   -3.6232 C   0  0  0  0  0  0  0  0  0  0  0  0
  -13.3463    2.4041   -4.6070 C   0  0  0  0  0  0  0  0  0  0  0  0
  -12.0362    2.4391   -5.0347 C   0  0  0  0  0  0  0  0  0  0  0  0
  -11.6576    3.3328   -6.0288 C   0  0  0  0  0  0  0  0  0  0  0  0
  -11.1053    1.5602   -4.4638 C   0  0  0  0  0  0  0  0  0  0  0  0
   -9.7818    1.5790   -4.8765 C   0  0  0  0  0  0  0  0  0  0  0  0
   -9.3965    2.4762   -5.8635 C   0  0  0  0  0  0  0  0  0  0  0  0
  -10.3237    3.3472   -6.4402 C   0  0  0  0  0  0  0  0  0  0  0  0
  -14.0633   -1.3802   -0.3664 N   0  0  0  0  0  0  0  0  0  0  0  0
  -14.2289   -0.2758   -1.1445 C   0  0  0  0  0  0  0  0  0  0  0  0
  -12.9493   -2.0708   -0.7285 N   0  0  0  0  0  0  0  0  0  0  0  0
  -12.4011   -1.3928   -1.7357 N   0  0  0  0  0  0  0  0  0  0  0  0
  -13.1596   -0.2892   -2.0123 C   0  0  0  0  0  0  0  0  0  0  0  0
  -17.5287   -2.8328    3.6696 O   0  0  0  0  0  0  0  0  0  0  0  0
  -16.7028   -2.4858    2.6711 C   0  0  0  0  0  0  0  0  0  0  0  0
  -15.3454   -2.5495    2.8975 C   0  0  0  0  0  0  0  0  0  0  0  0
  -14.4658   -2.2020    1.8827 C   0  0  0  0  0  0  0  0  0  0  0  0
  -17.2099   -2.0519    1.4693 C   0  0  0  0  0  0  0  0  0  0  0  0
  -16.3459   -1.6982    0.4446 C   0  0  0  0  0  0  0  0  0  0  0  0
  -14.9695   -1.7577    0.6602 C   0  0  0  0  0  0  0  0  0  0  0  0
  -18.4565   -2.7990    3.5433 H   0  0  0  0  0  0  0  0  0  0  0  0
   -9.8785    4.1992   -7.4236 O   0  0  0  0  0  0  0  0  0  0  0  0
  -10.7781    4.9798   -8.2162 C   0  0  0  0  0  0  0  0  0  0  0  0
  -10.1683    5.1519   -9.5934 C   0  0  0  0  0  0  0  0  0  0  0  0
  -11.1400    4.7186  -10.5420 O   0  0  0  0  0  0  0  0  0  0  0  0
  -11.3108    3.3012  -10.5634 C   0  0  0  0  0  0  0  0  0  0  0  0
 28 27  1  0  0  0
 27 26  1  0  0  0
 26 25  1  0  0  0
 24 25  1  0  0  0
 24 10  1  0  0  0
  9 10  2  0  0  0
  9  8  1  0  0  0
 10  6  1  0  0  0
  8  7  2  0  0  0
  6  5  2  0  0  0
  7  5  1  0  0  0
  7  2  1  0  0  0
  5  4  1  0  0  0
  2  1  2  0  0  0
  4  3  2  0  0  0
  1  3  1  0  0  0
  1 15  1  0  0  0
 14 15  1  0  0  0
 14 13  2  0  0  0
 15 12  2  0  0  0
 13 11  1  0  0  0
 12 11  1  0  0  0
 11 22  1  0  0  0
 22 21  2  0  0  0
 22 19  1  0  0  0
 21 20  1  0  0  0
 19 18  2  0  0  0
 20 17  2  0  0  0
 18 17  1  0  0  0
 17 16  1  0  0  0
 16 23  1  0  0  0
M  END
> <minimizedAffinity>
-7.38302

$$$$
4WRB_3TW_A_201


 28 31  0  0  0  0  0  0  0  0999 V2000
  -13.3629   -0.0224   -3.8016 C   0  0  0  0  0  0  0  0  0  0  0  0
  -13.2020   -0.7760   -4.8992 N   0  0  0  0  0  0  0  0  0  0  0  0
  -13.3240    1.3676   -3.8767 C   0  0  0  0  0  0  0  0  0  0  0  0
  -13.1204    1.9927   -5.0966 C   0  0  0  0  0  0  0  0  0  0  0  0
  -12.9598    1.2122   -6.2216 C   0  0  0  0  0  0  0  0  0  0  0  0
  -12.7668    1.8146   -7.4586 C   0  0  0  0  0  0  0  0  0  0  0  0
  -13.0051   -0.1835   -6.0995 C   0  0  0  0  0  0  0  0  0  0  0  0
  -12.8439   -0.9885   -7.2168 C   0  0  0  0  0  0  0  0  0  0  0  0
  -12.6420   -0.3916   -8.4539 C   0  0  0  0  0  0  0  0  0  0  0  0
  -12.6051    0.9990   -8.5799 C   0  0  0  0  0  0  0  0  0  0  0  0
  -14.1976   -1.4215   -0.5529 N   0  0  0  0  0  0  0  0  0  0  0  0
  -14.6537   -0.7857   -1.6666 C   0  0  0  0  0  0  0  0  0  0  0  0
  -12.8672   -1.6852   -0.6510 N   0  0  0  0  0  0  0  0  0  0  0  0
  -12.4774   -1.2036   -1.8302 N   0  0  0  0  0  0  0  0  0  0  0  0
  -13.5470   -0.6460   -2.4743 C   0  0  0  0  0  0  0  0  0  0  0  0
  -17.3763   -2.8051    3.7353 O   0  0  0  0  0  0  0  0  0  0  0  0
  -16.6212   -2.4754    2.6768 C   0  0  0  0  0  0  0  0  0  0  0  0
  -15.2513   -2.5230    2.8146 C   0  0  0  0  0  0  0  0  0  0  0  0
  -14.4436   -2.1928    1.7362 C   0  0  0  0  0  0  0  0  0  0  0  0
  -17.2102   -2.0741    1.5013 C   0  0  0  0  0  0  0  0  0  0  0  0
  -16.4189   -1.7381    0.4140 C   0  0  0  0  0  0  0  0  0  0  0  0
  -15.0308   -1.7817    0.5396 C   0  0  0  0  0  0  0  0  0  0  0  0
  -18.3107   -2.7815    3.6698 H   0  0  0  0  0  0  0  0  0  0  0  0
  -12.4172    1.5248   -9.8366 O   0  0  0  0  0  0  0  0  0  0  0  0
  -13.2990    2.5072  -10.3881 C   0  0  0  0  0  0  0  0  0  0  0  0
  -12.4976    3.7659  -10.6557 C   0  0  0  0  0  0  0  0  0  0  0  0
  -13.3619    4.8744  -10.4193 O   0  0  0  0  0  0  0  0  0  0  0  0
  -14.3585    4.6088   -9.4320 C   0  0  0  0  0  0  0  0  0  0  0  0
 28 27  1  0  0  0
 27 26  1  0  0  0
 26 25  1  0  0  0
 24 25  1  0  0  0
 24 10  1  0  0  0
  9 10  2  0  0  0
  9  8  1  0  0  0
 10  6  1  0  0  0
  8  7  2  0  0  0
  6  5  2  0  0  0
  7  5  1  0  0  0
  7  2  1  0  0  0
  5  4  1  0  0  0
  2  1  2  0  0  0
  4  3  2  0  0  0
  1  3  1  0  0  0
  1 15  1  0  0  0
 14 15  1  0  0  0
 14 13  2  0  0  0
 15 12  2  0  0  0
 13 11  1  0  0  0
 12 11  1  0  0  0
 11 22  1  0  0  0
 22 21  2  0  0  0
 22 19  1  0  0  0
 21 20  1  0  0  0
 19 18  2  0  0  0
 20 17  2  0  0  0
 18 17  1  0  0  0
 17 16  1  0  0  0
 16 23  1  0  0  0
M  END
> <minimizedAffinity>
-7.32428

$$$$
