2QD7_065_B_404


 42 46  0  0  0  0  0  0  0  0999 V2000
   20.1866   29.6487   15.8065 C   0  0  0  0  0  0  0  0  0  0  0  0
   20.0883   28.6016   16.7977 O   0  0  0  0  0  0  0  0  0  0  0  0
   19.1639   28.3191   16.8790 H   0  0  0  0  0  0  0  0  0  0  0  0
   19.3593   30.8470   16.2924 C   0  0  0  0  0  0  0  0  0  0  0  0
   19.5646   32.0192   15.4700 N   0  0  0  0  0  0  0  0  0  0  0  0
   18.2321   32.7089   14.7900 S   0  0  0  0  0  0  0  0  0  0  0  0
   17.3921   31.6441   14.2924 O   0  0  0  0  0  0  0  0  0  0  0  0
   18.7415   33.7108   13.8735 O   0  0  0  0  0  0  0  0  0  0  0  0
   16.0309   34.6730   18.1597 C   0  0  0  0  0  0  0  0  0  0  0  0
   15.6275   35.4255   19.2168 O   0  0  0  0  0  0  0  0  0  0  0  0
   16.4532   36.5290   19.2598 C   0  0  0  0  0  0  0  0  0  0  0  0
   17.3539   36.4885   18.2244 O   0  0  0  0  0  0  0  0  0  0  0  0
   17.1286   35.3069   17.5795 C   0  0  0  0  0  0  0  0  0  0  0  0
   17.8147   34.7631   16.5031 C   0  0  0  0  0  0  0  0  0  0  0  0
   17.3259   33.5657   16.0334 C   0  0  0  0  0  0  0  0  0  0  0  0
   16.2564   32.9430   16.6246 C   0  0  0  0  0  0  0  0  0  0  0  0
   15.5207   33.5077   17.6572 C   0  0  0  0  0  0  0  0  0  0  0  0
   20.6254   32.9276   15.8753 C   0  0  0  0  0  0  0  0  0  0  0  0
   22.0272   32.3270   15.9243 C   0  0  0  0  0  0  0  0  0  0  0  0
   22.8703   32.8546   14.7529 C   0  0  0  0  0  0  0  0  0  0  0  0
   22.6872   32.6652   17.2602 C   0  0  0  0  0  0  0  0  0  0  0  0
   19.7645   29.0982   14.4637 C   0  0  0  0  0  0  0  0  0  0  0  0
   20.7644   28.1946   13.9751 N   0  0  0  0  0  0  0  0  0  0  0  0
   21.8597   28.5684   13.2858 C   0  0  0  0  0  0  0  0  0  0  0  0
   22.1658   29.7115   12.9665 O   0  0  0  0  0  0  0  0  0  0  0  0
   20.6421   27.2346   14.1558 H   0  0  0  0  0  0  0  0  0  0  0  0
   22.6211   27.4887   13.0089 O   0  0  0  0  0  0  0  0  0  0  0  0
   23.4159   27.5435   11.8034 C   0  0  0  0  0  0  0  0  0  0  0  0
   24.7301   26.8563   12.1055 C   0  0  0  0  0  0  0  0  0  0  0  0
   24.4173   25.4575   12.0519 O   0  0  0  0  0  0  0  0  0  0  0  0
   23.4194   25.2670   11.0641 C   0  0  0  0  0  0  0  0  0  0  0  0
   22.3591   24.5094   11.6327 O   0  0  0  0  0  0  0  0  0  0  0  0
   21.1568   25.2438   11.7113 C   0  0  0  0  0  0  0  0  0  0  0  0
   21.3413   26.4720   10.7869 C   0  0  0  0  0  0  0  0  0  0  0  0
   22.8405   26.6289   10.7131 C   0  0  0  0  0  0  0  0  0  0  0  0
   18.4232   28.3878   14.4354 C   0  0  0  0  0  0  0  0  0  0  0  0
   17.8213   26.5961   12.7624 C   0  0  0  0  0  0  0  0  0  0  0  0
   17.5249   26.2207   11.4600 C   0  0  0  0  0  0  0  0  0  0  0  0
   17.3632   27.1407   10.4637 C   0  0  0  0  0  0  0  0  0  0  0  0
   17.5912   28.4941   10.7253 C   0  0  0  0  0  0  0  0  0  0  0  0
   17.9127   28.8854   12.0368 C   0  0  0  0  0  0  0  0  0  0  0  0
   18.0254   27.9423   13.0448 C   0  0  0  0  0  0  0  0  0  0  0  0
  9 17  1  0  0  0
  9 10  1  0  0  0
  9 13  2  0  0  0
 10 11  1  0  0  0
 11 12  1  0  0  0
 12 13  1  0  0  0
 13 14  1  0  0  0
 14 15  2  0  0  0
 15  6  1  0  0  0
 15 16  1  0  0  0
 16 17  2  0  0  0
  6  5  1  0  0  0
  6  7  2  0  0  0
  6  8  2  0  0  0
  5 18  1  0  0  0
  5  4  1  0  0  0
 18 19  1  0  0  0
 19 20  1  0  0  0
 19 21  1  0  0  0
  4  1  1  0  0  0
  1  2  1  0  0  0
  1 22  1  0  0  0
 22 36  1  0  0  0
 22 23  1  0  0  0
 23 24  1  0  0  0
 24 25  2  0  0  0
 24 27  1  0  0  0
 27 28  1  0  0  0
 28 29  1  0  0  0
 28 35  1  0  0  0
 29 30  1  0  0  0
 30 31  1  0  0  0
 31 32  1  0  0  0
 31 35  1  0  0  0
 32 33  1  0  0  0
 33 34  1  0  0  0
 34 35  1  0  0  0
 36 42  1  0  0  0
 37 42  1  0  0  0
 37 38  2  0  0  0
 38 39  1  0  0  0
 39 40  2  0  0  0
 40 41  1  0  0  0
 41 42  2  0  0  0
  2  3  1  0  0  0
 23 26  1  0  0  0
M  END
> <minimizedAffinity>
-10.19559

$$$$
2QD7_065_B_404


 42 46  0  0  0  0  0  0  0  0999 V2000
   20.4618   31.2810   13.0877 C   0  0  0  0  0  0  0  0  0  0  0  0
   20.9368   32.1488   12.0342 O   0  0  0  0  0  0  0  0  0  0  0  0
   21.2640   32.9764   12.4200 H   0  0  0  0  0  0  0  0  0  0  0  0
   19.2897   31.9794   13.7911 C   0  0  0  0  0  0  0  0  0  0  0  0
   18.4779   31.0511   14.5473 N   0  0  0  0  0  0  0  0  0  0  0  0
   18.1540   31.4340   16.1166 S   0  0  0  0  0  0  0  0  0  0  0  0
   19.3212   31.1002   16.8997 O   0  0  0  0  0  0  0  0  0  0  0  0
   16.8836   30.8008   16.4138 O   0  0  0  0  0  0  0  0  0  0  0  0
   17.2755   35.7935   16.6459 C   0  0  0  0  0  0  0  0  0  0  0  0
   17.2047   37.0906   17.0447 O   0  0  0  0  0  0  0  0  0  0  0  0
   18.3374   37.3419   17.7897 C   0  0  0  0  0  0  0  0  0  0  0  0
   19.1304   36.2222   17.8402 O   0  0  0  0  0  0  0  0  0  0  0  0
   18.4409   35.2463   17.1807 C   0  0  0  0  0  0  0  0  0  0  0  0
   18.7822   33.9131   17.0041 C   0  0  0  0  0  0  0  0  0  0  0  0
   17.9033   33.1721   16.2480 C   0  0  0  0  0  0  0  0  0  0  0  0
   16.7508   33.7176   15.7429 C   0  0  0  0  0  0  0  0  0  0  0  0
   16.4315   35.0637   15.8549 C   0  0  0  0  0  0  0  0  0  0  0  0
   17.4250   30.3582   13.8220 C   0  0  0  0  0  0  0  0  0  0  0  0
   17.8710   29.1501   13.0035 C   0  0  0  0  0  0  0  0  0  0  0  0
   17.7352   27.8666   13.8375 C   0  0  0  0  0  0  0  0  0  0  0  0
   17.0370   29.0554   11.7267 C   0  0  0  0  0  0  0  0  0  0  0  0
   21.6178   30.9283   13.9953 C   0  0  0  0  0  0  0  0  0  0  0  0
   22.2036   29.6897   13.5738 N   0  0  0  0  0  0  0  0  0  0  0  0
   21.8623   28.4800   14.0582 C   0  0  0  0  0  0  0  0  0  0  0  0
   21.0229   28.2502   14.9213 O   0  0  0  0  0  0  0  0  0  0  0  0
   22.9037   29.7257   12.8825 H   0  0  0  0  0  0  0  0  0  0  0  0
   22.5648   27.5155   13.4271 O   0  0  0  0  0  0  0  0  0  0  0  0
   23.2758   27.9040   12.2306 C   0  0  0  0  0  0  0  0  0  0  0  0
   24.6977   27.4069   12.3770 C   0  0  0  0  0  0  0  0  0  0  0  0
   24.6127   26.0044   12.0890 O   0  0  0  0  0  0  0  0  0  0  0  0
   23.6081   25.8166   11.1074 C   0  0  0  0  0  0  0  0  0  0  0  0
   22.7156   24.8072   11.5612 O   0  0  0  0  0  0  0  0  0  0  0  0
   21.4162   25.3053   11.7950 C   0  0  0  0  0  0  0  0  0  0  0  0
   21.3509   26.6841   11.0938 C   0  0  0  0  0  0  0  0  0  0  0  0
   22.7991   27.1010   11.0122 C   0  0  0  0  0  0  0  0  0  0  0  0
   22.7187   31.9689   14.0940 C   0  0  0  0  0  0  0  0  0  0  0  0
   22.3372   34.2268   15.1559 C   0  0  0  0  0  0  0  0  0  0  0  0
   22.2768   35.0258   16.2886 C   0  0  0  0  0  0  0  0  0  0  0  0
   22.3749   34.5022   17.5462 C   0  0  0  0  0  0  0  0  0  0  0  0
   22.6374   33.1399   17.7120 C   0  0  0  0  0  0  0  0  0  0  0  0
   22.7217   32.3229   16.5710 C   0  0  0  0  0  0  0  0  0  0  0  0
   22.5717   32.8643   15.3052 C   0  0  0  0  0  0  0  0  0  0  0  0
  9 17  1  0  0  0
  9 10  1  0  0  0
  9 13  2  0  0  0
 10 11  1  0  0  0
 11 12  1  0  0  0
 12 13  1  0  0  0
 13 14  1  0  0  0
 14 15  2  0  0  0
 15  6  1  0  0  0
 15 16  1  0  0  0
 16 17  2  0  0  0
  6  5  1  0  0  0
  6  7  2  0  0  0
  6  8  2  0  0  0
  5 18  1  0  0  0
  5  4  1  0  0  0
 18 19  1  0  0  0
 19 20  1  0  0  0
 19 21  1  0  0  0
  4  1  1  0  0  0
  1  2  1  0  0  0
  1 22  1  0  0  0
 22 36  1  0  0  0
 22 23  1  0  0  0
 23 24  1  0  0  0
 24 25  2  0  0  0
 24 27  1  0  0  0
 27 28  1  0  0  0
 28 29  1  0  0  0
 28 35  1  0  0  0
 29 30  1  0  0  0
 30 31  1  0  0  0
 31 32  1  0  0  0
 31 35  1  0  0  0
 32 33  1  0  0  0
 33 34  1  0  0  0
 34 35  1  0  0  0
 36 42  1  0  0  0
 37 42  1  0  0  0
 37 38  2  0  0  0
 38 39  1  0  0  0
 39 40  2  0  0  0
 40 41  1  0  0  0
 41 42  2  0  0  0
  2  3  1  0  0  0
 23 26  1  0  0  0
M  END
> <minimizedAffinity>
-9.73614

$$$$
2QD7_065_B_404


 42 46  0  0  0  0  0  0  0  0999 V2000
   20.0558   29.9252   15.9680 C   0  0  0  0  0  0  0  0  0  0  0  0
   20.1718   28.7370   16.7823 O   0  0  0  0  0  0  0  0  0  0  0  0
   19.3038   28.3104   16.8572 H   0  0  0  0  0  0  0  0  0  0  0  0
   19.1017   30.8984   16.6746 C   0  0  0  0  0  0  0  0  0  0  0  0
   19.3138   32.2672   16.2576 N   0  0  0  0  0  0  0  0  0  0  0  0
   20.8715   32.7926   16.1507 S   0  0  0  0  0  0  0  0  0  0  0  0
   21.2239   32.8395   14.7505 O   0  0  0  0  0  0  0  0  0  0  0  0
   21.6269   31.9464   17.0543 O   0  0  0  0  0  0  0  0  0  0  0  0
   20.9987   37.0664   17.4836 C   0  0  0  0  0  0  0  0  0  0  0  0
   20.7550   38.3004   17.9978 O   0  0  0  0  0  0  0  0  0  0  0  0
   19.7674   38.1492   18.9481 C   0  0  0  0  0  0  0  0  0  0  0  0
   19.4077   36.8283   19.0528 O   0  0  0  0  0  0  0  0  0  0  0  0
   20.1300   36.1680   18.1015 C   0  0  0  0  0  0  0  0  0  0  0  0
   20.0863   34.8244   17.7582 C   0  0  0  0  0  0  0  0  0  0  0  0
   20.9728   34.4340   16.7809 C   0  0  0  0  0  0  0  0  0  0  0  0
   21.8094   35.3311   16.1676 C   0  0  0  0  0  0  0  0  0  0  0  0
   21.9106   36.6621   16.5478 C   0  0  0  0  0  0  0  0  0  0  0  0
   18.3824   32.8074   15.2802 C   0  0  0  0  0  0  0  0  0  0  0  0
   17.2024   33.5876   15.8524 C   0  0  0  0  0  0  0  0  0  0  0  0
   16.9044   34.8143   14.9763 C   0  0  0  0  0  0  0  0  0  0  0  0
   15.9778   32.6783   15.9431 C   0  0  0  0  0  0  0  0  0  0  0  0
   19.6277   29.5282   14.5740 C   0  0  0  0  0  0  0  0  0  0  0  0
   20.5441   28.5623   14.0429 N   0  0  0  0  0  0  0  0  0  0  0  0
   21.7554   28.8587   13.5336 C   0  0  0  0  0  0  0  0  0  0  0  0
   22.2531   29.9747   13.4374 O   0  0  0  0  0  0  0  0  0  0  0  0
   20.2692   27.6170   14.0510 H   0  0  0  0  0  0  0  0  0  0  0  0
   22.3876   27.7266   13.1584 O   0  0  0  0  0  0  0  0  0  0  0  0
   23.2247   27.8063   11.9833 C   0  0  0  0  0  0  0  0  0  0  0  0
   24.5565   27.1838   12.3429 C   0  0  0  0  0  0  0  0  0  0  0  0
   24.3106   25.7715   12.2938 O   0  0  0  0  0  0  0  0  0  0  0  0
   23.3612   25.5252   11.2711 C   0  0  0  0  0  0  0  0  0  0  0  0
   22.3157   24.7250   11.8080 O   0  0  0  0  0  0  0  0  0  0  0  0
   21.0788   25.4035   11.8325 C   0  0  0  0  0  0  0  0  0  0  0  0
   21.2420   26.6298   10.9015 C   0  0  0  0  0  0  0  0  0  0  0  0
   22.7341   26.8553   10.8827 C   0  0  0  0  0  0  0  0  0  0  0  0
   18.2209   28.9710   14.4508 C   0  0  0  0  0  0  0  0  0  0  0  0
   17.8713   29.1026   11.9544 C   0  0  0  0  0  0  0  0  0  0  0  0
   17.5641   28.4841   10.7510 C   0  0  0  0  0  0  0  0  0  0  0  0
   17.4133   27.1302   10.6543 C   0  0  0  0  0  0  0  0  0  0  0  0
   17.4740   26.3413   11.8060 C   0  0  0  0  0  0  0  0  0  0  0  0
   17.7640   26.9589   13.0352 C   0  0  0  0  0  0  0  0  0  0  0  0
   17.9612   28.3279   13.1056 C   0  0  0  0  0  0  0  0  0  0  0  0
  9 17  1  0  0  0
  9 10  1  0  0  0
  9 13  2  0  0  0
 10 11  1  0  0  0
 11 12  1  0  0  0
 12 13  1  0  0  0
 13 14  1  0  0  0
 14 15  2  0  0  0
 15  6  1  0  0  0
 15 16  1  0  0  0
 16 17  2  0  0  0
  6  5  1  0  0  0
  6  7  2  0  0  0
  6  8  2  0  0  0
  5 18  1  0  0  0
  5  4  1  0  0  0
 18 19  1  0  0  0
 19 20  1  0  0  0
 19 21  1  0  0  0
  4  1  1  0  0  0
  1  2  1  0  0  0
  1 22  1  0  0  0
 22 36  1  0  0  0
 22 23  1  0  0  0
 23 24  1  0  0  0
 24 25  2  0  0  0
 24 27  1  0  0  0
 27 28  1  0  0  0
 28 29  1  0  0  0
 28 35  1  0  0  0
 29 30  1  0  0  0
 30 31  1  0  0  0
 31 32  1  0  0  0
 31 35  1  0  0  0
 32 33  1  0  0  0
 33 34  1  0  0  0
 34 35  1  0  0  0
 36 42  1  0  0  0
 37 42  1  0  0  0
 37 38  2  0  0  0
 38 39  1  0  0  0
 39 40  2  0  0  0
 40 41  1  0  0  0
 41 42  2  0  0  0
  2  3  1  0  0  0
 23 26  1  0  0  0
M  END
> <minimizedAffinity>
-9.54780

$$$$
2QD7_065_B_404


 42 46  0  0  0  0  0  0  0  0999 V2000
   19.9558   30.2134   16.2528 C   0  0  0  0  0  0  0  0  0  0  0  0
   20.0256   29.7583   17.6227 O   0  0  0  0  0  0  0  0  0  0  0  0
   20.9396   29.8270   17.9401 H   0  0  0  0  0  0  0  0  0  0  0  0
   20.8324   29.2892   15.3962 C   0  0  0  0  0  0  0  0  0  0  0  0
   20.4573   29.3244   13.9996 N   0  0  0  0  0  0  0  0  0  0  0  0
   21.5978   29.8277   12.9225 S   0  0  0  0  0  0  0  0  0  0  0  0
   22.5619   30.6253   13.6445 O   0  0  0  0  0  0  0  0  0  0  0  0
   20.8570   30.4159   11.8231 O   0  0  0  0  0  0  0  0  0  0  0  0
   23.7169   26.1228   11.5657 C   0  0  0  0  0  0  0  0  0  0  0  0
   24.0744   24.9049   11.0805 O   0  0  0  0  0  0  0  0  0  0  0  0
   23.0481   24.4842   10.2615 C   0  0  0  0  0  0  0  0  0  0  0  0
   22.0620   25.4381   10.2081 O   0  0  0  0  0  0  0  0  0  0  0  0
   22.4518   26.4265   11.0648 C   0  0  0  0  0  0  0  0  0  0  0  0
   21.7741   27.5849   11.4167 C   0  0  0  0  0  0  0  0  0  0  0  0
   22.4435   28.4241   12.2774 C   0  0  0  0  0  0  0  0  0  0  0  0
   23.6800   28.1052   12.7778 C   0  0  0  0  0  0  0  0  0  0  0  0
   24.3965   26.9842   12.3822 C   0  0  0  0  0  0  0  0  0  0  0  0
   19.5471   28.2884   13.5382 C   0  0  0  0  0  0  0  0  0  0  0  0
   18.0611   28.5908   13.7072 C   0  0  0  0  0  0  0  0  0  0  0  0
   17.6545   29.7668   12.8056 C   0  0  0  0  0  0  0  0  0  0  0  0
   17.2399   27.3460   13.3744 C   0  0  0  0  0  0  0  0  0  0  0  0
   20.3428   31.6734   16.1976 C   0  0  0  0  0  0  0  0  0  0  0  0
   19.3916   32.4543   16.9327 N   0  0  0  0  0  0  0  0  0  0  0  0
   18.1739   32.8036   16.4745 C   0  0  0  0  0  0  0  0  0  0  0  0
   17.6985   32.5238   15.3799 O   0  0  0  0  0  0  0  0  0  0  0  0
   19.6458   32.7562   17.8347 H   0  0  0  0  0  0  0  0  0  0  0  0
   17.5073   33.4988   17.4202 O   0  0  0  0  0  0  0  0  0  0  0  0
   16.4971   34.4233   16.9589 C   0  0  0  0  0  0  0  0  0  0  0  0
   15.2672   34.2004   17.8122 C   0  0  0  0  0  0  0  0  0  0  0  0
   15.5693   34.8647   19.0470 O   0  0  0  0  0  0  0  0  0  0  0  0
   16.3613   36.0022   18.7527 C   0  0  0  0  0  0  0  0  0  0  0  0
   17.5134   35.9788   19.5855 O   0  0  0  0  0  0  0  0  0  0  0  0
   18.7058   35.8211   18.8479 C   0  0  0  0  0  0  0  0  0  0  0  0
   18.3440   36.1269   17.3739 C   0  0  0  0  0  0  0  0  0  0  0  0
   16.8576   35.8708   17.3210 C   0  0  0  0  0  0  0  0  0  0  0  0
   21.7325   32.0061   16.7101 C   0  0  0  0  0  0  0  0  0  0  0  0
   22.2679   34.0094   18.1494 C   0  0  0  0  0  0  0  0  0  0  0  0
   22.3890   35.3838   18.2967 C   0  0  0  0  0  0  0  0  0  0  0  0
   22.2675   36.2359   17.2364 C   0  0  0  0  0  0  0  0  0  0  0  0
   21.9189   35.7344   15.9797 C   0  0  0  0  0  0  0  0  0  0  0  0
   21.7726   34.3451   15.8219 C   0  0  0  0  0  0  0  0  0  0  0  0
   21.9470   33.4923   16.8991 C   0  0  0  0  0  0  0  0  0  0  0  0
  9 17  1  0  0  0
  9 10  1  0  0  0
  9 13  2  0  0  0
 10 11  1  0  0  0
 11 12  1  0  0  0
 12 13  1  0  0  0
 13 14  1  0  0  0
 14 15  2  0  0  0
 15  6  1  0  0  0
 15 16  1  0  0  0
 16 17  2  0  0  0
  6  5  1  0  0  0
  6  7  2  0  0  0
  6  8  2  0  0  0
  5 18  1  0  0  0
  5  4  1  0  0  0
 18 19  1  0  0  0
 19 20  1  0  0  0
 19 21  1  0  0  0
  4  1  1  0  0  0
  1  2  1  0  0  0
  1 22  1  0  0  0
 22 36  1  0  0  0
 22 23  1  0  0  0
 23 24  1  0  0  0
 24 25  2  0  0  0
 24 27  1  0  0  0
 27 28  1  0  0  0
 28 29  1  0  0  0
 28 35  1  0  0  0
 29 30  1  0  0  0
 30 31  1  0  0  0
 31 32  1  0  0  0
 31 35  1  0  0  0
 32 33  1  0  0  0
 33 34  1  0  0  0
 34 35  1  0  0  0
 36 42  1  0  0  0
 37 42  1  0  0  0
 37 38  2  0  0  0
 38 39  1  0  0  0
 39 40  2  0  0  0
 40 41  1  0  0  0
 41 42  2  0  0  0
  2  3  1  0  0  0
 23 26  1  0  0  0
M  END
> <minimizedAffinity>
-9.46605

$$$$
2QD7_065_B_404


 42 46  0  0  0  0  0  0  0  0999 V2000
   18.5205   30.2472   14.5919 C   0  0  0  0  0  0  0  0  0  0  0  0
   18.7820   28.9910   15.2567 O   0  0  0  0  0  0  0  0  0  0  0  0
   19.6870   28.7030   15.0594 H   0  0  0  0  0  0  0  0  0  0  0  0
   18.6327   30.0199   13.0779 C   0  0  0  0  0  0  0  0  0  0  0  0
   18.8053   28.6219   12.7490 N   0  0  0  0  0  0  0  0  0  0  0  0
   17.4512   27.7584   12.3818 S   0  0  0  0  0  0  0  0  0  0  0  0
   16.5711   28.6213   11.6283 O   0  0  0  0  0  0  0  0  0  0  0  0
   17.0009   27.1938   13.6395 O   0  0  0  0  0  0  0  0  0  0  0  0
   18.2985   24.1835    9.8205 C   0  0  0  0  0  0  0  0  0  0  0  0
   18.4038   23.2612    8.8282 O   0  0  0  0  0  0  0  0  0  0  0  0
   18.2229   23.9329    7.6377 C   0  0  0  0  0  0  0  0  0  0  0  0
   18.0308   25.2719    7.8726 O   0  0  0  0  0  0  0  0  0  0  0  0
   18.0184   25.4149    9.2299 C   0  0  0  0  0  0  0  0  0  0  0  0
   17.7961   26.5620    9.9780 C   0  0  0  0  0  0  0  0  0  0  0  0
   17.8912   26.4069   11.3419 C   0  0  0  0  0  0  0  0  0  0  0  0
   18.1491   25.1863   11.9116 C   0  0  0  0  0  0  0  0  0  0  0  0
   18.4395   24.0470   11.1741 C   0  0  0  0  0  0  0  0  0  0  0  0
   20.0152   28.2620   12.0270 C   0  0  0  0  0  0  0  0  0  0  0  0
   21.0950   27.5671   12.8513 C   0  0  0  0  0  0  0  0  0  0  0  0
   21.6746   26.3780   12.0694 C   0  0  0  0  0  0  0  0  0  0  0  0
   22.1945   28.5662   13.2086 C   0  0  0  0  0  0  0  0  0  0  0  0
   19.4572   31.2996   15.1392 C   0  0  0  0  0  0  0  0  0  0  0  0
   18.7592   32.1275   16.0784 N   0  0  0  0  0  0  0  0  0  0  0  0
   18.2531   33.3434   15.7954 C   0  0  0  0  0  0  0  0  0  0  0  0
   18.3136   33.9262   14.7187 O   0  0  0  0  0  0  0  0  0  0  0  0
   18.6415   31.7838   16.9934 H   0  0  0  0  0  0  0  0  0  0  0  0
   17.6203   33.8430   16.8780 O   0  0  0  0  0  0  0  0  0  0  0  0
   16.3051   34.4019   16.6641 C   0  0  0  0  0  0  0  0  0  0  0  0
   15.3605   33.6903   17.6085 C   0  0  0  0  0  0  0  0  0  0  0  0
   15.6103   34.2995   18.8828 O   0  0  0  0  0  0  0  0  0  0  0  0
   15.9305   35.6624   18.6641 C   0  0  0  0  0  0  0  0  0  0  0  0
   17.1381   35.9593   19.3533 O   0  0  0  0  0  0  0  0  0  0  0  0
   18.1903   36.2917   18.4739 C   0  0  0  0  0  0  0  0  0  0  0  0
   17.5298   36.5905   17.1058 C   0  0  0  0  0  0  0  0  0  0  0  0
   16.2202   35.8444   17.1822 C   0  0  0  0  0  0  0  0  0  0  0  0
   20.7169   30.7771   15.8062 C   0  0  0  0  0  0  0  0  0  0  0  0
   22.1294   32.5631   16.8956 C   0  0  0  0  0  0  0  0  0  0  0  0
   23.1327   33.5177   16.8112 C   0  0  0  0  0  0  0  0  0  0  0  0
   23.8972   33.6625   15.6888 C   0  0  0  0  0  0  0  0  0  0  0  0
   23.6129   32.9008   14.5525 C   0  0  0  0  0  0  0  0  0  0  0  0
   22.5846   31.9443   14.6185 C   0  0  0  0  0  0  0  0  0  0  0  0
   21.8514   31.7786   15.7817 C   0  0  0  0  0  0  0  0  0  0  0  0
  9 17  1  0  0  0
  9 10  1  0  0  0
  9 13  2  0  0  0
 10 11  1  0  0  0
 11 12  1  0  0  0
 12 13  1  0  0  0
 13 14  1  0  0  0
 14 15  2  0  0  0
 15  6  1  0  0  0
 15 16  1  0  0  0
 16 17  2  0  0  0
  6  5  1  0  0  0
  6  7  2  0  0  0
  6  8  2  0  0  0
  5 18  1  0  0  0
  5  4  1  0  0  0
 18 19  1  0  0  0
 19 20  1  0  0  0
 19 21  1  0  0  0
  4  1  1  0  0  0
  1  2  1  0  0  0
  1 22  1  0  0  0
 22 36  1  0  0  0
 22 23  1  0  0  0
 23 24  1  0  0  0
 24 25  2  0  0  0
 24 27  1  0  0  0
 27 28  1  0  0  0
 28 29  1  0  0  0
 28 35  1  0  0  0
 29 30  1  0  0  0
 30 31  1  0  0  0
 31 32  1  0  0  0
 31 35  1  0  0  0
 32 33  1  0  0  0
 33 34  1  0  0  0
 34 35  1  0  0  0
 36 42  1  0  0  0
 37 42  1  0  0  0
 37 38  2  0  0  0
 38 39  1  0  0  0
 39 40  2  0  0  0
 40 41  1  0  0  0
 41 42  2  0  0  0
  2  3  1  0  0  0
 23 26  1  0  0  0
M  END
> <minimizedAffinity>
-9.46506

$$$$
2QD7_065_B_404


 42 46  0  0  0  0  0  0  0  0999 V2000
   19.5650   32.5839   15.8621 C   0  0  0  0  0  0  0  0  0  0  0  0
   19.1370   32.4316   17.2340 O   0  0  0  0  0  0  0  0  0  0  0  0
   18.5297   33.1518   17.4651 H   0  0  0  0  0  0  0  0  0  0  0  0
   20.3268   33.9113   15.7429 C   0  0  0  0  0  0  0  0  0  0  0  0
   21.6506   33.8326   16.3206 N   0  0  0  0  0  0  0  0  0  0  0  0
   22.0640   34.9837   17.4243 S   0  0  0  0  0  0  0  0  0  0  0  0
   22.9807   35.8977   16.7829 O   0  0  0  0  0  0  0  0  0  0  0  0
   22.4848   34.2532   18.6043 O   0  0  0  0  0  0  0  0  0  0  0  0
   18.5310   37.3350   18.8551 C   0  0  0  0  0  0  0  0  0  0  0  0
   17.6283   38.2909   19.1985 O   0  0  0  0  0  0  0  0  0  0  0  0
   17.9425   39.4177   18.4685 C   0  0  0  0  0  0  0  0  0  0  0  0
   19.0177   39.1695   17.6516 O   0  0  0  0  0  0  0  0  0  0  0  0
   19.4178   37.8962   17.9374 C   0  0  0  0  0  0  0  0  0  0  0  0
   20.4998   37.1932   17.4274 C   0  0  0  0  0  0  0  0  0  0  0  0
   20.6269   35.8975   17.8728 C   0  0  0  0  0  0  0  0  0  0  0  0
   19.7586   35.3629   18.7900 C   0  0  0  0  0  0  0  0  0  0  0  0
   18.6352   36.0315   19.2561 C   0  0  0  0  0  0  0  0  0  0  0  0
   22.1911   32.5012   16.5441 C   0  0  0  0  0  0  0  0  0  0  0  0
   23.1417   31.9845   15.4682 C   0  0  0  0  0  0  0  0  0  0  0  0
   22.4219   30.9653   14.5712 C   0  0  0  0  0  0  0  0  0  0  0  0
   23.6691   33.1552   14.6400 C   0  0  0  0  0  0  0  0  0  0  0  0
   18.3623   32.4673   14.9541 C   0  0  0  0  0  0  0  0  0  0  0  0
   18.5565   31.3890   14.0298 N   0  0  0  0  0  0  0  0  0  0  0  0
   19.3375   31.4541   12.9342 C   0  0  0  0  0  0  0  0  0  0  0  0
   19.9850   32.4239   12.5565 O   0  0  0  0  0  0  0  0  0  0  0  0
   18.0866   30.5424   14.2080 H   0  0  0  0  0  0  0  0  0  0  0  0
   19.3419   30.2628   12.2994 O   0  0  0  0  0  0  0  0  0  0  0  0
   18.3972   29.2731   12.7641 C   0  0  0  0  0  0  0  0  0  0  0  0
   17.4072   29.0422   11.6429 C   0  0  0  0  0  0  0  0  0  0  0  0
   18.1107   28.2003   10.7189 O   0  0  0  0  0  0  0  0  0  0  0  0
   18.9619   27.3455   11.4623 C   0  0  0  0  0  0  0  0  0  0  0  0
   20.2717   27.4243   10.9149 O   0  0  0  0  0  0  0  0  0  0  0  0
   21.1986   27.9847   11.8192 C   0  0  0  0  0  0  0  0  0  0  0  0
   20.5219   27.9422   13.2111 C   0  0  0  0  0  0  0  0  0  0  0  0
   19.0504   27.8888   12.8801 C   0  0  0  0  0  0  0  0  0  0  0  0
   17.0285   32.2657   15.6506 C   0  0  0  0  0  0  0  0  0  0  0  0
   15.6424   33.4747   17.3794 C   0  0  0  0  0  0  0  0  0  0  0  0
   15.1284   34.6564   17.8936 C   0  0  0  0  0  0  0  0  0  0  0  0
   15.4959   35.8765   17.4021 C   0  0  0  0  0  0  0  0  0  0  0  0
   16.3388   35.9513   16.2902 C   0  0  0  0  0  0  0  0  0  0  0  0
   16.8499   34.7598   15.7467 C   0  0  0  0  0  0  0  0  0  0  0  0
   16.5035   33.5335   16.2892 C   0  0  0  0  0  0  0  0  0  0  0  0
  9 17  1  0  0  0
  9 10  1  0  0  0
  9 13  2  0  0  0
 10 11  1  0  0  0
 11 12  1  0  0  0
 12 13  1  0  0  0
 13 14  1  0  0  0
 14 15  2  0  0  0
 15  6  1  0  0  0
 15 16  1  0  0  0
 16 17  2  0  0  0
  6  5  1  0  0  0
  6  7  2  0  0  0
  6  8  2  0  0  0
  5 18  1  0  0  0
  5  4  1  0  0  0
 18 19  1  0  0  0
 19 20  1  0  0  0
 19 21  1  0  0  0
  4  1  1  0  0  0
  1  2  1  0  0  0
  1 22  1  0  0  0
 22 36  1  0  0  0
 22 23  1  0  0  0
 23 24  1  0  0  0
 24 25  2  0  0  0
 24 27  1  0  0  0
 27 28  1  0  0  0
 28 29  1  0  0  0
 28 35  1  0  0  0
 29 30  1  0  0  0
 30 31  1  0  0  0
 31 32  1  0  0  0
 31 35  1  0  0  0
 32 33  1  0  0  0
 33 34  1  0  0  0
 34 35  1  0  0  0
 36 42  1  0  0  0
 37 42  1  0  0  0
 37 38  2  0  0  0
 38 39  1  0  0  0
 39 40  2  0  0  0
 40 41  1  0  0  0
 41 42  2  0  0  0
  2  3  1  0  0  0
 23 26  1  0  0  0
M  END
> <minimizedAffinity>
-9.30370

$$$$
2QD7_065_B_404


 42 46  0  0  0  0  0  0  0  0999 V2000
   19.8843   29.7740   13.5762 C   0  0  0  0  0  0  0  0  0  0  0  0
   19.8166   30.7432   12.5064 O   0  0  0  0  0  0  0  0  0  0  0  0
   20.7006   31.1081   12.3442 H   0  0  0  0  0  0  0  0  0  0  0  0
   20.3459   30.4975   14.8489 C   0  0  0  0  0  0  0  0  0  0  0  0
   19.7018   31.7829   15.0081 N   0  0  0  0  0  0  0  0  0  0  0  0
   18.1297   31.7853   15.5009 S   0  0  0  0  0  0  0  0  0  0  0  0
   18.0148   30.8626   16.6065 O   0  0  0  0  0  0  0  0  0  0  0  0
   17.3484   31.5678   14.2986 O   0  0  0  0  0  0  0  0  0  0  0  0
   16.7685   35.7921   16.9674 C   0  0  0  0  0  0  0  0  0  0  0  0
   16.3366   36.8623   17.6846 O   0  0  0  0  0  0  0  0  0  0  0  0
   16.6270   36.6005   19.0069 C   0  0  0  0  0  0  0  0  0  0  0  0
   17.2602   35.3878   19.1227 O   0  0  0  0  0  0  0  0  0  0  0  0
   17.2927   34.8618   17.8636 C   0  0  0  0  0  0  0  0  0  0  0  0
   17.7717   33.6260   17.4533 C   0  0  0  0  0  0  0  0  0  0  0  0
   17.7136   33.3885   16.0993 C   0  0  0  0  0  0  0  0  0  0  0  0
   17.1785   34.3043   15.2299 C   0  0  0  0  0  0  0  0  0  0  0  0
   16.7586   35.5690   15.6180 C   0  0  0  0  0  0  0  0  0  0  0  0
   20.5300   32.8771   15.4890 C   0  0  0  0  0  0  0  0  0  0  0  0
   21.9742   32.5154   15.8234 C   0  0  0  0  0  0  0  0  0  0  0  0
   22.9344   33.2161   14.8495 C   0  0  0  0  0  0  0  0  0  0  0  0
   22.2846   32.9111   17.2662 C   0  0  0  0  0  0  0  0  0  0  0  0
   20.7726   28.6284   13.1487 C   0  0  0  0  0  0  0  0  0  0  0  0
   19.9675   27.4912   12.8121 N   0  0  0  0  0  0  0  0  0  0  0  0
   18.9365   27.5155   11.9454 C   0  0  0  0  0  0  0  0  0  0  0  0
   18.5262   28.4910   11.3270 O   0  0  0  0  0  0  0  0  0  0  0  0
   20.1828   26.6331   13.2441 H   0  0  0  0  0  0  0  0  0  0  0  0
   18.4138   26.2777   11.8156 O   0  0  0  0  0  0  0  0  0  0  0  0
   17.9452   25.9026   10.5012 C   0  0  0  0  0  0  0  0  0  0  0  0
   19.1394   25.9508    9.5727 C   0  0  0  0  0  0  0  0  0  0  0  0
   19.8583   24.7432    9.8595 O   0  0  0  0  0  0  0  0  0  0  0  0
   18.9159   23.7373   10.1879 C   0  0  0  0  0  0  0  0  0  0  0  0
   19.3071   23.1345   11.4147 O   0  0  0  0  0  0  0  0  0  0  0  0
   18.3757   23.3681   12.4486 C   0  0  0  0  0  0  0  0  0  0  0  0
   17.0813   23.8632   11.7582 C   0  0  0  0  0  0  0  0  0  0  0  0
   17.5777   24.4133   10.4434 C   0  0  0  0  0  0  0  0  0  0  0  0
   21.7040   28.9162   11.9849 C   0  0  0  0  0  0  0  0  0  0  0  0
   23.9578   27.8815   12.4555 C   0  0  0  0  0  0  0  0  0  0  0  0
   24.9100   26.9073   12.1922 C   0  0  0  0  0  0  0  0  0  0  0  0
   24.6613   25.8673   11.3426 C   0  0  0  0  0  0  0  0  0  0  0  0
   23.4549   25.8192   10.6392 C   0  0  0  0  0  0  0  0  0  0  0  0
   22.4898   26.8123   10.8816 C   0  0  0  0  0  0  0  0  0  0  0  0
   22.7415   27.8330   11.7832 C   0  0  0  0  0  0  0  0  0  0  0  0
  9 17  1  0  0  0
  9 10  1  0  0  0
  9 13  2  0  0  0
 10 11  1  0  0  0
 11 12  1  0  0  0
 12 13  1  0  0  0
 13 14  1  0  0  0
 14 15  2  0  0  0
 15  6  1  0  0  0
 15 16  1  0  0  0
 16 17  2  0  0  0
  6  5  1  0  0  0
  6  7  2  0  0  0
  6  8  2  0  0  0
  5 18  1  0  0  0
  5  4  1  0  0  0
 18 19  1  0  0  0
 19 20  1  0  0  0
 19 21  1  0  0  0
  4  1  1  0  0  0
  1  2  1  0  0  0
  1 22  1  0  0  0
 22 36  1  0  0  0
 22 23  1  0  0  0
 23 24  1  0  0  0
 24 25  2  0  0  0
 24 27  1  0  0  0
 27 28  1  0  0  0
 28 29  1  0  0  0
 28 35  1  0  0  0
 29 30  1  0  0  0
 30 31  1  0  0  0
 31 32  1  0  0  0
 31 35  1  0  0  0
 32 33  1  0  0  0
 33 34  1  0  0  0
 34 35  1  0  0  0
 36 42  1  0  0  0
 37 42  1  0  0  0
 37 38  2  0  0  0
 38 39  1  0  0  0
 39 40  2  0  0  0
 40 41  1  0  0  0
 41 42  2  0  0  0
  2  3  1  0  0  0
 23 26  1  0  0  0
M  END
> <minimizedAffinity>
-9.05706

$$$$
2QD7_065_B_404


 42 46  0  0  0  0  0  0  0  0999 V2000
   21.3479   32.2115   16.6351 C   0  0  0  0  0  0  0  0  0  0  0  0
   22.6392   31.7093   17.0460 O   0  0  0  0  0  0  0  0  0  0  0  0
   23.3220   32.0396   16.4413 H   0  0  0  0  0  0  0  0  0  0  0  0
   21.0484   31.6694   15.2305 C   0  0  0  0  0  0  0  0  0  0  0  0
   20.0266   30.6456   15.2490 N   0  0  0  0  0  0  0  0  0  0  0  0
   20.5150   29.0856   15.0439 S   0  0  0  0  0  0  0  0  0  0  0  0
   20.2705   28.3827   16.2821 O   0  0  0  0  0  0  0  0  0  0  0  0
   21.8644   29.1698   14.5193 O   0  0  0  0  0  0  0  0  0  0  0  0
   17.7989   27.4017   11.9063 C   0  0  0  0  0  0  0  0  0  0  0  0
   17.1453   27.0647   10.7637 O   0  0  0  0  0  0  0  0  0  0  0  0
   18.0025   27.3358    9.7183 C   0  0  0  0  0  0  0  0  0  0  0  0
   19.1970   27.8154   10.1962 O   0  0  0  0  0  0  0  0  0  0  0  0
   19.0462   27.9117   11.5493 C   0  0  0  0  0  0  0  0  0  0  0  0
   19.9432   28.4006   12.4881 C   0  0  0  0  0  0  0  0  0  0  0  0
   19.5270   28.3293   13.7977 C   0  0  0  0  0  0  0  0  0  0  0  0
   18.2899   27.8424   14.1346 C   0  0  0  0  0  0  0  0  0  0  0  0
   17.4117   27.2890   13.2133 C   0  0  0  0  0  0  0  0  0  0  0  0
   18.9022   30.8567   16.1466 C   0  0  0  0  0  0  0  0  0  0  0  0
   17.5288   30.9119   15.4840 C   0  0  0  0  0  0  0  0  0  0  0  0
   16.5587   31.7363   16.3446 C   0  0  0  0  0  0  0  0  0  0  0  0
   17.6544   31.5134   14.0851 C   0  0  0  0  0  0  0  0  0  0  0  0
   21.3492   33.7194   16.7383 C   0  0  0  0  0  0  0  0  0  0  0  0
   20.1717   34.1583   17.4281 N   0  0  0  0  0  0  0  0  0  0  0  0
   19.0032   34.4580   16.8288 C   0  0  0  0  0  0  0  0  0  0  0  0
   18.7670   34.4126   15.6269 O   0  0  0  0  0  0  0  0  0  0  0  0
   20.2205   34.2467   18.4074 H   0  0  0  0  0  0  0  0  0  0  0  0
   18.0826   34.7962   17.7563 O   0  0  0  0  0  0  0  0  0  0  0  0
   16.7728   35.1652   17.2704 C   0  0  0  0  0  0  0  0  0  0  0  0
   15.7656   34.6662   18.2838 C   0  0  0  0  0  0  0  0  0  0  0  0
   15.8372   35.6207   19.3520 O   0  0  0  0  0  0  0  0  0  0  0  0
   16.1087   36.8923   18.7887 C   0  0  0  0  0  0  0  0  0  0  0  0
   17.2132   37.4651   19.4768 O   0  0  0  0  0  0  0  0  0  0  0  0
   18.3396   37.6276   18.6425 C   0  0  0  0  0  0  0  0  0  0  0  0
   17.8238   37.4834   17.1898 C   0  0  0  0  0  0  0  0  0  0  0  0
   16.5547   36.6826   17.3499 C   0  0  0  0  0  0  0  0  0  0  0  0
   22.5593   34.3316   17.4207 C   0  0  0  0  0  0  0  0  0  0  0  0
   22.2027   36.7135   16.6650 C   0  0  0  0  0  0  0  0  0  0  0  0
   22.1175   38.0666   16.9602 C   0  0  0  0  0  0  0  0  0  0  0  0
   22.1433   38.5269   18.2457 C   0  0  0  0  0  0  0  0  0  0  0  0
   22.3550   37.6331   19.2986 C   0  0  0  0  0  0  0  0  0  0  0  0
   22.4639   36.2613   19.0108 C   0  0  0  0  0  0  0  0  0  0  0  0
   22.3872   35.8083   17.7043 C   0  0  0  0  0  0  0  0  0  0  0  0
  9 17  1  0  0  0
  9 10  1  0  0  0
  9 13  2  0  0  0
 10 11  1  0  0  0
 11 12  1  0  0  0
 12 13  1  0  0  0
 13 14  1  0  0  0
 14 15  2  0  0  0
 15  6  1  0  0  0
 15 16  1  0  0  0
 16 17  2  0  0  0
  6  5  1  0  0  0
  6  7  2  0  0  0
  6  8  2  0  0  0
  5 18  1  0  0  0
  5  4  1  0  0  0
 18 19  1  0  0  0
 19 20  1  0  0  0
 19 21  1  0  0  0
  4  1  1  0  0  0
  1  2  1  0  0  0
  1 22  1  0  0  0
 22 36  1  0  0  0
 22 23  1  0  0  0
 23 24  1  0  0  0
 24 25  2  0  0  0
 24 27  1  0  0  0
 27 28  1  0  0  0
 28 29  1  0  0  0
 28 35  1  0  0  0
 29 30  1  0  0  0
 30 31  1  0  0  0
 31 32  1  0  0  0
 31 35  1  0  0  0
 32 33  1  0  0  0
 33 34  1  0  0  0
 34 35  1  0  0  0
 36 42  1  0  0  0
 37 42  1  0  0  0
 37 38  2  0  0  0
 38 39  1  0  0  0
 39 40  2  0  0  0
 40 41  1  0  0  0
 41 42  2  0  0  0
  2  3  1  0  0  0
 23 26  1  0  0  0
M  END
> <minimizedAffinity>
-8.96480

$$$$
2QD7_065_B_404


 42 46  0  0  0  0  0  0  0  0999 V2000
   20.1491   30.1278   15.7002 C   0  0  0  0  0  0  0  0  0  0  0  0
   20.0534   29.5984   17.0415 O   0  0  0  0  0  0  0  0  0  0  0  0
   20.9104   29.6886   17.4867 H   0  0  0  0  0  0  0  0  0  0  0  0
   21.1811   29.2932   14.9289 C   0  0  0  0  0  0  0  0  0  0  0  0
   20.5548   28.3530   14.0254 N   0  0  0  0  0  0  0  0  0  0  0  0
   19.0788   28.7583   13.4158 S   0  0  0  0  0  0  0  0  0  0  0  0
   19.1986   30.0626   12.8064 O   0  0  0  0  0  0  0  0  0  0  0  0
   18.1431   28.5568   14.5053 O   0  0  0  0  0  0  0  0  0  0  0  0
   17.6676   25.9089   10.2619 C   0  0  0  0  0  0  0  0  0  0  0  0
   17.2417   25.2966    9.1260 O   0  0  0  0  0  0  0  0  0  0  0  0
   17.6191   26.1022    8.0725 C   0  0  0  0  0  0  0  0  0  0  0  0
   18.3001   27.2009    8.5353 O   0  0  0  0  0  0  0  0  0  0  0  0
   18.2763   27.1087    9.8968 C   0  0  0  0  0  0  0  0  0  0  0  0
   18.7731   28.0028   10.8343 C   0  0  0  0  0  0  0  0  0  0  0  0
   18.6431   27.6159   12.1483 C   0  0  0  0  0  0  0  0  0  0  0  0
   18.0256   26.4415   12.4954 C   0  0  0  0  0  0  0  0  0  0  0  0
   17.5854   25.5083   11.5671 C   0  0  0  0  0  0  0  0  0  0  0  0
   21.4351   27.6068   13.1407 C   0  0  0  0  0  0  0  0  0  0  0  0
   22.6572   28.3650   12.6307 C   0  0  0  0  0  0  0  0  0  0  0  0
   23.8489   27.4069   12.4785 C   0  0  0  0  0  0  0  0  0  0  0  0
   22.3293   29.0353   11.2973 C   0  0  0  0  0  0  0  0  0  0  0  0
   20.4649   31.6040   15.7737 C   0  0  0  0  0  0  0  0  0  0  0  0
   19.4909   32.2672   16.5901 N   0  0  0  0  0  0  0  0  0  0  0  0
   18.3467   32.8065   16.1271 C   0  0  0  0  0  0  0  0  0  0  0  0
   17.9676   32.8237   14.9616 O   0  0  0  0  0  0  0  0  0  0  0  0
   19.6707   32.3330   17.5558 H   0  0  0  0  0  0  0  0  0  0  0  0
   17.6296   33.3159   17.1510 O   0  0  0  0  0  0  0  0  0  0  0  0
   16.5600   34.2253   16.8088 C   0  0  0  0  0  0  0  0  0  0  0  0
   15.3800   33.8757   17.6896 C   0  0  0  0  0  0  0  0  0  0  0  0
   15.7065   34.4518   18.9619 O   0  0  0  0  0  0  0  0  0  0  0  0
   16.4335   35.6459   18.7310 C   0  0  0  0  0  0  0  0  0  0  0  0
   17.6211   35.6104   19.5119 O   0  0  0  0  0  0  0  0  0  0  0  0
   18.7857   35.5700   18.7163 C   0  0  0  0  0  0  0  0  0  0  0  0
   18.3460   35.9761   17.2884 C   0  0  0  0  0  0  0  0  0  0  0  0
   16.8716   35.6544   17.2746 C   0  0  0  0  0  0  0  0  0  0  0  0
   21.8462   31.9567   16.2955 C   0  0  0  0  0  0  0  0  0  0  0  0
   21.7817   34.4154   15.7281 C   0  0  0  0  0  0  0  0  0  0  0  0
   21.9748   35.7384   16.0988 C   0  0  0  0  0  0  0  0  0  0  0  0
   22.2829   36.0898   17.3821 C   0  0  0  0  0  0  0  0  0  0  0  0
   22.5055   35.0963   18.3391 C   0  0  0  0  0  0  0  0  0  0  0  0
   22.3335   33.7506   17.9706 C   0  0  0  0  0  0  0  0  0  0  0  0
   21.9738   33.4160   16.6757 C   0  0  0  0  0  0  0  0  0  0  0  0
  9 17  1  0  0  0
  9 10  1  0  0  0
  9 13  2  0  0  0
 10 11  1  0  0  0
 11 12  1  0  0  0
 12 13  1  0  0  0
 13 14  1  0  0  0
 14 15  2  0  0  0
 15  6  1  0  0  0
 15 16  1  0  0  0
 16 17  2  0  0  0
  6  5  1  0  0  0
  6  7  2  0  0  0
  6  8  2  0  0  0
  5 18  1  0  0  0
  5  4  1  0  0  0
 18 19  1  0  0  0
 19 20  1  0  0  0
 19 21  1  0  0  0
  4  1  1  0  0  0
  1  2  1  0  0  0
  1 22  1  0  0  0
 22 36  1  0  0  0
 22 23  1  0  0  0
 23 24  1  0  0  0
 24 25  2  0  0  0
 24 27  1  0  0  0
 27 28  1  0  0  0
 28 29  1  0  0  0
 28 35  1  0  0  0
 29 30  1  0  0  0
 30 31  1  0  0  0
 31 32  1  0  0  0
 31 35  1  0  0  0
 32 33  1  0  0  0
 33 34  1  0  0  0
 34 35  1  0  0  0
 36 42  1  0  0  0
 37 42  1  0  0  0
 37 38  2  0  0  0
 38 39  1  0  0  0
 39 40  2  0  0  0
 40 41  1  0  0  0
 41 42  2  0  0  0
  2  3  1  0  0  0
 23 26  1  0  0  0
M  END
> <minimizedAffinity>
-8.96310

$$$$
2QD7_065_B_404


 42 46  0  0  0  0  0  0  0  0999 V2000
   20.6744   31.3931   15.3686 C   0  0  0  0  0  0  0  0  0  0  0  0
   21.8511   30.7465   15.9030 O   0  0  0  0  0  0  0  0  0  0  0  0
   21.5983   29.9074   16.3189 H   0  0  0  0  0  0  0  0  0  0  0  0
   19.7264   31.7022   16.5357 C   0  0  0  0  0  0  0  0  0  0  0  0
   19.2553   33.0695   16.5066 N   0  0  0  0  0  0  0  0  0  0  0  0
   17.6770   33.3174   16.1047 S   0  0  0  0  0  0  0  0  0  0  0  0
   16.9081   32.2221   16.6488 O   0  0  0  0  0  0  0  0  0  0  0  0
   17.6761   33.5556   14.6741 O   0  0  0  0  0  0  0  0  0  0  0  0
   16.4647   37.0462   18.2691 C   0  0  0  0  0  0  0  0  0  0  0  0
   16.3020   38.3115   18.7370 O   0  0  0  0  0  0  0  0  0  0  0  0
   16.7515   39.1632   17.7502 C   0  0  0  0  0  0  0  0  0  0  0  0
   17.1705   38.4447   16.6578 O   0  0  0  0  0  0  0  0  0  0  0  0
   17.0475   37.1306   17.0056 C   0  0  0  0  0  0  0  0  0  0  0  0
   17.3971   36.0048   16.2740 C   0  0  0  0  0  0  0  0  0  0  0  0
   17.1107   34.7985   16.8710 C   0  0  0  0  0  0  0  0  0  0  0  0
   16.5541   34.7286   18.1225 C   0  0  0  0  0  0  0  0  0  0  0  0
   16.1385   35.8446   18.8353 C   0  0  0  0  0  0  0  0  0  0  0  0
   19.8212   33.9797   17.4894 C   0  0  0  0  0  0  0  0  0  0  0  0
   20.9703   34.8541   16.9961 C   0  0  0  0  0  0  0  0  0  0  0  0
   20.8199   36.2829   17.5410 C   0  0  0  0  0  0  0  0  0  0  0  0
   22.3037   34.2477   17.4310 C   0  0  0  0  0  0  0  0  0  0  0  0
   20.0773   30.5183   14.2904 C   0  0  0  0  0  0  0  0  0  0  0  0
   20.9809   29.4501   13.9783 N   0  0  0  0  0  0  0  0  0  0  0  0
   21.7709   29.4125   12.8879 C   0  0  0  0  0  0  0  0  0  0  0  0
   21.8366   30.2604   12.0051 O   0  0  0  0  0  0  0  0  0  0  0  0
   21.0274   28.6915   14.6042 H   0  0  0  0  0  0  0  0  0  0  0  0
   22.5316   28.2976   12.9076 O   0  0  0  0  0  0  0  0  0  0  0  0
   23.3402   28.0394   11.7382 C   0  0  0  0  0  0  0  0  0  0  0  0
   24.5976   27.3429   12.2118 C   0  0  0  0  0  0  0  0  0  0  0  0
   24.1840   25.9899   12.4475 O   0  0  0  0  0  0  0  0  0  0  0  0
   23.1848   25.6630   11.4975 C   0  0  0  0  0  0  0  0  0  0  0  0
   22.0664   25.1191   12.1867 O   0  0  0  0  0  0  0  0  0  0  0  0
   20.9202   25.9348   12.0778 C   0  0  0  0  0  0  0  0  0  0  0  0
   21.2030   26.9224   10.9195 C   0  0  0  0  0  0  0  0  0  0  0  0
   22.7103   26.9558   10.8519 C   0  0  0  0  0  0  0  0  0  0  0  0
   18.7189   29.9186   14.6061 C   0  0  0  0  0  0  0  0  0  0  0  0
   17.9670   29.5130   12.2309 C   0  0  0  0  0  0  0  0  0  0  0  0
   17.4341   28.6678   11.2681 C   0  0  0  0  0  0  0  0  0  0  0  0
   17.2025   27.3454   11.5185 C   0  0  0  0  0  0  0  0  0  0  0  0
   17.4141   26.8348   12.8018 C   0  0  0  0  0  0  0  0  0  0  0  0
   17.9342   27.6864   13.7921 C   0  0  0  0  0  0  0  0  0  0  0  0
   18.2081   29.0134   13.5060 C   0  0  0  0  0  0  0  0  0  0  0  0
  9 17  1  0  0  0
  9 10  1  0  0  0
  9 13  2  0  0  0
 10 11  1  0  0  0
 11 12  1  0  0  0
 12 13  1  0  0  0
 13 14  1  0  0  0
 14 15  2  0  0  0
 15  6  1  0  0  0
 15 16  1  0  0  0
 16 17  2  0  0  0
  6  5  1  0  0  0
  6  7  2  0  0  0
  6  8  2  0  0  0
  5 18  1  0  0  0
  5  4  1  0  0  0
 18 19  1  0  0  0
 19 20  1  0  0  0
 19 21  1  0  0  0
  4  1  1  0  0  0
  1  2  1  0  0  0
  1 22  1  0  0  0
 22 36  1  0  0  0
 22 23  1  0  0  0
 23 24  1  0  0  0
 24 25  2  0  0  0
 24 27  1  0  0  0
 27 28  1  0  0  0
 28 29  1  0  0  0
 28 35  1  0  0  0
 29 30  1  0  0  0
 30 31  1  0  0  0
 31 32  1  0  0  0
 31 35  1  0  0  0
 32 33  1  0  0  0
 33 34  1  0  0  0
 34 35  1  0  0  0
 36 42  1  0  0  0
 37 42  1  0  0  0
 37 38  2  0  0  0
 38 39  1  0  0  0
 39 40  2  0  0  0
 40 41  1  0  0  0
 41 42  2  0  0  0
  2  3  1  0  0  0
 23 26  1  0  0  0
M  END
> <minimizedAffinity>
-8.92042

$$$$
