5HIS_60P_A_403


 10 10  0  0  0  0  0  0  0  0999 V2000
  -17.5923    0.7888  -13.0105 S   0  0  0  0  0  0  0  0  0  0  0  0
  -17.4465    1.4303  -11.4326 C   0  0  0  0  0  0  0  0  0  0  0  0
  -16.9967    2.7383  -11.5777 C   0  0  0  0  0  0  0  0  0  0  0  0
  -16.7821    3.1636  -12.8890 C   0  0  0  0  0  0  0  0  0  0  0  0
  -17.0897    2.2114  -13.8330 C   0  0  0  0  0  0  0  0  0  0  0  0
  -16.7298    3.6437  -10.4269 C   0  0  0  0  0  0  0  0  0  0  0  0
  -17.7957    0.6477  -10.1998 C   0  0  0  0  0  0  0  0  0  0  0  0
  -17.2053    0.8595   -9.0945 O   0  0  0  0  0  0  0  0  0  0  0  0
  -18.7407   -0.1983  -10.2624 O   0  0  0  0  0  0  0  0  0  0  0  0
  -19.1763   -0.3547  -11.0771 H   0  0  0  0  0  0  0  0  0  0  0  0
  6  3  1  0  0  0
  4  3  1  0  0  0
  4  5  2  0  0  0
  3  2  2  0  0  0
  5  1  1  0  0  0
  8  7  2  0  0  0
  2  7  1  0  0  0
  2  1  1  0  0  0
  7  9  1  0  0  0
  9 10  1  0  0  0
M  END
> <minimizedAffinity>
-6.00645

$$$$
5HIS_60P_A_403


 10 10  0  0  0  0  0  0  0  0999 V2000
  -17.0680    3.3601   -9.9717 S   0  0  0  0  0  0  0  0  0  0  0  0
  -17.6409    1.8700  -10.5834 C   0  0  0  0  0  0  0  0  0  0  0  0
  -17.2852    1.8316  -11.9274 C   0  0  0  0  0  0  0  0  0  0  0  0
  -16.6049    2.9513  -12.4067 C   0  0  0  0  0  0  0  0  0  0  0  0
  -16.3677    3.9044  -11.4435 C   0  0  0  0  0  0  0  0  0  0  0  0
  -17.6152    0.6937  -12.8284 C   0  0  0  0  0  0  0  0  0  0  0  0
  -18.3522    0.8592   -9.7311 C   0  0  0  0  0  0  0  0  0  0  0  0
  -18.6941    1.1269   -8.5368 O   0  0  0  0  0  0  0  0  0  0  0  0
  -18.6637   -0.2598  -10.2446 O   0  0  0  0  0  0  0  0  0  0  0  0
  -18.4118   -0.4575  -11.1252 H   0  0  0  0  0  0  0  0  0  0  0  0
  6  3  1  0  0  0
  4  3  1  0  0  0
  4  5  2  0  0  0
  3  2  2  0  0  0
  5  1  1  0  0  0
  8  7  2  0  0  0
  2  7  1  0  0  0
  2  1  1  0  0  0
  7  9  1  0  0  0
  9 10  1  0  0  0
M  END
> <minimizedAffinity>
-5.75611

$$$$
5HIS_60P_A_403


 10 10  0  0  0  0  0  0  0  0999 V2000
  -18.8360    1.6504   -7.9399 S   0  0  0  0  0  0  0  0  0  0  0  0
  -18.0515    1.7677   -9.4544 C   0  0  0  0  0  0  0  0  0  0  0  0
  -17.5645    3.0670   -9.5476 C   0  0  0  0  0  0  0  0  0  0  0  0
  -17.8321    3.8946   -8.4568 C   0  0  0  0  0  0  0  0  0  0  0  0
  -18.5146    3.2636   -7.4425 C   0  0  0  0  0  0  0  0  0  0  0  0
  -16.8219    3.5790  -10.7317 C   0  0  0  0  0  0  0  0  0  0  0  0
  -17.9440    0.6126  -10.4074 C   0  0  0  0  0  0  0  0  0  0  0  0
  -17.0426    0.5775  -11.3026 O   0  0  0  0  0  0  0  0  0  0  0  0
  -18.7386   -0.3682  -10.2683 O   0  0  0  0  0  0  0  0  0  0  0  0
  -19.4033   -0.3427   -9.6084 H   0  0  0  0  0  0  0  0  0  0  0  0
  6  3  1  0  0  0
  4  3  1  0  0  0
  4  5  2  0  0  0
  3  2  2  0  0  0
  5  1  1  0  0  0
  8  7  2  0  0  0
  2  7  1  0  0  0
  2  1  1  0  0  0
  7  9  1  0  0  0
  9 10  1  0  0  0
M  END
> <minimizedAffinity>
-5.72932

$$$$
5HIS_60P_A_403


 10 10  0  0  0  0  0  0  0  0999 V2000
  -17.0338    2.3650  -14.4833 S   0  0  0  0  0  0  0  0  0  0  0  0
  -17.1964    2.2978  -12.7828 C   0  0  0  0  0  0  0  0  0  0  0  0
  -16.6146    3.4583  -12.2839 C   0  0  0  0  0  0  0  0  0  0  0  0
  -16.0713    4.3216  -13.2358 C   0  0  0  0  0  0  0  0  0  0  0  0
  -16.2365    3.8866  -14.5303 C   0  0  0  0  0  0  0  0  0  0  0  0
  -16.5398    3.7766  -10.8319 C   0  0  0  0  0  0  0  0  0  0  0  0
  -17.8832    1.1661  -12.0744 C   0  0  0  0  0  0  0  0  0  0  0  0
  -17.2367    0.3647  -11.3295 O   0  0  0  0  0  0  0  0  0  0  0  0
  -19.1434    1.0537  -12.1841 O   0  0  0  0  0  0  0  0  0  0  0  0
  -19.6204    1.6444  -12.7332 H   0  0  0  0  0  0  0  0  0  0  0  0
  6  3  1  0  0  0
  4  3  1  0  0  0
  4  5  2  0  0  0
  3  2  2  0  0  0
  5  1  1  0  0  0
  8  7  2  0  0  0
  2  7  1  0  0  0
  2  1  1  0  0  0
  7  9  1  0  0  0
  9 10  1  0  0  0
M  END
> <minimizedAffinity>
-5.68362

$$$$
5HIS_60P_A_403


 10 10  0  0  0  0  0  0  0  0999 V2000
  -16.3507    3.5658  -11.9969 S   0  0  0  0  0  0  0  0  0  0  0  0
  -17.2170    2.3111  -12.7703 C   0  0  0  0  0  0  0  0  0  0  0  0
  -17.1406    2.5618  -14.1362 C   0  0  0  0  0  0  0  0  0  0  0  0
  -16.4315    3.7056  -14.5039 C   0  0  0  0  0  0  0  0  0  0  0  0
  -15.8905    4.3839  -13.4364 C   0  0  0  0  0  0  0  0  0  0  0  0
  -17.7830    1.6971  -15.1634 C   0  0  0  0  0  0  0  0  0  0  0  0
  -17.8690    1.1876  -12.0175 C   0  0  0  0  0  0  0  0  0  0  0  0
  -17.1867    0.3897  -11.3014 O   0  0  0  0  0  0  0  0  0  0  0  0
  -19.1337    1.0791  -12.0594 O   0  0  0  0  0  0  0  0  0  0  0  0
  -19.6371    1.6672  -12.5873 H   0  0  0  0  0  0  0  0  0  0  0  0
  6  3  1  0  0  0
  4  3  1  0  0  0
  4  5  2  0  0  0
  3  2  2  0  0  0
  5  1  1  0  0  0
  8  7  2  0  0  0
  2  7  1  0  0  0
  2  1  1  0  0  0
  7  9  1  0  0  0
  9 10  1  0  0  0
M  END
> <minimizedAffinity>
-5.61011

$$$$
5HIS_60P_A_403


 10 10  0  0  0  0  0  0  0  0999 V2000
  -17.6588    1.8514  -14.5344 S   0  0  0  0  0  0  0  0  0  0  0  0
  -16.7340    3.1477  -13.9121 C   0  0  0  0  0  0  0  0  0  0  0  0
  -16.7390    3.0083  -12.5284 C   0  0  0  0  0  0  0  0  0  0  0  0
  -17.4600    1.9224  -12.0311 C   0  0  0  0  0  0  0  0  0  0  0  0
  -18.0248    1.1415  -13.0128 C   0  0  0  0  0  0  0  0  0  0  0  0
  -16.0487    3.9534  -11.6088 C   0  0  0  0  0  0  0  0  0  0  0  0
  -16.0647    4.1655  -14.7897 C   0  0  0  0  0  0  0  0  0  0  0  0
  -14.8018    4.1867  -14.9308 O   0  0  0  0  0  0  0  0  0  0  0  0
  -16.7898    4.9778  -15.4432 O   0  0  0  0  0  0  0  0  0  0  0  0
  -17.7209    4.9625  -15.3395 H   0  0  0  0  0  0  0  0  0  0  0  0
  6  3  1  0  0  0
  4  3  1  0  0  0
  4  5  2  0  0  0
  3  2  2  0  0  0
  5  1  1  0  0  0
  8  7  2  0  0  0
  2  7  1  0  0  0
  2  1  1  0  0  0
  7  9  1  0  0  0
  9 10  1  0  0  0
M  END
> <minimizedAffinity>
-5.52664

$$$$
5HIS_60P_A_403


 10 10  0  0  0  0  0  0  0  0999 V2000
  -18.1441    1.0012  -10.7125 S   0  0  0  0  0  0  0  0  0  0  0  0
  -17.4237    2.5270  -10.4371 C   0  0  0  0  0  0  0  0  0  0  0  0
  -16.7853    2.8821  -11.6205 C   0  0  0  0  0  0  0  0  0  0  0  0
  -16.8796    1.9577  -12.6612 C   0  0  0  0  0  0  0  0  0  0  0  0
  -17.6295    0.8486  -12.3450 C   0  0  0  0  0  0  0  0  0  0  0  0
  -16.0229    4.1492  -11.7900 C   0  0  0  0  0  0  0  0  0  0  0  0
  -17.5490    3.2636   -9.1348 C   0  0  0  0  0  0  0  0  0  0  0  0
  -16.6181    3.2378   -8.2700 O   0  0  0  0  0  0  0  0  0  0  0  0
  -18.5851    3.9690   -8.9309 O   0  0  0  0  0  0  0  0  0  0  0  0
  -19.2716    3.9883   -9.5683 H   0  0  0  0  0  0  0  0  0  0  0  0
  6  3  1  0  0  0
  4  3  1  0  0  0
  4  5  2  0  0  0
  3  2  2  0  0  0
  5  1  1  0  0  0
  8  7  2  0  0  0
  2  7  1  0  0  0
  2  1  1  0  0  0
  7  9  1  0  0  0
  9 10  1  0  0  0
M  END
> <minimizedAffinity>
-5.49690

$$$$
5HIS_60P_A_403


 10 10  0  0  0  0  0  0  0  0999 V2000
  -18.5448    1.5730   -9.9033 S   0  0  0  0  0  0  0  0  0  0  0  0
  -17.8253    1.9697  -11.4025 C   0  0  0  0  0  0  0  0  0  0  0  0
  -17.0037    3.0671  -11.1685 C   0  0  0  0  0  0  0  0  0  0  0  0
  -16.9850    3.5417   -9.8567 C   0  0  0  0  0  0  0  0  0  0  0  0
  -17.7699    2.8098   -8.9961 C   0  0  0  0  0  0  0  0  0  0  0  0
  -16.2013    3.7297  -12.2328 C   0  0  0  0  0  0  0  0  0  0  0  0
  -18.0819    1.1912  -12.6604 C   0  0  0  0  0  0  0  0  0  0  0  0
  -18.7061    1.7070  -13.6399 O   0  0  0  0  0  0  0  0  0  0  0  0
  -17.6105    0.0159  -12.7565 O   0  0  0  0  0  0  0  0  0  0  0  0
  -17.1503   -0.3648  -12.0346 H   0  0  0  0  0  0  0  0  0  0  0  0
  6  3  1  0  0  0
  4  3  1  0  0  0
  4  5  2  0  0  0
  3  2  2  0  0  0
  5  1  1  0  0  0
  8  7  2  0  0  0
  2  7  1  0  0  0
  2  1  1  0  0  0
  7  9  1  0  0  0
  9 10  1  0  0  0
M  END
> <minimizedAffinity>
-5.49228

$$$$
5HIS_60P_A_403


 10 10  0  0  0  0  0  0  0  0999 V2000
  -16.5841    3.0517  -11.9947 S   0  0  0  0  0  0  0  0  0  0  0  0
  -16.7592    2.9695  -13.6933 C   0  0  0  0  0  0  0  0  0  0  0  0
  -17.4655    1.8020  -13.9618 C   0  0  0  0  0  0  0  0  0  0  0  0
  -17.8195    1.0381  -12.8493 C   0  0  0  0  0  0  0  0  0  0  0  0
  -17.4323    1.5967  -11.6532 C   0  0  0  0  0  0  0  0  0  0  0  0
  -17.8164    1.3566  -15.3380 C   0  0  0  0  0  0  0  0  0  0  0  0
  -16.2356    4.0299  -14.6183 C   0  0  0  0  0  0  0  0  0  0  0  0
  -14.9898    4.1641  -14.8303 O   0  0  0  0  0  0  0  0  0  0  0  0
  -17.0673    4.7621  -15.2387 O   0  0  0  0  0  0  0  0  0  0  0  0
  -17.9860    4.6635  -15.0827 H   0  0  0  0  0  0  0  0  0  0  0  0
  6  3  1  0  0  0
  4  3  1  0  0  0
  4  5  2  0  0  0
  3  2  2  0  0  0
  5  1  1  0  0  0
  8  7  2  0  0  0
  2  7  1  0  0  0
  2  1  1  0  0  0
  7  9  1  0  0  0
  9 10  1  0  0  0
M  END
> <minimizedAffinity>
-5.39706

$$$$
5HIS_60P_A_403


 10 10  0  0  0  0  0  0  0  0999 V2000
  -17.8160    0.9915  -12.8354 S   0  0  0  0  0  0  0  0  0  0  0  0
  -17.0726    2.5037  -13.1243 C   0  0  0  0  0  0  0  0  0  0  0  0
  -16.6796    2.9944  -11.8838 C   0  0  0  0  0  0  0  0  0  0  0  0
  -16.9822    2.1853  -10.7882 C   0  0  0  0  0  0  0  0  0  0  0  0
  -17.5980    1.0038  -11.1308 C   0  0  0  0  0  0  0  0  0  0  0  0
  -15.9990    4.3054  -11.7012 C   0  0  0  0  0  0  0  0  0  0  0  0
  -16.9041    3.0784  -14.5010 C   0  0  0  0  0  0  0  0  0  0  0  0
  -15.8066    3.6048  -14.8665 O   0  0  0  0  0  0  0  0  0  0  0  0
  -17.8651    2.9781  -15.3252 O   0  0  0  0  0  0  0  0  0  0  0  0
  -18.6744    2.5900  -15.0561 H   0  0  0  0  0  0  0  0  0  0  0  0
  6  3  1  0  0  0
  4  3  1  0  0  0
  4  5  2  0  0  0
  3  2  2  0  0  0
  5  1  1  0  0  0
  8  7  2  0  0  0
  2  7  1  0  0  0
  2  1  1  0  0  0
  7  9  1  0  0  0
  9 10  1  0  0  0
M  END
> <minimizedAffinity>
-5.33705

$$$$
