4RDN_6MD_A_601


 24 26  0  0  0  0  0  0  0  0999 V2000
   -7.4967  -31.7665   10.9827 C   0  0  0  0  0  0  0  0  0  0  0  0
   -8.1960  -30.8612   10.1090 O   0  0  0  0  0  0  0  0  0  0  0  0
   -7.8587  -31.3608   12.4005 C   0  0  0  0  0  0  0  0  0  0  0  0
   -6.8475  -31.6646   13.3586 O   0  0  0  0  0  0  0  0  0  0  0  0
   -8.1006  -29.8711   12.2623 C   0  0  0  0  0  0  0  0  0  0  0  0
   -6.8994  -29.1272   12.4423 O   0  0  0  0  0  0  0  0  0  0  0  0
   -8.6309  -29.7182   10.8401 C   0  0  0  0  0  0  0  0  0  0  0  0
   -6.0223  -31.2195   13.1100 H   0  0  0  0  0  0  0  0  0  0  0  0
   -6.2379  -29.4200   11.7961 H   0  0  0  0  0  0  0  0  0  0  0  0
  -10.1096  -29.7585   10.7641 N   0  0  0  0  0  0  0  0  0  0  0  0
  -10.9286  -30.7503   11.1835 C   0  0  0  0  0  0  0  0  0  0  0  0
  -12.2231  -30.4525   10.9158 N   0  0  0  0  0  0  0  0  0  0  0  0
  -12.2384  -29.2576   10.3079 C   0  0  0  0  0  0  0  0  0  0  0  0
  -13.2831  -28.3591    9.7672 C   0  0  0  0  0  0  0  0  0  0  0  0
  -12.8670  -27.1939    9.2072 N   0  0  0  0  0  0  0  0  0  0  0  0
  -11.5716  -26.8488    9.1378 C   0  0  0  0  0  0  0  0  0  0  0  0
  -10.5782  -27.6147    9.6133 N   0  0  0  0  0  0  0  0  0  0  0  0
  -10.8453  -28.8069   10.2015 C   0  0  0  0  0  0  0  0  0  0  0  0
  -14.5768  -28.7409    9.8065 N   0  0  0  0  0  0  0  0  0  0  0  0
  -15.1724  -29.3139   11.0014 C   0  0  0  0  0  0  0  0  0  0  0  0
  -15.1331  -28.6278    9.0022 H   0  0  0  0  0  0  0  0  0  0  0  0
   -7.3663  -34.0259   11.7269 O   0  0  0  0  0  0  0  0  0  0  0  0
   -7.8953  -33.2072   10.7065 C   0  0  0  0  0  0  0  0  0  0  0  0
   -7.6141  -34.9491   11.5619 H   0  0  0  0  0  0  0  0  0  0  0  0
 16 15  2  0  0  0
 16 17  1  0  0  0
 15 14  1  0  0  0
 17 18  2  0  0  0
 20 19  1  0  0  0
 14 19  1  0  0  0
 14 13  2  0  0  0
 18 13  1  0  0  0
 18 10  1  0  0  0
  1  2  1  0  0  0
  1 23  1  0  0  0
  1  3  1  0  0  0
  2  7  1  0  0  0
 13 12  1  0  0  0
 23 22  1  0  0  0
  4  3  1  0  0  0
  7 10  1  0  0  0
  7  5  1  0  0  0
 10 11  1  0  0  0
  3  5  1  0  0  0
  5  6  1  0  0  0
 12 11  2  0  0  0
 22 24  1  0  0  0
  4  8  1  0  0  0
  6  9  1  0  0  0
 19 21  1  0  0  0
M  END
> <minimizedAffinity>
-6.62857

$$$$
4RDN_6MD_A_601


 24 26  0  0  0  0  0  0  0  0999 V2000
   -8.9118  -30.2408   12.5137 C   0  0  0  0  0  0  0  0  0  0  0  0
  -10.3341  -30.3125   12.3037 O   0  0  0  0  0  0  0  0  0  0  0  0
   -8.2794  -30.1314   11.1376 C   0  0  0  0  0  0  0  0  0  0  0  0
   -6.9626  -30.6737   11.0681 O   0  0  0  0  0  0  0  0  0  0  0  0
   -9.2647  -30.8824   10.2647 C   0  0  0  0  0  0  0  0  0  0  0  0
   -8.9584  -32.2721   10.2063 O   0  0  0  0  0  0  0  0  0  0  0  0
  -10.6090  -30.6467   10.9462 C   0  0  0  0  0  0  0  0  0  0  0  0
   -6.9839  -31.6086   11.3261 H   0  0  0  0  0  0  0  0  0  0  0  0
   -8.9576  -32.6410   11.1034 H   0  0  0  0  0  0  0  0  0  0  0  0
  -11.3365  -29.4749   10.4062 N   0  0  0  0  0  0  0  0  0  0  0  0
  -10.8101  -28.3924    9.7885 C   0  0  0  0  0  0  0  0  0  0  0  0
  -11.7798  -27.5033    9.4638 N   0  0  0  0  0  0  0  0  0  0  0  0
  -12.9452  -28.0148    9.8856 C   0  0  0  0  0  0  0  0  0  0  0  0
  -14.3622  -27.5883    9.8501 C   0  0  0  0  0  0  0  0  0  0  0  0
  -15.2737  -28.4248   10.4105 N   0  0  0  0  0  0  0  0  0  0  0  0
  -14.9297  -29.5931   10.9749 C   0  0  0  0  0  0  0  0  0  0  0  0
  -13.6659  -30.0392   11.0346 N   0  0  0  0  0  0  0  0  0  0  0  0
  -12.6495  -29.3085   10.5133 C   0  0  0  0  0  0  0  0  0  0  0  0
  -14.6853  -26.3915    9.3173 N   0  0  0  0  0  0  0  0  0  0  0  0
  -15.8338  -25.6305    9.7785 C   0  0  0  0  0  0  0  0  0  0  0  0
  -14.1266  -26.0232    8.5952 H   0  0  0  0  0  0  0  0  0  0  0  0
   -7.1759  -29.1191   13.6985 O   0  0  0  0  0  0  0  0  0  0  0  0
   -8.5486  -29.0456   13.3801 C   0  0  0  0  0  0  0  0  0  0  0  0
   -6.9313  -28.3609   14.2519 H   0  0  0  0  0  0  0  0  0  0  0  0
 16 15  2  0  0  0
 16 17  1  0  0  0
 15 14  1  0  0  0
 17 18  2  0  0  0
 20 19  1  0  0  0
 14 19  1  0  0  0
 14 13  2  0  0  0
 18 13  1  0  0  0
 18 10  1  0  0  0
  1  2  1  0  0  0
  1 23  1  0  0  0
  1  3  1  0  0  0
  2  7  1  0  0  0
 13 12  1  0  0  0
 23 22  1  0  0  0
  4  3  1  0  0  0
  7 10  1  0  0  0
  7  5  1  0  0  0
 10 11  1  0  0  0
  3  5  1  0  0  0
  5  6  1  0  0  0
 12 11  2  0  0  0
 22 24  1  0  0  0
  4  8  1  0  0  0
  6  9  1  0  0  0
 19 21  1  0  0  0
M  END
> <minimizedAffinity>
-6.53213

$$$$
4RDN_6MD_A_601


 24 26  0  0  0  0  0  0  0  0999 V2000
  -11.0329  -28.7465    9.6775 C   0  0  0  0  0  0  0  0  0  0  0  0
   -9.6679  -29.0784    9.9918 O   0  0  0  0  0  0  0  0  0  0  0  0
  -11.8966  -29.4748   10.6920 C   0  0  0  0  0  0  0  0  0  0  0  0
  -13.1972  -29.8009   10.2071 O   0  0  0  0  0  0  0  0  0  0  0  0
  -11.0672  -30.7040   11.0047 C   0  0  0  0  0  0  0  0  0  0  0  0
  -11.3582  -31.7731   10.1097 O   0  0  0  0  0  0  0  0  0  0  0  0
   -9.6285  -30.2256   10.8359 C   0  0  0  0  0  0  0  0  0  0  0  0
  -13.1174  -30.3539    9.4142 H   0  0  0  0  0  0  0  0  0  0  0  0
  -11.1974  -31.4842    9.1978 H   0  0  0  0  0  0  0  0  0  0  0  0
   -9.0236  -29.7465   12.1003 N   0  0  0  0  0  0  0  0  0  0  0  0
   -9.6516  -29.5077   13.2745 C   0  0  0  0  0  0  0  0  0  0  0  0
   -8.7802  -29.0416   14.2016 N   0  0  0  0  0  0  0  0  0  0  0  0
   -7.5767  -28.9702   13.6150 C   0  0  0  0  0  0  0  0  0  0  0  0
   -6.2167  -28.5659   14.0369 C   0  0  0  0  0  0  0  0  0  0  0  0
   -5.2323  -28.6407   13.1042 N   0  0  0  0  0  0  0  0  0  0  0  0
   -5.4574  -29.0621   11.8497 C   0  0  0  0  0  0  0  0  0  0  0  0
   -6.6637  -29.4471   11.4067 N   0  0  0  0  0  0  0  0  0  0  0  0
   -7.7413  -29.4265   12.2295 C   0  0  0  0  0  0  0  0  0  0  0  0
   -6.0164  -28.1042   15.2889 N   0  0  0  0  0  0  0  0  0  0  0  0
   -6.2539  -26.7150   15.6423 C   0  0  0  0  0  0  0  0  0  0  0  0
   -5.7002  -28.7266   15.9830 H   0  0  0  0  0  0  0  0  0  0  0  0
  -10.0025  -26.6023    9.8058 O   0  0  0  0  0  0  0  0  0  0  0  0
  -11.2576  -27.2445    9.7445 C   0  0  0  0  0  0  0  0  0  0  0  0
  -10.1325  -25.6420    9.8490 H   0  0  0  0  0  0  0  0  0  0  0  0
 16 15  2  0  0  0
 16 17  1  0  0  0
 15 14  1  0  0  0
 17 18  2  0  0  0
 20 19  1  0  0  0
 14 19  1  0  0  0
 14 13  2  0  0  0
 18 13  1  0  0  0
 18 10  1  0  0  0
  1  2  1  0  0  0
  1 23  1  0  0  0
  1  3  1  0  0  0
  2  7  1  0  0  0
 13 12  1  0  0  0
 23 22  1  0  0  0
  4  3  1  0  0  0
  7 10  1  0  0  0
  7  5  1  0  0  0
 10 11  1  0  0  0
  3  5  1  0  0  0
  5  6  1  0  0  0
 12 11  2  0  0  0
 22 24  1  0  0  0
  4  8  1  0  0  0
  6  9  1  0  0  0
 19 21  1  0  0  0
M  END
> <minimizedAffinity>
-5.74332

$$$$
4RDN_6MD_A_601


 24 26  0  0  0  0  0  0  0  0999 V2000
   -9.6122  -29.6430   12.7717 C   0  0  0  0  0  0  0  0  0  0  0  0
   -8.2345  -29.9259   12.4649 O   0  0  0  0  0  0  0  0  0  0  0  0
  -10.4452  -30.5393   11.8727 C   0  0  0  0  0  0  0  0  0  0  0  0
  -11.7259  -29.9993   11.5544 O   0  0  0  0  0  0  0  0  0  0  0  0
   -9.5591  -30.6928   10.6529 C   0  0  0  0  0  0  0  0  0  0  0  0
   -9.7933  -29.6581    9.7026 O   0  0  0  0  0  0  0  0  0  0  0  0
   -8.1443  -30.6075   11.2170 C   0  0  0  0  0  0  0  0  0  0  0  0
  -11.6152  -29.1399   11.1185 H   0  0  0  0  0  0  0  0  0  0  0  0
   -9.6416  -28.7956   10.1197 H   0  0  0  0  0  0  0  0  0  0  0  0
   -7.5701  -31.9322   11.5482 N   0  0  0  0  0  0  0  0  0  0  0  0
   -7.2248  -32.3972   12.7708 C   0  0  0  0  0  0  0  0  0  0  0  0
   -6.6958  -33.6415   12.6819 N   0  0  0  0  0  0  0  0  0  0  0  0
   -6.6915  -33.9796   11.3844 C   0  0  0  0  0  0  0  0  0  0  0  0
   -6.2735  -35.1641   10.6014 C   0  0  0  0  0  0  0  0  0  0  0  0
   -6.4406  -35.1054    9.2548 N   0  0  0  0  0  0  0  0  0  0  0  0
   -6.9620  -34.0328    8.6385 C   0  0  0  0  0  0  0  0  0  0  0  0
   -7.3648  -32.9316    9.2901 N   0  0  0  0  0  0  0  0  0  0  0  0
   -7.2595  -32.8493   10.6395 C   0  0  0  0  0  0  0  0  0  0  0  0
   -5.7118  -36.2164   11.2322 N   0  0  0  0  0  0  0  0  0  0  0  0
   -4.3346  -36.1891   11.6940 C   0  0  0  0  0  0  0  0  0  0  0  0
   -6.2509  -37.0261   11.3840 H   0  0  0  0  0  0  0  0  0  0  0  0
  -11.3079  -29.9955   14.4076 O   0  0  0  0  0  0  0  0  0  0  0  0
   -9.9095  -29.9099   14.2385 C   0  0  0  0  0  0  0  0  0  0  0  0
  -11.5109  -30.1658   15.3407 H   0  0  0  0  0  0  0  0  0  0  0  0
 16 15  2  0  0  0
 16 17  1  0  0  0
 15 14  1  0  0  0
 17 18  2  0  0  0
 20 19  1  0  0  0
 14 19  1  0  0  0
 14 13  2  0  0  0
 18 13  1  0  0  0
 18 10  1  0  0  0
  1  2  1  0  0  0
  1 23  1  0  0  0
  1  3  1  0  0  0
  2  7  1  0  0  0
 13 12  1  0  0  0
 23 22  1  0  0  0
  4  3  1  0  0  0
  7 10  1  0  0  0
  7  5  1  0  0  0
 10 11  1  0  0  0
  3  5  1  0  0  0
  5  6  1  0  0  0
 12 11  2  0  0  0
 22 24  1  0  0  0
  4  8  1  0  0  0
  6  9  1  0  0  0
 19 21  1  0  0  0
M  END
> <minimizedAffinity>
-5.43186

$$$$
4RDN_6MD_A_601


 24 26  0  0  0  0  0  0  0  0999 V2000
   -9.9339  -29.5376   10.0792 C   0  0  0  0  0  0  0  0  0  0  0  0
   -8.6189  -29.1794   10.5425 O   0  0  0  0  0  0  0  0  0  0  0  0
  -10.4153  -30.6613   10.9799 C   0  0  0  0  0  0  0  0  0  0  0  0
  -11.3340  -31.5489   10.3465 O   0  0  0  0  0  0  0  0  0  0  0  0
   -9.1203  -31.3452   11.3696 C   0  0  0  0  0  0  0  0  0  0  0  0
   -8.7612  -32.3575   10.4342 O   0  0  0  0  0  0  0  0  0  0  0  0
   -8.0968  -30.2140   11.3714 C   0  0  0  0  0  0  0  0  0  0  0  0
  -10.9184  -31.9377    9.5609 H   0  0  0  0  0  0  0  0  0  0  0  0
   -8.6801  -31.9667    9.5501 H   0  0  0  0  0  0  0  0  0  0  0  0
   -7.9276  -29.5859   12.7021 N   0  0  0  0  0  0  0  0  0  0  0  0
   -8.8895  -29.3222   13.6161 C   0  0  0  0  0  0  0  0  0  0  0  0
   -8.3659  -28.7064   14.7036 N   0  0  0  0  0  0  0  0  0  0  0  0
   -7.0510  -28.5628   14.4841 C   0  0  0  0  0  0  0  0  0  0  0  0
   -5.9083  -27.9986   15.2372 C   0  0  0  0  0  0  0  0  0  0  0  0
   -4.6897  -28.0471   14.6394 N   0  0  0  0  0  0  0  0  0  0  0  0
   -4.5041  -28.5805   13.4216 C   0  0  0  0  0  0  0  0  0  0  0  0
   -5.4954  -29.1122   12.6908 N   0  0  0  0  0  0  0  0  0  0  0  0
   -6.7666  -29.1347   13.1624 C   0  0  0  0  0  0  0  0  0  0  0  0
   -6.1197  -27.4278   16.4414 N   0  0  0  0  0  0  0  0  0  0  0  0
   -6.6111  -26.0667   16.5705 C   0  0  0  0  0  0  0  0  0  0  0  0
   -5.9357  -27.9489   17.2563 H   0  0  0  0  0  0  0  0  0  0  0  0
  -12.1587  -28.7630    9.7243 O   0  0  0  0  0  0  0  0  0  0  0  0
  -10.8759  -28.3460   10.1389 C   0  0  0  0  0  0  0  0  0  0  0  0
  -12.7699  -28.0106    9.7580 H   0  0  0  0  0  0  0  0  0  0  0  0
 16 15  2  0  0  0
 16 17  1  0  0  0
 15 14  1  0  0  0
 17 18  2  0  0  0
 20 19  1  0  0  0
 14 19  1  0  0  0
 14 13  2  0  0  0
 18 13  1  0  0  0
 18 10  1  0  0  0
  1  2  1  0  0  0
  1 23  1  0  0  0
  1  3  1  0  0  0
  2  7  1  0  0  0
 13 12  1  0  0  0
 23 22  1  0  0  0
  4  3  1  0  0  0
  7 10  1  0  0  0
  7  5  1  0  0  0
 10 11  1  0  0  0
  3  5  1  0  0  0
  5  6  1  0  0  0
 12 11  2  0  0  0
 22 24  1  0  0  0
  4  8  1  0  0  0
  6  9  1  0  0  0
 19 21  1  0  0  0
M  END
> <minimizedAffinity>
-5.34123

$$$$
4RDN_6MD_A_601


 24 26  0  0  0  0  0  0  0  0999 V2000
   -9.1462  -30.6253   10.4052 C   0  0  0  0  0  0  0  0  0  0  0  0
   -8.3896  -29.4503   10.7501 O   0  0  0  0  0  0  0  0  0  0  0  0
   -8.4176  -31.8033   11.0274 C   0  0  0  0  0  0  0  0  0  0  0  0
   -8.5985  -33.0272   10.3186 O   0  0  0  0  0  0  0  0  0  0  0  0
   -6.9762  -31.3356   11.0221 C   0  0  0  0  0  0  0  0  0  0  0  0
   -6.3200  -31.6763    9.8048 O   0  0  0  0  0  0  0  0  0  0  0  0
   -7.0833  -29.8221   11.1808 C   0  0  0  0  0  0  0  0  0  0  0  0
   -8.2912  -32.9202    9.4049 H   0  0  0  0  0  0  0  0  0  0  0  0
   -6.8009  -31.2862    9.0581 H   0  0  0  0  0  0  0  0  0  0  0  0
   -7.0081  -29.3793   12.5923 N   0  0  0  0  0  0  0  0  0  0  0  0
   -8.0355  -29.1956   13.4531 C   0  0  0  0  0  0  0  0  0  0  0  0
   -7.5870  -28.7485   14.6511 N   0  0  0  0  0  0  0  0  0  0  0  0
   -6.2543  -28.6336   14.5586 C   0  0  0  0  0  0  0  0  0  0  0  0
   -5.1626  -28.2207   15.4689 C   0  0  0  0  0  0  0  0  0  0  0  0
   -3.8998  -28.2431   14.9696 N   0  0  0  0  0  0  0  0  0  0  0  0
   -3.6282  -28.6217   13.7107 C   0  0  0  0  0  0  0  0  0  0  0  0
   -4.5701  -29.0118   12.8388 N   0  0  0  0  0  0  0  0  0  0  0  0
   -5.8768  -29.0412   13.1998 C   0  0  0  0  0  0  0  0  0  0  0  0
   -5.4575  -27.8022   16.7174 N   0  0  0  0  0  0  0  0  0  0  0  0
   -5.9002  -26.4451   16.9878 C   0  0  0  0  0  0  0  0  0  0  0  0
   -5.3702  -28.4348   17.4667 H   0  0  0  0  0  0  0  0  0  0  0  0
  -11.3311  -31.5740   10.3596 O   0  0  0  0  0  0  0  0  0  0  0  0
  -10.5718  -30.5270   10.9239 C   0  0  0  0  0  0  0  0  0  0  0  0
  -12.2440  -31.5222   10.6832 H   0  0  0  0  0  0  0  0  0  0  0  0
 16 15  2  0  0  0
 16 17  1  0  0  0
 15 14  1  0  0  0
 17 18  2  0  0  0
 20 19  1  0  0  0
 14 19  1  0  0  0
 14 13  2  0  0  0
 18 13  1  0  0  0
 18 10  1  0  0  0
  1  2  1  0  0  0
  1 23  1  0  0  0
  1  3  1  0  0  0
  2  7  1  0  0  0
 13 12  1  0  0  0
 23 22  1  0  0  0
  4  3  1  0  0  0
  7 10  1  0  0  0
  7  5  1  0  0  0
 10 11  1  0  0  0
  3  5  1  0  0  0
  5  6  1  0  0  0
 12 11  2  0  0  0
 22 24  1  0  0  0
  4  8  1  0  0  0
  6  9  1  0  0  0
 19 21  1  0  0  0
M  END
> <minimizedAffinity>
-5.16370

$$$$
4RDN_6MD_A_601


 24 26  0  0  0  0  0  0  0  0999 V2000
   -9.7686  -29.3961   12.7812 C   0  0  0  0  0  0  0  0  0  0  0  0
   -8.4119  -29.0967   12.4044 O   0  0  0  0  0  0  0  0  0  0  0  0
  -10.3219  -30.3109   11.7030 C   0  0  0  0  0  0  0  0  0  0  0  0
  -11.7336  -30.2058   11.5324 O   0  0  0  0  0  0  0  0  0  0  0  0
   -9.5530  -29.8696   10.4739 C   0  0  0  0  0  0  0  0  0  0  0  0
  -10.2145  -28.8052    9.7971 O   0  0  0  0  0  0  0  0  0  0  0  0
   -8.2081  -29.4122   11.0300 C   0  0  0  0  0  0  0  0  0  0  0  0
  -11.9653  -29.2903   11.3110 H   0  0  0  0  0  0  0  0  0  0  0  0
  -10.3306  -28.0583   10.4049 H   0  0  0  0  0  0  0  0  0  0  0  0
   -7.1861  -30.4844   11.0337 N   0  0  0  0  0  0  0  0  0  0  0  0
   -7.3489  -31.7779   10.6720 C   0  0  0  0  0  0  0  0  0  0  0  0
   -6.1994  -32.4748   10.8426 N   0  0  0  0  0  0  0  0  0  0  0  0
   -5.2863  -31.6220   11.3293 C   0  0  0  0  0  0  0  0  0  0  0  0
   -3.8627  -31.7092   11.7254 C   0  0  0  0  0  0  0  0  0  0  0  0
   -3.2796  -30.5738   12.1894 N   0  0  0  0  0  0  0  0  0  0  0  0
   -3.9432  -29.4113   12.2909 C   0  0  0  0  0  0  0  0  0  0  0  0
   -5.2308  -29.2648   11.9441 N   0  0  0  0  0  0  0  0  0  0  0  0
   -5.9408  -30.3148   11.4623 C   0  0  0  0  0  0  0  0  0  0  0  0
   -3.2229  -32.8953   11.6574 N   0  0  0  0  0  0  0  0  0  0  0  0
   -3.4183  -33.9316   12.6568 C   0  0  0  0  0  0  0  0  0  0  0  0
   -2.6059  -33.0633   10.9089 H   0  0  0  0  0  0  0  0  0  0  0  0
  -11.1615  -30.0948   14.5832 O   0  0  0  0  0  0  0  0  0  0  0  0
   -9.8202  -30.0640   14.1458 C   0  0  0  0  0  0  0  0  0  0  0  0
  -11.2079  -30.5192   15.4542 H   0  0  0  0  0  0  0  0  0  0  0  0
 16 15  2  0  0  0
 16 17  1  0  0  0
 15 14  1  0  0  0
 17 18  2  0  0  0
 20 19  1  0  0  0
 14 19  1  0  0  0
 14 13  2  0  0  0
 18 13  1  0  0  0
 18 10  1  0  0  0
  1  2  1  0  0  0
  1 23  1  0  0  0
  1  3  1  0  0  0
  2  7  1  0  0  0
 13 12  1  0  0  0
 23 22  1  0  0  0
  4  3  1  0  0  0
  7 10  1  0  0  0
  7  5  1  0  0  0
 10 11  1  0  0  0
  3  5  1  0  0  0
  5  6  1  0  0  0
 12 11  2  0  0  0
 22 24  1  0  0  0
  4  8  1  0  0  0
  6  9  1  0  0  0
 19 21  1  0  0  0
M  END
> <minimizedAffinity>
-5.04461

$$$$
4RDN_6MD_A_601


 24 26  0  0  0  0  0  0  0  0999 V2000
   -5.6175  -35.0557   11.5642 C   0  0  0  0  0  0  0  0  0  0  0  0
   -5.8206  -34.1704   10.4474 O   0  0  0  0  0  0  0  0  0  0  0  0
   -5.8737  -34.2345   12.8154 C   0  0  0  0  0  0  0  0  0  0  0  0
   -5.1446  -34.6850   13.9549 O   0  0  0  0  0  0  0  0  0  0  0  0
   -5.4692  -32.8405   12.3798 C   0  0  0  0  0  0  0  0  0  0  0  0
   -4.0831  -32.6033   12.6056 O   0  0  0  0  0  0  0  0  0  0  0  0
   -5.7926  -32.8161   10.8891 C   0  0  0  0  0  0  0  0  0  0  0  0
   -4.1947  -34.6644   13.7598 H   0  0  0  0  0  0  0  0  0  0  0  0
   -3.5598  -33.2674   12.1300 H   0  0  0  0  0  0  0  0  0  0  0  0
   -7.1474  -32.2932   10.5972 N   0  0  0  0  0  0  0  0  0  0  0  0
   -8.0615  -32.8071    9.7425 C   0  0  0  0  0  0  0  0  0  0  0  0
   -9.1761  -32.0373    9.7080 N   0  0  0  0  0  0  0  0  0  0  0  0
   -8.9745  -31.0088   10.5443 C   0  0  0  0  0  0  0  0  0  0  0  0
   -9.7589  -29.8324   10.9824 C   0  0  0  0  0  0  0  0  0  0  0  0
   -9.1712  -28.9959   11.8766 N   0  0  0  0  0  0  0  0  0  0  0  0
   -7.9362  -29.2069   12.3583 C   0  0  0  0  0  0  0  0  0  0  0  0
   -7.1767  -30.2552   12.0063 N   0  0  0  0  0  0  0  0  0  0  0  0
   -7.6351  -31.1750   11.1217 C   0  0  0  0  0  0  0  0  0  0  0  0
  -10.9815  -29.6122   10.4558 N   0  0  0  0  0  0  0  0  0  0  0  0
  -12.1786  -30.2172   11.0142 C   0  0  0  0  0  0  0  0  0  0  0  0
  -11.0649  -29.0245    9.6703 H   0  0  0  0  0  0  0  0  0  0  0  0
   -7.8084  -35.8106   11.0113 O   0  0  0  0  0  0  0  0  0  0  0  0
   -6.5558  -36.2494   11.4907 C   0  0  0  0  0  0  0  0  0  0  0  0
   -8.4170  -36.5641   10.9598 H   0  0  0  0  0  0  0  0  0  0  0  0
 16 15  2  0  0  0
 16 17  1  0  0  0
 15 14  1  0  0  0
 17 18  2  0  0  0
 20 19  1  0  0  0
 14 19  1  0  0  0
 14 13  2  0  0  0
 18 13  1  0  0  0
 18 10  1  0  0  0
  1  2  1  0  0  0
  1 23  1  0  0  0
  1  3  1  0  0  0
  2  7  1  0  0  0
 13 12  1  0  0  0
 23 22  1  0  0  0
  4  3  1  0  0  0
  7 10  1  0  0  0
  7  5  1  0  0  0
 10 11  1  0  0  0
  3  5  1  0  0  0
  5  6  1  0  0  0
 12 11  2  0  0  0
 22 24  1  0  0  0
  4  8  1  0  0  0
  6  9  1  0  0  0
 19 21  1  0  0  0
M  END
> <minimizedAffinity>
-4.91359

$$$$
4RDN_6MD_A_601


 24 26  0  0  0  0  0  0  0  0999 V2000
   -5.5629  -32.4305   10.9527 C   0  0  0  0  0  0  0  0  0  0  0  0
   -5.9424  -32.2574   12.3304 O   0  0  0  0  0  0  0  0  0  0  0  0
   -6.8199  -32.2101   10.1299 C   0  0  0  0  0  0  0  0  0  0  0  0
   -6.8295  -32.9254    8.8966 O   0  0  0  0  0  0  0  0  0  0  0  0
   -7.9132  -32.6658   11.0752 C   0  0  0  0  0  0  0  0  0  0  0  0
   -8.1697  -34.0607   10.9449 O   0  0  0  0  0  0  0  0  0  0  0  0
   -7.3592  -32.3383   12.4584 C   0  0  0  0  0  0  0  0  0  0  0  0
   -6.7368  -33.8748    9.0728 H   0  0  0  0  0  0  0  0  0  0  0  0
   -7.3534  -34.5567   11.1138 H   0  0  0  0  0  0  0  0  0  0  0  0
   -7.7733  -31.0034   12.9489 N   0  0  0  0  0  0  0  0  0  0  0  0
   -8.7173  -30.1896   12.4226 C   0  0  0  0  0  0  0  0  0  0  0  0
   -8.7961  -29.0294   13.1182 N   0  0  0  0  0  0  0  0  0  0  0  0
   -7.8850  -29.0920   14.0998 C   0  0  0  0  0  0  0  0  0  0  0  0
   -7.4532  -28.2015   15.2006 C   0  0  0  0  0  0  0  0  0  0  0  0
   -6.4572  -28.6527   16.0062 N   0  0  0  0  0  0  0  0  0  0  0  0
   -5.8764  -29.8506   15.8336 C   0  0  0  0  0  0  0  0  0  0  0  0
   -6.2249  -30.7055   14.8603 N   0  0  0  0  0  0  0  0  0  0  0  0
   -7.2072  -30.3887   13.9808 C   0  0  0  0  0  0  0  0  0  0  0  0
   -8.0180  -26.9832   15.3335 N   0  0  0  0  0  0  0  0  0  0  0  0
   -7.2543  -25.8260   15.7677 C   0  0  0  0  0  0  0  0  0  0  0  0
   -8.9752  -26.8754   15.1303 H   0  0  0  0  0  0  0  0  0  0  0  0
   -4.9120  -30.7065    9.4428 O   0  0  0  0  0  0  0  0  0  0  0  0
   -4.4720  -31.4472   10.5604 C   0  0  0  0  0  0  0  0  0  0  0  0
   -4.2237  -30.0746    9.1824 H   0  0  0  0  0  0  0  0  0  0  0  0
 16 15  2  0  0  0
 16 17  1  0  0  0
 15 14  1  0  0  0
 17 18  2  0  0  0
 20 19  1  0  0  0
 14 19  1  0  0  0
 14 13  2  0  0  0
 18 13  1  0  0  0
 18 10  1  0  0  0
  1  2  1  0  0  0
  1 23  1  0  0  0
  1  3  1  0  0  0
  2  7  1  0  0  0
 13 12  1  0  0  0
 23 22  1  0  0  0
  4  3  1  0  0  0
  7 10  1  0  0  0
  7  5  1  0  0  0
 10 11  1  0  0  0
  3  5  1  0  0  0
  5  6  1  0  0  0
 12 11  2  0  0  0
 22 24  1  0  0  0
  4  8  1  0  0  0
  6  9  1  0  0  0
 19 21  1  0  0  0
M  END
> <minimizedAffinity>
-4.83885

$$$$
4RDN_6MD_A_601


 24 26  0  0  0  0  0  0  0  0999 V2000
   -9.0692  -29.9268   10.5907 C   0  0  0  0  0  0  0  0  0  0  0  0
   -8.2500  -29.5690   11.7190 O   0  0  0  0  0  0  0  0  0  0  0  0
   -9.3318  -31.4179   10.7064 C   0  0  0  0  0  0  0  0  0  0  0  0
   -9.5436  -32.0607    9.4514 O   0  0  0  0  0  0  0  0  0  0  0  0
   -8.0863  -31.9153   11.4119 C   0  0  0  0  0  0  0  0  0  0  0  0
   -7.0582  -32.2501   10.4848 O   0  0  0  0  0  0  0  0  0  0  0  0
   -7.6698  -30.7388   12.2892 C   0  0  0  0  0  0  0  0  0  0  0  0
   -8.7685  -31.9256    8.8841 H   0  0  0  0  0  0  0  0  0  0  0  0
   -6.8477  -31.4746    9.9415 H   0  0  0  0  0  0  0  0  0  0  0  0
   -8.2273  -30.8101   13.6596 N   0  0  0  0  0  0  0  0  0  0  0  0
   -9.1461  -29.9892   14.2182 C   0  0  0  0  0  0  0  0  0  0  0  0
   -9.3869  -30.3392   15.5050 N   0  0  0  0  0  0  0  0  0  0  0  0
   -8.6065  -31.3936   15.7825 C   0  0  0  0  0  0  0  0  0  0  0  0
   -8.3765  -32.2580   16.9619 C   0  0  0  0  0  0  0  0  0  0  0  0
   -7.4650  -33.2559   16.8285 N   0  0  0  0  0  0  0  0  0  0  0  0
   -6.7919  -33.4706   15.6871 C   0  0  0  0  0  0  0  0  0  0  0  0
   -6.9580  -32.7277   14.5824 N   0  0  0  0  0  0  0  0  0  0  0  0
   -7.8380  -31.6961   14.5689 C   0  0  0  0  0  0  0  0  0  0  0  0
   -9.0300  -32.0017   18.1143 N   0  0  0  0  0  0  0  0  0  0  0  0
  -10.3287  -32.5836   18.4065 C   0  0  0  0  0  0  0  0  0  0  0  0
   -8.6146  -31.4029   18.7763 H   0  0  0  0  0  0  0  0  0  0  0  0
  -11.4466  -30.0471   10.4960 O   0  0  0  0  0  0  0  0  0  0  0  0
  -10.3699  -29.1399   10.5905 C   0  0  0  0  0  0  0  0  0  0  0  0
  -12.2835  -29.5566   10.4949 H   0  0  0  0  0  0  0  0  0  0  0  0
 16 15  2  0  0  0
 16 17  1  0  0  0
 15 14  1  0  0  0
 17 18  2  0  0  0
 20 19  1  0  0  0
 14 19  1  0  0  0
 14 13  2  0  0  0
 18 13  1  0  0  0
 18 10  1  0  0  0
  1  2  1  0  0  0
  1 23  1  0  0  0
  1  3  1  0  0  0
  2  7  1  0  0  0
 13 12  1  0  0  0
 23 22  1  0  0  0
  4  3  1  0  0  0
  7 10  1  0  0  0
  7  5  1  0  0  0
 10 11  1  0  0  0
  3  5  1  0  0  0
  5  6  1  0  0  0
 12 11  2  0  0  0
 22 24  1  0  0  0
  4  8  1  0  0  0
  6  9  1  0  0  0
 19 21  1  0  0  0
M  END
> <minimizedAffinity>
-4.79659

$$$$
