4Q4P_2YO_A_405


 26 29  0  0  0  0  0  0  0  0999 V2000
  108.3992   18.3370   24.0864 O   0  0  0  0  0  0  0  0  0  0  0  0
  107.3552   17.9594   23.5606 C   0  0  0  0  0  0  0  0  0  0  0  0
  106.2277   17.6410   24.3071 N   0  0  0  0  0  0  0  0  0  0  0  0
  107.1898   17.8512   22.1094 C   0  0  0  0  0  0  0  0  0  0  0  0
  105.9306   17.4846   21.5908 C   0  0  0  0  0  0  0  0  0  0  0  0
  104.8895   17.1816   22.4641 N   0  0  0  0  0  0  0  0  0  0  0  0
  105.0422   17.2627   23.7978 C   0  0  0  0  0  0  0  0  0  0  0  0
  105.7155   17.4924   20.2086 C   0  0  0  0  0  0  0  0  0  0  0  0
  106.7496   17.8666   19.3463 C   0  0  0  0  0  0  0  0  0  0  0  0
  107.9979   18.1972   19.8719 C   0  0  0  0  0  0  0  0  0  0  0  0
  108.2174   18.1909   21.2323 C   0  0  0  0  0  0  0  0  0  0  0  0
  106.7638   18.0237   17.9620 N   0  0  0  0  0  0  0  0  0  0  0  0
  107.9942   18.4265   17.6927 C   0  0  0  0  0  0  0  0  0  0  0  0
  108.7810   18.5381   18.7859 N   0  0  0  0  0  0  0  0  0  0  0  0
  104.0205   16.9010   22.0963 H   0  0  0  0  0  0  0  0  0  0  0  0
  106.0259   17.8700   17.3286 H   0  0  0  0  0  0  0  0  0  0  0  0
  108.4779   18.7089   16.4805 N   0  0  0  0  0  0  0  0  0  0  0  0
  109.3726   18.3782   16.2370 H   0  0  0  0  0  0  0  0  0  0  0  0
  107.7300   19.4869   15.5094 C   0  0  0  0  0  0  0  0  0  0  0  0
  107.0217   18.6155   14.4963 C   0  0  0  0  0  0  0  0  0  0  0  0
  105.7620   18.0069   15.0296 N   0  0  0  0  0  0  0  0  0  0  0  0
  105.1820   17.0334   14.0574 C   0  0  0  0  0  0  0  0  0  0  0  0
  103.9570   16.3663   14.6344 C   0  0  0  0  0  0  0  0  0  0  0  0
  102.9119   17.3878   15.0339 C   0  0  0  0  0  0  0  0  0  0  0  0
  103.5066   18.4288   15.9614 C   0  0  0  0  0  0  0  0  0  0  0  0
  104.7508   19.0536   15.3702 C   0  0  0  0  0  0  0  0  0  0  0  0
 24 23  1  0  0  0
 24 25  1  0  0  0
 23 22  1  0  0  0
 25 26  1  0  0  0
 22 21  1  0  0  0
 26 21  1  0  0  0
 21 20  1  0  0  0
 20 19  1  0  0  0
 19 17  1  0  0  0
 17 13  1  0  0  0
 13 12  1  0  0  0
 13 14  2  0  0  0
 12  9  1  0  0  0
 14 10  1  0  0  0
  9 10  2  0  0  0
  9  8  1  0  0  0
 10 11  1  0  0  0
  8  5  2  0  0  0
 11  4  2  0  0  0
  5  4  1  0  0  0
  5  6  1  0  0  0
  4  2  1  0  0  0
  6  7  1  0  0  0
  2  1  2  0  0  0
  2  3  1  0  0  0
  7  3  2  0  0  0
  6 15  1  0  0  0
 12 16  1  0  0  0
 17 18  1  0  0  0
M  END
> <minimizedAffinity>
-8.37081

$$$$
4Q4P_2YO_A_405


 26 29  0  0  0  0  0  0  0  0999 V2000
  104.8024   17.6537   24.2123 O   0  0  0  0  0  0  0  0  0  0  0  0
  105.6337   17.7303   23.3111 C   0  0  0  0  0  0  0  0  0  0  0  0
  106.9488   18.1071   23.5521 N   0  0  0  0  0  0  0  0  0  0  0  0
  105.3295   17.3941   21.9183 C   0  0  0  0  0  0  0  0  0  0  0  0
  106.3666   17.4355   20.9635 C   0  0  0  0  0  0  0  0  0  0  0  0
  107.6399   17.8450   21.3493 N   0  0  0  0  0  0  0  0  0  0  0  0
  107.9193   18.1715   22.6238 C   0  0  0  0  0  0  0  0  0  0  0  0
  106.1283   17.0028   19.6548 C   0  0  0  0  0  0  0  0  0  0  0  0
  104.8630   16.5280   19.2990 C   0  0  0  0  0  0  0  0  0  0  0  0
  103.8395   16.5214   20.2458 C   0  0  0  0  0  0  0  0  0  0  0  0
  104.0666   16.9469   21.5367 C   0  0  0  0  0  0  0  0  0  0  0  0
  104.4029   15.9815   18.1029 N   0  0  0  0  0  0  0  0  0  0  0  0
  103.1404   15.6750   18.3494 C   0  0  0  0  0  0  0  0  0  0  0  0
  102.7414   15.9824   19.6035 N   0  0  0  0  0  0  0  0  0  0  0  0
  108.3533   17.8968   20.6728 H   0  0  0  0  0  0  0  0  0  0  0  0
  104.9036   15.8528   17.2651 H   0  0  0  0  0  0  0  0  0  0  0  0
  102.2871   15.1178   17.4865 N   0  0  0  0  0  0  0  0  0  0  0  0
  101.7402   14.3553   17.7843 H   0  0  0  0  0  0  0  0  0  0  0  0
  102.1380   15.5976   16.1244 C   0  0  0  0  0  0  0  0  0  0  0  0
  102.3722   17.0874   16.0100 C   0  0  0  0  0  0  0  0  0  0  0  0
  103.6712   17.4244   15.3464 N   0  0  0  0  0  0  0  0  0  0  0  0
  103.5451   18.6568   14.5128 C   0  0  0  0  0  0  0  0  0  0  0  0
  104.8769   19.0344   13.9110 C   0  0  0  0  0  0  0  0  0  0  0  0
  105.4460   17.9014   13.0817 C   0  0  0  0  0  0  0  0  0  0  0  0
  105.5085   16.6223   13.8925 C   0  0  0  0  0  0  0  0  0  0  0  0
  104.1682   16.2899   14.5099 C   0  0  0  0  0  0  0  0  0  0  0  0
 24 23  1  0  0  0
 24 25  1  0  0  0
 23 22  1  0  0  0
 25 26  1  0  0  0
 22 21  1  0  0  0
 26 21  1  0  0  0
 21 20  1  0  0  0
 20 19  1  0  0  0
 19 17  1  0  0  0
 17 13  1  0  0  0
 13 12  1  0  0  0
 13 14  2  0  0  0
 12  9  1  0  0  0
 14 10  1  0  0  0
  9 10  2  0  0  0
  9  8  1  0  0  0
 10 11  1  0  0  0
  8  5  2  0  0  0
 11  4  2  0  0  0
  5  4  1  0  0  0
  5  6  1  0  0  0
  4  2  1  0  0  0
  6  7  1  0  0  0
  2  1  2  0  0  0
  2  3  1  0  0  0
  7  3  2  0  0  0
  6 15  1  0  0  0
 12 16  1  0  0  0
 17 18  1  0  0  0
M  END
> <minimizedAffinity>
-8.09570

$$$$
4Q4P_2YO_A_405


 26 29  0  0  0  0  0  0  0  0999 V2000
  108.6287   18.4247   23.8706 O   0  0  0  0  0  0  0  0  0  0  0  0
  107.5639   18.0487   23.3870 C   0  0  0  0  0  0  0  0  0  0  0  0
  106.4601   17.7524   24.1767 N   0  0  0  0  0  0  0  0  0  0  0  0
  107.3477   17.9195   21.9442 C   0  0  0  0  0  0  0  0  0  0  0  0
  106.0682   17.5566   21.4750 C   0  0  0  0  0  0  0  0  0  0  0  0
  105.0553   17.2769   22.3882 N   0  0  0  0  0  0  0  0  0  0  0  0
  105.2545   17.3773   23.7145 C   0  0  0  0  0  0  0  0  0  0  0  0
  105.8057   17.5449   20.1011 C   0  0  0  0  0  0  0  0  0  0  0  0
  106.8127   17.8960   19.1979 C   0  0  0  0  0  0  0  0  0  0  0  0
  108.0813   18.2231   19.6751 C   0  0  0  0  0  0  0  0  0  0  0  0
  108.3474   18.2360   21.0271 C   0  0  0  0  0  0  0  0  0  0  0  0
  106.7806   18.0315   17.8116 N   0  0  0  0  0  0  0  0  0  0  0  0
  108.0044   18.4186   17.4940 C   0  0  0  0  0  0  0  0  0  0  0  0
  108.8294   18.5399   18.5576 N   0  0  0  0  0  0  0  0  0  0  0  0
  104.1716   16.9987   22.0549 H   0  0  0  0  0  0  0  0  0  0  0  0
  106.0200   17.8748   17.2065 H   0  0  0  0  0  0  0  0  0  0  0  0
  108.4486   18.6776   16.2616 N   0  0  0  0  0  0  0  0  0  0  0  0
  109.4176   18.6501   16.0901 H   0  0  0  0  0  0  0  0  0  0  0  0
  107.5518   18.9985   15.1659 C   0  0  0  0  0  0  0  0  0  0  0  0
  108.0210   20.1957   14.3697 C   0  0  0  0  0  0  0  0  0  0  0  0
  108.4627   19.8383   12.9845 N   0  0  0  0  0  0  0  0  0  0  0  0
  107.5903   18.7774   12.3991 C   0  0  0  0  0  0  0  0  0  0  0  0
  107.9926   18.4791   10.9751 C   0  0  0  0  0  0  0  0  0  0  0  0
  109.4467   18.0620   10.8911 C   0  0  0  0  0  0  0  0  0  0  0  0
  110.3397   19.0940   11.5507 C   0  0  0  0  0  0  0  0  0  0  0  0
  109.8902   19.3960   12.9630 C   0  0  0  0  0  0  0  0  0  0  0  0
 24 23  1  0  0  0
 24 25  1  0  0  0
 23 22  1  0  0  0
 25 26  1  0  0  0
 22 21  1  0  0  0
 26 21  1  0  0  0
 21 20  1  0  0  0
 20 19  1  0  0  0
 19 17  1  0  0  0
 17 13  1  0  0  0
 13 12  1  0  0  0
 13 14  2  0  0  0
 12  9  1  0  0  0
 14 10  1  0  0  0
  9 10  2  0  0  0
  9  8  1  0  0  0
 10 11  1  0  0  0
  8  5  2  0  0  0
 11  4  2  0  0  0
  5  4  1  0  0  0
  5  6  1  0  0  0
  4  2  1  0  0  0
  6  7  1  0  0  0
  2  1  2  0  0  0
  2  3  1  0  0  0
  7  3  2  0  0  0
  6 15  1  0  0  0
 12 16  1  0  0  0
 17 18  1  0  0  0
M  END
> <minimizedAffinity>
-8.03285

$$$$
4Q4P_2YO_A_405


 26 29  0  0  0  0  0  0  0  0999 V2000
  109.1059   18.2137   20.4255 O   0  0  0  0  0  0  0  0  0  0  0  0
  108.3501   18.0363   21.3776 C   0  0  0  0  0  0  0  0  0  0  0  0
  108.7471   18.2738   22.6874 N   0  0  0  0  0  0  0  0  0  0  0  0
  106.9602   17.6023   21.2191 C   0  0  0  0  0  0  0  0  0  0  0  0
  106.1418   17.5004   22.3632 C   0  0  0  0  0  0  0  0  0  0  0  0
  106.6819   17.7601   23.6197 N   0  0  0  0  0  0  0  0  0  0  0  0
  107.9625   18.1419   23.7713 C   0  0  0  0  0  0  0  0  0  0  0  0
  104.7814   17.2058   22.2244 C   0  0  0  0  0  0  0  0  0  0  0  0
  104.2374   17.0164   20.9511 C   0  0  0  0  0  0  0  0  0  0  0  0
  105.0651   17.0904   19.8316 C   0  0  0  0  0  0  0  0  0  0  0  0
  106.4063   17.3793   19.9605 C   0  0  0  0  0  0  0  0  0  0  0  0
  102.9219   16.7909   20.5514 N   0  0  0  0  0  0  0  0  0  0  0  0
  102.9890   16.7264   19.2324 C   0  0  0  0  0  0  0  0  0  0  0  0
  104.2388   16.8855   18.7434 N   0  0  0  0  0  0  0  0  0  0  0  0
  106.1124   17.6619   24.4168 H   0  0  0  0  0  0  0  0  0  0  0  0
  102.1242   16.7001   21.1212 H   0  0  0  0  0  0  0  0  0  0  0  0
  101.9607   16.5227   18.4052 N   0  0  0  0  0  0  0  0  0  0  0  0
  101.0457   16.6586   18.7420 H   0  0  0  0  0  0  0  0  0  0  0  0
  102.1455   16.1079   17.0262 C   0  0  0  0  0  0  0  0  0  0  0  0
  101.8225   17.2121   16.0447 C   0  0  0  0  0  0  0  0  0  0  0  0
  102.9558   17.5161   15.1147 N   0  0  0  0  0  0  0  0  0  0  0  0
  103.8919   16.3574   15.0116 C   0  0  0  0  0  0  0  0  0  0  0  0
  104.9875   16.6418   14.0129 C   0  0  0  0  0  0  0  0  0  0  0  0
  105.7521   17.8974   14.3790 C   0  0  0  0  0  0  0  0  0  0  0  0
  104.8058   19.0671   14.5630 C   0  0  0  0  0  0  0  0  0  0  0  0
  103.7010   18.7390   15.5425 C   0  0  0  0  0  0  0  0  0  0  0  0
 24 23  1  0  0  0
 24 25  1  0  0  0
 23 22  1  0  0  0
 25 26  1  0  0  0
 22 21  1  0  0  0
 26 21  1  0  0  0
 21 20  1  0  0  0
 20 19  1  0  0  0
 19 17  1  0  0  0
 17 13  1  0  0  0
 13 12  1  0  0  0
 13 14  2  0  0  0
 12  9  1  0  0  0
 14 10  1  0  0  0
  9 10  2  0  0  0
  9  8  1  0  0  0
 10 11  1  0  0  0
  8  5  2  0  0  0
 11  4  2  0  0  0
  5  4  1  0  0  0
  5  6  1  0  0  0
  4  2  1  0  0  0
  6  7  1  0  0  0
  2  1  2  0  0  0
  2  3  1  0  0  0
  7  3  2  0  0  0
  6 15  1  0  0  0
 12 16  1  0  0  0
 17 18  1  0  0  0
M  END
> <minimizedAffinity>
-7.91069

$$$$
4Q4P_2YO_A_405


 26 29  0  0  0  0  0  0  0  0999 V2000
  106.8998   17.5691   23.3608 O   0  0  0  0  0  0  0  0  0  0  0  0
  107.4330   17.8318   22.2858 C   0  0  0  0  0  0  0  0  0  0  0  0
  108.7464   18.2770   22.2043 N   0  0  0  0  0  0  0  0  0  0  0  0
  106.7543   17.6615   20.9991 C   0  0  0  0  0  0  0  0  0  0  0  0
  107.4704   17.9131   19.8105 C   0  0  0  0  0  0  0  0  0  0  0  0
  108.7842   18.3679   19.8829 N   0  0  0  0  0  0  0  0  0  0  0  0
  109.4056   18.5423   21.0629 C   0  0  0  0  0  0  0  0  0  0  0  0
  106.8826   17.6416   18.5705 C   0  0  0  0  0  0  0  0  0  0  0  0
  105.5877   17.1189   18.5145 C   0  0  0  0  0  0  0  0  0  0  0  0
  104.8810   16.9039   19.6969 C   0  0  0  0  0  0  0  0  0  0  0  0
  105.4532   17.1698   20.9220 C   0  0  0  0  0  0  0  0  0  0  0  0
  104.8244   16.7022   17.4260 N   0  0  0  0  0  0  0  0  0  0  0  0
  103.6990   16.2655   17.9657 C   0  0  0  0  0  0  0  0  0  0  0  0
  103.6662   16.3694   19.3128 N   0  0  0  0  0  0  0  0  0  0  0  0
  109.2702   18.5667   19.0501 H   0  0  0  0  0  0  0  0  0  0  0  0
  105.0675   16.7272   16.4723 H   0  0  0  0  0  0  0  0  0  0  0  0
  102.6557   15.7622   17.3014 N   0  0  0  0  0  0  0  0  0  0  0  0
  102.2453   14.9272   17.6233 H   0  0  0  0  0  0  0  0  0  0  0  0
  102.1058   16.4037   16.1208 C   0  0  0  0  0  0  0  0  0  0  0  0
  101.3913   17.6958   16.4479 C   0  0  0  0  0  0  0  0  0  0  0  0
  101.8247   18.8376   15.5817 N   0  0  0  0  0  0  0  0  0  0  0  0
  103.0041   18.4613   14.7469 C   0  0  0  0  0  0  0  0  0  0  0  0
  103.3857   19.5900   13.8201 C   0  0  0  0  0  0  0  0  0  0  0  0
  103.6789   20.8598   14.5927 C   0  0  0  0  0  0  0  0  0  0  0  0
  102.5201   21.2131   15.5037 C   0  0  0  0  0  0  0  0  0  0  0  0
  102.1400   20.0514   16.3947 C   0  0  0  0  0  0  0  0  0  0  0  0
 24 23  1  0  0  0
 24 25  1  0  0  0
 23 22  1  0  0  0
 25 26  1  0  0  0
 22 21  1  0  0  0
 26 21  1  0  0  0
 21 20  1  0  0  0
 20 19  1  0  0  0
 19 17  1  0  0  0
 17 13  1  0  0  0
 13 12  1  0  0  0
 13 14  2  0  0  0
 12  9  1  0  0  0
 14 10  1  0  0  0
  9 10  2  0  0  0
  9  8  1  0  0  0
 10 11  1  0  0  0
  8  5  2  0  0  0
 11  4  2  0  0  0
  5  4  1  0  0  0
  5  6  1  0  0  0
  4  2  1  0  0  0
  6  7  1  0  0  0
  2  1  2  0  0  0
  2  3  1  0  0  0
  7  3  2  0  0  0
  6 15  1  0  0  0
 12 16  1  0  0  0
 17 18  1  0  0  0
M  END
> <minimizedAffinity>
-7.77295

$$$$
4Q4P_2YO_A_405


 26 29  0  0  0  0  0  0  0  0999 V2000
  104.3778   16.9460   21.8531 O   0  0  0  0  0  0  0  0  0  0  0  0
  105.5134   17.3354   22.1134 C   0  0  0  0  0  0  0  0  0  0  0  0
  106.0167   17.3259   23.4081 N   0  0  0  0  0  0  0  0  0  0  0  0
  106.4486   17.8019   21.0872 C   0  0  0  0  0  0  0  0  0  0  0  0
  107.7596   18.1560   21.4679 C   0  0  0  0  0  0  0  0  0  0  0  0
  108.1218   18.1076   22.8113 N   0  0  0  0  0  0  0  0  0  0  0  0
  107.2606   17.6966   23.7591 C   0  0  0  0  0  0  0  0  0  0  0  0
  108.7046   18.4878   20.4914 C   0  0  0  0  0  0  0  0  0  0  0  0
  108.3464   18.4642   19.1408 C   0  0  0  0  0  0  0  0  0  0  0  0
  107.0384   18.1417   18.7816 C   0  0  0  0  0  0  0  0  0  0  0  0
  106.1018   17.8145   19.7380 C   0  0  0  0  0  0  0  0  0  0  0  0
  109.1112   18.6776   17.9960 N   0  0  0  0  0  0  0  0  0  0  0  0
  108.2630   18.4921   16.9986 C   0  0  0  0  0  0  0  0  0  0  0  0
  107.0106   18.1820   17.4009 N   0  0  0  0  0  0  0  0  0  0  0  0
  109.0304   18.3810   23.0738 H   0  0  0  0  0  0  0  0  0  0  0  0
  110.0657   18.9129   17.9419 H   0  0  0  0  0  0  0  0  0  0  0  0
  108.5501   18.5900   15.6982 N   0  0  0  0  0  0  0  0  0  0  0  0
  109.3199   18.0898   15.3425 H   0  0  0  0  0  0  0  0  0  0  0  0
  107.7664   19.4085   14.7907 C   0  0  0  0  0  0  0  0  0  0  0  0
  107.2619   18.6255   13.5992 C   0  0  0  0  0  0  0  0  0  0  0  0
  105.8091   18.2783   13.7019 N   0  0  0  0  0  0  0  0  0  0  0  0
  105.0831   19.2547   14.5674 C   0  0  0  0  0  0  0  0  0  0  0  0
  103.6063   18.9442   14.6021 C   0  0  0  0  0  0  0  0  0  0  0  0
  103.3534   17.5311   15.0864 C   0  0  0  0  0  0  0  0  0  0  0  0
  104.1451   16.5329   14.2652 C   0  0  0  0  0  0  0  0  0  0  0  0
  105.6141   16.8906   14.2216 C   0  0  0  0  0  0  0  0  0  0  0  0
 24 23  1  0  0  0
 24 25  1  0  0  0
 23 22  1  0  0  0
 25 26  1  0  0  0
 22 21  1  0  0  0
 26 21  1  0  0  0
 21 20  1  0  0  0
 20 19  1  0  0  0
 19 17  1  0  0  0
 17 13  1  0  0  0
 13 12  1  0  0  0
 13 14  2  0  0  0
 12  9  1  0  0  0
 14 10  1  0  0  0
  9 10  2  0  0  0
  9  8  1  0  0  0
 10 11  1  0  0  0
  8  5  2  0  0  0
 11  4  2  0  0  0
  5  4  1  0  0  0
  5  6  1  0  0  0
  4  2  1  0  0  0
  6  7  1  0  0  0
  2  1  2  0  0  0
  2  3  1  0  0  0
  7  3  2  0  0  0
  6 15  1  0  0  0
 12 16  1  0  0  0
 17 18  1  0  0  0
M  END
> <minimizedAffinity>
-7.74177

$$$$
4Q4P_2YO_A_405


 26 29  0  0  0  0  0  0  0  0999 V2000
  109.6633   18.5073   21.1665 O   0  0  0  0  0  0  0  0  0  0  0  0
  108.6204   18.1818   21.7282 C   0  0  0  0  0  0  0  0  0  0  0  0
  108.4899   18.2062   23.1110 N   0  0  0  0  0  0  0  0  0  0  0  0
  107.4153   17.7820   20.9979 C   0  0  0  0  0  0  0  0  0  0  0  0
  106.2390   17.5006   21.7232 C   0  0  0  0  0  0  0  0  0  0  0  0
  106.2596   17.5550   23.1141 N   0  0  0  0  0  0  0  0  0  0  0  0
  107.3689   17.9046   23.7894 C   0  0  0  0  0  0  0  0  0  0  0  0
  105.0460   17.2352   21.0427 C   0  0  0  0  0  0  0  0  0  0  0  0
  105.0238   17.2529   19.6455 C   0  0  0  0  0  0  0  0  0  0  0  0
  106.2013   17.5028   18.9420 C   0  0  0  0  0  0  0  0  0  0  0  0
  107.3804   17.7642   19.6054 C   0  0  0  0  0  0  0  0  0  0  0  0
  103.9650   17.0972   18.7533 N   0  0  0  0  0  0  0  0  0  0  0  0
  104.5191   17.2441   17.5617 C   0  0  0  0  0  0  0  0  0  0  0  0
  105.8498   17.4763   17.6061 N   0  0  0  0  0  0  0  0  0  0  0  0
  105.4423   17.3320   23.6156 H   0  0  0  0  0  0  0  0  0  0  0  0
  103.0197   16.9185   18.9624 H   0  0  0  0  0  0  0  0  0  0  0  0
  103.8837   17.1776   16.3892 N   0  0  0  0  0  0  0  0  0  0  0  0
  102.9312   17.4236   16.3502 H   0  0  0  0  0  0  0  0  0  0  0  0
  104.5488   16.7552   15.1698 C   0  0  0  0  0  0  0  0  0  0  0  0
  104.7897   17.9051   14.2175 C   0  0  0  0  0  0  0  0  0  0  0  0
  106.2357   18.0842   13.8729 N   0  0  0  0  0  0  0  0  0  0  0  0
  106.8210   19.2499   14.5994 C   0  0  0  0  0  0  0  0  0  0  0  0
  108.2967   19.3760   14.3081 C   0  0  0  0  0  0  0  0  0  0  0  0
  108.5537   19.5074   12.8208 C   0  0  0  0  0  0  0  0  0  0  0  0
  107.8992   18.3709   12.0609 C   0  0  0  0  0  0  0  0  0  0  0  0
  106.4302   18.2493   12.4002 C   0  0  0  0  0  0  0  0  0  0  0  0
 24 23  1  0  0  0
 24 25  1  0  0  0
 23 22  1  0  0  0
 25 26  1  0  0  0
 22 21  1  0  0  0
 26 21  1  0  0  0
 21 20  1  0  0  0
 20 19  1  0  0  0
 19 17  1  0  0  0
 17 13  1  0  0  0
 13 12  1  0  0  0
 13 14  2  0  0  0
 12  9  1  0  0  0
 14 10  1  0  0  0
  9 10  2  0  0  0
  9  8  1  0  0  0
 10 11  1  0  0  0
  8  5  2  0  0  0
 11  4  2  0  0  0
  5  4  1  0  0  0
  5  6  1  0  0  0
  4  2  1  0  0  0
  6  7  1  0  0  0
  2  1  2  0  0  0
  2  3  1  0  0  0
  7  3  2  0  0  0
  6 15  1  0  0  0
 12 16  1  0  0  0
 17 18  1  0  0  0
M  END
> <minimizedAffinity>
-7.66707

$$$$
4Q4P_2YO_A_405


 26 29  0  0  0  0  0  0  0  0999 V2000
  104.4918   17.0131   22.1128 O   0  0  0  0  0  0  0  0  0  0  0  0
  105.6389   17.3929   22.3342 C   0  0  0  0  0  0  0  0  0  0  0  0
  106.1786   17.3994   23.6143 N   0  0  0  0  0  0  0  0  0  0  0  0
  106.5500   17.8304   21.2742 C   0  0  0  0  0  0  0  0  0  0  0  0
  107.8753   18.1749   21.6117 C   0  0  0  0  0  0  0  0  0  0  0  0
  108.2748   18.1450   22.9449 N   0  0  0  0  0  0  0  0  0  0  0  0
  107.4362   17.7607   23.9236 C   0  0  0  0  0  0  0  0  0  0  0  0
  108.7961   18.4785   20.6034 C   0  0  0  0  0  0  0  0  0  0  0  0
  108.3995   18.4363   19.2640 C   0  0  0  0  0  0  0  0  0  0  0  0
  107.0782   18.1237   18.9474 C   0  0  0  0  0  0  0  0  0  0  0  0
  106.1653   17.8244   19.9353 C   0  0  0  0  0  0  0  0  0  0  0  0
  109.1340   18.6208   18.0945 N   0  0  0  0  0  0  0  0  0  0  0  0
  108.2558   18.4287   17.1248 C   0  0  0  0  0  0  0  0  0  0  0  0
  107.0117   18.1409   17.5675 N   0  0  0  0  0  0  0  0  0  0  0  0
  109.1937   18.4117   23.1770 H   0  0  0  0  0  0  0  0  0  0  0  0
  110.0892   18.8434   18.0095 H   0  0  0  0  0  0  0  0  0  0  0  0
  108.5070   18.5009   15.8153 N   0  0  0  0  0  0  0  0  0  0  0  0
  109.3626   18.1518   15.4756 H   0  0  0  0  0  0  0  0  0  0  0  0
  107.5622   19.0765   14.8753 C   0  0  0  0  0  0  0  0  0  0  0  0
  108.1461   20.2469   14.1160 C   0  0  0  0  0  0  0  0  0  0  0  0
  108.6032   19.8791   12.7385 N   0  0  0  0  0  0  0  0  0  0  0  0
  107.7533   18.7954   12.1617 C   0  0  0  0  0  0  0  0  0  0  0  0
  108.1703   18.4854   10.7444 C   0  0  0  0  0  0  0  0  0  0  0  0
  109.6319   18.0928   10.6753 C   0  0  0  0  0  0  0  0  0  0  0  0
  110.5023   19.1489   11.3269 C   0  0  0  0  0  0  0  0  0  0  0  0
  110.0382   19.4615   12.7321 C   0  0  0  0  0  0  0  0  0  0  0  0
 24 23  1  0  0  0
 24 25  1  0  0  0
 23 22  1  0  0  0
 25 26  1  0  0  0
 22 21  1  0  0  0
 26 21  1  0  0  0
 21 20  1  0  0  0
 20 19  1  0  0  0
 19 17  1  0  0  0
 17 13  1  0  0  0
 13 12  1  0  0  0
 13 14  2  0  0  0
 12  9  1  0  0  0
 14 10  1  0  0  0
  9 10  2  0  0  0
  9  8  1  0  0  0
 10 11  1  0  0  0
  8  5  2  0  0  0
 11  4  2  0  0  0
  5  4  1  0  0  0
  5  6  1  0  0  0
  4  2  1  0  0  0
  6  7  1  0  0  0
  2  1  2  0  0  0
  2  3  1  0  0  0
  7  3  2  0  0  0
  6 15  1  0  0  0
 12 16  1  0  0  0
 17 18  1  0  0  0
M  END
> <minimizedAffinity>
-7.65666

$$$$
4Q4P_2YO_A_405


 26 29  0  0  0  0  0  0  0  0999 V2000
  104.5537   17.0255   22.2643 O   0  0  0  0  0  0  0  0  0  0  0  0
  105.7048   17.4010   22.4720 C   0  0  0  0  0  0  0  0  0  0  0  0
  106.2615   17.4004   23.7447 N   0  0  0  0  0  0  0  0  0  0  0  0
  106.6030   17.8402   21.4016 C   0  0  0  0  0  0  0  0  0  0  0  0
  107.9337   18.1793   21.7228 C   0  0  0  0  0  0  0  0  0  0  0  0
  108.3509   18.1427   23.0504 N   0  0  0  0  0  0  0  0  0  0  0  0
  107.5242   17.7568   24.0386 C   0  0  0  0  0  0  0  0  0  0  0  0
  108.8419   18.4844   20.7035 C   0  0  0  0  0  0  0  0  0  0  0  0
  108.4273   18.4490   19.3694 C   0  0  0  0  0  0  0  0  0  0  0  0
  107.1009   18.1416   19.0692 C   0  0  0  0  0  0  0  0  0  0  0  0
  106.2004   17.8408   20.0680 C   0  0  0  0  0  0  0  0  0  0  0  0
  109.1466   18.6361   18.1910 N   0  0  0  0  0  0  0  0  0  0  0  0
  108.2549   18.4507   17.2323 C   0  0  0  0  0  0  0  0  0  0  0  0
  107.0160   18.1647   17.6904 N   0  0  0  0  0  0  0  0  0  0  0  0
  109.2736   18.4057   23.2713 H   0  0  0  0  0  0  0  0  0  0  0  0
  110.1013   18.8563   18.0941 H   0  0  0  0  0  0  0  0  0  0  0  0
  108.4889   18.5276   15.9199 N   0  0  0  0  0  0  0  0  0  0  0  0
  109.3835   18.2937   15.5821 H   0  0  0  0  0  0  0  0  0  0  0  0
  107.4695   18.9444   14.9739 C   0  0  0  0  0  0  0  0  0  0  0  0
  107.2271   20.4368   15.0091 C   0  0  0  0  0  0  0  0  0  0  0  0
  105.8446   20.7927   15.4605 N   0  0  0  0  0  0  0  0  0  0  0  0
  104.8581   19.7531   15.0418 C   0  0  0  0  0  0  0  0  0  0  0  0
  103.4813   20.0790   15.5680 C   0  0  0  0  0  0  0  0  0  0  0  0
  103.0250   21.4467   15.1027 C   0  0  0  0  0  0  0  0  0  0  0  0
  104.0538   22.5032   15.4531 C   0  0  0  0  0  0  0  0  0  0  0  0
  105.4281   22.1312   14.9422 C   0  0  0  0  0  0  0  0  0  0  0  0
 24 23  1  0  0  0
 24 25  1  0  0  0
 23 22  1  0  0  0
 25 26  1  0  0  0
 22 21  1  0  0  0
 26 21  1  0  0  0
 21 20  1  0  0  0
 20 19  1  0  0  0
 19 17  1  0  0  0
 17 13  1  0  0  0
 13 12  1  0  0  0
 13 14  2  0  0  0
 12  9  1  0  0  0
 14 10  1  0  0  0
  9 10  2  0  0  0
  9  8  1  0  0  0
 10 11  1  0  0  0
  8  5  2  0  0  0
 11  4  2  0  0  0
  5  4  1  0  0  0
  5  6  1  0  0  0
  4  2  1  0  0  0
  6  7  1  0  0  0
  2  1  2  0  0  0
  2  3  1  0  0  0
  7  3  2  0  0  0
  6 15  1  0  0  0
 12 16  1  0  0  0
 17 18  1  0  0  0
M  END
> <minimizedAffinity>
-7.50289

$$$$
4Q4P_2YO_A_405


 26 29  0  0  0  0  0  0  0  0999 V2000
  106.6662   18.1616   23.3392 O   0  0  0  0  0  0  0  0  0  0  0  0
  105.5346   17.6907   23.2562 C   0  0  0  0  0  0  0  0  0  0  0  0
  104.6830   17.6224   24.3516 N   0  0  0  0  0  0  0  0  0  0  0  0
  104.9678   17.2007   21.9977 C   0  0  0  0  0  0  0  0  0  0  0  0
  103.6318   16.7493   21.9801 C   0  0  0  0  0  0  0  0  0  0  0  0
  102.8984   16.7272   23.1632 N   0  0  0  0  0  0  0  0  0  0  0  0
  103.4208   17.1599   24.3245 C   0  0  0  0  0  0  0  0  0  0  0  0
  103.0317   16.3912   20.7684 C   0  0  0  0  0  0  0  0  0  0  0  0
  103.7583   16.4850   19.5783 C   0  0  0  0  0  0  0  0  0  0  0  0
  105.0876   16.9040   19.6151 C   0  0  0  0  0  0  0  0  0  0  0  0
  105.6857   17.2576   20.8052 C   0  0  0  0  0  0  0  0  0  0  0  0
  103.3700   16.2626   18.2589 N   0  0  0  0  0  0  0  0  0  0  0  0
  104.4521   16.5373   17.5503 C   0  0  0  0  0  0  0  0  0  0  0  0
  105.5116   16.9137   18.3002 N   0  0  0  0  0  0  0  0  0  0  0  0
  101.9748   16.3865   23.1494 H   0  0  0  0  0  0  0  0  0  0  0  0
  102.4904   15.9680   17.9292 H   0  0  0  0  0  0  0  0  0  0  0  0
  104.5565   16.4665   16.2210 N   0  0  0  0  0  0  0  0  0  0  0  0
  104.7750   15.6004   15.8069 H   0  0  0  0  0  0  0  0  0  0  0  0
  104.3588   17.6224   15.3652 C   0  0  0  0  0  0  0  0  0  0  0  0
  104.9737   17.4369   13.9960 C   0  0  0  0  0  0  0  0  0  0  0  0
  106.0348   18.4483   13.6911 N   0  0  0  0  0  0  0  0  0  0  0  0
  106.8292   18.0488   12.4916 C   0  0  0  0  0  0  0  0  0  0  0  0
  107.8440   19.1108   12.1439 C   0  0  0  0  0  0  0  0  0  0  0  0
  108.7687   19.3900   13.3110 C   0  0  0  0  0  0  0  0  0  0  0  0
  107.9735   19.7222   14.5578 C   0  0  0  0  0  0  0  0  0  0  0  0
  106.9430   18.6569   14.8596 C   0  0  0  0  0  0  0  0  0  0  0  0
 24 23  1  0  0  0
 24 25  1  0  0  0
 23 22  1  0  0  0
 25 26  1  0  0  0
 22 21  1  0  0  0
 26 21  1  0  0  0
 21 20  1  0  0  0
 20 19  1  0  0  0
 19 17  1  0  0  0
 17 13  1  0  0  0
 13 12  1  0  0  0
 13 14  2  0  0  0
 12  9  1  0  0  0
 14 10  1  0  0  0
  9 10  2  0  0  0
  9  8  1  0  0  0
 10 11  1  0  0  0
  8  5  2  0  0  0
 11  4  2  0  0  0
  5  4  1  0  0  0
  5  6  1  0  0  0
  4  2  1  0  0  0
  6  7  1  0  0  0
  2  1  2  0  0  0
  2  3  1  0  0  0
  7  3  2  0  0  0
  6 15  1  0  0  0
 12 16  1  0  0  0
 17 18  1  0  0  0
M  END
> <minimizedAffinity>
-7.30743

$$$$
