4AD6_GSY_A_1159


 20 21  0  0  0  0  0  0  0  0999 V2000
    1.4751   -0.0909   13.5737 N   0  0  0  0  0  0  0  0  0  0  0  0
    1.7862   -1.3095   13.1049 C   0  0  0  0  0  0  0  0  0  0  0  0
    1.5186   -2.0088   11.9091 C   0  0  0  0  0  0  0  0  0  0  0  0
    0.8279   -1.5522   10.9701 O   0  0  0  0  0  0  0  0  0  0  0  0
    1.9983   -3.3077   11.7853 N   0  0  0  0  0  0  0  0  0  0  0  0
    2.7544   -3.8333   12.8663 C   0  0  0  0  0  0  0  0  0  0  0  0
    3.2003   -5.0553   12.8461 N   0  0  0  0  0  0  0  0  0  0  0  0
    2.9709   -3.1424   13.9711 N   0  0  0  0  0  0  0  0  0  0  0  0
    2.5122   -1.9070   14.1231 C   0  0  0  0  0  0  0  0  0  0  0  0
    2.5938   -1.0308   15.1413 N   0  0  0  0  0  0  0  0  0  0  0  0
    1.9539    0.0517   14.7984 C   0  0  0  0  0  0  0  0  0  0  0  0
    1.8633    1.4638   15.9064 S   0  0  0  0  0  0  0  0  0  0  0  0
    1.8204   -3.8430   10.9784 H   0  0  0  0  0  0  0  0  0  0  0  0
    3.0663   -5.6151   12.0474 H   0  0  0  0  0  0  0  0  0  0  0  0
    3.6718   -5.4203   13.6295 H   0  0  0  0  0  0  0  0  0  0  0  0
    1.1449    2.4569   15.3173 H   0  0  0  0  0  0  0  0  0  0  0  0
    0.6449    0.8722   12.7778 C   0  0  0  0  0  0  0  0  0  0  0  0
    1.3998    1.5287   10.6319 O   0  0  0  0  0  0  0  0  0  0  0  0
    1.6333    1.7364   12.0069 C   0  0  0  0  0  0  0  0  0  0  0  0
    2.0173    2.0685   10.1140 H   0  0  0  0  0  0  0  0  0  0  0  0
 18 19  1  0  0  0
 19 17  1  0  0  0
 17  1  1  0  0  0
  1  2  1  0  0  0
  1 11  1  0  0  0
  2  3  1  0  0  0
  2  9  2  0  0  0
  3  4  2  0  0  0
  3  5  1  0  0  0
  5  6  1  0  0  0
  6  7  1  0  0  0
  6  8  2  0  0  0
  8  9  1  0  0  0
  9 10  1  0  0  0
 10 11  2  0  0  0
 11 12  1  0  0  0
 18 20  1  0  0  0
  5 13  1  0  0  0
  7 14  1  0  0  0
  7 15  1  0  0  0
 12 16  1  0  0  0
M  END
> <minimizedAffinity>
-6.34884

$$$$
4AD6_GSY_A_1159


 20 21  0  0  0  0  0  0  0  0999 V2000
    2.0421    1.5235   13.7268 N   0  0  0  0  0  0  0  0  0  0  0  0
    1.5699    1.0094   12.5805 C   0  0  0  0  0  0  0  0  0  0  0  0
    1.1558   -0.2745   12.1671 C   0  0  0  0  0  0  0  0  0  0  0  0
    1.1920   -1.2910   12.8969 O   0  0  0  0  0  0  0  0  0  0  0  0
    0.7378   -0.4389   10.8515 N   0  0  0  0  0  0  0  0  0  0  0  0
    0.7286    0.7106   10.0178 C   0  0  0  0  0  0  0  0  0  0  0  0
    0.3932    0.6312    8.7633 N   0  0  0  0  0  0  0  0  0  0  0  0
    1.1351    1.8914   10.4482 N   0  0  0  0  0  0  0  0  0  0  0  0
    1.5537    2.0743   11.6937 C   0  0  0  0  0  0  0  0  0  0  0  0
    2.0172    3.1588   12.3420 N   0  0  0  0  0  0  0  0  0  0  0  0
    2.3178    2.8064   13.5603 C   0  0  0  0  0  0  0  0  0  0  0  0
    2.9538    4.0037   14.7400 S   0  0  0  0  0  0  0  0  0  0  0  0
    0.4586   -1.3193   10.5106 H   0  0  0  0  0  0  0  0  0  0  0  0
    0.0830   -0.2253    8.3899 H   0  0  0  0  0  0  0  0  0  0  0  0
    0.4496    1.4277    8.1873 H   0  0  0  0  0  0  0  0  0  0  0  0
    3.1866    3.3880   15.9301 H   0  0  0  0  0  0  0  0  0  0  0  0
    2.2543    0.6734   14.9443 C   0  0  0  0  0  0  0  0  0  0  0  0
    3.6229   -1.2460   14.7226 O   0  0  0  0  0  0  0  0  0  0  0  0
    3.6834    0.1572   14.8484 C   0  0  0  0  0  0  0  0  0  0  0  0
    4.5222   -1.6040   14.6593 H   0  0  0  0  0  0  0  0  0  0  0  0
 18 19  1  0  0  0
 19 17  1  0  0  0
 17  1  1  0  0  0
  1  2  1  0  0  0
  1 11  1  0  0  0
  2  3  1  0  0  0
  2  9  2  0  0  0
  3  4  2  0  0  0
  3  5  1  0  0  0
  5  6  1  0  0  0
  6  7  1  0  0  0
  6  8  2  0  0  0
  8  9  1  0  0  0
  9 10  1  0  0  0
 10 11  2  0  0  0
 11 12  1  0  0  0
 18 20  1  0  0  0
  5 13  1  0  0  0
  7 14  1  0  0  0
  7 15  1  0  0  0
 12 16  1  0  0  0
M  END
> <minimizedAffinity>
-4.75910

$$$$
4AD6_GSY_A_1159


 20 21  0  0  0  0  0  0  0  0999 V2000
    2.3327    1.4964   14.1104 N   0  0  0  0  0  0  0  0  0  0  0  0
    2.0313    1.4208   12.8047 C   0  0  0  0  0  0  0  0  0  0  0  0
    2.4994    2.0668   11.6410 C   0  0  0  0  0  0  0  0  0  0  0  0
    3.3763    2.9605   11.6405 O   0  0  0  0  0  0  0  0  0  0  0  0
    1.9122    1.7380   10.4247 N   0  0  0  0  0  0  0  0  0  0  0  0
    0.8954    0.7467   10.4341 C   0  0  0  0  0  0  0  0  0  0  0  0
    0.2666    0.4151    9.3445 N   0  0  0  0  0  0  0  0  0  0  0  0
    0.4839    0.1759   11.5520 N   0  0  0  0  0  0  0  0  0  0  0  0
    1.0153    0.4813   12.7285 C   0  0  0  0  0  0  0  0  0  0  0  0
    0.7566    0.0505   13.9770 N   0  0  0  0  0  0  0  0  0  0  0  0
    1.5499    0.6808   14.7970 C   0  0  0  0  0  0  0  0  0  0  0  0
    1.5080    0.3501   16.5630 S   0  0  0  0  0  0  0  0  0  0  0  0
    2.1907    2.1760    9.5881 H   0  0  0  0  0  0  0  0  0  0  0  0
    0.5324    0.8106    8.4830 H   0  0  0  0  0  0  0  0  0  0  0  0
   -0.4750   -0.2314    9.3815 H   0  0  0  0  0  0  0  0  0  0  0  0
    2.4258    1.1318   17.1925 H   0  0  0  0  0  0  0  0  0  0  0  0
    3.3733    2.4458   14.6262 C   0  0  0  0  0  0  0  0  0  0  0  0
    5.4635    2.0795   13.5761 O   0  0  0  0  0  0  0  0  0  0  0  0
    4.6746    1.6566   14.6656 C   0  0  0  0  0  0  0  0  0  0  0  0
    6.3021    1.5920   13.5755 H   0  0  0  0  0  0  0  0  0  0  0  0
 18 19  1  0  0  0
 19 17  1  0  0  0
 17  1  1  0  0  0
  1  2  1  0  0  0
  1 11  1  0  0  0
  2  3  1  0  0  0
  2  9  2  0  0  0
  3  4  2  0  0  0
  3  5  1  0  0  0
  5  6  1  0  0  0
  6  7  1  0  0  0
  6  8  2  0  0  0
  8  9  1  0  0  0
  9 10  1  0  0  0
 10 11  2  0  0  0
 11 12  1  0  0  0
 18 20  1  0  0  0
  5 13  1  0  0  0
  7 14  1  0  0  0
  7 15  1  0  0  0
 12 16  1  0  0  0
M  END
> <minimizedAffinity>
-4.58814

$$$$
4AD6_GSY_A_1159


 20 21  0  0  0  0  0  0  0  0999 V2000
    1.7057    0.6388   13.0339 N   0  0  0  0  0  0  0  0  0  0  0  0
    2.5085    1.6893   13.2654 C   0  0  0  0  0  0  0  0  0  0  0  0
    3.2113    2.1699   14.3904 C   0  0  0  0  0  0  0  0  0  0  0  0
    3.1735    1.6344   15.5214 O   0  0  0  0  0  0  0  0  0  0  0  0
    3.9442    3.3436   14.2561 N   0  0  0  0  0  0  0  0  0  0  0  0
    3.9584    3.9653   12.9794 C   0  0  0  0  0  0  0  0  0  0  0  0
    4.5840    5.0890   12.7834 N   0  0  0  0  0  0  0  0  0  0  0  0
    3.2758    3.4818   11.9571 N   0  0  0  0  0  0  0  0  0  0  0  0
    2.5556    2.3725   12.0605 C   0  0  0  0  0  0  0  0  0  0  0  0
    1.7835    1.7100   11.1795 N   0  0  0  0  0  0  0  0  0  0  0  0
    1.2703    0.6765   11.7856 C   0  0  0  0  0  0  0  0  0  0  0  0
    0.1910   -0.4661   10.9140 S   0  0  0  0  0  0  0  0  0  0  0  0
    4.4349    3.7292   15.0174 H   0  0  0  0  0  0  0  0  0  0  0  0
    5.1081    5.4942   13.5118 H   0  0  0  0  0  0  0  0  0  0  0  0
    4.5333    5.5343   11.9068 H   0  0  0  0  0  0  0  0  0  0  0  0
   -0.2076   -1.4506   11.7634 H   0  0  0  0  0  0  0  0  0  0  0  0
    1.3588   -0.3421   14.1145 C   0  0  0  0  0  0  0  0  0  0  0  0
    3.4017   -1.3366   14.7804 O   0  0  0  0  0  0  0  0  0  0  0  0
    2.2989   -1.5241   13.9220 C   0  0  0  0  0  0  0  0  0  0  0  0
    4.0199   -2.0772   14.6791 H   0  0  0  0  0  0  0  0  0  0  0  0
 18 19  1  0  0  0
 19 17  1  0  0  0
 17  1  1  0  0  0
  1  2  1  0  0  0
  1 11  1  0  0  0
  2  3  1  0  0  0
  2  9  2  0  0  0
  3  4  2  0  0  0
  3  5  1  0  0  0
  5  6  1  0  0  0
  6  7  1  0  0  0
  6  8  2  0  0  0
  8  9  1  0  0  0
  9 10  1  0  0  0
 10 11  2  0  0  0
 11 12  1  0  0  0
 18 20  1  0  0  0
  5 13  1  0  0  0
  7 14  1  0  0  0
  7 15  1  0  0  0
 12 16  1  0  0  0
M  END
> <minimizedAffinity>
-4.50015

$$$$
4AD6_GSY_A_1159


 20 21  0  0  0  0  0  0  0  0999 V2000
    1.2499    0.7960   15.1130 N   0  0  0  0  0  0  0  0  0  0  0  0
    0.2193    0.4627   15.9056 C   0  0  0  0  0  0  0  0  0  0  0  0
    0.0310   -0.4728   16.9449 C   0  0  0  0  0  0  0  0  0  0  0  0
    0.9102   -1.2752   17.3329 O   0  0  0  0  0  0  0  0  0  0  0  0
   -1.2240   -0.5543   17.5371 N   0  0  0  0  0  0  0  0  0  0  0  0
   -2.2278    0.3360   17.0719 C   0  0  0  0  0  0  0  0  0  0  0  0
   -3.4393    0.2925   17.5439 N   0  0  0  0  0  0  0  0  0  0  0  0
   -2.0061    1.1893   16.0882 N   0  0  0  0  0  0  0  0  0  0  0  0
   -0.8232    1.2782   15.4944 C   0  0  0  0  0  0  0  0  0  0  0  0
   -0.3736    2.0455   14.4843 N   0  0  0  0  0  0  0  0  0  0  0  0
    0.8718    1.7335   14.2600 C   0  0  0  0  0  0  0  0  0  0  0  0
    1.8208    2.5716   12.9844 S   0  0  0  0  0  0  0  0  0  0  0  0
   -1.4100   -1.2048   18.2523 H   0  0  0  0  0  0  0  0  0  0  0  0
   -3.6598   -0.3258   18.2777 H   0  0  0  0  0  0  0  0  0  0  0  0
   -4.1356    0.8778   17.1674 H   0  0  0  0  0  0  0  0  0  0  0  0
    3.0827    2.0655   12.9521 H   0  0  0  0  0  0  0  0  0  0  0  0
    2.5768    0.1033   15.2112 C   0  0  0  0  0  0  0  0  0  0  0  0
    2.6135   -2.2543   14.9956 O   0  0  0  0  0  0  0  0  0  0  0  0
    2.5085   -1.0678   14.2409 C   0  0  0  0  0  0  0  0  0  0  0  0
    2.5729   -3.0200   14.4016 H   0  0  0  0  0  0  0  0  0  0  0  0
 18 19  1  0  0  0
 19 17  1  0  0  0
 17  1  1  0  0  0
  1  2  1  0  0  0
  1 11  1  0  0  0
  2  3  1  0  0  0
  2  9  2  0  0  0
  3  4  2  0  0  0
  3  5  1  0  0  0
  5  6  1  0  0  0
  6  7  1  0  0  0
  6  8  2  0  0  0
  8  9  1  0  0  0
  9 10  1  0  0  0
 10 11  2  0  0  0
 11 12  1  0  0  0
 18 20  1  0  0  0
  5 13  1  0  0  0
  7 14  1  0  0  0
  7 15  1  0  0  0
 12 16  1  0  0  0
M  END
> <minimizedAffinity>
-4.39517

$$$$
4AD6_GSY_A_1159


 20 21  0  0  0  0  0  0  0  0999 V2000
    3.3727    2.0235   13.8754 N   0  0  0  0  0  0  0  0  0  0  0  0
    2.5090    1.1463   13.3408 C   0  0  0  0  0  0  0  0  0  0  0  0
    2.1553   -0.1909   13.6194 C   0  0  0  0  0  0  0  0  0  0  0  0
    2.6831   -0.8820   14.5200 O   0  0  0  0  0  0  0  0  0  0  0  0
    1.2061   -0.8028   12.8088 N   0  0  0  0  0  0  0  0  0  0  0  0
    0.6330   -0.0249   11.7681 C   0  0  0  0  0  0  0  0  0  0  0  0
   -0.2291   -0.5375   10.9395 N   0  0  0  0  0  0  0  0  0  0  0  0
    1.0039    1.2222   11.5401 N   0  0  0  0  0  0  0  0  0  0  0  0
    1.9182    1.8264   12.2876 C   0  0  0  0  0  0  0  0  0  0  0  0
    2.4549    3.0596   12.2394 N   0  0  0  0  0  0  0  0  0  0  0  0
    3.3368    3.1567   13.1942 C   0  0  0  0  0  0  0  0  0  0  0  0
    4.2529    4.6804   13.4567 S   0  0  0  0  0  0  0  0  0  0  0  0
    0.9411   -1.7402   12.9510 H   0  0  0  0  0  0  0  0  0  0  0  0
   -0.5399   -1.4635   11.0627 H   0  0  0  0  0  0  0  0  0  0  0  0
   -0.5707    0.0006   10.1891 H   0  0  0  0  0  0  0  0  0  0  0  0
    5.1035    4.5229   14.5061 H   0  0  0  0  0  0  0  0  0  0  0  0
    4.2544    1.6572   15.0323 C   0  0  0  0  0  0  0  0  0  0  0  0
    3.2649    0.7508   16.9830 O   0  0  0  0  0  0  0  0  0  0  0  0
    3.4461    1.9629   16.2857 C   0  0  0  0  0  0  0  0  0  0  0  0
    2.7512    0.9153   17.7892 H   0  0  0  0  0  0  0  0  0  0  0  0
 18 19  1  0  0  0
 19 17  1  0  0  0
 17  1  1  0  0  0
  1  2  1  0  0  0
  1 11  1  0  0  0
  2  3  1  0  0  0
  2  9  2  0  0  0
  3  4  2  0  0  0
  3  5  1  0  0  0
  5  6  1  0  0  0
  6  7  1  0  0  0
  6  8  2  0  0  0
  8  9  1  0  0  0
  9 10  1  0  0  0
 10 11  2  0  0  0
 11 12  1  0  0  0
 18 20  1  0  0  0
  5 13  1  0  0  0
  7 14  1  0  0  0
  7 15  1  0  0  0
 12 16  1  0  0  0
M  END
> <minimizedAffinity>
-4.30307

$$$$
4AD6_GSY_A_1159


 20 21  0  0  0  0  0  0  0  0999 V2000
    3.0679    1.5955   14.8176 N   0  0  0  0  0  0  0  0  0  0  0  0
    3.2490    1.9759   13.5432 C   0  0  0  0  0  0  0  0  0  0  0  0
    2.4333    2.0036   12.3923 C   0  0  0  0  0  0  0  0  0  0  0  0
    1.2501    1.5956   12.3622 O   0  0  0  0  0  0  0  0  0  0  0  0
    2.9911    2.4546   11.2015 N   0  0  0  0  0  0  0  0  0  0  0  0
    4.3435    2.8866   11.2330 C   0  0  0  0  0  0  0  0  0  0  0  0
    4.9509    3.2807   10.1522 N   0  0  0  0  0  0  0  0  0  0  0  0
    5.0706    2.8328   12.3345 N   0  0  0  0  0  0  0  0  0  0  0  0
    4.5693    2.3926   13.4812 C   0  0  0  0  0  0  0  0  0  0  0  0
    5.1093    2.2373   14.7040 N   0  0  0  0  0  0  0  0  0  0  0  0
    4.1955    1.7452   15.4924 C   0  0  0  0  0  0  0  0  0  0  0  0
    4.5456    1.4187   17.2247 S   0  0  0  0  0  0  0  0  0  0  0  0
    2.4681    2.4738   10.3676 H   0  0  0  0  0  0  0  0  0  0  0  0
    4.4563    3.3393    9.3030 H   0  0  0  0  0  0  0  0  0  0  0  0
    5.9053    3.5205   10.1835 H   0  0  0  0  0  0  0  0  0  0  0  0
    3.4350    0.9116   17.8239 H   0  0  0  0  0  0  0  0  0  0  0  0
    1.7618    1.0330   15.2950 C   0  0  0  0  0  0  0  0  0  0  0  0
    1.5322   -1.0471   16.4023 O   0  0  0  0  0  0  0  0  0  0  0  0
    1.8850   -0.4785   15.1612 C   0  0  0  0  0  0  0  0  0  0  0  0
    1.6017   -2.0130   16.3469 H   0  0  0  0  0  0  0  0  0  0  0  0
 18 19  1  0  0  0
 19 17  1  0  0  0
 17  1  1  0  0  0
  1  2  1  0  0  0
  1 11  1  0  0  0
  2  3  1  0  0  0
  2  9  2  0  0  0
  3  4  2  0  0  0
  3  5  1  0  0  0
  5  6  1  0  0  0
  6  7  1  0  0  0
  6  8  2  0  0  0
  8  9  1  0  0  0
  9 10  1  0  0  0
 10 11  2  0  0  0
 11 12  1  0  0  0
 18 20  1  0  0  0
  5 13  1  0  0  0
  7 14  1  0  0  0
  7 15  1  0  0  0
 12 16  1  0  0  0
M  END
> <minimizedAffinity>
-4.25392

$$$$
4AD6_GSY_A_1159


 20 21  0  0  0  0  0  0  0  0999 V2000
    2.5036    2.9077   13.6160 N   0  0  0  0  0  0  0  0  0  0  0  0
    2.8242    1.6567   13.9815 C   0  0  0  0  0  0  0  0  0  0  0  0
    3.9934    1.0362   14.4698 C   0  0  0  0  0  0  0  0  0  0  0  0
    5.0826    1.6296   14.6400 O   0  0  0  0  0  0  0  0  0  0  0  0
    3.9566   -0.3304   14.7220 N   0  0  0  0  0  0  0  0  0  0  0  0
    2.7279   -1.0059   14.4971 C   0  0  0  0  0  0  0  0  0  0  0  0
    2.6241   -2.2915   14.6672 N   0  0  0  0  0  0  0  0  0  0  0  0
    1.6613   -0.3826   14.0295 N   0  0  0  0  0  0  0  0  0  0  0  0
    1.6720    0.9173   13.7654 C   0  0  0  0  0  0  0  0  0  0  0  0
    0.7319    1.7497   13.2811 N   0  0  0  0  0  0  0  0  0  0  0  0
    1.2532    2.9405   13.1862 C   0  0  0  0  0  0  0  0  0  0  0  0
    0.2826    4.3312   12.5914 S   0  0  0  0  0  0  0  0  0  0  0  0
    4.7525   -0.8119   15.0445 H   0  0  0  0  0  0  0  0  0  0  0  0
    3.3891   -2.8056   15.0133 H   0  0  0  0  0  0  0  0  0  0  0  0
    1.7806   -2.7503   14.4498 H   0  0  0  0  0  0  0  0  0  0  0  0
    1.0522    5.4525   12.5875 H   0  0  0  0  0  0  0  0  0  0  0  0
    3.5050    4.0237   13.6609 C   0  0  0  0  0  0  0  0  0  0  0  0
    5.2573    3.3824   12.2034 O   0  0  0  0  0  0  0  0  0  0  0  0
    4.0668    4.1366   12.2504 C   0  0  0  0  0  0  0  0  0  0  0  0
    5.6391    3.4360   11.3133 H   0  0  0  0  0  0  0  0  0  0  0  0
 18 19  1  0  0  0
 19 17  1  0  0  0
 17  1  1  0  0  0
  1  2  1  0  0  0
  1 11  1  0  0  0
  2  3  1  0  0  0
  2  9  2  0  0  0
  3  4  2  0  0  0
  3  5  1  0  0  0
  5  6  1  0  0  0
  6  7  1  0  0  0
  6  8  2  0  0  0
  8  9  1  0  0  0
  9 10  1  0  0  0
 10 11  2  0  0  0
 11 12  1  0  0  0
 18 20  1  0  0  0
  5 13  1  0  0  0
  7 14  1  0  0  0
  7 15  1  0  0  0
 12 16  1  0  0  0
M  END
> <minimizedAffinity>
-4.07503

$$$$
4AD6_GSY_A_1159


 20 21  0  0  0  0  0  0  0  0999 V2000
    1.6708    1.2483   15.7059 N   0  0  0  0  0  0  0  0  0  0  0  0
    1.4911    0.5498   14.5740 C   0  0  0  0  0  0  0  0  0  0  0  0
    1.8066   -0.7610   14.1582 C   0  0  0  0  0  0  0  0  0  0  0  0
    2.4150   -1.5938   14.8680 O   0  0  0  0  0  0  0  0  0  0  0  0
    1.4778   -1.1367   12.8608 N   0  0  0  0  0  0  0  0  0  0  0  0
    0.8163   -0.1782   12.0483 C   0  0  0  0  0  0  0  0  0  0  0  0
    0.5148   -0.4372   10.8095 N   0  0  0  0  0  0  0  0  0  0  0  0
    0.5501    1.0416   12.4796 N   0  0  0  0  0  0  0  0  0  0  0  0
    0.8661    1.4325   13.7073 C   0  0  0  0  0  0  0  0  0  0  0  0
    0.7101    2.6035   14.3520 N   0  0  0  0  0  0  0  0  0  0  0  0
    1.2109    2.4784   15.5488 C   0  0  0  0  0  0  0  0  0  0  0  0
    1.1659    3.8425   16.7182 S   0  0  0  0  0  0  0  0  0  0  0  0
    1.6955   -2.0336   12.5181 H   0  0  0  0  0  0  0  0  0  0  0  0
    0.6920   -1.3308   10.4362 H   0  0  0  0  0  0  0  0  0  0  0  0
    0.1096    0.2605   10.2453 H   0  0  0  0  0  0  0  0  0  0  0  0
    1.7486    3.4583   17.8854 H   0  0  0  0  0  0  0  0  0  0  0  0
    2.3625    0.6552   16.8975 C   0  0  0  0  0  0  0  0  0  0  0  0
    1.8667   -0.8038   18.6950 O   0  0  0  0  0  0  0  0  0  0  0  0
    1.2607    0.0736   17.7724 C   0  0  0  0  0  0  0  0  0  0  0  0
    1.1863   -1.1909   19.2679 H   0  0  0  0  0  0  0  0  0  0  0  0
 18 19  1  0  0  0
 19 17  1  0  0  0
 17  1  1  0  0  0
  1  2  1  0  0  0
  1 11  1  0  0  0
  2  3  1  0  0  0
  2  9  2  0  0  0
  3  4  2  0  0  0
  3  5  1  0  0  0
  5  6  1  0  0  0
  6  7  1  0  0  0
  6  8  2  0  0  0
  8  9  1  0  0  0
  9 10  1  0  0  0
 10 11  2  0  0  0
 11 12  1  0  0  0
 18 20  1  0  0  0
  5 13  1  0  0  0
  7 14  1  0  0  0
  7 15  1  0  0  0
 12 16  1  0  0  0
M  END
> <minimizedAffinity>
-4.05760

$$$$
4AD6_GSY_A_1159


 20 21  0  0  0  0  0  0  0  0999 V2000
    2.4099    2.0441   14.3149 N   0  0  0  0  0  0  0  0  0  0  0  0
    3.1781    2.3430   13.2557 C   0  0  0  0  0  0  0  0  0  0  0  0
    4.4665    2.8938   13.0903 C   0  0  0  0  0  0  0  0  0  0  0  0
    5.1940    3.2710   14.0368 O   0  0  0  0  0  0  0  0  0  0  0  0
    4.9380    3.0875   11.7969 N   0  0  0  0  0  0  0  0  0  0  0  0
    4.0963    2.6876   10.7253 C   0  0  0  0  0  0  0  0  0  0  0  0
    4.4462    2.8760    9.4865 N   0  0  0  0  0  0  0  0  0  0  0  0
    2.8923    2.1846   10.9304 N   0  0  0  0  0  0  0  0  0  0  0  0
    2.4105    2.0029   12.1530 C   0  0  0  0  0  0  0  0  0  0  0  0
    1.2327    1.5292   12.5999 N   0  0  0  0  0  0  0  0  0  0  0  0
    1.2450    1.5727   13.9025 C   0  0  0  0  0  0  0  0  0  0  0  0
   -0.1619    0.9970   14.8612 S   0  0  0  0  0  0  0  0  0  0  0  0
    5.8223    3.4869   11.6302 H   0  0  0  0  0  0  0  0  0  0  0  0
    5.3330    3.2486    9.2767 H   0  0  0  0  0  0  0  0  0  0  0  0
    3.8241    2.6460    8.7589 H   0  0  0  0  0  0  0  0  0  0  0  0
    0.1005    1.1484   16.1870 H   0  0  0  0  0  0  0  0  0  0  0  0
    2.8670    2.3052   15.7196 C   0  0  0  0  0  0  0  0  0  0  0  0
    2.9400    0.6644   17.4249 O   0  0  0  0  0  0  0  0  0  0  0  0
    3.5244    1.0154   16.1906 C   0  0  0  0  0  0  0  0  0  0  0  0
    3.3408   -0.1568   17.7505 H   0  0  0  0  0  0  0  0  0  0  0  0
 18 19  1  0  0  0
 19 17  1  0  0  0
 17  1  1  0  0  0
  1  2  1  0  0  0
  1 11  1  0  0  0
  2  3  1  0  0  0
  2  9  2  0  0  0
  3  4  2  0  0  0
  3  5  1  0  0  0
  5  6  1  0  0  0
  6  7  1  0  0  0
  6  8  2  0  0  0
  8  9  1  0  0  0
  9 10  1  0  0  0
 10 11  2  0  0  0
 11 12  1  0  0  0
 18 20  1  0  0  0
  5 13  1  0  0  0
  7 14  1  0  0  0
  7 15  1  0  0  0
 12 16  1  0  0  0
M  END
> <minimizedAffinity>
-3.94272

$$$$
