4GJ3_0XP_A_1201


 28 30  0  0  0  0  0  0  0  0999 V2000
   -4.3468   -4.7944  -18.7289 C   0  0  0  0  0  0  0  0  0  0  0  0
   -3.6352   -3.6507  -19.0670 C   0  0  0  0  0  0  0  0  0  0  0  0
   -3.7020   -2.5557  -18.3170 N   0  0  0  0  0  0  0  0  0  0  0  0
   -4.4387   -2.4984  -17.2055 C   0  0  0  0  0  0  0  0  0  0  0  0
   -5.2141   -3.5974  -16.8325 C   0  0  0  0  0  0  0  0  0  0  0  0
   -5.1542   -4.7833  -17.5735 C   0  0  0  0  0  0  0  0  0  0  0  0
   -5.9786   -5.8351  -17.1419 N   0  0  0  0  0  0  0  0  0  0  0  0
   -5.6883   -6.9339  -16.4024 C   0  0  0  0  0  0  0  0  0  0  0  0
   -4.5881   -7.1591  -15.9303 O   0  0  0  0  0  0  0  0  0  0  0  0
   -6.9197   -5.7630  -17.4215 H   0  0  0  0  0  0  0  0  0  0  0  0
   -6.7911   -7.8929  -16.1726 C   0  0  0  0  0  0  0  0  0  0  0  0
   -7.0595   -8.8952  -17.1314 C   0  0  0  0  0  0  0  0  0  0  0  0
   -8.1066   -9.7791  -16.9249 C   0  0  0  0  0  0  0  0  0  0  0  0
   -8.9228   -9.6566  -15.7924 C   0  0  0  0  0  0  0  0  0  0  0  0
   -8.6745   -8.6486  -14.8507 C   0  0  0  0  0  0  0  0  0  0  0  0
   -7.6267   -7.7642  -15.0417 C   0  0  0  0  0  0  0  0  0  0  0  0
   -7.3647   -6.5136  -13.8647 Cl  0  0  0  0  0  0  0  0  0  0  0  0
   -6.0895   -9.0692  -18.5666 Cl  0  0  0  0  0  0  0  0  0  0  0  0
  -10.0071  -10.5680  -15.5915 C   0  0  0  0  0  0  0  0  0  0  0  0
  -10.8666  -11.2932  -15.4356 N   0  0  0  0  0  0  0  0  0  0  0  0
   -4.4922   -1.2887  -16.5001 N   0  0  0  0  0  0  0  0  0  0  0  0
   -3.4609   -0.4646  -16.1848 C   0  0  0  0  0  0  0  0  0  0  0  0
   -2.3073   -0.6942  -16.5045 O   0  0  0  0  0  0  0  0  0  0  0  0
   -5.3841   -1.0026  -16.1971 H   0  0  0  0  0  0  0  0  0  0  0  0
   -3.8033    0.7788  -15.4000 C   0  0  0  0  0  0  0  0  0  0  0  0
   -2.6772    1.6033  -14.7716 C   0  0  0  0  0  0  0  0  0  0  0  0
   -3.4251    2.1280  -16.0012 C   0  0  0  0  0  0  0  0  0  0  0  0
   -2.7733    2.1002  -17.2363 F   0  0  0  0  0  0  0  0  0  0  0  0
 26 27  1  0  0  0
 26 25  1  0  0  0
 27 25  1  0  0  0
 27 28  1  0  0  0
 25 22  1  0  0  0
 22 23  2  0  0  0
 22 21  1  0  0  0
 21  4  1  0  0  0
  4  5  2  0  0  0
  4  3  1  0  0  0
  5  6  1  0  0  0
 20 19  3  0  0  0
 19 14  1  0  0  0
  3  2  2  0  0  0
 14 15  2  0  0  0
 14 13  1  0  0  0
 15 16  1  0  0  0
  6  7  1  0  0  0
  6  1  2  0  0  0
  7  8  1  0  0  0
 13 12  2  0  0  0
 16 17  1  0  0  0
 16 11  2  0  0  0
 12 11  1  0  0  0
 12 18  1  0  0  0
 11  8  1  0  0  0
  2  1  1  0  0  0
  8  9  2  0  0  0
  7 10  1  0  0  0
 21 24  1  0  0  0
M  END
> <minimizedAffinity>
-9.20421

$$$$
4GJ3_0XP_A_1201


 28 30  0  0  0  0  0  0  0  0999 V2000
   -9.5375   -9.7823  -15.2254 C   0  0  0  0  0  0  0  0  0  0  0  0
  -10.3019  -10.9317  -15.3783 C   0  0  0  0  0  0  0  0  0  0  0  0
  -10.2647  -11.6341  -16.5057 N   0  0  0  0  0  0  0  0  0  0  0  0
   -9.4923  -11.2848  -17.5366 C   0  0  0  0  0  0  0  0  0  0  0  0
   -8.7330  -10.1157  -17.4667 C   0  0  0  0  0  0  0  0  0  0  0  0
   -8.7161   -9.3585  -16.2897 C   0  0  0  0  0  0  0  0  0  0  0  0
   -7.9410   -8.1875  -16.3081 N   0  0  0  0  0  0  0  0  0  0  0  0
   -7.4438   -7.4453  -15.2882 C   0  0  0  0  0  0  0  0  0  0  0  0
   -7.5722   -7.7400  -14.1132 O   0  0  0  0  0  0  0  0  0  0  0  0
   -7.7234   -7.8509  -17.2074 H   0  0  0  0  0  0  0  0  0  0  0  0
   -6.7078   -6.2157  -15.6559 C   0  0  0  0  0  0  0  0  0  0  0  0
   -7.3921   -4.9812  -15.7172 C   0  0  0  0  0  0  0  0  0  0  0  0
   -6.7059   -3.8341  -16.0828 C   0  0  0  0  0  0  0  0  0  0  0  0
   -5.3501   -3.9014  -16.4304 C   0  0  0  0  0  0  0  0  0  0  0  0
   -4.6735   -5.1283  -16.3937 C   0  0  0  0  0  0  0  0  0  0  0  0
   -5.3459   -6.2801  -16.0227 C   0  0  0  0  0  0  0  0  0  0  0  0
   -4.4796   -7.7859  -16.0119 Cl  0  0  0  0  0  0  0  0  0  0  0  0
   -9.0824   -4.8533  -15.3203 Cl  0  0  0  0  0  0  0  0  0  0  0  0
   -4.6516   -2.7136  -16.8151 C   0  0  0  0  0  0  0  0  0  0  0  0
   -4.0994   -1.7709  -17.1238 N   0  0  0  0  0  0  0  0  0  0  0  0
   -9.5504  -12.0537  -18.7067 N   0  0  0  0  0  0  0  0  0  0  0  0
   -8.6623  -12.0734  -19.7329 C   0  0  0  0  0  0  0  0  0  0  0  0
   -7.6531  -11.3901  -19.7491 O   0  0  0  0  0  0  0  0  0  0  0  0
  -10.3282  -12.6508  -18.7949 H   0  0  0  0  0  0  0  0  0  0  0  0
   -8.9801  -12.9947  -20.8859 C   0  0  0  0  0  0  0  0  0  0  0  0
   -8.4799  -12.6412  -22.2886 C   0  0  0  0  0  0  0  0  0  0  0  0
   -7.8323  -13.7860  -21.5034 C   0  0  0  0  0  0  0  0  0  0  0  0
   -6.5651  -13.5797  -20.9531 F   0  0  0  0  0  0  0  0  0  0  0  0
 26 27  1  0  0  0
 26 25  1  0  0  0
 27 25  1  0  0  0
 27 28  1  0  0  0
 25 22  1  0  0  0
 22 23  2  0  0  0
 22 21  1  0  0  0
 21  4  1  0  0  0
  4  5  2  0  0  0
  4  3  1  0  0  0
  5  6  1  0  0  0
 20 19  3  0  0  0
 19 14  1  0  0  0
  3  2  2  0  0  0
 14 15  2  0  0  0
 14 13  1  0  0  0
 15 16  1  0  0  0
  6  7  1  0  0  0
  6  1  2  0  0  0
  7  8  1  0  0  0
 13 12  2  0  0  0
 16 17  1  0  0  0
 16 11  2  0  0  0
 12 11  1  0  0  0
 12 18  1  0  0  0
 11  8  1  0  0  0
  2  1  1  0  0  0
  8  9  2  0  0  0
  7 10  1  0  0  0
 21 24  1  0  0  0
M  END
> <minimizedAffinity>
-8.61829

$$$$
4GJ3_0XP_A_1201


 28 30  0  0  0  0  0  0  0  0999 V2000
   -4.7698   -7.3607  -18.0719 C   0  0  0  0  0  0  0  0  0  0  0  0
   -4.4840   -6.3252  -17.1915 C   0  0  0  0  0  0  0  0  0  0  0  0
   -5.1521   -6.1923  -16.0504 N   0  0  0  0  0  0  0  0  0  0  0  0
   -6.1150   -7.0419  -15.6865 C   0  0  0  0  0  0  0  0  0  0  0  0
   -6.4833   -8.0785  -16.5455 C   0  0  0  0  0  0  0  0  0  0  0  0
   -5.7893   -8.2773  -17.7446 C   0  0  0  0  0  0  0  0  0  0  0  0
   -6.2342   -9.3309  -18.5598 N   0  0  0  0  0  0  0  0  0  0  0  0
   -7.1326   -9.3386  -19.5752 C   0  0  0  0  0  0  0  0  0  0  0  0
   -7.6942   -8.3394  -19.9880 O   0  0  0  0  0  0  0  0  0  0  0  0
   -5.8280  -10.2055  -18.3618 H   0  0  0  0  0  0  0  0  0  0  0  0
   -7.4244  -10.6490  -20.1968 C   0  0  0  0  0  0  0  0  0  0  0  0
   -6.8033  -11.0002  -21.4162 C   0  0  0  0  0  0  0  0  0  0  0  0
   -7.0942  -12.2189  -22.0080 C   0  0  0  0  0  0  0  0  0  0  0  0
   -8.0301  -13.0833  -21.4243 C   0  0  0  0  0  0  0  0  0  0  0  0
   -8.6663  -12.7281  -20.2270 C   0  0  0  0  0  0  0  0  0  0  0  0
   -8.3784  -11.5167  -19.6218 C   0  0  0  0  0  0  0  0  0  0  0  0
   -9.2044  -11.1010  -18.1511 Cl  0  0  0  0  0  0  0  0  0  0  0  0
   -5.6543   -9.9473  -22.1923 Cl  0  0  0  0  0  0  0  0  0  0  0  0
   -8.3310  -14.3357  -22.0468 C   0  0  0  0  0  0  0  0  0  0  0  0
   -8.5735  -15.3285  -22.5414 N   0  0  0  0  0  0  0  0  0  0  0  0
   -6.8031   -6.8002  -14.4899 N   0  0  0  0  0  0  0  0  0  0  0  0
   -7.8830   -6.0004  -14.2996 C   0  0  0  0  0  0  0  0  0  0  0  0
   -8.4097   -5.3722  -15.2016 O   0  0  0  0  0  0  0  0  0  0  0  0
   -6.4626   -7.2661  -13.6923 H   0  0  0  0  0  0  0  0  0  0  0  0
   -8.4207   -5.9124  -12.8917 C   0  0  0  0  0  0  0  0  0  0  0  0
   -7.7856   -6.7659  -11.7912 C   0  0  0  0  0  0  0  0  0  0  0  0
   -7.5426   -5.2541  -11.8331 C   0  0  0  0  0  0  0  0  0  0  0  0
   -6.2935   -4.7941  -12.2565 F   0  0  0  0  0  0  0  0  0  0  0  0
 26 27  1  0  0  0
 26 25  1  0  0  0
 27 25  1  0  0  0
 27 28  1  0  0  0
 25 22  1  0  0  0
 22 23  2  0  0  0
 22 21  1  0  0  0
 21  4  1  0  0  0
  4  5  2  0  0  0
  4  3  1  0  0  0
  5  6  1  0  0  0
 20 19  3  0  0  0
 19 14  1  0  0  0
  3  2  2  0  0  0
 14 15  2  0  0  0
 14 13  1  0  0  0
 15 16  1  0  0  0
  6  7  1  0  0  0
  6  1  2  0  0  0
  7  8  1  0  0  0
 13 12  2  0  0  0
 16 17  1  0  0  0
 16 11  2  0  0  0
 12 11  1  0  0  0
 12 18  1  0  0  0
 11  8  1  0  0  0
  2  1  1  0  0  0
  8  9  2  0  0  0
  7 10  1  0  0  0
 21 24  1  0  0  0
M  END
> <minimizedAffinity>
-8.18427

$$$$
4GJ3_0XP_A_1201


 28 30  0  0  0  0  0  0  0  0999 V2000
   -8.7574  -12.4830  -19.6108 C   0  0  0  0  0  0  0  0  0  0  0  0
   -8.6191  -13.1117  -20.8414 C   0  0  0  0  0  0  0  0  0  0  0  0
   -7.6524  -12.7630  -21.6839 N   0  0  0  0  0  0  0  0  0  0  0  0
   -6.7653  -11.8090  -21.3935 C   0  0  0  0  0  0  0  0  0  0  0  0
   -6.8742  -11.1059  -20.1927 C   0  0  0  0  0  0  0  0  0  0  0  0
   -7.8573  -11.4566  -19.2601 C   0  0  0  0  0  0  0  0  0  0  0  0
   -7.9105  -10.6882  -18.0858 N   0  0  0  0  0  0  0  0  0  0  0  0
   -8.9343   -9.9879  -17.5382 C   0  0  0  0  0  0  0  0  0  0  0  0
  -10.0598   -9.9615  -18.0036 O   0  0  0  0  0  0  0  0  0  0  0  0
   -7.0680  -10.6522  -17.5778 H   0  0  0  0  0  0  0  0  0  0  0  0
   -8.6360   -9.2249  -16.3063 C   0  0  0  0  0  0  0  0  0  0  0  0
   -9.3279   -9.5245  -15.1115 C   0  0  0  0  0  0  0  0  0  0  0  0
   -9.0628   -8.7944  -13.9639 C   0  0  0  0  0  0  0  0  0  0  0  0
   -8.1439   -7.7369  -13.9948 C   0  0  0  0  0  0  0  0  0  0  0  0
   -7.4729   -7.4212  -15.1842 C   0  0  0  0  0  0  0  0  0  0  0  0
   -7.7233   -8.1480  -16.3354 C   0  0  0  0  0  0  0  0  0  0  0  0
   -6.8898   -7.7120  -17.7960 Cl  0  0  0  0  0  0  0  0  0  0  0  0
  -10.4976  -10.8116  -15.0317 Cl  0  0  0  0  0  0  0  0  0  0  0  0
   -7.8827   -6.9828  -12.8075 C   0  0  0  0  0  0  0  0  0  0  0  0
   -7.6745   -6.3877  -11.8633 N   0  0  0  0  0  0  0  0  0  0  0  0
   -5.8082  -11.4692  -22.3591 N   0  0  0  0  0  0  0  0  0  0  0  0
   -5.8507  -10.4424  -23.2457 C   0  0  0  0  0  0  0  0  0  0  0  0
   -6.7763   -9.6512  -23.2995 O   0  0  0  0  0  0  0  0  0  0  0  0
   -5.0098  -12.0439  -22.3991 H   0  0  0  0  0  0  0  0  0  0  0  0
   -4.6799  -10.3144  -24.1902 C   0  0  0  0  0  0  0  0  0  0  0  0
   -3.6844  -11.4706  -24.3121 C   0  0  0  0  0  0  0  0  0  0  0  0
   -4.6765  -11.1832  -25.4432 C   0  0  0  0  0  0  0  0  0  0  0  0
   -5.7632  -12.0453  -25.6077 F   0  0  0  0  0  0  0  0  0  0  0  0
 26 27  1  0  0  0
 26 25  1  0  0  0
 27 25  1  0  0  0
 27 28  1  0  0  0
 25 22  1  0  0  0
 22 23  2  0  0  0
 22 21  1  0  0  0
 21  4  1  0  0  0
  4  5  2  0  0  0
  4  3  1  0  0  0
  5  6  1  0  0  0
 20 19  3  0  0  0
 19 14  1  0  0  0
  3  2  2  0  0  0
 14 15  2  0  0  0
 14 13  1  0  0  0
 15 16  1  0  0  0
  6  7  1  0  0  0
  6  1  2  0  0  0
  7  8  1  0  0  0
 13 12  2  0  0  0
 16 17  1  0  0  0
 16 11  2  0  0  0
 12 11  1  0  0  0
 12 18  1  0  0  0
 11  8  1  0  0  0
  2  1  1  0  0  0
  8  9  2  0  0  0
  7 10  1  0  0  0
 21 24  1  0  0  0
M  END
> <minimizedAffinity>
-7.81217

$$$$
4GJ3_0XP_A_1201


 28 30  0  0  0  0  0  0  0  0999 V2000
   -8.5852   -9.4325  -16.2718 C   0  0  0  0  0  0  0  0  0  0  0  0
   -9.2566  -10.6193  -16.5355 C   0  0  0  0  0  0  0  0  0  0  0  0
   -9.0800  -11.2659  -17.6829 N   0  0  0  0  0  0  0  0  0  0  0  0
   -8.2500  -10.8222  -18.6293 C   0  0  0  0  0  0  0  0  0  0  0  0
   -7.5782   -9.6122  -18.4478 C   0  0  0  0  0  0  0  0  0  0  0  0
   -7.7087   -8.9100  -17.2442 C   0  0  0  0  0  0  0  0  0  0  0  0
   -7.0139   -7.6931  -17.1493 N   0  0  0  0  0  0  0  0  0  0  0  0
   -5.7925   -7.4156  -16.6303 C   0  0  0  0  0  0  0  0  0  0  0  0
   -5.0435   -8.2619  -16.1756 O   0  0  0  0  0  0  0  0  0  0  0  0
   -7.4911   -6.9157  -17.5196 H   0  0  0  0  0  0  0  0  0  0  0  0
   -5.3745   -5.9964  -16.6323 C   0  0  0  0  0  0  0  0  0  0  0  0
   -5.7236   -5.1614  -15.5474 C   0  0  0  0  0  0  0  0  0  0  0  0
   -5.3499   -3.8271  -15.5610 C   0  0  0  0  0  0  0  0  0  0  0  0
   -4.6652   -3.2954  -16.6620 C   0  0  0  0  0  0  0  0  0  0  0  0
   -4.3377   -4.1150  -17.7508 C   0  0  0  0  0  0  0  0  0  0  0  0
   -4.6987   -5.4515  -17.7458 C   0  0  0  0  0  0  0  0  0  0  0  0
   -4.2961   -6.4301  -19.1236 Cl  0  0  0  0  0  0  0  0  0  0  0  0
   -6.5971   -5.7708  -14.1702 Cl  0  0  0  0  0  0  0  0  0  0  0  0
   -4.2909   -1.9146  -16.6714 C   0  0  0  0  0  0  0  0  0  0  0  0
   -3.9904   -0.8198  -16.6804 N   0  0  0  0  0  0  0  0  0  0  0  0
   -8.1602  -11.5390  -19.8300 N   0  0  0  0  0  0  0  0  0  0  0  0
   -7.0630  -11.7239  -20.6072 C   0  0  0  0  0  0  0  0  0  0  0  0
   -5.9682  -11.2665  -20.3279 O   0  0  0  0  0  0  0  0  0  0  0  0
   -8.9923  -11.9586  -20.1477 H   0  0  0  0  0  0  0  0  0  0  0  0
   -7.2535  -12.5358  -21.8656 C   0  0  0  0  0  0  0  0  0  0  0  0
   -8.6651  -12.7368  -22.4223 C   0  0  0  0  0  0  0  0  0  0  0  0
   -7.6817  -11.8000  -23.1307 C   0  0  0  0  0  0  0  0  0  0  0  0
   -7.8775  -10.4218  -23.0150 F   0  0  0  0  0  0  0  0  0  0  0  0
 26 27  1  0  0  0
 26 25  1  0  0  0
 27 25  1  0  0  0
 27 28  1  0  0  0
 25 22  1  0  0  0
 22 23  2  0  0  0
 22 21  1  0  0  0
 21  4  1  0  0  0
  4  5  2  0  0  0
  4  3  1  0  0  0
  5  6  1  0  0  0
 20 19  3  0  0  0
 19 14  1  0  0  0
  3  2  2  0  0  0
 14 15  2  0  0  0
 14 13  1  0  0  0
 15 16  1  0  0  0
  6  7  1  0  0  0
  6  1  2  0  0  0
  7  8  1  0  0  0
 13 12  2  0  0  0
 16 17  1  0  0  0
 16 11  2  0  0  0
 12 11  1  0  0  0
 12 18  1  0  0  0
 11  8  1  0  0  0
  2  1  1  0  0  0
  8  9  2  0  0  0
  7 10  1  0  0  0
 21 24  1  0  0  0
M  END
> <minimizedAffinity>
-7.63464

$$$$
4GJ3_0XP_A_1201


 28 30  0  0  0  0  0  0  0  0999 V2000
   -8.9775   -9.4452  -15.9715 C   0  0  0  0  0  0  0  0  0  0  0  0
   -9.6574  -10.6421  -16.1559 C   0  0  0  0  0  0  0  0  0  0  0  0
   -9.4589  -11.3824  -17.2415 N   0  0  0  0  0  0  0  0  0  0  0  0
   -8.5981  -11.0270  -18.1975 C   0  0  0  0  0  0  0  0  0  0  0  0
   -7.9152   -9.8138  -18.0968 C   0  0  0  0  0  0  0  0  0  0  0  0
   -8.0684   -9.0139  -16.9585 C   0  0  0  0  0  0  0  0  0  0  0  0
   -7.3602   -7.8012  -16.9440 N   0  0  0  0  0  0  0  0  0  0  0  0
   -6.1047   -7.5207  -16.5160 C   0  0  0  0  0  0  0  0  0  0  0  0
   -5.3328   -8.3610  -16.0895 O   0  0  0  0  0  0  0  0  0  0  0  0
   -7.8557   -7.0298  -17.3028 H   0  0  0  0  0  0  0  0  0  0  0  0
   -5.6777   -6.1058  -16.5851 C   0  0  0  0  0  0  0  0  0  0  0  0
   -4.9627   -5.6438  -17.7126 C   0  0  0  0  0  0  0  0  0  0  0  0
   -4.5447   -4.3237  -17.7659 C   0  0  0  0  0  0  0  0  0  0  0  0
   -4.7922   -3.4593  -16.6911 C   0  0  0  0  0  0  0  0  0  0  0  0
   -5.4806   -3.9202  -15.5605 C   0  0  0  0  0  0  0  0  0  0  0  0
   -5.9101   -5.2348  -15.4984 C   0  0  0  0  0  0  0  0  0  0  0  0
   -6.7392   -5.7757  -14.0708 Cl  0  0  0  0  0  0  0  0  0  0  0  0
   -4.6085   -6.6877  -19.0601 Cl  0  0  0  0  0  0  0  0  0  0  0  0
   -4.3495   -2.1003  -16.7509 C   0  0  0  0  0  0  0  0  0  0  0  0
   -4.0016   -1.0205  -16.7969 N   0  0  0  0  0  0  0  0  0  0  0  0
   -8.4859  -11.8407  -19.3329 N   0  0  0  0  0  0  0  0  0  0  0  0
   -7.4642  -11.8857  -20.2251 C   0  0  0  0  0  0  0  0  0  0  0  0
   -6.4693  -11.1880  -20.1292 O   0  0  0  0  0  0  0  0  0  0  0  0
   -9.2379  -12.4527  -19.5036 H   0  0  0  0  0  0  0  0  0  0  0  0
   -7.6100  -12.8550  -21.3733 C   0  0  0  0  0  0  0  0  0  0  0  0
   -8.9544  -12.9643  -22.0969 C   0  0  0  0  0  0  0  0  0  0  0  0
   -7.7647  -12.2796  -22.7768 C   0  0  0  0  0  0  0  0  0  0  0  0
   -7.7723  -10.8868  -22.8828 F   0  0  0  0  0  0  0  0  0  0  0  0
 26 27  1  0  0  0
 26 25  1  0  0  0
 27 25  1  0  0  0
 27 28  1  0  0  0
 25 22  1  0  0  0
 22 23  2  0  0  0
 22 21  1  0  0  0
 21  4  1  0  0  0
  4  5  2  0  0  0
  4  3  1  0  0  0
  5  6  1  0  0  0
 20 19  3  0  0  0
 19 14  1  0  0  0
  3  2  2  0  0  0
 14 15  2  0  0  0
 14 13  1  0  0  0
 15 16  1  0  0  0
  6  7  1  0  0  0
  6  1  2  0  0  0
  7  8  1  0  0  0
 13 12  2  0  0  0
 16 17  1  0  0  0
 16 11  2  0  0  0
 12 11  1  0  0  0
 12 18  1  0  0  0
 11  8  1  0  0  0
  2  1  1  0  0  0
  8  9  2  0  0  0
  7 10  1  0  0  0
 21 24  1  0  0  0
M  END
> <minimizedAffinity>
-7.63178

$$$$
4GJ3_0XP_A_1201


 28 30  0  0  0  0  0  0  0  0999 V2000
   -5.9925   -7.2657  -16.0709 C   0  0  0  0  0  0  0  0  0  0  0  0
   -5.3731   -6.2026  -15.4268 C   0  0  0  0  0  0  0  0  0  0  0  0
   -4.3492   -5.5658  -15.9856 N   0  0  0  0  0  0  0  0  0  0  0  0
   -3.8723   -5.9011  -17.1862 C   0  0  0  0  0  0  0  0  0  0  0  0
   -4.4193   -6.9891  -17.8682 C   0  0  0  0  0  0  0  0  0  0  0  0
   -5.5180   -7.6725  -17.3344 C   0  0  0  0  0  0  0  0  0  0  0  0
   -5.9966   -8.7660  -18.0743 N   0  0  0  0  0  0  0  0  0  0  0  0
   -6.9648   -8.8313  -19.0213 C   0  0  0  0  0  0  0  0  0  0  0  0
   -7.5762   -7.8604  -19.4305 O   0  0  0  0  0  0  0  0  0  0  0  0
   -5.5581   -9.6241  -17.8728 H   0  0  0  0  0  0  0  0  0  0  0  0
   -7.2712  -10.1709  -19.5695 C   0  0  0  0  0  0  0  0  0  0  0  0
   -6.5386  -10.6606  -20.6738 C   0  0  0  0  0  0  0  0  0  0  0  0
   -6.8415  -11.9064  -21.1997 C   0  0  0  0  0  0  0  0  0  0  0  0
   -7.8952  -12.6616  -20.6678 C   0  0  0  0  0  0  0  0  0  0  0  0
   -8.6398  -12.1689  -19.5874 C   0  0  0  0  0  0  0  0  0  0  0  0
   -8.3421  -10.9291  -19.0482 C   0  0  0  0  0  0  0  0  0  0  0  0
   -9.3024  -10.3418  -17.7249 Cl  0  0  0  0  0  0  0  0  0  0  0  0
   -5.2387   -9.7466  -21.3851 Cl  0  0  0  0  0  0  0  0  0  0  0  0
   -8.2066  -13.9430  -21.2225 C   0  0  0  0  0  0  0  0  0  0  0  0
   -8.4573  -14.9586  -21.6638 N   0  0  0  0  0  0  0  0  0  0  0  0
   -2.7581   -5.2095  -17.6804 N   0  0  0  0  0  0  0  0  0  0  0  0
   -2.6722   -4.4801  -18.8217 C   0  0  0  0  0  0  0  0  0  0  0  0
   -3.6106   -4.3307  -19.5850 O   0  0  0  0  0  0  0  0  0  0  0  0
   -1.9403   -5.2586  -17.1345 H   0  0  0  0  0  0  0  0  0  0  0  0
   -1.3352   -3.8462  -19.1211 C   0  0  0  0  0  0  0  0  0  0  0  0
   -0.0789   -4.3829  -18.4308 C   0  0  0  0  0  0  0  0  0  0  0  0
   -0.3220   -4.6614  -19.9173 C   0  0  0  0  0  0  0  0  0  0  0  0
   -0.7151   -5.9472  -20.2960 F   0  0  0  0  0  0  0  0  0  0  0  0
 26 27  1  0  0  0
 26 25  1  0  0  0
 27 25  1  0  0  0
 27 28  1  0  0  0
 25 22  1  0  0  0
 22 23  2  0  0  0
 22 21  1  0  0  0
 21  4  1  0  0  0
  4  5  2  0  0  0
  4  3  1  0  0  0
  5  6  1  0  0  0
 20 19  3  0  0  0
 19 14  1  0  0  0
  3  2  2  0  0  0
 14 15  2  0  0  0
 14 13  1  0  0  0
 15 16  1  0  0  0
  6  7  1  0  0  0
  6  1  2  0  0  0
  7  8  1  0  0  0
 13 12  2  0  0  0
 16 17  1  0  0  0
 16 11  2  0  0  0
 12 11  1  0  0  0
 12 18  1  0  0  0
 11  8  1  0  0  0
  2  1  1  0  0  0
  8  9  2  0  0  0
  7 10  1  0  0  0
 21 24  1  0  0  0
M  END
> <minimizedAffinity>
-7.62382

$$$$
4GJ3_0XP_A_1201


 28 30  0  0  0  0  0  0  0  0999 V2000
   -5.8610   -7.0877  -19.6200 C   0  0  0  0  0  0  0  0  0  0  0  0
   -5.5934   -6.0690  -18.7147 C   0  0  0  0  0  0  0  0  0  0  0  0
   -6.1483   -6.0625  -17.5072 N   0  0  0  0  0  0  0  0  0  0  0  0
   -6.9743   -7.0279  -17.0984 C   0  0  0  0  0  0  0  0  0  0  0  0
   -7.3212   -8.0578  -17.9743 C   0  0  0  0  0  0  0  0  0  0  0  0
   -6.7399   -8.1242  -19.2458 C   0  0  0  0  0  0  0  0  0  0  0  0
   -7.1562   -9.1813  -20.0715 N   0  0  0  0  0  0  0  0  0  0  0  0
   -6.5498  -10.3571  -20.3684 C   0  0  0  0  0  0  0  0  0  0  0  0
   -5.4897  -10.7116  -19.8842 O   0  0  0  0  0  0  0  0  0  0  0  0
   -8.0298   -9.0467  -20.5049 H   0  0  0  0  0  0  0  0  0  0  0  0
   -7.2403  -11.2370  -21.3368 C   0  0  0  0  0  0  0  0  0  0  0  0
   -8.2097  -12.1575  -20.8798 C   0  0  0  0  0  0  0  0  0  0  0  0
   -8.8399  -12.9960  -21.7854 C   0  0  0  0  0  0  0  0  0  0  0  0
   -8.4904  -12.9625  -23.1421 C   0  0  0  0  0  0  0  0  0  0  0  0
   -7.5121  -12.0672  -23.5956 C   0  0  0  0  0  0  0  0  0  0  0  0
   -6.8808  -11.2190  -22.7021 C   0  0  0  0  0  0  0  0  0  0  0  0
   -5.6567  -10.1397  -23.2979 Cl  0  0  0  0  0  0  0  0  0  0  0  0
   -8.6573  -12.2540  -19.2001 Cl  0  0  0  0  0  0  0  0  0  0  0  0
   -9.1399  -13.8378  -24.0687 C   0  0  0  0  0  0  0  0  0  0  0  0
   -9.6527  -14.5354  -24.8031 N   0  0  0  0  0  0  0  0  0  0  0  0
   -7.5544   -6.9181  -15.8276 N   0  0  0  0  0  0  0  0  0  0  0  0
   -8.3755   -5.9386  -15.3709 C   0  0  0  0  0  0  0  0  0  0  0  0
   -8.7259   -4.9941  -16.0571 O   0  0  0  0  0  0  0  0  0  0  0  0
   -7.3410   -7.6372  -15.1899 H   0  0  0  0  0  0  0  0  0  0  0  0
   -8.8493   -6.0632  -13.9429 C   0  0  0  0  0  0  0  0  0  0  0  0
   -8.2089   -7.1105  -13.0286 C   0  0  0  0  0  0  0  0  0  0  0  0
   -7.8983   -5.6230  -12.8354 C   0  0  0  0  0  0  0  0  0  0  0  0
   -6.6480   -5.1482  -13.2386 F   0  0  0  0  0  0  0  0  0  0  0  0
 26 27  1  0  0  0
 26 25  1  0  0  0
 27 25  1  0  0  0
 27 28  1  0  0  0
 25 22  1  0  0  0
 22 23  2  0  0  0
 22 21  1  0  0  0
 21  4  1  0  0  0
  4  5  2  0  0  0
  4  3  1  0  0  0
  5  6  1  0  0  0
 20 19  3  0  0  0
 19 14  1  0  0  0
  3  2  2  0  0  0
 14 15  2  0  0  0
 14 13  1  0  0  0
 15 16  1  0  0  0
  6  7  1  0  0  0
  6  1  2  0  0  0
  7  8  1  0  0  0
 13 12  2  0  0  0
 16 17  1  0  0  0
 16 11  2  0  0  0
 12 11  1  0  0  0
 12 18  1  0  0  0
 11  8  1  0  0  0
  2  1  1  0  0  0
  8  9  2  0  0  0
  7 10  1  0  0  0
 21 24  1  0  0  0
M  END
> <minimizedAffinity>
-7.56654

$$$$
4GJ3_0XP_A_1201


 28 30  0  0  0  0  0  0  0  0999 V2000
   -4.6423   -4.1160  -18.1634 C   0  0  0  0  0  0  0  0  0  0  0  0
   -3.6009   -3.3988  -18.7379 C   0  0  0  0  0  0  0  0  0  0  0  0
   -2.6147   -4.0175  -19.3787 N   0  0  0  0  0  0  0  0  0  0  0  0
   -2.5763   -5.3448  -19.5135 C   0  0  0  0  0  0  0  0  0  0  0  0
   -3.5677   -6.1289  -18.9215 C   0  0  0  0  0  0  0  0  0  0  0  0
   -4.6426   -5.5221  -18.2618 C   0  0  0  0  0  0  0  0  0  0  0  0
   -5.5872   -6.3823  -17.6785 N   0  0  0  0  0  0  0  0  0  0  0  0
   -5.4478   -7.3042  -16.6941 C   0  0  0  0  0  0  0  0  0  0  0  0
   -4.4053   -7.5007  -16.0953 O   0  0  0  0  0  0  0  0  0  0  0  0
   -6.4981   -6.3031  -18.0435 H   0  0  0  0  0  0  0  0  0  0  0  0
   -6.6477   -8.0985  -16.3504 C   0  0  0  0  0  0  0  0  0  0  0  0
   -7.0707   -9.1368  -17.2100 C   0  0  0  0  0  0  0  0  0  0  0  0
   -8.2072   -9.8656  -16.8975 C   0  0  0  0  0  0  0  0  0  0  0  0
   -8.9585   -9.5503  -15.7575 C   0  0  0  0  0  0  0  0  0  0  0  0
   -8.5553   -8.5054  -14.9148 C   0  0  0  0  0  0  0  0  0  0  0  0
   -7.4175   -7.7749  -15.2119 C   0  0  0  0  0  0  0  0  0  0  0  0
   -6.9626   -6.4721  -14.1565 Cl  0  0  0  0  0  0  0  0  0  0  0  0
   -6.1847   -9.5472  -18.6514 Cl  0  0  0  0  0  0  0  0  0  0  0  0
  -10.1354  -10.3023  -15.4472 C   0  0  0  0  0  0  0  0  0  0  0  0
  -11.0710  -10.8979  -15.2045 N   0  0  0  0  0  0  0  0  0  0  0  0
   -1.4746   -5.9197  -20.1612 N   0  0  0  0  0  0  0  0  0  0  0  0
   -1.4240   -6.4340  -21.4163 C   0  0  0  0  0  0  0  0  0  0  0  0
   -2.3849   -6.4477  -22.1661 O   0  0  0  0  0  0  0  0  0  0  0  0
   -0.6375   -5.9547  -19.6443 H   0  0  0  0  0  0  0  0  0  0  0  0
   -0.0997   -7.0066  -21.8606 C   0  0  0  0  0  0  0  0  0  0  0  0
    0.6045   -8.0405  -20.9786 C   0  0  0  0  0  0  0  0  0  0  0  0
   -0.0632   -8.4695  -22.2888 C   0  0  0  0  0  0  0  0  0  0  0  0
   -1.2698   -9.1699  -22.2205 F   0  0  0  0  0  0  0  0  0  0  0  0
 26 27  1  0  0  0
 26 25  1  0  0  0
 27 25  1  0  0  0
 27 28  1  0  0  0
 25 22  1  0  0  0
 22 23  2  0  0  0
 22 21  1  0  0  0
 21  4  1  0  0  0
  4  5  2  0  0  0
  4  3  1  0  0  0
  5  6  1  0  0  0
 20 19  3  0  0  0
 19 14  1  0  0  0
  3  2  2  0  0  0
 14 15  2  0  0  0
 14 13  1  0  0  0
 15 16  1  0  0  0
  6  7  1  0  0  0
  6  1  2  0  0  0
  7  8  1  0  0  0
 13 12  2  0  0  0
 16 17  1  0  0  0
 16 11  2  0  0  0
 12 11  1  0  0  0
 12 18  1  0  0  0
 11  8  1  0  0  0
  2  1  1  0  0  0
  8  9  2  0  0  0
  7 10  1  0  0  0
 21 24  1  0  0  0
M  END
> <minimizedAffinity>
-7.53695

$$$$
4GJ3_0XP_A_1201


 28 30  0  0  0  0  0  0  0  0999 V2000
   -7.7630   -8.9418  -16.9984 C   0  0  0  0  0  0  0  0  0  0  0  0
   -8.2537  -10.1764  -17.4031 C   0  0  0  0  0  0  0  0  0  0  0  0
   -7.8586  -10.7296  -18.5449 N   0  0  0  0  0  0  0  0  0  0  0  0
   -6.9713  -10.1423  -19.3507 C   0  0  0  0  0  0  0  0  0  0  0  0
   -6.4724   -8.8798  -19.0262 C   0  0  0  0  0  0  0  0  0  0  0  0
   -6.8357   -8.2696  -17.8201 C   0  0  0  0  0  0  0  0  0  0  0  0
   -6.3039   -6.9925  -17.5780 N   0  0  0  0  0  0  0  0  0  0  0  0
   -5.2106   -6.6143  -16.8708 C   0  0  0  0  0  0  0  0  0  0  0  0
   -4.4456   -7.3989  -16.3387 O   0  0  0  0  0  0  0  0  0  0  0  0
   -6.8063   -6.2519  -17.9882 H   0  0  0  0  0  0  0  0  0  0  0  0
   -4.9595   -5.1606  -16.7590 C   0  0  0  0  0  0  0  0  0  0  0  0
   -4.2928   -4.4822  -17.8035 C   0  0  0  0  0  0  0  0  0  0  0  0
   -4.0392   -3.1247  -17.6876 C   0  0  0  0  0  0  0  0  0  0  0  0
   -4.4038   -2.4338  -16.5243 C   0  0  0  0  0  0  0  0  0  0  0  0
   -5.0442   -3.1084  -15.4758 C   0  0  0  0  0  0  0  0  0  0  0  0
   -5.3101   -4.4628  -15.5827 C   0  0  0  0  0  0  0  0  0  0  0  0
   -6.0840   -5.2692  -14.2527 Cl  0  0  0  0  0  0  0  0  0  0  0  0
   -3.7969   -5.3040  -19.2560 Cl  0  0  0  0  0  0  0  0  0  0  0  0
   -4.1303   -1.0343  -16.4095 C   0  0  0  0  0  0  0  0  0  0  0  0
   -3.9098    0.0755  -16.3163 N   0  0  0  0  0  0  0  0  0  0  0  0
   -6.6469  -10.7715  -20.5600 N   0  0  0  0  0  0  0  0  0  0  0  0
   -6.7835  -10.2771  -21.8166 C   0  0  0  0  0  0  0  0  0  0  0  0
   -7.2226   -9.1635  -22.0466 O   0  0  0  0  0  0  0  0  0  0  0  0
   -6.2755  -11.6806  -20.4898 H   0  0  0  0  0  0  0  0  0  0  0  0
   -6.3636  -11.1820  -22.9497 C   0  0  0  0  0  0  0  0  0  0  0  0
   -6.3783  -10.6457  -24.3832 C   0  0  0  0  0  0  0  0  0  0  0  0
   -5.0487  -10.8746  -23.6578 C   0  0  0  0  0  0  0  0  0  0  0  0
   -4.3406   -9.7599  -23.2026 F   0  0  0  0  0  0  0  0  0  0  0  0
 26 27  1  0  0  0
 26 25  1  0  0  0
 27 25  1  0  0  0
 27 28  1  0  0  0
 25 22  1  0  0  0
 22 23  2  0  0  0
 22 21  1  0  0  0
 21  4  1  0  0  0
  4  5  2  0  0  0
  4  3  1  0  0  0
  5  6  1  0  0  0
 20 19  3  0  0  0
 19 14  1  0  0  0
  3  2  2  0  0  0
 14 15  2  0  0  0
 14 13  1  0  0  0
 15 16  1  0  0  0
  6  7  1  0  0  0
  6  1  2  0  0  0
  7  8  1  0  0  0
 13 12  2  0  0  0
 16 17  1  0  0  0
 16 11  2  0  0  0
 12 11  1  0  0  0
 12 18  1  0  0  0
 11  8  1  0  0  0
  2  1  1  0  0  0
  8  9  2  0  0  0
  7 10  1  0  0  0
 21 24  1  0  0  0
M  END
> <minimizedAffinity>
-7.48593

$$$$
