1WUQ_8GT_A_811


 43 45  0  0  0  0  0  0  0  0999 V2000
  -28.3261  -19.3680    6.0448 C   0  0  0  0  0  0  0  0  0  0  0  0
  -27.0464  -19.9587    6.4698 O   0  0  0  0  0  0  0  0  0  0  0  0
  -27.9386  -18.0771    5.2726 C   0  0  0  0  0  0  0  0  0  0  0  0
  -28.4815  -16.9325    5.9382 O   0  0  0  0  0  0  0  0  0  0  0  0
  -26.4386  -18.1453    5.2826 C   0  0  0  0  0  0  0  0  0  0  0  0
  -25.8567  -16.8412    5.2936 O   0  0  0  0  0  0  0  0  0  0  0  0
  -26.1796  -18.8503    6.5431 C   0  0  0  0  0  0  0  0  0  0  0  0
  -28.1834  -16.9238    6.8613 H   0  0  0  0  0  0  0  0  0  0  0  0
  -26.1915  -16.3442    6.0563 H   0  0  0  0  0  0  0  0  0  0  0  0
  -24.7923  -19.2657    6.7588 N   0  0  0  0  0  0  0  0  0  0  0  0
  -23.9263  -19.8613    5.8671 C   0  0  0  0  0  0  0  0  0  0  0  0
  -22.7353  -20.0826    6.3791 N   0  0  0  0  0  0  0  0  0  0  0  0
  -22.8381  -19.6022    7.6847 C   0  0  0  0  0  0  0  0  0  0  0  0
  -21.8825  -19.5479    8.7393 C   0  0  0  0  0  0  0  0  0  0  0  0
  -20.7076  -19.9156    8.7514 O   0  0  0  0  0  0  0  0  0  0  0  0
  -22.4258  -18.9787    9.9053 N   0  0  0  0  0  0  0  0  0  0  0  0
  -23.7309  -18.5229   10.0115 C   0  0  0  0  0  0  0  0  0  0  0  0
  -24.0815  -18.0130   11.1974 N   0  0  0  0  0  0  0  0  0  0  0  0
  -24.6070  -18.5638    9.0380 N   0  0  0  0  0  0  0  0  0  0  0  0
  -24.1024  -19.1116    7.9103 C   0  0  0  0  0  0  0  0  0  0  0  0
  -24.2958  -20.1230    4.7268 O   0  0  0  0  0  0  0  0  0  0  0  0
  -21.9535  -20.4920    5.9428 H   0  0  0  0  0  0  0  0  0  0  0  0
  -21.8432  -18.8990   10.6949 H   0  0  0  0  0  0  0  0  0  0  0  0
  -23.4270  -17.9800   11.9320 H   0  0  0  0  0  0  0  0  0  0  0  0
  -24.9942  -17.6706   11.3355 H   0  0  0  0  0  0  0  0  0  0  0  0
  -29.1847  -20.3238    5.2597 C   0  0  0  0  0  0  0  0  0  0  0  0
  -30.5110  -20.2772    5.8049 O   0  0  0  0  0  0  0  0  0  0  0  0
  -31.8152  -20.0631    4.9166 P   0  0  0  0  0  0  0  0  0  0  0  0
  -32.2894  -21.3408    4.3066 O   0  0  0  0  0  0  0  0  0  0  0  0
  -32.8491  -19.2724    5.6537 O   0  0  0  0  0  0  0  0  0  0  0  0
  -33.6304  -19.1574    5.0906 H   0  0  0  0  0  0  0  0  0  0  0  0
  -31.2345  -19.1351    3.7213 O   0  0  0  0  0  0  0  0  0  0  0  0
  -31.3550  -19.1321    2.1397 P   0  0  0  0  0  0  0  0  0  0  0  0
  -30.2331  -19.9028    1.5688 O   0  0  0  0  0  0  0  0  0  0  0  0
  -32.6711  -19.6497    1.7236 O   0  0  0  0  0  0  0  0  0  0  0  0
  -32.7302  -19.6419    0.7555 H   0  0  0  0  0  0  0  0  0  0  0  0
  -31.2173  -17.5667    1.7456 O   0  0  0  0  0  0  0  0  0  0  0  0
  -29.9778  -16.7674    1.1037 P   0  0  0  0  0  0  0  0  0  0  0  0
  -30.3193  -16.4142   -0.3155 O   0  0  0  0  0  0  0  0  0  0  0  0
  -29.7467  -15.5549    1.9621 O   0  0  0  0  0  0  0  0  0  0  0  0
  -28.7389  -17.6535    1.1171 O   0  0  0  0  0  0  0  0  0  0  0  0
  -29.0031  -15.0437    1.6062 H   0  0  0  0  0  0  0  0  0  0  0  0
  -27.9920  -17.1707    0.7299 H   0  0  0  0  0  0  0  0  0  0  0  0
 38 39  2  0  0  0
 38 40  1  0  0  0
 38 41  1  0  0  0
 38 37  1  0  0  0
 37 33  1  0  0  0
 33 34  2  0  0  0
 33 35  1  0  0  0
 33 32  1  0  0  0
 32 28  1  0  0  0
 28 29  2  0  0  0
 28 30  1  0  0  0
 28 27  1  0  0  0
 27 26  1  0  0  0
 26  1  1  0  0  0
  1  2  1  0  0  0
  1  3  1  0  0  0
  2  7  1  0  0  0
  3  4  1  0  0  0
  3  5  1  0  0  0
  5  6  1  0  0  0
  5  7  1  0  0  0
  7 10  1  0  0  0
 10 11  1  0  0  0
 10 20  1  0  0  0
 11 12  1  0  0  0
 11 21  2  0  0  0
 12 13  1  0  0  0
 13 14  1  0  0  0
 13 20  2  0  0  0
 14 15  2  0  0  0
 14 16  1  0  0  0
 16 17  1  0  0  0
 17 18  1  0  0  0
 17 19  2  0  0  0
 19 20  1  0  0  0
 40 42  1  0  0  0
 41 43  1  0  0  0
 35 36  1  0  0  0
 30 31  1  0  0  0
  4  8  1  0  0  0
  6  9  1  0  0  0
 12 22  1  0  0  0
 16 23  1  0  0  0
 18 24  1  0  0  0
 18 25  1  0  0  0
M  END
> <minimizedAffinity>
-12.28562

$$$$
1WUQ_8GT_A_811


 43 45  0  0  0  0  0  0  0  0999 V2000
  -28.2870  -19.4275    6.1152 C   0  0  0  0  0  0  0  0  0  0  0  0
  -26.9924  -19.9769    6.5506 O   0  0  0  0  0  0  0  0  0  0  0  0
  -27.9322  -18.1491    5.3072 C   0  0  0  0  0  0  0  0  0  0  0  0
  -28.4991  -17.0000    5.9442 O   0  0  0  0  0  0  0  0  0  0  0  0
  -26.4310  -18.1824    5.3129 C   0  0  0  0  0  0  0  0  0  0  0  0
  -25.8794  -16.8654    5.2867 O   0  0  0  0  0  0  0  0  0  0  0  0
  -26.1513  -18.8471    6.5907 C   0  0  0  0  0  0  0  0  0  0  0  0
  -28.1981  -16.9596    6.8655 H   0  0  0  0  0  0  0  0  0  0  0  0
  -26.2231  -16.3560    6.0372 H   0  0  0  0  0  0  0  0  0  0  0  0
  -24.7540  -19.2245    6.8117 N   0  0  0  0  0  0  0  0  0  0  0  0
  -23.8614  -19.7733    5.9164 C   0  0  0  0  0  0  0  0  0  0  0  0
  -22.6692  -19.9693    6.4358 N   0  0  0  0  0  0  0  0  0  0  0  0
  -22.7995  -19.5212    7.7504 C   0  0  0  0  0  0  0  0  0  0  0  0
  -21.8563  -19.4609    8.8159 C   0  0  0  0  0  0  0  0  0  0  0  0
  -20.6707  -19.7926    8.8322 O   0  0  0  0  0  0  0  0  0  0  0  0
  -22.4283  -18.9346    9.9883 N   0  0  0  0  0  0  0  0  0  0  0  0
  -23.7478  -18.5216   10.0908 C   0  0  0  0  0  0  0  0  0  0  0  0
  -24.1256  -18.0489   11.2837 N   0  0  0  0  0  0  0  0  0  0  0  0
  -24.6127  -18.5678    9.1076 N   0  0  0  0  0  0  0  0  0  0  0  0
  -24.0804  -19.0747    7.9735 C   0  0  0  0  0  0  0  0  0  0  0  0
  -24.2115  -20.0210    4.7668 O   0  0  0  0  0  0  0  0  0  0  0  0
  -21.8708  -20.3447    5.9988 H   0  0  0  0  0  0  0  0  0  0  0  0
  -21.8562  -18.8545   10.7854 H   0  0  0  0  0  0  0  0  0  0  0  0
  -23.4795  -18.0121   12.0257 H   0  0  0  0  0  0  0  0  0  0  0  0
  -25.0497  -17.7379   11.4198 H   0  0  0  0  0  0  0  0  0  0  0  0
  -29.1259  -20.4236    5.3595 C   0  0  0  0  0  0  0  0  0  0  0  0
  -30.5008  -20.1905    5.6969 O   0  0  0  0  0  0  0  0  0  0  0  0
  -31.6649  -20.1041    4.6138 P   0  0  0  0  0  0  0  0  0  0  0  0
  -32.4305  -21.3823    4.5161 O   0  0  0  0  0  0  0  0  0  0  0  0
  -32.4862  -18.8676    4.7985 O   0  0  0  0  0  0  0  0  0  0  0  0
  -33.1859  -18.8410    4.1272 H   0  0  0  0  0  0  0  0  0  0  0  0
  -30.8120  -19.9378    3.2455 O   0  0  0  0  0  0  0  0  0  0  0  0
  -30.8128  -18.9102    2.0373 P   0  0  0  0  0  0  0  0  0  0  0  0
  -32.1838  -18.4012    1.8376 O   0  0  0  0  0  0  0  0  0  0  0  0
  -29.8354  -17.8333    2.2780 O   0  0  0  0  0  0  0  0  0  0  0  0
  -29.8470  -17.2134    1.5320 H   0  0  0  0  0  0  0  0  0  0  0  0
  -30.3579  -19.8077    0.7676 O   0  0  0  0  0  0  0  0  0  0  0  0
  -31.1988  -20.2777   -0.5205 P   0  0  0  0  0  0  0  0  0  0  0  0
  -32.3219  -21.1630   -0.0620 O   0  0  0  0  0  0  0  0  0  0  0  0
  -31.6871  -19.0306   -1.2038 O   0  0  0  0  0  0  0  0  0  0  0  0
  -30.2931  -21.0613   -1.4616 O   0  0  0  0  0  0  0  0  0  0  0  0
  -32.2014  -19.2728   -1.9897 H   0  0  0  0  0  0  0  0  0  0  0  0
  -30.8009  -21.3443   -2.2381 H   0  0  0  0  0  0  0  0  0  0  0  0
 38 39  2  0  0  0
 38 40  1  0  0  0
 38 41  1  0  0  0
 38 37  1  0  0  0
 37 33  1  0  0  0
 33 34  2  0  0  0
 33 35  1  0  0  0
 33 32  1  0  0  0
 32 28  1  0  0  0
 28 29  2  0  0  0
 28 30  1  0  0  0
 28 27  1  0  0  0
 27 26  1  0  0  0
 26  1  1  0  0  0
  1  2  1  0  0  0
  1  3  1  0  0  0
  2  7  1  0  0  0
  3  4  1  0  0  0
  3  5  1  0  0  0
  5  6  1  0  0  0
  5  7  1  0  0  0
  7 10  1  0  0  0
 10 11  1  0  0  0
 10 20  1  0  0  0
 11 12  1  0  0  0
 11 21  2  0  0  0
 12 13  1  0  0  0
 13 14  1  0  0  0
 13 20  2  0  0  0
 14 15  2  0  0  0
 14 16  1  0  0  0
 16 17  1  0  0  0
 17 18  1  0  0  0
 17 19  2  0  0  0
 19 20  1  0  0  0
 40 42  1  0  0  0
 41 43  1  0  0  0
 35 36  1  0  0  0
 30 31  1  0  0  0
  4  8  1  0  0  0
  6  9  1  0  0  0
 12 22  1  0  0  0
 16 23  1  0  0  0
 18 24  1  0  0  0
 18 25  1  0  0  0
M  END
> <minimizedAffinity>
-11.51135

$$$$
1WUQ_8GT_A_811


 43 45  0  0  0  0  0  0  0  0999 V2000
  -28.2363  -19.2308    5.7412 C   0  0  0  0  0  0  0  0  0  0  0  0
  -26.9899  -19.8909    6.1632 O   0  0  0  0  0  0  0  0  0  0  0  0
  -27.7904  -17.8648    5.1511 C   0  0  0  0  0  0  0  0  0  0  0  0
  -28.3574  -16.7975    5.9173 O   0  0  0  0  0  0  0  0  0  0  0  0
  -26.2943  -17.9610    5.2363 C   0  0  0  0  0  0  0  0  0  0  0  0
  -25.6991  -16.6782    5.4351 O   0  0  0  0  0  0  0  0  0  0  0  0
  -26.1160  -18.8148    6.4162 C   0  0  0  0  0  0  0  0  0  0  0  0
  -28.1126  -16.9034    6.8500 H   0  0  0  0  0  0  0  0  0  0  0  0
  -26.0714  -16.2690    6.2318 H   0  0  0  0  0  0  0  0  0  0  0  0
  -24.7483  -19.2780    6.6575 N   0  0  0  0  0  0  0  0  0  0  0  0
  -23.8960  -19.9262    5.7897 C   0  0  0  0  0  0  0  0  0  0  0  0
  -22.7201  -20.1813    6.3206 N   0  0  0  0  0  0  0  0  0  0  0  0
  -22.8188  -19.6680    7.6139 C   0  0  0  0  0  0  0  0  0  0  0  0
  -21.8736  -19.6265    8.6785 C   0  0  0  0  0  0  0  0  0  0  0  0
  -20.7139  -20.0385    8.7128 O   0  0  0  0  0  0  0  0  0  0  0  0
  -22.4075  -19.0109    9.8250 N   0  0  0  0  0  0  0  0  0  0  0  0
  -23.6952  -18.5034    9.9056 C   0  0  0  0  0  0  0  0  0  0  0  0
  -24.0391  -17.9538   11.0756 N   0  0  0  0  0  0  0  0  0  0  0  0
  -24.5614  -18.5326    8.9228 N   0  0  0  0  0  0  0  0  0  0  0  0
  -24.0657  -19.1245    7.8136 C   0  0  0  0  0  0  0  0  0  0  0  0
  -24.2626  -20.1992    4.6511 O   0  0  0  0  0  0  0  0  0  0  0  0
  -21.9498  -20.6299    5.9028 H   0  0  0  0  0  0  0  0  0  0  0  0
  -21.8311  -18.9358   10.6196 H   0  0  0  0  0  0  0  0  0  0  0  0
  -23.3919  -17.9294   11.8171 H   0  0  0  0  0  0  0  0  0  0  0  0
  -24.9394  -17.5738   11.1953 H   0  0  0  0  0  0  0  0  0  0  0  0
  -29.0593  -20.0712    4.8013 C   0  0  0  0  0  0  0  0  0  0  0  0
  -29.3169  -19.2941    3.6231 O   0  0  0  0  0  0  0  0  0  0  0  0
  -30.6759  -19.3805    2.7977 P   0  0  0  0  0  0  0  0  0  0  0  0
  -30.5478  -20.2708    1.6058 O   0  0  0  0  0  0  0  0  0  0  0  0
  -31.8385  -19.6613    3.6961 O   0  0  0  0  0  0  0  0  0  0  0  0
  -32.6510  -19.7085    3.1682 H   0  0  0  0  0  0  0  0  0  0  0  0
  -30.8163  -17.8580    2.2596 O   0  0  0  0  0  0  0  0  0  0  0  0
  -29.9229  -16.8904    1.3758 P   0  0  0  0  0  0  0  0  0  0  0  0
  -29.6694  -15.6461    2.1281 O   0  0  0  0  0  0  0  0  0  0  0  0
  -28.6809  -17.5701    0.9651 O   0  0  0  0  0  0  0  0  0  0  0  0
  -28.1454  -16.9671    0.4260 H   0  0  0  0  0  0  0  0  0  0  0  0
  -30.8493  -16.5844    0.0824 O   0  0  0  0  0  0  0  0  0  0  0  0
  -32.0914  -17.4111   -0.5184 P   0  0  0  0  0  0  0  0  0  0  0  0
  -32.5237  -16.7606   -1.8012 O   0  0  0  0  0  0  0  0  0  0  0  0
  -31.6214  -18.8254   -0.7166 O   0  0  0  0  0  0  0  0  0  0  0  0
  -33.2475  -17.3851    0.4730 O   0  0  0  0  0  0  0  0  0  0  0  0
  -32.3457  -19.3589   -1.0796 H   0  0  0  0  0  0  0  0  0  0  0  0
  -33.9960  -17.8839    0.1099 H   0  0  0  0  0  0  0  0  0  0  0  0
 38 39  2  0  0  0
 38 40  1  0  0  0
 38 41  1  0  0  0
 38 37  1  0  0  0
 37 33  1  0  0  0
 33 34  2  0  0  0
 33 35  1  0  0  0
 33 32  1  0  0  0
 32 28  1  0  0  0
 28 29  2  0  0  0
 28 30  1  0  0  0
 28 27  1  0  0  0
 27 26  1  0  0  0
 26  1  1  0  0  0
  1  2  1  0  0  0
  1  3  1  0  0  0
  2  7  1  0  0  0
  3  4  1  0  0  0
  3  5  1  0  0  0
  5  6  1  0  0  0
  5  7  1  0  0  0
  7 10  1  0  0  0
 10 11  1  0  0  0
 10 20  1  0  0  0
 11 12  1  0  0  0
 11 21  2  0  0  0
 12 13  1  0  0  0
 13 14  1  0  0  0
 13 20  2  0  0  0
 14 15  2  0  0  0
 14 16  1  0  0  0
 16 17  1  0  0  0
 17 18  1  0  0  0
 17 19  2  0  0  0
 19 20  1  0  0  0
 40 42  1  0  0  0
 41 43  1  0  0  0
 35 36  1  0  0  0
 30 31  1  0  0  0
  4  8  1  0  0  0
  6  9  1  0  0  0
 12 22  1  0  0  0
 16 23  1  0  0  0
 18 24  1  0  0  0
 18 25  1  0  0  0
M  END
> <minimizedAffinity>
-11.37767

$$$$
1WUQ_8GT_A_811


 43 45  0  0  0  0  0  0  0  0999 V2000
  -26.6170  -18.0094    5.5520 C   0  0  0  0  0  0  0  0  0  0  0  0
  -27.6941  -17.7307    4.5879 O   0  0  0  0  0  0  0  0  0  0  0  0
  -26.7282  -19.5291    5.8537 C   0  0  0  0  0  0  0  0  0  0  0  0
  -27.0124  -19.7283    7.2420 O   0  0  0  0  0  0  0  0  0  0  0  0
  -27.8333  -19.9514    4.9289 C   0  0  0  0  0  0  0  0  0  0  0  0
  -28.5820  -21.0392    5.4725 O   0  0  0  0  0  0  0  0  0  0  0  0
  -28.6471  -18.7325    4.8591 C   0  0  0  0  0  0  0  0  0  0  0  0
  -27.8134  -19.2365    7.4818 H   0  0  0  0  0  0  0  0  0  0  0  0
  -28.9280  -20.7902    6.3438 H   0  0  0  0  0  0  0  0  0  0  0  0
  -29.7147  -18.7445    3.8572 N   0  0  0  0  0  0  0  0  0  0  0  0
  -29.6790  -18.2817    2.5595 C   0  0  0  0  0  0  0  0  0  0  0  0
  -30.8112  -18.4688    1.9171 N   0  0  0  0  0  0  0  0  0  0  0  0
  -31.6315  -19.0895    2.8592 C   0  0  0  0  0  0  0  0  0  0  0  0
  -32.9746  -19.5546    2.7682 C   0  0  0  0  0  0  0  0  0  0  0  0
  -33.7509  -19.5248    1.8131 O   0  0  0  0  0  0  0  0  0  0  0  0
  -33.4129  -20.1200    3.9794 N   0  0  0  0  0  0  0  0  0  0  0  0
  -32.6302  -20.2157    5.1198 C   0  0  0  0  0  0  0  0  0  0  0  0
  -33.2094  -20.7798    6.1855 N   0  0  0  0  0  0  0  0  0  0  0  0
  -31.3913  -19.7968    5.2003 N   0  0  0  0  0  0  0  0  0  0  0  0
  -30.9549  -19.2469    4.0455 C   0  0  0  0  0  0  0  0  0  0  0  0
  -28.6588  -17.7654    2.1146 O   0  0  0  0  0  0  0  0  0  0  0  0
  -31.0291  -18.2271    0.9879 H   0  0  0  0  0  0  0  0  0  0  0  0
  -34.3324  -20.4694    4.0198 H   0  0  0  0  0  0  0  0  0  0  0  0
  -34.1400  -21.0962    6.1301 H   0  0  0  0  0  0  0  0  0  0  0  0
  -32.7050  -20.8786    7.0252 H   0  0  0  0  0  0  0  0  0  0  0  0
  -25.2611  -17.5737    5.0634 C   0  0  0  0  0  0  0  0  0  0  0  0
  -24.3004  -17.8952    6.0793 O   0  0  0  0  0  0  0  0  0  0  0  0
  -22.9738  -18.7294    5.7964 P   0  0  0  0  0  0  0  0  0  0  0  0
  -23.2762  -20.1075    5.3078 O   0  0  0  0  0  0  0  0  0  0  0  0
  -22.0064  -17.9445    4.9684 O   0  0  0  0  0  0  0  0  0  0  0  0
  -21.2097  -18.4753    4.8119 H   0  0  0  0  0  0  0  0  0  0  0  0
  -22.3596  -18.8628    7.2905 O   0  0  0  0  0  0  0  0  0  0  0  0
  -21.7321  -20.0405    8.1478 P   0  0  0  0  0  0  0  0  0  0  0  0
  -21.6112  -21.2429    7.3003 O   0  0  0  0  0  0  0  0  0  0  0  0
  -20.4437  -19.6225    8.7295 O   0  0  0  0  0  0  0  0  0  0  0  0
  -20.0723  -20.3518    9.2503 H   0  0  0  0  0  0  0  0  0  0  0  0
  -22.8231  -20.2881    9.3196 O   0  0  0  0  0  0  0  0  0  0  0  0
  -23.8110  -19.2490   10.0486 P   0  0  0  0  0  0  0  0  0  0  0  0
  -24.3980  -19.9158   11.2596 O   0  0  0  0  0  0  0  0  0  0  0  0
  -22.9929  -18.0363   10.3953 O   0  0  0  0  0  0  0  0  0  0  0  0
  -24.9336  -18.8596    9.0955 O   0  0  0  0  0  0  0  0  0  0  0  0
  -23.5557  -17.3826   10.8389 H   0  0  0  0  0  0  0  0  0  0  0  0
  -25.5288  -18.2330    9.5358 H   0  0  0  0  0  0  0  0  0  0  0  0
 38 39  2  0  0  0
 38 40  1  0  0  0
 38 41  1  0  0  0
 38 37  1  0  0  0
 37 33  1  0  0  0
 33 34  2  0  0  0
 33 35  1  0  0  0
 33 32  1  0  0  0
 32 28  1  0  0  0
 28 29  2  0  0  0
 28 30  1  0  0  0
 28 27  1  0  0  0
 27 26  1  0  0  0
 26  1  1  0  0  0
  1  2  1  0  0  0
  1  3  1  0  0  0
  2  7  1  0  0  0
  3  4  1  0  0  0
  3  5  1  0  0  0
  5  6  1  0  0  0
  5  7  1  0  0  0
  7 10  1  0  0  0
 10 11  1  0  0  0
 10 20  1  0  0  0
 11 12  1  0  0  0
 11 21  2  0  0  0
 12 13  1  0  0  0
 13 14  1  0  0  0
 13 20  2  0  0  0
 14 15  2  0  0  0
 14 16  1  0  0  0
 16 17  1  0  0  0
 17 18  1  0  0  0
 17 19  2  0  0  0
 19 20  1  0  0  0
 40 42  1  0  0  0
 41 43  1  0  0  0
 35 36  1  0  0  0
 30 31  1  0  0  0
  4  8  1  0  0  0
  6  9  1  0  0  0
 12 22  1  0  0  0
 16 23  1  0  0  0
 18 24  1  0  0  0
 18 25  1  0  0  0
M  END
> <minimizedAffinity>
-10.14635

$$$$
1WUQ_8GT_A_811


 43 45  0  0  0  0  0  0  0  0999 V2000
  -33.0147  -18.2434   -0.8809 C   0  0  0  0  0  0  0  0  0  0  0  0
  -32.3343  -17.8347    0.3590 O   0  0  0  0  0  0  0  0  0  0  0  0
  -32.3389  -19.5806   -1.2908 C   0  0  0  0  0  0  0  0  0  0  0  0
  -31.7046  -19.4326   -2.5650 O   0  0  0  0  0  0  0  0  0  0  0  0
  -31.3901  -19.8136   -0.1505 C   0  0  0  0  0  0  0  0  0  0  0  0
  -30.2207  -20.5124   -0.5787 O   0  0  0  0  0  0  0  0  0  0  0  0
  -31.0666  -18.4410    0.2549 C   0  0  0  0  0  0  0  0  0  0  0  0
  -31.0817  -18.6898   -2.5318 H   0  0  0  0  0  0  0  0  0  0  0  0
  -29.7938  -20.0190   -1.2966 H   0  0  0  0  0  0  0  0  0  0  0  0
  -30.3062  -18.3146    1.4996 N   0  0  0  0  0  0  0  0  0  0  0  0
  -29.1861  -17.5505    1.7471 C   0  0  0  0  0  0  0  0  0  0  0  0
  -28.7635  -17.6473    2.9888 N   0  0  0  0  0  0  0  0  0  0  0  0
  -29.6656  -18.5312    3.5810 C   0  0  0  0  0  0  0  0  0  0  0  0
  -29.7498  -19.0291    4.9127 C   0  0  0  0  0  0  0  0  0  0  0  0
  -29.0336  -18.7900    5.8851 O   0  0  0  0  0  0  0  0  0  0  0  0
  -30.8312  -19.9149    5.0699 N   0  0  0  0  0  0  0  0  0  0  0  0
  -31.7092  -20.2567    4.0527 C   0  0  0  0  0  0  0  0  0  0  0  0
  -32.6802  -21.1173    4.3779 N   0  0  0  0  0  0  0  0  0  0  0  0
  -31.6375  -19.7908    2.8301 N   0  0  0  0  0  0  0  0  0  0  0  0
  -30.6011  -18.9404    2.6604 C   0  0  0  0  0  0  0  0  0  0  0  0
  -28.6921  -16.8694    0.8542 O   0  0  0  0  0  0  0  0  0  0  0  0
  -27.9907  -17.2002    3.4036 H   0  0  0  0  0  0  0  0  0  0  0  0
  -30.9735  -20.3170    5.9572 H   0  0  0  0  0  0  0  0  0  0  0  0
  -32.7384  -21.4703    5.2951 H   0  0  0  0  0  0  0  0  0  0  0  0
  -33.3367  -21.3978    3.6999 H   0  0  0  0  0  0  0  0  0  0  0  0
  -34.5108  -18.3268   -0.7323 C   0  0  0  0  0  0  0  0  0  0  0  0
  -34.8494  -19.6859   -0.4214 O   0  0  0  0  0  0  0  0  0  0  0  0
  -35.4525  -20.1383    0.9813 P   0  0  0  0  0  0  0  0  0  0  0  0
  -36.6431  -21.0241    0.8158 O   0  0  0  0  0  0  0  0  0  0  0  0
  -34.3820  -20.6525    1.8909 O   0  0  0  0  0  0  0  0  0  0  0  0
  -34.7766  -20.9202    2.7356 H   0  0  0  0  0  0  0  0  0  0  0  0
  -35.9735  -18.7221    1.5729 O   0  0  0  0  0  0  0  0  0  0  0  0
  -35.5494  -17.7821    2.7780 P   0  0  0  0  0  0  0  0  0  0  0  0
  -36.3886  -18.0936    3.9516 O   0  0  0  0  0  0  0  0  0  0  0  0
  -34.1083  -17.9214    3.0559 O   0  0  0  0  0  0  0  0  0  0  0  0
  -33.8639  -17.3415    3.7940 H   0  0  0  0  0  0  0  0  0  0  0  0
  -35.8750  -16.2903    2.2364 O   0  0  0  0  0  0  0  0  0  0  0  0
  -34.9762  -14.9570    2.2765 P   0  0  0  0  0  0  0  0  0  0  0  0
  -35.7420  -13.8437    1.6209 O   0  0  0  0  0  0  0  0  0  0  0  0
  -34.6721  -14.6769    3.7221 O   0  0  0  0  0  0  0  0  0  0  0  0
  -33.6800  -15.1936    1.5125 O   0  0  0  0  0  0  0  0  0  0  0  0
  -34.1289  -13.8761    3.7890 H   0  0  0  0  0  0  0  0  0  0  0  0
  -33.1386  -14.3891    1.5372 H   0  0  0  0  0  0  0  0  0  0  0  0
 38 39  2  0  0  0
 38 40  1  0  0  0
 38 41  1  0  0  0
 38 37  1  0  0  0
 37 33  1  0  0  0
 33 34  2  0  0  0
 33 35  1  0  0  0
 33 32  1  0  0  0
 32 28  1  0  0  0
 28 29  2  0  0  0
 28 30  1  0  0  0
 28 27  1  0  0  0
 27 26  1  0  0  0
 26  1  1  0  0  0
  1  2  1  0  0  0
  1  3  1  0  0  0
  2  7  1  0  0  0
  3  4  1  0  0  0
  3  5  1  0  0  0
  5  6  1  0  0  0
  5  7  1  0  0  0
  7 10  1  0  0  0
 10 11  1  0  0  0
 10 20  1  0  0  0
 11 12  1  0  0  0
 11 21  2  0  0  0
 12 13  1  0  0  0
 13 14  1  0  0  0
 13 20  2  0  0  0
 14 15  2  0  0  0
 14 16  1  0  0  0
 16 17  1  0  0  0
 17 18  1  0  0  0
 17 19  2  0  0  0
 19 20  1  0  0  0
 40 42  1  0  0  0
 41 43  1  0  0  0
 35 36  1  0  0  0
 30 31  1  0  0  0
  4  8  1  0  0  0
  6  9  1  0  0  0
 12 22  1  0  0  0
 16 23  1  0  0  0
 18 24  1  0  0  0
 18 25  1  0  0  0
M  END
> <minimizedAffinity>
-9.49312

$$$$
1WUQ_8GT_A_811


 43 45  0  0  0  0  0  0  0  0999 V2000
  -27.1082  -18.1046    5.0151 C   0  0  0  0  0  0  0  0  0  0  0  0
  -28.3295  -17.9991    4.2000 O   0  0  0  0  0  0  0  0  0  0  0  0
  -27.1011  -19.5646    5.5455 C   0  0  0  0  0  0  0  0  0  0  0  0
  -27.1642  -19.5614    6.9751 O   0  0  0  0  0  0  0  0  0  0  0  0
  -28.3113  -20.1469    4.8738 C   0  0  0  0  0  0  0  0  0  0  0  0
  -28.9180  -21.1596    5.6775 O   0  0  0  0  0  0  0  0  0  0  0  0
  -29.1829  -18.9723    4.7569 C   0  0  0  0  0  0  0  0  0  0  0  0
  -27.9425  -19.0592    7.2632 H   0  0  0  0  0  0  0  0  0  0  0  0
  -29.1407  -20.7919    6.5471 H   0  0  0  0  0  0  0  0  0  0  0  0
  -30.3869  -19.1598    3.9452 N   0  0  0  0  0  0  0  0  0  0  0  0
  -30.5648  -18.9053    2.6024 C   0  0  0  0  0  0  0  0  0  0  0  0
  -31.7717  -19.2104    2.1782 N   0  0  0  0  0  0  0  0  0  0  0  0
  -32.4156  -19.6902    3.3188 C   0  0  0  0  0  0  0  0  0  0  0  0
  -33.7368  -20.1872    3.5078 C   0  0  0  0  0  0  0  0  0  0  0  0
  -34.6478  -20.3209    2.6904 O   0  0  0  0  0  0  0  0  0  0  0  0
  -33.9654  -20.5635    4.8437 N   0  0  0  0  0  0  0  0  0  0  0  0
  -33.0177  -20.4658    5.8510 C   0  0  0  0  0  0  0  0  0  0  0  0
  -33.4072  -20.8661    7.0664 N   0  0  0  0  0  0  0  0  0  0  0  0
  -31.7990  -20.0179    5.6749 N   0  0  0  0  0  0  0  0  0  0  0  0
  -31.5632  -19.6481    4.3966 C   0  0  0  0  0  0  0  0  0  0  0  0
  -29.6447  -18.4473    1.9323 O   0  0  0  0  0  0  0  0  0  0  0  0
  -32.1358  -19.1210    1.2679 H   0  0  0  0  0  0  0  0  0  0  0  0
  -34.8533  -20.9183    5.0781 H   0  0  0  0  0  0  0  0  0  0  0  0
  -34.3218  -21.2035    7.2039 H   0  0  0  0  0  0  0  0  0  0  0  0
  -32.7793  -20.8234    7.8235 H   0  0  0  0  0  0  0  0  0  0  0  0
  -25.8629  -17.7135    4.2645 C   0  0  0  0  0  0  0  0  0  0  0  0
  -24.8553  -17.3712    5.2268 O   0  0  0  0  0  0  0  0  0  0  0  0
  -23.7246  -18.3841    5.7076 P   0  0  0  0  0  0  0  0  0  0  0  0
  -23.9008  -19.7405    5.1087 O   0  0  0  0  0  0  0  0  0  0  0  0
  -22.3623  -17.7831    5.5646 O   0  0  0  0  0  0  0  0  0  0  0  0
  -21.6948  -18.4201    5.8640 H   0  0  0  0  0  0  0  0  0  0  0  0
  -24.0561  -18.5000    7.2900 O   0  0  0  0  0  0  0  0  0  0  0  0
  -23.3120  -19.1035    8.5540 P   0  0  0  0  0  0  0  0  0  0  0  0
  -23.3423  -18.1149    9.6495 O   0  0  0  0  0  0  0  0  0  0  0  0
  -23.9124  -20.3946    8.9358 O   0  0  0  0  0  0  0  0  0  0  0  0
  -23.4478  -20.7512    9.7090 H   0  0  0  0  0  0  0  0  0  0  0  0
  -21.7917  -19.3221    8.0384 O   0  0  0  0  0  0  0  0  0  0  0  0
  -21.1360  -20.5604    7.2485 P   0  0  0  0  0  0  0  0  0  0  0  0
  -19.7344  -20.7596    7.7497 O   0  0  0  0  0  0  0  0  0  0  0  0
  -22.0150  -21.7543    7.4985 O   0  0  0  0  0  0  0  0  0  0  0  0
  -21.0975  -20.2504    5.7577 O   0  0  0  0  0  0  0  0  0  0  0  0
  -21.6514  -22.5259    7.0364 H   0  0  0  0  0  0  0  0  0  0  0  0
  -20.7020  -20.9976    5.2822 H   0  0  0  0  0  0  0  0  0  0  0  0
 38 39  2  0  0  0
 38 40  1  0  0  0
 38 41  1  0  0  0
 38 37  1  0  0  0
 37 33  1  0  0  0
 33 34  2  0  0  0
 33 35  1  0  0  0
 33 32  1  0  0  0
 32 28  1  0  0  0
 28 29  2  0  0  0
 28 30  1  0  0  0
 28 27  1  0  0  0
 27 26  1  0  0  0
 26  1  1  0  0  0
  1  2  1  0  0  0
  1  3  1  0  0  0
  2  7  1  0  0  0
  3  4  1  0  0  0
  3  5  1  0  0  0
  5  6  1  0  0  0
  5  7  1  0  0  0
  7 10  1  0  0  0
 10 11  1  0  0  0
 10 20  1  0  0  0
 11 12  1  0  0  0
 11 21  2  0  0  0
 12 13  1  0  0  0
 13 14  1  0  0  0
 13 20  2  0  0  0
 14 15  2  0  0  0
 14 16  1  0  0  0
 16 17  1  0  0  0
 17 18  1  0  0  0
 17 19  2  0  0  0
 19 20  1  0  0  0
 40 42  1  0  0  0
 41 43  1  0  0  0
 35 36  1  0  0  0
 30 31  1  0  0  0
  4  8  1  0  0  0
  6  9  1  0  0  0
 12 22  1  0  0  0
 16 23  1  0  0  0
 18 24  1  0  0  0
 18 25  1  0  0  0
M  END
> <minimizedAffinity>
-9.46511

$$$$
