1EB2_BPO_A_1248


 39 42  0  0  0  0  0  0  0  0999 V2000
    9.2697   -6.6720   22.8856 C   0  0  0  0  0  0  0  0  0  0  0  0
    8.6918   -8.0408   23.3946 C   0  0  0  0  0  0  0  0  0  0  0  0
   10.5786  -11.2769   24.1717 C   0  0  0  0  0  0  0  0  0  0  0  0
    9.4629  -10.2421   24.1212 C   0  0  0  0  0  0  0  0  0  0  0  0
   11.9646  -10.7712   23.7275 C   0  0  0  0  0  0  0  0  0  0  0  0
   11.8495   -9.8918   22.4430 C   0  0  0  0  0  0  0  0  0  0  0  0
    7.5625   -8.2074   23.7977 O   0  0  0  0  0  0  0  0  0  0  0  0
    9.5951   -9.1103   23.2123 N   0  0  0  0  0  0  0  0  0  0  0  0
   10.9332   -8.7076   22.7370 C   0  0  0  0  0  0  0  0  0  0  0  0
   12.7063  -12.0022   23.1507 C   0  0  0  0  0  0  0  0  0  0  0  0
   12.9439  -12.0325   21.9604 O   0  0  0  0  0  0  0  0  0  0  0  0
   13.1037  -13.0998   24.0933 C   0  0  0  0  0  0  0  0  0  0  0  0
   12.7295  -14.4227   23.7656 C   0  0  0  0  0  0  0  0  0  0  0  0
   13.0969  -15.4255   24.6500 C   0  0  0  0  0  0  0  0  0  0  0  0
   13.8074  -15.2037   25.8327 C   0  0  0  0  0  0  0  0  0  0  0  0
   14.1764  -13.9025   26.1362 C   0  0  0  0  0  0  0  0  0  0  0  0
   13.8215  -12.8676   25.2670 C   0  0  0  0  0  0  0  0  0  0  0  0
    7.6122   -6.2127   21.0364 C   0  0  0  0  0  0  0  0  0  0  0  0
    8.0843   -5.8940   22.3159 C   0  0  0  0  0  0  0  0  0  0  0  0
    6.5371   -5.5237   20.4813 C   0  0  0  0  0  0  0  0  0  0  0  0
    6.4247   -4.1572   22.4914 C   0  0  0  0  0  0  0  0  0  0  0  0
    5.9539   -4.4838   21.2219 C   0  0  0  0  0  0  0  0  0  0  0  0
    7.5068   -4.8475   23.0626 C   0  0  0  0  0  0  0  0  0  0  0  0
   11.1425   -5.1917   23.4604 C   0  0  0  0  0  0  0  0  0  0  0  0
   11.5439   -5.1529   22.2955 O   0  0  0  0  0  0  0  0  0  0  0  0
    9.9983   -5.9088   23.8915 N   0  0  0  0  0  0  0  0  0  0  0  0
    9.7076   -5.8922   24.8320 H   0  0  0  0  0  0  0  0  0  0  0  0
   13.1538   -3.7958   24.1195 C   0  0  0  0  0  0  0  0  0  0  0  0
   13.3107   -2.8476   26.3698 C   0  0  0  0  0  0  0  0  0  0  0  0
   11.9147   -4.3796   24.4824 C   0  0  0  0  0  0  0  0  0  0  0  0
   11.3875   -4.2209   25.7720 C   0  0  0  0  0  0  0  0  0  0  0  0
   12.0941   -3.4421   26.7223 C   0  0  0  0  0  0  0  0  0  0  0  0
   13.8388   -3.0389   25.0864 C   0  0  0  0  0  0  0  0  0  0  0  0
   12.2405   -2.8893   29.0939 N   0  0  0  0  0  0  0  0  0  0  0  0
   11.4695   -3.3049   28.0665 C   0  0  0  0  0  0  0  0  0  0  0  0
   10.1257   -3.3050   28.0413 N   0  0  0  0  0  0  0  0  0  0  0  0
   13.2215   -2.9272   29.0200 H   0  0  0  0  0  0  0  0  0  0  0  0
   11.8217   -2.5485   29.9172 H   0  0  0  0  0  0  0  0  0  0  0  0
    9.6176   -3.2191   28.8802 H   0  0  0  0  0  0  0  0  0  0  0  0
 12 10  1  0  0  0
 12 13  2  0  0  0
 12 17  1  0  0  0
 28 30  2  0  0  0
 28 33  1  0  0  0
 34 35  1  0  0  0
 29 32  1  0  0  0
 29 33  2  0  0  0
  1  2  1  0  0  0
  1 19  1  0  0  0
  1 26  1  0  0  0
  2  7  2  0  0  0
  2  8  1  0  0  0
 30 31  1  0  0  0
 30 24  1  0  0  0
 31 32  2  0  0  0
 32 35  1  0  0  0
 18 19  2  0  0  0
 18 20  1  0  0  0
 19 23  1  0  0  0
 35 36  2  0  0  0
 24 25  2  0  0  0
 24 26  1  0  0  0
 20 22  2  0  0  0
  3  4  1  0  0  0
  3  5  1  0  0  0
  4  8  1  0  0  0
 21 22  1  0  0  0
 21 23  2  0  0  0
  5 10  1  0  0  0
  5  6  1  0  0  0
 10 11  2  0  0  0
  6  9  1  0  0  0
  8  9  1  0  0  0
 13 14  1  0  0  0
 14 15  2  0  0  0
 15 16  1  0  0  0
 16 17  2  0  0  0
 34 37  1  0  0  0
 34 38  1  0  0  0
 26 27  1  0  0  0
 36 39  1  0  0  0
M  END
> <minimizedAffinity>
-9.27697

$$$$
1EB2_BPO_A_1248


 39 42  0  0  0  0  0  0  0  0999 V2000
    9.9439   -6.9702   22.6509 C   0  0  0  0  0  0  0  0  0  0  0  0
    9.5713   -8.4530   23.0100 C   0  0  0  0  0  0  0  0  0  0  0  0
   11.6396  -11.6243   22.4608 C   0  0  0  0  0  0  0  0  0  0  0  0
   10.5553  -10.6889   22.9779 C   0  0  0  0  0  0  0  0  0  0  0  0
   12.8077  -10.9355   21.7293 C   0  0  0  0  0  0  0  0  0  0  0  0
   12.2819   -9.8301   20.7607 C   0  0  0  0  0  0  0  0  0  0  0  0
    8.6302   -8.7826   23.6964 O   0  0  0  0  0  0  0  0  0  0  0  0
   10.3806   -9.3924   22.3351 N   0  0  0  0  0  0  0  0  0  0  0  0
   11.4945   -8.8018   21.5676 C   0  0  0  0  0  0  0  0  0  0  0  0
   13.3403  -11.9668   20.7041 C   0  0  0  0  0  0  0  0  0  0  0  0
   12.7853  -13.0436   20.6211 O   0  0  0  0  0  0  0  0  0  0  0  0
   14.5159  -11.5838   19.8542 C   0  0  0  0  0  0  0  0  0  0  0  0
   14.5685  -12.0815   18.5326 C   0  0  0  0  0  0  0  0  0  0  0  0
   15.6647  -11.7256   17.7617 C   0  0  0  0  0  0  0  0  0  0  0  0
   16.7076  -10.9123   18.2132 C   0  0  0  0  0  0  0  0  0  0  0  0
   16.6376  -10.4231   19.5083 C   0  0  0  0  0  0  0  0  0  0  0  0
   15.5469  -10.7631   20.3128 C   0  0  0  0  0  0  0  0  0  0  0  0
    8.1742   -6.5485   20.8994 C   0  0  0  0  0  0  0  0  0  0  0  0
    8.6471   -6.3031   22.1947 C   0  0  0  0  0  0  0  0  0  0  0  0
    6.9987   -5.9559   20.4456 C   0  0  0  0  0  0  0  0  0  0  0  0
    6.7824   -4.8311   22.5924 C   0  0  0  0  0  0  0  0  0  0  0  0
    6.3122   -5.0851   21.3062 C   0  0  0  0  0  0  0  0  0  0  0  0
    7.9656   -5.4257   23.0619 C   0  0  0  0  0  0  0  0  0  0  0  0
   11.6124   -5.3132   23.3577 C   0  0  0  0  0  0  0  0  0  0  0  0
   11.9602   -5.0842   22.1975 O   0  0  0  0  0  0  0  0  0  0  0  0
   10.5964   -6.2310   23.7248 N   0  0  0  0  0  0  0  0  0  0  0  0
   10.3418   -6.3639   24.6664 H   0  0  0  0  0  0  0  0  0  0  0  0
   13.6083   -4.0183   24.2341 C   0  0  0  0  0  0  0  0  0  0  0  0
   13.5470   -3.0255   26.4698 C   0  0  0  0  0  0  0  0  0  0  0  0
   12.3018   -4.5214   24.4524 C   0  0  0  0  0  0  0  0  0  0  0  0
   11.6323   -4.3013   25.6647 C   0  0  0  0  0  0  0  0  0  0  0  0
   12.2634   -3.5408   26.6807 C   0  0  0  0  0  0  0  0  0  0  0  0
   14.2147   -3.2782   25.2644 C   0  0  0  0  0  0  0  0  0  0  0  0
   12.1646   -3.0302   29.0642 N   0  0  0  0  0  0  0  0  0  0  0  0
   11.4895   -3.3352   27.9356 C   0  0  0  0  0  0  0  0  0  0  0  0
   10.1715   -3.1627   27.7363 N   0  0  0  0  0  0  0  0  0  0  0  0
   13.1341   -3.1930   29.1172 H   0  0  0  0  0  0  0  0  0  0  0  0
   11.6874   -2.6449   29.8343 H   0  0  0  0  0  0  0  0  0  0  0  0
    9.5723   -3.0190   28.5041 H   0  0  0  0  0  0  0  0  0  0  0  0
 12 10  1  0  0  0
 12 13  2  0  0  0
 12 17  1  0  0  0
 28 30  2  0  0  0
 28 33  1  0  0  0
 34 35  1  0  0  0
 29 32  1  0  0  0
 29 33  2  0  0  0
  1  2  1  0  0  0
  1 19  1  0  0  0
  1 26  1  0  0  0
  2  7  2  0  0  0
  2  8  1  0  0  0
 30 31  1  0  0  0
 30 24  1  0  0  0
 31 32  2  0  0  0
 32 35  1  0  0  0
 18 19  2  0  0  0
 18 20  1  0  0  0
 19 23  1  0  0  0
 35 36  2  0  0  0
 24 25  2  0  0  0
 24 26  1  0  0  0
 20 22  2  0  0  0
  3  4  1  0  0  0
  3  5  1  0  0  0
  4  8  1  0  0  0
 21 22  1  0  0  0
 21 23  2  0  0  0
  5 10  1  0  0  0
  5  6  1  0  0  0
 10 11  2  0  0  0
  6  9  1  0  0  0
  8  9  1  0  0  0
 13 14  1  0  0  0
 14 15  2  0  0  0
 15 16  1  0  0  0
 16 17  2  0  0  0
 34 37  1  0  0  0
 34 38  1  0  0  0
 26 27  1  0  0  0
 36 39  1  0  0  0
M  END
> <minimizedAffinity>
-8.39850

$$$$
1EB2_BPO_A_1248


 39 42  0  0  0  0  0  0  0  0999 V2000
   14.0427   -5.5016   20.2393 C   0  0  0  0  0  0  0  0  0  0  0  0
   13.3805   -6.4539   19.1804 C   0  0  0  0  0  0  0  0  0  0  0  0
   12.1816  -10.0573   19.6440 C   0  0  0  0  0  0  0  0  0  0  0  0
   12.3773   -8.6766   19.0328 C   0  0  0  0  0  0  0  0  0  0  0  0
   12.6601  -10.2048   21.1011 C   0  0  0  0  0  0  0  0  0  0  0  0
   14.0442   -9.5121   21.3040 C   0  0  0  0  0  0  0  0  0  0  0  0
   12.9797   -6.1058   18.0925 O   0  0  0  0  0  0  0  0  0  0  0  0
   13.4152   -7.8088   19.5754 N   0  0  0  0  0  0  0  0  0  0  0  0
   13.9128   -8.0346   20.9465 C   0  0  0  0  0  0  0  0  0  0  0  0
   13.0694  -11.6888   21.2705 C   0  0  0  0  0  0  0  0  0  0  0  0
   13.2962  -12.3464   20.2753 O   0  0  0  0  0  0  0  0  0  0  0  0
   13.1733  -12.2442   22.6604 C   0  0  0  0  0  0  0  0  0  0  0  0
   12.3748  -11.6595   23.6693 C   0  0  0  0  0  0  0  0  0  0  0  0
   12.4873  -12.1781   24.9503 C   0  0  0  0  0  0  0  0  0  0  0  0
   13.3359  -13.2334   25.2952 C   0  0  0  0  0  0  0  0  0  0  0  0
   14.1057  -13.8037   24.2935 C   0  0  0  0  0  0  0  0  0  0  0  0
   14.0174  -13.3048   22.9912 C   0  0  0  0  0  0  0  0  0  0  0  0
   15.5536   -4.5253   18.4668 C   0  0  0  0  0  0  0  0  0  0  0  0
   14.5874   -4.3073   19.4571 C   0  0  0  0  0  0  0  0  0  0  0  0
   16.0772   -3.4624   17.7356 C   0  0  0  0  0  0  0  0  0  0  0  0
   14.6802   -1.9403   19.0210 C   0  0  0  0  0  0  0  0  0  0  0  0
   15.6349   -2.1636   18.0317 C   0  0  0  0  0  0  0  0  0  0  0  0
   14.1429   -3.0054   19.7630 C   0  0  0  0  0  0  0  0  0  0  0  0
   13.7349   -4.9551   22.6132 C   0  0  0  0  0  0  0  0  0  0  0  0
   14.9279   -5.1328   22.8676 O   0  0  0  0  0  0  0  0  0  0  0  0
   13.1597   -5.0935   21.3251 N   0  0  0  0  0  0  0  0  0  0  0  0
   12.2028   -4.9212   21.1701 H   0  0  0  0  0  0  0  0  0  0  0  0
   11.4354   -4.5499   23.6016 C   0  0  0  0  0  0  0  0  0  0  0  0
   11.2075   -3.7546   25.9044 C   0  0  0  0  0  0  0  0  0  0  0  0
   12.8432   -4.5211   23.7608 C   0  0  0  0  0  0  0  0  0  0  0  0
   13.4293   -4.0972   24.9621 C   0  0  0  0  0  0  0  0  0  0  0  0
   12.5990   -3.7145   26.0451 C   0  0  0  0  0  0  0  0  0  0  0  0
   10.6368   -4.1528   24.6885 C   0  0  0  0  0  0  0  0  0  0  0  0
   12.5423   -2.7859   28.3004 N   0  0  0  0  0  0  0  0  0  0  0  0
   13.2884   -3.2889   27.2938 C   0  0  0  0  0  0  0  0  0  0  0  0
   14.5463   -3.7501   27.4016 N   0  0  0  0  0  0  0  0  0  0  0  0
   11.6263   -2.4710   28.1243 H   0  0  0  0  0  0  0  0  0  0  0  0
   12.9142   -2.7341   29.2104 H   0  0  0  0  0  0  0  0  0  0  0  0
   15.0874   -3.5240   28.1923 H   0  0  0  0  0  0  0  0  0  0  0  0
 12 10  1  0  0  0
 12 13  2  0  0  0
 12 17  1  0  0  0
 28 30  2  0  0  0
 28 33  1  0  0  0
 34 35  1  0  0  0
 29 32  1  0  0  0
 29 33  2  0  0  0
  1  2  1  0  0  0
  1 19  1  0  0  0
  1 26  1  0  0  0
  2  7  2  0  0  0
  2  8  1  0  0  0
 30 31  1  0  0  0
 30 24  1  0  0  0
 31 32  2  0  0  0
 32 35  1  0  0  0
 18 19  2  0  0  0
 18 20  1  0  0  0
 19 23  1  0  0  0
 35 36  2  0  0  0
 24 25  2  0  0  0
 24 26  1  0  0  0
 20 22  2  0  0  0
  3  4  1  0  0  0
  3  5  1  0  0  0
  4  8  1  0  0  0
 21 22  1  0  0  0
 21 23  2  0  0  0
  5 10  1  0  0  0
  5  6  1  0  0  0
 10 11  2  0  0  0
  6  9  1  0  0  0
  8  9  1  0  0  0
 13 14  1  0  0  0
 14 15  2  0  0  0
 15 16  1  0  0  0
 16 17  2  0  0  0
 34 37  1  0  0  0
 34 38  1  0  0  0
 26 27  1  0  0  0
 36 39  1  0  0  0
M  END
> <minimizedAffinity>
-8.22387

$$$$
1EB2_BPO_A_1248


 39 42  0  0  0  0  0  0  0  0999 V2000
    9.4760   -6.9699   22.9039 C   0  0  0  0  0  0  0  0  0  0  0  0
    8.8539   -8.2992   23.4630 C   0  0  0  0  0  0  0  0  0  0  0  0
   10.6630  -11.4351   24.7000 C   0  0  0  0  0  0  0  0  0  0  0  0
    9.5543  -10.4226   24.4475 C   0  0  0  0  0  0  0  0  0  0  0  0
   12.0857  -10.9499   24.3613 C   0  0  0  0  0  0  0  0  0  0  0  0
   12.1017  -10.1815   23.0027 C   0  0  0  0  0  0  0  0  0  0  0  0
    7.6894   -8.4466   23.7592 O   0  0  0  0  0  0  0  0  0  0  0  0
    9.7759   -9.3684   23.4656 N   0  0  0  0  0  0  0  0  0  0  0  0
   11.1546   -8.9891   23.0998 C   0  0  0  0  0  0  0  0  0  0  0  0
   12.8889  -12.2148   23.9697 C   0  0  0  0  0  0  0  0  0  0  0  0
   13.5310  -12.7844   24.8285 O   0  0  0  0  0  0  0  0  0  0  0  0
   12.8305  -12.6823   22.5453 C   0  0  0  0  0  0  0  0  0  0  0  0
   13.9689  -12.4776   21.7333 C   0  0  0  0  0  0  0  0  0  0  0  0
   13.8975  -12.9078   20.4171 C   0  0  0  0  0  0  0  0  0  0  0  0
   12.7763  -13.5247   19.8555 C   0  0  0  0  0  0  0  0  0  0  0  0
   11.6707  -13.7280   20.6665 C   0  0  0  0  0  0  0  0  0  0  0  0
   11.7086  -13.3058   21.9980 C   0  0  0  0  0  0  0  0  0  0  0  0
    8.0228   -6.4627   20.9018 C   0  0  0  0  0  0  0  0  0  0  0  0
    8.3284   -6.2064   22.2444 C   0  0  0  0  0  0  0  0  0  0  0  0
    6.9872   -5.7843   20.2646 C   0  0  0  0  0  0  0  0  0  0  0  0
    6.5785   -4.5531   22.3232 C   0  0  0  0  0  0  0  0  0  0  0  0
    6.2734   -4.8177   20.9902 C   0  0  0  0  0  0  0  0  0  0  0  0
    7.6193   -5.2335   22.9771 C   0  0  0  0  0  0  0  0  0  0  0  0
   11.2495   -5.3577   23.4373 C   0  0  0  0  0  0  0  0  0  0  0  0
   11.6089   -5.2773   22.2609 O   0  0  0  0  0  0  0  0  0  0  0  0
   10.1772   -6.1636   23.8956 N   0  0  0  0  0  0  0  0  0  0  0  0
    9.9166   -6.1782   24.8449 H   0  0  0  0  0  0  0  0  0  0  0  0
   13.2317   -3.9161   24.0863 C   0  0  0  0  0  0  0  0  0  0  0  0
   13.3297   -2.8825   26.3021 C   0  0  0  0  0  0  0  0  0  0  0  0
   11.9909   -4.4994   24.4443 C   0  0  0  0  0  0  0  0  0  0  0  0
   11.4340   -4.2982   25.7154 C   0  0  0  0  0  0  0  0  0  0  0  0
   12.1118   -3.4765   26.6505 C   0  0  0  0  0  0  0  0  0  0  0  0
   13.8877   -3.1161   25.0384 C   0  0  0  0  0  0  0  0  0  0  0  0
   10.2248   -3.8169   28.1589 N   0  0  0  0  0  0  0  0  0  0  0  0
   11.4566   -3.2958   27.9749 C   0  0  0  0  0  0  0  0  0  0  0  0
   12.2994   -2.9068   28.9469 N   0  0  0  0  0  0  0  0  0  0  0  0
    9.6778   -4.0736   27.3817 H   0  0  0  0  0  0  0  0  0  0  0  0
    9.8736   -3.9401   29.0703 H   0  0  0  0  0  0  0  0  0  0  0  0
   11.9631   -2.7598   29.8604 H   0  0  0  0  0  0  0  0  0  0  0  0
 12 10  1  0  0  0
 12 13  2  0  0  0
 12 17  1  0  0  0
 28 30  2  0  0  0
 28 33  1  0  0  0
 34 35  1  0  0  0
 29 32  1  0  0  0
 29 33  2  0  0  0
  1  2  1  0  0  0
  1 19  1  0  0  0
  1 26  1  0  0  0
  2  7  2  0  0  0
  2  8  1  0  0  0
 30 31  1  0  0  0
 30 24  1  0  0  0
 31 32  2  0  0  0
 32 35  1  0  0  0
 18 19  2  0  0  0
 18 20  1  0  0  0
 19 23  1  0  0  0
 35 36  2  0  0  0
 24 25  2  0  0  0
 24 26  1  0  0  0
 20 22  2  0  0  0
  3  4  1  0  0  0
  3  5  1  0  0  0
  4  8  1  0  0  0
 21 22  1  0  0  0
 21 23  2  0  0  0
  5 10  1  0  0  0
  5  6  1  0  0  0
 10 11  2  0  0  0
  6  9  1  0  0  0
  8  9  1  0  0  0
 13 14  1  0  0  0
 14 15  2  0  0  0
 15 16  1  0  0  0
 16 17  2  0  0  0
 34 37  1  0  0  0
 34 38  1  0  0  0
 26 27  1  0  0  0
 36 39  1  0  0  0
M  END
> <minimizedAffinity>
-8.17817

$$$$
1EB2_BPO_A_1248


 39 42  0  0  0  0  0  0  0  0999 V2000
   10.7003   -6.5861   21.7556 C   0  0  0  0  0  0  0  0  0  0  0  0
    9.1363   -6.7272   21.7836 C   0  0  0  0  0  0  0  0  0  0  0  0
    7.0106   -9.2483   23.7231 C   0  0  0  0  0  0  0  0  0  0  0  0
    7.3953   -8.0234   22.9046 C   0  0  0  0  0  0  0  0  0  0  0  0
    8.1922  -10.0426   24.3122 C   0  0  0  0  0  0  0  0  0  0  0  0
    9.3331  -10.2038   23.2591 C   0  0  0  0  0  0  0  0  0  0  0  0
    8.3608   -5.9176   21.3268 O   0  0  0  0  0  0  0  0  0  0  0  0
    8.7152   -7.9766   22.2881 N   0  0  0  0  0  0  0  0  0  0  0  0
    9.8023   -8.8183   22.8251 C   0  0  0  0  0  0  0  0  0  0  0  0
    7.7110  -11.5105   24.4212 C   0  0  0  0  0  0  0  0  0  0  0  0
    7.5323  -12.1410   23.3990 O   0  0  0  0  0  0  0  0  0  0  0  0
    7.4940  -12.0888   25.7885 C   0  0  0  0  0  0  0  0  0  0  0  0
    8.5984  -12.1414   26.6688 C   0  0  0  0  0  0  0  0  0  0  0  0
    8.3846  -12.6855   27.9261 C   0  0  0  0  0  0  0  0  0  0  0  0
    7.1534  -13.1788   28.3659 C   0  0  0  0  0  0  0  0  0  0  0  0
    6.0767  -13.1116   27.4954 C   0  0  0  0  0  0  0  0  0  0  0  0
    6.2575  -12.5699   26.2201 C   0  0  0  0  0  0  0  0  0  0  0  0
   10.5531   -7.3189   19.3434 C   0  0  0  0  0  0  0  0  0  0  0  0
   11.0883   -6.4317   20.2857 C   0  0  0  0  0  0  0  0  0  0  0  0
   10.8859   -7.2131   17.9955 C   0  0  0  0  0  0  0  0  0  0  0  0
   12.3330   -5.3343   18.5399 C   0  0  0  0  0  0  0  0  0  0  0  0
   11.7915   -6.2141   17.6057 C   0  0  0  0  0  0  0  0  0  0  0  0
   12.0022   -5.4298   19.9019 C   0  0  0  0  0  0  0  0  0  0  0  0
   11.8328   -5.8663   23.8119 C   0  0  0  0  0  0  0  0  0  0  0  0
   11.9624   -7.0244   24.2138 O   0  0  0  0  0  0  0  0  0  0  0  0
   11.2274   -5.5067   22.5816 N   0  0  0  0  0  0  0  0  0  0  0  0
   11.1655   -4.5664   22.2967 H   0  0  0  0  0  0  0  0  0  0  0  0
   13.5876   -4.1005   24.2931 C   0  0  0  0  0  0  0  0  0  0  0  0
   13.4146   -2.7062   26.2964 C   0  0  0  0  0  0  0  0  0  0  0  0
   12.4003   -4.7657   24.6877 C   0  0  0  0  0  0  0  0  0  0  0  0
   11.7383   -4.4254   25.8762 C   0  0  0  0  0  0  0  0  0  0  0  0
   12.2518   -3.3806   26.6847 C   0  0  0  0  0  0  0  0  0  0  0  0
   14.0808   -3.0768   25.1210 C   0  0  0  0  0  0  0  0  0  0  0  0
   10.1546   -3.2542   27.9246 N   0  0  0  0  0  0  0  0  0  0  0  0
   11.4912   -3.0637   27.9244 C   0  0  0  0  0  0  0  0  0  0  0  0
   12.2660   -2.9237   29.0137 N   0  0  0  0  0  0  0  0  0  0  0  0
    9.6703   -3.3464   27.0724 H   0  0  0  0  0  0  0  0  0  0  0  0
    9.6642   -3.3009   28.7770 H   0  0  0  0  0  0  0  0  0  0  0  0
   11.8576   -2.7131   29.8844 H   0  0  0  0  0  0  0  0  0  0  0  0
 12 10  1  0  0  0
 12 13  2  0  0  0
 12 17  1  0  0  0
 28 30  2  0  0  0
 28 33  1  0  0  0
 34 35  1  0  0  0
 29 32  1  0  0  0
 29 33  2  0  0  0
  1  2  1  0  0  0
  1 19  1  0  0  0
  1 26  1  0  0  0
  2  7  2  0  0  0
  2  8  1  0  0  0
 30 31  1  0  0  0
 30 24  1  0  0  0
 31 32  2  0  0  0
 32 35  1  0  0  0
 18 19  2  0  0  0
 18 20  1  0  0  0
 19 23  1  0  0  0
 35 36  2  0  0  0
 24 25  2  0  0  0
 24 26  1  0  0  0
 20 22  2  0  0  0
  3  4  1  0  0  0
  3  5  1  0  0  0
  4  8  1  0  0  0
 21 22  1  0  0  0
 21 23  2  0  0  0
  5 10  1  0  0  0
  5  6  1  0  0  0
 10 11  2  0  0  0
  6  9  1  0  0  0
  8  9  1  0  0  0
 13 14  1  0  0  0
 14 15  2  0  0  0
 15 16  1  0  0  0
 16 17  2  0  0  0
 34 37  1  0  0  0
 34 38  1  0  0  0
 26 27  1  0  0  0
 36 39  1  0  0  0
M  END
> <minimizedAffinity>
-7.93304

$$$$
1EB2_BPO_A_1248


 39 42  0  0  0  0  0  0  0  0999 V2000
   10.8617   -9.7373   22.1137 C   0  0  0  0  0  0  0  0  0  0  0  0
   11.6372   -8.7580   21.1618 C   0  0  0  0  0  0  0  0  0  0  0  0
   13.5310   -5.5605   22.0710 C   0  0  0  0  0  0  0  0  0  0  0  0
   13.0404   -6.7612   21.2736 C   0  0  0  0  0  0  0  0  0  0  0  0
   13.1687   -5.5736   23.5686 C   0  0  0  0  0  0  0  0  0  0  0  0
   11.6900   -6.0277   23.7783 C   0  0  0  0  0  0  0  0  0  0  0  0
   11.9045   -8.9867   20.0035 O   0  0  0  0  0  0  0  0  0  0  0  0
   11.8854   -7.5043   21.7618 N   0  0  0  0  0  0  0  0  0  0  0  0
   11.5149   -7.4239   23.1883 C   0  0  0  0  0  0  0  0  0  0  0  0
   13.0627   -4.0895   23.9978 C   0  0  0  0  0  0  0  0  0  0  0  0
   13.2131   -3.2285   23.1548 O   0  0  0  0  0  0  0  0  0  0  0  0
   12.7716   -3.7839   25.4375 C   0  0  0  0  0  0  0  0  0  0  0  0
   11.4185   -3.7068   25.8383 C   0  0  0  0  0  0  0  0  0  0  0  0
   11.1648   -3.4160   27.1701 C   0  0  0  0  0  0  0  0  0  0  0  0
   12.1602   -3.1974   28.1263 C   0  0  0  0  0  0  0  0  0  0  0  0
   13.4828   -3.2862   27.7211 C   0  0  0  0  0  0  0  0  0  0  0  0
   13.7740   -3.5768   26.3857 C   0  0  0  0  0  0  0  0  0  0  0  0
    9.4418  -11.3654   20.8058 C   0  0  0  0  0  0  0  0  0  0  0  0
    9.5654  -10.0983   21.3897 C   0  0  0  0  0  0  0  0  0  0  0  0
    8.2780  -11.7300   20.1339 C   0  0  0  0  0  0  0  0  0  0  0  0
    7.3622   -9.5251   20.6029 C   0  0  0  0  0  0  0  0  0  0  0  0
    7.2413  -10.7894   20.0312 C   0  0  0  0  0  0  0  0  0  0  0  0
    8.5306   -9.1473   21.2856 C   0  0  0  0  0  0  0  0  0  0  0  0
   11.5504  -11.2982   23.8796 C   0  0  0  0  0  0  0  0  0  0  0  0
   10.8828  -10.7138   24.7355 O   0  0  0  0  0  0  0  0  0  0  0  0
   11.6164  -10.9180   22.5156 N   0  0  0  0  0  0  0  0  0  0  0  0
   12.1502  -11.4305   21.8662 H   0  0  0  0  0  0  0  0  0  0  0  0
   13.4381  -12.3831   25.1788 C   0  0  0  0  0  0  0  0  0  0  0  0
   13.6975  -14.8163   25.1734 C   0  0  0  0  0  0  0  0  0  0  0  0
   12.3164  -12.5290   24.3254 C   0  0  0  0  0  0  0  0  0  0  0  0
   11.9001  -13.7930   23.8833 C   0  0  0  0  0  0  0  0  0  0  0  0
   12.5983  -14.9474   24.3176 C   0  0  0  0  0  0  0  0  0  0  0  0
   14.1191  -13.5447   25.5835 C   0  0  0  0  0  0  0  0  0  0  0  0
   12.2886  -16.5690   22.5215 N   0  0  0  0  0  0  0  0  0  0  0  0
   12.0936  -16.2565   23.8203 C   0  0  0  0  0  0  0  0  0  0  0  0
   11.7792  -17.1224   24.7991 N   0  0  0  0  0  0  0  0  0  0  0  0
   12.5167  -15.8631   21.8742 H   0  0  0  0  0  0  0  0  0  0  0  0
   12.2027  -17.5028   22.2216 H   0  0  0  0  0  0  0  0  0  0  0  0
   11.4360  -18.0171   24.5734 H   0  0  0  0  0  0  0  0  0  0  0  0
 12 10  1  0  0  0
 12 13  2  0  0  0
 12 17  1  0  0  0
 28 30  2  0  0  0
 28 33  1  0  0  0
 34 35  1  0  0  0
 29 32  1  0  0  0
 29 33  2  0  0  0
  1  2  1  0  0  0
  1 19  1  0  0  0
  1 26  1  0  0  0
  2  7  2  0  0  0
  2  8  1  0  0  0
 30 31  1  0  0  0
 30 24  1  0  0  0
 31 32  2  0  0  0
 32 35  1  0  0  0
 18 19  2  0  0  0
 18 20  1  0  0  0
 19 23  1  0  0  0
 35 36  2  0  0  0
 24 25  2  0  0  0
 24 26  1  0  0  0
 20 22  2  0  0  0
  3  4  1  0  0  0
  3  5  1  0  0  0
  4  8  1  0  0  0
 21 22  1  0  0  0
 21 23  2  0  0  0
  5 10  1  0  0  0
  5  6  1  0  0  0
 10 11  2  0  0  0
  6  9  1  0  0  0
  8  9  1  0  0  0
 13 14  1  0  0  0
 14 15  2  0  0  0
 15 16  1  0  0  0
 16 17  2  0  0  0
 34 37  1  0  0  0
 34 38  1  0  0  0
 26 27  1  0  0  0
 36 39  1  0  0  0
M  END
> <minimizedAffinity>
-7.64397

$$$$
1EB2_BPO_A_1248


 39 42  0  0  0  0  0  0  0  0999 V2000
   10.5128   -8.3987   22.1781 C   0  0  0  0  0  0  0  0  0  0  0  0
   10.9475   -7.1288   21.3627 C   0  0  0  0  0  0  0  0  0  0  0  0
   13.2203   -4.2564   22.4676 C   0  0  0  0  0  0  0  0  0  0  0  0
   12.4078   -5.1815   21.5717 C   0  0  0  0  0  0  0  0  0  0  0  0
   13.4220   -4.7514   23.9127 C   0  0  0  0  0  0  0  0  0  0  0  0
   12.0950   -5.3372   24.4894 C   0  0  0  0  0  0  0  0  0  0  0  0
   10.7659   -6.9736   20.1759 O   0  0  0  0  0  0  0  0  0  0  0  0
   11.4662   -6.1077   22.1881 N   0  0  0  0  0  0  0  0  0  0  0  0
   11.6399   -6.4924   23.6025 C   0  0  0  0  0  0  0  0  0  0  0  0
   13.5625   -3.4804   24.7862 C   0  0  0  0  0  0  0  0  0  0  0  0
   14.1838   -2.5362   24.3428 O   0  0  0  0  0  0  0  0  0  0  0  0
   12.9168   -3.4726   26.1405 C   0  0  0  0  0  0  0  0  0  0  0  0
   11.5048   -3.4775   26.2016 C   0  0  0  0  0  0  0  0  0  0  0  0
   10.9222   -3.4622   27.4597 C   0  0  0  0  0  0  0  0  0  0  0  0
   11.6444   -3.4424   28.6560 C   0  0  0  0  0  0  0  0  0  0  0  0
   13.0285   -3.4480   28.5808 C   0  0  0  0  0  0  0  0  0  0  0  0
   13.6483   -3.4624   27.3285 C   0  0  0  0  0  0  0  0  0  0  0  0
    8.0662   -7.7764   22.2437 C   0  0  0  0  0  0  0  0  0  0  0  0
    9.0552   -8.6662   21.8058 C   0  0  0  0  0  0  0  0  0  0  0  0
    6.7266   -7.9883   21.9284 C   0  0  0  0  0  0  0  0  0  0  0  0
    7.3645  -10.0214   20.7538 C   0  0  0  0  0  0  0  0  0  0  0  0
    6.3859   -9.1289   21.1847 C   0  0  0  0  0  0  0  0  0  0  0  0
    8.7194   -9.8161   21.0634 C   0  0  0  0  0  0  0  0  0  0  0  0
   11.8518  -10.2224   23.1321 C   0  0  0  0  0  0  0  0  0  0  0  0
   11.5959   -9.8818   24.2889 O   0  0  0  0  0  0  0  0  0  0  0  0
   11.3578   -9.5692   21.9752 N   0  0  0  0  0  0  0  0  0  0  0  0
   11.5764   -9.8928   21.0714 H   0  0  0  0  0  0  0  0  0  0  0  0
   13.2911  -11.7251   21.6833 C   0  0  0  0  0  0  0  0  0  0  0  0
   14.3687  -13.6996   22.6465 C   0  0  0  0  0  0  0  0  0  0  0  0
   12.7247  -11.4497   22.9527 C   0  0  0  0  0  0  0  0  0  0  0  0
   12.9559  -12.2928   24.0491 C   0  0  0  0  0  0  0  0  0  0  0  0
   13.7912  -13.4270   23.8915 C   0  0  0  0  0  0  0  0  0  0  0  0
   14.1052  -12.8640   21.5533 C   0  0  0  0  0  0  0  0  0  0  0  0
   14.4611  -13.6777   26.2239 N   0  0  0  0  0  0  0  0  0  0  0  0
   14.0037  -14.2697   25.1000 C   0  0  0  0  0  0  0  0  0  0  0  0
   13.4119  -15.4745   25.0304 N   0  0  0  0  0  0  0  0  0  0  0  0
   14.8823  -12.7892   26.1758 H   0  0  0  0  0  0  0  0  0  0  0  0
   14.3733  -14.1346   27.0915 H   0  0  0  0  0  0  0  0  0  0  0  0
   13.4933  -16.1069   25.7805 H   0  0  0  0  0  0  0  0  0  0  0  0
 12 10  1  0  0  0
 12 13  2  0  0  0
 12 17  1  0  0  0
 28 30  2  0  0  0
 28 33  1  0  0  0
 34 35  1  0  0  0
 29 32  1  0  0  0
 29 33  2  0  0  0
  1  2  1  0  0  0
  1 19  1  0  0  0
  1 26  1  0  0  0
  2  7  2  0  0  0
  2  8  1  0  0  0
 30 31  1  0  0  0
 30 24  1  0  0  0
 31 32  2  0  0  0
 32 35  1  0  0  0
 18 19  2  0  0  0
 18 20  1  0  0  0
 19 23  1  0  0  0
 35 36  2  0  0  0
 24 25  2  0  0  0
 24 26  1  0  0  0
 20 22  2  0  0  0
  3  4  1  0  0  0
  3  5  1  0  0  0
  4  8  1  0  0  0
 21 22  1  0  0  0
 21 23  2  0  0  0
  5 10  1  0  0  0
  5  6  1  0  0  0
 10 11  2  0  0  0
  6  9  1  0  0  0
  8  9  1  0  0  0
 13 14  1  0  0  0
 14 15  2  0  0  0
 15 16  1  0  0  0
 16 17  2  0  0  0
 34 37  1  0  0  0
 34 38  1  0  0  0
 26 27  1  0  0  0
 36 39  1  0  0  0
M  END
> <minimizedAffinity>
-7.64207

$$$$
1EB2_BPO_A_1248


 39 42  0  0  0  0  0  0  0  0999 V2000
   10.9262   -7.9290   23.0201 C   0  0  0  0  0  0  0  0  0  0  0  0
   11.3986   -7.8685   21.5234 C   0  0  0  0  0  0  0  0  0  0  0  0
    9.4260   -6.7233   18.4519 C   0  0  0  0  0  0  0  0  0  0  0  0
   10.5960   -7.1298   19.3375 C   0  0  0  0  0  0  0  0  0  0  0  0
    8.0970   -6.4764   19.1913 C   0  0  0  0  0  0  0  0  0  0  0  0
    7.8442   -7.5823   20.2635 C   0  0  0  0  0  0  0  0  0  0  0  0
   12.5430   -8.0057   21.1535 O   0  0  0  0  0  0  0  0  0  0  0  0
   10.3190   -7.7653   20.6196 N   0  0  0  0  0  0  0  0  0  0  0  0
    9.0014   -7.5781   21.2580 C   0  0  0  0  0  0  0  0  0  0  0  0
    6.9739   -6.8140   18.1799 C   0  0  0  0  0  0  0  0  0  0  0  0
    7.1070   -7.7881   17.4673 O   0  0  0  0  0  0  0  0  0  0  0  0
    5.7674   -5.9234   18.1325 C   0  0  0  0  0  0  0  0  0  0  0  0
    5.9076   -4.5928   18.5878 C   0  0  0  0  0  0  0  0  0  0  0  0
    4.7823   -3.7838   18.5453 C   0  0  0  0  0  0  0  0  0  0  0  0
    3.5327   -4.2055   18.0832 C   0  0  0  0  0  0  0  0  0  0  0  0
    3.4125   -5.5101   17.6304 C   0  0  0  0  0  0  0  0  0  0  0  0
    4.5268   -6.3528   17.6601 C   0  0  0  0  0  0  0  0  0  0  0  0
    9.9660  -10.2360   23.3849 C   0  0  0  0  0  0  0  0  0  0  0  0
   11.0767   -9.3857   23.4562 C   0  0  0  0  0  0  0  0  0  0  0  0
   10.0623  -11.5685   23.7771 C   0  0  0  0  0  0  0  0  0  0  0  0
   12.3961  -11.1906   24.3523 C   0  0  0  0  0  0  0  0  0  0  0  0
   11.2906  -12.0341   24.2715 C   0  0  0  0  0  0  0  0  0  0  0  0
   12.3114   -9.8453   23.9567 C   0  0  0  0  0  0  0  0  0  0  0  0
   11.3402   -5.6288   23.7730 C   0  0  0  0  0  0  0  0  0  0  0  0
   10.5346   -5.1592   22.9667 O   0  0  0  0  0  0  0  0  0  0  0  0
   11.6217   -7.0109   23.9138 N   0  0  0  0  0  0  0  0  0  0  0  0
   12.2608   -7.3375   24.5877 H   0  0  0  0  0  0  0  0  0  0  0  0
   13.2212   -3.9999   24.2598 C   0  0  0  0  0  0  0  0  0  0  0  0
   13.3005   -2.8139   26.3987 C   0  0  0  0  0  0  0  0  0  0  0  0
   12.0403   -4.6502   24.6963 C   0  0  0  0  0  0  0  0  0  0  0  0
   11.5055   -4.4063   25.9694 C   0  0  0  0  0  0  0  0  0  0  0  0
   12.1430   -3.4739   26.8257 C   0  0  0  0  0  0  0  0  0  0  0  0
   13.8392   -3.0896   25.1351 C   0  0  0  0  0  0  0  0  0  0  0  0
   12.2974   -2.8547   29.1803 N   0  0  0  0  0  0  0  0  0  0  0  0
   11.5133   -3.2542   28.1565 C   0  0  0  0  0  0  0  0  0  0  0  0
   10.1725   -3.1706   28.1134 N   0  0  0  0  0  0  0  0  0  0  0  0
   13.2748   -2.9565   29.1206 H   0  0  0  0  0  0  0  0  0  0  0  0
   11.8918   -2.4617   29.9867 H   0  0  0  0  0  0  0  0  0  0  0  0
    9.6615   -3.0259   28.9424 H   0  0  0  0  0  0  0  0  0  0  0  0
 12 10  1  0  0  0
 12 13  2  0  0  0
 12 17  1  0  0  0
 28 30  2  0  0  0
 28 33  1  0  0  0
 34 35  1  0  0  0
 29 32  1  0  0  0
 29 33  2  0  0  0
  1  2  1  0  0  0
  1 19  1  0  0  0
  1 26  1  0  0  0
  2  7  2  0  0  0
  2  8  1  0  0  0
 30 31  1  0  0  0
 30 24  1  0  0  0
 31 32  2  0  0  0
 32 35  1  0  0  0
 18 19  2  0  0  0
 18 20  1  0  0  0
 19 23  1  0  0  0
 35 36  2  0  0  0
 24 25  2  0  0  0
 24 26  1  0  0  0
 20 22  2  0  0  0
  3  4  1  0  0  0
  3  5  1  0  0  0
  4  8  1  0  0  0
 21 22  1  0  0  0
 21 23  2  0  0  0
  5 10  1  0  0  0
  5  6  1  0  0  0
 10 11  2  0  0  0
  6  9  1  0  0  0
  8  9  1  0  0  0
 13 14  1  0  0  0
 14 15  2  0  0  0
 15 16  1  0  0  0
 16 17  2  0  0  0
 34 37  1  0  0  0
 34 38  1  0  0  0
 26 27  1  0  0  0
 36 39  1  0  0  0
M  END
> <minimizedAffinity>
-7.43098

$$$$
1EB2_BPO_A_1248


 39 42  0  0  0  0  0  0  0  0999 V2000
   12.4946  -11.1791   21.5526 C   0  0  0  0  0  0  0  0  0  0  0  0
   13.6047  -10.2178   20.9956 C   0  0  0  0  0  0  0  0  0  0  0  0
   14.4840   -6.6785   22.1519 C   0  0  0  0  0  0  0  0  0  0  0  0
   14.5886   -8.0302   21.4589 C   0  0  0  0  0  0  0  0  0  0  0  0
   13.3580   -6.5613   23.1972 C   0  0  0  0  0  0  0  0  0  0  0  0
   12.0397   -7.2084   22.6683 C   0  0  0  0  0  0  0  0  0  0  0  0
   14.4794  -10.5446   20.2253 O   0  0  0  0  0  0  0  0  0  0  0  0
   13.4039   -8.8762   21.3867 N   0  0  0  0  0  0  0  0  0  0  0  0
   12.3045   -8.6773   22.3513 C   0  0  0  0  0  0  0  0  0  0  0  0
   12.9425   -5.0695   23.2152 C   0  0  0  0  0  0  0  0  0  0  0  0
   12.8191   -4.4877   22.1566 O   0  0  0  0  0  0  0  0  0  0  0  0
   12.7046   -4.4130   24.5431 C   0  0  0  0  0  0  0  0  0  0  0  0
   11.4162   -4.5201   25.1141 C   0  0  0  0  0  0  0  0  0  0  0  0
   11.2090   -3.9017   26.3377 C   0  0  0  0  0  0  0  0  0  0  0  0
   12.1909   -3.1871   27.0292 C   0  0  0  0  0  0  0  0  0  0  0  0
   13.4526   -3.0989   26.4620 C   0  0  0  0  0  0  0  0  0  0  0  0
   13.6955   -3.7099   25.2290 C   0  0  0  0  0  0  0  0  0  0  0  0
   11.7964  -13.0122   19.9621 C   0  0  0  0  0  0  0  0  0  0  0  0
   11.7044  -11.6664   20.3389 C   0  0  0  0  0  0  0  0  0  0  0  0
   11.0949  -13.4932   18.8597 C   0  0  0  0  0  0  0  0  0  0  0  0
   10.2258  -11.2519   18.4832 C   0  0  0  0  0  0  0  0  0  0  0  0
   10.3144  -12.5931   18.1177 C   0  0  0  0  0  0  0  0  0  0  0  0
   10.9268  -10.7562   19.5952 C   0  0  0  0  0  0  0  0  0  0  0  0
   12.5980  -12.3239   23.7223 C   0  0  0  0  0  0  0  0  0  0  0  0
   11.8410  -11.5085   24.2530 O   0  0  0  0  0  0  0  0  0  0  0  0
   12.9971  -12.2820   22.3628 N   0  0  0  0  0  0  0  0  0  0  0  0
   13.5895  -12.9695   21.9813 H   0  0  0  0  0  0  0  0  0  0  0  0
   13.9084  -13.1861   25.7144 C   0  0  0  0  0  0  0  0  0  0  0  0
   13.9756  -15.5834   26.2001 C   0  0  0  0  0  0  0  0  0  0  0  0
   13.0962  -13.4658   24.5875 C   0  0  0  0  0  0  0  0  0  0  0  0
   12.7436  -14.7818   24.2555 C   0  0  0  0  0  0  0  0  0  0  0  0
   13.1866  -15.8495   25.0757 C   0  0  0  0  0  0  0  0  0  0  0  0
   14.3437  -14.2659   26.5027 C   0  0  0  0  0  0  0  0  0  0  0  0
   13.7067  -18.1795   24.5737 N   0  0  0  0  0  0  0  0  0  0  0  0
   12.7637  -17.2183   24.6717 C   0  0  0  0  0  0  0  0  0  0  0  0
   11.4381  -17.4228   24.7584 N   0  0  0  0  0  0  0  0  0  0  0  0
   14.6577  -17.9319   24.5149 H   0  0  0  0  0  0  0  0  0  0  0  0
   13.4433  -19.1280   24.5612 H   0  0  0  0  0  0  0  0  0  0  0  0
   11.0578  -18.2971   24.5132 H   0  0  0  0  0  0  0  0  0  0  0  0
 12 10  1  0  0  0
 12 13  2  0  0  0
 12 17  1  0  0  0
 28 30  2  0  0  0
 28 33  1  0  0  0
 34 35  1  0  0  0
 29 32  1  0  0  0
 29 33  2  0  0  0
  1  2  1  0  0  0
  1 19  1  0  0  0
  1 26  1  0  0  0
  2  7  2  0  0  0
  2  8  1  0  0  0
 30 31  1  0  0  0
 30 24  1  0  0  0
 31 32  2  0  0  0
 32 35  1  0  0  0
 18 19  2  0  0  0
 18 20  1  0  0  0
 19 23  1  0  0  0
 35 36  2  0  0  0
 24 25  2  0  0  0
 24 26  1  0  0  0
 20 22  2  0  0  0
  3  4  1  0  0  0
  3  5  1  0  0  0
  4  8  1  0  0  0
 21 22  1  0  0  0
 21 23  2  0  0  0
  5 10  1  0  0  0
  5  6  1  0  0  0
 10 11  2  0  0  0
  6  9  1  0  0  0
  8  9  1  0  0  0
 13 14  1  0  0  0
 14 15  2  0  0  0
 15 16  1  0  0  0
 16 17  2  0  0  0
 34 37  1  0  0  0
 34 38  1  0  0  0
 26 27  1  0  0  0
 36 39  1  0  0  0
M  END
> <minimizedAffinity>
-7.40409

$$$$
1EB2_BPO_A_1248


 39 42  0  0  0  0  0  0  0  0999 V2000
   11.7229   -5.2233   23.8376 C   0  0  0  0  0  0  0  0  0  0  0  0
   12.7772   -4.8475   22.7358 C   0  0  0  0  0  0  0  0  0  0  0  0
   14.5763   -7.1627   20.2781 C   0  0  0  0  0  0  0  0  0  0  0  0
   14.0473   -5.8920   20.9291 C   0  0  0  0  0  0  0  0  0  0  0  0
   13.9859   -8.4764   20.8258 C   0  0  0  0  0  0  0  0  0  0  0  0
   13.9030   -8.4409   22.3841 C   0  0  0  0  0  0  0  0  0  0  0  0
   13.0341   -3.7191   22.3809 O   0  0  0  0  0  0  0  0  0  0  0  0
   13.5056   -5.9678   22.2801 N   0  0  0  0  0  0  0  0  0  0  0  0
   13.0292   -7.2627   22.8043 C   0  0  0  0  0  0  0  0  0  0  0  0
   15.0829   -9.5526   20.6346 C   0  0  0  0  0  0  0  0  0  0  0  0
   16.2445   -9.2311   20.7817 O   0  0  0  0  0  0  0  0  0  0  0  0
   14.6576  -10.9476   20.2822 C   0  0  0  0  0  0  0  0  0  0  0  0
   14.7223  -11.3374   18.9253 C   0  0  0  0  0  0  0  0  0  0  0  0
   14.3187  -12.6269   18.6136 C   0  0  0  0  0  0  0  0  0  0  0  0
   13.8570  -13.5510   19.5548 C   0  0  0  0  0  0  0  0  0  0  0  0
   13.8084  -13.1581   20.8832 C   0  0  0  0  0  0  0  0  0  0  0  0
   14.2071  -11.8650   21.2320 C   0  0  0  0  0  0  0  0  0  0  0  0
   13.4699   -4.1230   25.2918 C   0  0  0  0  0  0  0  0  0  0  0  0
   12.1222   -4.4475   25.0920 C   0  0  0  0  0  0  0  0  0  0  0  0
   13.8736   -3.4208   26.4244 C   0  0  0  0  0  0  0  0  0  0  0  0
   11.5627   -3.3963   27.1857 C   0  0  0  0  0  0  0  0  0  0  0  0
   12.9031   -3.0689   27.3755 C   0  0  0  0  0  0  0  0  0  0  0  0
   11.1435   -4.1020   26.0455 C   0  0  0  0  0  0  0  0  0  0  0  0
    9.5490   -6.1125   23.1216 C   0  0  0  0  0  0  0  0  0  0  0  0
    9.9513   -7.2773   23.1519 O   0  0  0  0  0  0  0  0  0  0  0  0
   10.3361   -4.9826   23.4581 N   0  0  0  0  0  0  0  0  0  0  0  0
    9.9614   -4.0724   23.4364 H   0  0  0  0  0  0  0  0  0  0  0  0
    7.3392   -6.9798   22.2311 C   0  0  0  0  0  0  0  0  0  0  0  0
    5.4094   -5.4852   22.0580 C   0  0  0  0  0  0  0  0  0  0  0  0
    8.0992   -5.8944   22.7333 C   0  0  0  0  0  0  0  0  0  0  0  0
    7.5351   -4.6187   22.8780 C   0  0  0  0  0  0  0  0  0  0  0  0
    6.1737   -4.4167   22.5396 C   0  0  0  0  0  0  0  0  0  0  0  0
    5.9947   -6.7472   21.8917 C   0  0  0  0  0  0  0  0  0  0  0  0
    4.7055   -2.8422   23.6872 N   0  0  0  0  0  0  0  0  0  0  0  0
    5.6376   -3.0413   22.7311 C   0  0  0  0  0  0  0  0  0  0  0  0
    6.3766   -2.0857   22.1417 N   0  0  0  0  0  0  0  0  0  0  0  0
    4.2124   -3.6080   24.0611 H   0  0  0  0  0  0  0  0  0  0  0  0
    4.5189   -1.9313   24.0107 H   0  0  0  0  0  0  0  0  0  0  0  0
    6.1056   -1.1417   22.2101 H   0  0  0  0  0  0  0  0  0  0  0  0
 12 10  1  0  0  0
 12 13  2  0  0  0
 12 17  1  0  0  0
 28 30  2  0  0  0
 28 33  1  0  0  0
 34 35  1  0  0  0
 29 32  1  0  0  0
 29 33  2  0  0  0
  1  2  1  0  0  0
  1 19  1  0  0  0
  1 26  1  0  0  0
  2  7  2  0  0  0
  2  8  1  0  0  0
 30 31  1  0  0  0
 30 24  1  0  0  0
 31 32  2  0  0  0
 32 35  1  0  0  0
 18 19  2  0  0  0
 18 20  1  0  0  0
 19 23  1  0  0  0
 35 36  2  0  0  0
 24 25  2  0  0  0
 24 26  1  0  0  0
 20 22  2  0  0  0
  3  4  1  0  0  0
  3  5  1  0  0  0
  4  8  1  0  0  0
 21 22  1  0  0  0
 21 23  2  0  0  0
  5 10  1  0  0  0
  5  6  1  0  0  0
 10 11  2  0  0  0
  6  9  1  0  0  0
  8  9  1  0  0  0
 13 14  1  0  0  0
 14 15  2  0  0  0
 15 16  1  0  0  0
 16 17  2  0  0  0
 34 37  1  0  0  0
 34 38  1  0  0  0
 26 27  1  0  0  0
 36 39  1  0  0  0
M  END
> <minimizedAffinity>
-7.14339

$$$$
