3CS7_LG0_A_298


 37 42  0  0  0  0  0  0  0  0999 V2000
    6.4919   44.4885   62.6418 C   0  0  0  0  0  0  0  0  0  0  0  0
    4.2387   44.1681   61.5867 C   0  0  0  0  0  0  0  0  0  0  0  0
    4.7791   42.7717   61.3033 C   0  0  0  0  0  0  0  0  0  0  0  0
    5.1270   44.7766   62.6286 C   0  0  0  0  0  0  0  0  0  0  0  0
    7.0194   45.2022   63.6870 N   0  0  0  0  0  0  0  0  0  0  0  0
    6.0009   45.9006   64.2879 N   0  0  0  0  0  0  0  0  0  0  0  0
    6.2382   42.7720   61.0086 N   0  0  0  0  0  0  0  0  0  0  0  0
    7.0881   43.5821   61.7474 C   0  0  0  0  0  0  0  0  0  0  0  0
    4.8417   45.6697   63.6741 C   0  0  0  0  0  0  0  0  0  0  0  0
    8.3115   43.5252   61.6564 O   0  0  0  0  0  0  0  0  0  0  0  0
    7.0686   39.4511   59.5318 C   0  0  0  0  0  0  0  0  0  0  0  0
    7.8358   39.9092   58.3862 C   0  0  0  0  0  0  0  0  0  0  0  0
    6.5086   40.4426   60.4023 C   0  0  0  0  0  0  0  0  0  0  0  0
    6.7414   41.8576   60.1028 C   0  0  0  0  0  0  0  0  0  0  0  0
    7.5141   42.3230   58.9423 C   0  0  0  0  0  0  0  0  0  0  0  0
    8.0883   41.3134   58.0663 C   0  0  0  0  0  0  0  0  0  0  0  0
    8.3646   38.8286   57.4753 C   0  0  0  0  0  0  0  0  0  0  0  0
    9.7811   38.8143   56.9104 C   0  0  0  0  0  0  0  0  0  0  0  0
    9.4384   37.8722   58.0207 C   0  0  0  0  0  0  0  0  0  0  0  0
    7.5029   37.9704   56.5858 C   0  0  0  0  0  0  0  0  0  0  0  0
    6.8828   39.6541   54.8969 C   0  0  0  0  0  0  0  0  0  0  0  0
    6.4226   38.7701   55.9891 N   0  0  0  0  0  0  0  0  0  0  0  0
    5.3456   37.9285   55.3907 C   0  0  0  0  0  0  0  0  0  0  0  0
    5.4667   38.1660   53.8966 C   0  0  0  0  0  0  0  0  0  0  0  0
    5.7062   39.6636   53.9345 C   0  0  0  0  0  0  0  0  0  0  0  0
   10.9984   45.0453   65.2218 C   0  0  0  0  0  0  0  0  0  0  0  0
   10.7032   45.9692   64.1141 C   0  0  0  0  0  0  0  0  0  0  0  0
    9.3480   46.0623   63.5918 C   0  0  0  0  0  0  0  0  0  0  0  0
    8.3131   45.2128   64.1948 C   0  0  0  0  0  0  0  0  0  0  0  0
    8.5843   44.3350   65.3457 C   0  0  0  0  0  0  0  0  0  0  0  0
    9.9397   44.2438   65.8668 C   0  0  0  0  0  0  0  0  0  0  0  0
   12.9306   43.8827   66.2238 C   0  0  0  0  0  0  0  0  0  0  0  0
   12.3415   45.0118   65.5941 O   0  0  0  0  0  0  0  0  0  0  0  0
    3.4724   46.2590   64.0137 C   0  0  0  0  0  0  0  0  0  0  0  0
    3.0162   47.0082   62.9883 F   0  0  0  0  0  0  0  0  0  0  0  0
    2.6269   45.2672   64.2456 F   0  0  0  0  0  0  0  0  0  0  0  0
    3.6422   47.0250   65.0895 F   0  0  0  0  0  0  0  0  0  0  0  0
  8  1  1  0  0  0
  1  4  2  0  0  0
  1  5  1  0  0  0
 12 11  2  0  0  0
 11 13  1  0  0  0
 20 17  1  0  0  0
 18 17  1  0  0  0
 17 19  1  0  0  0
 17 12  1  0  0  0
 16 12  1  0  0  0
 33 32  1  0  0  0
  3  2  1  0  0  0
  2  4  1  0  0  0
  7  3  1  0  0  0
 18 19  1  0  0  0
 14 13  2  0  0  0
 22 20  1  0  0  0
 36 34  1  0  0  0
  9 34  1  0  0  0
 34 37  1  0  0  0
 34 35  1  0  0  0
  4  9  1  0  0  0
 25 21  1  0  0  0
 21 22  1  0  0  0
 27 26  2  0  0  0
 26 33  1  0  0  0
 26 31  1  0  0  0
 28 27  1  0  0  0
 28 29  2  0  0  0
  5 29  1  0  0  0
 29 30  1  0  0  0
 30 31  2  0  0  0
  5  6  1  0  0  0
  9  6  2  0  0  0
 14  7  1  0  0  0
  7  8  1  0  0  0
 15 14  1  0  0  0
 16 15  2  0  0  0
 10  8  2  0  0  0
 23 22  1  0  0  0
 24 23  1  0  0  0
 25 24  1  0  0  0
M  END
> <minimizedAffinity>
-10.54262

$$$$
3CS7_LG0_A_298


 37 42  0  0  0  0  0  0  0  0999 V2000
    6.9355   45.3292   62.1259 C   0  0  0  0  0  0  0  0  0  0  0  0
    9.1757   45.7290   61.0701 C   0  0  0  0  0  0  0  0  0  0  0  0
    8.3399   46.4377   60.0111 C   0  0  0  0  0  0  0  0  0  0  0  0
    8.3026   45.5633   62.2764 C   0  0  0  0  0  0  0  0  0  0  0  0
    6.4304   45.2074   63.3947 N   0  0  0  0  0  0  0  0  0  0  0  0
    7.4637   45.3643   64.2855 N   0  0  0  0  0  0  0  0  0  0  0  0
    7.0230   45.7805   59.7877 N   0  0  0  0  0  0  0  0  0  0  0  0
    6.3003   45.3042   60.8717 C   0  0  0  0  0  0  0  0  0  0  0  0
    8.6120   45.5795   63.6460 C   0  0  0  0  0  0  0  0  0  0  0  0
    5.1501   44.8846   60.7752 O   0  0  0  0  0  0  0  0  0  0  0  0
    5.6304   44.4262   56.6057 C   0  0  0  0  0  0  0  0  0  0  0  0
    5.4713   45.6795   55.8881 C   0  0  0  0  0  0  0  0  0  0  0  0
    6.1371   44.4814   57.9452 C   0  0  0  0  0  0  0  0  0  0  0  0
    6.4753   45.7863   58.5190 C   0  0  0  0  0  0  0  0  0  0  0  0
    6.3115   47.0554   57.7959 C   0  0  0  0  0  0  0  0  0  0  0  0
    5.8054   46.9943   56.4334 C   0  0  0  0  0  0  0  0  0  0  0  0
    4.8910   45.5720   54.4993 C   0  0  0  0  0  0  0  0  0  0  0  0
    3.6853   44.7061   54.1491 C   0  0  0  0  0  0  0  0  0  0  0  0
    3.5074   46.1890   54.2343 C   0  0  0  0  0  0  0  0  0  0  0  0
    5.6689   45.8164   53.2323 C   0  0  0  0  0  0  0  0  0  0  0  0
    7.5960   44.5517   52.3614 C   0  0  0  0  0  0  0  0  0  0  0  0
    7.0811   45.4500   53.4168 N   0  0  0  0  0  0  0  0  0  0  0  0
    7.9895   46.6337   53.4077 C   0  0  0  0  0  0  0  0  0  0  0  0
    8.7912   46.4849   52.1276 C   0  0  0  0  0  0  0  0  0  0  0  0
    9.0427   44.9906   52.2026 C   0  0  0  0  0  0  0  0  0  0  0  0
    2.3412   44.8619   64.5659 C   0  0  0  0  0  0  0  0  0  0  0  0
    3.0791   43.6405   64.2037 C   0  0  0  0  0  0  0  0  0  0  0  0
    4.4824   43.7279   63.8283 C   0  0  0  0  0  0  0  0  0  0  0  0
    5.1159   45.0527   63.8186 C   0  0  0  0  0  0  0  0  0  0  0  0
    4.4049   46.2706   64.2427 C   0  0  0  0  0  0  0  0  0  0  0  0
    3.0021   46.1810   64.6181 C   0  0  0  0  0  0  0  0  0  0  0  0
    0.1148   45.7073   65.2120 C   0  0  0  0  0  0  0  0  0  0  0  0
    0.9937   44.6500   64.8541 O   0  0  0  0  0  0  0  0  0  0  0  0
    9.9969   45.7884   64.2594 C   0  0  0  0  0  0  0  0  0  0  0  0
   10.9129   45.0322   63.6191 F   0  0  0  0  0  0  0  0  0  0  0  0
   10.3242   47.0662   64.1482 F   0  0  0  0  0  0  0  0  0  0  0  0
    9.9119   45.4093   65.5330 F   0  0  0  0  0  0  0  0  0  0  0  0
  8  1  1  0  0  0
  1  4  2  0  0  0
  1  5  1  0  0  0
 12 11  2  0  0  0
 11 13  1  0  0  0
 20 17  1  0  0  0
 18 17  1  0  0  0
 17 19  1  0  0  0
 17 12  1  0  0  0
 16 12  1  0  0  0
 33 32  1  0  0  0
  3  2  1  0  0  0
  2  4  1  0  0  0
  7  3  1  0  0  0
 18 19  1  0  0  0
 14 13  2  0  0  0
 22 20  1  0  0  0
 36 34  1  0  0  0
  9 34  1  0  0  0
 34 37  1  0  0  0
 34 35  1  0  0  0
  4  9  1  0  0  0
 25 21  1  0  0  0
 21 22  1  0  0  0
 27 26  2  0  0  0
 26 33  1  0  0  0
 26 31  1  0  0  0
 28 27  1  0  0  0
 28 29  2  0  0  0
  5 29  1  0  0  0
 29 30  1  0  0  0
 30 31  2  0  0  0
  5  6  1  0  0  0
  9  6  2  0  0  0
 14  7  1  0  0  0
  7  8  1  0  0  0
 15 14  1  0  0  0
 16 15  2  0  0  0
 10  8  2  0  0  0
 23 22  1  0  0  0
 24 23  1  0  0  0
 25 24  1  0  0  0
M  END
> <minimizedAffinity>
-7.81035

$$$$
