5VCW_93J_A_401


 35 37  0  0  0  0  0  0  0  0999 V2000
   18.8852   14.6017    8.2290 C   0  0  0  0  0  0  0  0  0  0  0  0
   20.6025   16.8666    8.1564 C   0  0  0  0  0  0  0  0  0  0  0  0
   19.9702   14.7276    9.1503 C   0  0  0  0  0  0  0  0  0  0  0  0
   20.1917   13.7651   10.0783 N   0  0  0  0  0  0  0  0  0  0  0  0
   19.3962   12.6555   10.1345 C   0  0  0  0  0  0  0  0  0  0  0  0
   18.2997   12.4645    9.2469 C   0  0  0  0  0  0  0  0  0  0  0  0
   18.0143   13.4528    8.2511 C   0  0  0  0  0  0  0  0  0  0  0  0
   18.7037   15.6409    7.2943 C   0  0  0  0  0  0  0  0  0  0  0  0
   19.5426   16.7711    7.2324 C   0  0  0  0  0  0  0  0  0  0  0  0
   20.8133   15.8548    9.1146 C   0  0  0  0  0  0  0  0  0  0  0  0
   18.4610   18.8008    6.3331 C   0  0  0  0  0  0  0  0  0  0  0  0
   18.0902   19.3087    7.4178 O   0  0  0  0  0  0  0  0  0  0  0  0
   19.3594   17.7689    6.3105 N   0  0  0  0  0  0  0  0  0  0  0  0
   19.9543   17.7390    5.5266 H   0  0  0  0  0  0  0  0  0  0  0  0
   17.9619   19.3078    5.1416 C   0  0  0  0  0  0  0  0  0  0  0  0
   16.6723   19.1965    4.7668 C   0  0  0  0  0  0  0  0  0  0  0  0
   16.1655   19.7318    3.5104 C   0  0  0  0  0  0  0  0  0  0  0  0
   15.4966   21.0707    3.6568 N   0  0  0  0  0  0  0  0  0  0  0  0
   13.9993   21.0213    3.7306 C   0  0  0  0  0  0  0  0  0  0  0  0
   15.9908   22.0723    2.6632 C   0  0  0  0  0  0  0  0  0  0  0  0
   17.6402   11.3349    9.4318 C   0  0  0  0  0  0  0  0  0  0  0  0
   17.0564   10.3511    9.5939 N   0  0  0  0  0  0  0  0  0  0  0  0
   16.9163   13.3509    7.3626 N   0  0  0  0  0  0  0  0  0  0  0  0
   17.0290   12.8232    6.5392 H   0  0  0  0  0  0  0  0  0  0  0  0
   15.3679   15.3162    7.2425 C   0  0  0  0  0  0  0  0  0  0  0  0
   14.1164   15.9037    7.5642 C   0  0  0  0  0  0  0  0  0  0  0  0
   13.1510   15.1489    8.2441 C   0  0  0  0  0  0  0  0  0  0  0  0
   14.6736   13.2323    8.2867 C   0  0  0  0  0  0  0  0  0  0  0  0
   15.6796   13.9621    7.5955 C   0  0  0  0  0  0  0  0  0  0  0  0
   13.4250   13.8156    8.5989 C   0  0  0  0  0  0  0  0  0  0  0  0
   12.0046   15.6955    8.5451 F   0  0  0  0  0  0  0  0  0  0  0  0
   13.7486   17.5100    7.1507 Cl  0  0  0  0  0  0  0  0  0  0  0  0
   21.4292   17.9536    8.1238 O   0  0  0  0  0  0  0  0  0  0  0  0
   21.5072   20.2922    8.2112 C   0  0  0  0  0  0  0  0  0  0  0  0
   21.1564   19.0377    9.0277 C   0  0  0  0  0  0  0  0  0  0  0  0
 19 18  1  0  0  0
 32 26  1  0  0  0
 31 27  1  0  0  0
 27 26  2  0  0  0
 27 30  1  0  0  0
 26 25  1  0  0  0
 18 20  1  0  0  0
 18 17  1  0  0  0
 30 28  2  0  0  0
 25 29  2  0  0  0
 28 29  1  0  0  0
 29 23  1  0  0  0
 16 17  1  0  0  0
 16 15  2  0  0  0
 12 11  2  0  0  0
 11 15  1  0  0  0
 11 13  1  0  0  0
 23  7  1  0  0  0
 13  9  1  0  0  0
  8  9  2  0  0  0
  8  1  1  0  0  0
  9  2  1  0  0  0
  7  1  2  0  0  0
  7  6  1  0  0  0
  1  3  1  0  0  0
 22 21  3  0  0  0
 21  6  1  0  0  0
  6  5  2  0  0  0
  2 33  1  0  0  0
  2 10  2  0  0  0
 33 35  1  0  0  0
  3 10  1  0  0  0
  3  4  2  0  0  0
  5  4  1  0  0  0
 35 34  1  0  0  0
 13 14  1  0  0  0
 23 24  1  0  0  0
M  END
> <minimizedAffinity>
-9.31869

$$$$
5VCW_93J_A_401


 35 37  0  0  0  0  0  0  0  0999 V2000
   17.4566   17.4604    5.5927 C   0  0  0  0  0  0  0  0  0  0  0  0
   14.6754   16.8728    5.5279 C   0  0  0  0  0  0  0  0  0  0  0  0
   16.5032   18.4680    5.2494 C   0  0  0  0  0  0  0  0  0  0  0  0
   16.9160   19.7244    4.9533 N   0  0  0  0  0  0  0  0  0  0  0  0
   18.2453   20.0406    4.9601 C   0  0  0  0  0  0  0  0  0  0  0  0
   19.2487   19.0864    5.2909 C   0  0  0  0  0  0  0  0  0  0  0  0
   18.8697   17.7454    5.6193 C   0  0  0  0  0  0  0  0  0  0  0  0
   16.9621   16.1764    5.8981 C   0  0  0  0  0  0  0  0  0  0  0  0
   15.5904   15.8563    5.8682 C   0  0  0  0  0  0  0  0  0  0  0  0
   15.1265   18.1734    5.2257 C   0  0  0  0  0  0  0  0  0  0  0  0
   14.9217   14.0234    7.3821 C   0  0  0  0  0  0  0  0  0  0  0  0
   14.5827   14.7151    8.3713 O   0  0  0  0  0  0  0  0  0  0  0  0
   15.1257   14.5996    6.1577 N   0  0  0  0  0  0  0  0  0  0  0  0
   14.9096   14.0357    5.3802 H   0  0  0  0  0  0  0  0  0  0  0  0
   15.0744   12.6524    7.5338 C   0  0  0  0  0  0  0  0  0  0  0  0
   16.1619   12.0809    8.0876 C   0  0  0  0  0  0  0  0  0  0  0  0
   16.3077   10.6391    8.2363 C   0  0  0  0  0  0  0  0  0  0  0  0
   17.0379   10.2374    9.4881 N   0  0  0  0  0  0  0  0  0  0  0  0
   18.5327   10.2193    9.3661 C   0  0  0  0  0  0  0  0  0  0  0  0
   16.4948    8.9830   10.0932 C   0  0  0  0  0  0  0  0  0  0  0  0
   20.4828   19.5548    5.2408 C   0  0  0  0  0  0  0  0  0  0  0  0
   21.5640   19.9605    5.2039 N   0  0  0  0  0  0  0  0  0  0  0  0
   19.8079   16.7548    5.9989 N   0  0  0  0  0  0  0  0  0  0  0  0
   20.2709   16.2535    5.2893 H   0  0  0  0  0  0  0  0  0  0  0  0
   19.8663   15.1810    7.9467 C   0  0  0  0  0  0  0  0  0  0  0  0
   20.1328   14.9529    9.3221 C   0  0  0  0  0  0  0  0  0  0  0  0
   20.6497   15.9908   10.1093 C   0  0  0  0  0  0  0  0  0  0  0  0
   20.6324   17.4790    8.1654 C   0  0  0  0  0  0  0  0  0  0  0  0
   20.1103   16.4525    7.3310 C   0  0  0  0  0  0  0  0  0  0  0  0
   20.9051   17.2481    9.5325 C   0  0  0  0  0  0  0  0  0  0  0  0
   20.8857   15.7791   11.3754 F   0  0  0  0  0  0  0  0  0  0  0  0
   19.8389   13.4478   10.0534 Cl  0  0  0  0  0  0  0  0  0  0  0  0
   13.3386   16.5933    5.4959 O   0  0  0  0  0  0  0  0  0  0  0  0
   11.4674   16.0500    6.7942 C   0  0  0  0  0  0  0  0  0  0  0  0
   12.5066   17.1509    6.5271 C   0  0  0  0  0  0  0  0  0  0  0  0
 19 18  1  0  0  0
 32 26  1  0  0  0
 31 27  1  0  0  0
 27 26  2  0  0  0
 27 30  1  0  0  0
 26 25  1  0  0  0
 18 20  1  0  0  0
 18 17  1  0  0  0
 30 28  2  0  0  0
 25 29  2  0  0  0
 28 29  1  0  0  0
 29 23  1  0  0  0
 16 17  1  0  0  0
 16 15  2  0  0  0
 12 11  2  0  0  0
 11 15  1  0  0  0
 11 13  1  0  0  0
 23  7  1  0  0  0
 13  9  1  0  0  0
  8  9  2  0  0  0
  8  1  1  0  0  0
  9  2  1  0  0  0
  7  1  2  0  0  0
  7  6  1  0  0  0
  1  3  1  0  0  0
 22 21  3  0  0  0
 21  6  1  0  0  0
  6  5  2  0  0  0
  2 33  1  0  0  0
  2 10  2  0  0  0
 33 35  1  0  0  0
  3 10  1  0  0  0
  3  4  2  0  0  0
  5  4  1  0  0  0
 35 34  1  0  0  0
 13 14  1  0  0  0
 23 24  1  0  0  0
M  END
> <minimizedAffinity>
-9.23496

$$$$
5VCW_93J_A_401


 35 37  0  0  0  0  0  0  0  0999 V2000
   15.6198   15.3505    7.1398 C   0  0  0  0  0  0  0  0  0  0  0  0
   14.1069   17.7196    6.7120 C   0  0  0  0  0  0  0  0  0  0  0  0
   14.2110   15.3726    7.3780 C   0  0  0  0  0  0  0  0  0  0  0  0
   13.5750   14.2562    7.8089 N   0  0  0  0  0  0  0  0  0  0  0  0
   14.2709   13.1030    8.0391 C   0  0  0  0  0  0  0  0  0  0  0  0
   15.6753   13.0107    7.8246 C   0  0  0  0  0  0  0  0  0  0  0  0
   16.3978   14.1572    7.3626 C   0  0  0  0  0  0  0  0  0  0  0  0
   16.2197   16.5420    6.6847 C   0  0  0  0  0  0  0  0  0  0  0  0
   15.4953   17.7312    6.4700 C   0  0  0  0  0  0  0  0  0  0  0  0
   13.4654   16.5466    7.1578 C   0  0  0  0  0  0  0  0  0  0  0  0
   16.6882   19.1412    4.8307 C   0  0  0  0  0  0  0  0  0  0  0  0
   16.2766   18.5927    3.7810 O   0  0  0  0  0  0  0  0  0  0  0  0
   16.0950   18.8853    6.0370 N   0  0  0  0  0  0  0  0  0  0  0  0
   16.0995   19.6304    6.6805 H   0  0  0  0  0  0  0  0  0  0  0  0
   17.7500   20.0319    4.7586 C   0  0  0  0  0  0  0  0  0  0  0  0
   18.8313   19.9681    5.5602 C   0  0  0  0  0  0  0  0  0  0  0  0
   19.9361   20.9136    5.4736 C   0  0  0  0  0  0  0  0  0  0  0  0
   21.2433   20.3530    5.9619 N   0  0  0  0  0  0  0  0  0  0  0  0
   22.1228   21.3370    6.6746 C   0  0  0  0  0  0  0  0  0  0  0  0
   21.9732   19.5903    4.9035 C   0  0  0  0  0  0  0  0  0  0  0  0
   16.1919   11.8275    8.1039 C   0  0  0  0  0  0  0  0  0  0  0  0
   16.6363   10.7899    8.3503 N   0  0  0  0  0  0  0  0  0  0  0  0
   17.7866   14.1283    7.0872 N   0  0  0  0  0  0  0  0  0  0  0  0
   18.0843   13.7580    6.2249 H   0  0  0  0  0  0  0  0  0  0  0  0
   19.3659   15.8946    7.8997 C   0  0  0  0  0  0  0  0  0  0  0  0
   20.3946   16.2926    8.7931 C   0  0  0  0  0  0  0  0  0  0  0  0
   20.8345   15.4041    9.7834 C   0  0  0  0  0  0  0  0  0  0  0  0
   19.2342   13.7272    8.9953 C   0  0  0  0  0  0  0  0  0  0  0  0
   18.7571   14.5990    7.9781 C   0  0  0  0  0  0  0  0  0  0  0  0
   20.2525   14.1278    9.8894 C   0  0  0  0  0  0  0  0  0  0  0  0
   21.7862   15.7712   10.5977 F   0  0  0  0  0  0  0  0  0  0  0  0
   21.1200   17.8260    8.6971 Cl  0  0  0  0  0  0  0  0  0  0  0  0
   13.3776   18.8565    6.5075 O   0  0  0  0  0  0  0  0  0  0  0  0
   12.9855   19.7697    4.3874 C   0  0  0  0  0  0  0  0  0  0  0  0
   12.3898   18.8470    5.4631 C   0  0  0  0  0  0  0  0  0  0  0  0
 19 18  1  0  0  0
 32 26  1  0  0  0
 31 27  1  0  0  0
 27 26  2  0  0  0
 27 30  1  0  0  0
 26 25  1  0  0  0
 18 20  1  0  0  0
 18 17  1  0  0  0
 30 28  2  0  0  0
 25 29  2  0  0  0
 28 29  1  0  0  0
 29 23  1  0  0  0
 16 17  1  0  0  0
 16 15  2  0  0  0
 12 11  2  0  0  0
 11 15  1  0  0  0
 11 13  1  0  0  0
 23  7  1  0  0  0
 13  9  1  0  0  0
  8  9  2  0  0  0
  8  1  1  0  0  0
  9  2  1  0  0  0
  7  1  2  0  0  0
  7  6  1  0  0  0
  1  3  1  0  0  0
 22 21  3  0  0  0
 21  6  1  0  0  0
  6  5  2  0  0  0
  2 33  1  0  0  0
  2 10  2  0  0  0
 33 35  1  0  0  0
  3 10  1  0  0  0
  3  4  2  0  0  0
  5  4  1  0  0  0
 35 34  1  0  0  0
 13 14  1  0  0  0
 23 24  1  0  0  0
M  END
> <minimizedAffinity>
-9.05264

$$$$
5VCW_93J_A_401


 35 37  0  0  0  0  0  0  0  0999 V2000
   16.9929   14.7247    7.0036 C   0  0  0  0  0  0  0  0  0  0  0  0
   14.4345   15.3304    5.9208 C   0  0  0  0  0  0  0  0  0  0  0  0
   15.8382   13.9774    7.3912 C   0  0  0  0  0  0  0  0  0  0  0  0
   15.9507   12.9618    8.2815 N   0  0  0  0  0  0  0  0  0  0  0  0
   17.1611   12.6506    8.8339 C   0  0  0  0  0  0  0  0  0  0  0  0
   18.3513   13.3543    8.4947 C   0  0  0  0  0  0  0  0  0  0  0  0
   18.2930   14.4318    7.5537 C   0  0  0  0  0  0  0  0  0  0  0  0
   16.8100   15.7626    6.0678 C   0  0  0  0  0  0  0  0  0  0  0  0
   15.5534   16.0878    5.5198 C   0  0  0  0  0  0  0  0  0  0  0  0
   14.5748   14.2770    6.8465 C   0  0  0  0  0  0  0  0  0  0  0  0
   16.0004   18.3317    4.5906 C   0  0  0  0  0  0  0  0  0  0  0  0
   17.1710   18.4778    5.0152 O   0  0  0  0  0  0  0  0  0  0  0  0
   15.3899   17.1073    4.6182 N   0  0  0  0  0  0  0  0  0  0  0  0
   14.7468   16.9355    3.8929 H   0  0  0  0  0  0  0  0  0  0  0  0
   15.3258   19.4278    4.0714 C   0  0  0  0  0  0  0  0  0  0  0  0
   15.9438   20.4825    3.5042 C   0  0  0  0  0  0  0  0  0  0  0  0
   15.2204   21.6271    2.9669 C   0  0  0  0  0  0  0  0  0  0  0  0
   14.6058   22.4982    4.0276 N   0  0  0  0  0  0  0  0  0  0  0  0
   13.1061   22.4961    4.0522 C   0  0  0  0  0  0  0  0  0  0  0  0
   15.1794   23.8785    4.0418 C   0  0  0  0  0  0  0  0  0  0  0  0
   19.4321   12.9315    9.1258 C   0  0  0  0  0  0  0  0  0  0  0  0
   20.3786   12.5694    9.6806 N   0  0  0  0  0  0  0  0  0  0  0  0
   19.4412   15.1485    7.1370 N   0  0  0  0  0  0  0  0  0  0  0  0
   19.9781   14.7817    6.3979 H   0  0  0  0  0  0  0  0  0  0  0  0
   19.8412   17.6198    7.0544 C   0  0  0  0  0  0  0  0  0  0  0  0
   20.3322   18.7968    7.6777 C   0  0  0  0  0  0  0  0  0  0  0  0
   20.8418   18.7296    8.9813 C   0  0  0  0  0  0  0  0  0  0  0  0
   20.3790   16.3263    9.0426 C   0  0  0  0  0  0  0  0  0  0  0  0
   19.8511   16.3513    7.7223 C   0  0  0  0  0  0  0  0  0  0  0  0
   20.8597   17.5002    9.6649 C   0  0  0  0  0  0  0  0  0  0  0  0
   21.2997   19.8127    9.5477 F   0  0  0  0  0  0  0  0  0  0  0  0
   20.3253   20.2994    6.8846 Cl  0  0  0  0  0  0  0  0  0  0  0  0
   13.2042   15.6194    5.4023 O   0  0  0  0  0  0  0  0  0  0  0  0
   11.4583   16.4738    6.7079 C   0  0  0  0  0  0  0  0  0  0  0  0
   12.0443   15.1766    6.1271 C   0  0  0  0  0  0  0  0  0  0  0  0
 19 18  1  0  0  0
 32 26  1  0  0  0
 31 27  1  0  0  0
 27 26  2  0  0  0
 27 30  1  0  0  0
 26 25  1  0  0  0
 18 20  1  0  0  0
 18 17  1  0  0  0
 30 28  2  0  0  0
 25 29  2  0  0  0
 28 29  1  0  0  0
 29 23  1  0  0  0
 16 17  1  0  0  0
 16 15  2  0  0  0
 12 11  2  0  0  0
 11 15  1  0  0  0
 11 13  1  0  0  0
 23  7  1  0  0  0
 13  9  1  0  0  0
  8  9  2  0  0  0
  8  1  1  0  0  0
  9  2  1  0  0  0
  7  1  2  0  0  0
  7  6  1  0  0  0
  1  3  1  0  0  0
 22 21  3  0  0  0
 21  6  1  0  0  0
  6  5  2  0  0  0
  2 33  1  0  0  0
  2 10  2  0  0  0
 33 35  1  0  0  0
  3 10  1  0  0  0
  3  4  2  0  0  0
  5  4  1  0  0  0
 35 34  1  0  0  0
 13 14  1  0  0  0
 23 24  1  0  0  0
M  END
> <minimizedAffinity>
-8.84549

$$$$
5VCW_93J_A_401


 35 37  0  0  0  0  0  0  0  0999 V2000
   17.6818   15.8057    6.9118 C   0  0  0  0  0  0  0  0  0  0  0  0
   15.4655   15.8023    5.1306 C   0  0  0  0  0  0  0  0  0  0  0  0
   16.9470   14.6064    6.6597 C   0  0  0  0  0  0  0  0  0  0  0  0
   17.3031   13.4484    7.2670 N   0  0  0  0  0  0  0  0  0  0  0  0
   18.3536   13.4141    8.1401 C   0  0  0  0  0  0  0  0  0  0  0  0
   19.1277   14.5710    8.4388 C   0  0  0  0  0  0  0  0  0  0  0  0
   18.8013   15.8204    7.8203 C   0  0  0  0  0  0  0  0  0  0  0  0
   17.2658   16.9744    6.2426 C   0  0  0  0  0  0  0  0  0  0  0  0
   16.1682   17.0023    5.3597 C   0  0  0  0  0  0  0  0  0  0  0  0
   15.8546   14.6088    5.7713 C   0  0  0  0  0  0  0  0  0  0  0  0
   14.7919   19.0349    5.0896 C   0  0  0  0  0  0  0  0  0  0  0  0
   14.5291   19.2421    6.2979 O   0  0  0  0  0  0  0  0  0  0  0  0
   15.7693   18.1495    4.7242 N   0  0  0  0  0  0  0  0  0  0  0  0
   16.2508   18.3656    3.8931 H   0  0  0  0  0  0  0  0  0  0  0  0
   14.0892   19.7286    4.1143 C   0  0  0  0  0  0  0  0  0  0  0  0
   13.7417   21.0256    4.2275 C   0  0  0  0  0  0  0  0  0  0  0  0
   13.0007   21.7381    3.1953 C   0  0  0  0  0  0  0  0  0  0  0  0
   13.6961   22.9794    2.7083 N   0  0  0  0  0  0  0  0  0  0  0  0
   13.0130   23.6777    1.5702 C   0  0  0  0  0  0  0  0  0  0  0  0
   15.1537   22.7613    2.4579 C   0  0  0  0  0  0  0  0  0  0  0  0
   20.1002   14.3655    9.3088 C   0  0  0  0  0  0  0  0  0  0  0  0
   20.9455   14.1868   10.0760 N   0  0  0  0  0  0  0  0  0  0  0  0
   19.5514   17.0019    8.0367 N   0  0  0  0  0  0  0  0  0  0  0  0
   19.4927   17.4379    8.9174 H   0  0  0  0  0  0  0  0  0  0  0  0
   20.6072   18.9896    6.9373 C   0  0  0  0  0  0  0  0  0  0  0  0
   21.3972   19.5251    5.8866 C   0  0  0  0  0  0  0  0  0  0  0  0
   21.9686   18.6632    4.9408 C   0  0  0  0  0  0  0  0  0  0  0  0
   20.9673   16.7419    6.0808 C   0  0  0  0  0  0  0  0  0  0  0  0
   20.3718   17.5809    7.0625 C   0  0  0  0  0  0  0  0  0  0  0  0
   21.7605   17.2756    5.0403 C   0  0  0  0  0  0  0  0  0  0  0  0
   22.6876   19.1605    3.9716 F   0  0  0  0  0  0  0  0  0  0  0  0
   21.6721   21.1948    5.7348 Cl  0  0  0  0  0  0  0  0  0  0  0  0
   14.4003   15.7978    4.2755 O   0  0  0  0  0  0  0  0  0  0  0  0
   12.1763   16.5166    4.1344 C   0  0  0  0  0  0  0  0  0  0  0  0
   13.1023   15.4950    4.8142 C   0  0  0  0  0  0  0  0  0  0  0  0
 19 18  1  0  0  0
 32 26  1  0  0  0
 31 27  1  0  0  0
 27 26  2  0  0  0
 27 30  1  0  0  0
 26 25  1  0  0  0
 18 20  1  0  0  0
 18 17  1  0  0  0
 30 28  2  0  0  0
 25 29  2  0  0  0
 28 29  1  0  0  0
 29 23  1  0  0  0
 16 17  1  0  0  0
 16 15  2  0  0  0
 12 11  2  0  0  0
 11 15  1  0  0  0
 11 13  1  0  0  0
 23  7  1  0  0  0
 13  9  1  0  0  0
  8  9  2  0  0  0
  8  1  1  0  0  0
  9  2  1  0  0  0
  7  1  2  0  0  0
  7  6  1  0  0  0
  1  3  1  0  0  0
 22 21  3  0  0  0
 21  6  1  0  0  0
  6  5  2  0  0  0
  2 33  1  0  0  0
  2 10  2  0  0  0
 33 35  1  0  0  0
  3 10  1  0  0  0
  3  4  2  0  0  0
  5  4  1  0  0  0
 35 34  1  0  0  0
 13 14  1  0  0  0
 23 24  1  0  0  0
M  END
> <minimizedAffinity>
-8.58301

$$$$
5VCW_93J_A_401


 35 37  0  0  0  0  0  0  0  0999 V2000
   15.7999   15.8238    6.9777 C   0  0  0  0  0  0  0  0  0  0  0  0
   13.7883   14.0913    7.9956 C   0  0  0  0  0  0  0  0  0  0  0  0
   14.4566   16.2810    7.1461 C   0  0  0  0  0  0  0  0  0  0  0  0
   14.1248   17.5551    6.8250 N   0  0  0  0  0  0  0  0  0  0  0  0
   15.0611   18.4125    6.3198 C   0  0  0  0  0  0  0  0  0  0  0  0
   16.4166   18.0234    6.1244 C   0  0  0  0  0  0  0  0  0  0  0  0
   16.8253   16.6913    6.4535 C   0  0  0  0  0  0  0  0  0  0  0  0
   16.0816   14.4907    7.3380 C   0  0  0  0  0  0  0  0  0  0  0  0
   15.1034   13.6092    7.8392 C   0  0  0  0  0  0  0  0  0  0  0  0
   13.4658   15.4209    7.6573 C   0  0  0  0  0  0  0  0  0  0  0  0
   16.2313   11.8461    9.1498 C   0  0  0  0  0  0  0  0  0  0  0  0
   16.4031   12.4876   10.2132 O   0  0  0  0  0  0  0  0  0  0  0  0
   15.3907   12.3118    8.1755 N   0  0  0  0  0  0  0  0  0  0  0  0
   14.9304   11.6221    7.6447 H   0  0  0  0  0  0  0  0  0  0  0  0
   16.8932   10.6394    8.9715 C   0  0  0  0  0  0  0  0  0  0  0  0
   17.4237    9.9244    9.9831 C   0  0  0  0  0  0  0  0  0  0  0  0
   18.1186    8.6606    9.7780 C   0  0  0  0  0  0  0  0  0  0  0  0
   17.7048    7.5863   10.7456 N   0  0  0  0  0  0  0  0  0  0  0  0
   18.3251    6.2434   10.4975 C   0  0  0  0  0  0  0  0  0  0  0  0
   16.2224    7.5115   10.9224 C   0  0  0  0  0  0  0  0  0  0  0  0
   17.1874   18.9704    5.6202 C   0  0  0  0  0  0  0  0  0  0  0  0
   17.8669   19.7974    5.1853 N   0  0  0  0  0  0  0  0  0  0  0  0
   18.1637   16.2466    6.3257 N   0  0  0  0  0  0  0  0  0  0  0  0
   18.4954   16.0150    5.4282 H   0  0  0  0  0  0  0  0  0  0  0  0
   19.2601   14.9006    8.1314 C   0  0  0  0  0  0  0  0  0  0  0  0
   20.1105   14.8476    9.2667 C   0  0  0  0  0  0  0  0  0  0  0  0
   20.7573   16.0116    9.7029 C   0  0  0  0  0  0  0  0  0  0  0  0
   19.7116   17.2779    7.8872 C   0  0  0  0  0  0  0  0  0  0  0  0
   19.0386   16.1195    7.4100 C   0  0  0  0  0  0  0  0  0  0  0  0
   20.5645   17.2220    9.0124 C   0  0  0  0  0  0  0  0  0  0  0  0
   21.5320   15.9602   10.7521 F   0  0  0  0  0  0  0  0  0  0  0  0
   20.3691   13.4042   10.1250 Cl  0  0  0  0  0  0  0  0  0  0  0  0
   12.8198   13.2610    8.4843 O   0  0  0  0  0  0  0  0  0  0  0  0
   11.6985   11.9524    6.8990 C   0  0  0  0  0  0  0  0  0  0  0  0
   11.5649   13.2014    7.7854 C   0  0  0  0  0  0  0  0  0  0  0  0
 19 18  1  0  0  0
 32 26  1  0  0  0
 31 27  1  0  0  0
 27 26  2  0  0  0
 27 30  1  0  0  0
 26 25  1  0  0  0
 18 20  1  0  0  0
 18 17  1  0  0  0
 30 28  2  0  0  0
 25 29  2  0  0  0
 28 29  1  0  0  0
 29 23  1  0  0  0
 16 17  1  0  0  0
 16 15  2  0  0  0
 12 11  2  0  0  0
 11 15  1  0  0  0
 11 13  1  0  0  0
 23  7  1  0  0  0
 13  9  1  0  0  0
  8  9  2  0  0  0
  8  1  1  0  0  0
  9  2  1  0  0  0
  7  1  2  0  0  0
  7  6  1  0  0  0
  1  3  1  0  0  0
 22 21  3  0  0  0
 21  6  1  0  0  0
  6  5  2  0  0  0
  2 33  1  0  0  0
  2 10  2  0  0  0
 33 35  1  0  0  0
  3 10  1  0  0  0
  3  4  2  0  0  0
  5  4  1  0  0  0
 35 34  1  0  0  0
 13 14  1  0  0  0
 23 24  1  0  0  0
M  END
> <minimizedAffinity>
-8.44916

$$$$
5VCW_93J_A_401


 35 37  0  0  0  0  0  0  0  0999 V2000
   15.6588   15.2957    6.3614 C   0  0  0  0  0  0  0  0  0  0  0  0
   13.7416   17.0585    5.2206 C   0  0  0  0  0  0  0  0  0  0  0  0
   14.2768   15.2006    6.7122 C   0  0  0  0  0  0  0  0  0  0  0  0
   13.8607   14.2602    7.5947 N   0  0  0  0  0  0  0  0  0  0  0  0
   14.7548   13.4047    8.1743 C   0  0  0  0  0  0  0  0  0  0  0  0
   16.1455   13.4445    7.8723 C   0  0  0  0  0  0  0  0  0  0  0  0
   16.6404   14.4130    6.9411 C   0  0  0  0  0  0  0  0  0  0  0  0
   16.0253   16.2896    5.4317 C   0  0  0  0  0  0  0  0  0  0  0  0
   15.0975   17.1796    4.8555 C   0  0  0  0  0  0  0  0  0  0  0  0
   13.3305   16.0715    6.1389 C   0  0  0  0  0  0  0  0  0  0  0  0
   15.9953   19.3875    4.2092 C   0  0  0  0  0  0  0  0  0  0  0  0
   16.7262   19.5893    5.2078 O   0  0  0  0  0  0  0  0  0  0  0  0
   15.4712   18.1482    3.9603 N   0  0  0  0  0  0  0  0  0  0  0  0
   15.3455   17.9217    3.0105 H   0  0  0  0  0  0  0  0  0  0  0  0
   15.7316   20.4360    3.3391 C   0  0  0  0  0  0  0  0  0  0  0  0
   14.8118   21.3908    3.5805 C   0  0  0  0  0  0  0  0  0  0  0  0
   14.5450   22.4831    2.6544 C   0  0  0  0  0  0  0  0  0  0  0  0
   13.1561   23.0465    2.7777 N   0  0  0  0  0  0  0  0  0  0  0  0
   12.2171   22.2281    3.6132 C   0  0  0  0  0  0  0  0  0  0  0  0
   12.5694   23.4246    1.4558 C   0  0  0  0  0  0  0  0  0  0  0  0
   16.8701   12.5544    8.5262 C   0  0  0  0  0  0  0  0  0  0  0  0
   17.5075   11.7819    9.1024 N   0  0  0  0  0  0  0  0  0  0  0  0
   18.0026   14.4843    6.5607 N   0  0  0  0  0  0  0  0  0  0  0  0
   18.3153   13.9011    5.8317 H   0  0  0  0  0  0  0  0  0  0  0  0
   19.4586   15.1532    8.4860 C   0  0  0  0  0  0  0  0  0  0  0  0
   20.3436   16.0930    9.0762 C   0  0  0  0  0  0  0  0  0  0  0  0
   20.7154   17.2390    8.3605 C   0  0  0  0  0  0  0  0  0  0  0  0
   19.3269   16.5182    6.4774 C   0  0  0  0  0  0  0  0  0  0  0  0
   18.9266   15.3413    7.1680 C   0  0  0  0  0  0  0  0  0  0  0  0
   20.2145   17.4488    7.0629 C   0  0  0  0  0  0  0  0  0  0  0  0
   21.5229   18.1047    8.9102 F   0  0  0  0  0  0  0  0  0  0  0  0
   20.9702   15.8730   10.6401 Cl  0  0  0  0  0  0  0  0  0  0  0  0
   12.8184   17.9042    4.6741 O   0  0  0  0  0  0  0  0  0  0  0  0
   10.5286   18.2348    4.3135 C   0  0  0  0  0  0  0  0  0  0  0  0
   11.6054   18.1454    5.4070 C   0  0  0  0  0  0  0  0  0  0  0  0
 19 18  1  0  0  0
 32 26  1  0  0  0
 31 27  1  0  0  0
 27 26  2  0  0  0
 27 30  1  0  0  0
 26 25  1  0  0  0
 18 20  1  0  0  0
 18 17  1  0  0  0
 30 28  2  0  0  0
 25 29  2  0  0  0
 28 29  1  0  0  0
 29 23  1  0  0  0
 16 17  1  0  0  0
 16 15  2  0  0  0
 12 11  2  0  0  0
 11 15  1  0  0  0
 11 13  1  0  0  0
 23  7  1  0  0  0
 13  9  1  0  0  0
  8  9  2  0  0  0
  8  1  1  0  0  0
  9  2  1  0  0  0
  7  1  2  0  0  0
  7  6  1  0  0  0
  1  3  1  0  0  0
 22 21  3  0  0  0
 21  6  1  0  0  0
  6  5  2  0  0  0
  2 33  1  0  0  0
  2 10  2  0  0  0
 33 35  1  0  0  0
  3 10  1  0  0  0
  3  4  2  0  0  0
  5  4  1  0  0  0
 35 34  1  0  0  0
 13 14  1  0  0  0
 23 24  1  0  0  0
M  END
> <minimizedAffinity>
-8.41510

$$$$
5VCW_93J_A_401


 35 37  0  0  0  0  0  0  0  0999 V2000
   13.7835   15.8585    6.5468 C   0  0  0  0  0  0  0  0  0  0  0  0
   13.7362   18.7014    6.5529 C   0  0  0  0  0  0  0  0  0  0  0  0
   12.5755   16.5701    6.8229 C   0  0  0  0  0  0  0  0  0  0  0  0
   11.4300   15.8938    7.0821 N   0  0  0  0  0  0  0  0  0  0  0  0
   11.4171   14.5275    7.1019 C   0  0  0  0  0  0  0  0  0  0  0  0
   12.5837   13.7555    6.8378 C   0  0  0  0  0  0  0  0  0  0  0  0
   13.8205   14.4172    6.5505 C   0  0  0  0  0  0  0  0  0  0  0  0
   14.9381   16.6204    6.2769 C   0  0  0  0  0  0  0  0  0  0  0  0
   14.9444   18.0293    6.2790 C   0  0  0  0  0  0  0  0  0  0  0  0
   12.5560   17.9780    6.8176 C   0  0  0  0  0  0  0  0  0  0  0  0
   16.7340   18.9323    4.8367 C   0  0  0  0  0  0  0  0  0  0  0  0
   16.1076   18.9445    3.7506 O   0  0  0  0  0  0  0  0  0  0  0  0
   16.0782   18.7565    6.0248 N   0  0  0  0  0  0  0  0  0  0  0  0
   16.4741   19.2139    6.8016 H   0  0  0  0  0  0  0  0  0  0  0  0
   18.1095   19.1167    4.8280 C   0  0  0  0  0  0  0  0  0  0  0  0
   18.9826   18.2335    5.3508 C   0  0  0  0  0  0  0  0  0  0  0  0
   20.4240   18.4442    5.3364 C   0  0  0  0  0  0  0  0  0  0  0  0
   20.9946   18.7710    6.6889 N   0  0  0  0  0  0  0  0  0  0  0  0
   20.2800   18.1342    7.8437 C   0  0  0  0  0  0  0  0  0  0  0  0
   21.2096   20.2375    6.8833 C   0  0  0  0  0  0  0  0  0  0  0  0
   12.3989   12.4493    6.9058 C   0  0  0  0  0  0  0  0  0  0  0  0
   12.2454   11.3057    6.9652 N   0  0  0  0  0  0  0  0  0  0  0  0
   15.0102   13.7159    6.2371 N   0  0  0  0  0  0  0  0  0  0  0  0
   15.1568   13.4381    5.3040 H   0  0  0  0  0  0  0  0  0  0  0  0
   17.2145   14.1198    7.3561 C   0  0  0  0  0  0  0  0  0  0  0  0
   18.1999   13.7098    8.2918 C   0  0  0  0  0  0  0  0  0  0  0  0
   17.9784   12.5704    9.0770 C   0  0  0  0  0  0  0  0  0  0  0  0
   15.8038   12.2462    8.0001 C   0  0  0  0  0  0  0  0  0  0  0  0
   15.9877   13.3977    7.1860 C   0  0  0  0  0  0  0  0  0  0  0  0
   16.7819   11.8440    8.9371 C   0  0  0  0  0  0  0  0  0  0  0  0
   18.8907   12.1922    9.9304 F   0  0  0  0  0  0  0  0  0  0  0  0
   19.6561   14.5623    8.4900 Cl  0  0  0  0  0  0  0  0  0  0  0  0
   13.7106   20.0672    6.5566 O   0  0  0  0  0  0  0  0  0  0  0  0
   12.4345   22.0244    6.4025 C   0  0  0  0  0  0  0  0  0  0  0  0
   12.8013   20.7287    5.6609 C   0  0  0  0  0  0  0  0  0  0  0  0
 19 18  1  0  0  0
 32 26  1  0  0  0
 31 27  1  0  0  0
 27 26  2  0  0  0
 27 30  1  0  0  0
 26 25  1  0  0  0
 18 20  1  0  0  0
 18 17  1  0  0  0
 30 28  2  0  0  0
 25 29  2  0  0  0
 28 29  1  0  0  0
 29 23  1  0  0  0
 16 17  1  0  0  0
 16 15  2  0  0  0
 12 11  2  0  0  0
 11 15  1  0  0  0
 11 13  1  0  0  0
 23  7  1  0  0  0
 13  9  1  0  0  0
  8  9  2  0  0  0
  8  1  1  0  0  0
  9  2  1  0  0  0
  7  1  2  0  0  0
  7  6  1  0  0  0
  1  3  1  0  0  0
 22 21  3  0  0  0
 21  6  1  0  0  0
  6  5  2  0  0  0
  2 33  1  0  0  0
  2 10  2  0  0  0
 33 35  1  0  0  0
  3 10  1  0  0  0
  3  4  2  0  0  0
  5  4  1  0  0  0
 35 34  1  0  0  0
 13 14  1  0  0  0
 23 24  1  0  0  0
M  END
> <minimizedAffinity>
-8.30195

$$$$
5VCW_93J_A_401


 35 37  0  0  0  0  0  0  0  0999 V2000
   17.1904   17.5385    6.0984 C   0  0  0  0  0  0  0  0  0  0  0  0
   14.3897   17.5155    6.5881 C   0  0  0  0  0  0  0  0  0  0  0  0
   16.3775   18.6618    5.7529 C   0  0  0  0  0  0  0  0  0  0  0  0
   16.9364   19.7598    5.1885 N   0  0  0  0  0  0  0  0  0  0  0  0
   18.2765   19.8020    4.9251 C   0  0  0  0  0  0  0  0  0  0  0  0
   19.1446   18.7188    5.2413 C   0  0  0  0  0  0  0  0  0  0  0  0
   18.6099   17.5362    5.8457 C   0  0  0  0  0  0  0  0  0  0  0  0
   16.5496   16.4312    6.6898 C   0  0  0  0  0  0  0  0  0  0  0  0
   15.1634   16.3908    6.9384 C   0  0  0  0  0  0  0  0  0  0  0  0
   14.9921   18.6479    6.0041 C   0  0  0  0  0  0  0  0  0  0  0  0
   14.1830   14.1243    6.9143 C   0  0  0  0  0  0  0  0  0  0  0  0
   14.8396   13.6491    5.9578 O   0  0  0  0  0  0  0  0  0  0  0  0
   14.5530   15.3020    7.5050 N   0  0  0  0  0  0  0  0  0  0  0  0
   14.3540   15.3774    8.4662 H   0  0  0  0  0  0  0  0  0  0  0  0
   13.0762   13.4330    7.3866 C   0  0  0  0  0  0  0  0  0  0  0  0
   12.2107   12.7780    6.5880 C   0  0  0  0  0  0  0  0  0  0  0  0
   11.0514   12.0598    7.1001 C   0  0  0  0  0  0  0  0  0  0  0  0
    9.9225   12.9631    7.5138 N   0  0  0  0  0  0  0  0  0  0  0  0
    8.8004   12.2777    8.2353 C   0  0  0  0  0  0  0  0  0  0  0  0
    9.4421   13.8320    6.3962 C   0  0  0  0  0  0  0  0  0  0  0  0
   20.4081   18.9203    4.9128 C   0  0  0  0  0  0  0  0  0  0  0  0
   21.5154   19.0962    4.6334 N   0  0  0  0  0  0  0  0  0  0  0  0
   19.4181   16.4373    6.2261 N   0  0  0  0  0  0  0  0  0  0  0  0
   19.6895   15.7944    5.5316 H   0  0  0  0  0  0  0  0  0  0  0  0
   19.6877   14.9837    8.2482 C   0  0  0  0  0  0  0  0  0  0  0  0
   20.0871   14.8414    9.6028 C   0  0  0  0  0  0  0  0  0  0  0  0
   20.6584   15.9304   10.2748 C   0  0  0  0  0  0  0  0  0  0  0  0
   20.4316   17.2992    8.2578 C   0  0  0  0  0  0  0  0  0  0  0  0
   19.8505   16.2187    7.5386 C   0  0  0  0  0  0  0  0  0  0  0  0
   20.8365   17.1538    9.6037 C   0  0  0  0  0  0  0  0  0  0  0  0
   21.0169   15.7976   11.5228 F   0  0  0  0  0  0  0  0  0  0  0  0
   19.8895   13.3795   10.4457 Cl  0  0  0  0  0  0  0  0  0  0  0  0
   13.0439   17.5071    6.8221 O   0  0  0  0  0  0  0  0  0  0  0  0
   10.7598   17.6445    6.3251 C   0  0  0  0  0  0  0  0  0  0  0  0
   12.1608   17.6143    5.6928 C   0  0  0  0  0  0  0  0  0  0  0  0
 19 18  1  0  0  0
 32 26  1  0  0  0
 31 27  1  0  0  0
 27 26  2  0  0  0
 27 30  1  0  0  0
 26 25  1  0  0  0
 18 20  1  0  0  0
 18 17  1  0  0  0
 30 28  2  0  0  0
 25 29  2  0  0  0
 28 29  1  0  0  0
 29 23  1  0  0  0
 16 17  1  0  0  0
 16 15  2  0  0  0
 12 11  2  0  0  0
 11 15  1  0  0  0
 11 13  1  0  0  0
 23  7  1  0  0  0
 13  9  1  0  0  0
  8  9  2  0  0  0
  8  1  1  0  0  0
  9  2  1  0  0  0
  7  1  2  0  0  0
  7  6  1  0  0  0
  1  3  1  0  0  0
 22 21  3  0  0  0
 21  6  1  0  0  0
  6  5  2  0  0  0
  2 33  1  0  0  0
  2 10  2  0  0  0
 33 35  1  0  0  0
  3 10  1  0  0  0
  3  4  2  0  0  0
  5  4  1  0  0  0
 35 34  1  0  0  0
 13 14  1  0  0  0
 23 24  1  0  0  0
M  END
> <minimizedAffinity>
-7.99547

$$$$
5VCW_93J_A_401


 35 37  0  0  0  0  0  0  0  0999 V2000
   17.1124   17.2003    5.6352 C   0  0  0  0  0  0  0  0  0  0  0  0
   18.7910   15.7037    7.3750 C   0  0  0  0  0  0  0  0  0  0  0  0
   18.3095   17.7708    6.1675 C   0  0  0  0  0  0  0  0  0  0  0  0
   18.6633   19.0383    5.8434 N   0  0  0  0  0  0  0  0  0  0  0  0
   17.8746   19.7931    5.0215 C   0  0  0  0  0  0  0  0  0  0  0  0
   16.6685   19.2891    4.4576 C   0  0  0  0  0  0  0  0  0  0  0  0
   16.2495   17.9537    4.7597 C   0  0  0  0  0  0  0  0  0  0  0  0
   16.8053   15.8752    6.0042 C   0  0  0  0  0  0  0  0  0  0  0  0
   17.6158   15.1130    6.8687 C   0  0  0  0  0  0  0  0  0  0  0  0
   19.1409   17.0228    7.0230 C   0  0  0  0  0  0  0  0  0  0  0  0
   16.2532   13.3867    7.9919 C   0  0  0  0  0  0  0  0  0  0  0  0
   15.1538   13.9894    7.9908 O   0  0  0  0  0  0  0  0  0  0  0  0
   17.2982   13.8285    7.2267 N   0  0  0  0  0  0  0  0  0  0  0  0
   17.9032   13.1298    6.8877 H   0  0  0  0  0  0  0  0  0  0  0  0
   16.4006   12.2468    8.7696 C   0  0  0  0  0  0  0  0  0  0  0  0
   17.5946   11.7691    9.1722 C   0  0  0  0  0  0  0  0  0  0  0  0
   17.7318   10.5686    9.9859 C   0  0  0  0  0  0  0  0  0  0  0  0
   17.7079    9.2964    9.1842 N   0  0  0  0  0  0  0  0  0  0  0  0
   16.3875    8.5852    9.1719 C   0  0  0  0  0  0  0  0  0  0  0  0
   18.8479    8.3874    9.5141 C   0  0  0  0  0  0  0  0  0  0  0  0
   16.0230   20.1517    3.6932 C   0  0  0  0  0  0  0  0  0  0  0  0
   15.4620   20.9124    3.0288 N   0  0  0  0  0  0  0  0  0  0  0  0
   15.0851   17.3712    4.2026 N   0  0  0  0  0  0  0  0  0  0  0  0
   15.1516   16.9521    3.3142 H   0  0  0  0  0  0  0  0  0  0  0  0
   13.1329   18.5391    5.2510 C   0  0  0  0  0  0  0  0  0  0  0  0
   11.9085   18.4658    5.9653 C   0  0  0  0  0  0  0  0  0  0  0  0
   11.3710   17.2136    6.2924 C   0  0  0  0  0  0  0  0  0  0  0  0
   13.2668   16.1111    5.2043 C   0  0  0  0  0  0  0  0  0  0  0  0
   13.8451   17.3611    4.8503 C   0  0  0  0  0  0  0  0  0  0  0  0
   12.0436   16.0394    5.9081 C   0  0  0  0  0  0  0  0  0  0  0  0
   10.2490   17.1508    6.9564 F   0  0  0  0  0  0  0  0  0  0  0  0
   11.0667   19.8616    6.4449 Cl  0  0  0  0  0  0  0  0  0  0  0  0
   19.5992   14.9870    8.2113 O   0  0  0  0  0  0  0  0  0  0  0  0
   20.5332   14.9091   10.3570 C   0  0  0  0  0  0  0  0  0  0  0  0
   20.5203   15.7103    9.0450 C   0  0  0  0  0  0  0  0  0  0  0  0
 19 18  1  0  0  0
 32 26  1  0  0  0
 31 27  1  0  0  0
 27 26  2  0  0  0
 27 30  1  0  0  0
 26 25  1  0  0  0
 18 20  1  0  0  0
 18 17  1  0  0  0
 30 28  2  0  0  0
 25 29  2  0  0  0
 28 29  1  0  0  0
 29 23  1  0  0  0
 16 17  1  0  0  0
 16 15  2  0  0  0
 12 11  2  0  0  0
 11 15  1  0  0  0
 11 13  1  0  0  0
 23  7  1  0  0  0
 13  9  1  0  0  0
  8  9  2  0  0  0
  8  1  1  0  0  0
  9  2  1  0  0  0
  7  1  2  0  0  0
  7  6  1  0  0  0
  1  3  1  0  0  0
 22 21  3  0  0  0
 21  6  1  0  0  0
  6  5  2  0  0  0
  2 33  1  0  0  0
  2 10  2  0  0  0
 33 35  1  0  0  0
  3 10  1  0  0  0
  3  4  2  0  0  0
  5  4  1  0  0  0
 35 34  1  0  0  0
 13 14  1  0  0  0
 23 24  1  0  0  0
M  END
> <minimizedAffinity>
-7.91452

$$$$
