6CKS_F5Y_A_201


 31 34  0  0  0  0  0  0  0  0999 V2000
   14.8856   11.0482    6.8019 C   0  0  0  0  0  0  0  0  0  0  0  0
   15.3969   12.2458    6.2655 C   0  0  0  0  0  0  0  0  0  0  0  0
   16.4866   12.2362    5.3822 C   0  0  0  0  0  0  0  0  0  0  0  0
   13.7969   11.1620    7.6468 C   0  0  0  0  0  0  0  0  0  0  0  0
   13.2195   12.4240    7.9291 N   0  0  0  0  0  0  0  0  0  0  0  0
   12.0435   12.3946    8.8581 C   0  0  0  0  0  0  0  0  0  0  0  0
   13.6974   13.5962    7.4507 C   0  0  0  0  0  0  0  0  0  0  0  0
   13.1180   14.6695    7.7511 O   0  0  0  0  0  0  0  0  0  0  0  0
   14.8017   13.5146    6.6158 C   0  0  0  0  0  0  0  0  0  0  0  0
   15.3528   14.6869    6.0306 C   0  0  0  0  0  0  0  0  0  0  0  0
   16.4377   14.6399    5.1650 C   0  0  0  0  0  0  0  0  0  0  0  0
   17.0469   13.4234    4.7900 C   0  0  0  0  0  0  0  0  0  0  0  0
   16.6389    7.8019    7.2992 C   0  0  0  0  0  0  0  0  0  0  0  0
   16.1238    9.0490    7.4948 C   0  0  0  0  0  0  0  0  0  0  0  0
   16.4937    7.1507    6.0791 C   0  0  0  0  0  0  0  0  0  0  0  0
   15.7376    7.8219    5.0939 C   0  0  0  0  0  0  0  0  0  0  0  0
   15.1804    9.1137    5.2968 C   0  0  0  0  0  0  0  0  0  0  0  0
   15.4174    9.7593    6.5096 C   0  0  0  0  0  0  0  0  0  0  0  0
   17.5595    7.0797    8.5581 S   0  0  0  0  0  0  0  0  0  0  0  0
   18.3198    8.2297    9.1942 O   0  0  0  0  0  0  0  0  0  0  0  0
   16.6960    6.4243    9.5615 O   0  0  0  0  0  0  0  0  0  0  0  0
   18.7179    4.6720    8.8966 C   0  0  0  0  0  0  0  0  0  0  0  0
   18.4438    5.6950    7.7572 C   0  0  0  0  0  0  0  0  0  0  0  0
   14.4410    9.8232    4.3495 O   0  0  0  0  0  0  0  0  0  0  0  0
   14.2999    9.2133    3.0286 C   0  0  0  0  0  0  0  0  0  0  0  0
   18.1467   13.3802    3.9818 C   0  0  0  0  0  0  0  0  0  0  0  0
   19.0362   12.3338    3.8626 C   0  0  0  0  0  0  0  0  0  0  0  0
   18.5231   14.3090    3.0587 C   0  0  0  0  0  0  0  0  0  0  0  0
   19.6033   13.8341    2.3765 N   0  0  0  0  0  0  0  0  0  0  0  0
   19.9186   12.6287    2.8917 N   0  0  0  0  0  0  0  0  0  0  0  0
   21.0763   11.7688    2.4327 C   0  0  0  0  0  0  0  0  0  0  0  0
 31 30  1  0  0  0
 30 29  1  0  0  0
 30 27  1  0  0  0
 29 28  2  0  0  0
 25 24  1  0  0  0
 27 26  2  0  0  0
 28 26  1  0  0  0
 26 12  1  0  0  0
 24 17  1  0  0  0
 12 11  2  0  0  0
 12  3  1  0  0  0
 11 10  1  0  0  0
 16 17  2  0  0  0
 16 15  1  0  0  0
  3  2  2  0  0  0
 17 18  1  0  0  0
 10  9  2  0  0  0
 15 13  2  0  0  0
  2  9  1  0  0  0
  2  1  1  0  0  0
 18  1  1  0  0  0
 18 14  2  0  0  0
  9  7  1  0  0  0
  1  4  2  0  0  0
 13 14  1  0  0  0
 13 19  1  0  0  0
  7  8  2  0  0  0
  7  5  1  0  0  0
  4  5  1  0  0  0
 20 19  2  0  0  0
  5  6  1  0  0  0
 19 23  1  0  0  0
 19 21  2  0  0  0
 23 22  1  0  0  0
M  END
> <minimizedAffinity>
-9.38080

$$$$
6CKS_F5Y_A_201


 31 34  0  0  0  0  0  0  0  0999 V2000
   16.6400   11.1287    4.8236 C   0  0  0  0  0  0  0  0  0  0  0  0
   16.0653   12.2328    5.4825 C   0  0  0  0  0  0  0  0  0  0  0  0
   15.1268   12.0546    6.5099 C   0  0  0  0  0  0  0  0  0  0  0  0
   17.5698   11.4088    3.8393 C   0  0  0  0  0  0  0  0  0  0  0  0
   17.9352   12.7434    3.5376 N   0  0  0  0  0  0  0  0  0  0  0  0
   18.9566   12.8956    2.4510 C   0  0  0  0  0  0  0  0  0  0  0  0
   17.3881   13.8284    4.1332 C   0  0  0  0  0  0  0  0  0  0  0  0
   17.7767   14.9768    3.8044 O   0  0  0  0  0  0  0  0  0  0  0  0
   16.4374   13.5783    5.1113 C   0  0  0  0  0  0  0  0  0  0  0  0
   15.8341   14.6508    5.8229 C   0  0  0  0  0  0  0  0  0  0  0  0
   14.9025   14.4367    6.8303 C   0  0  0  0  0  0  0  0  0  0  0  0
   14.5137   13.1404    7.2304 C   0  0  0  0  0  0  0  0  0  0  0  0
   16.3055    7.9773    6.7773 C   0  0  0  0  0  0  0  0  0  0  0  0
   16.6020    9.2544    6.4035 C   0  0  0  0  0  0  0  0  0  0  0  0
   15.7006    7.0939    5.8899 C   0  0  0  0  0  0  0  0  0  0  0  0
   15.3599    7.6111    4.6214 C   0  0  0  0  0  0  0  0  0  0  0  0
   15.6478    8.9472    4.2309 C   0  0  0  0  0  0  0  0  0  0  0  0
   16.3241    9.7731    5.1276 C   0  0  0  0  0  0  0  0  0  0  0  0
   16.7794    7.4409    8.3398 S   0  0  0  0  0  0  0  0  0  0  0  0
   17.3757    8.6666    9.0086 O   0  0  0  0  0  0  0  0  0  0  0  0
   15.6283    6.9447    9.1213 O   0  0  0  0  0  0  0  0  0  0  0  0
   19.0403    6.4524    7.2602 C   0  0  0  0  0  0  0  0  0  0  0  0
   17.7900    5.9483    8.0366 C   0  0  0  0  0  0  0  0  0  0  0  0
   15.3460    9.4986    2.9849 O   0  0  0  0  0  0  0  0  0  0  0  0
   13.9496    9.4403    2.5566 C   0  0  0  0  0  0  0  0  0  0  0  0
   13.5586   12.9298    8.1833 C   0  0  0  0  0  0  0  0  0  0  0  0
   13.0810   13.8571    9.0846 C   0  0  0  0  0  0  0  0  0  0  0  0
   12.8139   11.8030    8.3631 C   0  0  0  0  0  0  0  0  0  0  0  0
   11.8890   12.0412    9.3356 N   0  0  0  0  0  0  0  0  0  0  0  0
   12.0754   13.2996    9.7821 N   0  0  0  0  0  0  0  0  0  0  0  0
   11.2703   13.9537   10.8840 C   0  0  0  0  0  0  0  0  0  0  0  0
 31 30  1  0  0  0
 30 29  1  0  0  0
 30 27  1  0  0  0
 29 28  2  0  0  0
 25 24  1  0  0  0
 27 26  2  0  0  0
 28 26  1  0  0  0
 26 12  1  0  0  0
 24 17  1  0  0  0
 12 11  2  0  0  0
 12  3  1  0  0  0
 11 10  1  0  0  0
 16 17  2  0  0  0
 16 15  1  0  0  0
  3  2  2  0  0  0
 17 18  1  0  0  0
 10  9  2  0  0  0
 15 13  2  0  0  0
  2  9  1  0  0  0
  2  1  1  0  0  0
 18  1  1  0  0  0
 18 14  2  0  0  0
  9  7  1  0  0  0
  1  4  2  0  0  0
 13 14  1  0  0  0
 13 19  1  0  0  0
  7  8  2  0  0  0
  7  5  1  0  0  0
  4  5  1  0  0  0
 20 19  2  0  0  0
  5  6  1  0  0  0
 19 23  1  0  0  0
 19 21  2  0  0  0
 23 22  1  0  0  0
M  END
> <minimizedAffinity>
-9.17104

$$$$
6CKS_F5Y_A_201


 31 34  0  0  0  0  0  0  0  0999 V2000
   15.0989   11.2307    4.7916 C   0  0  0  0  0  0  0  0  0  0  0  0
   15.4762    9.8834    4.9520 C   0  0  0  0  0  0  0  0  0  0  0  0
   15.9109    9.3963    6.1937 C   0  0  0  0  0  0  0  0  0  0  0  0
   14.6654   11.6080    3.5339 C   0  0  0  0  0  0  0  0  0  0  0  0
   14.5856   10.6695    2.4763 N   0  0  0  0  0  0  0  0  0  0  0  0
   14.0958   11.2191    1.1706 C   0  0  0  0  0  0  0  0  0  0  0  0
   14.9607    9.3740    2.5874 C   0  0  0  0  0  0  0  0  0  0  0  0
   14.8515    8.6108    1.5957 O   0  0  0  0  0  0  0  0  0  0  0  0
   15.4188    8.9717    3.8330 C   0  0  0  0  0  0  0  0  0  0  0  0
   15.7982    7.6210    4.0611 C   0  0  0  0  0  0  0  0  0  0  0  0
   16.2309    7.1754    5.3032 C   0  0  0  0  0  0  0  0  0  0  0  0
   16.2973    8.0285    6.4255 C   0  0  0  0  0  0  0  0  0  0  0  0
   14.0349   13.1476    7.8005 C   0  0  0  0  0  0  0  0  0  0  0  0
   14.0651   12.2732    6.7549 C   0  0  0  0  0  0  0  0  0  0  0  0
   15.0831   14.0341    8.0227 C   0  0  0  0  0  0  0  0  0  0  0  0
   16.1898   13.9305    7.1525 C   0  0  0  0  0  0  0  0  0  0  0  0
   16.2374   13.0080    6.0721 C   0  0  0  0  0  0  0  0  0  0  0  0
   15.1304   12.1921    5.8425 C   0  0  0  0  0  0  0  0  0  0  0  0
   12.6315   13.2060    8.7907 S   0  0  0  0  0  0  0  0  0  0  0  0
   12.8219   14.4327    9.6649 O   0  0  0  0  0  0  0  0  0  0  0  0
   11.3992   13.3407    7.9873 O   0  0  0  0  0  0  0  0  0  0  0  0
   11.7495   11.7380   10.8694 C   0  0  0  0  0  0  0  0  0  0  0  0
   12.5057   11.5369    9.5249 C   0  0  0  0  0  0  0  0  0  0  0  0
   17.3001   12.8797    5.1767 O   0  0  0  0  0  0  0  0  0  0  0  0
   17.4626   13.9425    4.1864 C   0  0  0  0  0  0  0  0  0  0  0  0
   16.7733    7.6048    7.6333 C   0  0  0  0  0  0  0  0  0  0  0  0
   17.0820    6.3077    7.9838 C   0  0  0  0  0  0  0  0  0  0  0  0
   17.1388    8.3837    8.6898 C   0  0  0  0  0  0  0  0  0  0  0  0
   17.6777    7.5860    9.6548 N   0  0  0  0  0  0  0  0  0  0  0  0
   17.6206    6.3125    9.2159 N   0  0  0  0  0  0  0  0  0  0  0  0
   18.0946    5.1069    9.9983 C   0  0  0  0  0  0  0  0  0  0  0  0
 31 30  1  0  0  0
 30 29  1  0  0  0
 30 27  1  0  0  0
 29 28  2  0  0  0
 25 24  1  0  0  0
 27 26  2  0  0  0
 28 26  1  0  0  0
 26 12  1  0  0  0
 24 17  1  0  0  0
 12 11  2  0  0  0
 12  3  1  0  0  0
 11 10  1  0  0  0
 16 17  2  0  0  0
 16 15  1  0  0  0
  3  2  2  0  0  0
 17 18  1  0  0  0
 10  9  2  0  0  0
 15 13  2  0  0  0
  2  9  1  0  0  0
  2  1  1  0  0  0
 18  1  1  0  0  0
 18 14  2  0  0  0
  9  7  1  0  0  0
  1  4  2  0  0  0
 13 14  1  0  0  0
 13 19  1  0  0  0
  7  8  2  0  0  0
  7  5  1  0  0  0
  4  5  1  0  0  0
 20 19  2  0  0  0
  5  6  1  0  0  0
 19 23  1  0  0  0
 19 21  2  0  0  0
 23 22  1  0  0  0
M  END
> <minimizedAffinity>
-9.05838

$$$$
6CKS_F5Y_A_201


 31 34  0  0  0  0  0  0  0  0999 V2000
   15.5426   10.3660    7.1132 C   0  0  0  0  0  0  0  0  0  0  0  0
   15.3650    9.7006    5.8848 C   0  0  0  0  0  0  0  0  0  0  0  0
   14.7951   10.3552    4.7827 C   0  0  0  0  0  0  0  0  0  0  0  0
   16.1320    9.6404    8.1322 C   0  0  0  0  0  0  0  0  0  0  0  0
   16.5543    8.3042    7.9282 N   0  0  0  0  0  0  0  0  0  0  0  0
   17.1791    7.6432    9.1197 C   0  0  0  0  0  0  0  0  0  0  0  0
   16.3794    7.6261    6.7702 C   0  0  0  0  0  0  0  0  0  0  0  0
   16.7898    6.4425    6.6780 O   0  0  0  0  0  0  0  0  0  0  0  0
   15.7725    8.3227    5.7360 C   0  0  0  0  0  0  0  0  0  0  0  0
   15.5809    7.7103    4.4677 C   0  0  0  0  0  0  0  0  0  0  0  0
   15.0062    8.3875    3.4002 C   0  0  0  0  0  0  0  0  0  0  0  0
   14.5990    9.7353    3.4977 C   0  0  0  0  0  0  0  0  0  0  0  0
   13.6403   13.2838    8.4277 C   0  0  0  0  0  0  0  0  0  0  0  0
   14.0480   12.0145    8.1422 C   0  0  0  0  0  0  0  0  0  0  0  0
   14.3232   14.3853    7.9236 C   0  0  0  0  0  0  0  0  0  0  0  0
   15.4820   14.1139    7.1646 C   0  0  0  0  0  0  0  0  0  0  0  0
   15.9249   12.7937    6.8790 C   0  0  0  0  0  0  0  0  0  0  0  0
   15.1647   11.7205    7.3417 C   0  0  0  0  0  0  0  0  0  0  0  0
   12.2049   13.5053    9.3464 S   0  0  0  0  0  0  0  0  0  0  0  0
   12.2476   14.9559    9.7927 O   0  0  0  0  0  0  0  0  0  0  0  0
   10.9934   13.2575    8.5384 O   0  0  0  0  0  0  0  0  0  0  0  0
   11.0726   12.4847   11.5669 C   0  0  0  0  0  0  0  0  0  0  0  0
   12.2142   12.1442   10.5664 C   0  0  0  0  0  0  0  0  0  0  0  0
   17.0525   12.4751    6.1211 O   0  0  0  0  0  0  0  0  0  0  0  0
   17.1583   13.0935    4.8008 C   0  0  0  0  0  0  0  0  0  0  0  0
   13.9850   10.3854    2.4657 C   0  0  0  0  0  0  0  0  0  0  0  0
   14.3822   11.5753    1.8939 C   0  0  0  0  0  0  0  0  0  0  0  0
   12.9296    9.9402    1.7279 C   0  0  0  0  0  0  0  0  0  0  0  0
   12.6996   10.8245    0.7164 N   0  0  0  0  0  0  0  0  0  0  0  0
   13.5868   11.8320    0.8404 N   0  0  0  0  0  0  0  0  0  0  0  0
   13.6572   13.0385   -0.0706 C   0  0  0  0  0  0  0  0  0  0  0  0
 31 30  1  0  0  0
 30 29  1  0  0  0
 30 27  1  0  0  0
 29 28  2  0  0  0
 25 24  1  0  0  0
 27 26  2  0  0  0
 28 26  1  0  0  0
 26 12  1  0  0  0
 24 17  1  0  0  0
 12 11  2  0  0  0
 12  3  1  0  0  0
 11 10  1  0  0  0
 16 17  2  0  0  0
 16 15  1  0  0  0
  3  2  2  0  0  0
 17 18  1  0  0  0
 10  9  2  0  0  0
 15 13  2  0  0  0
  2  9  1  0  0  0
  2  1  1  0  0  0
 18  1  1  0  0  0
 18 14  2  0  0  0
  9  7  1  0  0  0
  1  4  2  0  0  0
 13 14  1  0  0  0
 13 19  1  0  0  0
  7  8  2  0  0  0
  7  5  1  0  0  0
  4  5  1  0  0  0
 20 19  2  0  0  0
  5  6  1  0  0  0
 19 23  1  0  0  0
 19 21  2  0  0  0
 23 22  1  0  0  0
M  END
> <minimizedAffinity>
-9.00222

$$$$
6CKS_F5Y_A_201


 31 34  0  0  0  0  0  0  0  0999 V2000
   14.7386   11.0171    6.8159 C   0  0  0  0  0  0  0  0  0  0  0  0
   15.2802   12.2427    6.3828 C   0  0  0  0  0  0  0  0  0  0  0  0
   16.3326   12.2820    5.4560 C   0  0  0  0  0  0  0  0  0  0  0  0
   13.6903   11.0853    7.7150 C   0  0  0  0  0  0  0  0  0  0  0  0
   13.1804   12.3329    8.1499 N   0  0  0  0  0  0  0  0  0  0  0  0
   12.0420   12.2535    9.1219 C   0  0  0  0  0  0  0  0  0  0  0  0
   13.6899   13.5286    7.7734 C   0  0  0  0  0  0  0  0  0  0  0  0
   13.1705   14.5869    8.2072 O   0  0  0  0  0  0  0  0  0  0  0  0
   14.7556   13.4907    6.8868 C   0  0  0  0  0  0  0  0  0  0  0  0
   15.3339   14.6949    6.4009 C   0  0  0  0  0  0  0  0  0  0  0  0
   16.3805   14.6954    5.4882 C   0  0  0  0  0  0  0  0  0  0  0  0
   16.9204   13.5013    4.9643 C   0  0  0  0  0  0  0  0  0  0  0  0
   15.5592    8.2161    4.5047 C   0  0  0  0  0  0  0  0  0  0  0  0
   15.1143    9.4014    5.0107 C   0  0  0  0  0  0  0  0  0  0  0  0
   16.1336    7.2559    5.3305 C   0  0  0  0  0  0  0  0  0  0  0  0
   16.2838    7.6039    6.6902 C   0  0  0  0  0  0  0  0  0  0  0  0
   15.8405    8.8455    7.2218 C   0  0  0  0  0  0  0  0  0  0  0  0
   15.2014    9.7455    6.3701 C   0  0  0  0  0  0  0  0  0  0  0  0
   15.3119    7.8830    2.8369 S   0  0  0  0  0  0  0  0  0  0  0  0
   16.6472    7.3560    2.3424 O   0  0  0  0  0  0  0  0  0  0  0  0
   14.2575    6.8691    2.6312 O   0  0  0  0  0  0  0  0  0  0  0  0
   13.0778    9.1186    1.9791 C   0  0  0  0  0  0  0  0  0  0  0  0
   14.5942    9.4187    2.1533 C   0  0  0  0  0  0  0  0  0  0  0  0
   15.9518    9.2279    8.5593 O   0  0  0  0  0  0  0  0  0  0  0  0
   16.0459    8.1555    9.5481 C   0  0  0  0  0  0  0  0  0  0  0  0
   17.9844   13.4990    4.1084 C   0  0  0  0  0  0  0  0  0  0  0  0
   18.8667   12.4605    3.8996 C   0  0  0  0  0  0  0  0  0  0  0  0
   18.3219   14.4725    3.2169 C   0  0  0  0  0  0  0  0  0  0  0  0
   19.3712   14.0327    2.4661 N   0  0  0  0  0  0  0  0  0  0  0  0
   19.7068   12.8037    2.9072 N   0  0  0  0  0  0  0  0  0  0  0  0
   20.8426   11.9685    2.3570 C   0  0  0  0  0  0  0  0  0  0  0  0
 31 30  1  0  0  0
 30 29  1  0  0  0
 30 27  1  0  0  0
 29 28  2  0  0  0
 25 24  1  0  0  0
 27 26  2  0  0  0
 28 26  1  0  0  0
 26 12  1  0  0  0
 24 17  1  0  0  0
 12 11  2  0  0  0
 12  3  1  0  0  0
 11 10  1  0  0  0
 16 17  2  0  0  0
 16 15  1  0  0  0
  3  2  2  0  0  0
 17 18  1  0  0  0
 10  9  2  0  0  0
 15 13  2  0  0  0
  2  9  1  0  0  0
  2  1  1  0  0  0
 18  1  1  0  0  0
 18 14  2  0  0  0
  9  7  1  0  0  0
  1  4  2  0  0  0
 13 14  1  0  0  0
 13 19  1  0  0  0
  7  8  2  0  0  0
  7  5  1  0  0  0
  4  5  1  0  0  0
 20 19  2  0  0  0
  5  6  1  0  0  0
 19 23  1  0  0  0
 19 21  2  0  0  0
 23 22  1  0  0  0
M  END
> <minimizedAffinity>
-8.70676

$$$$
6CKS_F5Y_A_201


 31 34  0  0  0  0  0  0  0  0999 V2000
   15.6935    9.8277    3.7779 C   0  0  0  0  0  0  0  0  0  0  0  0
   15.5083    9.9201    5.1709 C   0  0  0  0  0  0  0  0  0  0  0  0
   14.6593   10.8893    5.7256 C   0  0  0  0  0  0  0  0  0  0  0  0
   16.5342    8.8259    3.3289 C   0  0  0  0  0  0  0  0  0  0  0  0
   17.1508    7.9286    4.2347 N   0  0  0  0  0  0  0  0  0  0  0  0
   18.0328    6.8924    3.6060 C   0  0  0  0  0  0  0  0  0  0  0  0
   17.0143    8.0013    5.5791 C   0  0  0  0  0  0  0  0  0  0  0  0
   17.5966    7.1589    6.3067 O   0  0  0  0  0  0  0  0  0  0  0  0
   16.1921    9.0094    6.0596 C   0  0  0  0  0  0  0  0  0  0  0  0
   15.9532    9.1431    7.4544 C   0  0  0  0  0  0  0  0  0  0  0  0
   15.1109   10.1200    7.9688 C   0  0  0  0  0  0  0  0  0  0  0  0
   14.4177   11.0267    7.1386 C   0  0  0  0  0  0  0  0  0  0  0  0
   15.0956   12.8023    1.6205 C   0  0  0  0  0  0  0  0  0  0  0  0
   15.6281   11.9362    2.5288 C   0  0  0  0  0  0  0  0  0  0  0  0
   13.9262   12.4913    0.9352 C   0  0  0  0  0  0  0  0  0  0  0  0
   13.3697   11.2184    1.1858 C   0  0  0  0  0  0  0  0  0  0  0  0
   13.9300   10.3017    2.1166 C   0  0  0  0  0  0  0  0  0  0  0  0
   15.0596   10.6886    2.8362 C   0  0  0  0  0  0  0  0  0  0  0  0
   15.8411   14.3354    1.4026 S   0  0  0  0  0  0  0  0  0  0  0  0
   16.5004   14.6414    2.7357 O   0  0  0  0  0  0  0  0  0  0  0  0
   16.8555   14.3038    0.3292 O   0  0  0  0  0  0  0  0  0  0  0  0
   14.9137   15.6700   -0.7451 C   0  0  0  0  0  0  0  0  0  0  0  0
   14.5200   15.4090    0.7371 C   0  0  0  0  0  0  0  0  0  0  0  0
   13.4080    9.0412    2.4101 O   0  0  0  0  0  0  0  0  0  0  0  0
   13.1946    8.1350    1.2833 C   0  0  0  0  0  0  0  0  0  0  0  0
   13.6318   12.0215    7.6460 C   0  0  0  0  0  0  0  0  0  0  0  0
   12.7642   11.9179    8.7123 C   0  0  0  0  0  0  0  0  0  0  0  0
   13.6263   13.3324    7.2746 C   0  0  0  0  0  0  0  0  0  0  0  0
   12.7924   14.0186    8.1064 N   0  0  0  0  0  0  0  0  0  0  0  0
   12.2565   13.1356    8.9727 N   0  0  0  0  0  0  0  0  0  0  0  0
   11.2547   13.4836   10.0524 C   0  0  0  0  0  0  0  0  0  0  0  0
 31 30  1  0  0  0
 30 29  1  0  0  0
 30 27  1  0  0  0
 29 28  2  0  0  0
 25 24  1  0  0  0
 27 26  2  0  0  0
 28 26  1  0  0  0
 26 12  1  0  0  0
 24 17  1  0  0  0
 12 11  2  0  0  0
 12  3  1  0  0  0
 11 10  1  0  0  0
 16 17  2  0  0  0
 16 15  1  0  0  0
  3  2  2  0  0  0
 17 18  1  0  0  0
 10  9  2  0  0  0
 15 13  2  0  0  0
  2  9  1  0  0  0
  2  1  1  0  0  0
 18  1  1  0  0  0
 18 14  2  0  0  0
  9  7  1  0  0  0
  1  4  2  0  0  0
 13 14  1  0  0  0
 13 19  1  0  0  0
  7  8  2  0  0  0
  7  5  1  0  0  0
  4  5  1  0  0  0
 20 19  2  0  0  0
  5  6  1  0  0  0
 19 23  1  0  0  0
 19 21  2  0  0  0
 23 22  1  0  0  0
M  END
> <minimizedAffinity>
-8.31115

$$$$
6CKS_F5Y_A_201


 31 34  0  0  0  0  0  0  0  0999 V2000
   16.4286   10.3906    3.7357 C   0  0  0  0  0  0  0  0  0  0  0  0
   15.9151   10.2736    5.0418 C   0  0  0  0  0  0  0  0  0  0  0  0
   15.1654   11.3086    5.6204 C   0  0  0  0  0  0  0  0  0  0  0  0
   17.1368    9.3076    3.2483 C   0  0  0  0  0  0  0  0  0  0  0  0
   17.3070    8.1360    4.0254 N   0  0  0  0  0  0  0  0  0  0  0  0
   18.0934    7.0423    3.3678 C   0  0  0  0  0  0  0  0  0  0  0  0
   16.8481    7.9968    5.2908 C   0  0  0  0  0  0  0  0  0  0  0  0
   17.0425    6.9181    5.9045 O   0  0  0  0  0  0  0  0  0  0  0  0
   16.1506    9.0754    5.8135 C   0  0  0  0  0  0  0  0  0  0  0  0
   15.5941    9.0109    7.1199 C   0  0  0  0  0  0  0  0  0  0  0  0
   14.8627   10.0588    7.6634 C   0  0  0  0  0  0  0  0  0  0  0  0
   14.6025   11.2450    6.9444 C   0  0  0  0  0  0  0  0  0  0  0  0
   14.9273   12.6532    1.1888 C   0  0  0  0  0  0  0  0  0  0  0  0
   15.1840   11.5812    1.9911 C   0  0  0  0  0  0  0  0  0  0  0  0
   15.7260   13.7906    1.2366 C   0  0  0  0  0  0  0  0  0  0  0  0
   16.7616   13.7923    2.1959 C   0  0  0  0  0  0  0  0  0  0  0  0
   17.0233   12.6864    3.0498 C   0  0  0  0  0  0  0  0  0  0  0  0
   16.2440   11.5386    2.9124 C   0  0  0  0  0  0  0  0  0  0  0  0
   13.6526   12.5421    0.0414 S   0  0  0  0  0  0  0  0  0  0  0  0
   12.7562   11.4322    0.5608 O   0  0  0  0  0  0  0  0  0  0  0  0
   12.8928   13.8050   -0.0575 O   0  0  0  0  0  0  0  0  0  0  0  0
   14.0492   13.6546   -2.3791 C   0  0  0  0  0  0  0  0  0  0  0  0
   14.4897   12.3967   -1.5769 C   0  0  0  0  0  0  0  0  0  0  0  0
   18.0436   12.6343    4.0005 O   0  0  0  0  0  0  0  0  0  0  0  0
   19.4163   12.6907    3.5013 C   0  0  0  0  0  0  0  0  0  0  0  0
   13.9297   12.2970    7.4970 C   0  0  0  0  0  0  0  0  0  0  0  0
   13.0646   12.2450    8.5691 C   0  0  0  0  0  0  0  0  0  0  0  0
   14.0592   13.6143    7.1738 C   0  0  0  0  0  0  0  0  0  0  0  0
   13.3089   14.3524    8.0398 N   0  0  0  0  0  0  0  0  0  0  0  0
   12.6899   13.4985    8.8797 N   0  0  0  0  0  0  0  0  0  0  0  0
   11.7390   13.9090    9.9832 C   0  0  0  0  0  0  0  0  0  0  0  0
 31 30  1  0  0  0
 30 29  1  0  0  0
 30 27  1  0  0  0
 29 28  2  0  0  0
 25 24  1  0  0  0
 27 26  2  0  0  0
 28 26  1  0  0  0
 26 12  1  0  0  0
 24 17  1  0  0  0
 12 11  2  0  0  0
 12  3  1  0  0  0
 11 10  1  0  0  0
 16 17  2  0  0  0
 16 15  1  0  0  0
  3  2  2  0  0  0
 17 18  1  0  0  0
 10  9  2  0  0  0
 15 13  2  0  0  0
  2  9  1  0  0  0
  2  1  1  0  0  0
 18  1  1  0  0  0
 18 14  2  0  0  0
  9  7  1  0  0  0
  1  4  2  0  0  0
 13 14  1  0  0  0
 13 19  1  0  0  0
  7  8  2  0  0  0
  7  5  1  0  0  0
  4  5  1  0  0  0
 20 19  2  0  0  0
  5  6  1  0  0  0
 19 23  1  0  0  0
 19 21  2  0  0  0
 23 22  1  0  0  0
M  END
> <minimizedAffinity>
-8.24169

$$$$
6CKS_F5Y_A_201


 31 34  0  0  0  0  0  0  0  0999 V2000
   15.0083   11.6712    2.9092 C   0  0  0  0  0  0  0  0  0  0  0  0
   15.1344   10.2915    3.1618 C   0  0  0  0  0  0  0  0  0  0  0  0
   15.5690    9.8208    4.4098 C   0  0  0  0  0  0  0  0  0  0  0  0
   14.5527   12.0330    1.6548 C   0  0  0  0  0  0  0  0  0  0  0  0
   14.2092   11.0535    0.6913 N   0  0  0  0  0  0  0  0  0  0  0  0
   13.7274   11.5914   -0.6223 C   0  0  0  0  0  0  0  0  0  0  0  0
   14.3390    9.7213    0.8906 C   0  0  0  0  0  0  0  0  0  0  0  0
   14.0056    8.9238   -0.0209 O   0  0  0  0  0  0  0  0  0  0  0  0
   14.8129    9.3293    2.1335 C   0  0  0  0  0  0  0  0  0  0  0  0
   14.9460    7.9508    2.4536 C   0  0  0  0  0  0  0  0  0  0  0  0
   15.3866    7.5212    3.6985 C   0  0  0  0  0  0  0  0  0  0  0  0
   15.7059    8.4245    4.7347 C   0  0  0  0  0  0  0  0  0  0  0  0
   14.9301   13.5893    6.0989 C   0  0  0  0  0  0  0  0  0  0  0  0
   14.6763   12.6728    5.1220 C   0  0  0  0  0  0  0  0  0  0  0  0
   15.8490   14.6136    5.8982 C   0  0  0  0  0  0  0  0  0  0  0  0
   16.5382   14.6080    4.6663 C   0  0  0  0  0  0  0  0  0  0  0  0
   16.2936   13.6443    3.6504 C   0  0  0  0  0  0  0  0  0  0  0  0
   15.3083   12.6820    3.8672 C   0  0  0  0  0  0  0  0  0  0  0  0
   14.0226   13.5182    7.5567 S   0  0  0  0  0  0  0  0  0  0  0  0
   14.8680   14.2573    8.5786 O   0  0  0  0  0  0  0  0  0  0  0  0
   12.7066   14.1742    7.4156 O   0  0  0  0  0  0  0  0  0  0  0  0
   12.1689   11.7262    8.3354 C   0  0  0  0  0  0  0  0  0  0  0  0
   13.6187   11.7486    7.7719 C   0  0  0  0  0  0  0  0  0  0  0  0
   16.9363   13.6073    2.4122 O   0  0  0  0  0  0  0  0  0  0  0  0
   17.1545   14.8878    1.7418 C   0  0  0  0  0  0  0  0  0  0  0  0
   16.1901    8.0053    5.9407 C   0  0  0  0  0  0  0  0  0  0  0  0
   15.6752    8.3112    7.1824 C   0  0  0  0  0  0  0  0  0  0  0  0
   17.2042    7.1208    6.1547 C   0  0  0  0  0  0  0  0  0  0  0  0
   17.2942    6.8745    7.4923 N   0  0  0  0  0  0  0  0  0  0  0  0
   16.3618    7.6248    8.1130 N   0  0  0  0  0  0  0  0  0  0  0  0
   16.1423    7.6665    9.6098 C   0  0  0  0  0  0  0  0  0  0  0  0
 31 30  1  0  0  0
 30 29  1  0  0  0
 30 27  1  0  0  0
 29 28  2  0  0  0
 25 24  1  0  0  0
 27 26  2  0  0  0
 28 26  1  0  0  0
 26 12  1  0  0  0
 24 17  1  0  0  0
 12 11  2  0  0  0
 12  3  1  0  0  0
 11 10  1  0  0  0
 16 17  2  0  0  0
 16 15  1  0  0  0
  3  2  2  0  0  0
 17 18  1  0  0  0
 10  9  2  0  0  0
 15 13  2  0  0  0
  2  9  1  0  0  0
  2  1  1  0  0  0
 18  1  1  0  0  0
 18 14  2  0  0  0
  9  7  1  0  0  0
  1  4  2  0  0  0
 13 14  1  0  0  0
 13 19  1  0  0  0
  7  8  2  0  0  0
  7  5  1  0  0  0
  4  5  1  0  0  0
 20 19  2  0  0  0
  5  6  1  0  0  0
 19 23  1  0  0  0
 19 21  2  0  0  0
 23 22  1  0  0  0
M  END
> <minimizedAffinity>
-7.69415

$$$$
6CKS_F5Y_A_201


 31 34  0  0  0  0  0  0  0  0999 V2000
   14.7715    8.2710    2.3319 C   0  0  0  0  0  0  0  0  0  0  0  0
   15.1465    8.6395    3.6384 C   0  0  0  0  0  0  0  0  0  0  0  0
   15.6077    7.6838    4.5560 C   0  0  0  0  0  0  0  0  0  0  0  0
   14.3499    9.2895    1.4970 C   0  0  0  0  0  0  0  0  0  0  0  0
   14.3263   10.6346    1.9394 N   0  0  0  0  0  0  0  0  0  0  0  0
   13.8499   11.6315    0.9263 C   0  0  0  0  0  0  0  0  0  0  0  0
   14.6571   11.0224    3.1929 C   0  0  0  0  0  0  0  0  0  0  0  0
   14.6102   12.2405    3.4966 O   0  0  0  0  0  0  0  0  0  0  0  0
   15.0652   10.0191    4.0589 C   0  0  0  0  0  0  0  0  0  0  0  0
   15.4717   10.3308    5.3848 C   0  0  0  0  0  0  0  0  0  0  0  0
   15.9164    9.3565    6.2689 C   0  0  0  0  0  0  0  0  0  0  0  0
   16.0182    7.9981    5.9000 C   0  0  0  0  0  0  0  0  0  0  0  0
   13.6060    4.8892    1.3001 C   0  0  0  0  0  0  0  0  0  0  0  0
   13.6451    6.1645    1.7804 C   0  0  0  0  0  0  0  0  0  0  0  0
   14.7583    4.2626    0.8382 C   0  0  0  0  0  0  0  0  0  0  0  0
   15.9384    5.0373    0.8371 C   0  0  0  0  0  0  0  0  0  0  0  0
   15.9833    6.3743    1.3177 C   0  0  0  0  0  0  0  0  0  0  0  0
   14.8191    6.9341    1.8421 C   0  0  0  0  0  0  0  0  0  0  0  0
   12.1211    4.0262    1.3627 S   0  0  0  0  0  0  0  0  0  0  0  0
   12.5009    2.5779    1.1104 O   0  0  0  0  0  0  0  0  0  0  0  0
   11.4659    4.1578    2.6800 O   0  0  0  0  0  0  0  0  0  0  0  0
    9.5846    4.3806    0.5294 C   0  0  0  0  0  0  0  0  0  0  0  0
   11.0101    4.9210    0.2199 C   0  0  0  0  0  0  0  0  0  0  0  0
   17.1269    7.1734    1.3522 O   0  0  0  0  0  0  0  0  0  0  0  0
   18.3034    6.6160    2.0169 C   0  0  0  0  0  0  0  0  0  0  0  0
   16.4040    7.0319    6.7845 C   0  0  0  0  0  0  0  0  0  0  0  0
   17.6961    6.7348    7.1624 C   0  0  0  0  0  0  0  0  0  0  0  0
   15.5926    6.2466    7.5470 C   0  0  0  0  0  0  0  0  0  0  0  0
   16.3674    5.5026    8.3861 N   0  0  0  0  0  0  0  0  0  0  0  0
   17.6569    5.7991    8.1274 N   0  0  0  0  0  0  0  0  0  0  0  0
   18.8444    5.1713    8.8245 C   0  0  0  0  0  0  0  0  0  0  0  0
 31 30  1  0  0  0
 30 29  1  0  0  0
 30 27  1  0  0  0
 29 28  2  0  0  0
 25 24  1  0  0  0
 27 26  2  0  0  0
 28 26  1  0  0  0
 26 12  1  0  0  0
 24 17  1  0  0  0
 12 11  2  0  0  0
 12  3  1  0  0  0
 11 10  1  0  0  0
 16 17  2  0  0  0
 16 15  1  0  0  0
  3  2  2  0  0  0
 17 18  1  0  0  0
 10  9  2  0  0  0
 15 13  2  0  0  0
  2  9  1  0  0  0
  2  1  1  0  0  0
 18  1  1  0  0  0
 18 14  2  0  0  0
  9  7  1  0  0  0
  1  4  2  0  0  0
 13 14  1  0  0  0
 13 19  1  0  0  0
  7  8  2  0  0  0
  7  5  1  0  0  0
  4  5  1  0  0  0
 20 19  2  0  0  0
  5  6  1  0  0  0
 19 23  1  0  0  0
 19 21  2  0  0  0
 23 22  1  0  0  0
M  END
> <minimizedAffinity>
-7.46985

$$$$
6CKS_F5Y_A_201


 31 34  0  0  0  0  0  0  0  0999 V2000
   15.5062   14.1882    2.6950 C   0  0  0  0  0  0  0  0  0  0  0  0
   14.8368   13.4922    1.6698 C   0  0  0  0  0  0  0  0  0  0  0  0
   14.4126   12.1675    1.8516 C   0  0  0  0  0  0  0  0  0  0  0  0
   15.8651   15.4960    2.4251 C   0  0  0  0  0  0  0  0  0  0  0  0
   15.5459   16.1003    1.1847 N   0  0  0  0  0  0  0  0  0  0  0  0
   15.9939   17.5228    1.0335 C   0  0  0  0  0  0  0  0  0  0  0  0
   14.9249   15.4563    0.1694 C   0  0  0  0  0  0  0  0  0  0  0  0
   14.6780   16.0739   -0.8962 O   0  0  0  0  0  0  0  0  0  0  0  0
   14.5705   14.1363    0.4045 C   0  0  0  0  0  0  0  0  0  0  0  0
   13.8783   13.3871   -0.5854 C   0  0  0  0  0  0  0  0  0  0  0  0
   13.4796   12.0740   -0.3729 C   0  0  0  0  0  0  0  0  0  0  0  0
   13.7128   11.4069    0.8487 C   0  0  0  0  0  0  0  0  0  0  0  0
   15.0726   13.1453    6.2425 C   0  0  0  0  0  0  0  0  0  0  0  0
   14.8663   13.6846    5.0074 C   0  0  0  0  0  0  0  0  0  0  0  0
   16.2620   12.4935    6.5493 C   0  0  0  0  0  0  0  0  0  0  0  0
   17.2002   12.3701    5.5018 C   0  0  0  0  0  0  0  0  0  0  0  0
   16.9843   12.9123    4.2056 C   0  0  0  0  0  0  0  0  0  0  0  0
   15.8093   13.6239    3.9676 C   0  0  0  0  0  0  0  0  0  0  0  0
   13.8735   13.3671    7.4535 S   0  0  0  0  0  0  0  0  0  0  0  0
   14.5649   14.1638    8.5455 O   0  0  0  0  0  0  0  0  0  0  0  0
   12.7074   14.1144    6.9397 O   0  0  0  0  0  0  0  0  0  0  0  0
   12.2294   11.8629    8.9662 C   0  0  0  0  0  0  0  0  0  0  0  0
   13.2212   11.6912    7.7801 C   0  0  0  0  0  0  0  0  0  0  0  0
   17.8869   12.8306    3.1444 O   0  0  0  0  0  0  0  0  0  0  0  0
   19.3075   12.7902    3.4861 C   0  0  0  0  0  0  0  0  0  0  0  0
   13.3692   10.0992    1.0398 C   0  0  0  0  0  0  0  0  0  0  0  0
   12.7426    9.2746    0.1299 C   0  0  0  0  0  0  0  0  0  0  0  0
   13.6704    9.3210    2.1168 C   0  0  0  0  0  0  0  0  0  0  0  0
   13.2577    8.0467    1.8642 N   0  0  0  0  0  0  0  0  0  0  0  0
   12.6743    8.0359    0.6488 N   0  0  0  0  0  0  0  0  0  0  0  0
   12.0561    6.8176   -0.0022 C   0  0  0  0  0  0  0  0  0  0  0  0
 31 30  1  0  0  0
 30 29  1  0  0  0
 30 27  1  0  0  0
 29 28  2  0  0  0
 25 24  1  0  0  0
 27 26  2  0  0  0
 28 26  1  0  0  0
 26 12  1  0  0  0
 24 17  1  0  0  0
 12 11  2  0  0  0
 12  3  1  0  0  0
 11 10  1  0  0  0
 16 17  2  0  0  0
 16 15  1  0  0  0
  3  2  2  0  0  0
 17 18  1  0  0  0
 10  9  2  0  0  0
 15 13  2  0  0  0
  2  9  1  0  0  0
  2  1  1  0  0  0
 18  1  1  0  0  0
 18 14  2  0  0  0
  9  7  1  0  0  0
  1  4  2  0  0  0
 13 14  1  0  0  0
 13 19  1  0  0  0
  7  8  2  0  0  0
  7  5  1  0  0  0
  4  5  1  0  0  0
 20 19  2  0  0  0
  5  6  1  0  0  0
 19 23  1  0  0  0
 19 21  2  0  0  0
 23 22  1  0  0  0
M  END
> <minimizedAffinity>
-7.41259

$$$$
