3F3C_PFF_A_601


 16 16  0  0  0  0  0  0  0  0999 V2000
   25.8891   32.1053   19.1037 N   0  0  0  0  0  0  0  0  0  0  0  0
   27.2362   31.5655   19.0318 C   0  0  0  0  0  0  0  0  0  0  0  0
   25.5409   32.2772   18.1605 H   0  0  0  0  0  0  0  0  0  0  0  0
   25.9012   32.9811   19.6265 H   0  0  0  0  0  0  0  0  0  0  0  0
   27.2693   30.2701   18.2707 C   0  0  0  0  0  0  0  0  0  0  0  0
   28.1414   29.4153   18.5751 O   0  0  0  0  0  0  0  0  0  0  0  0
   26.4229   30.0941   17.3744 O   0  0  0  0  0  0  0  0  0  0  0  0
   25.7940   30.7626   17.1861 H   0  0  0  0  0  0  0  0  0  0  0  0
   27.7538   31.3097   20.4436 C   0  0  0  0  0  0  0  0  0  0  0  0
   28.0123   32.6470   21.0873 C   0  0  0  0  0  0  0  0  0  0  0  0
   28.8114   33.5632   20.4181 C   0  0  0  0  0  0  0  0  0  0  0  0
   27.4521   32.9648   22.3249 C   0  0  0  0  0  0  0  0  0  0  0  0
   29.0609   34.8034   20.9799 C   0  0  0  0  0  0  0  0  0  0  0  0
   27.6999   34.2143   22.8931 C   0  0  0  0  0  0  0  0  0  0  0  0
   28.5025   35.1239   22.2136 C   0  0  0  0  0  0  0  0  0  0  0  0
   28.7578   36.3277   22.7433 F   0  0  0  0  0  0  0  0  0  0  0  0
  1  2  1  0  0  0
  2  5  1  0  0  0
  2  9  1  0  0  0
  5  6  2  0  0  0
  5  7  1  0  0  0
  9 10  1  0  0  0
 10 11  2  0  0  0
 10 12  1  0  0  0
 11 13  1  0  0  0
 12 14  2  0  0  0
 13 15  2  0  0  0
 14 15  1  0  0  0
 15 16  1  0  0  0
  1  3  1  0  0  0
  1  4  1  0  0  0
  7  8  1  0  0  0
M  END
> <minimizedAffinity>
-8.52301

$$$$
3F3C_PFF_A_601


 16 16  0  0  0  0  0  0  0  0999 V2000
   25.9138   32.2957   19.2992 N   0  0  0  0  0  0  0  0  0  0  0  0
   27.2681   31.8742   19.6144 C   0  0  0  0  0  0  0  0  0  0  0  0
   25.9086   32.7798   18.4014 H   0  0  0  0  0  0  0  0  0  0  0  0
   25.5756   32.9253   20.0269 H   0  0  0  0  0  0  0  0  0  0  0  0
   27.8105   30.9405   18.5692 C   0  0  0  0  0  0  0  0  0  0  0  0
   27.8923   29.7145   18.8414 O   0  0  0  0  0  0  0  0  0  0  0  0
   28.1482   31.4212   17.4712 O   0  0  0  0  0  0  0  0  0  0  0  0
   28.0676   32.3421   17.3181 H   0  0  0  0  0  0  0  0  0  0  0  0
   27.2723   31.1508   20.9573 C   0  0  0  0  0  0  0  0  0  0  0  0
   27.8561   32.0881   21.9821 C   0  0  0  0  0  0  0  0  0  0  0  0
   27.3810   33.3908   22.0381 C   0  0  0  0  0  0  0  0  0  0  0  0
   28.8458   31.6553   22.8649 C   0  0  0  0  0  0  0  0  0  0  0  0
   27.8919   34.2736   22.9737 C   0  0  0  0  0  0  0  0  0  0  0  0
   29.3616   32.5417   23.8103 C   0  0  0  0  0  0  0  0  0  0  0  0
   28.8782   33.8445   23.8567 C   0  0  0  0  0  0  0  0  0  0  0  0
   29.3630   34.7140   24.7533 F   0  0  0  0  0  0  0  0  0  0  0  0
  1  2  1  0  0  0
  2  5  1  0  0  0
  2  9  1  0  0  0
  5  6  2  0  0  0
  5  7  1  0  0  0
  9 10  1  0  0  0
 10 11  2  0  0  0
 10 12  1  0  0  0
 11 13  1  0  0  0
 12 14  2  0  0  0
 13 15  2  0  0  0
 14 15  1  0  0  0
 15 16  1  0  0  0
  1  3  1  0  0  0
  1  4  1  0  0  0
  7  8  1  0  0  0
M  END
> <minimizedAffinity>
-8.01492

$$$$
3F3C_PFF_A_601


 16 16  0  0  0  0  0  0  0  0999 V2000
   25.9282   32.2914   19.2990 N   0  0  0  0  0  0  0  0  0  0  0  0
   27.2839   31.8703   19.6091 C   0  0  0  0  0  0  0  0  0  0  0  0
   25.9202   32.7791   18.4031 H   0  0  0  0  0  0  0  0  0  0  0  0
   25.5910   32.9176   20.0301 H   0  0  0  0  0  0  0  0  0  0  0  0
   27.8248   30.9416   18.5588 C   0  0  0  0  0  0  0  0  0  0  0  0
   27.8855   29.7113   18.8167 O   0  0  0  0  0  0  0  0  0  0  0  0
   28.1823   31.4305   17.4707 O   0  0  0  0  0  0  0  0  0  0  0  0
   28.1169   32.3543   17.3281 H   0  0  0  0  0  0  0  0  0  0  0  0
   27.2923   31.1415   20.9490 C   0  0  0  0  0  0  0  0  0  0  0  0
   27.8461   32.0872   21.9827 C   0  0  0  0  0  0  0  0  0  0  0  0
   28.8192   31.6217   22.8557 C   0  0  0  0  0  0  0  0  0  0  0  0
   27.4001   33.4071   22.0559 C   0  0  0  0  0  0  0  0  0  0  0  0
   29.3533   32.4686   23.8113 C   0  0  0  0  0  0  0  0  0  0  0  0
   27.9374   34.2639   23.0164 C   0  0  0  0  0  0  0  0  0  0  0  0
   28.9115   33.7861   23.8860 C   0  0  0  0  0  0  0  0  0  0  0  0
   29.4375   34.5903   24.8196 F   0  0  0  0  0  0  0  0  0  0  0  0
  1  2  1  0  0  0
  2  5  1  0  0  0
  2  9  1  0  0  0
  5  6  2  0  0  0
  5  7  1  0  0  0
  9 10  1  0  0  0
 10 11  2  0  0  0
 10 12  1  0  0  0
 11 13  1  0  0  0
 12 14  2  0  0  0
 13 15  2  0  0  0
 14 15  1  0  0  0
 15 16  1  0  0  0
  1  3  1  0  0  0
  1  4  1  0  0  0
  7  8  1  0  0  0
M  END
> <minimizedAffinity>
-7.99517

$$$$
3F3C_PFF_A_601


 16 16  0  0  0  0  0  0  0  0999 V2000
   28.1206   29.5869   18.5073 N   0  0  0  0  0  0  0  0  0  0  0  0
   27.4403   30.5849   19.3151 C   0  0  0  0  0  0  0  0  0  0  0  0
   27.5810   28.7213   18.5108 H   0  0  0  0  0  0  0  0  0  0  0  0
   29.0479   29.4110   18.8940 H   0  0  0  0  0  0  0  0  0  0  0  0
   26.0667   30.8803   18.7819 C   0  0  0  0  0  0  0  0  0  0  0  0
   25.4401   29.9626   18.1912 O   0  0  0  0  0  0  0  0  0  0  0  0
   25.6024   32.0226   18.9566 O   0  0  0  0  0  0  0  0  0  0  0  0
   26.1099   32.6713   19.4032 H   0  0  0  0  0  0  0  0  0  0  0  0
   28.2497   31.8778   19.3077 C   0  0  0  0  0  0  0  0  0  0  0  0
   28.4574   32.2976   20.7396 C   0  0  0  0  0  0  0  0  0  0  0  0
   28.8630   31.3416   21.6601 C   0  0  0  0  0  0  0  0  0  0  0  0
   28.2580   33.6213   21.1325 C   0  0  0  0  0  0  0  0  0  0  0  0
   29.0699   31.6979   22.9815 C   0  0  0  0  0  0  0  0  0  0  0  0
   28.4673   33.9843   22.4629 C   0  0  0  0  0  0  0  0  0  0  0  0
   28.8731   33.0177   23.3764 C   0  0  0  0  0  0  0  0  0  0  0  0
   29.0750   33.3432   24.6602 F   0  0  0  0  0  0  0  0  0  0  0  0
  1  2  1  0  0  0
  2  5  1  0  0  0
  2  9  1  0  0  0
  5  6  2  0  0  0
  5  7  1  0  0  0
  9 10  1  0  0  0
 10 11  2  0  0  0
 10 12  1  0  0  0
 11 13  1  0  0  0
 12 14  2  0  0  0
 13 15  2  0  0  0
 14 15  1  0  0  0
 15 16  1  0  0  0
  1  3  1  0  0  0
  1  4  1  0  0  0
  7  8  1  0  0  0
M  END
> <minimizedAffinity>
-6.85829

$$$$
3F3C_PFF_A_601


 16 16  0  0  0  0  0  0  0  0999 V2000
   29.0438   32.4291   20.2334 N   0  0  0  0  0  0  0  0  0  0  0  0
   28.0976   31.3264   20.2334 C   0  0  0  0  0  0  0  0  0  0  0  0
   29.4901   32.4941   19.3185 H   0  0  0  0  0  0  0  0  0  0  0  0
   29.7540   32.2678   20.9475 H   0  0  0  0  0  0  0  0  0  0  0  0
   27.0274   31.5204   19.1964 C   0  0  0  0  0  0  0  0  0  0  0  0
   26.3222   32.5615   19.2468 O   0  0  0  0  0  0  0  0  0  0  0  0
   26.8904   30.6433   18.3231 O   0  0  0  0  0  0  0  0  0  0  0  0
   27.4416   29.8856   18.3295 H   0  0  0  0  0  0  0  0  0  0  0  0
   27.4321   31.2320   21.6027 C   0  0  0  0  0  0  0  0  0  0  0  0
   27.9488   32.3701   22.4438 C   0  0  0  0  0  0  0  0  0  0  0  0
   27.3905   33.6290   22.2735 C   0  0  0  0  0  0  0  0  0  0  0  0
   28.9595   32.1632   23.3830 C   0  0  0  0  0  0  0  0  0  0  0  0
   27.8383   34.6932   23.0369 C   0  0  0  0  0  0  0  0  0  0  0  0
   29.4120   33.2329   24.1553 C   0  0  0  0  0  0  0  0  0  0  0  0
   28.8454   34.4899   23.9755 C   0  0  0  0  0  0  0  0  0  0  0  0
   29.2684   35.5325   24.7029 F   0  0  0  0  0  0  0  0  0  0  0  0
  1  2  1  0  0  0
  2  5  1  0  0  0
  2  9  1  0  0  0
  5  6  2  0  0  0
  5  7  1  0  0  0
  9 10  1  0  0  0
 10 11  2  0  0  0
 10 12  1  0  0  0
 11 13  1  0  0  0
 12 14  2  0  0  0
 13 15  2  0  0  0
 14 15  1  0  0  0
 15 16  1  0  0  0
  1  3  1  0  0  0
  1  4  1  0  0  0
  7  8  1  0  0  0
M  END
> <minimizedAffinity>
-6.48150

$$$$
