2VWL_LZH_A_1246


 37 40  0  0  0  0  0  0  0  0999 V2000
    8.0479   66.5772    2.1509 C   0  0  0  0  0  0  0  0  0  0  0  0
   11.3872   67.3817    3.5543 C   0  0  0  0  0  0  0  0  0  0  0  0
   10.4614   68.3994    4.2452 C   0  0  0  0  0  0  0  0  0  0  0  0
    9.0970   66.9062    3.1186 N   0  0  0  0  0  0  0  0  0  0  0  0
   10.4685   66.4239    2.8088 C   0  0  0  0  0  0  0  0  0  0  0  0
    9.1570   68.3244    3.4716 C   0  0  0  0  0  0  0  0  0  0  0  0
   12.0638   66.6766    4.6594 N   0  0  0  0  0  0  0  0  0  0  0  0
   13.2074   66.0360    4.4450 C   0  0  0  0  0  0  0  0  0  0  0  0
   13.6663   65.9948    3.3150 O   0  0  0  0  0  0  0  0  0  0  0  0
   11.6659   66.6808    5.5599 H   0  0  0  0  0  0  0  0  0  0  0  0
   13.9403   65.3480    5.5705 C   0  0  0  0  0  0  0  0  0  0  0  0
   13.8700   65.5021    6.9616 C   0  0  0  0  0  0  0  0  0  0  0  0
   14.7396   64.6578    7.6679 C   0  0  0  0  0  0  0  0  0  0  0  0
   15.1141   64.2041    4.9972 S   0  0  0  0  0  0  0  0  0  0  0  0
   15.4440   63.9775    6.6904 C   0  0  0  0  0  0  0  0  0  0  0  0
   16.7060   62.7471    7.0945 Cl  0  0  0  0  0  0  0  0  0  0  0  0
    9.8884   70.4709    2.6232 O   0  0  0  0  0  0  0  0  0  0  0  0
    9.2387   69.2419    2.2445 C   0  0  0  0  0  0  0  0  0  0  0  0
    9.9445   71.0577    1.8529 H   0  0  0  0  0  0  0  0  0  0  0  0
    8.3237   64.3169    3.1869 N   0  0  0  0  0  0  0  0  0  0  0  0
    7.7558   65.0937    2.2331 C   0  0  0  0  0  0  0  0  0  0  0  0
    6.9956   64.6287    1.3987 O   0  0  0  0  0  0  0  0  0  0  0  0
    8.9877   64.6732    3.8203 H   0  0  0  0  0  0  0  0  0  0  0  0
    9.4677   62.4346    1.5423 F   0  0  0  0  0  0  0  0  0  0  0  0
    8.4872   62.0540    2.3738 C   0  0  0  0  0  0  0  0  0  0  0  0
    8.0880   60.7049    2.3804 C   0  0  0  0  0  0  0  0  0  0  0  0
    7.0915   60.2904    3.2554 C   0  0  0  0  0  0  0  0  0  0  0  0
    6.5180   61.2267    4.1035 C   0  0  0  0  0  0  0  0  0  0  0  0
    6.9276   62.5625    4.0943 C   0  0  0  0  0  0  0  0  0  0  0  0
    7.9171   62.9931    3.2204 C   0  0  0  0  0  0  0  0  0  0  0  0
    6.6814   58.9291    3.2301 N   0  0  0  0  0  0  0  0  0  0  0  0
    7.2645   57.9927    4.0797 C   0  0  0  0  0  0  0  0  0  0  0  0
    6.7849   56.7175    4.0217 C   0  0  0  0  0  0  0  0  0  0  0  0
    5.6462   56.3361    3.2597 C   0  0  0  0  0  0  0  0  0  0  0  0
    5.0236   57.2989    2.5092 C   0  0  0  0  0  0  0  0  0  0  0  0
    5.5054   58.6309    2.5417 C   0  0  0  0  0  0  0  0  0  0  0  0
    4.9678   59.5045    1.8184 O   0  0  0  0  0  0  0  0  0  0  0  0
 24 25  1  0  0  0
 25 26  1  0  0  0
 25 30  2  0  0  0
 26 27  2  0  0  0
 27 31  1  0  0  0
 27 28  1  0  0  0
 31 32  1  0  0  0
 31 36  1  0  0  0
 32 33  2  0  0  0
 33 34  1  0  0  0
 34 35  2  0  0  0
 35 36  1  0  0  0
 36 37  2  0  0  0
 28 29  2  0  0  0
 29 30  1  0  0  0
 30 20  1  0  0  0
 20 21  1  0  0  0
 21 22  2  0  0  0
 21  1  1  0  0  0
  2  3  1  0  0  0
  2  5  1  0  0  0
  2  7  1  0  0  0
  3  6  1  0  0  0
  1  4  1  0  0  0
  4  5  1  0  0  0
  4  6  1  0  0  0
 17 18  1  0  0  0
 18  6  1  0  0  0
  7  8  1  0  0  0
  8  9  2  0  0  0
  8 11  1  0  0  0
 11 12  2  0  0  0
 11 14  1  0  0  0
 12 13  1  0  0  0
 13 15  2  0  0  0
 14 15  1  0  0  0
 15 16  1  0  0  0
 20 23  1  0  0  0
 17 19  1  0  0  0
  7 10  1  0  0  0
M  END
> <minimizedAffinity>
-11.03080

$$$$
2VWL_LZH_A_1246


 37 40  0  0  0  0  0  0  0  0999 V2000
    7.2639   66.9707    2.8060 C   0  0  0  0  0  0  0  0  0  0  0  0
   10.8336   67.8273    3.3464 C   0  0  0  0  0  0  0  0  0  0  0  0
   10.1042   68.6806    4.4000 C   0  0  0  0  0  0  0  0  0  0  0  0
    8.5301   67.2486    3.4880 N   0  0  0  0  0  0  0  0  0  0  0  0
    9.7757   66.9085    2.7514 C   0  0  0  0  0  0  0  0  0  0  0  0
    8.6388   68.6112    4.0082 C   0  0  0  0  0  0  0  0  0  0  0  0
   11.8152   67.0380    4.1143 N   0  0  0  0  0  0  0  0  0  0  0  0
   12.6793   66.2489    3.4859 C   0  0  0  0  0  0  0  0  0  0  0  0
   12.6199   66.1455    2.2714 O   0  0  0  0  0  0  0  0  0  0  0  0
   11.8300   67.0963    5.0969 H   0  0  0  0  0  0  0  0  0  0  0  0
   13.7222   65.4690    4.2481 C   0  0  0  0  0  0  0  0  0  0  0  0
   14.6655   64.5192    3.8330 C   0  0  0  0  0  0  0  0  0  0  0  0
   15.4596   64.0191    4.8757 C   0  0  0  0  0  0  0  0  0  0  0  0
   13.6790   65.7929    5.9535 S   0  0  0  0  0  0  0  0  0  0  0  0
   14.9659   64.6240    6.0181 C   0  0  0  0  0  0  0  0  0  0  0  0
   15.6669   64.3062    7.6544 Cl  0  0  0  0  0  0  0  0  0  0  0  0
    7.5672   70.7336    3.5508 O   0  0  0  0  0  0  0  0  0  0  0  0
    8.3437   69.6802    2.9479 C   0  0  0  0  0  0  0  0  0  0  0  0
    7.3757   71.4146    2.8871 H   0  0  0  0  0  0  0  0  0  0  0  0
    7.8537   64.6212    3.4307 N   0  0  0  0  0  0  0  0  0  0  0  0
    7.0763   65.4708    2.7170 C   0  0  0  0  0  0  0  0  0  0  0  0
    6.2023   65.0624    1.9690 O   0  0  0  0  0  0  0  0  0  0  0  0
    8.6024   64.9417    3.9839 H   0  0  0  0  0  0  0  0  0  0  0  0
    6.2908   63.3942    5.3302 F   0  0  0  0  0  0  0  0  0  0  0  0
    6.7618   62.6613    4.3111 C   0  0  0  0  0  0  0  0  0  0  0  0
    6.4305   61.2954    4.2470 C   0  0  0  0  0  0  0  0  0  0  0  0
    6.8895   60.5293    3.1827 C   0  0  0  0  0  0  0  0  0  0  0  0
    7.6645   61.1402    2.2075 C   0  0  0  0  0  0  0  0  0  0  0  0
    7.9809   62.4993    2.2768 C   0  0  0  0  0  0  0  0  0  0  0  0
    7.5357   63.2762    3.3381 C   0  0  0  0  0  0  0  0  0  0  0  0
    6.5679   59.1446    3.1475 N   0  0  0  0  0  0  0  0  0  0  0  0
    7.3438   58.2145    3.8342 C   0  0  0  0  0  0  0  0  0  0  0  0
    6.9429   56.9122    3.7832 C   0  0  0  0  0  0  0  0  0  0  0  0
    5.7185   56.4852    3.1988 C   0  0  0  0  0  0  0  0  0  0  0  0
    4.9188   57.4342    2.6177 C   0  0  0  0  0  0  0  0  0  0  0  0
    5.3140   58.7945    2.6466 C   0  0  0  0  0  0  0  0  0  0  0  0
    4.6080   59.6595    2.0731 O   0  0  0  0  0  0  0  0  0  0  0  0
 24 25  1  0  0  0
 25 26  1  0  0  0
 25 30  2  0  0  0
 26 27  2  0  0  0
 27 31  1  0  0  0
 27 28  1  0  0  0
 31 32  1  0  0  0
 31 36  1  0  0  0
 32 33  2  0  0  0
 33 34  1  0  0  0
 34 35  2  0  0  0
 35 36  1  0  0  0
 36 37  2  0  0  0
 28 29  2  0  0  0
 29 30  1  0  0  0
 30 20  1  0  0  0
 20 21  1  0  0  0
 21 22  2  0  0  0
 21  1  1  0  0  0
  2  3  1  0  0  0
  2  5  1  0  0  0
  2  7  1  0  0  0
  3  6  1  0  0  0
  1  4  1  0  0  0
  4  5  1  0  0  0
  4  6  1  0  0  0
 17 18  1  0  0  0
 18  6  1  0  0  0
  7  8  1  0  0  0
  8  9  2  0  0  0
  8 11  1  0  0  0
 11 12  2  0  0  0
 11 14  1  0  0  0
 12 13  1  0  0  0
 13 15  2  0  0  0
 14 15  1  0  0  0
 15 16  1  0  0  0
 20 23  1  0  0  0
 17 19  1  0  0  0
  7 10  1  0  0  0
M  END
> <minimizedAffinity>
-9.80208

$$$$
2VWL_LZH_A_1246


 37 40  0  0  0  0  0  0  0  0999 V2000
   10.2744   64.5863   -1.7741 C   0  0  0  0  0  0  0  0  0  0  0  0
    7.0667   63.4725   -0.2781 C   0  0  0  0  0  0  0  0  0  0  0  0
    6.7842   63.4246   -1.7908 C   0  0  0  0  0  0  0  0  0  0  0  0
    9.0534   63.8110   -1.5428 N   0  0  0  0  0  0  0  0  0  0  0  0
    8.5584   63.7439   -0.1427 C   0  0  0  0  0  0  0  0  0  0  0  0
    7.9442   64.1708   -2.4256 C   0  0  0  0  0  0  0  0  0  0  0  0
    6.7533   62.1151    0.2072 N   0  0  0  0  0  0  0  0  0  0  0  0
    6.7693   61.8484    1.5083 C   0  0  0  0  0  0  0  0  0  0  0  0
    7.0942   62.7241    2.2937 O   0  0  0  0  0  0  0  0  0  0  0  0
    6.5314   61.4038   -0.4361 H   0  0  0  0  0  0  0  0  0  0  0  0
    6.4064   60.4796    2.0296 C   0  0  0  0  0  0  0  0  0  0  0  0
    5.2748   59.6763    1.8337 C   0  0  0  0  0  0  0  0  0  0  0  0
    5.3276   58.4509    2.5146 C   0  0  0  0  0  0  0  0  0  0  0  0
    7.6077   59.8395    3.1076 S   0  0  0  0  0  0  0  0  0  0  0  0
    6.5122   58.4934    3.2284 C   0  0  0  0  0  0  0  0  0  0  0  0
    7.0507   57.1250    4.2807 Cl  0  0  0  0  0  0  0  0  0  0  0  0
    6.2583   65.8754   -2.7643 O   0  0  0  0  0  0  0  0  0  0  0  0
    7.6441   65.6755   -2.4241 C   0  0  0  0  0  0  0  0  0  0  0  0
    6.0595   66.8248   -2.7658 H   0  0  0  0  0  0  0  0  0  0  0  0
   11.1608   65.6240    0.3224 N   0  0  0  0  0  0  0  0  0  0  0  0
   11.1153   64.5600   -0.5151 C   0  0  0  0  0  0  0  0  0  0  0  0
   11.7553   63.5443   -0.2940 O   0  0  0  0  0  0  0  0  0  0  0  0
   10.6997   66.4688    0.1155 H   0  0  0  0  0  0  0  0  0  0  0  0
    9.9521   64.8384    2.6630 F   0  0  0  0  0  0  0  0  0  0  0  0
   11.2714   65.0772    2.6671 C   0  0  0  0  0  0  0  0  0  0  0  0
   11.9884   64.9073    3.8656 C   0  0  0  0  0  0  0  0  0  0  0  0
   13.3605   65.1255    3.8789 C   0  0  0  0  0  0  0  0  0  0  0  0
   13.9861   65.5051    2.7001 C   0  0  0  0  0  0  0  0  0  0  0  0
   13.2656   65.6632    1.5135 C   0  0  0  0  0  0  0  0  0  0  0  0
   11.8928   65.4559    1.4863 C   0  0  0  0  0  0  0  0  0  0  0  0
   14.0655   64.9755    5.1046 N   0  0  0  0  0  0  0  0  0  0  0  0
   13.6109   65.5895    6.2686 C   0  0  0  0  0  0  0  0  0  0  0  0
   14.3213   65.3611    7.4099 C   0  0  0  0  0  0  0  0  0  0  0  0
   15.3939   64.4313    7.4995 C   0  0  0  0  0  0  0  0  0  0  0  0
   15.7587   63.7598    6.3621 C   0  0  0  0  0  0  0  0  0  0  0  0
   15.0451   63.9839    5.1587 C   0  0  0  0  0  0  0  0  0  0  0  0
   15.4074   63.4073    4.1043 O   0  0  0  0  0  0  0  0  0  0  0  0
 24 25  1  0  0  0
 25 26  1  0  0  0
 25 30  2  0  0  0
 26 27  2  0  0  0
 27 31  1  0  0  0
 27 28  1  0  0  0
 31 32  1  0  0  0
 31 36  1  0  0  0
 32 33  2  0  0  0
 33 34  1  0  0  0
 34 35  2  0  0  0
 35 36  1  0  0  0
 36 37  2  0  0  0
 28 29  2  0  0  0
 29 30  1  0  0  0
 30 20  1  0  0  0
 20 21  1  0  0  0
 21 22  2  0  0  0
 21  1  1  0  0  0
  2  3  1  0  0  0
  2  5  1  0  0  0
  2  7  1  0  0  0
  3  6  1  0  0  0
  1  4  1  0  0  0
  4  5  1  0  0  0
  4  6  1  0  0  0
 17 18  1  0  0  0
 18  6  1  0  0  0
  7  8  1  0  0  0
  8  9  2  0  0  0
  8 11  1  0  0  0
 11 12  2  0  0  0
 11 14  1  0  0  0
 12 13  1  0  0  0
 13 15  2  0  0  0
 14 15  1  0  0  0
 15 16  1  0  0  0
 20 23  1  0  0  0
 17 19  1  0  0  0
  7 10  1  0  0  0
M  END
> <minimizedAffinity>
-8.89500

$$$$
2VWL_LZH_A_1246


 37 40  0  0  0  0  0  0  0  0999 V2000
    7.1683   63.8078   -1.7024 C   0  0  0  0  0  0  0  0  0  0  0  0
    5.1028   61.2649    0.0400 C   0  0  0  0  0  0  0  0  0  0  0  0
    5.0366   60.8220   -1.4330 C   0  0  0  0  0  0  0  0  0  0  0  0
    6.6175   62.5089   -1.3088 N   0  0  0  0  0  0  0  0  0  0  0  0
    6.1343   62.3832    0.0914 C   0  0  0  0  0  0  0  0  0  0  0  0
    5.5908   61.9984   -2.2168 C   0  0  0  0  0  0  0  0  0  0  0  0
    5.6020   60.0825    0.7673 N   0  0  0  0  0  0  0  0  0  0  0  0
    5.2984   59.9062    2.0483 C   0  0  0  0  0  0  0  0  0  0  0  0
    4.6448   60.7570    2.6298 O   0  0  0  0  0  0  0  0  0  0  0  0
    6.1626   59.4211    0.3011 H   0  0  0  0  0  0  0  0  0  0  0  0
    5.7590   58.6808    2.7988 C   0  0  0  0  0  0  0  0  0  0  0  0
    6.9101   58.4291    3.5575 C   0  0  0  0  0  0  0  0  0  0  0  0
    6.9608   57.1337    4.0936 C   0  0  0  0  0  0  0  0  0  0  0  0
    4.6656   57.3436    2.6217 S   0  0  0  0  0  0  0  0  0  0  0  0
    5.8276   56.5052    3.6085 C   0  0  0  0  0  0  0  0  0  0  0  0
    5.4265   54.7912    4.0224 Cl  0  0  0  0  0  0  0  0  0  0  0  0
    3.2474   62.2950   -2.7490 O   0  0  0  0  0  0  0  0  0  0  0  0
    4.4680   63.0111   -2.4779 C   0  0  0  0  0  0  0  0  0  0  0  0
    2.5314   62.9279   -2.9154 H   0  0  0  0  0  0  0  0  0  0  0  0
    8.1333   64.6247    0.4562 N   0  0  0  0  0  0  0  0  0  0  0  0
    8.3326   64.1401   -0.7932 C   0  0  0  0  0  0  0  0  0  0  0  0
    9.4553   63.9610   -1.2381 O   0  0  0  0  0  0  0  0  0  0  0  0
    7.2330   64.8332    0.7956 H   0  0  0  0  0  0  0  0  0  0  0  0
    9.3314   62.5185    1.7543 F   0  0  0  0  0  0  0  0  0  0  0  0
    9.8548   63.7448    1.8953 C   0  0  0  0  0  0  0  0  0  0  0  0
   11.0021   63.9057    2.6936 C   0  0  0  0  0  0  0  0  0  0  0  0
   11.5711   65.1661    2.8277 C   0  0  0  0  0  0  0  0  0  0  0  0
   10.9868   66.2349    2.1635 C   0  0  0  0  0  0  0  0  0  0  0  0
    9.8521   66.0625    1.3667 C   0  0  0  0  0  0  0  0  0  0  0  0
    9.2678   64.8103    1.2290 C   0  0  0  0  0  0  0  0  0  0  0  0
   12.7145   65.3157    3.6597 N   0  0  0  0  0  0  0  0  0  0  0  0
   12.5864   65.7496    4.9766 C   0  0  0  0  0  0  0  0  0  0  0  0
   13.7274   65.8262    5.7193 C   0  0  0  0  0  0  0  0  0  0  0  0
   14.9934   65.3567    5.2725 C   0  0  0  0  0  0  0  0  0  0  0  0
   15.0758   64.8372    4.0072 C   0  0  0  0  0  0  0  0  0  0  0  0
   13.9087   64.7538    3.2083 C   0  0  0  0  0  0  0  0  0  0  0  0
   13.9897   64.3237    2.0318 O   0  0  0  0  0  0  0  0  0  0  0  0
 24 25  1  0  0  0
 25 26  1  0  0  0
 25 30  2  0  0  0
 26 27  2  0  0  0
 27 31  1  0  0  0
 27 28  1  0  0  0
 31 32  1  0  0  0
 31 36  1  0  0  0
 32 33  2  0  0  0
 33 34  1  0  0  0
 34 35  2  0  0  0
 35 36  1  0  0  0
 36 37  2  0  0  0
 28 29  2  0  0  0
 29 30  1  0  0  0
 30 20  1  0  0  0
 20 21  1  0  0  0
 21 22  2  0  0  0
 21  1  1  0  0  0
  2  3  1  0  0  0
  2  5  1  0  0  0
  2  7  1  0  0  0
  3  6  1  0  0  0
  1  4  1  0  0  0
  4  5  1  0  0  0
  4  6  1  0  0  0
 17 18  1  0  0  0
 18  6  1  0  0  0
  7  8  1  0  0  0
  8  9  2  0  0  0
  8 11  1  0  0  0
 11 12  2  0  0  0
 11 14  1  0  0  0
 12 13  1  0  0  0
 13 15  2  0  0  0
 14 15  1  0  0  0
 15 16  1  0  0  0
 20 23  1  0  0  0
 17 19  1  0  0  0
  7 10  1  0  0  0
M  END
> <minimizedAffinity>
-8.22628

$$$$
2VWL_LZH_A_1246


 37 40  0  0  0  0  0  0  0  0999 V2000
    7.7004   65.0631    1.6068 C   0  0  0  0  0  0  0  0  0  0  0  0
   10.8486   66.3198    3.1159 C   0  0  0  0  0  0  0  0  0  0  0  0
    9.7593   67.0966    3.8778 C   0  0  0  0  0  0  0  0  0  0  0  0
    8.6771   65.4880    2.6123 N   0  0  0  0  0  0  0  0  0  0  0  0
   10.1116   65.2823    2.2808 C   0  0  0  0  0  0  0  0  0  0  0  0
    8.4870   66.8594    3.0838 C   0  0  0  0  0  0  0  0  0  0  0  0
   11.6412   65.6533    4.1665 N   0  0  0  0  0  0  0  0  0  0  0  0
   12.9456   65.8819    4.2684 C   0  0  0  0  0  0  0  0  0  0  0  0
   13.4900   66.6093    3.4537 O   0  0  0  0  0  0  0  0  0  0  0  0
   11.2013   65.0363    4.7951 H   0  0  0  0  0  0  0  0  0  0  0  0
   13.7666   65.2475    5.3641 C   0  0  0  0  0  0  0  0  0  0  0  0
   13.7732   65.4352    6.7529 C   0  0  0  0  0  0  0  0  0  0  0  0
   14.7113   64.6383    7.4259 C   0  0  0  0  0  0  0  0  0  0  0  0
   14.9429   64.1280    4.7492 S   0  0  0  0  0  0  0  0  0  0  0  0
   15.3796   63.9562    6.4246 C   0  0  0  0  0  0  0  0  0  0  0  0
   16.7045   62.7786    6.7818 Cl  0  0  0  0  0  0  0  0  0  0  0  0
    9.1940   69.0322    2.2830 O   0  0  0  0  0  0  0  0  0  0  0  0
    8.4032   67.8779    1.9393 C   0  0  0  0  0  0  0  0  0  0  0  0
    9.1468   69.6821    1.5644 H   0  0  0  0  0  0  0  0  0  0  0  0
    7.4172   62.6108    1.2019 N   0  0  0  0  0  0  0  0  0  0  0  0
    7.1783   63.6922    1.9822 C   0  0  0  0  0  0  0  0  0  0  0  0
    6.5270   63.6069    3.0112 O   0  0  0  0  0  0  0  0  0  0  0  0
    7.8845   62.6854    0.3386 H   0  0  0  0  0  0  0  0  0  0  0  0
    8.9011   61.1600    3.0046 F   0  0  0  0  0  0  0  0  0  0  0  0
    7.7308   60.6603    2.5825 C   0  0  0  0  0  0  0  0  0  0  0  0
    7.3021   59.4181    3.0851 C   0  0  0  0  0  0  0  0  0  0  0  0
    6.0791   58.9001    2.6771 C   0  0  0  0  0  0  0  0  0  0  0  0
    5.3118   59.6305    1.7811 C   0  0  0  0  0  0  0  0  0  0  0  0
    5.7436   60.8669    1.2944 C   0  0  0  0  0  0  0  0  0  0  0  0
    6.9667   61.3941    1.6873 C   0  0  0  0  0  0  0  0  0  0  0  0
    5.6734   57.6311    3.1740 N   0  0  0  0  0  0  0  0  0  0  0  0
    4.4428   57.0859    2.8176 C   0  0  0  0  0  0  0  0  0  0  0  0
    4.1480   55.8465    3.3039 C   0  0  0  0  0  0  0  0  0  0  0  0
    5.0736   55.0389    4.0209 C   0  0  0  0  0  0  0  0  0  0  0  0
    6.3175   55.5561    4.2718 C   0  0  0  0  0  0  0  0  0  0  0  0
    6.6493   56.8456    3.7874 C   0  0  0  0  0  0  0  0  0  0  0  0
    7.7703   57.3418    4.0571 O   0  0  0  0  0  0  0  0  0  0  0  0
 24 25  1  0  0  0
 25 26  1  0  0  0
 25 30  2  0  0  0
 26 27  2  0  0  0
 27 31  1  0  0  0
 27 28  1  0  0  0
 31 32  1  0  0  0
 31 36  1  0  0  0
 32 33  2  0  0  0
 33 34  1  0  0  0
 34 35  2  0  0  0
 35 36  1  0  0  0
 36 37  2  0  0  0
 28 29  2  0  0  0
 29 30  1  0  0  0
 30 20  1  0  0  0
 20 21  1  0  0  0
 21 22  2  0  0  0
 21  1  1  0  0  0
  2  3  1  0  0  0
  2  5  1  0  0  0
  2  7  1  0  0  0
  3  6  1  0  0  0
  1  4  1  0  0  0
  4  5  1  0  0  0
  4  6  1  0  0  0
 17 18  1  0  0  0
 18  6  1  0  0  0
  7  8  1  0  0  0
  8  9  2  0  0  0
  8 11  1  0  0  0
 11 12  2  0  0  0
 11 14  1  0  0  0
 12 13  1  0  0  0
 13 15  2  0  0  0
 14 15  1  0  0  0
 15 16  1  0  0  0
 20 23  1  0  0  0
 17 19  1  0  0  0
  7 10  1  0  0  0
M  END
> <minimizedAffinity>
-8.03090

$$$$
