1IF8_SBS_A_555


 29 31  0  0  0  0  0  0  0  0999 V2000
   -3.5422    5.3116   13.6448 N   0  0  0  0  0  0  0  0  0  0  0  0
   -4.9088    4.8076   13.6378 C   0  0  0  0  0  0  0  0  0  0  0  0
   -5.6951    5.2619   12.7997 O   0  0  0  0  0  0  0  0  0  0  0  0
   -2.8563    4.9945   14.2759 H   0  0  0  0  0  0  0  0  0  0  0  0
   -5.2673    3.8206   14.5983 C   0  0  0  0  0  0  0  0  0  0  0  0
   -4.4432    2.6756   14.8117 C   0  0  0  0  0  0  0  0  0  0  0  0
   -4.7891    1.6810   15.7845 C   0  0  0  0  0  0  0  0  0  0  0  0
   -5.9926    1.8074   16.5895 C   0  0  0  0  0  0  0  0  0  0  0  0
   -6.8068    2.9658   16.3549 C   0  0  0  0  0  0  0  0  0  0  0  0
   -6.4542    3.9438   15.3838 C   0  0  0  0  0  0  0  0  0  0  0  0
   -6.4305    0.7587   17.7102 S   0  0  0  0  0  0  0  0  0  0  0  0
   -6.4193    1.4198   19.0046 O   0  0  0  0  0  0  0  0  0  0  0  0
   -7.7659    0.3162   17.4188 O   0  0  0  0  0  0  0  0  0  0  0  0
   -5.5586   -0.5159   17.7387 N   0  0  0  0  0  0  0  0  0  0  0  0
   -4.5920   -0.2621   17.9428 H   0  0  0  0  0  0  0  0  0  0  0  0
   -5.6041   -0.9793   16.8312 H   0  0  0  0  0  0  0  0  0  0  0  0
   -3.2690    6.3795   12.5815 C   0  0  0  0  0  0  0  0  0  0  0  0
   -2.2208    5.7891   11.6343 C   0  0  0  0  0  0  0  0  0  0  0  0
   -1.5884    6.9676   10.8440 C   0  0  0  0  0  0  0  0  0  0  0  0
   -2.8652    4.7423   10.6419 C   0  0  0  0  0  0  0  0  0  0  0  0
   -2.4435    3.3909   11.0618 N   0  0  0  0  0  0  0  0  0  0  0  0
   -1.1131    3.0195   11.3152 C   0  0  0  0  0  0  0  0  0  0  0  0
   -1.1186    1.5656   11.7105 C   0  0  0  0  0  0  0  0  0  0  0  0
   -3.2393    2.2981   11.2715 C   0  0  0  0  0  0  0  0  0  0  0  0
   -4.6791    2.1389   11.1527 C   0  0  0  0  0  0  0  0  0  0  0  0
   -5.2880    0.8767   11.4174 C   0  0  0  0  0  0  0  0  0  0  0  0
   -4.4706   -0.2512   11.8066 C   0  0  0  0  0  0  0  0  0  0  0  0
   -3.0276   -0.0965   11.9326 C   0  0  0  0  0  0  0  0  0  0  0  0
   -2.4148    1.1902   11.6626 C   0  0  0  0  0  0  0  0  0  0  0  0
 20 18  1  0  0  0
 20 21  1  0  0  0
 18 17  1  0  0  0
 18 19  1  0  0  0
 17  1  1  0  0  0
  1  2  1  0  0  0
  2  3  2  0  0  0
  2  5  1  0  0  0
  5  6  2  0  0  0
  5 10  1  0  0  0
  6  7  1  0  0  0
  7  8  2  0  0  0
  8  9  1  0  0  0
  8 11  1  0  0  0
  9 10  2  0  0  0
 11 12  2  0  0  0
 11 13  2  0  0  0
 11 14  1  0  0  0
 21 22  1  0  0  0
 21 24  1  0  0  0
 22 23  2  0  0  0
 23 29  1  0  0  0
 24 25  2  0  0  0
 24 29  1  0  0  0
 25 26  1  0  0  0
 26 27  2  0  0  0
 27 28  1  0  0  0
 28 29  2  0  0  0
  1  4  1  0  0  0
 14 15  1  0  0  0
 14 16  1  0  0  0
M  END
> <minimizedAffinity>
-7.78604

$$$$
1IF8_SBS_A_555


 29 31  0  0  0  0  0  0  0  0999 V2000
   -1.7481    3.3981   13.6759 N   0  0  0  0  0  0  0  0  0  0  0  0
   -3.0532    3.9574   14.0007 C   0  0  0  0  0  0  0  0  0  0  0  0
   -3.3632    5.0454   13.5036 O   0  0  0  0  0  0  0  0  0  0  0  0
   -1.4321    2.5340   14.0261 H   0  0  0  0  0  0  0  0  0  0  0  0
   -3.9016    3.2228   14.8758 C   0  0  0  0  0  0  0  0  0  0  0  0
   -5.3110    3.4449   14.8838 C   0  0  0  0  0  0  0  0  0  0  0  0
   -6.1761    2.7025   15.7533 C   0  0  0  0  0  0  0  0  0  0  0  0
   -5.6452    1.6949   16.6561 C   0  0  0  0  0  0  0  0  0  0  0  0
   -4.2247    1.4914   16.6321 C   0  0  0  0  0  0  0  0  0  0  0  0
   -3.3766    2.2373   15.7670 C   0  0  0  0  0  0  0  0  0  0  0  0
   -6.5448    0.8090   17.6325 S   0  0  0  0  0  0  0  0  0  0  0  0
   -6.5374    1.4105   18.9557 O   0  0  0  0  0  0  0  0  0  0  0  0
   -7.8892    0.8010   17.1262 O   0  0  0  0  0  0  0  0  0  0  0  0
   -6.1092   -0.6712   17.7014 N   0  0  0  0  0  0  0  0  0  0  0  0
   -5.1548   -0.7286   18.0568 H   0  0  0  0  0  0  0  0  0  0  0  0
   -6.1498   -1.0813   16.7684 H   0  0  0  0  0  0  0  0  0  0  0  0
   -0.9121    4.2761   12.7400 C   0  0  0  0  0  0  0  0  0  0  0  0
   -0.1498    3.3215   11.8168 C   0  0  0  0  0  0  0  0  0  0  0  0
    1.3038    3.8548   11.6901 C   0  0  0  0  0  0  0  0  0  0  0  0
   -0.8299    3.2301   10.3937 C   0  0  0  0  0  0  0  0  0  0  0  0
   -2.2611    2.9225   10.5870 N   0  0  0  0  0  0  0  0  0  0  0  0
   -3.3070    3.8217   10.3230 C   0  0  0  0  0  0  0  0  0  0  0  0
   -4.5987    3.1204   10.6545 C   0  0  0  0  0  0  0  0  0  0  0  0
   -2.8075    1.7532   11.0405 C   0  0  0  0  0  0  0  0  0  0  0  0
   -2.1761    0.5101   11.4512 C   0  0  0  0  0  0  0  0  0  0  0  0
   -2.9695   -0.5845   11.9053 C   0  0  0  0  0  0  0  0  0  0  0  0
   -4.4094   -0.4591   11.9573 C   0  0  0  0  0  0  0  0  0  0  0  0
   -5.0485    0.7823   11.5419 C   0  0  0  0  0  0  0  0  0  0  0  0
   -4.2355    1.8915   11.0805 C   0  0  0  0  0  0  0  0  0  0  0  0
 20 18  1  0  0  0
 20 21  1  0  0  0
 18 17  1  0  0  0
 18 19  1  0  0  0
 17  1  1  0  0  0
  1  2  1  0  0  0
  2  3  2  0  0  0
  2  5  1  0  0  0
  5  6  2  0  0  0
  5 10  1  0  0  0
  6  7  1  0  0  0
  7  8  2  0  0  0
  8  9  1  0  0  0
  8 11  1  0  0  0
  9 10  2  0  0  0
 11 12  2  0  0  0
 11 13  2  0  0  0
 11 14  1  0  0  0
 21 22  1  0  0  0
 21 24  1  0  0  0
 22 23  2  0  0  0
 23 29  1  0  0  0
 24 25  2  0  0  0
 24 29  1  0  0  0
 25 26  1  0  0  0
 26 27  2  0  0  0
 27 28  1  0  0  0
 28 29  2  0  0  0
  1  4  1  0  0  0
 14 15  1  0  0  0
 14 16  1  0  0  0
M  END
> <minimizedAffinity>
-7.54100

$$$$
1IF8_SBS_A_555


 29 31  0  0  0  0  0  0  0  0999 V2000
   -3.0380    3.7585   12.8762 N   0  0  0  0  0  0  0  0  0  0  0  0
   -4.3515    3.1306   12.8340 C   0  0  0  0  0  0  0  0  0  0  0  0
   -4.9565    3.1124   11.7566 O   0  0  0  0  0  0  0  0  0  0  0  0
   -2.4919    3.8064   13.6939 H   0  0  0  0  0  0  0  0  0  0  0  0
   -4.8704    2.5735   14.0363 C   0  0  0  0  0  0  0  0  0  0  0  0
   -5.8676    3.2620   14.7896 C   0  0  0  0  0  0  0  0  0  0  0  0
   -6.4053    2.7047   15.9961 C   0  0  0  0  0  0  0  0  0  0  0  0
   -5.9531    1.4156   16.4921 C   0  0  0  0  0  0  0  0  0  0  0  0
   -4.9478    0.7435   15.7191 C   0  0  0  0  0  0  0  0  0  0  0  0
   -4.4197    1.3091   14.5253 C   0  0  0  0  0  0  0  0  0  0  0  0
   -6.5223    0.7170   17.8096 S   0  0  0  0  0  0  0  0  0  0  0  0
   -6.4601    1.6646   18.9100 O   0  0  0  0  0  0  0  0  0  0  0  0
   -7.8931    0.3571   17.5747 O   0  0  0  0  0  0  0  0  0  0  0  0
   -5.7962   -0.5960   18.1759 N   0  0  0  0  0  0  0  0  0  0  0  0
   -4.8111   -0.4013   18.3550 H   0  0  0  0  0  0  0  0  0  0  0  0
   -5.8772   -1.2564   17.4028 H   0  0  0  0  0  0  0  0  0  0  0  0
   -2.5834    4.3377   11.5332 C   0  0  0  0  0  0  0  0  0  0  0  0
   -1.7611    5.5880   11.8570 C   0  0  0  0  0  0  0  0  0  0  0  0
   -0.4132    5.1158   12.4683 C   0  0  0  0  0  0  0  0  0  0  0  0
   -2.5235    6.5338   12.8670 C   0  0  0  0  0  0  0  0  0  0  0  0
   -3.4747    7.3588   12.0956 N   0  0  0  0  0  0  0  0  0  0  0  0
   -3.0977    8.3424   11.1669 C   0  0  0  0  0  0  0  0  0  0  0  0
   -4.3616    8.9459   10.6115 C   0  0  0  0  0  0  0  0  0  0  0  0
   -4.8412    7.3178   12.1432 C   0  0  0  0  0  0  0  0  0  0  0  0
   -5.7364    6.4863   12.9304 C   0  0  0  0  0  0  0  0  0  0  0  0
   -7.1496    6.6384   12.8133 C   0  0  0  0  0  0  0  0  0  0  0  0
   -7.6964    7.6239   11.9068 C   0  0  0  0  0  0  0  0  0  0  0  0
   -6.8044    8.4566   11.1111 C   0  0  0  0  0  0  0  0  0  0  0  0
   -5.3681    8.2962   11.2347 C   0  0  0  0  0  0  0  0  0  0  0  0
 20 18  1  0  0  0
 20 21  1  0  0  0
 18 17  1  0  0  0
 18 19  1  0  0  0
 17  1  1  0  0  0
  1  2  1  0  0  0
  2  3  2  0  0  0
  2  5  1  0  0  0
  5  6  2  0  0  0
  5 10  1  0  0  0
  6  7  1  0  0  0
  7  8  2  0  0  0
  8  9  1  0  0  0
  8 11  1  0  0  0
  9 10  2  0  0  0
 11 12  2  0  0  0
 11 13  2  0  0  0
 11 14  1  0  0  0
 21 22  1  0  0  0
 21 24  1  0  0  0
 22 23  2  0  0  0
 23 29  1  0  0  0
 24 25  2  0  0  0
 24 29  1  0  0  0
 25 26  1  0  0  0
 26 27  2  0  0  0
 27 28  1  0  0  0
 28 29  2  0  0  0
  1  4  1  0  0  0
 14 15  1  0  0  0
 14 16  1  0  0  0
M  END
> <minimizedAffinity>
-6.88651

$$$$
1IF8_SBS_A_555


 29 31  0  0  0  0  0  0  0  0999 V2000
   -5.4732    6.0193   12.5952 N   0  0  0  0  0  0  0  0  0  0  0  0
   -6.3975    5.4748   13.5804 C   0  0  0  0  0  0  0  0  0  0  0  0
   -7.4955    6.0246   13.7185 O   0  0  0  0  0  0  0  0  0  0  0  0
   -4.5842    5.6332   12.4221 H   0  0  0  0  0  0  0  0  0  0  0  0
   -5.9864    4.3399   14.3343 C   0  0  0  0  0  0  0  0  0  0  0  0
   -6.8111    3.8157   15.3739 C   0  0  0  0  0  0  0  0  0  0  0  0
   -6.4118    2.6663   16.1320 C   0  0  0  0  0  0  0  0  0  0  0  0
   -5.1516    1.9936   15.8646 C   0  0  0  0  0  0  0  0  0  0  0  0
   -4.3381    2.5407   14.8164 C   0  0  0  0  0  0  0  0  0  0  0  0
   -4.7442    3.6842   14.0737 C   0  0  0  0  0  0  0  0  0  0  0  0
   -4.6507    0.6943   16.6446 S   0  0  0  0  0  0  0  0  0  0  0  0
   -3.2377    0.8436   16.9507 O   0  0  0  0  0  0  0  0  0  0  0  0
   -5.3901    0.5903   17.8719 O   0  0  0  0  0  0  0  0  0  0  0  0
   -4.9094   -0.6232   15.8812 N   0  0  0  0  0  0  0  0  0  0  0  0
   -4.4057   -0.6068   14.9944 H   0  0  0  0  0  0  0  0  0  0  0  0
   -5.9088   -0.7222   15.7027 H   0  0  0  0  0  0  0  0  0  0  0  0
   -6.0095    7.2468   11.8528 C   0  0  0  0  0  0  0  0  0  0  0  0
   -4.7868    7.9997   11.3211 C   0  0  0  0  0  0  0  0  0  0  0  0
   -4.9711    8.1668    9.7876 C   0  0  0  0  0  0  0  0  0  0  0  0
   -3.4488    7.2200   11.6341 C   0  0  0  0  0  0  0  0  0  0  0  0
   -2.5887    8.0945   12.4563 N   0  0  0  0  0  0  0  0  0  0  0  0
   -1.7846    9.1245   11.9418 C   0  0  0  0  0  0  0  0  0  0  0  0
   -1.0716    9.7634   13.1052 C   0  0  0  0  0  0  0  0  0  0  0  0
   -2.4242    8.0620   13.8139 C   0  0  0  0  0  0  0  0  0  0  0  0
   -3.0197    7.1974   14.8191 C   0  0  0  0  0  0  0  0  0  0  0  0
   -2.6777    7.3514   16.1951 C   0  0  0  0  0  0  0  0  0  0  0  0
   -1.7345    8.3726   16.5941 C   0  0  0  0  0  0  0  0  0  0  0  0
   -1.1383    9.2458   15.5919 C   0  0  0  0  0  0  0  0  0  0  0  0
   -1.4911    9.0842   14.1942 C   0  0  0  0  0  0  0  0  0  0  0  0
 20 18  1  0  0  0
 20 21  1  0  0  0
 18 17  1  0  0  0
 18 19  1  0  0  0
 17  1  1  0  0  0
  1  2  1  0  0  0
  2  3  2  0  0  0
  2  5  1  0  0  0
  5  6  2  0  0  0
  5 10  1  0  0  0
  6  7  1  0  0  0
  7  8  2  0  0  0
  8  9  1  0  0  0
  8 11  1  0  0  0
  9 10  2  0  0  0
 11 12  2  0  0  0
 11 13  2  0  0  0
 11 14  1  0  0  0
 21 22  1  0  0  0
 21 24  1  0  0  0
 22 23  2  0  0  0
 23 29  1  0  0  0
 24 25  2  0  0  0
 24 29  1  0  0  0
 25 26  1  0  0  0
 26 27  2  0  0  0
 27 28  1  0  0  0
 28 29  2  0  0  0
  1  4  1  0  0  0
 14 15  1  0  0  0
 14 16  1  0  0  0
M  END
> <minimizedAffinity>
-6.74346

$$$$
1IF8_SBS_A_555


 29 31  0  0  0  0  0  0  0  0999 V2000
   -3.4156    4.0344   12.7087 N   0  0  0  0  0  0  0  0  0  0  0  0
   -4.7611    4.2155   13.2364 C   0  0  0  0  0  0  0  0  0  0  0  0
   -5.4873    5.0640   12.7074 O   0  0  0  0  0  0  0  0  0  0  0  0
   -2.7811    3.3747   13.0712 H   0  0  0  0  0  0  0  0  0  0  0  0
   -5.1676    3.4079   14.3353 C   0  0  0  0  0  0  0  0  0  0  0  0
   -6.2872    3.7777   15.1388 C   0  0  0  0  0  0  0  0  0  0  0  0
   -6.7122    2.9656   16.2413 C   0  0  0  0  0  0  0  0  0  0  0  0
   -6.0164    1.7345   16.5766 C   0  0  0  0  0  0  0  0  0  0  0  0
   -4.8920    1.3850   15.7560 C   0  0  0  0  0  0  0  0  0  0  0  0
   -4.4782    2.2014   14.6669 C   0  0  0  0  0  0  0  0  0  0  0  0
   -6.4450    0.7638   17.7690 S   0  0  0  0  0  0  0  0  0  0  0  0
   -7.7701    0.2344   17.4927 O   0  0  0  0  0  0  0  0  0  0  0  0
   -5.5065   -0.3223   17.8277 O   0  0  0  0  0  0  0  0  0  0  0  0
   -6.4026    1.4360   19.1589 N   0  0  0  0  0  0  0  0  0  0  0  0
   -7.0541    2.2207   19.1770 H   0  0  0  0  0  0  0  0  0  0  0  0
   -5.4583    1.7738   19.3446 H   0  0  0  0  0  0  0  0  0  0  0  0
   -3.0774    4.9633   11.5388 C   0  0  0  0  0  0  0  0  0  0  0  0
   -1.5765    4.8052   11.2804 C   0  0  0  0  0  0  0  0  0  0  0  0
   -1.3743    3.4797   10.4957 C   0  0  0  0  0  0  0  0  0  0  0  0
   -0.7588    4.7765   12.6318 C   0  0  0  0  0  0  0  0  0  0  0  0
   -0.4100    6.1664   12.9878 N   0  0  0  0  0  0  0  0  0  0  0  0
    0.6032    6.9130   12.3648 C   0  0  0  0  0  0  0  0  0  0  0  0
    0.6339    8.2681   13.0228 C   0  0  0  0  0  0  0  0  0  0  0  0
   -0.9862    6.9488   13.9507 C   0  0  0  0  0  0  0  0  0  0  0  0
   -2.0708    6.6661   14.8762 C   0  0  0  0  0  0  0  0  0  0  0  0
   -2.4951    7.6552   15.8118 C   0  0  0  0  0  0  0  0  0  0  0  0
   -1.8446    8.9467   15.8410 C   0  0  0  0  0  0  0  0  0  0  0  0
   -0.7607    9.2380   14.9124 C   0  0  0  0  0  0  0  0  0  0  0  0
   -0.3346    8.2276   13.9629 C   0  0  0  0  0  0  0  0  0  0  0  0
 20 18  1  0  0  0
 20 21  1  0  0  0
 18 17  1  0  0  0
 18 19  1  0  0  0
 17  1  1  0  0  0
  1  2  1  0  0  0
  2  3  2  0  0  0
  2  5  1  0  0  0
  5  6  2  0  0  0
  5 10  1  0  0  0
  6  7  1  0  0  0
  7  8  2  0  0  0
  8  9  1  0  0  0
  8 11  1  0  0  0
  9 10  2  0  0  0
 11 12  2  0  0  0
 11 13  2  0  0  0
 11 14  1  0  0  0
 21 22  1  0  0  0
 21 24  1  0  0  0
 22 23  2  0  0  0
 23 29  1  0  0  0
 24 25  2  0  0  0
 24 29  1  0  0  0
 25 26  1  0  0  0
 26 27  2  0  0  0
 27 28  1  0  0  0
 28 29  2  0  0  0
  1  4  1  0  0  0
 14 15  1  0  0  0
 14 16  1  0  0  0
M  END
> <minimizedAffinity>
-6.63053

$$$$
1IF8_SBS_A_555


 29 31  0  0  0  0  0  0  0  0999 V2000
   -1.6462    1.6037   12.1747 N   0  0  0  0  0  0  0  0  0  0  0  0
   -1.2961    2.4186   11.0194 C   0  0  0  0  0  0  0  0  0  0  0  0
   -1.9330    2.2541    9.9733 O   0  0  0  0  0  0  0  0  0  0  0  0
   -1.1906    1.6810   13.0441 H   0  0  0  0  0  0  0  0  0  0  0  0
   -0.2370    3.3594   11.1551 C   0  0  0  0  0  0  0  0  0  0  0  0
   -0.3260    4.4290   12.0953 C   0  0  0  0  0  0  0  0  0  0  0  0
    0.7397    5.3757   12.2481 C   0  0  0  0  0  0  0  0  0  0  0  0
    1.9503    5.2759   11.4501 C   0  0  0  0  0  0  0  0  0  0  0  0
    2.0155    4.1937   10.5096 C   0  0  0  0  0  0  0  0  0  0  0  0
    0.9494    3.2629   10.3651 C   0  0  0  0  0  0  0  0  0  0  0  0
    3.1901    6.2724   11.5814 S   0  0  0  0  0  0  0  0  0  0  0  0
    4.4219    5.5039   11.5141 O   0  0  0  0  0  0  0  0  0  0  0  0
    3.1488    7.1936   10.4798 O   0  0  0  0  0  0  0  0  0  0  0  0
    3.1543    7.1387   12.8596 N   0  0  0  0  0  0  0  0  0  0  0  0
    3.1815    6.5343   13.6808 H   0  0  0  0  0  0  0  0  0  0  0  0
    2.2968    7.6910   12.8721 H   0  0  0  0  0  0  0  0  0  0  0  0
   -2.7872    0.6157   11.9147 C   0  0  0  0  0  0  0  0  0  0  0  0
   -3.9945    1.1313   12.7028 C   0  0  0  0  0  0  0  0  0  0  0  0
   -5.1008    1.4988   11.6759 C   0  0  0  0  0  0  0  0  0  0  0  0
   -3.6157    2.3899   13.5795 C   0  0  0  0  0  0  0  0  0  0  0  0
   -4.7662    2.7077   14.4488 N   0  0  0  0  0  0  0  0  0  0  0  0
   -5.5362    3.8777   14.3471 C   0  0  0  0  0  0  0  0  0  0  0  0
   -6.5990    3.8119   15.4130 C   0  0  0  0  0  0  0  0  0  0  0  0
   -5.2714    1.9516   15.4708 C   0  0  0  0  0  0  0  0  0  0  0  0
   -4.8513    0.6608   15.9904 C   0  0  0  0  0  0  0  0  0  0  0  0
   -5.5403    0.0685   17.0896 C   0  0  0  0  0  0  0  0  0  0  0  0
   -6.6630    0.7538   17.6912 C   0  0  0  0  0  0  0  0  0  0  0  0
   -7.0922    2.0452   17.1714 C   0  0  0  0  0  0  0  0  0  0  0  0
   -6.3873    2.6416   16.0526 C   0  0  0  0  0  0  0  0  0  0  0  0
 20 18  1  0  0  0
 20 21  1  0  0  0
 18 17  1  0  0  0
 18 19  1  0  0  0
 17  1  1  0  0  0
  1  2  1  0  0  0
  2  3  2  0  0  0
  2  5  1  0  0  0
  5  6  2  0  0  0
  5 10  1  0  0  0
  6  7  1  0  0  0
  7  8  2  0  0  0
  8  9  1  0  0  0
  8 11  1  0  0  0
  9 10  2  0  0  0
 11 12  2  0  0  0
 11 13  2  0  0  0
 11 14  1  0  0  0
 21 22  1  0  0  0
 21 24  1  0  0  0
 22 23  2  0  0  0
 23 29  1  0  0  0
 24 25  2  0  0  0
 24 29  1  0  0  0
 25 26  1  0  0  0
 26 27  2  0  0  0
 27 28  1  0  0  0
 28 29  2  0  0  0
  1  4  1  0  0  0
 14 15  1  0  0  0
 14 16  1  0  0  0
M  END
> <minimizedAffinity>
-6.61098

$$$$
1IF8_SBS_A_555


 29 31  0  0  0  0  0  0  0  0999 V2000
   -2.9439    3.5218   12.7389 N   0  0  0  0  0  0  0  0  0  0  0  0
   -4.3808    3.3044   12.8375 C   0  0  0  0  0  0  0  0  0  0  0  0
   -5.0949    3.6834   11.9029 O   0  0  0  0  0  0  0  0  0  0  0  0
   -2.3095    3.2421   13.4378 H   0  0  0  0  0  0  0  0  0  0  0  0
   -4.8871    2.6698   14.0063 C   0  0  0  0  0  0  0  0  0  0  0  0
   -4.4294    1.3740   14.3903 C   0  0  0  0  0  0  0  0  0  0  0  0
   -4.9244    0.7303   15.5718 C   0  0  0  0  0  0  0  0  0  0  0  0
   -5.9096    1.3787   16.4211 C   0  0  0  0  0  0  0  0  0  0  0  0
   -6.3566    2.6799   16.0130 C   0  0  0  0  0  0  0  0  0  0  0  0
   -5.8601    3.3065   14.8361 C   0  0  0  0  0  0  0  0  0  0  0  0
   -6.4874    0.7401   17.7650 S   0  0  0  0  0  0  0  0  0  0  0  0
   -6.4291    1.7353   18.8228 O   0  0  0  0  0  0  0  0  0  0  0  0
   -7.8578    0.3730   17.5387 O   0  0  0  0  0  0  0  0  0  0  0  0
   -5.7664   -0.5569   18.1930 N   0  0  0  0  0  0  0  0  0  0  0  0
   -4.7818   -0.3564   18.3687 H   0  0  0  0  0  0  0  0  0  0  0  0
   -5.8446   -1.2507   17.4494 H   0  0  0  0  0  0  0  0  0  0  0  0
   -2.5095    4.2248   11.4494 C   0  0  0  0  0  0  0  0  0  0  0  0
   -1.8628    5.5463   11.8735 C   0  0  0  0  0  0  0  0  0  0  0  0
   -0.8876    5.9737   10.7422 C   0  0  0  0  0  0  0  0  0  0  0  0
   -1.0879    5.3958   13.2420 C   0  0  0  0  0  0  0  0  0  0  0  0
   -1.5627    6.4523   14.1578 N   0  0  0  0  0  0  0  0  0  0  0  0
   -2.6512    6.3107   15.0337 C   0  0  0  0  0  0  0  0  0  0  0  0
   -2.8018    7.6112   15.7794 C   0  0  0  0  0  0  0  0  0  0  0  0
   -1.0502    7.7111   14.3136 C   0  0  0  0  0  0  0  0  0  0  0  0
    0.0693    8.3653   13.6568 C   0  0  0  0  0  0  0  0  0  0  0  0
    0.4104    9.7105   13.9850 C   0  0  0  0  0  0  0  0  0  0  0  0
   -0.3598   10.4287   14.9764 C   0  0  0  0  0  0  0  0  0  0  0  0
   -1.4797    9.7767   15.6421 C   0  0  0  0  0  0  0  0  0  0  0  0
   -1.8207    8.4080   15.3039 C   0  0  0  0  0  0  0  0  0  0  0  0
 20 18  1  0  0  0
 20 21  1  0  0  0
 18 17  1  0  0  0
 18 19  1  0  0  0
 17  1  1  0  0  0
  1  2  1  0  0  0
  2  3  2  0  0  0
  2  5  1  0  0  0
  5  6  2  0  0  0
  5 10  1  0  0  0
  6  7  1  0  0  0
  7  8  2  0  0  0
  8  9  1  0  0  0
  8 11  1  0  0  0
  9 10  2  0  0  0
 11 12  2  0  0  0
 11 13  2  0  0  0
 11 14  1  0  0  0
 21 22  1  0  0  0
 21 24  1  0  0  0
 22 23  2  0  0  0
 23 29  1  0  0  0
 24 25  2  0  0  0
 24 29  1  0  0  0
 25 26  1  0  0  0
 26 27  2  0  0  0
 27 28  1  0  0  0
 28 29  2  0  0  0
  1  4  1  0  0  0
 14 15  1  0  0  0
 14 16  1  0  0  0
M  END
> <minimizedAffinity>
-6.59133

$$$$
1IF8_SBS_A_555


 29 31  0  0  0  0  0  0  0  0999 V2000
   -3.7357    5.9887   14.2080 N   0  0  0  0  0  0  0  0  0  0  0  0
   -4.9175    5.1921   13.9073 C   0  0  0  0  0  0  0  0  0  0  0  0
   -5.6067    5.5132   12.9332 O   0  0  0  0  0  0  0  0  0  0  0  0
   -3.1333    5.7922   14.9615 H   0  0  0  0  0  0  0  0  0  0  0  0
   -5.2179    4.0875   14.7529 C   0  0  0  0  0  0  0  0  0  0  0  0
   -6.4544    4.0257   15.4622 C   0  0  0  0  0  0  0  0  0  0  0  0
   -6.7719    2.9123   16.3078 C   0  0  0  0  0  0  0  0  0  0  0  0
   -5.8437    1.8058   16.4692 C   0  0  0  0  0  0  0  0  0  0  0  0
   -4.6058    1.8918   15.7481 C   0  0  0  0  0  0  0  0  0  0  0  0
   -4.3011    3.0040   14.9149 C   0  0  0  0  0  0  0  0  0  0  0  0
   -6.1359    0.5201   17.3688 S   0  0  0  0  0  0  0  0  0  0  0  0
   -5.7258    0.7978   18.7353 O   0  0  0  0  0  0  0  0  0  0  0  0
   -7.5490    0.2624   17.3442 O   0  0  0  0  0  0  0  0  0  0  0  0
   -5.4613   -0.7669   16.8454 N   0  0  0  0  0  0  0  0  0  0  0  0
   -4.4490   -0.6423   16.8403 H   0  0  0  0  0  0  0  0  0  0  0  0
   -5.7850   -0.9591   15.8974 H   0  0  0  0  0  0  0  0  0  0  0  0
   -3.5151    7.1596   13.2458 C   0  0  0  0  0  0  0  0  0  0  0  0
   -2.0424    7.1069   12.8301 C   0  0  0  0  0  0  0  0  0  0  0  0
   -1.3897    8.4527   13.2500 C   0  0  0  0  0  0  0  0  0  0  0  0
   -1.8905    6.8820   11.2737 C   0  0  0  0  0  0  0  0  0  0  0  0
   -2.6025    5.6385   10.9172 N   0  0  0  0  0  0  0  0  0  0  0  0
   -3.7600    5.5886   10.1235 C   0  0  0  0  0  0  0  0  0  0  0  0
   -4.1641    4.1418   10.0065 C   0  0  0  0  0  0  0  0  0  0  0  0
   -2.2784    4.3602   11.2805 C   0  0  0  0  0  0  0  0  0  0  0  0
   -1.1824    3.8555   12.0908 C   0  0  0  0  0  0  0  0  0  0  0  0
   -1.0586    2.4575   12.3439 C   0  0  0  0  0  0  0  0  0  0  0  0
   -2.0270    1.5359   11.7919 C   0  0  0  0  0  0  0  0  0  0  0  0
   -3.1246    2.0350   10.9745 C   0  0  0  0  0  0  0  0  0  0  0  0
   -3.2442    3.4581   10.7205 C   0  0  0  0  0  0  0  0  0  0  0  0
 20 18  1  0  0  0
 20 21  1  0  0  0
 18 17  1  0  0  0
 18 19  1  0  0  0
 17  1  1  0  0  0
  1  2  1  0  0  0
  2  3  2  0  0  0
  2  5  1  0  0  0
  5  6  2  0  0  0
  5 10  1  0  0  0
  6  7  1  0  0  0
  7  8  2  0  0  0
  8  9  1  0  0  0
  8 11  1  0  0  0
  9 10  2  0  0  0
 11 12  2  0  0  0
 11 13  2  0  0  0
 11 14  1  0  0  0
 21 22  1  0  0  0
 21 24  1  0  0  0
 22 23  2  0  0  0
 23 29  1  0  0  0
 24 25  2  0  0  0
 24 29  1  0  0  0
 25 26  1  0  0  0
 26 27  2  0  0  0
 27 28  1  0  0  0
 28 29  2  0  0  0
  1  4  1  0  0  0
 14 15  1  0  0  0
 14 16  1  0  0  0
M  END
> <minimizedAffinity>
-6.55864

$$$$
1IF8_SBS_A_555


 29 31  0  0  0  0  0  0  0  0999 V2000
   -1.6617    1.1122   11.3213 N   0  0  0  0  0  0  0  0  0  0  0  0
   -1.6354    2.4373   10.7171 C   0  0  0  0  0  0  0  0  0  0  0  0
   -2.5151    2.7239    9.8979 O   0  0  0  0  0  0  0  0  0  0  0  0
   -1.0007    0.8122   11.9864 H   0  0  0  0  0  0  0  0  0  0  0  0
   -0.5963    3.3312   11.0997 C   0  0  0  0  0  0  0  0  0  0  0  0
   -0.8128    4.3121   12.1130 C   0  0  0  0  0  0  0  0  0  0  0  0
    0.2303    5.2101   12.5140 C   0  0  0  0  0  0  0  0  0  0  0  0
    1.5471    5.1496   11.9019 C   0  0  0  0  0  0  0  0  0  0  0  0
    1.7399    4.1569   10.8835 C   0  0  0  0  0  0  0  0  0  0  0  0
    0.6954    3.2739   10.4921 C   0  0  0  0  0  0  0  0  0  0  0  0
    2.7662    6.0943   12.3127 S   0  0  0  0  0  0  0  0  0  0  0  0
    2.2388    7.3328   12.8611 O   0  0  0  0  0  0  0  0  0  0  0  0
    3.5384    5.4236   13.3215 O   0  0  0  0  0  0  0  0  0  0  0  0
    3.7438    6.3818   11.1521 N   0  0  0  0  0  0  0  0  0  0  0  0
    3.2478    6.8610   10.4005 H   0  0  0  0  0  0  0  0  0  0  0  0
    4.1240    5.5025   10.8021 H   0  0  0  0  0  0  0  0  0  0  0  0
   -2.8108    0.2278   10.8282 C   0  0  0  0  0  0  0  0  0  0  0  0
   -3.7505    0.0336   12.0214 C   0  0  0  0  0  0  0  0  0  0  0  0
   -4.4232   -1.3579   11.8650 C   0  0  0  0  0  0  0  0  0  0  0  0
   -4.8447    1.1714   12.0845 C   0  0  0  0  0  0  0  0  0  0  0  0
   -4.6077    1.9701   13.3037 N   0  0  0  0  0  0  0  0  0  0  0  0
   -4.5289    1.4334   14.5990 C   0  0  0  0  0  0  0  0  0  0  0  0
   -4.2832    2.5785   15.5471 C   0  0  0  0  0  0  0  0  0  0  0  0
   -4.4294    3.3236   13.3907 C   0  0  0  0  0  0  0  0  0  0  0  0
   -4.4172    4.3451   12.3567 C   0  0  0  0  0  0  0  0  0  0  0  0
   -4.2205    5.7151   12.7005 C   0  0  0  0  0  0  0  0  0  0  0  0
   -4.0314    6.0917   14.0841 C   0  0  0  0  0  0  0  0  0  0  0  0
   -4.0372    5.0719   15.1244 C   0  0  0  0  0  0  0  0  0  0  0  0
   -4.2372    3.6802   14.7676 C   0  0  0  0  0  0  0  0  0  0  0  0
 20 18  1  0  0  0
 20 21  1  0  0  0
 18 17  1  0  0  0
 18 19  1  0  0  0
 17  1  1  0  0  0
  1  2  1  0  0  0
  2  3  2  0  0  0
  2  5  1  0  0  0
  5  6  2  0  0  0
  5 10  1  0  0  0
  6  7  1  0  0  0
  7  8  2  0  0  0
  8  9  1  0  0  0
  8 11  1  0  0  0
  9 10  2  0  0  0
 11 12  2  0  0  0
 11 13  2  0  0  0
 11 14  1  0  0  0
 21 22  1  0  0  0
 21 24  1  0  0  0
 22 23  2  0  0  0
 23 29  1  0  0  0
 24 25  2  0  0  0
 24 29  1  0  0  0
 25 26  1  0  0  0
 26 27  2  0  0  0
 27 28  1  0  0  0
 28 29  2  0  0  0
  1  4  1  0  0  0
 14 15  1  0  0  0
 14 16  1  0  0  0
M  END
> <minimizedAffinity>
-6.50141

$$$$
1IF8_SBS_A_555


 29 31  0  0  0  0  0  0  0  0999 V2000
   -6.9103    3.7814   15.0631 N   0  0  0  0  0  0  0  0  0  0  0  0
   -6.4371    5.1589   15.0498 C   0  0  0  0  0  0  0  0  0  0  0  0
   -5.9476    5.6189   16.0870 O   0  0  0  0  0  0  0  0  0  0  0  0
   -7.3053    3.3418   14.2757 H   0  0  0  0  0  0  0  0  0  0  0  0
   -6.5662    5.9035   13.8440 C   0  0  0  0  0  0  0  0  0  0  0  0
   -7.8067    6.5142   13.4917 C   0  0  0  0  0  0  0  0  0  0  0  0
   -7.9446    7.2759   12.2850 C   0  0  0  0  0  0  0  0  0  0  0  0
   -6.8221    7.4537   11.3791 C   0  0  0  0  0  0  0  0  0  0  0  0
   -5.5858    6.8280   11.7533 C   0  0  0  0  0  0  0  0  0  0  0  0
   -5.4630    6.0716   12.9520 C   0  0  0  0  0  0  0  0  0  0  0  0
   -6.8886    8.3091   10.0333 S   0  0  0  0  0  0  0  0  0  0  0  0
   -8.2101    8.1621    9.4461 O   0  0  0  0  0  0  0  0  0  0  0  0
   -6.6709    9.6902   10.3636 O   0  0  0  0  0  0  0  0  0  0  0  0
   -5.7911    7.9399    9.0112 N   0  0  0  0  0  0  0  0  0  0  0  0
   -5.8959    6.9628    8.7378 H   0  0  0  0  0  0  0  0  0  0  0  0
   -4.8729    8.0781    9.4334 H   0  0  0  0  0  0  0  0  0  0  0  0
   -6.7375    3.0787   16.4130 C   0  0  0  0  0  0  0  0  0  0  0  0
   -6.0741    1.7307   16.1176 C   0  0  0  0  0  0  0  0  0  0  0  0
   -6.5030    0.7433   17.2376 C   0  0  0  0  0  0  0  0  0  0  0  0
   -4.5003    1.8610   16.0701 C   0  0  0  0  0  0  0  0  0  0  0  0
   -4.1075    2.1849   14.6840 N   0  0  0  0  0  0  0  0  0  0  0  0
   -4.4597    1.4182   13.5614 C   0  0  0  0  0  0  0  0  0  0  0  0
   -3.8601    2.0879   12.3521 C   0  0  0  0  0  0  0  0  0  0  0  0
   -3.3589    3.2475   14.2576 C   0  0  0  0  0  0  0  0  0  0  0  0
   -2.7491    4.3358   15.0036 C   0  0  0  0  0  0  0  0  0  0  0  0
   -1.9925    5.3373   14.3266 C   0  0  0  0  0  0  0  0  0  0  0  0
   -1.8306    5.2718   12.8908 C   0  0  0  0  0  0  0  0  0  0  0  0
   -2.4439    4.1865   12.1370 C   0  0  0  0  0  0  0  0  0  0  0  0
   -3.2127    3.1715   12.8318 C   0  0  0  0  0  0  0  0  0  0  0  0
 20 18  1  0  0  0
 20 21  1  0  0  0
 18 17  1  0  0  0
 18 19  1  0  0  0
 17  1  1  0  0  0
  1  2  1  0  0  0
  2  3  2  0  0  0
  2  5  1  0  0  0
  5  6  2  0  0  0
  5 10  1  0  0  0
  6  7  1  0  0  0
  7  8  2  0  0  0
  8  9  1  0  0  0
  8 11  1  0  0  0
  9 10  2  0  0  0
 11 12  2  0  0  0
 11 13  2  0  0  0
 11 14  1  0  0  0
 21 22  1  0  0  0
 21 24  1  0  0  0
 22 23  2  0  0  0
 23 29  1  0  0  0
 24 25  2  0  0  0
 24 29  1  0  0  0
 25 26  1  0  0  0
 26 27  2  0  0  0
 27 28  1  0  0  0
 28 29  2  0  0  0
  1  4  1  0  0  0
 14 15  1  0  0  0
 14 16  1  0  0  0
M  END
> <minimizedAffinity>
-6.40229

$$$$
