4BJ8_BTN_A_1123


 19 20  0  0  0  0  0  0  0  0999 V2000
  199.0400   37.1942   16.3066 C   0  0  0  0  0  0  0  0  0  0  0  0
  200.2658   38.4377   16.6126 S   0  0  0  0  0  0  0  0  0  0  0  0
  201.1855   37.2323   17.5260 C   0  0  0  0  0  0  0  0  0  0  0  0
  201.1692   36.0025   16.6402 C   0  0  0  0  0  0  0  0  0  0  0  0
  202.1969   36.0339   15.6085 N   0  0  0  0  0  0  0  0  0  0  0  0
  201.6960   36.0572   14.3907 C   0  0  0  0  0  0  0  0  0  0  0  0
  202.3600   36.0433   13.3704 O   0  0  0  0  0  0  0  0  0  0  0  0
  200.3650   36.0888   14.4555 N   0  0  0  0  0  0  0  0  0  0  0  0
  199.8758   36.0111   15.8350 C   0  0  0  0  0  0  0  0  0  0  0  0
  203.1624   36.0373   15.8010 H   0  0  0  0  0  0  0  0  0  0  0  0
  199.7784   36.1565   13.6678 H   0  0  0  0  0  0  0  0  0  0  0  0
  197.9616   37.6114   15.3145 C   0  0  0  0  0  0  0  0  0  0  0  0
  198.1865   39.0588   14.8164 C   0  0  0  0  0  0  0  0  0  0  0  0
  197.9956   39.1708   13.3079 C   0  0  0  0  0  0  0  0  0  0  0  0
  199.1337   39.8972   12.6138 C   0  0  0  0  0  0  0  0  0  0  0  0
  200.4180   39.1121   12.6175 C   0  0  0  0  0  0  0  0  0  0  0  0
  201.4005   39.5337   13.2643 O   0  0  0  0  0  0  0  0  0  0  0  0
  200.4307   38.0424   11.9607 O   0  0  0  0  0  0  0  0  0  0  0  0
  199.6658   37.7710   11.4924 H   0  0  0  0  0  0  0  0  0  0  0  0
 16 17  2  0  0  0
 16 18  1  0  0  0
 16 15  1  0  0  0
 15 14  1  0  0  0
 14 13  1  0  0  0
 13 12  1  0  0  0
 12  1  1  0  0  0
  1  2  1  0  0  0
  1  9  1  0  0  0
  2  3  1  0  0  0
  3  4  1  0  0  0
  4  5  1  0  0  0
  4  9  1  0  0  0
  5  6  1  0  0  0
  6  7  2  0  0  0
  6  8  1  0  0  0
  8  9  1  0  0  0
 18 19  1  0  0  0
  5 10  1  0  0  0
  8 11  1  0  0  0
M  END
> <minimizedAffinity>
-0.09854

$$$$
4BJ8_BTN_A_1123


 19 20  0  0  0  0  0  0  0  0999 V2000
  198.1294   37.2423   16.8849 C   0  0  0  0  0  0  0  0  0  0  0  0
  198.9872   38.4925   17.8034 S   0  0  0  0  0  0  0  0  0  0  0  0
  199.2058   37.3128   19.1048 C   0  0  0  0  0  0  0  0  0  0  0  0
  199.6729   36.0579   18.3947 C   0  0  0  0  0  0  0  0  0  0  0  0
  201.1047   36.0581   18.1275 N   0  0  0  0  0  0  0  0  0  0  0  0
  201.3831   36.0468   16.8403 C   0  0  0  0  0  0  0  0  0  0  0  0
  202.5081   36.0025   16.3772 O   0  0  0  0  0  0  0  0  0  0  0  0
  200.2507   36.0820   16.1380 N   0  0  0  0  0  0  0  0  0  0  0  0
  199.0644   36.0450   16.9980 C   0  0  0  0  0  0  0  0  0  0  0  0
  201.7909   36.0658   18.8334 H   0  0  0  0  0  0  0  0  0  0  0  0
  200.2152   36.1277   15.1552 H   0  0  0  0  0  0  0  0  0  0  0  0
  197.8109   37.6320   15.4469 C   0  0  0  0  0  0  0  0  0  0  0  0
  198.1796   39.1090   15.1706 C   0  0  0  0  0  0  0  0  0  0  0  0
  199.0087   39.2535   13.8993 C   0  0  0  0  0  0  0  0  0  0  0  0
  200.3160   39.9934   14.1193 C   0  0  0  0  0  0  0  0  0  0  0  0
  201.3791   39.1304   14.7444 C   0  0  0  0  0  0  0  0  0  0  0  0
  201.9239   39.4918   15.8093 O   0  0  0  0  0  0  0  0  0  0  0  0
  201.6623   38.0607   14.1518 O   0  0  0  0  0  0  0  0  0  0  0  0
  201.2236   37.8362   13.3549 H   0  0  0  0  0  0  0  0  0  0  0  0
 16 17  2  0  0  0
 16 18  1  0  0  0
 16 15  1  0  0  0
 15 14  1  0  0  0
 14 13  1  0  0  0
 13 12  1  0  0  0
 12  1  1  0  0  0
  1  2  1  0  0  0
  1  9  1  0  0  0
  2  3  1  0  0  0
  3  4  1  0  0  0
  4  5  1  0  0  0
  4  9  1  0  0  0
  5  6  1  0  0  0
  6  7  2  0  0  0
  6  8  1  0  0  0
  8  9  1  0  0  0
 18 19  1  0  0  0
  5 10  1  0  0  0
  8 11  1  0  0  0
M  END
> <minimizedAffinity>
-0.09728

$$$$
4BJ8_BTN_A_1123


 19 20  0  0  0  0  0  0  0  0999 V2000
  199.9089   40.3659   15.0694 C   0  0  0  0  0  0  0  0  0  0  0  0
  198.4643   39.3404   15.0073 S   0  0  0  0  0  0  0  0  0  0  0  0
  197.7809   40.4646   13.8231 C   0  0  0  0  0  0  0  0  0  0  0  0
  198.9120   40.7057   12.8434 C   0  0  0  0  0  0  0  0  0  0  0  0
  199.0130   39.6664   11.8280 N   0  0  0  0  0  0  0  0  0  0  0  0
  200.1468   38.9993   11.8925 C   0  0  0  0  0  0  0  0  0  0  0  0
  200.4726   38.1148   11.1220 O   0  0  0  0  0  0  0  0  0  0  0  0
  200.8720   39.4488   12.9165 N   0  0  0  0  0  0  0  0  0  0  0  0
  200.2307   40.5782   13.5957 C   0  0  0  0  0  0  0  0  0  0  0  0
  198.3093   39.4823   11.1646 H   0  0  0  0  0  0  0  0  0  0  0  0
  201.7384   39.0663   13.1856 H   0  0  0  0  0  0  0  0  0  0  0  0
  201.0637   39.7701   15.8649 C   0  0  0  0  0  0  0  0  0  0  0  0
  200.6431   38.4578   16.5681 C   0  0  0  0  0  0  0  0  0  0  0  0
  201.6440   37.3366   16.3122 C   0  0  0  0  0  0  0  0  0  0  0  0
  201.0032   36.0802   15.7504 C   0  0  0  0  0  0  0  0  0  0  0  0
  200.6991   36.1853   14.2799 C   0  0  0  0  0  0  0  0  0  0  0  0
  199.5316   36.0026   13.8738 O   0  0  0  0  0  0  0  0  0  0  0  0
  201.6584   36.4679   13.5212 O   0  0  0  0  0  0  0  0  0  0  0  0
  202.5157   36.5951   13.8773 H   0  0  0  0  0  0  0  0  0  0  0  0
 16 17  2  0  0  0
 16 18  1  0  0  0
 16 15  1  0  0  0
 15 14  1  0  0  0
 14 13  1  0  0  0
 13 12  1  0  0  0
 12  1  1  0  0  0
  1  2  1  0  0  0
  1  9  1  0  0  0
  2  3  1  0  0  0
  3  4  1  0  0  0
  4  5  1  0  0  0
  4  9  1  0  0  0
  5  6  1  0  0  0
  6  7  2  0  0  0
  6  8  1  0  0  0
  8  9  1  0  0  0
 18 19  1  0  0  0
  5 10  1  0  0  0
  8 11  1  0  0  0
M  END
> <minimizedAffinity>
-0.07592

$$$$
4BJ8_BTN_A_1123


 19 20  0  0  0  0  0  0  0  0999 V2000
  196.0970   37.5876   16.4250 C   0  0  0  0  0  0  0  0  0  0  0  0
  197.2326   38.7308   17.1641 S   0  0  0  0  0  0  0  0  0  0  0  0
  197.6238   37.4873   18.3616 C   0  0  0  0  0  0  0  0  0  0  0  0
  197.8220   36.2291   17.5402 C   0  0  0  0  0  0  0  0  0  0  0  0
  199.1589   36.1293   16.9705 N   0  0  0  0  0  0  0  0  0  0  0  0
  199.1545   36.1473   15.6537 C   0  0  0  0  0  0  0  0  0  0  0  0
  200.1472   36.0346   14.9580 O   0  0  0  0  0  0  0  0  0  0  0  0
  197.9054   36.2975   15.2131 N   0  0  0  0  0  0  0  0  0  0  0  0
  196.9309   36.3182   16.3076 C   0  0  0  0  0  0  0  0  0  0  0  0
  199.9779   36.0562   17.5119 H   0  0  0  0  0  0  0  0  0  0  0  0
  197.6653   36.3844   14.2623 H   0  0  0  0  0  0  0  0  0  0  0  0
  195.5132   38.0572   15.0984 C   0  0  0  0  0  0  0  0  0  0  0  0
  195.9470   39.5068   14.7757 C   0  0  0  0  0  0  0  0  0  0  0  0
  196.4549   39.6365   13.3440 C   0  0  0  0  0  0  0  0  0  0  0  0
  197.8376   40.2569   13.2544 C   0  0  0  0  0  0  0  0  0  0  0  0
  198.9332   39.3059   13.6558 C   0  0  0  0  0  0  0  0  0  0  0  0
  199.7066   39.6097   14.5890 O   0  0  0  0  0  0  0  0  0  0  0  0
  199.0074   38.2256   13.0208 O   0  0  0  0  0  0  0  0  0  0  0  0
  198.4019   38.0465   12.3285 H   0  0  0  0  0  0  0  0  0  0  0  0
 16 17  2  0  0  0
 16 18  1  0  0  0
 16 15  1  0  0  0
 15 14  1  0  0  0
 14 13  1  0  0  0
 13 12  1  0  0  0
 12  1  1  0  0  0
  1  2  1  0  0  0
  1  9  1  0  0  0
  2  3  1  0  0  0
  3  4  1  0  0  0
  4  5  1  0  0  0
  4  9  1  0  0  0
  5  6  1  0  0  0
  6  7  2  0  0  0
  6  8  1  0  0  0
  8  9  1  0  0  0
 18 19  1  0  0  0
  5 10  1  0  0  0
  8 11  1  0  0  0
M  END
> <minimizedAffinity>
-0.04652

$$$$
4BJ8_BTN_A_1123


 19 20  0  0  0  0  0  0  0  0999 V2000
  200.2198   38.1801   16.5060 C   0  0  0  0  0  0  0  0  0  0  0  0
  199.3813   37.2075   17.7282 S   0  0  0  0  0  0  0  0  0  0  0  0
  200.6695   36.0030   17.5780 C   0  0  0  0  0  0  0  0  0  0  0  0
  201.9469   36.8180   17.6135 C   0  0  0  0  0  0  0  0  0  0  0  0
  202.3769   37.1383   18.9678 N   0  0  0  0  0  0  0  0  0  0  0  0
  202.3727   38.4325   19.2113 C   0  0  0  0  0  0  0  0  0  0  0  0
  202.7325   38.9397   20.2580 O   0  0  0  0  0  0  0  0  0  0  0  0
  201.9263   39.0874   18.1395 N   0  0  0  0  0  0  0  0  0  0  0  0
  201.6558   38.1882   17.0141 C   0  0  0  0  0  0  0  0  0  0  0  0
  202.6423   36.4599   19.6301 H   0  0  0  0  0  0  0  0  0  0  0  0
  201.7936   40.0624   18.1076 H   0  0  0  0  0  0  0  0  0  0  0  0
  199.6361   39.5736   16.3089 C   0  0  0  0  0  0  0  0  0  0  0  0
  198.4661   39.8357   17.2867 C   0  0  0  0  0  0  0  0  0  0  0  0
  198.7748   40.9866   18.2378 C   0  0  0  0  0  0  0  0  0  0  0  0
  199.0020   40.5344   19.6692 C   0  0  0  0  0  0  0  0  0  0  0  0
  200.0568   41.3413   20.3777 C   0  0  0  0  0  0  0  0  0  0  0  0
  199.8493   41.7473   21.5411 O   0  0  0  0  0  0  0  0  0  0  0  0
  201.1207   41.5609   19.7487 O   0  0  0  0  0  0  0  0  0  0  0  0
  201.2257   41.2335   18.8771 H   0  0  0  0  0  0  0  0  0  0  0  0
 16 17  2  0  0  0
 16 18  1  0  0  0
 16 15  1  0  0  0
 15 14  1  0  0  0
 14 13  1  0  0  0
 13 12  1  0  0  0
 12  1  1  0  0  0
  1  2  1  0  0  0
  1  9  1  0  0  0
  2  3  1  0  0  0
  3  4  1  0  0  0
  4  5  1  0  0  0
  4  9  1  0  0  0
  5  6  1  0  0  0
  6  7  2  0  0  0
  6  8  1  0  0  0
  8  9  1  0  0  0
 18 19  1  0  0  0
  5 10  1  0  0  0
  8 11  1  0  0  0
M  END
> <minimizedAffinity>
-0.02947

$$$$
4BJ8_BTN_A_1123


 19 20  0  0  0  0  0  0  0  0999 V2000
  197.1023   38.8953   18.3944 C   0  0  0  0  0  0  0  0  0  0  0  0
  196.6655   39.6649   16.8583 S   0  0  0  0  0  0  0  0  0  0  0  0
  196.8424   41.2356   17.6549 C   0  0  0  0  0  0  0  0  0  0  0  0
  198.1507   41.1236   18.4118 C   0  0  0  0  0  0  0  0  0  0  0  0
  199.3131   41.3939   17.5767 N   0  0  0  0  0  0  0  0  0  0  0  0
  200.1049   40.3490   17.4516 C   0  0  0  0  0  0  0  0  0  0  0  0
  201.1559   40.3484   16.8371 O   0  0  0  0  0  0  0  0  0  0  0  0
  199.5816   39.3112   18.1041 N   0  0  0  0  0  0  0  0  0  0  0  0
  198.3480   39.6667   18.8114 C   0  0  0  0  0  0  0  0  0  0  0  0
  199.4881   42.2644   17.1515 H   0  0  0  0  0  0  0  0  0  0  0  0
  199.9778   38.4100   18.1103 H   0  0  0  0  0  0  0  0  0  0  0  0
  197.3218   37.3907   18.2988 C   0  0  0  0  0  0  0  0  0  0  0  0
  196.9318   36.8541   16.9010 C   0  0  0  0  0  0  0  0  0  0  0  0
  198.0421   36.0026   16.2954 C   0  0  0  0  0  0  0  0  0  0  0  0
  198.4789   36.4792   14.9217 C   0  0  0  0  0  0  0  0  0  0  0  0
  199.4306   37.6439   14.9814 C   0  0  0  0  0  0  0  0  0  0  0  0
  199.1729   38.6882   14.3453 O   0  0  0  0  0  0  0  0  0  0  0  0
  200.4548   37.5037   15.6935 O   0  0  0  0  0  0  0  0  0  0  0  0
  200.6010   36.6989   16.1506 H   0  0  0  0  0  0  0  0  0  0  0  0
 16 17  2  0  0  0
 16 18  1  0  0  0
 16 15  1  0  0  0
 15 14  1  0  0  0
 14 13  1  0  0  0
 13 12  1  0  0  0
 12  1  1  0  0  0
  1  2  1  0  0  0
  1  9  1  0  0  0
  2  3  1  0  0  0
  3  4  1  0  0  0
  4  5  1  0  0  0
  4  9  1  0  0  0
  5  6  1  0  0  0
  6  7  2  0  0  0
  6  8  1  0  0  0
  8  9  1  0  0  0
 18 19  1  0  0  0
  5 10  1  0  0  0
  8 11  1  0  0  0
M  END
> <minimizedAffinity>
-0.02241

$$$$
4BJ8_BTN_A_1123


 19 20  0  0  0  0  0  0  0  0999 V2000
  196.3184   41.5550   15.8171 C   0  0  0  0  0  0  0  0  0  0  0  0
  197.9193   41.3619   15.0807 S   0  0  0  0  0  0  0  0  0  0  0  0
  198.5192   42.6105   16.1826 C   0  0  0  0  0  0  0  0  0  0  0  0
  197.9560   42.2163   17.5334 C   0  0  0  0  0  0  0  0  0  0  0  0
  198.7590   41.2062   18.2089 N   0  0  0  0  0  0  0  0  0  0  0  0
  198.1083   40.0758   18.3911 C   0  0  0  0  0  0  0  0  0  0  0  0
  198.5598   39.1043   18.9697 O   0  0  0  0  0  0  0  0  0  0  0  0
  196.8912   40.1696   17.8558 N   0  0  0  0  0  0  0  0  0  0  0  0
  196.6286   41.5033   17.3076 C   0  0  0  0  0  0  0  0  0  0  0  0
  199.6885   41.3528   18.4983 H   0  0  0  0  0  0  0  0  0  0  0  0
  196.2434   39.4286   17.8315 H   0  0  0  0  0  0  0  0  0  0  0  0
  195.2968   40.5161   15.3717 C   0  0  0  0  0  0  0  0  0  0  0  0
  195.8612   39.6220   14.2422 C   0  0  0  0  0  0  0  0  0  0  0  0
  195.6477   38.1414   14.5368 C   0  0  0  0  0  0  0  0  0  0  0  0
  196.9301   37.3306   14.4835 C   0  0  0  0  0  0  0  0  0  0  0  0
  197.7745   37.4885   15.7196 C   0  0  0  0  0  0  0  0  0  0  0  0
  198.9603   37.8688   15.6159 O   0  0  0  0  0  0  0  0  0  0  0  0
  197.2248   37.2319   16.8186 O   0  0  0  0  0  0  0  0  0  0  0  0
  196.3315   36.9497   16.8410 H   0  0  0  0  0  0  0  0  0  0  0  0
 16 17  2  0  0  0
 16 18  1  0  0  0
 16 15  1  0  0  0
 15 14  1  0  0  0
 14 13  1  0  0  0
 13 12  1  0  0  0
 12  1  1  0  0  0
  1  2  1  0  0  0
  1  9  1  0  0  0
  2  3  1  0  0  0
  3  4  1  0  0  0
  4  5  1  0  0  0
  4  9  1  0  0  0
  5  6  1  0  0  0
  6  7  2  0  0  0
  6  8  1  0  0  0
  8  9  1  0  0  0
 18 19  1  0  0  0
  5 10  1  0  0  0
  8 11  1  0  0  0
M  END
> <minimizedAffinity>
-0.00817

$$$$
4BJ8_BTN_A_1123


 19 20  0  0  0  0  0  0  0  0999 V2000
  193.3091   41.7133   14.7450 C   0  0  0  0  0  0  0  0  0  0  0  0
  192.2358   43.1231   14.6894 S   0  0  0  0  0  0  0  0  0  0  0  0
  191.1571   42.2808   15.8119 C   0  0  0  0  0  0  0  0  0  0  0  0
  192.0838   41.7374   16.8811 C   0  0  0  0  0  0  0  0  0  0  0  0
  192.4096   42.7231   17.9026 N   0  0  0  0  0  0  0  0  0  0  0  0
  193.6921   43.0214   17.9325 C   0  0  0  0  0  0  0  0  0  0  0  0
  194.2049   43.7868   18.7283 O   0  0  0  0  0  0  0  0  0  0  0  0
  194.3288   42.3528   16.9711 N   0  0  0  0  0  0  0  0  0  0  0  0
  193.4356   41.4495   16.2400 C   0  0  0  0  0  0  0  0  0  0  0  0
  191.7427   43.1235   18.5061 H   0  0  0  0  0  0  0  0  0  0  0  0
  195.2882   42.4541   16.7747 H   0  0  0  0  0  0  0  0  0  0  0  0
  194.6481   41.9202   14.0481 C   0  0  0  0  0  0  0  0  0  0  0  0
  194.6886   43.2740   13.3003 C   0  0  0  0  0  0  0  0  0  0  0  0
  195.9494   44.0635   13.6340 C   0  0  0  0  0  0  0  0  0  0  0  0
  195.6600   45.4634   14.1453 C   0  0  0  0  0  0  0  0  0  0  0  0
  195.2370   45.4834   15.5897 C   0  0  0  0  0  0  0  0  0  0  0  0
  194.1562   46.0217   15.9117 O   0  0  0  0  0  0  0  0  0  0  0  0
  196.0085   44.9352   16.4143 O   0  0  0  0  0  0  0  0  0  0  0  0
  196.8082   44.5455   16.1202 H   0  0  0  0  0  0  0  0  0  0  0  0
 16 17  2  0  0  0
 16 18  1  0  0  0
 16 15  1  0  0  0
 15 14  1  0  0  0
 14 13  1  0  0  0
 13 12  1  0  0  0
 12  1  1  0  0  0
  1  2  1  0  0  0
  1  9  1  0  0  0
  2  3  1  0  0  0
  3  4  1  0  0  0
  4  5  1  0  0  0
  4  9  1  0  0  0
  5  6  1  0  0  0
  6  7  2  0  0  0
  6  8  1  0  0  0
  8  9  1  0  0  0
 18 19  1  0  0  0
  5 10  1  0  0  0
  8 11  1  0  0  0
M  END
> <minimizedAffinity>
-0.00641

$$$$
4BJ8_BTN_A_1123


 19 20  0  0  0  0  0  0  0  0999 V2000
  194.9198   40.1941   17.1967 C   0  0  0  0  0  0  0  0  0  0  0  0
  193.9122   39.0381   16.3074 S   0  0  0  0  0  0  0  0  0  0  0  0
  195.0933   37.7815   16.7062 C   0  0  0  0  0  0  0  0  0  0  0  0
  195.3657   37.9824   18.1835 C   0  0  0  0  0  0  0  0  0  0  0  0
  194.3705   37.3448   19.0347 N   0  0  0  0  0  0  0  0  0  0  0  0
  193.6901   38.2091   19.7589 C   0  0  0  0  0  0  0  0  0  0  0  0
  192.8367   37.9077   20.5732 O   0  0  0  0  0  0  0  0  0  0  0  0
  194.0876   39.4475   19.4668 N   0  0  0  0  0  0  0  0  0  0  0  0
  195.1927   39.4617   18.5042 C   0  0  0  0  0  0  0  0  0  0  0  0
  194.2223   36.3720   19.0654 H   0  0  0  0  0  0  0  0  0  0  0  0
  193.6853   40.2588   19.8531 H   0  0  0  0  0  0  0  0  0  0  0  0
  194.2788   41.5629   17.3882 C   0  0  0  0  0  0  0  0  0  0  0  0
  192.9468   41.6732   16.6088 C   0  0  0  0  0  0  0  0  0  0  0  0
  191.8256   42.2201   17.4854 C   0  0  0  0  0  0  0  0  0  0  0  0
  190.6018   41.3224   17.5195 C   0  0  0  0  0  0  0  0  0  0  0  0
  190.7785   40.1253   18.4148 C   0  0  0  0  0  0  0  0  0  0  0  0
  190.6175   38.9759   17.9519 O   0  0  0  0  0  0  0  0  0  0  0  0
  191.0960   40.3514   19.6081 O   0  0  0  0  0  0  0  0  0  0  0  0
  191.2044   41.2335   19.9050 H   0  0  0  0  0  0  0  0  0  0  0  0
 16 17  2  0  0  0
 16 18  1  0  0  0
 16 15  1  0  0  0
 15 14  1  0  0  0
 14 13  1  0  0  0
 13 12  1  0  0  0
 12  1  1  0  0  0
  1  2  1  0  0  0
  1  9  1  0  0  0
  2  3  1  0  0  0
  3  4  1  0  0  0
  4  5  1  0  0  0
  4  9  1  0  0  0
  5  6  1  0  0  0
  6  7  2  0  0  0
  6  8  1  0  0  0
  8  9  1  0  0  0
 18 19  1  0  0  0
  5 10  1  0  0  0
  8 11  1  0  0  0
M  END
> <minimizedAffinity>
-0.00593

$$$$
4BJ8_BTN_A_1123


 19 20  0  0  0  0  0  0  0  0999 V2000
  196.5451   38.3752   18.6930 C   0  0  0  0  0  0  0  0  0  0  0  0
  195.3987   38.0826   20.0131 S   0  0  0  0  0  0  0  0  0  0  0  0
  195.6904   36.3483   19.8123 C   0  0  0  0  0  0  0  0  0  0  0  0
  197.1987   36.2333   19.7177 C   0  0  0  0  0  0  0  0  0  0  0  0
  197.8479   36.2117   21.0214 N   0  0  0  0  0  0  0  0  0  0  0  0
  198.6404   37.2459   21.2134 C   0  0  0  0  0  0  0  0  0  0  0  0
  199.3194   37.4204   22.2087 O   0  0  0  0  0  0  0  0  0  0  0  0
  198.5861   38.0531   20.1541 N   0  0  0  0  0  0  0  0  0  0  0  0
  197.7366   37.5126   19.0889 C   0  0  0  0  0  0  0  0  0  0  0  0
  197.7092   35.5002   21.6876 H   0  0  0  0  0  0  0  0  0  0  0  0
  199.0616   38.9130   20.0940 H   0  0  0  0  0  0  0  0  0  0  0  0
  196.8982   39.8428   18.4866 C   0  0  0  0  0  0  0  0  0  0  0  0
  196.0347   40.7598   19.3851 C   0  0  0  0  0  0  0  0  0  0  0  0
  196.8886   41.7700   20.1434 C   0  0  0  0  0  0  0  0  0  0  0  0
  196.6670   41.7322   21.6448 C   0  0  0  0  0  0  0  0  0  0  0  0
  197.3725   40.5820   22.3119 C   0  0  0  0  0  0  0  0  0  0  0  0
  196.7204   39.7737   23.0068 O   0  0  0  0  0  0  0  0  0  0  0  0
  198.6098   40.4884   22.1217 O   0  0  0  0  0  0  0  0  0  0  0  0
  199.0516   41.1220   21.5913 H   0  0  0  0  0  0  0  0  0  0  0  0
 16 17  2  0  0  0
 16 18  1  0  0  0
 16 15  1  0  0  0
 15 14  1  0  0  0
 14 13  1  0  0  0
 13 12  1  0  0  0
 12  1  1  0  0  0
  1  2  1  0  0  0
  1  9  1  0  0  0
  2  3  1  0  0  0
  3  4  1  0  0  0
  4  5  1  0  0  0
  4  9  1  0  0  0
  5  6  1  0  0  0
  6  7  2  0  0  0
  6  8  1  0  0  0
  8  9  1  0  0  0
 18 19  1  0  0  0
  5 10  1  0  0  0
  8 11  1  0  0  0
M  END
> <minimizedAffinity>
-0.00586

$$$$
