2C3I_IYZ_B_1306


 24 27  0  0  0  0  0  0  0  0999 V2000
   25.7819   48.0000   -1.3970 C   0  0  0  0  0  0  0  0  0  0  0  0
   25.4858   46.6552   -1.2908 C   0  0  0  0  0  0  0  0  0  0  0  0
   25.3171   46.1403   -0.0207 C   0  0  0  0  0  0  0  0  0  0  0  0
   25.9212   48.8117   -0.3382 N   0  0  0  0  0  0  0  0  0  0  0  0
   25.7641   48.3648    0.7981 N   0  0  0  0  0  0  0  0  0  0  0  0
   25.4470   47.0132    1.0260 C   0  0  0  0  0  0  0  0  0  0  0  0
   25.3547   46.8295    2.3153 N   0  0  0  0  0  0  0  0  0  0  0  0
   25.5881   47.9724    2.9420 C   0  0  0  0  0  0  0  0  0  0  0  0
   25.8170   48.9173    2.0419 C   0  0  0  0  0  0  0  0  0  0  0  0
   26.1463   50.2246    2.3001 C   0  0  0  0  0  0  0  0  0  0  0  0
   26.6380   51.0806    1.3279 C   0  0  0  0  0  0  0  0  0  0  0  0
   26.0220   50.6418    3.6196 C   0  0  0  0  0  0  0  0  0  0  0  0
   26.3648   51.9315    4.0043 C   0  0  0  0  0  0  0  0  0  0  0  0
   26.8303   52.7901    3.0285 C   0  0  0  0  0  0  0  0  0  0  0  0
   26.9501   52.3589    1.7151 C   0  0  0  0  0  0  0  0  0  0  0  0
   27.4770   53.3688    0.7403 C   0  0  0  0  0  0  0  0  0  0  0  0
   27.3027   53.2222   -0.7762 C   0  0  0  0  0  0  0  0  0  0  0  0
   28.0753   54.3203    1.2220 O   0  0  0  0  0  0  0  0  0  0  0  0
   25.9573   48.4780   -2.6031 N   0  0  0  0  0  0  0  0  0  0  0  0
   25.7565   47.9116   -3.3830 H   0  0  0  0  0  0  0  0  0  0  0  0
   26.4506   49.8509   -2.8109 C   0  0  0  0  0  0  0  0  0  0  0  0
   28.8896   50.6148   -2.8381 C   0  0  0  0  0  0  0  0  0  0  0  0
   28.2649   51.0401   -4.1612 C   0  0  0  0  0  0  0  0  0  0  0  0
   27.8176   49.7443   -3.4887 C   0  0  0  0  0  0  0  0  0  0  0  0
 22 23  1  0  0  0
 22 24  1  0  0  0
 23 24  1  0  0  0
 24 21  1  0  0  0
 21 19  1  0  0  0
 19  1  1  0  0  0
  1  2  1  0  0  0
  1  4  2  0  0  0
  2  3  2  0  0  0
  3  6  1  0  0  0
  4  5  1  0  0  0
  5  6  1  0  0  0
  5  9  1  0  0  0
  6  7  2  0  0  0
  7  8  1  0  0  0
  8  9  2  0  0  0
  9 10  1  0  0  0
 10 11  2  0  0  0
 10 12  1  0  0  0
 11 15  1  0  0  0
 12 13  2  0  0  0
 13 14  1  0  0  0
 14 15  2  0  0  0
 15 16  1  0  0  0
 16 17  1  0  0  0
 16 18  2  0  0  0
 19 20  1  0  0  0
M  END
> <minimizedAffinity>
-9.15862

$$$$
2C3I_IYZ_B_1306


 24 27  0  0  0  0  0  0  0  0999 V2000
   25.3706   48.9783   -2.4613 C   0  0  0  0  0  0  0  0  0  0  0  0
   25.2925   47.6923   -2.9590 C   0  0  0  0  0  0  0  0  0  0  0  0
   25.4001   46.6539   -2.0553 C   0  0  0  0  0  0  0  0  0  0  0  0
   25.5543   49.2579   -1.1624 N   0  0  0  0  0  0  0  0  0  0  0  0
   25.6426   48.3397   -0.3471 N   0  0  0  0  0  0  0  0  0  0  0  0
   25.5639   46.9905   -0.7384 C   0  0  0  0  0  0  0  0  0  0  0  0
   25.7012   46.2498    0.3279 N   0  0  0  0  0  0  0  0  0  0  0  0
   25.8615   47.0270    1.3879 C   0  0  0  0  0  0  0  0  0  0  0  0
   25.8082   48.2940    1.0040 C   0  0  0  0  0  0  0  0  0  0  0  0
   25.9809   49.3950    1.8053 C   0  0  0  0  0  0  0  0  0  0  0  0
   26.3977   50.6220    1.3147 C   0  0  0  0  0  0  0  0  0  0  0  0
   25.7765   49.2043    3.1663 C   0  0  0  0  0  0  0  0  0  0  0  0
   25.9614   50.2374    4.0759 C   0  0  0  0  0  0  0  0  0  0  0  0
   26.3519   51.4659    3.5813 C   0  0  0  0  0  0  0  0  0  0  0  0
   26.5533   51.6410    2.2196 C   0  0  0  0  0  0  0  0  0  0  0  0
   26.9877   53.0111    1.7933 C   0  0  0  0  0  0  0  0  0  0  0  0
   27.5928   53.2935    0.4128 C   0  0  0  0  0  0  0  0  0  0  0  0
   26.8479   53.9013    2.6199 O   0  0  0  0  0  0  0  0  0  0  0  0
   25.2848   49.9578   -3.3257 N   0  0  0  0  0  0  0  0  0  0  0  0
   25.6341   49.8319   -4.2375 H   0  0  0  0  0  0  0  0  0  0  0  0
   24.6731   51.2459   -2.9544 C   0  0  0  0  0  0  0  0  0  0  0  0
   26.8656   52.5343   -3.2119 C   0  0  0  0  0  0  0  0  0  0  0  0
   25.7885   53.5413   -2.8276 C   0  0  0  0  0  0  0  0  0  0  0  0
   25.4331   52.3419   -3.7031 C   0  0  0  0  0  0  0  0  0  0  0  0
 22 23  1  0  0  0
 22 24  1  0  0  0
 23 24  1  0  0  0
 24 21  1  0  0  0
 21 19  1  0  0  0
 19  1  1  0  0  0
  1  2  1  0  0  0
  1  4  2  0  0  0
  2  3  2  0  0  0
  3  6  1  0  0  0
  4  5  1  0  0  0
  5  6  1  0  0  0
  5  9  1  0  0  0
  6  7  2  0  0  0
  7  8  1  0  0  0
  8  9  2  0  0  0
  9 10  1  0  0  0
 10 11  2  0  0  0
 10 12  1  0  0  0
 11 15  1  0  0  0
 12 13  2  0  0  0
 13 14  1  0  0  0
 14 15  2  0  0  0
 15 16  1  0  0  0
 16 17  1  0  0  0
 16 18  2  0  0  0
 19 20  1  0  0  0
M  END
> <minimizedAffinity>
-9.07233

$$$$
2C3I_IYZ_B_1306


 24 27  0  0  0  0  0  0  0  0999 V2000
   25.0948   49.5048   -2.7838 C   0  0  0  0  0  0  0  0  0  0  0  0
   24.9829   48.1410   -2.9711 C   0  0  0  0  0  0  0  0  0  0  0  0
   25.3701   47.3228   -1.9284 C   0  0  0  0  0  0  0  0  0  0  0  0
   25.5653   50.0596   -1.6569 N   0  0  0  0  0  0  0  0  0  0  0  0
   25.9049   49.3395   -0.7178 N   0  0  0  0  0  0  0  0  0  0  0  0
   25.8220   47.9369   -0.7914 C   0  0  0  0  0  0  0  0  0  0  0  0
   26.2577   47.4448    0.3367 N   0  0  0  0  0  0  0  0  0  0  0  0
   26.6164   48.4337    1.1408 C   0  0  0  0  0  0  0  0  0  0  0  0
   26.3914   49.5877    0.5299 C   0  0  0  0  0  0  0  0  0  0  0  0
   26.6794   50.8373    1.0193 C   0  0  0  0  0  0  0  0  0  0  0  0
   26.3857   51.2205    2.3181 C   0  0  0  0  0  0  0  0  0  0  0  0
   27.2316   51.7393    0.1181 C   0  0  0  0  0  0  0  0  0  0  0  0
   27.5265   53.0440    0.4918 C   0  0  0  0  0  0  0  0  0  0  0  0
   27.2566   53.4155    1.7938 C   0  0  0  0  0  0  0  0  0  0  0  0
   26.7039   52.5040    2.6821 C   0  0  0  0  0  0  0  0  0  0  0  0
   26.4406   53.0166    4.0661 C   0  0  0  0  0  0  0  0  0  0  0  0
   25.5926   52.2455    5.0850 C   0  0  0  0  0  0  0  0  0  0  0  0
   26.9298   54.1034    4.3396 O   0  0  0  0  0  0  0  0  0  0  0  0
   24.7418   50.2742   -3.7825 N   0  0  0  0  0  0  0  0  0  0  0  0
   23.8184   50.2353   -4.1217 H   0  0  0  0  0  0  0  0  0  0  0  0
   25.7060   51.1974   -4.4065 C   0  0  0  0  0  0  0  0  0  0  0  0
   26.1594   53.7017   -4.6439 C   0  0  0  0  0  0  0  0  0  0  0  0
   26.4157   53.3288   -3.1889 C   0  0  0  0  0  0  0  0  0  0  0  0
   25.3208   52.6141   -3.9774 C   0  0  0  0  0  0  0  0  0  0  0  0
 22 23  1  0  0  0
 22 24  1  0  0  0
 23 24  1  0  0  0
 24 21  1  0  0  0
 21 19  1  0  0  0
 19  1  1  0  0  0
  1  2  1  0  0  0
  1  4  2  0  0  0
  2  3  2  0  0  0
  3  6  1  0  0  0
  4  5  1  0  0  0
  5  6  1  0  0  0
  5  9  1  0  0  0
  6  7  2  0  0  0
  7  8  1  0  0  0
  8  9  2  0  0  0
  9 10  1  0  0  0
 10 11  2  0  0  0
 10 12  1  0  0  0
 11 15  1  0  0  0
 12 13  2  0  0  0
 13 14  1  0  0  0
 14 15  2  0  0  0
 15 16  1  0  0  0
 16 17  1  0  0  0
 16 18  2  0  0  0
 19 20  1  0  0  0
M  END
> <minimizedAffinity>
-9.05418

$$$$
2C3I_IYZ_B_1306


 24 27  0  0  0  0  0  0  0  0999 V2000
   26.5386   50.0021    1.9253 C   0  0  0  0  0  0  0  0  0  0  0  0
   26.6739   50.5821    3.1714 C   0  0  0  0  0  0  0  0  0  0  0  0
   27.0052   51.9218    3.2158 C   0  0  0  0  0  0  0  0  0  0  0  0
   26.7225   50.6688    0.7761 N   0  0  0  0  0  0  0  0  0  0  0  0
   27.0093   51.8657    0.8043 N   0  0  0  0  0  0  0  0  0  0  0  0
   27.1599   52.5638    2.0165 C   0  0  0  0  0  0  0  0  0  0  0  0
   27.4733   53.8000    1.7370 N   0  0  0  0  0  0  0  0  0  0  0  0
   27.5342   53.9539    0.4233 C   0  0  0  0  0  0  0  0  0  0  0  0
   27.2365   52.8016   -0.1589 C   0  0  0  0  0  0  0  0  0  0  0  0
   27.2403   52.5462   -1.5076 C   0  0  0  0  0  0  0  0  0  0  0  0
   26.3379   53.1274   -2.3838 C   0  0  0  0  0  0  0  0  0  0  0  0
   28.1666   51.6122   -1.9548 C   0  0  0  0  0  0  0  0  0  0  0  0
   28.2340   51.2458   -3.2928 C   0  0  0  0  0  0  0  0  0  0  0  0
   27.3506   51.8457   -4.1678 C   0  0  0  0  0  0  0  0  0  0  0  0
   26.4302   52.7760   -3.7063 C   0  0  0  0  0  0  0  0  0  0  0  0
   25.5114   53.3555   -4.7395 C   0  0  0  0  0  0  0  0  0  0  0  0
   25.6326   54.8018   -5.2346 C   0  0  0  0  0  0  0  0  0  0  0  0
   24.6381   52.6107   -5.1613 O   0  0  0  0  0  0  0  0  0  0  0  0
   26.2410   48.7276    1.8907 N   0  0  0  0  0  0  0  0  0  0  0  0
   25.7577   48.3218    2.6463 H   0  0  0  0  0  0  0  0  0  0  0  0
   26.6187   47.8914    0.7376 C   0  0  0  0  0  0  0  0  0  0  0  0
   25.4059   45.7748   -0.0256 C   0  0  0  0  0  0  0  0  0  0  0  0
   25.4958   46.7063   -1.2281 C   0  0  0  0  0  0  0  0  0  0  0  0
   25.3316   47.2863    0.1748 C   0  0  0  0  0  0  0  0  0  0  0  0
 22 23  1  0  0  0
 22 24  1  0  0  0
 23 24  1  0  0  0
 24 21  1  0  0  0
 21 19  1  0  0  0
 19  1  1  0  0  0
  1  2  1  0  0  0
  1  4  2  0  0  0
  2  3  2  0  0  0
  3  6  1  0  0  0
  4  5  1  0  0  0
  5  6  1  0  0  0
  5  9  1  0  0  0
  6  7  2  0  0  0
  7  8  1  0  0  0
  8  9  2  0  0  0
  9 10  1  0  0  0
 10 11  2  0  0  0
 10 12  1  0  0  0
 11 15  1  0  0  0
 12 13  2  0  0  0
 13 14  1  0  0  0
 14 15  2  0  0  0
 15 16  1  0  0  0
 16 17  1  0  0  0
 16 18  2  0  0  0
 19 20  1  0  0  0
M  END
> <minimizedAffinity>
-9.04663

$$$$
2C3I_IYZ_B_1306


 24 27  0  0  0  0  0  0  0  0999 V2000
   26.7889   49.9399    1.6015 C   0  0  0  0  0  0  0  0  0  0  0  0
   27.0809   50.3225    2.8960 C   0  0  0  0  0  0  0  0  0  0  0  0
   27.4016   51.6485    3.1095 C   0  0  0  0  0  0  0  0  0  0  0  0
   26.8135   50.7830    0.5586 N   0  0  0  0  0  0  0  0  0  0  0  0
   27.0894   51.9691    0.7391 N   0  0  0  0  0  0  0  0  0  0  0  0
   27.3909   52.4739    2.0173 C   0  0  0  0  0  0  0  0  0  0  0  0
   27.6523   53.7476    1.8995 N   0  0  0  0  0  0  0  0  0  0  0  0
   27.5386   54.1063    0.6300 C   0  0  0  0  0  0  0  0  0  0  0  0
   27.1786   53.0502   -0.0845 C   0  0  0  0  0  0  0  0  0  0  0  0
   27.0078   53.0084   -1.4459 C   0  0  0  0  0  0  0  0  0  0  0  0
   27.5470   52.0088   -2.2394 C   0  0  0  0  0  0  0  0  0  0  0  0
   26.3098   54.0683   -2.0116 C   0  0  0  0  0  0  0  0  0  0  0  0
   26.1111   54.1514   -3.3836 C   0  0  0  0  0  0  0  0  0  0  0  0
   26.6275   53.1405   -4.1694 C   0  0  0  0  0  0  0  0  0  0  0  0
   27.3234   52.0890   -3.5903 C   0  0  0  0  0  0  0  0  0  0  0  0
   27.8510   51.0533   -4.5371 C   0  0  0  0  0  0  0  0  0  0  0  0
   28.0494   51.3264   -6.0330 C   0  0  0  0  0  0  0  0  0  0  0  0
   28.1034   49.9596   -4.0520 O   0  0  0  0  0  0  0  0  0  0  0  0
   26.5022   48.6779    1.4036 N   0  0  0  0  0  0  0  0  0  0  0  0
   26.1590   48.1358    2.1503 H   0  0  0  0  0  0  0  0  0  0  0  0
   26.6855   48.0567    0.0800 C   0  0  0  0  0  0  0  0  0  0  0  0
   25.0631   46.1733    0.6749 C   0  0  0  0  0  0  0  0  0  0  0  0
   25.5938   45.8914   -0.7253 C   0  0  0  0  0  0  0  0  0  0  0  0
   25.3836   47.3322   -0.2656 C   0  0  0  0  0  0  0  0  0  0  0  0
 22 23  1  0  0  0
 22 24  1  0  0  0
 23 24  1  0  0  0
 24 21  1  0  0  0
 21 19  1  0  0  0
 19  1  1  0  0  0
  1  2  1  0  0  0
  1  4  2  0  0  0
  2  3  2  0  0  0
  3  6  1  0  0  0
  4  5  1  0  0  0
  5  6  1  0  0  0
  5  9  1  0  0  0
  6  7  2  0  0  0
  7  8  1  0  0  0
  8  9  2  0  0  0
  9 10  1  0  0  0
 10 11  2  0  0  0
 10 12  1  0  0  0
 11 15  1  0  0  0
 12 13  2  0  0  0
 13 14  1  0  0  0
 14 15  2  0  0  0
 15 16  1  0  0  0
 16 17  1  0  0  0
 16 18  2  0  0  0
 19 20  1  0  0  0
M  END
> <minimizedAffinity>
-8.94370

$$$$
2C3I_IYZ_B_1306


 24 27  0  0  0  0  0  0  0  0999 V2000
   26.9064   51.0685    2.4452 C   0  0  0  0  0  0  0  0  0  0  0  0
   26.4402   50.6525    3.6770 C   0  0  0  0  0  0  0  0  0  0  0  0
   25.9071   49.3813    3.7581 C   0  0  0  0  0  0  0  0  0  0  0  0
   26.8549   50.3090    1.3409 N   0  0  0  0  0  0  0  0  0  0  0  0
   26.3898   49.1709    1.4041 N   0  0  0  0  0  0  0  0  0  0  0  0
   25.8975   48.6370    2.6091 C   0  0  0  0  0  0  0  0  0  0  0  0
   25.4618   47.4297    2.3703 N   0  0  0  0  0  0  0  0  0  0  0  0
   25.6399   47.1410    1.0903 C   0  0  0  0  0  0  0  0  0  0  0  0
   26.2186   48.1727    0.4934 C   0  0  0  0  0  0  0  0  0  0  0  0
   26.5211   48.2758   -0.8415 C   0  0  0  0  0  0  0  0  0  0  0  0
   27.2981   49.3003   -1.3577 C   0  0  0  0  0  0  0  0  0  0  0  0
   25.9501   47.3243   -1.6776 C   0  0  0  0  0  0  0  0  0  0  0  0
   26.1543   47.3543   -3.0510 C   0  0  0  0  0  0  0  0  0  0  0  0
   26.9499   48.3615   -3.5597 C   0  0  0  0  0  0  0  0  0  0  0  0
   27.5125   49.3054   -2.7124 C   0  0  0  0  0  0  0  0  0  0  0  0
   28.3484   50.3609   -3.3719 C   0  0  0  0  0  0  0  0  0  0  0  0
   27.8911   51.1109   -4.6289 C   0  0  0  0  0  0  0  0  0  0  0  0
   29.4354   50.5850   -2.8586 O   0  0  0  0  0  0  0  0  0  0  0  0
   27.3950   52.2809    2.3717 N   0  0  0  0  0  0  0  0  0  0  0  0
   28.2470   52.4882    2.8192 H   0  0  0  0  0  0  0  0  0  0  0  0
   26.6887   53.3397    1.6291 C   0  0  0  0  0  0  0  0  0  0  0  0
   26.8863   54.5959   -0.5882 C   0  0  0  0  0  0  0  0  0  0  0  0
   27.2420   53.1389   -0.8574 C   0  0  0  0  0  0  0  0  0  0  0  0
   27.6021   53.7764    0.4825 C   0  0  0  0  0  0  0  0  0  0  0  0
 22 23  1  0  0  0
 22 24  1  0  0  0
 23 24  1  0  0  0
 24 21  1  0  0  0
 21 19  1  0  0  0
 19  1  1  0  0  0
  1  2  1  0  0  0
  1  4  2  0  0  0
  2  3  2  0  0  0
  3  6  1  0  0  0
  4  5  1  0  0  0
  5  6  1  0  0  0
  5  9  1  0  0  0
  6  7  2  0  0  0
  7  8  1  0  0  0
  8  9  2  0  0  0
  9 10  1  0  0  0
 10 11  2  0  0  0
 10 12  1  0  0  0
 11 15  1  0  0  0
 12 13  2  0  0  0
 13 14  1  0  0  0
 14 15  2  0  0  0
 15 16  1  0  0  0
 16 17  1  0  0  0
 16 18  2  0  0  0
 19 20  1  0  0  0
M  END
> <minimizedAffinity>
-8.88450

$$$$
2C3I_IYZ_B_1306


 24 27  0  0  0  0  0  0  0  0999 V2000
   27.2812   52.4493    0.3432 C   0  0  0  0  0  0  0  0  0  0  0  0
   27.3737   53.3658    1.3723 C   0  0  0  0  0  0  0  0  0  0  0  0
   27.0161   52.9401    2.6361 C   0  0  0  0  0  0  0  0  0  0  0  0
   26.8560   51.1885    0.5129 N   0  0  0  0  0  0  0  0  0  0  0  0
   26.5432   50.7961    1.6370 N   0  0  0  0  0  0  0  0  0  0  0  0
   26.6104   51.6386    2.7618 C   0  0  0  0  0  0  0  0  0  0  0  0
   26.2104   50.9592    3.8025 N   0  0  0  0  0  0  0  0  0  0  0  0
   25.8896   49.7296    3.4305 C   0  0  0  0  0  0  0  0  0  0  0  0
   26.1035   49.6045    2.1290 C   0  0  0  0  0  0  0  0  0  0  0  0
   25.8446   48.4942    1.3646 C   0  0  0  0  0  0  0  0  0  0  0  0
   25.8258   48.5245   -0.0205 C   0  0  0  0  0  0  0  0  0  0  0  0
   25.5336   47.3297    2.0559 C   0  0  0  0  0  0  0  0  0  0  0  0
   25.2151   46.1556    1.3858 C   0  0  0  0  0  0  0  0  0  0  0  0
   25.2222   46.1822    0.0054 C   0  0  0  0  0  0  0  0  0  0  0  0
   25.5337   47.3529   -0.6712 C   0  0  0  0  0  0  0  0  0  0  0  0
   25.4994   47.2726   -2.1678 C   0  0  0  0  0  0  0  0  0  0  0  0
   24.8086   48.3310   -3.0362 C   0  0  0  0  0  0  0  0  0  0  0  0
   26.0440   46.2981   -2.6669 O   0  0  0  0  0  0  0  0  0  0  0  0
   27.6057   52.8644   -0.8553 N   0  0  0  0  0  0  0  0  0  0  0  0
   28.1134   53.7017   -0.9575 H   0  0  0  0  0  0  0  0  0  0  0  0
   27.2223   52.0973   -2.0536 C   0  0  0  0  0  0  0  0  0  0  0  0
   28.2443   50.5402   -3.8041 C   0  0  0  0  0  0  0  0  0  0  0  0
   28.2676   49.8032   -2.4706 C   0  0  0  0  0  0  0  0  0  0  0  0
   28.4574   51.3178   -2.5079 C   0  0  0  0  0  0  0  0  0  0  0  0
 22 23  1  0  0  0
 22 24  1  0  0  0
 23 24  1  0  0  0
 24 21  1  0  0  0
 21 19  1  0  0  0
 19  1  1  0  0  0
  1  2  1  0  0  0
  1  4  2  0  0  0
  2  3  2  0  0  0
  3  6  1  0  0  0
  4  5  1  0  0  0
  5  6  1  0  0  0
  5  9  1  0  0  0
  6  7  2  0  0  0
  7  8  1  0  0  0
  8  9  2  0  0  0
  9 10  1  0  0  0
 10 11  2  0  0  0
 10 12  1  0  0  0
 11 15  1  0  0  0
 12 13  2  0  0  0
 13 14  1  0  0  0
 14 15  2  0  0  0
 15 16  1  0  0  0
 16 17  1  0  0  0
 16 18  2  0  0  0
 19 20  1  0  0  0
M  END
> <minimizedAffinity>
-8.78570

$$$$
2C3I_IYZ_B_1306


 24 27  0  0  0  0  0  0  0  0999 V2000
   27.1483   52.1689    1.1239 C   0  0  0  0  0  0  0  0  0  0  0  0
   27.1521   52.7563    2.3738 C   0  0  0  0  0  0  0  0  0  0  0  0
   26.7234   51.9881    3.4380 C   0  0  0  0  0  0  0  0  0  0  0  0
   26.7430   50.9099    0.9005 N   0  0  0  0  0  0  0  0  0  0  0  0
   26.3673   50.2134    1.8436 N   0  0  0  0  0  0  0  0  0  0  0  0
   26.3414   50.7026    3.1624 C   0  0  0  0  0  0  0  0  0  0  0  0
   25.8909   49.7543    3.9385 N   0  0  0  0  0  0  0  0  0  0  0  0
   25.6242   48.6792    3.2129 C   0  0  0  0  0  0  0  0  0  0  0  0
   25.9251   48.9294    1.9471 C   0  0  0  0  0  0  0  0  0  0  0  0
   25.7427   48.0802    0.8842 C   0  0  0  0  0  0  0  0  0  0  0  0
   25.4146   48.5273   -0.3856 C   0  0  0  0  0  0  0  0  0  0  0  0
   25.8413   46.7215    1.1575 C   0  0  0  0  0  0  0  0  0  0  0  0
   25.6362   45.7692    0.1676 C   0  0  0  0  0  0  0  0  0  0  0  0
   25.3347   46.2185   -1.1026 C   0  0  0  0  0  0  0  0  0  0  0  0
   25.2384   47.5785   -1.3603 C   0  0  0  0  0  0  0  0  0  0  0  0
   24.8942   47.9546   -2.7701 C   0  0  0  0  0  0  0  0  0  0  0  0
   23.7344   47.3086   -3.5376 C   0  0  0  0  0  0  0  0  0  0  0  0
   25.6055   48.8029   -3.2896 O   0  0  0  0  0  0  0  0  0  0  0  0
   27.5399   52.9083    0.1169 N   0  0  0  0  0  0  0  0  0  0  0  0
   28.1307   53.6784    0.2818 H   0  0  0  0  0  0  0  0  0  0  0  0
   27.1097   52.6051   -1.2594 C   0  0  0  0  0  0  0  0  0  0  0  0
   26.3183   55.0335   -1.1594 C   0  0  0  0  0  0  0  0  0  0  0  0
   25.5253   54.3416   -2.2612 C   0  0  0  0  0  0  0  0  0  0  0  0
   26.9740   53.9384   -1.9967 C   0  0  0  0  0  0  0  0  0  0  0  0
 22 23  1  0  0  0
 22 24  1  0  0  0
 23 24  1  0  0  0
 24 21  1  0  0  0
 21 19  1  0  0  0
 19  1  1  0  0  0
  1  2  1  0  0  0
  1  4  2  0  0  0
  2  3  2  0  0  0
  3  6  1  0  0  0
  4  5  1  0  0  0
  5  6  1  0  0  0
  5  9  1  0  0  0
  6  7  2  0  0  0
  7  8  1  0  0  0
  8  9  2  0  0  0
  9 10  1  0  0  0
 10 11  2  0  0  0
 10 12  1  0  0  0
 11 15  1  0  0  0
 12 13  2  0  0  0
 13 14  1  0  0  0
 14 15  2  0  0  0
 15 16  1  0  0  0
 16 17  1  0  0  0
 16 18  2  0  0  0
 19 20  1  0  0  0
M  END
> <minimizedAffinity>
-8.77921

$$$$
2C3I_IYZ_B_1306


 24 27  0  0  0  0  0  0  0  0999 V2000
   25.8260   48.2949    2.3501 C   0  0  0  0  0  0  0  0  0  0  0  0
   25.2350   47.0559    2.5027 C   0  0  0  0  0  0  0  0  0  0  0  0
   25.0678   46.2878    1.3676 C   0  0  0  0  0  0  0  0  0  0  0  0
   26.2277   48.7810    1.1664 N   0  0  0  0  0  0  0  0  0  0  0  0
   26.0914   48.1008    0.1493 N   0  0  0  0  0  0  0  0  0  0  0  0
   25.5143   46.8182    0.1871 C   0  0  0  0  0  0  0  0  0  0  0  0
   25.4904   46.3477   -1.0306 N   0  0  0  0  0  0  0  0  0  0  0  0
   26.0160   47.2377   -1.8583 C   0  0  0  0  0  0  0  0  0  0  0  0
   26.4044   48.2957   -1.1618 C   0  0  0  0  0  0  0  0  0  0  0  0
   26.9507   49.4483   -1.6691 C   0  0  0  0  0  0  0  0  0  0  0  0
   26.3205   50.6791   -1.5815 C   0  0  0  0  0  0  0  0  0  0  0  0
   28.1578   49.3125   -2.3436 C   0  0  0  0  0  0  0  0  0  0  0  0
   28.7825   50.4042   -2.9325 C   0  0  0  0  0  0  0  0  0  0  0  0
   28.1650   51.6340   -2.8215 C   0  0  0  0  0  0  0  0  0  0  0  0
   26.9589   51.7539   -2.1459 C   0  0  0  0  0  0  0  0  0  0  0  0
   26.3709   53.1321   -2.0964 C   0  0  0  0  0  0  0  0  0  0  0  0
   26.8285   54.1895   -1.0844 C   0  0  0  0  0  0  0  0  0  0  0  0
   25.4842   53.3681   -2.9047 O   0  0  0  0  0  0  0  0  0  0  0  0
   25.9661   49.0248    3.4279 N   0  0  0  0  0  0  0  0  0  0  0  0
   25.3798   48.8638    4.2022 H   0  0  0  0  0  0  0  0  0  0  0  0
   26.9883   50.0838    3.4994 C   0  0  0  0  0  0  0  0  0  0  0  0
   26.9300   52.2136    2.0873 C   0  0  0  0  0  0  0  0  0  0  0  0
   27.1443   52.6340    3.5362 C   0  0  0  0  0  0  0  0  0  0  0  0
   26.2858   51.4126    3.2159 C   0  0  0  0  0  0  0  0  0  0  0  0
 22 23  1  0  0  0
 22 24  1  0  0  0
 23 24  1  0  0  0
 24 21  1  0  0  0
 21 19  1  0  0  0
 19  1  1  0  0  0
  1  2  1  0  0  0
  1  4  2  0  0  0
  2  3  2  0  0  0
  3  6  1  0  0  0
  4  5  1  0  0  0
  5  6  1  0  0  0
  5  9  1  0  0  0
  6  7  2  0  0  0
  7  8  1  0  0  0
  8  9  2  0  0  0
  9 10  1  0  0  0
 10 11  2  0  0  0
 10 12  1  0  0  0
 11 15  1  0  0  0
 12 13  2  0  0  0
 13 14  1  0  0  0
 14 15  2  0  0  0
 15 16  1  0  0  0
 16 17  1  0  0  0
 16 18  2  0  0  0
 19 20  1  0  0  0
M  END
> <minimizedAffinity>
-8.71864

$$$$
2C3I_IYZ_B_1306


 24 27  0  0  0  0  0  0  0  0999 V2000
   25.5487   47.0947    0.2880 C   0  0  0  0  0  0  0  0  0  0  0  0
   25.2245   46.3061    1.3746 C   0  0  0  0  0  0  0  0  0  0  0  0
   25.2727   46.8940    2.6230 C   0  0  0  0  0  0  0  0  0  0  0  0
   25.9126   48.3816    0.3915 N   0  0  0  0  0  0  0  0  0  0  0  0
   25.9502   48.9179    1.4990 N   0  0  0  0  0  0  0  0  0  0  0  0
   25.6276   48.2152    2.6744 C   0  0  0  0  0  0  0  0  0  0  0  0
   25.7674   49.0294    3.6855 N   0  0  0  0  0  0  0  0  0  0  0  0
   26.1571   50.2162    3.2463 C   0  0  0  0  0  0  0  0  0  0  0  0
   26.2532   50.1755    1.9255 C   0  0  0  0  0  0  0  0  0  0  0  0
   26.6756   51.1944    1.1084 C   0  0  0  0  0  0  0  0  0  0  0  0
   26.9022   51.0237   -0.2478 C   0  0  0  0  0  0  0  0  0  0  0  0
   26.9317   52.4126    1.7256 C   0  0  0  0  0  0  0  0  0  0  0  0
   27.4016   53.5026    1.0044 C   0  0  0  0  0  0  0  0  0  0  0  0
   27.6021   53.3369   -0.3515 C   0  0  0  0  0  0  0  0  0  0  0  0
   27.3430   52.1140   -0.9537 C   0  0  0  0  0  0  0  0  0  0  0  0
   27.6068   52.0416   -2.4277 C   0  0  0  0  0  0  0  0  0  0  0  0
   28.6030   51.0498   -3.0408 C   0  0  0  0  0  0  0  0  0  0  0  0
   26.9907   52.8357   -3.1243 O   0  0  0  0  0  0  0  0  0  0  0  0
   25.5173   46.5265   -0.8910 N   0  0  0  0  0  0  0  0  0  0  0  0
   26.1736   45.8258   -1.1091 H   0  0  0  0  0  0  0  0  0  0  0  0
   24.5145   46.9200   -1.8964 C   0  0  0  0  0  0  0  0  0  0  0  0
   25.0377   49.1573   -3.0164 C   0  0  0  0  0  0  0  0  0  0  0  0
   24.3286   48.2874   -4.0470 C   0  0  0  0  0  0  0  0  0  0  0  0
   25.2577   47.6467   -3.0186 C   0  0  0  0  0  0  0  0  0  0  0  0
 22 23  1  0  0  0
 22 24  1  0  0  0
 23 24  1  0  0  0
 24 21  1  0  0  0
 21 19  1  0  0  0
 19  1  1  0  0  0
  1  2  1  0  0  0
  1  4  2  0  0  0
  2  3  2  0  0  0
  3  6  1  0  0  0
  4  5  1  0  0  0
  5  6  1  0  0  0
  5  9  1  0  0  0
  6  7  2  0  0  0
  7  8  1  0  0  0
  8  9  2  0  0  0
  9 10  1  0  0  0
 10 11  2  0  0  0
 10 12  1  0  0  0
 11 15  1  0  0  0
 12 13  2  0  0  0
 13 14  1  0  0  0
 14 15  2  0  0  0
 15 16  1  0  0  0
 16 17  1  0  0  0
 16 18  2  0  0  0
 19 20  1  0  0  0
M  END
> <minimizedAffinity>
-8.68852

$$$$
