6G2M_O84_A_305


 39 42  0  0  0  0  0  0  0  0999 V2000
   -4.4546   24.8821   30.6895 C   0  0  0  0  0  0  0  0  0  0  0  0
   -4.9413   25.5053   29.4834 O   0  0  0  0  0  0  0  0  0  0  0  0
   -3.2792   25.5186   31.0507 O   0  0  0  0  0  0  0  0  0  0  0  0
   -3.2149   26.9109   31.2792 C   0  0  0  0  0  0  0  0  0  0  0  0
   -3.9545   27.6318   30.1590 C   0  0  0  0  0  0  0  0  0  0  0  0
   -2.9902   27.7061   29.0959 O   0  0  0  0  0  0  0  0  0  0  0  0
   -5.1469   26.9261   29.5307 C   0  0  0  0  0  0  0  0  0  0  0  0
   -5.1423   27.4096   28.0886 C   0  0  0  0  0  0  0  0  0  0  0  0
   -3.6441   27.8131   27.8873 C   0  0  0  0  0  0  0  0  0  0  0  0
   -3.0106   27.0123   26.8366 N   0  0  0  0  0  0  0  0  0  0  0  0
   -3.5444   25.7860   26.4351 C   0  0  0  0  0  0  0  0  0  0  0  0
   -1.8889   27.4792   26.2263 C   0  0  0  0  0  0  0  0  0  0  0  0
   -1.2757   28.5212   26.6360 O   0  0  0  0  0  0  0  0  0  0  0  0
   -1.3991   26.7984   25.1481 N   0  0  0  0  0  0  0  0  0  0  0  0
   -2.0153   25.6654   24.6517 C   0  0  0  0  0  0  0  0  0  0  0  0
   -1.4826   25.2463   23.6045 O   0  0  0  0  0  0  0  0  0  0  0  0
   -3.0848   25.0863   25.3877 C   0  0  0  0  0  0  0  0  0  0  0  0
   -0.5803   27.1257   24.7102 H   0  0  0  0  0  0  0  0  0  0  0  0
   -3.8032   23.8294   25.0805 C   0  0  0  0  0  0  0  0  0  0  0  0
   -3.4756   22.6256   25.2532 C   0  0  0  0  0  0  0  0  0  0  0  0
   -4.3282   21.4891   24.8318 C   0  0  0  0  0  0  0  0  0  0  0  0
   -3.3567   20.2669   24.0404 P   0  0  0  0  0  0  0  0  0  0  0  0
   -4.1476   18.9278   23.9963 O   0  0  0  0  0  0  0  0  0  0  0  0
   -2.1407   20.0457   24.9250 O   0  0  0  0  0  0  0  0  0  0  0  0
   -2.9753   20.7159   22.6510 O   0  0  0  0  0  0  0  0  0  0  0  0
   -1.5683   19.3722   24.5254 H   0  0  0  0  0  0  0  0  0  0  0  0
   -2.4380   20.0295   22.2254 H   0  0  0  0  0  0  0  0  0  0  0  0
   -6.1086   26.1916   32.4432 O   0  0  0  0  0  0  0  0  0  0  0  0
   -5.6706   24.8440   32.0386 P   0  0  0  0  0  0  0  0  0  0  0  0
   -6.8024   23.9760   31.6281 O   0  0  0  0  0  0  0  0  0  0  0  0
   -4.8922   24.1532   33.1833 O   0  0  0  0  0  0  0  0  0  0  0  0
   -6.5937   26.6067   31.7130 H   0  0  0  0  0  0  0  0  0  0  0  0
   -4.6133   23.2693   32.8973 H   0  0  0  0  0  0  0  0  0  0  0  0
   -4.1503   23.4662   30.2638 C   0  0  0  0  0  0  0  0  0  0  0  0
   -4.7755   22.9780   29.1348 C   0  0  0  0  0  0  0  0  0  0  0  0
   -4.4853   21.6704   28.6966 C   0  0  0  0  0  0  0  0  0  0  0  0
   -3.5554   20.8959   29.3811 C   0  0  0  0  0  0  0  0  0  0  0  0
   -2.9676   21.3648   30.5415 C   0  0  0  0  0  0  0  0  0  0  0  0
   -3.2578   22.6659   30.9658 C   0  0  0  0  0  0  0  0  0  0  0  0
 23 22  2  0  0  0
 16 15  2  0  0  0
 24 22  1  0  0  0
 22 25  1  0  0  0
 22 21  1  0  0  0
 20 21  1  0  0  0
 20 19  2  0  0  0
 15 14  1  0  0  0
 15 17  1  0  0  0
 14 12  1  0  0  0
 19 17  1  0  0  0
 17 11  2  0  0  0
 12 13  2  0  0  0
 12 10  1  0  0  0
 11 10  1  0  0  0
 10  9  1  0  0  0
  9  8  1  0  0  0
  9  6  1  0  0  0
  8  7  1  0  0  0
 38 39  2  0  0  0
 38 37  1  0  0  0
  6  5  1  0  0  0
 39 34  1  0  0  0
  2  7  1  0  0  0
  2  1  1  0  0  0
  7  5  1  0  0  0
 37 36  2  0  0  0
  5  4  1  0  0  0
 34  1  1  0  0  0
 34 35  2  0  0  0
 36 35  1  0  0  0
  1  3  1  0  0  0
  1 29  1  0  0  0
  3  4  1  0  0  0
 30 29  2  0  0  0
 29 28  1  0  0  0
 29 31  1  0  0  0
 28 32  1  0  0  0
 31 33  1  0  0  0
 14 18  1  0  0  0
 24 26  1  0  0  0
 25 27  1  0  0  0
M  END
> <minimizedAffinity>
-12.14557

$$$$
6G2M_O84_A_305


 39 42  0  0  0  0  0  0  0  0999 V2000
   -3.6238   25.5955   26.3614 C   0  0  0  0  0  0  0  0  0  0  0  0
   -3.0527   24.4937   27.0963 O   0  0  0  0  0  0  0  0  0  0  0  0
   -4.8218   25.1657   25.8164 O   0  0  0  0  0  0  0  0  0  0  0  0
   -5.8672   24.6439   26.6099 C   0  0  0  0  0  0  0  0  0  0  0  0
   -5.2843   23.6507   27.6074 C   0  0  0  0  0  0  0  0  0  0  0  0
   -5.1701   22.4299   26.8577 O   0  0  0  0  0  0  0  0  0  0  0  0
   -3.8742   23.9067   28.1179 C   0  0  0  0  0  0  0  0  0  0  0  0
   -3.3164   22.5145   28.3711 C   0  0  0  0  0  0  0  0  0  0  0  0
   -4.1899   21.6370   27.4146 C   0  0  0  0  0  0  0  0  0  0  0  0
   -3.3687   20.9694   26.4014 N   0  0  0  0  0  0  0  0  0  0  0  0
   -2.3433   20.0916   26.7590 C   0  0  0  0  0  0  0  0  0  0  0  0
   -3.6200   21.1946   25.0843 C   0  0  0  0  0  0  0  0  0  0  0  0
   -4.4479   22.0838   24.6925 O   0  0  0  0  0  0  0  0  0  0  0  0
   -2.9509   20.4509   24.1541 N   0  0  0  0  0  0  0  0  0  0  0  0
   -2.0438   19.4709   24.5099 C   0  0  0  0  0  0  0  0  0  0  0  0
   -1.6153   18.8312   23.5285 O   0  0  0  0  0  0  0  0  0  0  0  0
   -1.6599   19.3522   25.8735 C   0  0  0  0  0  0  0  0  0  0  0  0
   -3.1204   20.6186   23.1989 H   0  0  0  0  0  0  0  0  0  0  0  0
   -0.6384   18.4422   26.4381 C   0  0  0  0  0  0  0  0  0  0  0  0
   -0.7501   17.3241   27.0071 C   0  0  0  0  0  0  0  0  0  0  0  0
    0.4081   16.5767   27.5514 C   0  0  0  0  0  0  0  0  0  0  0  0
    0.2528   16.4032   29.2863 P   0  0  0  0  0  0  0  0  0  0  0  0
   -0.5438   17.6118   29.8566 O   0  0  0  0  0  0  0  0  0  0  0  0
    1.6610   16.4809   29.8533 O   0  0  0  0  0  0  0  0  0  0  0  0
   -0.4261   15.0989   29.6262 O   0  0  0  0  0  0  0  0  0  0  0  0
    1.6265   16.3891   30.8183 H   0  0  0  0  0  0  0  0  0  0  0  0
   -0.5050   15.0169   30.5895 H   0  0  0  0  0  0  0  0  0  0  0  0
   -3.1050   28.2625   26.7409 O   0  0  0  0  0  0  0  0  0  0  0  0
   -3.8078   27.1145   27.3406 P   0  0  0  0  0  0  0  0  0  0  0  0
   -5.2555   27.3735   27.5405 O   0  0  0  0  0  0  0  0  0  0  0  0
   -3.1707   26.7285   28.6966 O   0  0  0  0  0  0  0  0  0  0  0  0
   -3.5191   28.4881   25.8932 H   0  0  0  0  0  0  0  0  0  0  0  0
   -3.6470   25.9724   29.0740 H   0  0  0  0  0  0  0  0  0  0  0  0
   -2.6272   25.8434   25.2550 C   0  0  0  0  0  0  0  0  0  0  0  0
   -2.8304   25.2143   24.0438 C   0  0  0  0  0  0  0  0  0  0  0  0
   -1.9334   25.4530   22.9836 C   0  0  0  0  0  0  0  0  0  0  0  0
   -0.8738   26.3374   23.1524 C   0  0  0  0  0  0  0  0  0  0  0  0
   -0.6395   26.9278   24.3805 C   0  0  0  0  0  0  0  0  0  0  0  0
   -1.5384   26.6889   25.4256 C   0  0  0  0  0  0  0  0  0  0  0  0
 23 22  2  0  0  0
 16 15  2  0  0  0
 24 22  1  0  0  0
 22 25  1  0  0  0
 22 21  1  0  0  0
 20 21  1  0  0  0
 20 19  2  0  0  0
 15 14  1  0  0  0
 15 17  1  0  0  0
 14 12  1  0  0  0
 19 17  1  0  0  0
 17 11  2  0  0  0
 12 13  2  0  0  0
 12 10  1  0  0  0
 11 10  1  0  0  0
 10  9  1  0  0  0
  9  8  1  0  0  0
  9  6  1  0  0  0
  8  7  1  0  0  0
 38 39  2  0  0  0
 38 37  1  0  0  0
  6  5  1  0  0  0
 39 34  1  0  0  0
  2  7  1  0  0  0
  2  1  1  0  0  0
  7  5  1  0  0  0
 37 36  2  0  0  0
  5  4  1  0  0  0
 34  1  1  0  0  0
 34 35  2  0  0  0
 36 35  1  0  0  0
  1  3  1  0  0  0
  1 29  1  0  0  0
  3  4  1  0  0  0
 30 29  2  0  0  0
 29 28  1  0  0  0
 29 31  1  0  0  0
 28 32  1  0  0  0
 31 33  1  0  0  0
 14 18  1  0  0  0
 24 26  1  0  0  0
 25 27  1  0  0  0
M  END
> <minimizedAffinity>
-10.95635

$$$$
6G2M_O84_A_305


 39 42  0  0  0  0  0  0  0  0999 V2000
   -4.1298   27.1281   30.6409 C   0  0  0  0  0  0  0  0  0  0  0  0
   -3.5061   25.8283   30.6817 O   0  0  0  0  0  0  0  0  0  0  0  0
   -5.4777   26.9433   30.3837 O   0  0  0  0  0  0  0  0  0  0  0  0
   -6.2999   26.1431   31.2072 C   0  0  0  0  0  0  0  0  0  0  0  0
   -5.5749   24.8385   31.5137 C   0  0  0  0  0  0  0  0  0  0  0  0
   -5.8338   24.0171   30.3631 O   0  0  0  0  0  0  0  0  0  0  0  0
   -4.0570   24.8787   31.6079 C   0  0  0  0  0  0  0  0  0  0  0  0
   -3.6221   23.5039   31.1239 C   0  0  0  0  0  0  0  0  0  0  0  0
   -4.8368   23.0739   30.2365 C   0  0  0  0  0  0  0  0  0  0  0  0
   -4.4354   22.8690   28.8424 N   0  0  0  0  0  0  0  0  0  0  0  0
   -3.8427   23.8913   28.0985 C   0  0  0  0  0  0  0  0  0  0  0  0
   -4.6273   21.6534   28.2643 C   0  0  0  0  0  0  0  0  0  0  0  0
   -5.2832   20.7224   28.8410 O   0  0  0  0  0  0  0  0  0  0  0  0
   -4.1105   21.4321   27.0194 N   0  0  0  0  0  0  0  0  0  0  0  0
   -3.3885   22.3955   26.3407 C   0  0  0  0  0  0  0  0  0  0  0  0
   -2.9114   21.9740   25.2681 O   0  0  0  0  0  0  0  0  0  0  0  0
   -3.3323   23.7131   26.8714 C   0  0  0  0  0  0  0  0  0  0  0  0
   -4.2572   20.5576   26.5916 H   0  0  0  0  0  0  0  0  0  0  0  0
   -2.7013   24.8997   26.2516 C   0  0  0  0  0  0  0  0  0  0  0  0
   -2.4828   25.1851   25.0446 C   0  0  0  0  0  0  0  0  0  0  0  0
   -1.7873   26.4235   24.6216 C   0  0  0  0  0  0  0  0  0  0  0  0
   -0.8578   26.1271   23.1682 P   0  0  0  0  0  0  0  0  0  0  0  0
   -1.2788   27.1454   22.0698 O   0  0  0  0  0  0  0  0  0  0  0  0
   -1.2549   24.7438   22.6793 O   0  0  0  0  0  0  0  0  0  0  0  0
    0.6198   26.2251   23.4591 O   0  0  0  0  0  0  0  0  0  0  0  0
   -0.7628   24.5332   21.8703 H   0  0  0  0  0  0  0  0  0  0  0  0
    1.1212   26.0588   22.6456 H   0  0  0  0  0  0  0  0  0  0  0  0
   -3.8002   29.5756   31.8353 O   0  0  0  0  0  0  0  0  0  0  0  0
   -3.8340   28.1314   32.1261 P   0  0  0  0  0  0  0  0  0  0  0  0
   -4.8550   27.7786   33.1439 O   0  0  0  0  0  0  0  0  0  0  0  0
   -2.4491   27.6356   32.6055 O   0  0  0  0  0  0  0  0  0  0  0  0
   -4.6763   29.8659   31.5369 H   0  0  0  0  0  0  0  0  0  0  0  0
   -2.4926   26.6845   32.7912 H   0  0  0  0  0  0  0  0  0  0  0  0
   -3.4787   27.8012   29.4570 C   0  0  0  0  0  0  0  0  0  0  0  0
   -2.3245   28.5254   29.6743 C   0  0  0  0  0  0  0  0  0  0  0  0
   -1.6783   29.1374   28.5817 C   0  0  0  0  0  0  0  0  0  0  0  0
   -2.1860   28.9846   27.2964 C   0  0  0  0  0  0  0  0  0  0  0  0
   -3.3703   28.3030   27.0846 C   0  0  0  0  0  0  0  0  0  0  0  0
   -4.0018   27.6945   28.1745 C   0  0  0  0  0  0  0  0  0  0  0  0
 23 22  2  0  0  0
 16 15  2  0  0  0
 24 22  1  0  0  0
 22 25  1  0  0  0
 22 21  1  0  0  0
 20 21  1  0  0  0
 20 19  2  0  0  0
 15 14  1  0  0  0
 15 17  1  0  0  0
 14 12  1  0  0  0
 19 17  1  0  0  0
 17 11  2  0  0  0
 12 13  2  0  0  0
 12 10  1  0  0  0
 11 10  1  0  0  0
 10  9  1  0  0  0
  9  8  1  0  0  0
  9  6  1  0  0  0
  8  7  1  0  0  0
 38 39  2  0  0  0
 38 37  1  0  0  0
  6  5  1  0  0  0
 39 34  1  0  0  0
  2  7  1  0  0  0
  2  1  1  0  0  0
  7  5  1  0  0  0
 37 36  2  0  0  0
  5  4  1  0  0  0
 34  1  1  0  0  0
 34 35  2  0  0  0
 36 35  1  0  0  0
  1  3  1  0  0  0
  1 29  1  0  0  0
  3  4  1  0  0  0
 30 29  2  0  0  0
 29 28  1  0  0  0
 29 31  1  0  0  0
 28 32  1  0  0  0
 31 33  1  0  0  0
 14 18  1  0  0  0
 24 26  1  0  0  0
 25 27  1  0  0  0
M  END
> <minimizedAffinity>
-10.06412

$$$$
6G2M_O84_A_305


 39 42  0  0  0  0  0  0  0  0999 V2000
   -3.8858   23.7593   26.4853 C   0  0  0  0  0  0  0  0  0  0  0  0
   -4.6023   23.2539   27.6305 O   0  0  0  0  0  0  0  0  0  0  0  0
   -2.6356   23.1645   26.4714 O   0  0  0  0  0  0  0  0  0  0  0  0
   -2.4677   21.7624   26.4474 C   0  0  0  0  0  0  0  0  0  0  0  0
   -3.4077   21.1330   27.4679 C   0  0  0  0  0  0  0  0  0  0  0  0
   -2.7002   21.2515   28.7133 O   0  0  0  0  0  0  0  0  0  0  0  0
   -4.7363   21.8272   27.7276 C   0  0  0  0  0  0  0  0  0  0  0  0
   -5.0317   21.5214   29.1880 C   0  0  0  0  0  0  0  0  0  0  0  0
   -3.6004   21.2465   29.7570 C   0  0  0  0  0  0  0  0  0  0  0  0
   -3.2469   22.2082   30.8043 N   0  0  0  0  0  0  0  0  0  0  0  0
   -3.8450   23.4684   30.8665 C   0  0  0  0  0  0  0  0  0  0  0  0
   -2.3300   21.8618   31.7466 C   0  0  0  0  0  0  0  0  0  0  0  0
   -1.6499   20.7843   31.6696 O   0  0  0  0  0  0  0  0  0  0  0  0
   -2.1245   22.7058   32.8008 N   0  0  0  0  0  0  0  0  0  0  0  0
   -2.8284   23.8862   32.9462 C   0  0  0  0  0  0  0  0  0  0  0  0
   -2.5780   24.4677   34.0209 O   0  0  0  0  0  0  0  0  0  0  0  0
   -3.6604   24.3259   31.8807 C   0  0  0  0  0  0  0  0  0  0  0  0
   -1.4529   22.4653   33.4794 H   0  0  0  0  0  0  0  0  0  0  0  0
   -4.4118   25.5984   31.8006 C   0  0  0  0  0  0  0  0  0  0  0  0
   -5.5472   25.8602   31.3224 C   0  0  0  0  0  0  0  0  0  0  0  0
   -6.1160   27.2284   31.2976 C   0  0  0  0  0  0  0  0  0  0  0  0
   -7.5265   27.3143   32.3307 P   0  0  0  0  0  0  0  0  0  0  0  0
   -8.3605   28.5748   31.9615 O   0  0  0  0  0  0  0  0  0  0  0  0
   -7.0102   27.5116   33.7466 O   0  0  0  0  0  0  0  0  0  0  0  0
   -8.3543   26.0596   32.1968 O   0  0  0  0  0  0  0  0  0  0  0  0
   -7.7600   27.5654   34.3596 H   0  0  0  0  0  0  0  0  0  0  0  0
   -9.1312   26.1216   32.7742 H   0  0  0  0  0  0  0  0  0  0  0  0
   -4.7471   22.1631   24.4272 O   0  0  0  0  0  0  0  0  0  0  0  0
   -4.7739   23.5537   24.9140 P   0  0  0  0  0  0  0  0  0  0  0  0
   -6.1544   24.0724   25.0819 O   0  0  0  0  0  0  0  0  0  0  0  0
   -3.9960   24.4859   23.9552 O   0  0  0  0  0  0  0  0  0  0  0  0
   -5.2393   21.5960   25.0412 H   0  0  0  0  0  0  0  0  0  0  0  0
   -4.0257   25.3947   24.2929 H   0  0  0  0  0  0  0  0  0  0  0  0
   -3.7391   25.2333   26.7762 C   0  0  0  0  0  0  0  0  0  0  0  0
   -4.7540   25.8642   27.4660 C   0  0  0  0  0  0  0  0  0  0  0  0
   -4.6284   27.2325   27.7789 C   0  0  0  0  0  0  0  0  0  0  0  0
   -3.4785   27.9271   27.4204 C   0  0  0  0  0  0  0  0  0  0  0  0
   -2.4845   27.3092   26.6843 C   0  0  0  0  0  0  0  0  0  0  0  0
   -2.6156   25.9494   26.3828 C   0  0  0  0  0  0  0  0  0  0  0  0
 23 22  2  0  0  0
 16 15  2  0  0  0
 24 22  1  0  0  0
 22 25  1  0  0  0
 22 21  1  0  0  0
 20 21  1  0  0  0
 20 19  2  0  0  0
 15 14  1  0  0  0
 15 17  1  0  0  0
 14 12  1  0  0  0
 19 17  1  0  0  0
 17 11  2  0  0  0
 12 13  2  0  0  0
 12 10  1  0  0  0
 11 10  1  0  0  0
 10  9  1  0  0  0
  9  8  1  0  0  0
  9  6  1  0  0  0
  8  7  1  0  0  0
 38 39  2  0  0  0
 38 37  1  0  0  0
  6  5  1  0  0  0
 39 34  1  0  0  0
  2  7  1  0  0  0
  2  1  1  0  0  0
  7  5  1  0  0  0
 37 36  2  0  0  0
  5  4  1  0  0  0
 34  1  1  0  0  0
 34 35  2  0  0  0
 36 35  1  0  0  0
  1  3  1  0  0  0
  1 29  1  0  0  0
  3  4  1  0  0  0
 30 29  2  0  0  0
 29 28  1  0  0  0
 29 31  1  0  0  0
 28 32  1  0  0  0
 31 33  1  0  0  0
 14 18  1  0  0  0
 24 26  1  0  0  0
 25 27  1  0  0  0
M  END
> <minimizedAffinity>
-10.00182

$$$$
6G2M_O84_A_305


 39 42  0  0  0  0  0  0  0  0999 V2000
   -4.0220   23.7588   26.6616 C   0  0  0  0  0  0  0  0  0  0  0  0
   -4.6381   23.1467   27.8130 O   0  0  0  0  0  0  0  0  0  0  0  0
   -2.7971   23.1455   26.4603 O   0  0  0  0  0  0  0  0  0  0  0  0
   -2.6736   21.7512   26.2723 C   0  0  0  0  0  0  0  0  0  0  0  0
   -3.5278   21.0334   27.3098 C   0  0  0  0  0  0  0  0  0  0  0  0
   -2.6992   21.0040   28.4837 O   0  0  0  0  0  0  0  0  0  0  0  0
   -4.8039   21.7205   27.7725 C   0  0  0  0  0  0  0  0  0  0  0  0
   -4.9645   21.2651   29.2148 C   0  0  0  0  0  0  0  0  0  0  0  0
   -3.4933   20.9037   29.6058 C   0  0  0  0  0  0  0  0  0  0  0  0
   -3.0114   21.7404   30.7078 N   0  0  0  0  0  0  0  0  0  0  0  0
   -3.4343   23.0629   30.8556 C   0  0  0  0  0  0  0  0  0  0  0  0
   -2.1475   21.2146   31.6166 C   0  0  0  0  0  0  0  0  0  0  0  0
   -1.6188   20.0627   31.4647 O   0  0  0  0  0  0  0  0  0  0  0  0
   -1.8281   21.9543   32.7197 N   0  0  0  0  0  0  0  0  0  0  0  0
   -2.3664   23.2067   32.9466 C   0  0  0  0  0  0  0  0  0  0  0  0
   -2.0378   23.6795   34.0532 O   0  0  0  0  0  0  0  0  0  0  0  0
   -3.1338   23.8213   31.9199 C   0  0  0  0  0  0  0  0  0  0  0  0
   -1.1937   21.5829   33.3746 H   0  0  0  0  0  0  0  0  0  0  0  0
   -3.7072   25.1856   31.9281 C   0  0  0  0  0  0  0  0  0  0  0  0
   -3.1757   26.3079   31.7179 C   0  0  0  0  0  0  0  0  0  0  0  0
   -3.9211   27.5848   31.8175 C   0  0  0  0  0  0  0  0  0  0  0  0
   -2.8070   28.9196   32.0206 P   0  0  0  0  0  0  0  0  0  0  0  0
   -1.9061   29.0365   30.7576 O   0  0  0  0  0  0  0  0  0  0  0  0
   -1.9052   28.5523   33.1877 O   0  0  0  0  0  0  0  0  0  0  0  0
   -3.5621   30.2028   32.2670 O   0  0  0  0  0  0  0  0  0  0  0  0
   -1.2663   29.2662   33.3398 H   0  0  0  0  0  0  0  0  0  0  0  0
   -2.9325   30.9324   32.3775 H   0  0  0  0  0  0  0  0  0  0  0  0
   -5.4922   22.3803   24.8003 O   0  0  0  0  0  0  0  0  0  0  0  0
   -5.0646   23.7401   25.1740 P   0  0  0  0  0  0  0  0  0  0  0  0
   -6.2102   24.6587   25.3902 O   0  0  0  0  0  0  0  0  0  0  0  0
   -4.1327   24.3387   24.0938 O   0  0  0  0  0  0  0  0  0  0  0  0
   -6.0745   22.0237   25.4892 H   0  0  0  0  0  0  0  0  0  0  0  0
   -3.8632   25.2321   24.3584 H   0  0  0  0  0  0  0  0  0  0  0  0
   -3.8045   25.1899   27.0897 C   0  0  0  0  0  0  0  0  0  0  0  0
   -2.7168   25.8647   26.5744 C   0  0  0  0  0  0  0  0  0  0  0  0
   -2.5080   27.2116   26.9321 C   0  0  0  0  0  0  0  0  0  0  0  0
   -3.4083   27.8577   27.7719 C   0  0  0  0  0  0  0  0  0  0  0  0
   -4.4690   27.1680   28.3296 C   0  0  0  0  0  0  0  0  0  0  0  0
   -4.6712   25.8327   27.9645 C   0  0  0  0  0  0  0  0  0  0  0  0
 23 22  2  0  0  0
 16 15  2  0  0  0
 24 22  1  0  0  0
 22 25  1  0  0  0
 22 21  1  0  0  0
 20 21  1  0  0  0
 20 19  2  0  0  0
 15 14  1  0  0  0
 15 17  1  0  0  0
 14 12  1  0  0  0
 19 17  1  0  0  0
 17 11  2  0  0  0
 12 13  2  0  0  0
 12 10  1  0  0  0
 11 10  1  0  0  0
 10  9  1  0  0  0
  9  8  1  0  0  0
  9  6  1  0  0  0
  8  7  1  0  0  0
 38 39  2  0  0  0
 38 37  1  0  0  0
  6  5  1  0  0  0
 39 34  1  0  0  0
  2  7  1  0  0  0
  2  1  1  0  0  0
  7  5  1  0  0  0
 37 36  2  0  0  0
  5  4  1  0  0  0
 34  1  1  0  0  0
 34 35  2  0  0  0
 36 35  1  0  0  0
  1  3  1  0  0  0
  1 29  1  0  0  0
  3  4  1  0  0  0
 30 29  2  0  0  0
 29 28  1  0  0  0
 29 31  1  0  0  0
 28 32  1  0  0  0
 31 33  1  0  0  0
 14 18  1  0  0  0
 24 26  1  0  0  0
 25 27  1  0  0  0
M  END
> <minimizedAffinity>
-9.87758

$$$$
6G2M_O84_A_305


 39 42  0  0  0  0  0  0  0  0999 V2000
   -4.0207   27.1728   31.7879 C   0  0  0  0  0  0  0  0  0  0  0  0
   -2.9027   26.2815   31.9777 O   0  0  0  0  0  0  0  0  0  0  0  0
   -5.1437   26.5632   32.3211 O   0  0  0  0  0  0  0  0  0  0  0  0
   -5.2059   26.1427   33.6679 C   0  0  0  0  0  0  0  0  0  0  0  0
   -3.9164   25.4110   34.0189 C   0  0  0  0  0  0  0  0  0  0  0  0
   -4.1306   24.0750   33.5345 O   0  0  0  0  0  0  0  0  0  0  0  0
   -2.6386   25.8579   33.3244 C   0  0  0  0  0  0  0  0  0  0  0  0
   -1.8121   24.5853   33.2207 C   0  0  0  0  0  0  0  0  0  0  0  0
   -2.9153   23.4773   33.2784 C   0  0  0  0  0  0  0  0  0  0  0  0
   -2.9342   22.6764   32.0517 N   0  0  0  0  0  0  0  0  0  0  0  0
   -3.4930   23.1684   30.8703 C   0  0  0  0  0  0  0  0  0  0  0  0
   -2.3811   21.4343   32.0569 C   0  0  0  0  0  0  0  0  0  0  0  0
   -1.9778   20.8743   33.1308 O   0  0  0  0  0  0  0  0  0  0  0  0
   -2.2689   20.7631   30.8725 N   0  0  0  0  0  0  0  0  0  0  0  0
   -2.6830   21.3121   29.6738 C   0  0  0  0  0  0  0  0  0  0  0  0
   -2.4040   20.5942   28.6926 O   0  0  0  0  0  0  0  0  0  0  0  0
   -3.4096   22.5338   29.6921 C   0  0  0  0  0  0  0  0  0  0  0  0
   -1.8802   19.8586   30.8729 H   0  0  0  0  0  0  0  0  0  0  0  0
   -4.0212   23.2269   28.5363 C   0  0  0  0  0  0  0  0  0  0  0  0
   -3.6067   23.3966   27.3591 C   0  0  0  0  0  0  0  0  0  0  0  0
   -4.3583   24.1701   26.3428 C   0  0  0  0  0  0  0  0  0  0  0  0
   -5.6181   23.1786   25.6401 P   0  0  0  0  0  0  0  0  0  0  0  0
   -6.5100   24.0561   24.7154 O   0  0  0  0  0  0  0  0  0  0  0  0
   -6.4879   22.7078   26.7943 O   0  0  0  0  0  0  0  0  0  0  0  0
   -5.0154   22.0257   24.8750 O   0  0  0  0  0  0  0  0  0  0  0  0
   -7.2050   22.1510   26.4526 H   0  0  0  0  0  0  0  0  0  0  0  0
   -5.7245   21.4860   24.4919 H   0  0  0  0  0  0  0  0  0  0  0  0
   -3.8163   28.8815   33.9243 O   0  0  0  0  0  0  0  0  0  0  0  0
   -3.7505   28.8416   32.4527 P   0  0  0  0  0  0  0  0  0  0  0  0
   -2.4618   29.3556   31.9256 O   0  0  0  0  0  0  0  0  0  0  0  0
   -4.9116   29.6519   31.8293 O   0  0  0  0  0  0  0  0  0  0  0  0
   -3.0812   28.3685   34.2948 H   0  0  0  0  0  0  0  0  0  0  0  0
   -4.8502   29.6131   30.8620 H   0  0  0  0  0  0  0  0  0  0  0  0
   -4.1593   27.2595   30.2872 C   0  0  0  0  0  0  0  0  0  0  0  0
   -5.3523   26.8606   29.7202 C   0  0  0  0  0  0  0  0  0  0  0  0
   -5.5203   26.9612   28.3246 C   0  0  0  0  0  0  0  0  0  0  0  0
   -4.5026   27.4858   27.5358 C   0  0  0  0  0  0  0  0  0  0  0  0
   -3.2885   27.8371   28.0964 C   0  0  0  0  0  0  0  0  0  0  0  0
   -3.1328   27.7387   29.4831 C   0  0  0  0  0  0  0  0  0  0  0  0
 23 22  2  0  0  0
 16 15  2  0  0  0
 24 22  1  0  0  0
 22 25  1  0  0  0
 22 21  1  0  0  0
 20 21  1  0  0  0
 20 19  2  0  0  0
 15 14  1  0  0  0
 15 17  1  0  0  0
 14 12  1  0  0  0
 19 17  1  0  0  0
 17 11  2  0  0  0
 12 13  2  0  0  0
 12 10  1  0  0  0
 11 10  1  0  0  0
 10  9  1  0  0  0
  9  8  1  0  0  0
  9  6  1  0  0  0
  8  7  1  0  0  0
 38 39  2  0  0  0
 38 37  1  0  0  0
  6  5  1  0  0  0
 39 34  1  0  0  0
  2  7  1  0  0  0
  2  1  1  0  0  0
  7  5  1  0  0  0
 37 36  2  0  0  0
  5  4  1  0  0  0
 34  1  1  0  0  0
 34 35  2  0  0  0
 36 35  1  0  0  0
  1  3  1  0  0  0
  1 29  1  0  0  0
  3  4  1  0  0  0
 30 29  2  0  0  0
 29 28  1  0  0  0
 29 31  1  0  0  0
 28 32  1  0  0  0
 31 33  1  0  0  0
 14 18  1  0  0  0
 24 26  1  0  0  0
 25 27  1  0  0  0
M  END
> <minimizedAffinity>
-9.53710

$$$$
