3O9A_K14_A_200


 42 45  0  0  0  0  0  0  0  0999 V2000
   19.9289   29.4928   15.5214 C   0  0  0  0  0  0  0  0  0  0  0  0
   20.0565   28.4167   16.4585 O   0  0  0  0  0  0  0  0  0  0  0  0
   19.2045   27.9612   16.5458 H   0  0  0  0  0  0  0  0  0  0  0  0
   18.9386   30.5370   16.0463 C   0  0  0  0  0  0  0  0  0  0  0  0
   19.2252   31.8381   15.4017 N   0  0  0  0  0  0  0  0  0  0  0  0
   17.9716   32.4293   14.5653 S   0  0  0  0  0  0  0  0  0  0  0  0
   17.2286   31.3430   14.0149 O   0  0  0  0  0  0  0  0  0  0  0  0
   18.5699   33.2276   13.5175 O   0  0  0  0  0  0  0  0  0  0  0  0
   15.3697   34.9481   17.1982 C   0  0  0  0  0  0  0  0  0  0  0  0
   16.2188   35.5281   16.2469 C   0  0  0  0  0  0  0  0  0  0  0  0
   17.0145   34.7227   15.4285 C   0  0  0  0  0  0  0  0  0  0  0  0
   17.0010   33.3344   15.5193 C   0  0  0  0  0  0  0  0  0  0  0  0
   16.1414   32.7613   16.4681 C   0  0  0  0  0  0  0  0  0  0  0  0
   15.3446   33.5571   17.3098 C   0  0  0  0  0  0  0  0  0  0  0  0
   15.1269   36.7978   18.8071 C   0  0  0  0  0  0  0  0  0  0  0  0
   14.5826   35.7208   18.0273 O   0  0  0  0  0  0  0  0  0  0  0  0
   19.7805   32.8423   16.3467 C   0  0  0  0  0  0  0  0  0  0  0  0
   21.2874   33.0334   16.1417 C   0  0  0  0  0  0  0  0  0  0  0  0
   22.1441   32.2829   17.1694 C   0  0  0  0  0  0  0  0  0  0  0  0
   21.6531   32.6549   14.7045 C   0  0  0  0  0  0  0  0  0  0  0  0
   23.1324   32.6625   14.4190 C   0  0  0  0  0  0  0  0  0  0  0  0
   19.5693   28.9134   14.1587 C   0  0  0  0  0  0  0  0  0  0  0  0
   20.6999   28.1270   13.7468 N   0  0  0  0  0  0  0  0  0  0  0  0
   21.7520   28.5809   13.0705 C   0  0  0  0  0  0  0  0  0  0  0  0
   21.9600   29.7169   12.6746 O   0  0  0  0  0  0  0  0  0  0  0  0
   20.6953   27.1719   13.9852 H   0  0  0  0  0  0  0  0  0  0  0  0
   22.7031   27.5370   12.8100 O   0  0  0  0  0  0  0  0  0  0  0  0
   23.5272   27.6402   11.6608 C   0  0  0  0  0  0  0  0  0  0  0  0
   24.8548   27.0643   12.0994 C   0  0  0  0  0  0  0  0  0  0  0  0
   24.6701   25.6469   11.9918 O   0  0  0  0  0  0  0  0  0  0  0  0
   23.7295   25.3853   10.9461 C   0  0  0  0  0  0  0  0  0  0  0  0
   22.6985   24.4983   11.3804 O   0  0  0  0  0  0  0  0  0  0  0  0
   21.4211   25.1583   11.3958 C   0  0  0  0  0  0  0  0  0  0  0  0
   21.5817   26.3794   10.5036 C   0  0  0  0  0  0  0  0  0  0  0  0
   23.0686   26.6964   10.5699 C   0  0  0  0  0  0  0  0  0  0  0  0
   18.3007   28.0460   14.1249 C   0  0  0  0  0  0  0  0  0  0  0  0
   18.0640   26.3240   12.2886 C   0  0  0  0  0  0  0  0  0  0  0  0
   17.8260   25.9672   10.9751 C   0  0  0  0  0  0  0  0  0  0  0  0
   17.5360   26.9367   10.0366 C   0  0  0  0  0  0  0  0  0  0  0  0
   17.4932   28.2673   10.4094 C   0  0  0  0  0  0  0  0  0  0  0  0
   17.7193   28.6232   11.7341 C   0  0  0  0  0  0  0  0  0  0  0  0
   18.0168   27.6583   12.6794 C   0  0  0  0  0  0  0  0  0  0  0  0
 15 16  1  0  0  0
 16  9  1  0  0  0
  9 10  2  0  0  0
  9 14  1  0  0  0
 10 11  1  0  0  0
 11 12  2  0  0  0
 12 13  1  0  0  0
 12  6  1  0  0  0
 13 14  2  0  0  0
  6  7  2  0  0  0
  6  8  2  0  0  0
  6  5  1  0  0  0
  5 17  1  0  0  0
  5  4  1  0  0  0
 17 18  1  0  0  0
 18 19  1  0  0  0
 18 20  1  0  0  0
 20 21  1  0  0  0
  4  1  1  0  0  0
  1  2  1  0  0  0
  1 22  1  0  0  0
 22 23  1  0  0  0
 22 36  1  0  0  0
 23 24  1  0  0  0
 24 25  2  0  0  0
 24 27  1  0  0  0
 27 28  1  0  0  0
 28 29  1  0  0  0
 28 35  1  0  0  0
 29 30  1  0  0  0
 30 31  1  0  0  0
 31 32  1  0  0  0
 31 35  1  0  0  0
 32 33  1  0  0  0
 33 34  1  0  0  0
 34 35  1  0  0  0
 36 42  1  0  0  0
 37 38  2  0  0  0
 37 42  1  0  0  0
 38 39  1  0  0  0
 39 40  2  0  0  0
 40 41  1  0  0  0
 41 42  2  0  0  0
  2  3  1  0  0  0
 23 26  1  0  0  0
M  END
> <minimizedAffinity>
-9.97059

$$$$
3O9A_K14_A_200


 42 45  0  0  0  0  0  0  0  0999 V2000
   19.7328   30.6473   16.2104 C   0  0  0  0  0  0  0  0  0  0  0  0
   19.7917   29.8248   17.3820 O   0  0  0  0  0  0  0  0  0  0  0  0
   19.2825   30.2409   18.0951 H   0  0  0  0  0  0  0  0  0  0  0  0
   20.4009   31.9994   16.4790 C   0  0  0  0  0  0  0  0  0  0  0  0
   21.8227   31.9217   16.0751 N   0  0  0  0  0  0  0  0  0  0  0  0
   22.0486   32.1138   14.4837 S   0  0  0  0  0  0  0  0  0  0  0  0
   23.3656   32.6145   14.2600 O   0  0  0  0  0  0  0  0  0  0  0  0
   21.0534   33.0846   14.0837 O   0  0  0  0  0  0  0  0  0  0  0  0
   21.4446   28.2624   12.2817 C   0  0  0  0  0  0  0  0  0  0  0  0
   21.1692   29.4958   11.6774 C   0  0  0  0  0  0  0  0  0  0  0  0
   21.3748   30.6860   12.3793 C   0  0  0  0  0  0  0  0  0  0  0  0
   21.8526   30.7008   13.6860 C   0  0  0  0  0  0  0  0  0  0  0  0
   22.1346   29.4620   14.2807 C   0  0  0  0  0  0  0  0  0  0  0  0
   21.9198   28.2541   13.5940 C   0  0  0  0  0  0  0  0  0  0  0  0
   22.1639   25.9767   11.7101 C   0  0  0  0  0  0  0  0  0  0  0  0
   21.2389   27.0719   11.6151 O   0  0  0  0  0  0  0  0  0  0  0  0
   22.6999   32.8214   16.8694 C   0  0  0  0  0  0  0  0  0  0  0  0
   21.9291   34.0381   17.3936 C   0  0  0  0  0  0  0  0  0  0  0  0
   22.1182   34.2802   18.8966 C   0  0  0  0  0  0  0  0  0  0  0  0
   22.3027   35.2682   16.5632 C   0  0  0  0  0  0  0  0  0  0  0  0
   21.6452   36.5455   17.0174 C   0  0  0  0  0  0  0  0  0  0  0  0
   18.2825   30.7418   15.7526 C   0  0  0  0  0  0  0  0  0  0  0  0
   17.6857   31.7955   16.5271 N   0  0  0  0  0  0  0  0  0  0  0  0
   16.4363   32.2352   16.4010 C   0  0  0  0  0  0  0  0  0  0  0  0
   15.5761   31.8475   15.6263 O   0  0  0  0  0  0  0  0  0  0  0  0
   18.2492   32.2284   17.2086 H   0  0  0  0  0  0  0  0  0  0  0  0
   16.1562   33.3022   17.3203 O   0  0  0  0  0  0  0  0  0  0  0  0
   15.7063   34.5435   16.8034 C   0  0  0  0  0  0  0  0  0  0  0  0
   14.5431   34.9198   17.6932 C   0  0  0  0  0  0  0  0  0  0  0  0
   15.1640   35.4873   18.8538 O   0  0  0  0  0  0  0  0  0  0  0  0
   16.3992   36.0940   18.4626 C   0  0  0  0  0  0  0  0  0  0  0  0
   17.4766   35.6724   19.2992 O   0  0  0  0  0  0  0  0  0  0  0  0
   18.4383   34.9042   18.5560 C   0  0  0  0  0  0  0  0  0  0  0  0
   18.1856   35.2381   17.0940 C   0  0  0  0  0  0  0  0  0  0  0  0
   16.7188   35.6410   17.0519 C   0  0  0  0  0  0  0  0  0  0  0  0
   18.0808   31.0273   14.2558 C   0  0  0  0  0  0  0  0  0  0  0  0
   17.6308   29.6702   12.1703 C   0  0  0  0  0  0  0  0  0  0  0  0
   17.5095   28.4675   11.5009 C   0  0  0  0  0  0  0  0  0  0  0  0
   17.7264   27.2792   12.1687 C   0  0  0  0  0  0  0  0  0  0  0  0
   18.0559   27.2922   13.5113 C   0  0  0  0  0  0  0  0  0  0  0  0
   18.1911   28.5035   14.1797 C   0  0  0  0  0  0  0  0  0  0  0  0
   17.9692   29.6985   13.5194 C   0  0  0  0  0  0  0  0  0  0  0  0
 15 16  1  0  0  0
 16  9  1  0  0  0
  9 10  2  0  0  0
  9 14  1  0  0  0
 10 11  1  0  0  0
 11 12  2  0  0  0
 12 13  1  0  0  0
 12  6  1  0  0  0
 13 14  2  0  0  0
  6  7  2  0  0  0
  6  8  2  0  0  0
  6  5  1  0  0  0
  5 17  1  0  0  0
  5  4  1  0  0  0
 17 18  1  0  0  0
 18 19  1  0  0  0
 18 20  1  0  0  0
 20 21  1  0  0  0
  4  1  1  0  0  0
  1  2  1  0  0  0
  1 22  1  0  0  0
 22 23  1  0  0  0
 22 36  1  0  0  0
 23 24  1  0  0  0
 24 25  2  0  0  0
 24 27  1  0  0  0
 27 28  1  0  0  0
 28 29  1  0  0  0
 28 35  1  0  0  0
 29 30  1  0  0  0
 30 31  1  0  0  0
 31 32  1  0  0  0
 31 35  1  0  0  0
 32 33  1  0  0  0
 33 34  1  0  0  0
 34 35  1  0  0  0
 36 42  1  0  0  0
 37 38  2  0  0  0
 37 42  1  0  0  0
 38 39  1  0  0  0
 39 40  2  0  0  0
 40 41  1  0  0  0
 41 42  2  0  0  0
  2  3  1  0  0  0
 23 26  1  0  0  0
M  END
> <minimizedAffinity>
-9.60449

$$$$
3O9A_K14_A_200


 42 45  0  0  0  0  0  0  0  0999 V2000
   18.1794   30.5966   14.8673 C   0  0  0  0  0  0  0  0  0  0  0  0
   18.4795   29.3170   15.4375 O   0  0  0  0  0  0  0  0  0  0  0  0
   19.3411   29.0122   15.1125 H   0  0  0  0  0  0  0  0  0  0  0  0
   18.0445   30.4795   13.3459 C   0  0  0  0  0  0  0  0  0  0  0  0
   18.6902   29.2241   12.9011 N   0  0  0  0  0  0  0  0  0  0  0  0
   17.6391   28.1221   12.3520 S   0  0  0  0  0  0  0  0  0  0  0  0
   16.5139   28.7952   11.7899 O   0  0  0  0  0  0  0  0  0  0  0  0
   17.2540   27.3636   13.5222 O   0  0  0  0  0  0  0  0  0  0  0  0
   19.5915   25.5046    9.2887 C   0  0  0  0  0  0  0  0  0  0  0  0
   19.8323   25.3258   10.6571 C   0  0  0  0  0  0  0  0  0  0  0  0
   19.2044   26.1473   11.5964 C   0  0  0  0  0  0  0  0  0  0  0  0
   18.3283   27.1618   11.2233 C   0  0  0  0  0  0  0  0  0  0  0  0
   18.0855   27.3283    9.8518 C   0  0  0  0  0  0  0  0  0  0  0  0
   18.7200   26.5202    8.8921 C   0  0  0  0  0  0  0  0  0  0  0  0
   19.7977   24.7196    6.9628 C   0  0  0  0  0  0  0  0  0  0  0  0
   20.2080   24.7152    8.3397 O   0  0  0  0  0  0  0  0  0  0  0  0
   19.8011   29.4536   11.9405 C   0  0  0  0  0  0  0  0  0  0  0  0
   21.1673   29.2239   12.5963 C   0  0  0  0  0  0  0  0  0  0  0  0
   21.1173   28.2651   13.7929 C   0  0  0  0  0  0  0  0  0  0  0  0
   22.1663   28.7621   11.5328 C   0  0  0  0  0  0  0  0  0  0  0  0
   23.0555   27.6269   11.9693 C   0  0  0  0  0  0  0  0  0  0  0  0
   19.2316   31.5965   15.3308 C   0  0  0  0  0  0  0  0  0  0  0  0
   18.5298   32.5911   16.0953 N   0  0  0  0  0  0  0  0  0  0  0  0
   17.8486   33.6161   15.5898 C   0  0  0  0  0  0  0  0  0  0  0  0
   17.6908   33.9097   14.4154 O   0  0  0  0  0  0  0  0  0  0  0  0
   18.5554   32.5067   17.0758 H   0  0  0  0  0  0  0  0  0  0  0  0
   17.2710   34.4281   16.6238 O   0  0  0  0  0  0  0  0  0  0  0  0
   15.8820   34.7079   16.5716 C   0  0  0  0  0  0  0  0  0  0  0  0
   15.2686   33.7438   17.5619 C   0  0  0  0  0  0  0  0  0  0  0  0
   15.4738   34.3750   18.8325 O   0  0  0  0  0  0  0  0  0  0  0  0
   15.4788   35.7932   18.6444 C   0  0  0  0  0  0  0  0  0  0  0  0
   16.6144   36.3983   19.2629 O   0  0  0  0  0  0  0  0  0  0  0  0
   17.4898   36.9791   18.2811 C   0  0  0  0  0  0  0  0  0  0  0  0
   16.6456   37.1418   17.0266 C   0  0  0  0  0  0  0  0  0  0  0  0
   15.5739   36.0694   17.1571 C   0  0  0  0  0  0  0  0  0  0  0  0
   20.3723   31.0087   16.1771 C   0  0  0  0  0  0  0  0  0  0  0  0
   22.0413   32.7704   16.8871 C   0  0  0  0  0  0  0  0  0  0  0  0
   23.1689   33.5391   16.6708 C   0  0  0  0  0  0  0  0  0  0  0  0
   23.8989   33.3851   15.5096 C   0  0  0  0  0  0  0  0  0  0  0  0
   23.4955   32.4676   14.5574 C   0  0  0  0  0  0  0  0  0  0  0  0
   22.3686   31.6852   14.7828 C   0  0  0  0  0  0  0  0  0  0  0  0
   21.6281   31.8378   15.9411 C   0  0  0  0  0  0  0  0  0  0  0  0
 15 16  1  0  0  0
 16  9  1  0  0  0
  9 10  2  0  0  0
  9 14  1  0  0  0
 10 11  1  0  0  0
 11 12  2  0  0  0
 12 13  1  0  0  0
 12  6  1  0  0  0
 13 14  2  0  0  0
  6  7  2  0  0  0
  6  8  2  0  0  0
  6  5  1  0  0  0
  5 17  1  0  0  0
  5  4  1  0  0  0
 17 18  1  0  0  0
 18 19  1  0  0  0
 18 20  1  0  0  0
 20 21  1  0  0  0
  4  1  1  0  0  0
  1  2  1  0  0  0
  1 22  1  0  0  0
 22 23  1  0  0  0
 22 36  1  0  0  0
 23 24  1  0  0  0
 24 25  2  0  0  0
 24 27  1  0  0  0
 27 28  1  0  0  0
 28 29  1  0  0  0
 28 35  1  0  0  0
 29 30  1  0  0  0
 30 31  1  0  0  0
 31 32  1  0  0  0
 31 35  1  0  0  0
 32 33  1  0  0  0
 33 34  1  0  0  0
 34 35  1  0  0  0
 36 42  1  0  0  0
 37 38  2  0  0  0
 37 42  1  0  0  0
 38 39  1  0  0  0
 39 40  2  0  0  0
 40 41  1  0  0  0
 41 42  2  0  0  0
  2  3  1  0  0  0
 23 26  1  0  0  0
M  END
> <minimizedAffinity>
-9.25535

$$$$
3O9A_K14_A_200


 42 45  0  0  0  0  0  0  0  0999 V2000
   19.0594   29.2711   14.3166 C   0  0  0  0  0  0  0  0  0  0  0  0
   17.8865   28.8809   15.0409 O   0  0  0  0  0  0  0  0  0  0  0  0
   17.0966   29.1457   14.5440 H   0  0  0  0  0  0  0  0  0  0  0  0
   19.1232   30.7968   14.1951 C   0  0  0  0  0  0  0  0  0  0  0  0
   19.8093   31.3456   15.3863 N   0  0  0  0  0  0  0  0  0  0  0  0
   21.2399   32.0229   15.0469 S   0  0  0  0  0  0  0  0  0  0  0  0
   21.2255   32.4837   13.6969 O   0  0  0  0  0  0  0  0  0  0  0  0
   22.2031   30.9570   15.2173 O   0  0  0  0  0  0  0  0  0  0  0  0
   22.0632   35.4116   17.8551 C   0  0  0  0  0  0  0  0  0  0  0  0
   22.3417   34.0864   18.2141 C   0  0  0  0  0  0  0  0  0  0  0  0
   22.0866   33.0453   17.3183 C   0  0  0  0  0  0  0  0  0  0  0  0
   21.5539   33.2721   16.0531 C   0  0  0  0  0  0  0  0  0  0  0  0
   21.2865   34.6026   15.6980 C   0  0  0  0  0  0  0  0  0  0  0  0
   21.5234   35.6611   16.5925 C   0  0  0  0  0  0  0  0  0  0  0  0
   23.2296   37.5054   18.4245 C   0  0  0  0  0  0  0  0  0  0  0  0
   22.2942   36.4571   18.7254 O   0  0  0  0  0  0  0  0  0  0  0  0
   18.9447   32.2536   16.1850 C   0  0  0  0  0  0  0  0  0  0  0  0
   17.6724   32.6346   15.4199 C   0  0  0  0  0  0  0  0  0  0  0  0
   16.3812   32.2117   16.1322 C   0  0  0  0  0  0  0  0  0  0  0  0
   17.6956   34.1348   15.1177 C   0  0  0  0  0  0  0  0  0  0  0  0
   16.3798   34.6908   14.6388 C   0  0  0  0  0  0  0  0  0  0  0  0
   19.0787   28.5322   12.9841 C   0  0  0  0  0  0  0  0  0  0  0  0
   20.3583   27.8821   12.9050 N   0  0  0  0  0  0  0  0  0  0  0  0
   21.4906   28.4509   12.4992 C   0  0  0  0  0  0  0  0  0  0  0  0
   21.6637   29.5991   12.1222 O   0  0  0  0  0  0  0  0  0  0  0  0
   20.4004   26.9360   13.1739 H   0  0  0  0  0  0  0  0  0  0  0  0
   22.5881   27.5255   12.5317 O   0  0  0  0  0  0  0  0  0  0  0  0
   23.5712   27.6016   11.5129 C   0  0  0  0  0  0  0  0  0  0  0  0
   24.8345   27.0973   12.1735 C   0  0  0  0  0  0  0  0  0  0  0  0
   24.7091   25.6706   12.1173 O   0  0  0  0  0  0  0  0  0  0  0  0
   23.9432   25.3229   10.9600 C   0  0  0  0  0  0  0  0  0  0  0  0
   22.8849   24.4213   11.2852 O   0  0  0  0  0  0  0  0  0  0  0  0
   21.6011   25.0340   11.0758 C   0  0  0  0  0  0  0  0  0  0  0  0
   21.8577   26.2143   10.1517 C   0  0  0  0  0  0  0  0  0  0  0  0
   23.3082   26.5885   10.4194 C   0  0  0  0  0  0  0  0  0  0  0  0
   17.9622   27.4937   12.7897 C   0  0  0  0  0  0  0  0  0  0  0  0
   18.1071   27.9284   10.3031 C   0  0  0  0  0  0  0  0  0  0  0  0
   18.1168   27.5009    8.9892 C   0  0  0  0  0  0  0  0  0  0  0  0
   18.0152   26.1554    8.6988 C   0  0  0  0  0  0  0  0  0  0  0  0
   17.8936   25.2354    9.7236 C   0  0  0  0  0  0  0  0  0  0  0  0
   17.8980   25.6661   11.0453 C   0  0  0  0  0  0  0  0  0  0  0  0
   17.9931   27.0132   11.3446 C   0  0  0  0  0  0  0  0  0  0  0  0
 15 16  1  0  0  0
 16  9  1  0  0  0
  9 10  2  0  0  0
  9 14  1  0  0  0
 10 11  1  0  0  0
 11 12  2  0  0  0
 12 13  1  0  0  0
 12  6  1  0  0  0
 13 14  2  0  0  0
  6  7  2  0  0  0
  6  8  2  0  0  0
  6  5  1  0  0  0
  5 17  1  0  0  0
  5  4  1  0  0  0
 17 18  1  0  0  0
 18 19  1  0  0  0
 18 20  1  0  0  0
 20 21  1  0  0  0
  4  1  1  0  0  0
  1  2  1  0  0  0
  1 22  1  0  0  0
 22 23  1  0  0  0
 22 36  1  0  0  0
 23 24  1  0  0  0
 24 25  2  0  0  0
 24 27  1  0  0  0
 27 28  1  0  0  0
 28 29  1  0  0  0
 28 35  1  0  0  0
 29 30  1  0  0  0
 30 31  1  0  0  0
 31 32  1  0  0  0
 31 35  1  0  0  0
 32 33  1  0  0  0
 33 34  1  0  0  0
 34 35  1  0  0  0
 36 42  1  0  0  0
 37 38  2  0  0  0
 37 42  1  0  0  0
 38 39  1  0  0  0
 39 40  2  0  0  0
 40 41  1  0  0  0
 41 42  2  0  0  0
  2  3  1  0  0  0
 23 26  1  0  0  0
M  END
> <minimizedAffinity>
-9.00276

$$$$
3O9A_K14_A_200


 42 45  0  0  0  0  0  0  0  0999 V2000
   20.3935   29.2514   15.3186 C   0  0  0  0  0  0  0  0  0  0  0  0
   20.0368   28.2198   16.2464 O   0  0  0  0  0  0  0  0  0  0  0  0
   19.0774   28.2308   16.3891 H   0  0  0  0  0  0  0  0  0  0  0  0
   20.0651   30.6277   15.9055 C   0  0  0  0  0  0  0  0  0  0  0  0
   19.3180   31.4141   14.8985 N   0  0  0  0  0  0  0  0  0  0  0  0
   17.7561   31.6164   15.2729 S   0  0  0  0  0  0  0  0  0  0  0  0
   17.3734   30.6185   16.2177 O   0  0  0  0  0  0  0  0  0  0  0  0
   17.0505   31.4395   14.0223 O   0  0  0  0  0  0  0  0  0  0  0  0
   17.0454   35.7149   16.9294 C   0  0  0  0  0  0  0  0  0  0  0  0
   16.5234   35.3328   15.6869 C   0  0  0  0  0  0  0  0  0  0  0  0
   16.7486   34.0453   15.1937 C   0  0  0  0  0  0  0  0  0  0  0  0
   17.4881   33.1017   15.8999 C   0  0  0  0  0  0  0  0  0  0  0  0
   17.9995   33.4893   17.1473 C   0  0  0  0  0  0  0  0  0  0  0  0
   17.7948   34.7854   17.6522 C   0  0  0  0  0  0  0  0  0  0  0  0
   15.7157   37.3083   18.2567 C   0  0  0  0  0  0  0  0  0  0  0  0
   16.8481   36.9838   17.4341 O   0  0  0  0  0  0  0  0  0  0  0  0
   19.9772   32.7044   14.5664 C   0  0  0  0  0  0  0  0  0  0  0  0
   21.3657   32.8070   15.2073 C   0  0  0  0  0  0  0  0  0  0  0  0
   22.5152   32.6597   14.2022 C   0  0  0  0  0  0  0  0  0  0  0  0
   21.4605   34.1131   15.9994 C   0  0  0  0  0  0  0  0  0  0  0  0
   21.8911   33.9388   17.4326 C   0  0  0  0  0  0  0  0  0  0  0  0
   19.7212   28.9603   13.9825 C   0  0  0  0  0  0  0  0  0  0  0  0
   20.7072   28.2966   13.1741 N   0  0  0  0  0  0  0  0  0  0  0  0
   21.4783   28.8807   12.2605 C   0  0  0  0  0  0  0  0  0  0  0  0
   21.5002   30.0569   11.9341 O   0  0  0  0  0  0  0  0  0  0  0  0
   20.8217   27.3279   13.3077 H   0  0  0  0  0  0  0  0  0  0  0  0
   22.3525   27.9355   11.6245 O   0  0  0  0  0  0  0  0  0  0  0  0
   22.2620   26.5701   11.9956 C   0  0  0  0  0  0  0  0  0  0  0  0
   21.4095   25.9442   10.9149 C   0  0  0  0  0  0  0  0  0  0  0  0
   22.3271   25.7184    9.8371 O   0  0  0  0  0  0  0  0  0  0  0  0
   23.6289   25.4881   10.3839 C   0  0  0  0  0  0  0  0  0  0  0  0
   24.6136   26.3059    9.7512 O   0  0  0  0  0  0  0  0  0  0  0  0
   25.1704   27.2546   10.6771 C   0  0  0  0  0  0  0  0  0  0  0  0
   24.8484   26.7120   12.0609 C   0  0  0  0  0  0  0  0  0  0  0  0
   23.5972   25.8719   11.8498 C   0  0  0  0  0  0  0  0  0  0  0  0
   18.4522   28.0960   14.0574 C   0  0  0  0  0  0  0  0  0  0  0  0
   18.0878   26.3543   12.2610 C   0  0  0  0  0  0  0  0  0  0  0  0
   17.7484   25.9826   10.9742 C   0  0  0  0  0  0  0  0  0  0  0  0
   17.3720   26.9400   10.0541 C   0  0  0  0  0  0  0  0  0  0  0  0
   17.3440   28.2735   10.4179 C   0  0  0  0  0  0  0  0  0  0  0  0
   17.6724   28.6443   11.7168 C   0  0  0  0  0  0  0  0  0  0  0  0
   18.0567   27.6916   12.6431 C   0  0  0  0  0  0  0  0  0  0  0  0
 15 16  1  0  0  0
 16  9  1  0  0  0
  9 10  2  0  0  0
  9 14  1  0  0  0
 10 11  1  0  0  0
 11 12  2  0  0  0
 12 13  1  0  0  0
 12  6  1  0  0  0
 13 14  2  0  0  0
  6  7  2  0  0  0
  6  8  2  0  0  0
  6  5  1  0  0  0
  5 17  1  0  0  0
  5  4  1  0  0  0
 17 18  1  0  0  0
 18 19  1  0  0  0
 18 20  1  0  0  0
 20 21  1  0  0  0
  4  1  1  0  0  0
  1  2  1  0  0  0
  1 22  1  0  0  0
 22 23  1  0  0  0
 22 36  1  0  0  0
 23 24  1  0  0  0
 24 25  2  0  0  0
 24 27  1  0  0  0
 27 28  1  0  0  0
 28 29  1  0  0  0
 28 35  1  0  0  0
 29 30  1  0  0  0
 30 31  1  0  0  0
 31 32  1  0  0  0
 31 35  1  0  0  0
 32 33  1  0  0  0
 33 34  1  0  0  0
 34 35  1  0  0  0
 36 42  1  0  0  0
 37 38  2  0  0  0
 37 42  1  0  0  0
 38 39  1  0  0  0
 39 40  2  0  0  0
 40 41  1  0  0  0
 41 42  2  0  0  0
  2  3  1  0  0  0
 23 26  1  0  0  0
M  END
> <minimizedAffinity>
-8.88042

$$$$
3O9A_K14_A_200


 42 45  0  0  0  0  0  0  0  0999 V2000
   18.0908   30.7891   14.7898 C   0  0  0  0  0  0  0  0  0  0  0  0
   18.3296   29.5315   15.4330 O   0  0  0  0  0  0  0  0  0  0  0  0
   19.1983   29.1919   15.1667 H   0  0  0  0  0  0  0  0  0  0  0  0
   18.0289   30.6031   13.2705 C   0  0  0  0  0  0  0  0  0  0  0  0
   18.6861   29.3254   12.9154 N   0  0  0  0  0  0  0  0  0  0  0  0
   17.6561   28.2076   12.3587 S   0  0  0  0  0  0  0  0  0  0  0  0
   16.5353   28.8637   11.7683 O   0  0  0  0  0  0  0  0  0  0  0  0
   17.2562   27.4578   13.5296 O   0  0  0  0  0  0  0  0  0  0  0  0
   19.5628   25.5517    9.2996 C   0  0  0  0  0  0  0  0  0  0  0  0
   18.7463   26.6255    8.9219 C   0  0  0  0  0  0  0  0  0  0  0  0
   18.1697   27.4479    9.8929 C   0  0  0  0  0  0  0  0  0  0  0  0
   18.3754   27.2419   11.2535 C   0  0  0  0  0  0  0  0  0  0  0  0
   19.2016   26.1702   11.6230 C   0  0  0  0  0  0  0  0  0  0  0  0
   19.7781   25.3238   10.6597 C   0  0  0  0  0  0  0  0  0  0  0  0
   21.5425   24.4309    8.3545 C   0  0  0  0  0  0  0  0  0  0  0  0
   20.1345   24.7169    8.3615 O   0  0  0  0  0  0  0  0  0  0  0  0
   19.8486   29.5056   12.0066 C   0  0  0  0  0  0  0  0  0  0  0  0
   21.1674   29.1569   12.7055 C   0  0  0  0  0  0  0  0  0  0  0  0
   20.9805   28.3422   13.9919 C   0  0  0  0  0  0  0  0  0  0  0  0
   22.0949   28.4543   11.7114 C   0  0  0  0  0  0  0  0  0  0  0  0
   23.3756   27.9400   12.3158 C   0  0  0  0  0  0  0  0  0  0  0  0
   19.1437   31.7854   15.2595 C   0  0  0  0  0  0  0  0  0  0  0  0
   18.4305   32.8292   15.9438 N   0  0  0  0  0  0  0  0  0  0  0  0
   17.7686   33.8246   15.3595 C   0  0  0  0  0  0  0  0  0  0  0  0
   17.6412   34.0458   14.1656 O   0  0  0  0  0  0  0  0  0  0  0  0
   18.4319   32.8055   16.9280 H   0  0  0  0  0  0  0  0  0  0  0  0
   17.1719   34.7021   16.3270 O   0  0  0  0  0  0  0  0  0  0  0  0
   17.6512   34.6687   17.6610 C   0  0  0  0  0  0  0  0  0  0  0  0
   18.4426   35.9490   17.8064 C   0  0  0  0  0  0  0  0  0  0  0  0
   17.4446   36.9464   18.0589 O   0  0  0  0  0  0  0  0  0  0  0  0
   16.3451   36.3332   18.7382 C   0  0  0  0  0  0  0  0  0  0  0  0
   15.1015   36.6515   18.1132 O   0  0  0  0  0  0  0  0  0  0  0  0
   14.4890   35.4776   17.5526 C   0  0  0  0  0  0  0  0  0  0  0  0
   15.1543   34.2990   18.2464 C   0  0  0  0  0  0  0  0  0  0  0  0
   16.5208   34.8300   18.6547 C   0  0  0  0  0  0  0  0  0  0  0  0
   20.2277   31.2115   16.1860 C   0  0  0  0  0  0  0  0  0  0  0  0
   22.2731   31.7612   14.8048 C   0  0  0  0  0  0  0  0  0  0  0  0
   23.4570   32.4428   14.5973 C   0  0  0  0  0  0  0  0  0  0  0  0
   23.9037   33.3540   15.5327 C   0  0  0  0  0  0  0  0  0  0  0  0
   23.1705   33.5777   16.6833 C   0  0  0  0  0  0  0  0  0  0  0  0
   21.9726   32.9013   16.8839 C   0  0  0  0  0  0  0  0  0  0  0  0
   21.5212   31.9819   15.9543 C   0  0  0  0  0  0  0  0  0  0  0  0
 15 16  1  0  0  0
 16  9  1  0  0  0
  9 10  2  0  0  0
  9 14  1  0  0  0
 10 11  1  0  0  0
 11 12  2  0  0  0
 12 13  1  0  0  0
 12  6  1  0  0  0
 13 14  2  0  0  0
  6  7  2  0  0  0
  6  8  2  0  0  0
  6  5  1  0  0  0
  5 17  1  0  0  0
  5  4  1  0  0  0
 17 18  1  0  0  0
 18 19  1  0  0  0
 18 20  1  0  0  0
 20 21  1  0  0  0
  4  1  1  0  0  0
  1  2  1  0  0  0
  1 22  1  0  0  0
 22 23  1  0  0  0
 22 36  1  0  0  0
 23 24  1  0  0  0
 24 25  2  0  0  0
 24 27  1  0  0  0
 27 28  1  0  0  0
 28 29  1  0  0  0
 28 35  1  0  0  0
 29 30  1  0  0  0
 30 31  1  0  0  0
 31 32  1  0  0  0
 31 35  1  0  0  0
 32 33  1  0  0  0
 33 34  1  0  0  0
 34 35  1  0  0  0
 36 42  1  0  0  0
 37 38  2  0  0  0
 37 42  1  0  0  0
 38 39  1  0  0  0
 39 40  2  0  0  0
 40 41  1  0  0  0
 41 42  2  0  0  0
  2  3  1  0  0  0
 23 26  1  0  0  0
M  END
> <minimizedAffinity>
-8.80216

$$$$
3O9A_K14_A_200


 42 45  0  0  0  0  0  0  0  0999 V2000
   19.5878   32.6416   16.3598 C   0  0  0  0  0  0  0  0  0  0  0  0
   20.8247   32.6817   17.0815 O   0  0  0  0  0  0  0  0  0  0  0  0
   21.2571   33.5374   16.9347 H   0  0  0  0  0  0  0  0  0  0  0  0
   19.8508   32.7338   14.8535 C   0  0  0  0  0  0  0  0  0  0  0  0
   20.0658   31.3706   14.3186 N   0  0  0  0  0  0  0  0  0  0  0  0
   21.6051   31.0766   13.9124 S   0  0  0  0  0  0  0  0  0  0  0  0
   22.3815   30.9478   15.1022 O   0  0  0  0  0  0  0  0  0  0  0  0
   22.0149   32.2377   13.1528 O   0  0  0  0  0  0  0  0  0  0  0  0
   21.8741   27.3265   11.4812 C   0  0  0  0  0  0  0  0  0  0  0  0
   20.9416   28.3259   11.1745 C   0  0  0  0  0  0  0  0  0  0  0  0
   20.8819   29.4928   11.9402 C   0  0  0  0  0  0  0  0  0  0  0  0
   21.7290   29.7116   13.0221 C   0  0  0  0  0  0  0  0  0  0  0  0
   22.6659   28.7101   13.3168 C   0  0  0  0  0  0  0  0  0  0  0  0
   22.7301   27.5232   12.5659 C   0  0  0  0  0  0  0  0  0  0  0  0
   21.0718   25.0473   11.0013 C   0  0  0  0  0  0  0  0  0  0  0  0
   21.9459   26.1592   10.7489 O   0  0  0  0  0  0  0  0  0  0  0  0
   19.5161   30.3090   15.2019 C   0  0  0  0  0  0  0  0  0  0  0  0
   18.3013   29.6232   14.5669 C   0  0  0  0  0  0  0  0  0  0  0  0
   17.7658   30.3528   13.3282 C   0  0  0  0  0  0  0  0  0  0  0  0
   18.6458   28.1623   14.2677 C   0  0  0  0  0  0  0  0  0  0  0  0
   17.6456   27.4572   13.3888 C   0  0  0  0  0  0  0  0  0  0  0  0
   18.6684   33.7271   16.9058 C   0  0  0  0  0  0  0  0  0  0  0  0
   19.5237   34.8059   17.3192 N   0  0  0  0  0  0  0  0  0  0  0  0
   19.5854   35.3168   18.5462 C   0  0  0  0  0  0  0  0  0  0  0  0
   18.9474   34.9856   19.5329 O   0  0  0  0  0  0  0  0  0  0  0  0
   20.1138   35.2000   16.6368 H   0  0  0  0  0  0  0  0  0  0  0  0
   20.5367   36.3897   18.6246 O   0  0  0  0  0  0  0  0  0  0  0  0
   20.3618   37.5157   17.7809 C   0  0  0  0  0  0  0  0  0  0  0  0
   19.5394   38.4785   18.6075 C   0  0  0  0  0  0  0  0  0  0  0  0
   20.5014   39.1119   19.4607 O   0  0  0  0  0  0  0  0  0  0  0  0
   21.7598   39.1533   18.7812 C   0  0  0  0  0  0  0  0  0  0  0  0
   22.8146   38.6545   19.6041 O   0  0  0  0  0  0  0  0  0  0  0  0
   23.3656   37.4428   19.0605 C   0  0  0  0  0  0  0  0  0  0  0  0
   22.9448   37.4225   17.5992 C   0  0  0  0  0  0  0  0  0  0  0  0
   21.6681   38.2500   17.5676 C   0  0  0  0  0  0  0  0  0  0  0  0
   17.6146   34.2562   15.9197 C   0  0  0  0  0  0  0  0  0  0  0  0
   16.6022   36.2890   17.0315 C   0  0  0  0  0  0  0  0  0  0  0  0
   15.6103   36.9093   17.7669 C   0  0  0  0  0  0  0  0  0  0  0  0
   14.5114   36.1901   18.1912 C   0  0  0  0  0  0  0  0  0  0  0  0
   14.4079   34.8452   17.8883 C   0  0  0  0  0  0  0  0  0  0  0  0
   15.3998   34.2260   17.1366 C   0  0  0  0  0  0  0  0  0  0  0  0
   16.5073   34.9381   16.7129 C   0  0  0  0  0  0  0  0  0  0  0  0
 15 16  1  0  0  0
 16  9  1  0  0  0
  9 10  2  0  0  0
  9 14  1  0  0  0
 10 11  1  0  0  0
 11 12  2  0  0  0
 12 13  1  0  0  0
 12  6  1  0  0  0
 13 14  2  0  0  0
  6  7  2  0  0  0
  6  8  2  0  0  0
  6  5  1  0  0  0
  5 17  1  0  0  0
  5  4  1  0  0  0
 17 18  1  0  0  0
 18 19  1  0  0  0
 18 20  1  0  0  0
 20 21  1  0  0  0
  4  1  1  0  0  0
  1  2  1  0  0  0
  1 22  1  0  0  0
 22 23  1  0  0  0
 22 36  1  0  0  0
 23 24  1  0  0  0
 24 25  2  0  0  0
 24 27  1  0  0  0
 27 28  1  0  0  0
 28 29  1  0  0  0
 28 35  1  0  0  0
 29 30  1  0  0  0
 30 31  1  0  0  0
 31 32  1  0  0  0
 31 35  1  0  0  0
 32 33  1  0  0  0
 33 34  1  0  0  0
 34 35  1  0  0  0
 36 42  1  0  0  0
 37 38  2  0  0  0
 37 42  1  0  0  0
 38 39  1  0  0  0
 39 40  2  0  0  0
 40 41  1  0  0  0
 41 42  2  0  0  0
  2  3  1  0  0  0
 23 26  1  0  0  0
M  END
> <minimizedAffinity>
-8.68308

$$$$
3O9A_K14_A_200


 42 45  0  0  0  0  0  0  0  0999 V2000
   19.6644   30.7347   16.2765 C   0  0  0  0  0  0  0  0  0  0  0  0
   20.2080   30.0160   17.3902 O   0  0  0  0  0  0  0  0  0  0  0  0
   21.1744   29.9841   17.3139 H   0  0  0  0  0  0  0  0  0  0  0  0
   19.9651   29.9929   14.9703 C   0  0  0  0  0  0  0  0  0  0  0  0
   19.5914   30.8581   13.8291 N   0  0  0  0  0  0  0  0  0  0  0  0
   20.8306   31.1863   12.8405 S   0  0  0  0  0  0  0  0  0  0  0  0
   21.6835   32.1419   13.4686 O   0  0  0  0  0  0  0  0  0  0  0  0
   20.2190   31.7431   11.6536 O   0  0  0  0  0  0  0  0  0  0  0  0
   23.2154   27.5122   11.9127 C   0  0  0  0  0  0  0  0  0  0  0  0
   23.1993   28.0618   13.2011 C   0  0  0  0  0  0  0  0  0  0  0  0
   22.4399   29.2029   13.4710 C   0  0  0  0  0  0  0  0  0  0  0  0
   21.6798   29.8341   12.4913 C   0  0  0  0  0  0  0  0  0  0  0  0
   21.6941   29.2721   11.2062 C   0  0  0  0  0  0  0  0  0  0  0  0
   22.4641   28.1328   10.9135 C   0  0  0  0  0  0  0  0  0  0  0  0
   24.8362   26.3409   10.4741 C   0  0  0  0  0  0  0  0  0  0  0  0
   23.9663   26.3932   11.6164 O   0  0  0  0  0  0  0  0  0  0  0  0
   18.4092   30.3530   13.0827 C   0  0  0  0  0  0  0  0  0  0  0  0
   18.5045   28.8435   12.8346 C   0  0  0  0  0  0  0  0  0  0  0  0
   17.6654   28.0094   13.8111 C   0  0  0  0  0  0  0  0  0  0  0  0
   18.1484   28.5485   11.3757 C   0  0  0  0  0  0  0  0  0  0  0  0
   16.7233   28.8708   11.0083 C   0  0  0  0  0  0  0  0  0  0  0  0
   20.1819   32.1672   16.3202 C   0  0  0  0  0  0  0  0  0  0  0  0
   19.1570   32.9440   16.9622 N   0  0  0  0  0  0  0  0  0  0  0  0
   18.1930   33.6172   16.3394 C   0  0  0  0  0  0  0  0  0  0  0  0
   17.9941   33.7099   15.1385 O   0  0  0  0  0  0  0  0  0  0  0  0
   19.1693   32.9811   17.9460 H   0  0  0  0  0  0  0  0  0  0  0  0
   17.3351   34.2947   17.2706 O   0  0  0  0  0  0  0  0  0  0  0  0
   16.0174   34.6245   16.8642 C   0  0  0  0  0  0  0  0  0  0  0  0
   15.1298   33.9237   17.8680 C   0  0  0  0  0  0  0  0  0  0  0  0
   15.1316   34.7994   19.0029 O   0  0  0  0  0  0  0  0  0  0  0  0
   15.3059   36.1434   18.5446 C   0  0  0  0  0  0  0  0  0  0  0  0
   16.3442   36.8099   19.2630 O   0  0  0  0  0  0  0  0  0  0  0  0
   17.4500   37.1255   18.3998 C   0  0  0  0  0  0  0  0  0  0  0  0
   16.8955   37.0592   16.9852 C   0  0  0  0  0  0  0  0  0  0  0  0
   15.7248   36.0926   17.0888 C   0  0  0  0  0  0  0  0  0  0  0  0
   21.5149   32.3644   17.0600 C   0  0  0  0  0  0  0  0  0  0  0  0
   22.0969   34.3509   18.5119 C   0  0  0  0  0  0  0  0  0  0  0  0
   22.2859   35.7060   18.7053 C   0  0  0  0  0  0  0  0  0  0  0  0
   22.1253   36.5841   17.6527 C   0  0  0  0  0  0  0  0  0  0  0  0
   21.7651   36.1081   16.4057 C   0  0  0  0  0  0  0  0  0  0  0  0
   21.5889   34.7431   16.2095 C   0  0  0  0  0  0  0  0  0  0  0  0
   21.7419   33.8572   17.2607 C   0  0  0  0  0  0  0  0  0  0  0  0
 15 16  1  0  0  0
 16  9  1  0  0  0
  9 10  2  0  0  0
  9 14  1  0  0  0
 10 11  1  0  0  0
 11 12  2  0  0  0
 12 13  1  0  0  0
 12  6  1  0  0  0
 13 14  2  0  0  0
  6  7  2  0  0  0
  6  8  2  0  0  0
  6  5  1  0  0  0
  5 17  1  0  0  0
  5  4  1  0  0  0
 17 18  1  0  0  0
 18 19  1  0  0  0
 18 20  1  0  0  0
 20 21  1  0  0  0
  4  1  1  0  0  0
  1  2  1  0  0  0
  1 22  1  0  0  0
 22 23  1  0  0  0
 22 36  1  0  0  0
 23 24  1  0  0  0
 24 25  2  0  0  0
 24 27  1  0  0  0
 27 28  1  0  0  0
 28 29  1  0  0  0
 28 35  1  0  0  0
 29 30  1  0  0  0
 30 31  1  0  0  0
 31 32  1  0  0  0
 31 35  1  0  0  0
 32 33  1  0  0  0
 33 34  1  0  0  0
 34 35  1  0  0  0
 36 42  1  0  0  0
 37 38  2  0  0  0
 37 42  1  0  0  0
 38 39  1  0  0  0
 39 40  2  0  0  0
 40 41  1  0  0  0
 41 42  2  0  0  0
  2  3  1  0  0  0
 23 26  1  0  0  0
M  END
> <minimizedAffinity>
-8.65771

$$$$
3O9A_K14_A_200


 42 45  0  0  0  0  0  0  0  0999 V2000
   19.8793   33.7622   16.8523 C   0  0  0  0  0  0  0  0  0  0  0  0
   20.8829   33.4575   17.8282 O   0  0  0  0  0  0  0  0  0  0  0  0
   21.4768   34.2177   17.9294 H   0  0  0  0  0  0  0  0  0  0  0  0
   20.5248   33.9850   15.4811 C   0  0  0  0  0  0  0  0  0  0  0  0
   20.4664   32.7221   14.7113 N   0  0  0  0  0  0  0  0  0  0  0  0
   21.9127   32.0206   14.5197 S   0  0  0  0  0  0  0  0  0  0  0  0
   22.4812   31.7730   15.8045 O   0  0  0  0  0  0  0  0  0  0  0  0
   22.6987   32.9887   13.7863 O   0  0  0  0  0  0  0  0  0  0  0  0
   21.4890   28.1937   12.2344 C   0  0  0  0  0  0  0  0  0  0  0  0
   21.3145   29.4357   11.6105 C   0  0  0  0  0  0  0  0  0  0  0  0
   21.4616   30.6178   12.3402 C   0  0  0  0  0  0  0  0  0  0  0  0
   21.7814   30.6159   13.6944 C   0  0  0  0  0  0  0  0  0  0  0  0
   21.9635   29.3684   14.3095 C   0  0  0  0  0  0  0  0  0  0  0  0
   21.8049   28.1688   13.5937 C   0  0  0  0  0  0  0  0  0  0  0  0
   20.0557   26.5631   11.0702 C   0  0  0  0  0  0  0  0  0  0  0  0
   21.3374   27.0112   11.5398 O   0  0  0  0  0  0  0  0  0  0  0  0
   19.4563   31.7683   15.2401 C   0  0  0  0  0  0  0  0  0  0  0  0
   18.3238   31.5345   14.2341 C   0  0  0  0  0  0  0  0  0  0  0  0
   18.1214   30.0570   13.8741 C   0  0  0  0  0  0  0  0  0  0  0  0
   17.0392   32.1772   14.7621 C   0  0  0  0  0  0  0  0  0  0  0  0
   16.6063   31.6758   16.1153 C   0  0  0  0  0  0  0  0  0  0  0  0
   19.0495   34.9369   17.3556 C   0  0  0  0  0  0  0  0  0  0  0  0
   19.8693   36.1061   17.1911 N   0  0  0  0  0  0  0  0  0  0  0  0
   20.1891   36.9677   18.1533 C   0  0  0  0  0  0  0  0  0  0  0  0
   19.8590   36.9410   19.3284 O   0  0  0  0  0  0  0  0  0  0  0  0
   20.2243   36.2845   16.2903 H   0  0  0  0  0  0  0  0  0  0  0  0
   21.0168   38.0310   17.6569 O   0  0  0  0  0  0  0  0  0  0  0  0
   21.3437   39.1006   18.5283 C   0  0  0  0  0  0  0  0  0  0  0  0
   22.8250   39.3176   18.3151 C   0  0  0  0  0  0  0  0  0  0  0  0
   22.8910   40.1072   17.1205 O   0  0  0  0  0  0  0  0  0  0  0  0
   21.7102   40.9105   17.0361 C   0  0  0  0  0  0  0  0  0  0  0  0
   21.0917   40.7971   15.7542 O   0  0  0  0  0  0  0  0  0  0  0  0
   19.8011   40.1715   15.8564 C   0  0  0  0  0  0  0  0  0  0  0  0
   19.3965   40.3060   17.3162 C   0  0  0  0  0  0  0  0  0  0  0  0
   20.7195   40.3986   18.0625 C   0  0  0  0  0  0  0  0  0  0  0  0
   17.7047   35.1482   16.6418 C   0  0  0  0  0  0  0  0  0  0  0  0
   16.8651   37.4876   17.1062 C   0  0  0  0  0  0  0  0  0  0  0  0
   16.1317   38.3952   17.8462 C   0  0  0  0  0  0  0  0  0  0  0  0
   15.4001   37.9687   18.9361 C   0  0  0  0  0  0  0  0  0  0  0  0
   15.4092   36.6333   19.2935 C   0  0  0  0  0  0  0  0  0  0  0  0
   16.1365   35.7192   18.5397 C   0  0  0  0  0  0  0  0  0  0  0  0
   16.8772   36.1396   17.4498 C   0  0  0  0  0  0  0  0  0  0  0  0
 15 16  1  0  0  0
 16  9  1  0  0  0
  9 10  2  0  0  0
  9 14  1  0  0  0
 10 11  1  0  0  0
 11 12  2  0  0  0
 12 13  1  0  0  0
 12  6  1  0  0  0
 13 14  2  0  0  0
  6  7  2  0  0  0
  6  8  2  0  0  0
  6  5  1  0  0  0
  5 17  1  0  0  0
  5  4  1  0  0  0
 17 18  1  0  0  0
 18 19  1  0  0  0
 18 20  1  0  0  0
 20 21  1  0  0  0
  4  1  1  0  0  0
  1  2  1  0  0  0
  1 22  1  0  0  0
 22 23  1  0  0  0
 22 36  1  0  0  0
 23 24  1  0  0  0
 24 25  2  0  0  0
 24 27  1  0  0  0
 27 28  1  0  0  0
 28 29  1  0  0  0
 28 35  1  0  0  0
 29 30  1  0  0  0
 30 31  1  0  0  0
 31 32  1  0  0  0
 31 35  1  0  0  0
 32 33  1  0  0  0
 33 34  1  0  0  0
 34 35  1  0  0  0
 36 42  1  0  0  0
 37 38  2  0  0  0
 37 42  1  0  0  0
 38 39  1  0  0  0
 39 40  2  0  0  0
 40 41  1  0  0  0
 41 42  2  0  0  0
  2  3  1  0  0  0
 23 26  1  0  0  0
M  END
> <minimizedAffinity>
-8.33492

$$$$
3O9A_K14_A_200


 42 45  0  0  0  0  0  0  0  0999 V2000
   20.0324   30.2255   15.7639 C   0  0  0  0  0  0  0  0  0  0  0  0
   19.7674   29.3478   16.8647 O   0  0  0  0  0  0  0  0  0  0  0  0
   19.0603   29.7217   17.4134 H   0  0  0  0  0  0  0  0  0  0  0  0
   20.5552   31.5718   16.2744 C   0  0  0  0  0  0  0  0  0  0  0  0
   21.9174   31.7928   15.7394 N   0  0  0  0  0  0  0  0  0  0  0  0
   21.9426   32.0706   14.1448 S   0  0  0  0  0  0  0  0  0  0  0  0
   23.0467   32.9212   13.8403 O   0  0  0  0  0  0  0  0  0  0  0  0
   20.6881   32.7349   13.8655 O   0  0  0  0  0  0  0  0  0  0  0  0
   22.3730   28.2458   11.8573 C   0  0  0  0  0  0  0  0  0  0  0  0
   22.9005   28.3840   13.1477 C   0  0  0  0  0  0  0  0  0  0  0  0
   22.7457   29.5831   13.8476 C   0  0  0  0  0  0  0  0  0  0  0  0
   22.0739   30.6743   13.3055 C   0  0  0  0  0  0  0  0  0  0  0  0
   21.5408   30.5246   12.0166 C   0  0  0  0  0  0  0  0  0  0  0  0
   21.7000   29.3302   11.2923 C   0  0  0  0  0  0  0  0  0  0  0  0
   23.4698   26.0659   11.5200 C   0  0  0  0  0  0  0  0  0  0  0  0
   22.5225   27.0769   11.1396 O   0  0  0  0  0  0  0  0  0  0  0  0
   22.6737   32.8280   16.4917 C   0  0  0  0  0  0  0  0  0  0  0  0
   21.7349   33.8638   17.1202 C   0  0  0  0  0  0  0  0  0  0  0  0
   22.0841   34.2019   18.5752 C   0  0  0  0  0  0  0  0  0  0  0  0
   21.6955   35.1117   16.2350 C   0  0  0  0  0  0  0  0  0  0  0  0
   21.4255   36.3924   16.9813 C   0  0  0  0  0  0  0  0  0  0  0  0
   18.7782   30.3224   14.9039 C   0  0  0  0  0  0  0  0  0  0  0  0
   18.7669   29.1461   14.0779 N   0  0  0  0  0  0  0  0  0  0  0  0
   18.4065   29.1038   12.7978 C   0  0  0  0  0  0  0  0  0  0  0  0
   18.0230   30.0235   12.0926 O   0  0  0  0  0  0  0  0  0  0  0  0
   19.0498   28.3001   14.4946 H   0  0  0  0  0  0  0  0  0  0  0  0
   18.5018   27.7734   12.2657 O   0  0  0  0  0  0  0  0  0  0  0  0
   17.4916   27.3226   11.3788 C   0  0  0  0  0  0  0  0  0  0  0  0
   17.7478   28.0876   10.0999 C   0  0  0  0  0  0  0  0  0  0  0  0
   18.8046   27.3567    9.4647 O   0  0  0  0  0  0  0  0  0  0  0  0
   18.6972   25.9793    9.8365 C   0  0  0  0  0  0  0  0  0  0  0  0
   19.9455   25.4645   10.3005 O   0  0  0  0  0  0  0  0  0  0  0  0
   19.8736   25.1105   11.6922 C   0  0  0  0  0  0  0  0  0  0  0  0
   18.3911   24.9741   12.0028 C   0  0  0  0  0  0  0  0  0  0  0  0
   17.7123   25.8780   10.9841 C   0  0  0  0  0  0  0  0  0  0  0  0
   17.4538   30.4191   15.6781 C   0  0  0  0  0  0  0  0  0  0  0  0
   17.5017   32.7393   14.6743 C   0  0  0  0  0  0  0  0  0  0  0  0
   17.0554   34.0449   14.5997 C   0  0  0  0  0  0  0  0  0  0  0  0
   16.0448   34.4792   15.4333 C   0  0  0  0  0  0  0  0  0  0  0  0
   15.4851   33.6094   16.3507 C   0  0  0  0  0  0  0  0  0  0  0  0
   15.9257   32.2925   16.4148 C   0  0  0  0  0  0  0  0  0  0  0  0
   16.9424   31.8511   15.5873 C   0  0  0  0  0  0  0  0  0  0  0  0
 15 16  1  0  0  0
 16  9  1  0  0  0
  9 10  2  0  0  0
  9 14  1  0  0  0
 10 11  1  0  0  0
 11 12  2  0  0  0
 12 13  1  0  0  0
 12  6  1  0  0  0
 13 14  2  0  0  0
  6  7  2  0  0  0
  6  8  2  0  0  0
  6  5  1  0  0  0
  5 17  1  0  0  0
  5  4  1  0  0  0
 17 18  1  0  0  0
 18 19  1  0  0  0
 18 20  1  0  0  0
 20 21  1  0  0  0
  4  1  1  0  0  0
  1  2  1  0  0  0
  1 22  1  0  0  0
 22 23  1  0  0  0
 22 36  1  0  0  0
 23 24  1  0  0  0
 24 25  2  0  0  0
 24 27  1  0  0  0
 27 28  1  0  0  0
 28 29  1  0  0  0
 28 35  1  0  0  0
 29 30  1  0  0  0
 30 31  1  0  0  0
 31 32  1  0  0  0
 31 35  1  0  0  0
 32 33  1  0  0  0
 33 34  1  0  0  0
 34 35  1  0  0  0
 36 42  1  0  0  0
 37 38  2  0  0  0
 37 42  1  0  0  0
 38 39  1  0  0  0
 39 40  2  0  0  0
 40 41  1  0  0  0
 41 42  2  0  0  0
  2  3  1  0  0  0
 23 26  1  0  0  0
M  END
> <minimizedAffinity>
-8.27871

$$$$
