2JEW_720_A_1310


 20 20  0  0  0  0  0  0  0  0999 V2000
   80.3886   20.4856    0.8614 C   0  0  0  0  0  0  0  0  0  0  0  0
   80.9921   19.7107    1.9833 C   0  0  0  0  0  0  0  0  0  0  0  0
   82.2431   19.6548    2.0767 O   0  0  0  0  0  0  0  0  0  0  0  0
   80.2381   19.1340    2.7970 O   0  0  0  0  0  0  0  0  0  0  0  0
   79.3083   19.1956    2.6989 H   0  0  0  0  0  0  0  0  0  0  0  0
   79.6838   19.6584   -0.2276 C   0  0  0  0  0  0  0  0  0  0  0  0
   80.6930   18.7138   -0.9333 C   0  0  0  0  0  0  0  0  0  0  0  0
   78.6997   17.3035   -0.6313 N   0  0  0  0  0  0  0  0  0  0  0  0
   80.1180   17.2867   -0.9936 C   0  0  0  0  0  0  0  0  0  0  0  0
   78.3267   16.3551   -0.6737 H   0  0  0  0  0  0  0  0  0  0  0  0
   78.1893   17.8991   -1.2834 H   0  0  0  0  0  0  0  0  0  0  0  0
   79.3905   21.5290    1.4337 C   0  0  0  0  0  0  0  0  0  0  0  0
   80.7827   24.0866    3.7149 C   0  0  0  0  0  0  0  0  0  0  0  0
   80.1684   22.6162    2.1176 C   0  0  0  0  0  0  0  0  0  0  0  0
   81.1107   23.4479    1.6823 C   0  0  0  0  0  0  0  0  0  0  0  0
   80.0614   23.1197    3.4253 N   0  0  0  0  0  0  0  0  0  0  0  0
   81.4409   24.2973    2.6363 N   0  0  0  0  0  0  0  0  0  0  0  0
   82.4762   25.3092    2.5924 C   0  0  0  0  0  0  0  0  0  0  0  0
   82.8540   27.6763    1.8104 C   0  0  0  0  0  0  0  0  0  0  0  0
   81.9876   26.7448    2.6762 C   0  0  0  0  0  0  0  0  0  0  0  0
  8  9  1  0  0  0
  9  7  1  0  0  0
 13 16  2  0  0  0
 13 17  1  0  0  0
 19 20  1  0  0  0
 18 20  1  0  0  0
 18 17  1  0  0  0
  7  6  1  0  0  0
  6  1  1  0  0  0
  1 12  1  0  0  0
  1  2  1  0  0  0
 12 14  1  0  0  0
 14 15  2  0  0  0
 14 16  1  0  0  0
 15 17  1  0  0  0
  2  3  2  0  0  0
  2  4  1  0  0  0
  8 10  1  0  0  0
  8 11  1  0  0  0
  4  5  1  0  0  0
M  END
> <minimizedAffinity>
-6.62200

$$$$
2JEW_720_A_1310


 20 20  0  0  0  0  0  0  0  0999 V2000
   81.3174   23.3588    2.2367 C   0  0  0  0  0  0  0  0  0  0  0  0
   80.1435   24.2519    2.0182 C   0  0  0  0  0  0  0  0  0  0  0  0
   79.0301   23.9152    2.4911 O   0  0  0  0  0  0  0  0  0  0  0  0
   80.2975   25.3078    1.3667 O   0  0  0  0  0  0  0  0  0  0  0  0
   81.1421   25.5299    1.0273 H   0  0  0  0  0  0  0  0  0  0  0  0
   82.5511   24.0119    2.8833 C   0  0  0  0  0  0  0  0  0  0  0  0
   83.6572   24.2570    1.8225 C   0  0  0  0  0  0  0  0  0  0  0  0
   82.8731   25.9925    0.2648 N   0  0  0  0  0  0  0  0  0  0  0  0
   83.6999   25.7500    1.4482 C   0  0  0  0  0  0  0  0  0  0  0  0
   82.9068   26.9831    0.0237 H   0  0  0  0  0  0  0  0  0  0  0  0
   81.9093   25.7233    0.4623 H   0  0  0  0  0  0  0  0  0  0  0  0
   80.8830   22.1358    3.0900 C   0  0  0  0  0  0  0  0  0  0  0  0
   81.3568   18.9257    1.3140 C   0  0  0  0  0  0  0  0  0  0  0  0
   80.8126   20.9277    2.2010 C   0  0  0  0  0  0  0  0  0  0  0  0
   80.0878   20.6574    1.1190 C   0  0  0  0  0  0  0  0  0  0  0  0
   81.5679   19.7427    2.2234 N   0  0  0  0  0  0  0  0  0  0  0  0
   80.4356   19.4857    0.6221 N   0  0  0  0  0  0  0  0  0  0  0  0
   79.8376   18.7952   -0.5019 C   0  0  0  0  0  0  0  0  0  0  0  0
   80.4841   16.4010   -0.9569 C   0  0  0  0  0  0  0  0  0  0  0  0
   80.7705   17.8791   -1.2746 C   0  0  0  0  0  0  0  0  0  0  0  0
  8  9  1  0  0  0
  9  7  1  0  0  0
 13 16  2  0  0  0
 13 17  1  0  0  0
 19 20  1  0  0  0
 18 20  1  0  0  0
 18 17  1  0  0  0
  7  6  1  0  0  0
  6  1  1  0  0  0
  1 12  1  0  0  0
  1  2  1  0  0  0
 12 14  1  0  0  0
 14 15  2  0  0  0
 14 16  1  0  0  0
 15 17  1  0  0  0
  2  3  2  0  0  0
  2  4  1  0  0  0
  8 10  1  0  0  0
  8 11  1  0  0  0
  4  5  1  0  0  0
M  END
> <minimizedAffinity>
-6.06683

$$$$
2JEW_720_A_1310


 20 20  0  0  0  0  0  0  0  0999 V2000
   80.7925   20.0920    1.5980 C   0  0  0  0  0  0  0  0  0  0  0  0
   79.4097   20.6492    1.6270 C   0  0  0  0  0  0  0  0  0  0  0  0
   78.5660   20.2190    0.8024 O   0  0  0  0  0  0  0  0  0  0  0  0
   79.1288   21.5320    2.4665 O   0  0  0  0  0  0  0  0  0  0  0  0
   79.7819   21.8312    3.0681 H   0  0  0  0  0  0  0  0  0  0  0  0
   80.9416   18.6884    0.9861 C   0  0  0  0  0  0  0  0  0  0  0  0
   81.1178   18.7806   -0.5531 C   0  0  0  0  0  0  0  0  0  0  0  0
   78.8927   17.7680   -0.8302 N   0  0  0  0  0  0  0  0  0  0  0  0
   80.2950   17.6750   -1.2398 C   0  0  0  0  0  0  0  0  0  0  0  0
   78.3549   17.0327   -1.2891 H   0  0  0  0  0  0  0  0  0  0  0  0
   78.5200   18.6790   -1.0975 H   0  0  0  0  0  0  0  0  0  0  0  0
   81.7296   21.0769    0.8467 C   0  0  0  0  0  0  0  0  0  0  0  0
   82.5876   23.2118    3.7432 C   0  0  0  0  0  0  0  0  0  0  0  0
   82.1433   22.1663    1.7936 C   0  0  0  0  0  0  0  0  0  0  0  0
   82.3963   23.4592    1.6103 C   0  0  0  0  0  0  0  0  0  0  0  0
   82.3115   22.1369    3.1886 N   0  0  0  0  0  0  0  0  0  0  0  0
   82.6441   24.0408    2.7683 N   0  0  0  0  0  0  0  0  0  0  0  0
   83.0373   25.4163    2.9947 C   0  0  0  0  0  0  0  0  0  0  0  0
   82.7786   27.6427    1.8399 C   0  0  0  0  0  0  0  0  0  0  0  0
   82.0506   26.4640    2.5095 C   0  0  0  0  0  0  0  0  0  0  0  0
  8  9  1  0  0  0
  9  7  1  0  0  0
 13 16  2  0  0  0
 13 17  1  0  0  0
 19 20  1  0  0  0
 18 20  1  0  0  0
 18 17  1  0  0  0
  7  6  1  0  0  0
  6  1  1  0  0  0
  1 12  1  0  0  0
  1  2  1  0  0  0
 12 14  1  0  0  0
 14 15  2  0  0  0
 14 16  1  0  0  0
 15 17  1  0  0  0
  2  3  2  0  0  0
  2  4  1  0  0  0
  8 10  1  0  0  0
  8 11  1  0  0  0
  4  5  1  0  0  0
M  END
> <minimizedAffinity>
-5.97852

$$$$
2JEW_720_A_1310


 20 20  0  0  0  0  0  0  0  0999 V2000
   82.0242   24.6708    3.0895 C   0  0  0  0  0  0  0  0  0  0  0  0
   81.6226   25.8245    2.2344 C   0  0  0  0  0  0  0  0  0  0  0  0
   81.3442   26.9183    2.7848 O   0  0  0  0  0  0  0  0  0  0  0  0
   81.5690   25.6712    0.9948 O   0  0  0  0  0  0  0  0  0  0  0  0
   81.7832   24.8416    0.6156 H   0  0  0  0  0  0  0  0  0  0  0  0
   83.0533   24.9742    4.1920 C   0  0  0  0  0  0  0  0  0  0  0  0
   84.2987   24.0603    4.0416 C   0  0  0  0  0  0  0  0  0  0  0  0
   83.6501   21.7658    4.6486 N   0  0  0  0  0  0  0  0  0  0  0  0
   84.2928   22.9845    5.1433 C   0  0  0  0  0  0  0  0  0  0  0  0
   83.6503   21.0589    5.3839 H   0  0  0  0  0  0  0  0  0  0  0  0
   84.1631   21.4153    3.8397 H   0  0  0  0  0  0  0  0  0  0  0  0
   80.7587   24.0415    3.7337 C   0  0  0  0  0  0  0  0  0  0  0  0
   80.6758   20.5131    2.6260 C   0  0  0  0  0  0  0  0  0  0  0  0
   80.4935   22.7156    3.0807 C   0  0  0  0  0  0  0  0  0  0  0  0
   79.7781   22.3745    2.0125 C   0  0  0  0  0  0  0  0  0  0  0  0
   81.0019   21.4406    3.3827 N   0  0  0  0  0  0  0  0  0  0  0  0
   79.9126   21.0845    1.7705 N   0  0  0  0  0  0  0  0  0  0  0  0
   79.2415   20.3072    0.7491 C   0  0  0  0  0  0  0  0  0  0  0  0
   79.4965   18.3606   -0.8329 C   0  0  0  0  0  0  0  0  0  0  0  0
   80.1542   19.6265   -0.2560 C   0  0  0  0  0  0  0  0  0  0  0  0
  8  9  1  0  0  0
  9  7  1  0  0  0
 13 16  2  0  0  0
 13 17  1  0  0  0
 19 20  1  0  0  0
 18 20  1  0  0  0
 18 17  1  0  0  0
  7  6  1  0  0  0
  6  1  1  0  0  0
  1 12  1  0  0  0
  1  2  1  0  0  0
 12 14  1  0  0  0
 14 15  2  0  0  0
 14 16  1  0  0  0
 15 17  1  0  0  0
  2  3  2  0  0  0
  2  4  1  0  0  0
  8 10  1  0  0  0
  8 11  1  0  0  0
  4  5  1  0  0  0
M  END
> <minimizedAffinity>
-5.92508

$$$$
2JEW_720_A_1310


 20 20  0  0  0  0  0  0  0  0999 V2000
   81.5362   23.3834    2.2152 C   0  0  0  0  0  0  0  0  0  0  0  0
   80.2226   24.0888    2.2364 C   0  0  0  0  0  0  0  0  0  0  0  0
   79.9767   24.9379    1.3445 O   0  0  0  0  0  0  0  0  0  0  0  0
   79.4044   23.8205    3.1428 O   0  0  0  0  0  0  0  0  0  0  0  0
   79.6191   23.1814    3.7936 H   0  0  0  0  0  0  0  0  0  0  0  0
   82.6698   24.0439    3.0187 C   0  0  0  0  0  0  0  0  0  0  0  0
   82.1345   25.2640    3.8146 C   0  0  0  0  0  0  0  0  0  0  0  0
   81.5501   27.2643    2.5066 N   0  0  0  0  0  0  0  0  0  0  0  0
   82.6489   26.5686    3.1786 C   0  0  0  0  0  0  0  0  0  0  0  0
   81.8989   28.1267    2.0883 H   0  0  0  0  0  0  0  0  0  0  0  0
   80.8222   27.4861    3.1859 H   0  0  0  0  0  0  0  0  0  0  0  0
   81.3454   21.9235    2.7099 C   0  0  0  0  0  0  0  0  0  0  0  0
   78.8217   20.2950    0.5507 C   0  0  0  0  0  0  0  0  0  0  0  0
   80.5818   21.1572    1.6686 C   0  0  0  0  0  0  0  0  0  0  0  0
   80.9702   20.3022    0.7266 C   0  0  0  0  0  0  0  0  0  0  0  0
   79.1974   21.0722    1.4418 N   0  0  0  0  0  0  0  0  0  0  0  0
   79.9185   19.8121    0.0985 N   0  0  0  0  0  0  0  0  0  0  0  0
   79.9131   18.9127   -1.0368 C   0  0  0  0  0  0  0  0  0  0  0  0
   80.4398   16.5048   -0.5061 C   0  0  0  0  0  0  0  0  0  0  0  0
   80.9920   17.8437   -1.0259 C   0  0  0  0  0  0  0  0  0  0  0  0
  8  9  1  0  0  0
  9  7  1  0  0  0
 13 16  2  0  0  0
 13 17  1  0  0  0
 19 20  1  0  0  0
 18 20  1  0  0  0
 18 17  1  0  0  0
  7  6  1  0  0  0
  6  1  1  0  0  0
  1 12  1  0  0  0
  1  2  1  0  0  0
 12 14  1  0  0  0
 14 15  2  0  0  0
 14 16  1  0  0  0
 15 17  1  0  0  0
  2  3  2  0  0  0
  2  4  1  0  0  0
  8 10  1  0  0  0
  8 11  1  0  0  0
  4  5  1  0  0  0
M  END
> <minimizedAffinity>
-5.91908

$$$$
2JEW_720_A_1310


 20 20  0  0  0  0  0  0  0  0999 V2000
   81.4779   23.2270    2.2887 C   0  0  0  0  0  0  0  0  0  0  0  0
   80.4603   24.3094    2.4168 C   0  0  0  0  0  0  0  0  0  0  0  0
   80.7634   25.4720    2.0515 O   0  0  0  0  0  0  0  0  0  0  0  0
   79.3360   24.0325    2.8884 O   0  0  0  0  0  0  0  0  0  0  0  0
   79.1417   23.1544    3.1517 H   0  0  0  0  0  0  0  0  0  0  0  0
   82.9171   23.6043    2.6797 C   0  0  0  0  0  0  0  0  0  0  0  0
   83.0586   23.6879    4.2230 C   0  0  0  0  0  0  0  0  0  0  0  0
   84.0022   21.5604    5.0211 N   0  0  0  0  0  0  0  0  0  0  0  0
   84.3298   22.9437    4.6716 C   0  0  0  0  0  0  0  0  0  0  0  0
   84.8490   21.0748    5.3170 H   0  0  0  0  0  0  0  0  0  0  0  0
   83.6064   21.0889    4.2078 H   0  0  0  0  0  0  0  0  0  0  0  0
   81.0295   21.9964    3.1237 C   0  0  0  0  0  0  0  0  0  0  0  0
   81.1749   18.8445    1.1929 C   0  0  0  0  0  0  0  0  0  0  0  0
   80.8204   20.8343    2.1962 C   0  0  0  0  0  0  0  0  0  0  0  0
   80.0029   20.6535    1.1627 C   0  0  0  0  0  0  0  0  0  0  0  0
   81.5017   19.6077    2.1149 N   0  0  0  0  0  0  0  0  0  0  0  0
   80.2411   19.4864    0.5955 N   0  0  0  0  0  0  0  0  0  0  0  0
   79.5211   18.8812   -0.5059 C   0  0  0  0  0  0  0  0  0  0  0  0
   80.4230   17.7626   -2.5778 C   0  0  0  0  0  0  0  0  0  0  0  0
   80.1411   17.6157   -1.0722 C   0  0  0  0  0  0  0  0  0  0  0  0
  8  9  1  0  0  0
  9  7  1  0  0  0
 13 16  2  0  0  0
 13 17  1  0  0  0
 19 20  1  0  0  0
 18 20  1  0  0  0
 18 17  1  0  0  0
  7  6  1  0  0  0
  6  1  1  0  0  0
  1 12  1  0  0  0
  1  2  1  0  0  0
 12 14  1  0  0  0
 14 15  2  0  0  0
 14 16  1  0  0  0
 15 17  1  0  0  0
  2  3  2  0  0  0
  2  4  1  0  0  0
  8 10  1  0  0  0
  8 11  1  0  0  0
  4  5  1  0  0  0
M  END
> <minimizedAffinity>
-5.61542

$$$$
2JEW_720_A_1310


 20 20  0  0  0  0  0  0  0  0999 V2000
   81.5846   21.2841    1.8424 C   0  0  0  0  0  0  0  0  0  0  0  0
   80.9694   20.0304    2.3650 C   0  0  0  0  0  0  0  0  0  0  0  0
   80.3762   19.2671    1.5636 O   0  0  0  0  0  0  0  0  0  0  0  0
   81.0558   19.7753    3.5859 O   0  0  0  0  0  0  0  0  0  0  0  0
   81.5057   20.3662    4.1572 H   0  0  0  0  0  0  0  0  0  0  0  0
   82.3708   21.1522    0.5266 C   0  0  0  0  0  0  0  0  0  0  0  0
   83.6609   20.3173    0.7438 C   0  0  0  0  0  0  0  0  0  0  0  0
   86.0406   20.2085    0.1283 N   0  0  0  0  0  0  0  0  0  0  0  0
   84.8818   21.0979    0.2232 C   0  0  0  0  0  0  0  0  0  0  0  0
   86.8444   20.7329   -0.2171 H   0  0  0  0  0  0  0  0  0  0  0  0
   85.8312   19.4447   -0.5146 H   0  0  0  0  0  0  0  0  0  0  0  0
   80.4835   22.3662    1.6711 C   0  0  0  0  0  0  0  0  0  0  0  0
   81.4830   25.0646    3.9955 C   0  0  0  0  0  0  0  0  0  0  0  0
   80.9410   23.6301    2.3404 C   0  0  0  0  0  0  0  0  0  0  0  0
   81.1759   24.8528    1.8724 C   0  0  0  0  0  0  0  0  0  0  0  0
   81.1840   23.8977    3.6985 N   0  0  0  0  0  0  0  0  0  0  0  0
   81.4820   25.6664    2.8648 N   0  0  0  0  0  0  0  0  0  0  0  0
   81.8786   27.0563    2.7713 C   0  0  0  0  0  0  0  0  0  0  0  0
   83.9332   27.8275    1.5298 C   0  0  0  0  0  0  0  0  0  0  0  0
   83.3720   27.3154    2.8680 C   0  0  0  0  0  0  0  0  0  0  0  0
  8  9  1  0  0  0
  9  7  1  0  0  0
 13 16  2  0  0  0
 13 17  1  0  0  0
 19 20  1  0  0  0
 18 20  1  0  0  0
 18 17  1  0  0  0
  7  6  1  0  0  0
  6  1  1  0  0  0
  1 12  1  0  0  0
  1  2  1  0  0  0
 12 14  1  0  0  0
 14 15  2  0  0  0
 14 16  1  0  0  0
 15 17  1  0  0  0
  2  3  2  0  0  0
  2  4  1  0  0  0
  8 10  1  0  0  0
  8 11  1  0  0  0
  4  5  1  0  0  0
M  END
> <minimizedAffinity>
-5.36631

$$$$
2JEW_720_A_1310


 20 20  0  0  0  0  0  0  0  0999 V2000
   82.5830   21.2595    1.2473 C   0  0  0  0  0  0  0  0  0  0  0  0
   83.7316   21.3085    0.2977 C   0  0  0  0  0  0  0  0  0  0  0  0
   84.6558   20.4673    0.4213 O   0  0  0  0  0  0  0  0  0  0  0  0
   83.7467   22.1872   -0.5914 O   0  0  0  0  0  0  0  0  0  0  0  0
   83.0410   22.8001   -0.6564 H   0  0  0  0  0  0  0  0  0  0  0  0
   81.8612   19.9059    1.3639 C   0  0  0  0  0  0  0  0  0  0  0  0
   80.6332   20.0223    2.3059 C   0  0  0  0  0  0  0  0  0  0  0  0
   79.0897   21.9356    2.4073 N   0  0  0  0  0  0  0  0  0  0  0  0
   79.5018   20.7887    1.5963 C   0  0  0  0  0  0  0  0  0  0  0  0
   78.3405   22.4374    1.9306 H   0  0  0  0  0  0  0  0  0  0  0  0
   79.8849   22.5599    2.5423 H   0  0  0  0  0  0  0  0  0  0  0  0
   83.0599   21.7051    2.6568 C   0  0  0  0  0  0  0  0  0  0  0  0
   81.1069   24.5833    3.9157 C   0  0  0  0  0  0  0  0  0  0  0  0
   82.4590   23.0455    2.9681 C   0  0  0  0  0  0  0  0  0  0  0  0
   82.6080   24.2420    2.4067 C   0  0  0  0  0  0  0  0  0  0  0  0
   81.4886   23.4028    3.9198 N   0  0  0  0  0  0  0  0  0  0  0  0
   81.7995   25.1141    2.9780 N   0  0  0  0  0  0  0  0  0  0  0  0
   81.7096   26.5350    2.7115 C   0  0  0  0  0  0  0  0  0  0  0  0
   83.4988   27.7566    1.4217 C   0  0  0  0  0  0  0  0  0  0  0  0
   83.0178   27.3001    2.8103 C   0  0  0  0  0  0  0  0  0  0  0  0
  8  9  1  0  0  0
  9  7  1  0  0  0
 13 16  2  0  0  0
 13 17  1  0  0  0
 19 20  1  0  0  0
 18 20  1  0  0  0
 18 17  1  0  0  0
  7  6  1  0  0  0
  6  1  1  0  0  0
  1 12  1  0  0  0
  1  2  1  0  0  0
 12 14  1  0  0  0
 14 15  2  0  0  0
 14 16  1  0  0  0
 15 17  1  0  0  0
  2  3  2  0  0  0
  2  4  1  0  0  0
  8 10  1  0  0  0
  8 11  1  0  0  0
  4  5  1  0  0  0
M  END
> <minimizedAffinity>
-5.30946

$$$$
2JEW_720_A_1310


 20 20  0  0  0  0  0  0  0  0999 V2000
   82.9007   23.8264    4.1006 C   0  0  0  0  0  0  0  0  0  0  0  0
   83.5073   24.4104    5.3312 C   0  0  0  0  0  0  0  0  0  0  0  0
   82.7488   24.8247    6.2423 O   0  0  0  0  0  0  0  0  0  0  0  0
   84.7525   24.4768    5.4212 O   0  0  0  0  0  0  0  0  0  0  0  0
   85.2902   24.1585    4.7230 H   0  0  0  0  0  0  0  0  0  0  0  0
   82.8597   24.7451    2.8673 C   0  0  0  0  0  0  0  0  0  0  0  0
   81.4462   25.3623    2.6941 C   0  0  0  0  0  0  0  0  0  0  0  0
   79.3787   24.0349    2.8239 N   0  0  0  0  0  0  0  0  0  0  0  0
   80.5245   24.3614    1.9733 C   0  0  0  0  0  0  0  0  0  0  0  0
   78.7736   23.3719    2.3395 H   0  0  0  0  0  0  0  0  0  0  0  0
   78.8549   24.8855    3.0300 H   0  0  0  0  0  0  0  0  0  0  0  0
   83.6444   22.5133    3.7326 C   0  0  0  0  0  0  0  0  0  0  0  0
   81.0502   20.1866    2.4918 C   0  0  0  0  0  0  0  0  0  0  0  0
   82.7171   21.6406    2.9368 C   0  0  0  0  0  0  0  0  0  0  0  0
   82.7175   21.2700    1.6594 C   0  0  0  0  0  0  0  0  0  0  0  0
   81.6012   20.8928    3.3501 N   0  0  0  0  0  0  0  0  0  0  0  0
   81.7372   20.4160    1.4353 N   0  0  0  0  0  0  0  0  0  0  0  0
   81.3497   19.8362    0.1659 C   0  0  0  0  0  0  0  0  0  0  0  0
   80.3583   17.9048   -1.1164 C   0  0  0  0  0  0  0  0  0  0  0  0
   81.0097   18.3564    0.2025 C   0  0  0  0  0  0  0  0  0  0  0  0
  8  9  1  0  0  0
  9  7  1  0  0  0
 13 16  2  0  0  0
 13 17  1  0  0  0
 19 20  1  0  0  0
 18 20  1  0  0  0
 18 17  1  0  0  0
  7  6  1  0  0  0
  6  1  1  0  0  0
  1 12  1  0  0  0
  1  2  1  0  0  0
 12 14  1  0  0  0
 14 15  2  0  0  0
 14 16  1  0  0  0
 15 17  1  0  0  0
  2  3  2  0  0  0
  2  4  1  0  0  0
  8 10  1  0  0  0
  8 11  1  0  0  0
  4  5  1  0  0  0
M  END
> <minimizedAffinity>
-5.30274

$$$$
2JEW_720_A_1310


 20 20  0  0  0  0  0  0  0  0999 V2000
   80.8672   20.6030    1.2264 C   0  0  0  0  0  0  0  0  0  0  0  0
   79.4540   20.8651    1.6233 C   0  0  0  0  0  0  0  0  0  0  0  0
   79.2262   21.6871    2.5449 O   0  0  0  0  0  0  0  0  0  0  0  0
   78.5352   20.2569    1.0327 O   0  0  0  0  0  0  0  0  0  0  0  0
   78.7392   19.6496    0.3489 H   0  0  0  0  0  0  0  0  0  0  0  0
   81.0664   19.8287   -0.0879 C   0  0  0  0  0  0  0  0  0  0  0  0
   80.9936   18.2990    0.1643 C   0  0  0  0  0  0  0  0  0  0  0  0
   78.7674   17.8032   -0.7586 N   0  0  0  0  0  0  0  0  0  0  0  0
   80.2043   17.6200   -0.9701 C   0  0  0  0  0  0  0  0  0  0  0  0
   78.2522   17.3508   -1.5137 H   0  0  0  0  0  0  0  0  0  0  0  0
   78.5497   18.7996   -0.7477 H   0  0  0  0  0  0  0  0  0  0  0  0
   81.6382   21.9490    1.1460 C   0  0  0  0  0  0  0  0  0  0  0  0
   84.9043   21.6408    2.8551 C   0  0  0  0  0  0  0  0  0  0  0  0
   82.7922   21.9021    2.1056 C   0  0  0  0  0  0  0  0  0  0  0  0
   82.8505   21.9482    3.4336 C   0  0  0  0  0  0  0  0  0  0  0  0
   84.1640   21.7173    1.8625 N   0  0  0  0  0  0  0  0  0  0  0  0
   84.0957   21.7850    3.8381 N   0  0  0  0  0  0  0  0  0  0  0  0
   84.5936   21.8462    5.1968 C   0  0  0  0  0  0  0  0  0  0  0  0
   84.5572   23.4171    7.1687 C   0  0  0  0  0  0  0  0  0  0  0  0
   84.9589   23.2338    5.6946 C   0  0  0  0  0  0  0  0  0  0  0  0
  8  9  1  0  0  0
  9  7  1  0  0  0
 13 16  2  0  0  0
 13 17  1  0  0  0
 19 20  1  0  0  0
 18 20  1  0  0  0
 18 17  1  0  0  0
  7  6  1  0  0  0
  6  1  1  0  0  0
  1 12  1  0  0  0
  1  2  1  0  0  0
 12 14  1  0  0  0
 14 15  2  0  0  0
 14 16  1  0  0  0
 15 17  1  0  0  0
  2  3  2  0  0  0
  2  4  1  0  0  0
  8 10  1  0  0  0
  8 11  1  0  0  0
  4  5  1  0  0  0
M  END
> <minimizedAffinity>
-5.21569

$$$$
