4A4V_YFD_A_999


 24 24  0  0  0  0  0  0  0  0999 V2000
  -16.1328   22.3223  -48.0739 C   0  0  0  0  0  0  0  0  0  0  0  0
  -17.3779   21.7517  -47.7327 C   0  0  0  0  0  0  0  0  0  0  0  0
  -17.4359   20.4160  -47.3023 C   0  0  0  0  0  0  0  0  0  0  0  0
  -18.6482   19.8829  -46.9936 O   0  0  0  0  0  0  0  0  0  0  0  0
  -15.0074   21.5231  -47.9353 C   0  0  0  0  0  0  0  0  0  0  0  0
  -15.0830   20.1997  -47.5036 C   0  0  0  0  0  0  0  0  0  0  0  0
  -16.3033   19.6051  -47.1663 C   0  0  0  0  0  0  0  0  0  0  0  0
  -19.4233   20.4030  -47.0754 H   0  0  0  0  0  0  0  0  0  0  0  0
  -18.7152   22.5365  -47.8253 C   0  0  0  0  0  0  0  0  0  0  0  0
  -18.8270   23.5970  -47.1561 O   0  0  0  0  0  0  0  0  0  0  0  0
  -19.6174   22.0978  -48.5795 O   0  0  0  0  0  0  0  0  0  0  0  0
  -18.1226   23.8811  -46.6074 H   0  0  0  0  0  0  0  0  0  0  0  0
  -13.9253   19.4998  -47.4156 O   0  0  0  0  0  0  0  0  0  0  0  0
  -13.4696   19.1530  -48.7197 C   0  0  0  0  0  0  0  0  0  0  0  0
  -15.8396   23.7592  -48.5472 C   0  0  0  0  0  0  0  0  0  0  0  0
  -15.6960   23.9300  -50.0634 C   0  0  0  0  0  0  0  0  0  0  0  0
  -16.2992   25.2663  -50.5565 C   0  0  0  0  0  0  0  0  0  0  0  0
  -18.7698   24.8225  -50.7189 C   0  0  0  0  0  0  0  0  0  0  0  0
  -17.6735   25.5721  -49.9507 C   0  0  0  0  0  0  0  0  0  0  0  0
  -16.4514   18.1434  -46.6666 C   0  0  0  0  0  0  0  0  0  0  0  0
  -16.1310   18.0037  -45.2997 C   0  0  0  0  0  0  0  0  0  0  0  0
  -16.9392   17.7569  -44.1714 C   0  0  0  0  0  0  0  0  0  0  0  0
  -16.2904   17.5928  -42.7728 C   0  0  0  0  0  0  0  0  0  0  0  0
  -18.4843   17.6295  -44.2776 C   0  0  0  0  0  0  0  0  0  0  0  0
 18 19  1  0  0  0
 19 17  1  0  0  0
 17 16  1  0  0  0
 16 15  1  0  0  0
 15  1  1  0  0  0
  1  2  1  0  0  0
  1  5  2  0  0  0
  2  9  1  0  0  0
  2  3  2  0  0  0
  9 10  1  0  0  0
  9 11  2  0  0  0
  3  4  1  0  0  0
  3  7  1  0  0  0
  5  6  1  0  0  0
  6 13  1  0  0  0
  6  7  2  0  0  0
 13 14  1  0  0  0
  7 20  1  0  0  0
 20 21  1  0  0  0
 21 22  2  0  0  0
 22 23  1  0  0  0
 22 24  1  0  0  0
 10 12  1  0  0  0
  4  8  1  0  0  0
M  END
> <minimizedAffinity>
-7.33112

$$$$
4A4V_YFD_A_999


 24 24  0  0  0  0  0  0  0  0999 V2000
  -16.1289   22.3820  -48.0702 C   0  0  0  0  0  0  0  0  0  0  0  0
  -17.3837   21.8204  -47.7503 C   0  0  0  0  0  0  0  0  0  0  0  0
  -17.4600   20.4816  -47.3327 C   0  0  0  0  0  0  0  0  0  0  0  0
  -18.6812   19.9574  -47.0444 O   0  0  0  0  0  0  0  0  0  0  0  0
  -15.0130   21.5708  -47.9242 C   0  0  0  0  0  0  0  0  0  0  0  0
  -15.1068   20.2445  -47.5055 C   0  0  0  0  0  0  0  0  0  0  0  0
  -16.3370   19.6587  -47.1892 C   0  0  0  0  0  0  0  0  0  0  0  0
  -19.4502   20.4856  -47.1316 H   0  0  0  0  0  0  0  0  0  0  0  0
  -18.7122   22.6188  -47.8531 C   0  0  0  0  0  0  0  0  0  0  0  0
  -18.8383   23.6521  -47.1451 O   0  0  0  0  0  0  0  0  0  0  0  0
  -19.5926   22.2181  -48.6528 O   0  0  0  0  0  0  0  0  0  0  0  0
  -18.1501   23.9081  -46.5631 H   0  0  0  0  0  0  0  0  0  0  0  0
  -13.9570   19.5327  -47.4088 O   0  0  0  0  0  0  0  0  0  0  0  0
  -13.4818   19.2027  -48.7102 C   0  0  0  0  0  0  0  0  0  0  0  0
  -15.8160   23.8202  -48.5268 C   0  0  0  0  0  0  0  0  0  0  0  0
  -15.2809   23.9485  -49.9572 C   0  0  0  0  0  0  0  0  0  0  0  0
  -16.0435   25.0229  -50.7677 C   0  0  0  0  0  0  0  0  0  0  0  0
  -14.2754   26.8005  -50.5660 C   0  0  0  0  0  0  0  0  0  0  0  0
  -15.1191   25.9694  -51.5413 C   0  0  0  0  0  0  0  0  0  0  0  0
  -16.5054   18.1940  -46.7047 C   0  0  0  0  0  0  0  0  0  0  0  0
  -16.1865   18.0358  -45.3394 C   0  0  0  0  0  0  0  0  0  0  0  0
  -16.9965   17.7781  -44.2148 C   0  0  0  0  0  0  0  0  0  0  0  0
  -16.3494   17.5936  -42.8180 C   0  0  0  0  0  0  0  0  0  0  0  0
  -18.5421   17.6587  -44.3235 C   0  0  0  0  0  0  0  0  0  0  0  0
 18 19  1  0  0  0
 19 17  1  0  0  0
 17 16  1  0  0  0
 16 15  1  0  0  0
 15  1  1  0  0  0
  1  2  1  0  0  0
  1  5  2  0  0  0
  2  9  1  0  0  0
  2  3  2  0  0  0
  9 10  1  0  0  0
  9 11  2  0  0  0
  3  4  1  0  0  0
  3  7  1  0  0  0
  5  6  1  0  0  0
  6 13  1  0  0  0
  6  7  2  0  0  0
 13 14  1  0  0  0
  7 20  1  0  0  0
 20 21  1  0  0  0
 21 22  2  0  0  0
 22 23  1  0  0  0
 22 24  1  0  0  0
 10 12  1  0  0  0
  4  8  1  0  0  0
M  END
> <minimizedAffinity>
-7.21654

$$$$
4A4V_YFD_A_999


 24 24  0  0  0  0  0  0  0  0999 V2000
  -17.2834   19.4405  -47.1016 C   0  0  0  0  0  0  0  0  0  0  0  0
  -18.6007   19.7791  -47.4788 C   0  0  0  0  0  0  0  0  0  0  0  0
  -18.8900   21.0894  -47.8937 C   0  0  0  0  0  0  0  0  0  0  0  0
  -20.1693   21.3965  -48.2379 O   0  0  0  0  0  0  0  0  0  0  0  0
  -16.3207   20.4354  -47.1904 C   0  0  0  0  0  0  0  0  0  0  0  0
  -16.6250   21.7304  -47.6074 C   0  0  0  0  0  0  0  0  0  0  0  0
  -17.9225   22.0970  -47.9796 C   0  0  0  0  0  0  0  0  0  0  0  0
  -20.8375   20.7414  -48.1899 H   0  0  0  0  0  0  0  0  0  0  0  0
  -19.7728   18.7603  -47.4433 C   0  0  0  0  0  0  0  0  0  0  0  0
  -20.4818   18.6372  -48.4763 O   0  0  0  0  0  0  0  0  0  0  0  0
  -19.9498   18.0856  -46.3999 O   0  0  0  0  0  0  0  0  0  0  0  0
  -20.3075   19.1660  -49.2299 H   0  0  0  0  0  0  0  0  0  0  0  0
  -15.6139   22.6327  -47.6457 O   0  0  0  0  0  0  0  0  0  0  0  0
  -14.5183   22.1001  -48.3837 C   0  0  0  0  0  0  0  0  0  0  0  0
  -16.7458   18.0732  -46.6369 C   0  0  0  0  0  0  0  0  0  0  0  0
  -16.2222   18.0334  -45.1971 C   0  0  0  0  0  0  0  0  0  0  0  0
  -17.2692   18.5538  -44.1843 C   0  0  0  0  0  0  0  0  0  0  0  0
  -19.1499   18.0258  -42.5996 C   0  0  0  0  0  0  0  0  0  0  0  0
  -18.0432   17.4331  -43.4816 C   0  0  0  0  0  0  0  0  0  0  0  0
  -18.3213   23.5160  -48.4652 C   0  0  0  0  0  0  0  0  0  0  0  0
  -17.5954   23.9215  -49.6051 C   0  0  0  0  0  0  0  0  0  0  0  0
  -17.1188   25.1855  -50.0080 C   0  0  0  0  0  0  0  0  0  0  0  0
  -16.2852   25.3224  -51.3081 C   0  0  0  0  0  0  0  0  0  0  0  0
  -17.3921   26.4710  -49.1787 C   0  0  0  0  0  0  0  0  0  0  0  0
 18 19  1  0  0  0
 19 17  1  0  0  0
 17 16  1  0  0  0
 16 15  1  0  0  0
 15  1  1  0  0  0
  1  2  1  0  0  0
  1  5  2  0  0  0
  2  9  1  0  0  0
  2  3  2  0  0  0
  9 10  1  0  0  0
  9 11  2  0  0  0
  3  4  1  0  0  0
  3  7  1  0  0  0
  5  6  1  0  0  0
  6 13  1  0  0  0
  6  7  2  0  0  0
 13 14  1  0  0  0
  7 20  1  0  0  0
 20 21  1  0  0  0
 21 22  2  0  0  0
 22 23  1  0  0  0
 22 24  1  0  0  0
 10 12  1  0  0  0
  4  8  1  0  0  0
M  END
> <minimizedAffinity>
-7.19283

$$$$
4A4V_YFD_A_999


 24 24  0  0  0  0  0  0  0  0999 V2000
  -18.8290   17.5290  -44.3194 C   0  0  0  0  0  0  0  0  0  0  0  0
  -17.4310   17.6969  -44.2218 C   0  0  0  0  0  0  0  0  0  0  0  0
  -16.6936   18.0631  -45.3597 C   0  0  0  0  0  0  0  0  0  0  0  0
  -15.3460   18.2042  -45.2454 O   0  0  0  0  0  0  0  0  0  0  0  0
  -19.4136   17.7676  -45.5546 C   0  0  0  0  0  0  0  0  0  0  0  0
  -18.6667   18.1335  -46.6733 C   0  0  0  0  0  0  0  0  0  0  0  0
  -17.2793   18.2996  -46.6086 C   0  0  0  0  0  0  0  0  0  0  0  0
  -14.9272   18.0522  -44.4210 H   0  0  0  0  0  0  0  0  0  0  0  0
  -16.6491   17.4782  -42.8974 C   0  0  0  0  0  0  0  0  0  0  0  0
  -16.3542   16.2984  -42.5718 O   0  0  0  0  0  0  0  0  0  0  0  0
  -16.3221   18.4834  -42.2209 O   0  0  0  0  0  0  0  0  0  0  0  0
  -16.6229   15.5821  -43.1128 H   0  0  0  0  0  0  0  0  0  0  0  0
  -19.3328   18.3298  -47.8377 O   0  0  0  0  0  0  0  0  0  0  0  0
  -19.9637   19.6066  -47.8244 C   0  0  0  0  0  0  0  0  0  0  0  0
  -19.8247   17.1521  -43.2053 C   0  0  0  0  0  0  0  0  0  0  0  0
  -20.2599   15.6828  -43.1891 C   0  0  0  0  0  0  0  0  0  0  0  0
  -21.4529   15.4415  -42.2344 C   0  0  0  0  0  0  0  0  0  0  0  0
  -22.4674   14.7828  -44.4399 C   0  0  0  0  0  0  0  0  0  0  0  0
  -22.7545   15.0942  -42.9653 C   0  0  0  0  0  0  0  0  0  0  0  0
  -16.3951   18.7188  -47.8132 C   0  0  0  0  0  0  0  0  0  0  0  0
  -16.1419   20.1065  -47.8414 C   0  0  0  0  0  0  0  0  0  0  0  0
  -14.9831   20.8379  -48.1720 C   0  0  0  0  0  0  0  0  0  0  0  0
  -15.0163   22.3880  -48.1686 C   0  0  0  0  0  0  0  0  0  0  0  0
  -13.6501   20.1383  -48.5577 C   0  0  0  0  0  0  0  0  0  0  0  0
 18 19  1  0  0  0
 19 17  1  0  0  0
 17 16  1  0  0  0
 16 15  1  0  0  0
 15  1  1  0  0  0
  1  2  1  0  0  0
  1  5  2  0  0  0
  2  9  1  0  0  0
  2  3  2  0  0  0
  9 10  1  0  0  0
  9 11  2  0  0  0
  3  4  1  0  0  0
  3  7  1  0  0  0
  5  6  1  0  0  0
  6 13  1  0  0  0
  6  7  2  0  0  0
 13 14  1  0  0  0
  7 20  1  0  0  0
 20 21  1  0  0  0
 21 22  2  0  0  0
 22 23  1  0  0  0
 22 24  1  0  0  0
 10 12  1  0  0  0
  4  8  1  0  0  0
M  END
> <minimizedAffinity>
-7.10013

$$$$
4A4V_YFD_A_999


 24 24  0  0  0  0  0  0  0  0999 V2000
  -19.1740   17.4402  -44.9254 C   0  0  0  0  0  0  0  0  0  0  0  0
  -18.0658   18.3076  -44.8173 C   0  0  0  0  0  0  0  0  0  0  0  0
  -17.7927   19.2188  -45.8506 C   0  0  0  0  0  0  0  0  0  0  0  0
  -16.7108   20.0340  -45.7316 O   0  0  0  0  0  0  0  0  0  0  0  0
  -19.9656   17.5578  -46.0586 C   0  0  0  0  0  0  0  0  0  0  0  0
  -19.6815   18.4702  -47.0735 C   0  0  0  0  0  0  0  0  0  0  0  0
  -18.5860   19.3366  -46.9976 C   0  0  0  0  0  0  0  0  0  0  0  0
  -16.1621   19.9768  -44.9742 H   0  0  0  0  0  0  0  0  0  0  0  0
  -17.1053   18.2951  -43.5965 C   0  0  0  0  0  0  0  0  0  0  0  0
  -17.1679   19.2547  -42.7840 O   0  0  0  0  0  0  0  0  0  0  0  0
  -16.3265   17.3211  -43.4559 O   0  0  0  0  0  0  0  0  0  0  0  0
  -17.7676   19.9585  -42.9355 H   0  0  0  0  0  0  0  0  0  0  0  0
  -20.5100   18.4959  -48.1463 O   0  0  0  0  0  0  0  0  0  0  0  0
  -21.7427   19.1143  -47.7904 C   0  0  0  0  0  0  0  0  0  0  0  0
  -19.6633   16.3867  -43.9128 C   0  0  0  0  0  0  0  0  0  0  0  0
  -20.8229   16.8332  -43.0159 C   0  0  0  0  0  0  0  0  0  0  0  0
  -21.9800   15.8066  -43.0096 C   0  0  0  0  0  0  0  0  0  0  0  0
  -23.3634   14.6425  -44.7583 C   0  0  0  0  0  0  0  0  0  0  0  0
  -21.9473   14.8478  -44.2047 C   0  0  0  0  0  0  0  0  0  0  0  0
  -18.2255   20.3825  -48.0860 C   0  0  0  0  0  0  0  0  0  0  0  0
  -18.8945   21.6106  -47.8989 C   0  0  0  0  0  0  0  0  0  0  0  0
  -18.4483   22.9433  -48.0077 C   0  0  0  0  0  0  0  0  0  0  0  0
  -19.4422   24.1143  -47.7963 C   0  0  0  0  0  0  0  0  0  0  0  0
  -16.9728   23.2922  -48.3485 C   0  0  0  0  0  0  0  0  0  0  0  0
 18 19  1  0  0  0
 19 17  1  0  0  0
 17 16  1  0  0  0
 16 15  1  0  0  0
 15  1  1  0  0  0
  1  2  1  0  0  0
  1  5  2  0  0  0
  2  9  1  0  0  0
  2  3  2  0  0  0
  9 10  1  0  0  0
  9 11  2  0  0  0
  3  4  1  0  0  0
  3  7  1  0  0  0
  5  6  1  0  0  0
  6 13  1  0  0  0
  6  7  2  0  0  0
 13 14  1  0  0  0
  7 20  1  0  0  0
 20 21  1  0  0  0
 21 22  2  0  0  0
 22 23  1  0  0  0
 22 24  1  0  0  0
 10 12  1  0  0  0
  4  8  1  0  0  0
M  END
> <minimizedAffinity>
-7.07089

$$$$
4A4V_YFD_A_999


 24 24  0  0  0  0  0  0  0  0999 V2000
  -17.7973   22.3042  -48.2072 C   0  0  0  0  0  0  0  0  0  0  0  0
  -16.4672   21.8334  -48.1726 C   0  0  0  0  0  0  0  0  0  0  0  0
  -16.2080   20.5102  -47.7795 C   0  0  0  0  0  0  0  0  0  0  0  0
  -14.9175   20.0832  -47.7390 O   0  0  0  0  0  0  0  0  0  0  0  0
  -18.7991   21.4055  -47.8706 C   0  0  0  0  0  0  0  0  0  0  0  0
  -18.5240   20.0943  -47.4854 C   0  0  0  0  0  0  0  0  0  0  0  0
  -17.2156   19.6023  -47.4341 C   0  0  0  0  0  0  0  0  0  0  0  0
  -14.2227   20.6698  -47.9651 H   0  0  0  0  0  0  0  0  0  0  0  0
  -15.2502   22.7263  -48.5399 C   0  0  0  0  0  0  0  0  0  0  0  0
  -14.9959   23.7135  -47.8013 O   0  0  0  0  0  0  0  0  0  0  0  0
  -14.5574   22.4148  -49.5389 O   0  0  0  0  0  0  0  0  0  0  0  0
  -15.5457   23.9029  -47.0666 H   0  0  0  0  0  0  0  0  0  0  0  0
  -19.5742   19.3001  -47.1625 O   0  0  0  0  0  0  0  0  0  0  0  0
  -20.6571   19.5438  -48.0550 C   0  0  0  0  0  0  0  0  0  0  0  0
  -18.3052   23.6990  -48.6210 C   0  0  0  0  0  0  0  0  0  0  0  0
  -18.0362   24.0848  -50.0796 C   0  0  0  0  0  0  0  0  0  0  0  0
  -17.1766   25.3659  -50.1919 C   0  0  0  0  0  0  0  0  0  0  0  0
  -14.7472   25.8282  -50.6517 C   0  0  0  0  0  0  0  0  0  0  0  0
  -16.0490   25.2518  -51.2236 C   0  0  0  0  0  0  0  0  0  0  0  0
  -16.8461   18.1509  -47.0278 C   0  0  0  0  0  0  0  0  0  0  0  0
  -16.3960   18.0605  -45.6936 C   0  0  0  0  0  0  0  0  0  0  0  0
  -17.0893   17.8341  -44.4873 C   0  0  0  0  0  0  0  0  0  0  0  0
  -16.3089   17.7265  -43.1519 C   0  0  0  0  0  0  0  0  0  0  0  0
  -18.6345   17.6742  -44.4434 C   0  0  0  0  0  0  0  0  0  0  0  0
 18 19  1  0  0  0
 19 17  1  0  0  0
 17 16  1  0  0  0
 16 15  1  0  0  0
 15  1  1  0  0  0
  1  2  1  0  0  0
  1  5  2  0  0  0
  2  9  1  0  0  0
  2  3  2  0  0  0
  9 10  1  0  0  0
  9 11  2  0  0  0
  3  4  1  0  0  0
  3  7  1  0  0  0
  5  6  1  0  0  0
  6 13  1  0  0  0
  6  7  2  0  0  0
 13 14  1  0  0  0
  7 20  1  0  0  0
 20 21  1  0  0  0
 21 22  2  0  0  0
 22 23  1  0  0  0
 22 24  1  0  0  0
 10 12  1  0  0  0
  4  8  1  0  0  0
M  END
> <minimizedAffinity>
-6.97065

$$$$
4A4V_YFD_A_999


 24 24  0  0  0  0  0  0  0  0999 V2000
  -18.2748   22.2513  -48.3631 C   0  0  0  0  0  0  0  0  0  0  0  0
  -16.9093   21.9106  -48.2563 C   0  0  0  0  0  0  0  0  0  0  0  0
  -16.5450   20.6353  -47.7943 C   0  0  0  0  0  0  0  0  0  0  0  0
  -15.2233   20.3346  -47.6852 O   0  0  0  0  0  0  0  0  0  0  0  0
  -19.2020   21.2763  -48.0249 C   0  0  0  0  0  0  0  0  0  0  0  0
  -18.8226   20.0141  -47.5708 C   0  0  0  0  0  0  0  0  0  0  0  0
  -17.4775   19.6510  -47.4473 C   0  0  0  0  0  0  0  0  0  0  0  0
  -14.5771   20.9746  -47.9107 H   0  0  0  0  0  0  0  0  0  0  0  0
  -15.7663   22.8990  -48.6165 C   0  0  0  0  0  0  0  0  0  0  0  0
  -14.9864   23.2625  -47.6976 O   0  0  0  0  0  0  0  0  0  0  0  0
  -15.6510   23.2741  -49.8086 O   0  0  0  0  0  0  0  0  0  0  0  0
  -15.1166   22.9530  -46.8228 H   0  0  0  0  0  0  0  0  0  0  0  0
  -19.8071   19.1379  -47.2529 O   0  0  0  0  0  0  0  0  0  0  0  0
  -20.9566   19.3904  -48.0550 C   0  0  0  0  0  0  0  0  0  0  0  0
  -18.8923   23.5734  -48.8585 C   0  0  0  0  0  0  0  0  0  0  0  0
  -18.9469   24.6978  -47.8186 C   0  0  0  0  0  0  0  0  0  0  0  0
  -20.3651   25.3023  -47.6917 C   0  0  0  0  0  0  0  0  0  0  0  0
  -22.1890   24.4431  -46.1877 C   0  0  0  0  0  0  0  0  0  0  0  0
  -21.4626   24.2457  -47.5246 C   0  0  0  0  0  0  0  0  0  0  0  0
  -16.9920   18.2591  -46.9621 C   0  0  0  0  0  0  0  0  0  0  0  0
  -16.6447   18.2538  -45.5945 C   0  0  0  0  0  0  0  0  0  0  0  0
  -17.3916   17.9345  -44.4424 C   0  0  0  0  0  0  0  0  0  0  0  0
  -16.7165   17.9636  -43.0470 C   0  0  0  0  0  0  0  0  0  0  0  0
  -18.8918   17.5363  -44.5181 C   0  0  0  0  0  0  0  0  0  0  0  0
 18 19  1  0  0  0
 19 17  1  0  0  0
 17 16  1  0  0  0
 16 15  1  0  0  0
 15  1  1  0  0  0
  1  2  1  0  0  0
  1  5  2  0  0  0
  2  9  1  0  0  0
  2  3  2  0  0  0
  9 10  1  0  0  0
  9 11  2  0  0  0
  3  4  1  0  0  0
  3  7  1  0  0  0
  5  6  1  0  0  0
  6 13  1  0  0  0
  6  7  2  0  0  0
 13 14  1  0  0  0
  7 20  1  0  0  0
 20 21  1  0  0  0
 21 22  2  0  0  0
 22 23  1  0  0  0
 22 24  1  0  0  0
 10 12  1  0  0  0
  4  8  1  0  0  0
M  END
> <minimizedAffinity>
-6.88956

$$$$
4A4V_YFD_A_999


 24 24  0  0  0  0  0  0  0  0999 V2000
  -17.1697   19.7568  -46.9720 C   0  0  0  0  0  0  0  0  0  0  0  0
  -18.5152   19.5603  -47.3506 C   0  0  0  0  0  0  0  0  0  0  0  0
  -19.2635   20.6415  -47.8443 C   0  0  0  0  0  0  0  0  0  0  0  0
  -20.5623   20.4320  -48.1885 O   0  0  0  0  0  0  0  0  0  0  0  0
  -16.6413   21.0286  -47.1386 C   0  0  0  0  0  0  0  0  0  0  0  0
  -17.3978   22.0900  -47.6331 C   0  0  0  0  0  0  0  0  0  0  0  0
  -18.7353   21.9271  -48.0088 C   0  0  0  0  0  0  0  0  0  0  0  0
  -20.9420   19.5812  -48.0888 H   0  0  0  0  0  0  0  0  0  0  0  0
  -19.2289   18.1856  -47.2326 C   0  0  0  0  0  0  0  0  0  0  0  0
  -18.8788   17.2673  -48.0193 O   0  0  0  0  0  0  0  0  0  0  0  0
  -20.1041   18.0383  -46.3452 O   0  0  0  0  0  0  0  0  0  0  0  0
  -18.2195   17.4295  -48.6650 H   0  0  0  0  0  0  0  0  0  0  0  0
  -16.7907   23.2971  -47.7442 O   0  0  0  0  0  0  0  0  0  0  0  0
  -15.4928   23.1354  -48.3079 C   0  0  0  0  0  0  0  0  0  0  0  0
  -16.1701   18.7175  -46.4287 C   0  0  0  0  0  0  0  0  0  0  0  0
  -16.5888   18.0292  -45.1250 C   0  0  0  0  0  0  0  0  0  0  0  0
  -17.1349   19.0371  -44.0863 C   0  0  0  0  0  0  0  0  0  0  0  0
  -18.4038   16.9726  -43.4117 C   0  0  0  0  0  0  0  0  0  0  0  0
  -18.3286   18.5001  -43.2889 C   0  0  0  0  0  0  0  0  0  0  0  0
  -19.6247   23.0641  -48.5784 C   0  0  0  0  0  0  0  0  0  0  0  0
  -20.2733   23.8024  -47.5660 C   0  0  0  0  0  0  0  0  0  0  0  0
  -21.6061   23.7872  -47.1070 C   0  0  0  0  0  0  0  0  0  0  0  0
  -22.0272   24.6861  -45.9161 C   0  0  0  0  0  0  0  0  0  0  0  0
  -22.6890   22.8792  -47.7534 C   0  0  0  0  0  0  0  0  0  0  0  0
 18 19  1  0  0  0
 19 17  1  0  0  0
 17 16  1  0  0  0
 16 15  1  0  0  0
 15  1  1  0  0  0
  1  2  1  0  0  0
  1  5  2  0  0  0
  2  9  1  0  0  0
  2  3  2  0  0  0
  9 10  1  0  0  0
  9 11  2  0  0  0
  3  4  1  0  0  0
  3  7  1  0  0  0
  5  6  1  0  0  0
  6 13  1  0  0  0
  6  7  2  0  0  0
 13 14  1  0  0  0
  7 20  1  0  0  0
 20 21  1  0  0  0
 21 22  2  0  0  0
 22 23  1  0  0  0
 22 24  1  0  0  0
 10 12  1  0  0  0
  4  8  1  0  0  0
M  END
> <minimizedAffinity>
-6.85126

$$$$
4A4V_YFD_A_999


 24 24  0  0  0  0  0  0  0  0999 V2000
  -17.4343   21.5158  -47.6330 C   0  0  0  0  0  0  0  0  0  0  0  0
  -16.3774   22.0816  -48.3779 C   0  0  0  0  0  0  0  0  0  0  0  0
  -16.6279   23.1808  -49.2157 C   0  0  0  0  0  0  0  0  0  0  0  0
  -15.5975   23.6997  -49.9355 O   0  0  0  0  0  0  0  0  0  0  0  0
  -18.6836   22.1074  -47.7508 C   0  0  0  0  0  0  0  0  0  0  0  0
  -18.9138   23.2002  -48.5851 C   0  0  0  0  0  0  0  0  0  0  0  0
  -17.8880   23.7769  -49.3410 C   0  0  0  0  0  0  0  0  0  0  0  0
  -14.7431   23.3205  -49.8709 H   0  0  0  0  0  0  0  0  0  0  0  0
  -14.9259   21.5304  -48.3290 C   0  0  0  0  0  0  0  0  0  0  0  0
  -14.0451   22.2312  -47.7653 O   0  0  0  0  0  0  0  0  0  0  0  0
  -14.6955   20.4024  -48.8286 O   0  0  0  0  0  0  0  0  0  0  0  0
  -14.2698   23.0678  -47.4080 H   0  0  0  0  0  0  0  0  0  0  0  0
  -20.1747   23.6954  -48.6394 O   0  0  0  0  0  0  0  0  0  0  0  0
  -20.5043   24.3157  -47.4003 C   0  0  0  0  0  0  0  0  0  0  0  0
  -17.3804   20.3313  -46.6487 C   0  0  0  0  0  0  0  0  0  0  0  0
  -17.8794   18.9948  -47.2085 C   0  0  0  0  0  0  0  0  0  0  0  0
  -18.5896   18.1430  -46.1302 C   0  0  0  0  0  0  0  0  0  0  0  0
  -18.6631   17.3453  -43.7458 C   0  0  0  0  0  0  0  0  0  0  0  0
  -17.8464   18.1177  -44.7900 C   0  0  0  0  0  0  0  0  0  0  0  0
  -18.0773   25.0012  -50.2758 C   0  0  0  0  0  0  0  0  0  0  0  0
  -18.0622   26.2251  -49.5740 C   0  0  0  0  0  0  0  0  0  0  0  0
  -17.0937   27.2466  -49.4985 C   0  0  0  0  0  0  0  0  0  0  0  0
  -17.3812   28.5296  -48.6769 C   0  0  0  0  0  0  0  0  0  0  0  0
  -15.7264   27.1402  -50.2293 C   0  0  0  0  0  0  0  0  0  0  0  0
 18 19  1  0  0  0
 19 17  1  0  0  0
 17 16  1  0  0  0
 16 15  1  0  0  0
 15  1  1  0  0  0
  1  2  1  0  0  0
  1  5  2  0  0  0
  2  9  1  0  0  0
  2  3  2  0  0  0
  9 10  1  0  0  0
  9 11  2  0  0  0
  3  4  1  0  0  0
  3  7  1  0  0  0
  5  6  1  0  0  0
  6 13  1  0  0  0
  6  7  2  0  0  0
 13 14  1  0  0  0
  7 20  1  0  0  0
 20 21  1  0  0  0
 21 22  2  0  0  0
 22 23  1  0  0  0
 22 24  1  0  0  0
 10 12  1  0  0  0
  4  8  1  0  0  0
M  END
> <minimizedAffinity>
-6.75965

$$$$
4A4V_YFD_A_999


 24 24  0  0  0  0  0  0  0  0999 V2000
  -16.2125   23.8547  -49.8167 C   0  0  0  0  0  0  0  0  0  0  0  0
  -17.4113   23.9259  -49.0751 C   0  0  0  0  0  0  0  0  0  0  0  0
  -17.6331   23.0218  -48.0235 C   0  0  0  0  0  0  0  0  0  0  0  0
  -18.8019   23.0994  -47.3328 O   0  0  0  0  0  0  0  0  0  0  0  0
  -15.2873   22.8924  -49.4392 C   0  0  0  0  0  0  0  0  0  0  0  0
  -15.5226   22.0046  -48.3905 C   0  0  0  0  0  0  0  0  0  0  0  0
  -16.7042   22.0463  -47.6432 C   0  0  0  0  0  0  0  0  0  0  0  0
  -19.4419   23.7429  -47.5658 H   0  0  0  0  0  0  0  0  0  0  0  0
  -18.5263   24.9641  -49.3786 C   0  0  0  0  0  0  0  0  0  0  0  0
  -18.3203   26.1644  -49.0599 O   0  0  0  0  0  0  0  0  0  0  0  0
  -19.5726   24.5711  -49.9495 O   0  0  0  0  0  0  0  0  0  0  0  0
  -17.5210   26.4057  -48.6346 H   0  0  0  0  0  0  0  0  0  0  0  0
  -14.5596   21.0923  -48.1107 O   0  0  0  0  0  0  0  0  0  0  0  0
  -14.2443   20.3471  -49.2828 C   0  0  0  0  0  0  0  0  0  0  0  0
  -15.7599   24.7496  -50.9868 C   0  0  0  0  0  0  0  0  0  0  0  0
  -14.5800   25.6780  -50.6793 C   0  0  0  0  0  0  0  0  0  0  0  0
  -14.9366   26.7335  -49.6061 C   0  0  0  0  0  0  0  0  0  0  0  0
  -14.6237   28.1951  -51.6292 C   0  0  0  0  0  0  0  0  0  0  0  0
  -14.8021   28.1762  -50.1055 C   0  0  0  0  0  0  0  0  0  0  0  0
  -17.0186   21.0964  -46.4570 C   0  0  0  0  0  0  0  0  0  0  0  0
  -17.9177   20.0682  -46.8109 C   0  0  0  0  0  0  0  0  0  0  0  0
  -17.7057   18.7130  -47.1358 C   0  0  0  0  0  0  0  0  0  0  0  0
  -18.9140   17.7878  -47.4327 C   0  0  0  0  0  0  0  0  0  0  0  0
  -16.2814   18.0946  -47.1990 C   0  0  0  0  0  0  0  0  0  0  0  0
 18 19  1  0  0  0
 19 17  1  0  0  0
 17 16  1  0  0  0
 16 15  1  0  0  0
 15  1  1  0  0  0
  1  2  1  0  0  0
  1  5  2  0  0  0
  2  9  1  0  0  0
  2  3  2  0  0  0
  9 10  1  0  0  0
  9 11  2  0  0  0
  3  4  1  0  0  0
  3  7  1  0  0  0
  5  6  1  0  0  0
  6 13  1  0  0  0
  6  7  2  0  0  0
 13 14  1  0  0  0
  7 20  1  0  0  0
 20 21  1  0  0  0
 21 22  2  0  0  0
 22 23  1  0  0  0
 22 24  1  0  0  0
 10 12  1  0  0  0
  4  8  1  0  0  0
M  END
> <minimizedAffinity>
-6.69635

$$$$
