2VW5_BC6_A_500


 41 42  0  0  0  0  0  0  0  0999 V2000
   41.1760   -5.6429   41.7745 O   0  0  0  0  0  0  0  0  0  0  0  0
   41.1482   -6.0933   40.6323 C   0  0  0  0  0  0  0  0  0  0  0  0
   41.3756   -7.5244   40.5006 C   0  0  0  0  0  0  0  0  0  0  0  0
   42.6271   -8.0756   41.1179 C   0  0  0  0  0  0  0  0  0  0  0  0
   40.4224   -8.2973   39.8966 C   0  0  0  0  0  0  0  0  0  0  0  0
   40.4497   -9.7759   39.6766 C   0  0  0  0  0  0  0  0  0  0  0  0
   39.6795  -10.0418   38.3800 C   0  0  0  0  0  0  0  0  0  0  0  0
   38.1597   -9.9842   38.5103 C   0  0  0  0  0  0  0  0  0  0  0  0
   37.6316  -10.9367   39.5962 C   0  0  0  0  0  0  0  0  0  0  0  0
   40.9253   -5.2549   39.6080 N   0  0  0  0  0  0  0  0  0  0  0  0
   41.1586   -5.5124   38.2786 C   0  0  0  0  0  0  0  0  0  0  0  0
   40.2333   -5.0522   37.3571 C   0  0  0  0  0  0  0  0  0  0  0  0
   40.4050   -5.2721   35.9887 C   0  0  0  0  0  0  0  0  0  0  0  0
   39.4246   -4.8315   35.1454 O   0  0  0  0  0  0  0  0  0  0  0  0
   41.5133   -5.9704   35.5147 C   0  0  0  0  0  0  0  0  0  0  0  0
   42.4562   -6.4555   36.4462 C   0  0  0  0  0  0  0  0  0  0  0  0
   42.2791   -6.2014   37.8111 C   0  0  0  0  0  0  0  0  0  0  0  0
   43.6674   -7.2576   36.0160 C   0  0  0  0  0  0  0  0  0  0  0  0
   43.3779   -8.7725   35.8727 C   0  0  0  0  0  0  0  0  0  0  0  0
   43.0801   -9.4725   37.2109 C   0  0  0  0  0  0  0  0  0  0  0  0
   42.2624   -9.0466   34.8228 C   0  0  0  0  0  0  0  0  0  0  0  0
   41.8310  -10.4979   34.6420 C   0  0  0  0  0  0  0  0  0  0  0  0
   40.7935  -10.6631   33.5312 C   0  0  0  0  0  0  0  0  0  0  0  0
   41.4367  -10.2209   32.3154 O   0  0  0  0  0  0  0  0  0  0  0  0
   39.5292   -9.8411   33.8083 C   0  0  0  0  0  0  0  0  0  0  0  0
   38.5510  -10.1086   32.6692 C   0  0  0  0  0  0  0  0  0  0  0  0
   38.8207  -10.3239   35.0696 C   0  0  0  0  0  0  0  0  0  0  0  0
   38.1561   -9.5713   35.9938 C   0  0  0  0  0  0  0  0  0  0  0  0
   38.0078   -8.0740   35.8978 C   0  0  0  0  0  0  0  0  0  0  0  0
   37.5001  -10.3029   37.1436 C   0  0  0  0  0  0  0  0  0  0  0  0
   40.5587   -4.3688   39.8311 H   0  0  0  0  0  0  0  0  0  0  0  0
   38.6881   -4.3637   35.4871 H   0  0  0  0  0  0  0  0  0  0  0  0
   41.7138   -9.2966   32.4140 H   0  0  0  0  0  0  0  0  0  0  0  0
   42.9678  -11.3245   34.3123 O   0  0  0  0  0  0  0  0  0  0  0  0
   43.0130  -12.5501   35.0093 C   0  0  0  0  0  0  0  0  0  0  0  0
   36.1579   -9.8476   37.2313 O   0  0  0  0  0  0  0  0  0  0  0  0
   35.1207  -10.8003   36.9514 C   0  0  0  0  0  0  0  0  0  0  0  0
   35.3414  -11.6813   36.1367 O   0  0  0  0  0  0  0  0  0  0  0  0
   34.0065  -10.6097   37.6406 N   0  0  0  0  0  0  0  0  0  0  0  0
   33.9423   -9.8595   38.2749 H   0  0  0  0  0  0  0  0  0  0  0  0
   33.2422  -11.2181   37.5188 H   0  0  0  0  0  0  0  0  0  0  0  0
  1  2  2  0  0  0
  2  3  1  0  0  0
  2 10  1  0  0  0
  3  4  1  0  0  0
  3  5  2  0  0  0
  5  6  1  0  0  0
  6  7  1  0  0  0
  7  8  1  0  0  0
  8  9  1  0  0  0
  8 30  1  0  0  0
 10 11  1  0  0  0
 11 12  1  0  0  0
 11 17  2  0  0  0
 12 13  2  0  0  0
 13 14  1  0  0  0
 13 15  1  0  0  0
 15 16  2  0  0  0
 16 17  1  0  0  0
 16 18  1  0  0  0
 18 19  1  0  0  0
 19 20  1  0  0  0
 19 21  1  0  0  0
 21 22  1  0  0  0
 22 34  1  0  0  0
 22 23  1  0  0  0
 34 35  1  0  0  0
 23 24  1  0  0  0
 23 25  1  0  0  0
 25 26  1  0  0  0
 25 27  1  0  0  0
 27 28  2  0  0  0
 28 29  1  0  0  0
 28 30  1  0  0  0
 30 36  1  0  0  0
 36 37  1  0  0  0
 37 38  2  0  0  0
 37 39  1  0  0  0
 10 31  1  0  0  0
 14 32  1  0  0  0
 24 33  1  0  0  0
 39 40  1  0  0  0
 39 41  1  0  0  0
M  END
> <minimizedAffinity>
-10.85850

$$$$
2VW5_BC6_A_500


 41 42  0  0  0  0  0  0  0  0999 V2000
   41.5229  -12.5985   32.8486 O   0  0  0  0  0  0  0  0  0  0  0  0
   41.2657  -11.7441   33.6924 C   0  0  0  0  0  0  0  0  0  0  0  0
   42.3410  -11.4063   34.6127 C   0  0  0  0  0  0  0  0  0  0  0  0
   42.9724  -12.5381   35.3685 C   0  0  0  0  0  0  0  0  0  0  0  0
   42.7676  -10.1091   34.6908 C   0  0  0  0  0  0  0  0  0  0  0  0
   43.8592   -9.5564   35.5500 C   0  0  0  0  0  0  0  0  0  0  0  0
   43.4618   -8.1184   35.8952 C   0  0  0  0  0  0  0  0  0  0  0  0
   43.6849   -7.1027   34.7778 C   0  0  0  0  0  0  0  0  0  0  0  0
   45.1382   -7.1003   34.2743 C   0  0  0  0  0  0  0  0  0  0  0  0
   40.0386  -11.2006   33.7144 N   0  0  0  0  0  0  0  0  0  0  0  0
   39.4850  -10.4796   34.7449 C   0  0  0  0  0  0  0  0  0  0  0  0
   38.7177   -9.3730   34.4227 C   0  0  0  0  0  0  0  0  0  0  0  0
   38.1197   -8.5941   35.4157 C   0  0  0  0  0  0  0  0  0  0  0  0
   37.4188   -7.4894   35.0221 O   0  0  0  0  0  0  0  0  0  0  0  0
   38.2875   -8.9081   36.7625 C   0  0  0  0  0  0  0  0  0  0  0  0
   39.0786  -10.0263   37.1029 C   0  0  0  0  0  0  0  0  0  0  0  0
   39.6472  -10.8092   36.0917 C   0  0  0  0  0  0  0  0  0  0  0  0
   39.3427  -10.4117   38.5441 C   0  0  0  0  0  0  0  0  0  0  0  0
   40.5480   -9.6635   39.1659 C   0  0  0  0  0  0  0  0  0  0  0  0
   41.9028  -10.0592   38.5517 C   0  0  0  0  0  0  0  0  0  0  0  0
   40.3388   -8.1215   39.1451 C   0  0  0  0  0  0  0  0  0  0  0  0
   41.4895   -7.2652   39.6624 C   0  0  0  0  0  0  0  0  0  0  0  0
   41.1469   -5.7753   39.6752 C   0  0  0  0  0  0  0  0  0  0  0  0
   40.0268   -5.6312   40.5763 O   0  0  0  0  0  0  0  0  0  0  0  0
   40.7887   -5.2629   38.2751 C   0  0  0  0  0  0  0  0  0  0  0  0
   40.5069   -3.7687   38.3932 C   0  0  0  0  0  0  0  0  0  0  0  0
   41.9759   -5.3752   37.3244 C   0  0  0  0  0  0  0  0  0  0  0  0
   41.9543   -5.6784   35.9941 C   0  0  0  0  0  0  0  0  0  0  0  0
   40.6884   -5.9541   35.2230 C   0  0  0  0  0  0  0  0  0  0  0  0
   43.2778   -5.6870   35.2620 C   0  0  0  0  0  0  0  0  0  0  0  0
   39.4806  -11.3314   32.9139 H   0  0  0  0  0  0  0  0  0  0  0  0
   37.3190   -7.2982   34.1103 H   0  0  0  0  0  0  0  0  0  0  0  0
   39.2844   -6.1681   40.2578 H   0  0  0  0  0  0  0  0  0  0  0  0
   41.8391   -7.6506   41.0091 O   0  0  0  0  0  0  0  0  0  0  0  0
   43.1469   -7.2878   41.3932 C   0  0  0  0  0  0  0  0  0  0  0  0
   43.1269   -4.8929   34.0944 O   0  0  0  0  0  0  0  0  0  0  0  0
   43.4731   -3.5031   34.1951 C   0  0  0  0  0  0  0  0  0  0  0  0
   44.5916   -3.2065   34.5819 O   0  0  0  0  0  0  0  0  0  0  0  0
   42.5052   -2.6739   33.8366 N   0  0  0  0  0  0  0  0  0  0  0  0
   41.6370   -3.0301   33.5391 H   0  0  0  0  0  0  0  0  0  0  0  0
   42.6538   -1.7012   33.8674 H   0  0  0  0  0  0  0  0  0  0  0  0
  1  2  2  0  0  0
  2  3  1  0  0  0
  2 10  1  0  0  0
  3  4  1  0  0  0
  3  5  2  0  0  0
  5  6  1  0  0  0
  6  7  1  0  0  0
  7  8  1  0  0  0
  8  9  1  0  0  0
  8 30  1  0  0  0
 10 11  1  0  0  0
 11 12  1  0  0  0
 11 17  2  0  0  0
 12 13  2  0  0  0
 13 14  1  0  0  0
 13 15  1  0  0  0
 15 16  2  0  0  0
 16 17  1  0  0  0
 16 18  1  0  0  0
 18 19  1  0  0  0
 19 20  1  0  0  0
 19 21  1  0  0  0
 21 22  1  0  0  0
 22 34  1  0  0  0
 22 23  1  0  0  0
 34 35  1  0  0  0
 23 24  1  0  0  0
 23 25  1  0  0  0
 25 26  1  0  0  0
 25 27  1  0  0  0
 27 28  2  0  0  0
 28 29  1  0  0  0
 28 30  1  0  0  0
 30 36  1  0  0  0
 36 37  1  0  0  0
 37 38  2  0  0  0
 37 39  1  0  0  0
 10 31  1  0  0  0
 14 32  1  0  0  0
 24 33  1  0  0  0
 39 40  1  0  0  0
 39 41  1  0  0  0
M  END
> <minimizedAffinity>
-7.94380

$$$$
