2YGE_GDM_A_1215


 44 45  0  0  0  0  0  0  0  0999 V2000
   25.4367  -33.1607    0.2854 O   0  0  0  0  0  0  0  0  0  0  0  0
   21.7997  -36.4881   -9.1934 O   0  0  0  0  0  0  0  0  0  0  0  0
   24.4921  -31.0434   -6.4620 O   0  0  0  0  0  0  0  0  0  0  0  0
   26.3938  -34.8179   -3.1106 O   0  0  0  0  0  0  0  0  0  0  0  0
   25.5845  -32.3300   -1.8570 N   0  0  0  0  0  0  0  0  0  0  0  0
   25.1566  -33.3013   -0.8681 C   0  0  0  0  0  0  0  0  0  0  0  0
   24.3431  -34.5165   -1.3068 C   0  0  0  0  0  0  0  0  0  0  0  0
   23.0815  -34.2502   -2.0117 C   0  0  0  0  0  0  0  0  0  0  0  0
   22.0685  -35.3948   -2.1448 C   0  0  0  0  0  0  0  0  0  0  0  0
   20.7767  -35.1304   -2.7957 C   0  0  0  0  0  0  0  0  0  0  0  0
   20.3112  -33.6659   -2.8987 C   0  0  0  0  0  0  0  0  0  0  0  0
   19.4604  -33.5085   -4.1671 C   0  0  0  0  0  0  0  0  0  0  0  0
   20.3808  -33.5973   -5.3794 C   0  0  0  0  0  0  0  0  0  0  0  0
   20.2165  -34.7241   -6.2966 C   0  0  0  0  0  0  0  0  0  0  0  0
   21.0938  -34.8555   -7.5465 C   0  0  0  0  0  0  0  0  0  0  0  0
   21.3082  -36.3533   -7.8589 C   0  0  0  0  0  0  0  0  0  0  0  0
   22.3285  -36.9500   -6.8669 C   0  0  0  0  0  0  0  0  0  0  0  0
   23.6652  -36.2039   -6.9788 C   0  0  0  0  0  0  0  0  0  0  0  0
   24.2898  -36.0058   -5.5902 C   0  0  0  0  0  0  0  0  0  0  0  0
   25.7916  -35.7258   -5.7552 C   0  0  0  0  0  0  0  0  0  0  0  0
   25.8917  -34.2482   -5.3400 C   0  0  0  0  0  0  0  0  0  0  0  0
   25.3656  -33.2230   -6.2452 C   0  0  0  0  0  0  0  0  0  0  0  0
   24.9139  -31.8647   -5.7034 C   0  0  0  0  0  0  0  0  0  0  0  0
   24.9804  -31.5875   -4.1967 C   0  0  0  0  0  0  0  0  0  0  0  0
   25.5080  -32.6067   -3.2896 C   0  0  0  0  0  0  0  0  0  0  0  0
   25.9699  -33.9630   -3.8415 C   0  0  0  0  0  0  0  0  0  0  0  0
   24.5006  -35.8015   -0.4780 C   0  0  0  0  0  0  0  0  0  0  0  0
   21.4390  -32.5062   -5.6210 C   0  0  0  0  0  0  0  0  0  0  0  0
   20.3126  -34.2013   -8.6983 C   0  0  0  0  0  0  0  0  0  0  0  0
   24.0794  -37.1834   -4.6228 C   0  0  0  0  0  0  0  0  0  0  0  0
   21.1563  -36.1123   -9.8144 H   0  0  0  0  0  0  0  0  0  0  0  0
   25.9356  -31.4614   -1.5548 H   0  0  0  0  0  0  0  0  0  0  0  0
   19.5321  -33.3223   -1.7487 O   0  0  0  0  0  0  0  0  0  0  0  0
   18.5559  -34.3297   -1.4746 C   0  0  0  0  0  0  0  0  0  0  0  0
   22.5625  -38.3289   -7.1664 O   0  0  0  0  0  0  0  0  0  0  0  0
   21.5026  -39.1457   -6.6440 C   0  0  0  0  0  0  0  0  0  0  0  0
   25.2906  -33.4614   -7.6492 O   0  0  0  0  0  0  0  0  0  0  0  0
   26.5666  -33.1582   -8.2301 C   0  0  0  0  0  0  0  0  0  0  0  0
   18.9262  -32.1958   -4.1808 O   0  0  0  0  0  0  0  0  0  0  0  0
   16.9115  -32.8810   -5.0977 O   0  0  0  0  0  0  0  0  0  0  0  0
   16.7914  -31.1074   -3.6112 N   0  0  0  0  0  0  0  0  0  0  0  0
   17.5059  -32.1414   -4.3561 C   0  0  0  0  0  0  0  0  0  0  0  0
   17.2843  -30.5066   -3.0069 H   0  0  0  0  0  0  0  0  0  0  0  0
   15.8169  -31.0115   -3.7136 H   0  0  0  0  0  0  0  0  0  0  0  0
  1  6  2  0  0  0
 33 11  1  0  0  0
 33 34  1  0  0  0
 39 12  1  0  0  0
 39 42  1  0  0  0
 40 42  2  0  0  0
  2 16  1  0  0  0
 35 17  1  0  0  0
 35 36  1  0  0  0
 37 22  1  0  0  0
 37 38  1  0  0  0
  3 23  2  0  0  0
  4 26  2  0  0  0
  5  6  1  0  0  0
  5 25  1  0  0  0
 41 42  1  0  0  0
  6  7  1  0  0  0
  7  8  2  0  0  0
  7 27  1  0  0  0
  8  9  1  0  0  0
  9 10  2  0  0  0
 10 11  1  0  0  0
 11 12  1  0  0  0
 12 13  1  0  0  0
 13 14  2  0  0  0
 13 28  1  0  0  0
 14 15  1  0  0  0
 15 16  1  0  0  0
 15 29  1  0  0  0
 16 17  1  0  0  0
 17 18  1  0  0  0
 18 19  1  0  0  0
 19 20  1  0  0  0
 19 30  1  0  0  0
 20 21  1  0  0  0
 21 22  2  0  0  0
 21 26  1  0  0  0
 22 23  1  0  0  0
 23 24  1  0  0  0
 24 25  2  0  0  0
 25 26  1  0  0  0
  2 31  1  0  0  0
  5 32  1  0  0  0
 41 43  1  0  0  0
 41 44  1  0  0  0
M  END
> <minimizedAffinity>
-10.25241

$$$$
2YGE_GDM_A_1215


 44 45  0  0  0  0  0  0  0  0999 V2000
   25.0172  -33.0972    0.0828 O   0  0  0  0  0  0  0  0  0  0  0  0
   23.5592  -37.1995   -9.6738 O   0  0  0  0  0  0  0  0  0  0  0  0
   24.6022  -31.2807   -6.8041 O   0  0  0  0  0  0  0  0  0  0  0  0
   26.7789  -34.5271   -3.0869 O   0  0  0  0  0  0  0  0  0  0  0  0
   25.2839  -32.2681   -2.0486 N   0  0  0  0  0  0  0  0  0  0  0  0
   24.9400  -33.3030   -1.0921 C   0  0  0  0  0  0  0  0  0  0  0  0
   24.4776  -34.6694   -1.5924 C   0  0  0  0  0  0  0  0  0  0  0  0
   23.3009  -34.6896   -2.4723 C   0  0  0  0  0  0  0  0  0  0  0  0
   22.5874  -36.0286   -2.6999 C   0  0  0  0  0  0  0  0  0  0  0  0
   21.3742  -36.0569   -3.5304 C   0  0  0  0  0  0  0  0  0  0  0  0
   20.6236  -34.7302   -3.7503 C   0  0  0  0  0  0  0  0  0  0  0  0
   19.9469  -34.7706   -5.1280 C   0  0  0  0  0  0  0  0  0  0  0  0
   21.0266  -34.6640   -6.1991 C   0  0  0  0  0  0  0  0  0  0  0  0
   21.2401  -35.8053   -7.0878 C   0  0  0  0  0  0  0  0  0  0  0  0
   22.2928  -35.7500   -8.2004 C   0  0  0  0  0  0  0  0  0  0  0  0
   22.8667  -37.1667   -8.4249 C   0  0  0  0  0  0  0  0  0  0  0  0
   23.8409  -37.5197   -7.2814 C   0  0  0  0  0  0  0  0  0  0  0  0
   24.9876  -36.5005   -7.2374 C   0  0  0  0  0  0  0  0  0  0  0  0
   25.3522  -36.1617   -5.7847 C   0  0  0  0  0  0  0  0  0  0  0  0
   26.7664  -35.5615   -5.7535 C   0  0  0  0  0  0  0  0  0  0  0  0
   26.4862  -34.0951   -5.3835 C   0  0  0  0  0  0  0  0  0  0  0  0
   25.8850  -33.2155   -6.3895 C   0  0  0  0  0  0  0  0  0  0  0  0
   25.0794  -31.9851   -5.9651 C   0  0  0  0  0  0  0  0  0  0  0  0
   24.8710  -31.6905   -4.4749 C   0  0  0  0  0  0  0  0  0  0  0  0
   25.4721  -32.5640   -3.4670 C   0  0  0  0  0  0  0  0  0  0  0  0
   26.2885  -33.7901   -3.9000 C   0  0  0  0  0  0  0  0  0  0  0  0
   24.7894  -35.8836   -0.7027 C   0  0  0  0  0  0  0  0  0  0  0  0
   21.8483  -33.3697   -6.3342 C   0  0  0  0  0  0  0  0  0  0  0  0
   21.5598  -35.2896   -9.4715 C   0  0  0  0  0  0  0  0  0  0  0  0
   25.2658  -37.3506   -4.8122 C   0  0  0  0  0  0  0  0  0  0  0  0
   22.9444  -36.9772  -10.3904 H   0  0  0  0  0  0  0  0  0  0  0  0
   25.3935  -31.3418   -1.7337 H   0  0  0  0  0  0  0  0  0  0  0  0
   19.6342  -34.5577   -2.7310 O   0  0  0  0  0  0  0  0  0  0  0  0
   19.9394  -33.4280   -1.9102 C   0  0  0  0  0  0  0  0  0  0  0  0
   24.4063  -38.8161   -7.4948 O   0  0  0  0  0  0  0  0  0  0  0  0
   25.7157  -38.7063   -8.0752 C   0  0  0  0  0  0  0  0  0  0  0  0
   26.0622  -33.4735   -7.7807 O   0  0  0  0  0  0  0  0  0  0  0  0
   27.3058  -32.8913   -8.1957 C   0  0  0  0  0  0  0  0  0  0  0  0
   19.1499  -33.6064   -5.2631 O   0  0  0  0  0  0  0  0  0  0  0  0
   16.9566  -33.1316   -4.6857 O   0  0  0  0  0  0  0  0  0  0  0  0
   17.2780  -35.0661   -5.9203 N   0  0  0  0  0  0  0  0  0  0  0  0
   17.7396  -33.8548   -5.2463 C   0  0  0  0  0  0  0  0  0  0  0  0
   17.9242  -35.6523   -6.3764 H   0  0  0  0  0  0  0  0  0  0  0  0
   16.3207  -35.2961   -5.9184 H   0  0  0  0  0  0  0  0  0  0  0  0
  1  6  2  0  0  0
 33 11  1  0  0  0
 33 34  1  0  0  0
 39 12  1  0  0  0
 39 42  1  0  0  0
 40 42  2  0  0  0
  2 16  1  0  0  0
 35 17  1  0  0  0
 35 36  1  0  0  0
 37 22  1  0  0  0
 37 38  1  0  0  0
  3 23  2  0  0  0
  4 26  2  0  0  0
  5  6  1  0  0  0
  5 25  1  0  0  0
 41 42  1  0  0  0
  6  7  1  0  0  0
  7  8  2  0  0  0
  7 27  1  0  0  0
  8  9  1  0  0  0
  9 10  2  0  0  0
 10 11  1  0  0  0
 11 12  1  0  0  0
 12 13  1  0  0  0
 13 14  2  0  0  0
 13 28  1  0  0  0
 14 15  1  0  0  0
 15 16  1  0  0  0
 15 29  1  0  0  0
 16 17  1  0  0  0
 17 18  1  0  0  0
 18 19  1  0  0  0
 19 20  1  0  0  0
 19 30  1  0  0  0
 20 21  1  0  0  0
 21 22  2  0  0  0
 21 26  1  0  0  0
 22 23  1  0  0  0
 23 24  1  0  0  0
 24 25  2  0  0  0
 25 26  1  0  0  0
  2 31  1  0  0  0
  5 32  1  0  0  0
 41 43  1  0  0  0
 41 44  1  0  0  0
M  END
> <minimizedAffinity>
-7.33900

$$$$
