1PB9_4AX_A_901


 10 10  0  0  0  0  0  0  0  0999 V2000
   23.4337   40.9317   38.8909 O   0  0  0  0  0  0  0  0  0  0  0  0
   21.9672   38.3990   40.7301 O   0  0  0  0  0  0  0  0  0  0  0  0
   21.4217   41.9803   40.6153 N   0  0  0  0  0  0  0  0  0  0  0  0
   23.0429   38.9265   39.8919 N   0  0  0  0  0  0  0  0  0  0  0  0
   21.3998   40.5551   40.2152 C   0  0  0  0  0  0  0  0  0  0  0  0
   21.3139   39.5509   41.3149 C   0  0  0  0  0  0  0  0  0  0  0  0
   22.7316   40.1515   39.6003 C   0  0  0  0  0  0  0  0  0  0  0  0
   20.5222   42.2324   41.0248 H   0  0  0  0  0  0  0  0  0  0  0  0
   21.5967   42.5610   39.7952 H   0  0  0  0  0  0  0  0  0  0  0  0
   23.8507   38.4433   39.6033 H   0  0  0  0  0  0  0  0  0  0  0  0
  1  7  2  0  0  0
  2  4  1  0  0  0
  2  6  1  0  0  0
  3  5  1  0  0  0
  4  7  1  0  0  0
  5  6  1  0  0  0
  5  7  1  0  0  0
  3  8  1  0  0  0
  3  9  1  0  0  0
  4 10  1  0  0  0
M  END
> <minimizedAffinity>
-4.91445

$$$$
1PB9_4AX_A_901


 10 10  0  0  0  0  0  0  0  0999 V2000
   21.9415   37.9410   41.7305 O   0  0  0  0  0  0  0  0  0  0  0  0
   21.4723   41.2663   40.9120 O   0  0  0  0  0  0  0  0  0  0  0  0
   23.1178   38.5269   39.2018 N   0  0  0  0  0  0  0  0  0  0  0  0
   21.4927   40.1665   41.8753 N   0  0  0  0  0  0  0  0  0  0  0  0
   22.0373   39.3817   39.7437 C   0  0  0  0  0  0  0  0  0  0  0  0
   22.3096   40.8469   39.8080 C   0  0  0  0  0  0  0  0  0  0  0  0
   21.8183   39.0945   41.2216 C   0  0  0  0  0  0  0  0  0  0  0  0
   23.2502   38.7330   38.2116 H   0  0  0  0  0  0  0  0  0  0  0  0
   22.8633   37.5455   39.3137 H   0  0  0  0  0  0  0  0  0  0  0  0
   21.2963   40.2280   42.8381 H   0  0  0  0  0  0  0  0  0  0  0  0
  1  7  2  0  0  0
  2  4  1  0  0  0
  2  6  1  0  0  0
  3  5  1  0  0  0
  4  7  1  0  0  0
  5  6  1  0  0  0
  5  7  1  0  0  0
  3  8  1  0  0  0
  3  9  1  0  0  0
  4 10  1  0  0  0
M  END
> <minimizedAffinity>
-3.53344

$$$$
1PB9_4AX_A_901


 10 10  0  0  0  0  0  0  0  0999 V2000
   21.5621   41.9909   40.6016 O   0  0  0  0  0  0  0  0  0  0  0  0
   21.7710   38.5455   40.7846 O   0  0  0  0  0  0  0  0  0  0  0  0
   23.3588   40.9890   38.6295 N   0  0  0  0  0  0  0  0  0  0  0  0
   21.1125   39.8149   41.0897 N   0  0  0  0  0  0  0  0  0  0  0  0
   23.0480   40.1909   39.8370 C   0  0  0  0  0  0  0  0  0  0  0  0
   22.5880   38.7894   39.6147 C   0  0  0  0  0  0  0  0  0  0  0  0
   21.8274   40.7532   40.5504 C   0  0  0  0  0  0  0  0  0  0  0  0
   24.1785   40.5979   38.1651 H   0  0  0  0  0  0  0  0  0  0  0  0
   23.5492   41.9540   38.8995 H   0  0  0  0  0  0  0  0  0  0  0  0
   20.2833   39.9348   41.6067 H   0  0  0  0  0  0  0  0  0  0  0  0
  1  7  2  0  0  0
  2  4  1  0  0  0
  2  6  1  0  0  0
  3  5  1  0  0  0
  4  7  1  0  0  0
  5  6  1  0  0  0
  5  7  1  0  0  0
  3  8  1  0  0  0
  3  9  1  0  0  0
  4 10  1  0  0  0
M  END
> <minimizedAffinity>
-3.00018

$$$$
1PB9_4AX_A_901


 10 10  0  0  0  0  0  0  0  0999 V2000
   20.5882   39.4478   41.9455 O   0  0  0  0  0  0  0  0  0  0  0  0
   23.1325   38.7796   39.7032 O   0  0  0  0  0  0  0  0  0  0  0  0
   21.2581   41.7873   40.4627 N   0  0  0  0  0  0  0  0  0  0  0  0
   22.0664   38.3518   40.6080 N   0  0  0  0  0  0  0  0  0  0  0  0
   22.2329   40.6818   40.6021 C   0  0  0  0  0  0  0  0  0  0  0  0
   22.8261   40.1475   39.3421 C   0  0  0  0  0  0  0  0  0  0  0  0
   21.5467   39.4255   41.1176 C   0  0  0  0  0  0  0  0  0  0  0  0
   21.7353   42.6198   40.1167 H   0  0  0  0  0  0  0  0  0  0  0  0
   20.8396   41.9882   41.3709 H   0  0  0  0  0  0  0  0  0  0  0  0
   21.7944   37.4243   40.7950 H   0  0  0  0  0  0  0  0  0  0  0  0
  1  7  2  0  0  0
  2  4  1  0  0  0
  2  6  1  0  0  0
  3  5  1  0  0  0
  4  7  1  0  0  0
  5  6  1  0  0  0
  5  7  1  0  0  0
  3  8  1  0  0  0
  3  9  1  0  0  0
  4 10  1  0  0  0
M  END
> <minimizedAffinity>
-2.96603

$$$$
1PB9_4AX_A_901


 10 10  0  0  0  0  0  0  0  0999 V2000
   23.3258   41.2995   38.6979 O   0  0  0  0  0  0  0  0  0  0  0  0
   21.0710   40.8252   41.2744 O   0  0  0  0  0  0  0  0  0  0  0  0
   23.0446   38.5254   39.2864 N   0  0  0  0  0  0  0  0  0  0  0  0
   21.6715   41.6427   40.2213 N   0  0  0  0  0  0  0  0  0  0  0  0
   22.7002   39.5470   40.3010 C   0  0  0  0  0  0  0  0  0  0  0  0
   21.3461   39.4491   40.9189 C   0  0  0  0  0  0  0  0  0  0  0  0
   22.5929   40.9227   39.6600 C   0  0  0  0  0  0  0  0  0  0  0  0
   23.1122   37.6112   39.7337 H   0  0  0  0  0  0  0  0  0  0  0  0
   23.9393   38.7607   38.8569 H   0  0  0  0  0  0  0  0  0  0  0  0
   21.4234   42.5652   39.9832 H   0  0  0  0  0  0  0  0  0  0  0  0
  1  7  2  0  0  0
  2  4  1  0  0  0
  2  6  1  0  0  0
  3  5  1  0  0  0
  4  7  1  0  0  0
  5  6  1  0  0  0
  5  7  1  0  0  0
  3  8  1  0  0  0
  3  9  1  0  0  0
  4 10  1  0  0  0
M  END
> <minimizedAffinity>
-2.95314

$$$$
1PB9_4AX_A_901


 10 10  0  0  0  0  0  0  0  0999 V2000
   21.7104   41.9282   40.4744 O   0  0  0  0  0  0  0  0  0  0  0  0
   23.2086   39.0381   39.3124 O   0  0  0  0  0  0  0  0  0  0  0  0
   20.5962   39.6376   41.7522 N   0  0  0  0  0  0  0  0  0  0  0  0
   23.1707   40.4892   39.4886 N   0  0  0  0  0  0  0  0  0  0  0  0
   21.2765   39.5109   40.4434 C   0  0  0  0  0  0  0  0  0  0  0  0
   22.3568   38.4871   40.3452 C   0  0  0  0  0  0  0  0  0  0  0  0
   22.0804   40.7652   40.1348 C   0  0  0  0  0  0  0  0  0  0  0  0
   20.0631   38.7889   41.9418 H   0  0  0  0  0  0  0  0  0  0  0  0
   19.9646   40.4383   41.7310 H   0  0  0  0  0  0  0  0  0  0  0  0
   23.8451   41.1346   39.1758 H   0  0  0  0  0  0  0  0  0  0  0  0
  1  7  2  0  0  0
  2  4  1  0  0  0
  2  6  1  0  0  0
  3  5  1  0  0  0
  4  7  1  0  0  0
  5  6  1  0  0  0
  5  7  1  0  0  0
  3  8  1  0  0  0
  3  9  1  0  0  0
  4 10  1  0  0  0
M  END
> <minimizedAffinity>
-2.61369

$$$$
1PB9_4AX_A_901


 10 10  0  0  0  0  0  0  0  0999 V2000
   23.3610   38.7004   39.3337 O   0  0  0  0  0  0  0  0  0  0  0  0
   20.8939   39.1930   41.7041 O   0  0  0  0  0  0  0  0  0  0  0  0
   22.6134   41.4480   39.4469 N   0  0  0  0  0  0  0  0  0  0  0  0
   21.9608   38.3957   41.1005 N   0  0  0  0  0  0  0  0  0  0  0  0
   21.6878   40.3974   39.9279 C   0  0  0  0  0  0  0  0  0  0  0  0
   21.1442   40.5625   41.3071 C   0  0  0  0  0  0  0  0  0  0  0  0
   22.4207   39.0747   40.0956 C   0  0  0  0  0  0  0  0  0  0  0  0
   22.1053   42.3261   39.3405 H   0  0  0  0  0  0  0  0  0  0  0  0
   23.0046   41.1704   38.5467 H   0  0  0  0  0  0  0  0  0  0  0  0
   22.2713   37.5109   41.4003 H   0  0  0  0  0  0  0  0  0  0  0  0
  1  7  2  0  0  0
  2  4  1  0  0  0
  2  6  1  0  0  0
  3  5  1  0  0  0
  4  7  1  0  0  0
  5  6  1  0  0  0
  5  7  1  0  0  0
  3  8  1  0  0  0
  3  9  1  0  0  0
  4 10  1  0  0  0
M  END
> <minimizedAffinity>
-2.47377

$$$$
1PB9_4AX_A_901


 10 10  0  0  0  0  0  0  0  0999 V2000
   23.8031   40.1817   40.0160 O   0  0  0  0  0  0  0  0  0  0  0  0
   20.5572   41.3698   40.0255 O   0  0  0  0  0  0  0  0  0  0  0  0
   21.9959   38.1548   40.8802 N   0  0  0  0  0  0  0  0  0  0  0  0
   21.9597   41.4546   39.6205 N   0  0  0  0  0  0  0  0  0  0  0  0
   21.6241   39.5844   40.9793 C   0  0  0  0  0  0  0  0  0  0  0  0
   20.3228   39.9831   40.3688 C   0  0  0  0  0  0  0  0  0  0  0  0
   22.5708   40.4418   40.1526 C   0  0  0  0  0  0  0  0  0  0  0  0
   21.3514   37.5963   41.4398 H   0  0  0  0  0  0  0  0  0  0  0  0
   22.9465   38.0258   41.2267 H   0  0  0  0  0  0  0  0  0  0  0  0
   22.3636   42.1492   39.0516 H   0  0  0  0  0  0  0  0  0  0  0  0
  1  7  2  0  0  0
  2  4  1  0  0  0
  2  6  1  0  0  0
  3  5  1  0  0  0
  4  7  1  0  0  0
  5  6  1  0  0  0
  5  7  1  0  0  0
  3  8  1  0  0  0
  3  9  1  0  0  0
  4 10  1  0  0  0
M  END
> <minimizedAffinity>
-2.27805

$$$$
