5MLJ_9ST_A_902


 24 26  0  0  0  0  0  0  0  0999 V2000
  -15.6819   -9.5763   15.4757 C   0  0  0  0  0  0  0  0  0  0  0  0
  -15.4904   -8.1602   15.1587 N   0  0  0  0  0  0  0  0  0  0  0  0
  -16.1948   -7.8105   13.9228 C   0  0  0  0  0  0  0  0  0  0  0  0
  -16.0569   -6.3234   13.6500 C   0  0  0  0  0  0  0  0  0  0  0  0
  -14.5769   -5.9845   13.4697 C   0  0  0  0  0  0  0  0  0  0  0  0
  -13.7928   -6.3706   14.7299 C   0  0  0  0  0  0  0  0  0  0  0  0
  -14.0489   -7.8386   15.0790 C   0  0  0  0  0  0  0  0  0  0  0  0
  -11.8416   -4.8116   15.1087 C   0  0  0  0  0  0  0  0  0  0  0  0
  -10.4891   -4.5123   15.0591 C   0  0  0  0  0  0  0  0  0  0  0  0
   -9.5896   -5.4410   14.5814 C   0  0  0  0  0  0  0  0  0  0  0  0
  -10.0415   -6.6677   14.1490 C   0  0  0  0  0  0  0  0  0  0  0  0
  -11.3947   -6.9708   14.1952 C   0  0  0  0  0  0  0  0  0  0  0  0
  -12.3130   -6.0427   14.6682 C   0  0  0  0  0  0  0  0  0  0  0  0
  -16.8564   -5.9644   12.4748 N   0  0  0  0  0  0  0  0  0  0  0  0
  -16.4381   -6.0853   11.5918 H   0  0  0  0  0  0  0  0  0  0  0  0
  -18.1106   -5.4846   12.4996 C   0  0  0  0  0  0  0  0  0  0  0  0
  -18.7054   -5.0715   13.7357 C   0  0  0  0  0  0  0  0  0  0  0  0
  -19.8987   -4.5946   13.8563 N   0  0  0  0  0  0  0  0  0  0  0  0
  -20.6430   -4.4903   12.7178 N   0  0  0  0  0  0  0  0  0  0  0  0
  -21.9857   -3.9509   12.9105 C   0  0  0  0  0  0  0  0  0  0  0  0
  -20.2255   -4.8388   11.4540 C   0  0  0  0  0  0  0  0  0  0  0  0
  -20.9642   -4.7103   10.4832 O   0  0  0  0  0  0  0  0  0  0  0  0
  -18.8816   -5.3563   11.4027 C   0  0  0  0  0  0  0  0  0  0  0  0
  -18.2842   -5.8416    9.6851 Br  0  0  0  0  0  0  0  0  0  0  0  0
 24 23  1  0  0  0
 22 21  2  0  0  0
 21 23  1  0  0  0
 21 19  1  0  0  0
 23 16  2  0  0  0
 16 14  1  0  0  0
 16 17  1  0  0  0
 19 20  1  0  0  0
 19 18  1  0  0  0
 14  4  1  0  0  0
  5  4  1  0  0  0
  5  6  1  0  0  0
 17 18  2  0  0  0
  4  3  1  0  0  0
 11 12  2  0  0  0
 11 10  1  0  0  0
 12 13  1  0  0  0
  3  2  1  0  0  0
 10  9  2  0  0  0
 13  6  1  0  0  0
 13  8  2  0  0  0
  6  7  1  0  0  0
  7  2  1  0  0  0
  9  8  1  0  0  0
  2  1  1  0  0  0
 14 15  1  0  0  0
M  END
> <minimizedAffinity>
-8.47533

$$$$
5MLJ_9ST_A_902


 24 26  0  0  0  0  0  0  0  0999 V2000
  -13.9066   -4.7065   14.5783 C   0  0  0  0  0  0  0  0  0  0  0  0
  -15.0707   -5.5935   14.6112 N   0  0  0  0  0  0  0  0  0  0  0  0
  -14.6533   -6.9933   14.5022 C   0  0  0  0  0  0  0  0  0  0  0  0
  -15.8611   -7.9055   14.6206 C   0  0  0  0  0  0  0  0  0  0  0  0
  -16.8281   -7.6039   13.4754 C   0  0  0  0  0  0  0  0  0  0  0  0
  -17.2626   -6.1341   13.5287 C   0  0  0  0  0  0  0  0  0  0  0  0
  -16.0329   -5.2231   13.5506 C   0  0  0  0  0  0  0  0  0  0  0  0
  -19.4659   -5.1454   12.7875 C   0  0  0  0  0  0  0  0  0  0  0  0
  -20.3706   -4.7766   11.8043 C   0  0  0  0  0  0  0  0  0  0  0  0
  -20.0730   -4.9826   10.4744 C   0  0  0  0  0  0  0  0  0  0  0  0
  -18.8729   -5.5610   10.1262 C   0  0  0  0  0  0  0  0  0  0  0  0
  -17.9651   -5.9334   11.1073 C   0  0  0  0  0  0  0  0  0  0  0  0
  -18.2541   -5.7377   12.4513 C   0  0  0  0  0  0  0  0  0  0  0  0
  -15.4209   -9.3039   14.6225 N   0  0  0  0  0  0  0  0  0  0  0  0
  -16.1206   -9.9960   14.6481 H   0  0  0  0  0  0  0  0  0  0  0  0
  -14.1448   -9.7218   14.5924 C   0  0  0  0  0  0  0  0  0  0  0  0
  -13.5655  -10.1973   13.3716 C   0  0  0  0  0  0  0  0  0  0  0  0
  -12.3500  -10.6128   13.2453 N   0  0  0  0  0  0  0  0  0  0  0  0
  -11.5718  -10.6035   14.3659 N   0  0  0  0  0  0  0  0  0  0  0  0
  -10.2088  -11.0880   14.1696 C   0  0  0  0  0  0  0  0  0  0  0  0
  -11.9693  -10.1788   15.6127 C   0  0  0  0  0  0  0  0  0  0  0  0
  -11.1997  -10.2050   16.5676 O   0  0  0  0  0  0  0  0  0  0  0  0
  -13.3358   -9.7251   15.6692 C   0  0  0  0  0  0  0  0  0  0  0  0
  -13.9066   -9.1383   17.3640 Br  0  0  0  0  0  0  0  0  0  0  0  0
 24 23  1  0  0  0
 22 21  2  0  0  0
 21 23  1  0  0  0
 21 19  1  0  0  0
 23 16  2  0  0  0
 16 14  1  0  0  0
 16 17  1  0  0  0
 19 20  1  0  0  0
 19 18  1  0  0  0
 14  4  1  0  0  0
  5  4  1  0  0  0
  5  6  1  0  0  0
 17 18  2  0  0  0
  4  3  1  0  0  0
 11 12  2  0  0  0
 11 10  1  0  0  0
 12 13  1  0  0  0
  3  2  1  0  0  0
 10  9  2  0  0  0
 13  6  1  0  0  0
 13  8  2  0  0  0
  6  7  1  0  0  0
  7  2  1  0  0  0
  9  8  1  0  0  0
  2  1  1  0  0  0
 14 15  1  0  0  0
M  END
> <minimizedAffinity>
-6.81663

$$$$
5MLJ_9ST_A_902


 24 26  0  0  0  0  0  0  0  0999 V2000
  -16.2033   -9.3703   15.2427 C   0  0  0  0  0  0  0  0  0  0  0  0
  -15.9472   -8.3617   14.2132 N   0  0  0  0  0  0  0  0  0  0  0  0
  -14.8719   -7.4601   14.6335 C   0  0  0  0  0  0  0  0  0  0  0  0
  -14.5604   -6.4716   13.5241 C   0  0  0  0  0  0  0  0  0  0  0  0
  -15.8060   -5.6316   13.2402 C   0  0  0  0  0  0  0  0  0  0  0  0
  -16.9710   -6.5415   12.8321 C   0  0  0  0  0  0  0  0  0  0  0  0
  -17.1884   -7.6241   13.8921 C   0  0  0  0  0  0  0  0  0  0  0  0
  -18.7052   -5.7359   11.1815 C   0  0  0  0  0  0  0  0  0  0  0  0
  -19.8780   -5.0656   10.8707 C   0  0  0  0  0  0  0  0  0  0  0  0
  -20.6179   -4.4634   11.8655 C   0  0  0  0  0  0  0  0  0  0  0  0
  -20.1843   -4.5270   13.1709 C   0  0  0  0  0  0  0  0  0  0  0  0
  -19.0100   -5.1954   13.4861 C   0  0  0  0  0  0  0  0  0  0  0  0
  -18.2511   -5.8014   12.4936 C   0  0  0  0  0  0  0  0  0  0  0  0
  -13.4107   -5.6480   13.9099 N   0  0  0  0  0  0  0  0  0  0  0  0
  -13.4058   -4.7114   13.6065 H   0  0  0  0  0  0  0  0  0  0  0  0
  -12.3633   -6.0616   14.6419 C   0  0  0  0  0  0  0  0  0  0  0  0
  -11.4786   -7.0695   14.1382 C   0  0  0  0  0  0  0  0  0  0  0  0
  -10.4466   -7.5249   14.7656 N   0  0  0  0  0  0  0  0  0  0  0  0
  -10.1953   -7.0084   16.0031 N   0  0  0  0  0  0  0  0  0  0  0  0
   -9.0209   -7.5611   16.6710 C   0  0  0  0  0  0  0  0  0  0  0  0
  -10.9406   -6.0375   16.6315 C   0  0  0  0  0  0  0  0  0  0  0  0
  -10.6400   -5.6300   17.7488 O   0  0  0  0  0  0  0  0  0  0  0  0
  -12.0704   -5.5776   15.8642 C   0  0  0  0  0  0  0  0  0  0  0  0
  -13.1084   -4.2489   16.7005 Br  0  0  0  0  0  0  0  0  0  0  0  0
 24 23  1  0  0  0
 22 21  2  0  0  0
 21 23  1  0  0  0
 21 19  1  0  0  0
 23 16  2  0  0  0
 16 14  1  0  0  0
 16 17  1  0  0  0
 19 20  1  0  0  0
 19 18  1  0  0  0
 14  4  1  0  0  0
  5  4  1  0  0  0
  5  6  1  0  0  0
 17 18  2  0  0  0
  4  3  1  0  0  0
 11 12  2  0  0  0
 11 10  1  0  0  0
 12 13  1  0  0  0
  3  2  1  0  0  0
 10  9  2  0  0  0
 13  6  1  0  0  0
 13  8  2  0  0  0
  6  7  1  0  0  0
  7  2  1  0  0  0
  9  8  1  0  0  0
  2  1  1  0  0  0
 14 15  1  0  0  0
M  END
> <minimizedAffinity>
-6.69592

$$$$
5MLJ_9ST_A_902


 24 26  0  0  0  0  0  0  0  0999 V2000
  -15.2104   -9.4765   14.6420 C   0  0  0  0  0  0  0  0  0  0  0  0
  -15.0956   -8.1070   14.1380 N   0  0  0  0  0  0  0  0  0  0  0  0
  -14.5134   -7.2314   15.1578 C   0  0  0  0  0  0  0  0  0  0  0  0
  -14.3235   -5.8343   14.5949 C   0  0  0  0  0  0  0  0  0  0  0  0
  -15.6867   -5.2667   14.1984 C   0  0  0  0  0  0  0  0  0  0  0  0
  -16.3508   -6.1756   13.1568 C   0  0  0  0  0  0  0  0  0  0  0  0
  -16.4116   -7.6139   13.6770 C   0  0  0  0  0  0  0  0  0  0  0  0
  -18.0224   -5.7265   11.3170 C   0  0  0  0  0  0  0  0  0  0  0  0
  -19.2565   -5.2820   10.8691 C   0  0  0  0  0  0  0  0  0  0  0  0
  -20.1874   -4.7997   11.7639 C   0  0  0  0  0  0  0  0  0  0  0  0
  -19.8840   -4.7573   13.1064 C   0  0  0  0  0  0  0  0  0  0  0  0
  -18.6492   -5.1995   13.5588 C   0  0  0  0  0  0  0  0  0  0  0  0
  -17.6994   -5.6822   12.6682 C   0  0  0  0  0  0  0  0  0  0  0  0
  -13.6390   -4.9961   15.5840 N   0  0  0  0  0  0  0  0  0  0  0  0
  -13.8995   -5.1085   16.5267 H   0  0  0  0  0  0  0  0  0  0  0  0
  -12.6869   -4.0881   15.3141 C   0  0  0  0  0  0  0  0  0  0  0  0
  -13.0399   -2.7295   15.0278 C   0  0  0  0  0  0  0  0  0  0  0  0
  -12.1965   -1.7890   14.7631 N   0  0  0  0  0  0  0  0  0  0  0  0
  -10.8749   -2.1271   14.7475 N   0  0  0  0  0  0  0  0  0  0  0  0
   -9.9648   -1.0287   14.4377 C   0  0  0  0  0  0  0  0  0  0  0  0
  -10.3665   -3.3802   15.0011 C   0  0  0  0  0  0  0  0  0  0  0  0
   -9.1593   -3.5947   14.9658 O   0  0  0  0  0  0  0  0  0  0  0  0
  -11.3704   -4.3718   15.2938 C   0  0  0  0  0  0  0  0  0  0  0  0
  -10.7025   -6.0962   15.6444 Br  0  0  0  0  0  0  0  0  0  0  0  0
 24 23  1  0  0  0
 22 21  2  0  0  0
 21 23  1  0  0  0
 21 19  1  0  0  0
 23 16  2  0  0  0
 16 14  1  0  0  0
 16 17  1  0  0  0
 19 20  1  0  0  0
 19 18  1  0  0  0
 14  4  1  0  0  0
  5  4  1  0  0  0
  5  6  1  0  0  0
 17 18  2  0  0  0
  4  3  1  0  0  0
 11 12  2  0  0  0
 11 10  1  0  0  0
 12 13  1  0  0  0
  3  2  1  0  0  0
 10  9  2  0  0  0
 13  6  1  0  0  0
 13  8  2  0  0  0
  6  7  1  0  0  0
  7  2  1  0  0  0
  9  8  1  0  0  0
  2  1  1  0  0  0
 14 15  1  0  0  0
M  END
> <minimizedAffinity>
-6.53886

$$$$
5MLJ_9ST_A_902


 24 26  0  0  0  0  0  0  0  0999 V2000
  -15.4757   -9.5656   14.6693 C   0  0  0  0  0  0  0  0  0  0  0  0
  -15.3204   -8.2203   14.1136 N   0  0  0  0  0  0  0  0  0  0  0  0
  -14.6689   -7.3361   15.0828 C   0  0  0  0  0  0  0  0  0  0  0  0
  -14.4395   -5.9684   14.4650 C   0  0  0  0  0  0  0  0  0  0  0  0
  -15.7902   -5.3568   14.0916 C   0  0  0  0  0  0  0  0  0  0  0  0
  -16.5255   -6.2715   13.1044 C   0  0  0  0  0  0  0  0  0  0  0  0
  -16.6292   -7.6872   13.6769 C   0  0  0  0  0  0  0  0  0  0  0  0
  -18.7442   -5.1465   13.5436 C   0  0  0  0  0  0  0  0  0  0  0  0
  -19.9685   -4.6523   13.1214 C   0  0  0  0  0  0  0  0  0  0  0  0
  -20.3280   -4.7304   11.7931 C   0  0  0  0  0  0  0  0  0  0  0  0
  -19.4662   -5.3062   10.8865 C   0  0  0  0  0  0  0  0  0  0  0  0
  -18.2405   -5.8038   11.3052 C   0  0  0  0  0  0  0  0  0  0  0  0
  -17.8677   -5.7376   12.6412 C   0  0  0  0  0  0  0  0  0  0  0  0
  -13.6884   -5.1271   15.4016 N   0  0  0  0  0  0  0  0  0  0  0  0
  -14.1163   -4.9209   16.2640 H   0  0  0  0  0  0  0  0  0  0  0  0
  -12.4666   -4.6136   15.1840 C   0  0  0  0  0  0  0  0  0  0  0  0
  -11.3766   -5.4660   14.8130 C   0  0  0  0  0  0  0  0  0  0  0  0
  -10.1727   -5.0636   14.5791 N   0  0  0  0  0  0  0  0  0  0  0  0
   -9.9295   -3.7273   14.7078 N   0  0  0  0  0  0  0  0  0  0  0  0
   -8.5521   -3.3263   14.4378 C   0  0  0  0  0  0  0  0  0  0  0  0
  -10.8596   -2.7742   15.0534 C   0  0  0  0  0  0  0  0  0  0  0  0
  -10.5516   -1.5904   15.1454 O   0  0  0  0  0  0  0  0  0  0  0  0
  -12.1790   -3.3022   15.2916 C   0  0  0  0  0  0  0  0  0  0  0  0
  -13.4720   -2.0197   15.7667 Br  0  0  0  0  0  0  0  0  0  0  0  0
 24 23  1  0  0  0
 22 21  2  0  0  0
 21 23  1  0  0  0
 21 19  1  0  0  0
 23 16  2  0  0  0
 16 14  1  0  0  0
 16 17  1  0  0  0
 19 20  1  0  0  0
 19 18  1  0  0  0
 14  4  1  0  0  0
  5  4  1  0  0  0
  5  6  1  0  0  0
 17 18  2  0  0  0
  4  3  1  0  0  0
 11 12  2  0  0  0
 11 10  1  0  0  0
 12 13  1  0  0  0
  3  2  1  0  0  0
 10  9  2  0  0  0
 13  6  1  0  0  0
 13  8  2  0  0  0
  6  7  1  0  0  0
  7  2  1  0  0  0
  9  8  1  0  0  0
  2  1  1  0  0  0
 14 15  1  0  0  0
M  END
> <minimizedAffinity>
-6.53054

$$$$
5MLJ_9ST_A_902


 24 26  0  0  0  0  0  0  0  0999 V2000
   -8.3903   -5.2686   14.7218 C   0  0  0  0  0  0  0  0  0  0  0  0
   -9.3869   -6.1471   14.1072 N   0  0  0  0  0  0  0  0  0  0  0  0
  -10.5720   -6.2564   14.9611 C   0  0  0  0  0  0  0  0  0  0  0  0
  -11.6295   -7.1025   14.2751 C   0  0  0  0  0  0  0  0  0  0  0  0
  -11.0729   -8.5081   14.0467 C   0  0  0  0  0  0  0  0  0  0  0  0
   -9.8055   -8.4373   13.1860 C   0  0  0  0  0  0  0  0  0  0  0  0
   -8.7974   -7.4716   13.8136 C   0  0  0  0  0  0  0  0  0  0  0  0
   -9.5184  -10.9086   13.6233 C   0  0  0  0  0  0  0  0  0  0  0  0
   -8.9624  -12.1445   13.3324 C   0  0  0  0  0  0  0  0  0  0  0  0
   -8.0825  -12.2795   12.2800 C   0  0  0  0  0  0  0  0  0  0  0  0
   -7.7544  -11.1789   11.5204 C   0  0  0  0  0  0  0  0  0  0  0  0
   -8.3073   -9.9396   11.8093 C   0  0  0  0  0  0  0  0  0  0  0  0
   -9.1903   -9.7873   12.8701 C   0  0  0  0  0  0  0  0  0  0  0  0
  -12.8507   -7.1134   15.0862 N   0  0  0  0  0  0  0  0  0  0  0  0
  -12.7525   -7.3146   16.0449 H   0  0  0  0  0  0  0  0  0  0  0  0
  -14.0919   -6.8723   14.6334 C   0  0  0  0  0  0  0  0  0  0  0  0
  -14.4978   -5.5386   14.3033 C   0  0  0  0  0  0  0  0  0  0  0  0
  -15.6644   -5.2122   13.8576 N   0  0  0  0  0  0  0  0  0  0  0  0
  -16.5731   -6.2180   13.7032 N   0  0  0  0  0  0  0  0  0  0  0  0
  -17.8770   -5.7943   13.2021 C   0  0  0  0  0  0  0  0  0  0  0  0
  -16.3473   -7.5486   13.9706 C   0  0  0  0  0  0  0  0  0  0  0  0
  -17.2254   -8.3882   13.8014 O   0  0  0  0  0  0  0  0  0  0  0  0
  -15.0209   -7.8315   14.4578 C   0  0  0  0  0  0  0  0  0  0  0  0
  -14.6844   -9.6451   14.8324 Br  0  0  0  0  0  0  0  0  0  0  0  0
 24 23  1  0  0  0
 22 21  2  0  0  0
 21 23  1  0  0  0
 21 19  1  0  0  0
 23 16  2  0  0  0
 16 14  1  0  0  0
 16 17  1  0  0  0
 19 20  1  0  0  0
 19 18  1  0  0  0
 14  4  1  0  0  0
  5  4  1  0  0  0
  5  6  1  0  0  0
 17 18  2  0  0  0
  4  3  1  0  0  0
 11 12  2  0  0  0
 11 10  1  0  0  0
 12 13  1  0  0  0
  3  2  1  0  0  0
 10  9  2  0  0  0
 13  6  1  0  0  0
 13  8  2  0  0  0
  6  7  1  0  0  0
  7  2  1  0  0  0
  9  8  1  0  0  0
  2  1  1  0  0  0
 14 15  1  0  0  0
M  END
> <minimizedAffinity>
-6.17726

$$$$
5MLJ_9ST_A_902


 24 26  0  0  0  0  0  0  0  0999 V2000
  -10.0237  -10.1067   13.0907 C   0  0  0  0  0  0  0  0  0  0  0  0
  -10.0294   -8.9389   13.9732 N   0  0  0  0  0  0  0  0  0  0  0  0
  -11.3941   -8.6280   14.4052 C   0  0  0  0  0  0  0  0  0  0  0  0
  -11.3768   -7.4677   15.3841 C   0  0  0  0  0  0  0  0  0  0  0  0
  -10.8031   -6.2344   14.6857 C   0  0  0  0  0  0  0  0  0  0  0  0
   -9.3847   -6.5287   14.1822 C   0  0  0  0  0  0  0  0  0  0  0  0
   -9.3877   -7.7846   13.3073 C   0  0  0  0  0  0  0  0  0  0  0  0
   -8.9746   -4.0513   13.9073 C   0  0  0  0  0  0  0  0  0  0  0  0
   -8.3533   -2.9766   13.2908 C   0  0  0  0  0  0  0  0  0  0  0  0
   -7.4507   -3.1882   12.2708 C   0  0  0  0  0  0  0  0  0  0  0  0
   -7.1716   -4.4736   11.8634 C   0  0  0  0  0  0  0  0  0  0  0  0
   -7.7927   -5.5521   12.4766 C   0  0  0  0  0  0  0  0  0  0  0  0
   -8.7088   -5.3538   13.5012 C   0  0  0  0  0  0  0  0  0  0  0  0
  -12.7314   -7.2371   15.8951 N   0  0  0  0  0  0  0  0  0  0  0  0
  -12.8570   -7.2760   16.8708 H   0  0  0  0  0  0  0  0  0  0  0  0
  -13.8156   -6.9775   15.1463 C   0  0  0  0  0  0  0  0  0  0  0  0
  -13.9831   -5.6942   14.5320 C   0  0  0  0  0  0  0  0  0  0  0  0
  -14.9861   -5.3558   13.7934 N   0  0  0  0  0  0  0  0  0  0  0  0
  -15.9573   -6.2939   13.5986 N   0  0  0  0  0  0  0  0  0  0  0  0
  -17.0709   -5.8585   12.7612 C   0  0  0  0  0  0  0  0  0  0  0  0
  -15.9516   -7.5703   14.1123 C   0  0  0  0  0  0  0  0  0  0  0  0
  -16.8703   -8.3506   13.8844 O   0  0  0  0  0  0  0  0  0  0  0  0
  -14.7967   -7.8720   14.9195 C   0  0  0  0  0  0  0  0  0  0  0  0
  -14.7630   -9.6123   15.6356 Br  0  0  0  0  0  0  0  0  0  0  0  0
 24 23  1  0  0  0
 22 21  2  0  0  0
 21 23  1  0  0  0
 21 19  1  0  0  0
 23 16  2  0  0  0
 16 14  1  0  0  0
 16 17  1  0  0  0
 19 20  1  0  0  0
 19 18  1  0  0  0
 14  4  1  0  0  0
  5  4  1  0  0  0
  5  6  1  0  0  0
 17 18  2  0  0  0
  4  3  1  0  0  0
 11 12  2  0  0  0
 11 10  1  0  0  0
 12 13  1  0  0  0
  3  2  1  0  0  0
 10  9  2  0  0  0
 13  6  1  0  0  0
 13  8  2  0  0  0
  6  7  1  0  0  0
  7  2  1  0  0  0
  9  8  1  0  0  0
  2  1  1  0  0  0
 14 15  1  0  0  0
M  END
> <minimizedAffinity>
-6.07756

$$$$
5MLJ_9ST_A_902


 24 26  0  0  0  0  0  0  0  0999 V2000
  -15.5795   -9.5224   14.4199 C   0  0  0  0  0  0  0  0  0  0  0  0
  -15.4627   -8.1284   13.9887 N   0  0  0  0  0  0  0  0  0  0  0  0
  -14.8189   -7.3213   15.0278 C   0  0  0  0  0  0  0  0  0  0  0  0
  -14.6294   -5.8976   14.5359 C   0  0  0  0  0  0  0  0  0  0  0  0
  -15.9986   -5.2872   14.2354 C   0  0  0  0  0  0  0  0  0  0  0  0
  -16.7257   -6.1250   13.1764 C   0  0  0  0  0  0  0  0  0  0  0  0
  -16.7891   -7.5893   13.6175 C   0  0  0  0  0  0  0  0  0  0  0  0
  -18.9219   -5.0048   13.7270 C   0  0  0  0  0  0  0  0  0  0  0  0
  -20.1625   -4.5037   13.3651 C   0  0  0  0  0  0  0  0  0  0  0  0
  -20.5791   -4.5625   12.0525 C   0  0  0  0  0  0  0  0  0  0  0  0
  -19.7579   -5.1259   11.1015 C   0  0  0  0  0  0  0  0  0  0  0  0
  -18.5161   -5.6304   11.4598 C   0  0  0  0  0  0  0  0  0  0  0  0
  -18.0859   -5.5836   12.7792 C   0  0  0  0  0  0  0  0  0  0  0  0
  -13.8855   -5.1278   15.5376 N   0  0  0  0  0  0  0  0  0  0  0  0
  -13.4356   -5.6346   16.2517 H   0  0  0  0  0  0  0  0  0  0  0  0
  -13.7652   -3.7904   15.5644 C   0  0  0  0  0  0  0  0  0  0  0  0
  -13.4716   -3.0639   14.3651 C   0  0  0  0  0  0  0  0  0  0  0  0
  -13.3432   -1.7816   14.2929 N   0  0  0  0  0  0  0  0  0  0  0  0
  -13.4899   -1.0773   15.4521 N   0  0  0  0  0  0  0  0  0  0  0  0
  -13.3295    0.3673   15.3161 C   0  0  0  0  0  0  0  0  0  0  0  0
  -13.7738   -1.6165   16.6856 C   0  0  0  0  0  0  0  0  0  0  0  0
  -13.8894   -0.9051   17.6782 O   0  0  0  0  0  0  0  0  0  0  0  0
  -13.9079   -3.0512   16.6813 C   0  0  0  0  0  0  0  0  0  0  0  0
  -14.2962   -3.8160   18.3566 Br  0  0  0  0  0  0  0  0  0  0  0  0
 24 23  1  0  0  0
 22 21  2  0  0  0
 21 23  1  0  0  0
 21 19  1  0  0  0
 23 16  2  0  0  0
 16 14  1  0  0  0
 16 17  1  0  0  0
 19 20  1  0  0  0
 19 18  1  0  0  0
 14  4  1  0  0  0
  5  4  1  0  0  0
  5  6  1  0  0  0
 17 18  2  0  0  0
  4  3  1  0  0  0
 11 12  2  0  0  0
 11 10  1  0  0  0
 12 13  1  0  0  0
  3  2  1  0  0  0
 10  9  2  0  0  0
 13  6  1  0  0  0
 13  8  2  0  0  0
  6  7  1  0  0  0
  7  2  1  0  0  0
  9  8  1  0  0  0
  2  1  1  0  0  0
 14 15  1  0  0  0
M  END
> <minimizedAffinity>
-6.04551

$$$$
5MLJ_9ST_A_902


 24 26  0  0  0  0  0  0  0  0999 V2000
   -8.2255   -4.2278   17.9820 C   0  0  0  0  0  0  0  0  0  0  0  0
   -9.0435   -4.4632   16.7912 N   0  0  0  0  0  0  0  0  0  0  0  0
   -9.5518   -5.8369   16.7802 C   0  0  0  0  0  0  0  0  0  0  0  0
  -10.4645   -6.0429   15.5847 C   0  0  0  0  0  0  0  0  0  0  0  0
   -9.6641   -5.8185   14.3015 C   0  0  0  0  0  0  0  0  0  0  0  0
   -9.0799   -4.4006   14.2885 C   0  0  0  0  0  0  0  0  0  0  0  0
   -8.2748   -4.1522   15.5663 C   0  0  0  0  0  0  0  0  0  0  0  0
   -7.5530   -5.0385   12.3800 C   0  0  0  0  0  0  0  0  0  0  0  0
   -6.8381   -4.7329   11.2324 C   0  0  0  0  0  0  0  0  0  0  0  0
   -6.8624   -3.4539   10.7193 C   0  0  0  0  0  0  0  0  0  0  0  0
   -7.5975   -2.4784   11.3550 C   0  0  0  0  0  0  0  0  0  0  0  0
   -8.3130   -2.7795   12.5050 C   0  0  0  0  0  0  0  0  0  0  0  0
   -8.2929   -4.0621   13.0367 C   0  0  0  0  0  0  0  0  0  0  0  0
  -11.0551   -7.3834   15.6441 N   0  0  0  0  0  0  0  0  0  0  0  0
  -10.5029   -8.1019   16.0288 H   0  0  0  0  0  0  0  0  0  0  0  0
  -12.2851   -7.7152   15.2185 C   0  0  0  0  0  0  0  0  0  0  0  0
  -13.4147   -6.9029   15.5595 C   0  0  0  0  0  0  0  0  0  0  0  0
  -14.6296   -7.1387   15.1930 N   0  0  0  0  0  0  0  0  0  0  0  0
  -14.8435   -8.2519   14.4338 N   0  0  0  0  0  0  0  0  0  0  0  0
  -16.2345   -8.4751   14.0514 C   0  0  0  0  0  0  0  0  0  0  0  0
  -13.8740   -9.1350   14.0176 C   0  0  0  0  0  0  0  0  0  0  0  0
  -14.1575  -10.1133   13.3339 O   0  0  0  0  0  0  0  0  0  0  0  0
  -12.5452   -8.7989   14.4622 C   0  0  0  0  0  0  0  0  0  0  0  0
  -11.1985   -9.9910   13.9073 Br  0  0  0  0  0  0  0  0  0  0  0  0
 24 23  1  0  0  0
 22 21  2  0  0  0
 21 23  1  0  0  0
 21 19  1  0  0  0
 23 16  2  0  0  0
 16 14  1  0  0  0
 16 17  1  0  0  0
 19 20  1  0  0  0
 19 18  1  0  0  0
 14  4  1  0  0  0
  5  4  1  0  0  0
  5  6  1  0  0  0
 17 18  2  0  0  0
  4  3  1  0  0  0
 11 12  2  0  0  0
 11 10  1  0  0  0
 12 13  1  0  0  0
  3  2  1  0  0  0
 10  9  2  0  0  0
 13  6  1  0  0  0
 13  8  2  0  0  0
  6  7  1  0  0  0
  7  2  1  0  0  0
  9  8  1  0  0  0
  2  1  1  0  0  0
 14 15  1  0  0  0
M  END
> <minimizedAffinity>
-5.95369

$$$$
5MLJ_9ST_A_902


 24 26  0  0  0  0  0  0  0  0999 V2000
  -19.0586   -7.5529   10.0508 C   0  0  0  0  0  0  0  0  0  0  0  0
  -18.4706   -6.7003   11.0853 N   0  0  0  0  0  0  0  0  0  0  0  0
  -17.8942   -7.5159   12.1569 C   0  0  0  0  0  0  0  0  0  0  0  0
  -17.2161   -6.6232   13.1807 C   0  0  0  0  0  0  0  0  0  0  0  0
  -18.2585   -5.6900   13.7973 C   0  0  0  0  0  0  0  0  0  0  0  0
  -18.9164   -4.8415   12.7023 C   0  0  0  0  0  0  0  0  0  0  0  0
  -19.4759   -5.7459   11.6015 C   0  0  0  0  0  0  0  0  0  0  0  0
  -19.6927   -3.0893   14.3480 C   0  0  0  0  0  0  0  0  0  0  0  0
  -20.6299   -2.1805   14.8140 C   0  0  0  0  0  0  0  0  0  0  0  0
  -21.8254   -2.0133   14.1487 C   0  0  0  0  0  0  0  0  0  0  0  0
  -22.0870   -2.7571   13.0198 C   0  0  0  0  0  0  0  0  0  0  0  0
  -21.1524   -3.6691   12.5509 C   0  0  0  0  0  0  0  0  0  0  0  0
  -19.9464   -3.8527   13.2144 C   0  0  0  0  0  0  0  0  0  0  0  0
  -16.5476   -7.4525   14.1879 N   0  0  0  0  0  0  0  0  0  0  0  0
  -17.1216   -7.9628   14.8039 H   0  0  0  0  0  0  0  0  0  0  0  0
  -15.2191   -7.5758   14.3424 C   0  0  0  0  0  0  0  0  0  0  0  0
  -14.3203   -6.7940   13.5466 C   0  0  0  0  0  0  0  0  0  0  0  0
  -13.0329   -6.8406   13.6280 N   0  0  0  0  0  0  0  0  0  0  0  0
  -12.4998   -7.7093   14.5349 N   0  0  0  0  0  0  0  0  0  0  0  0
  -11.0409   -7.7267   14.5826 C   0  0  0  0  0  0  0  0  0  0  0  0
  -13.2172   -8.5288   15.3755 C   0  0  0  0  0  0  0  0  0  0  0  0
  -12.6528   -9.2811   16.1631 O   0  0  0  0  0  0  0  0  0  0  0  0
  -14.6460   -8.4134   15.2279 C   0  0  0  0  0  0  0  0  0  0  0  0
  -15.6527   -9.5241   16.3660 Br  0  0  0  0  0  0  0  0  0  0  0  0
 24 23  1  0  0  0
 22 21  2  0  0  0
 21 23  1  0  0  0
 21 19  1  0  0  0
 23 16  2  0  0  0
 16 14  1  0  0  0
 16 17  1  0  0  0
 19 20  1  0  0  0
 19 18  1  0  0  0
 14  4  1  0  0  0
  5  4  1  0  0  0
  5  6  1  0  0  0
 17 18  2  0  0  0
  4  3  1  0  0  0
 11 12  2  0  0  0
 11 10  1  0  0  0
 12 13  1  0  0  0
  3  2  1  0  0  0
 10  9  2  0  0  0
 13  6  1  0  0  0
 13  8  2  0  0  0
  6  7  1  0  0  0
  7  2  1  0  0  0
  9  8  1  0  0  0
  2  1  1  0  0  0
 14 15  1  0  0  0
M  END
> <minimizedAffinity>
-5.75024

$$$$
