3GS6_NP6_A_341


 32 33  0  0  0  0  0  0  0  0999 V2000
  -16.2959  -10.9378    6.7164 C   0  0  0  0  0  0  0  0  0  0  0  0
  -16.8690  -12.3570    6.5552 C   0  0  0  0  0  0  0  0  0  0  0  0
  -15.8567  -13.3336    6.8867 O   0  0  0  0  0  0  0  0  0  0  0  0
  -18.1166  -12.4842    7.4474 C   0  0  0  0  0  0  0  0  0  0  0  0
  -18.5972  -13.8364    7.5474 O   0  0  0  0  0  0  0  0  0  0  0  0
  -19.2315  -11.5641    6.9333 C   0  0  0  0  0  0  0  0  0  0  0  0
  -18.7989  -10.2064    6.7988 O   0  0  0  0  0  0  0  0  0  0  0  0
  -17.3869   -9.9012    6.5971 C   0  0  0  0  0  0  0  0  0  0  0  0
  -17.0318   -8.6900    6.4288 N   0  0  0  0  0  0  0  0  0  0  0  0
  -15.5665  -13.2004    7.8026 H   0  0  0  0  0  0  0  0  0  0  0  0
  -18.8728  -14.1473    6.6709 H   0  0  0  0  0  0  0  0  0  0  0  0
  -13.9564  -10.8548    6.0746 C   0  0  0  0  0  0  0  0  0  0  0  0
  -13.5963  -11.0533    7.2240 O   0  0  0  0  0  0  0  0  0  0  0  0
  -15.2406  -10.7730    5.7281 N   0  0  0  0  0  0  0  0  0  0  0  0
  -15.4791  -10.5983    4.7890 H   0  0  0  0  0  0  0  0  0  0  0  0
  -12.9300  -10.6805    4.9720 C   0  0  0  0  0  0  0  0  0  0  0  0
  -12.6935  -13.1183    4.4537 C   0  0  0  0  0  0  0  0  0  0  0  0
  -11.9914  -11.8821    5.0063 C   0  0  0  0  0  0  0  0  0  0  0  0
  -20.4551  -11.5596    7.8308 C   0  0  0  0  0  0  0  0  0  0  0  0
  -21.2799  -10.6497    7.7477 O   0  0  0  0  0  0  0  0  0  0  0  0
  -20.8717   -9.8164    8.0304 H   0  0  0  0  0  0  0  0  0  0  0  0
  -17.8975   -7.7684    6.3824 O   0  0  0  0  0  0  0  0  0  0  0  0
  -18.2723   -7.0647    5.1478 C   0  0  0  0  0  0  0  0  0  0  0  0
  -18.5758   -5.8758    5.1995 O   0  0  0  0  0  0  0  0  0  0  0  0
  -18.2693   -7.7850    4.0144 N   0  0  0  0  0  0  0  0  0  0  0  0
  -18.0344   -8.7381    4.0898 H   0  0  0  0  0  0  0  0  0  0  0  0
  -18.5723   -7.2986    2.7252 C   0  0  0  0  0  0  0  0  0  0  0  0
  -19.9129   -7.2649    2.3110 C   0  0  0  0  0  0  0  0  0  0  0  0
  -20.2550   -6.8037    1.0380 C   0  0  0  0  0  0  0  0  0  0  0  0
  -19.2511   -6.3852    0.1643 C   0  0  0  0  0  0  0  0  0  0  0  0
  -17.9104   -6.4282    0.5717 C   0  0  0  0  0  0  0  0  0  0  0  0
  -17.5655   -6.8861    1.8456 C   0  0  0  0  0  0  0  0  0  0  0  0
 17 18  1  0  0  0
 18 16  1  0  0  0
 16 12  1  0  0  0
 12 13  2  0  0  0
 12 14  1  0  0  0
 14  1  1  0  0  0
  1  2  1  0  0  0
  1  8  1  0  0  0
  2  3  1  0  0  0
  2  4  1  0  0  0
  4  5  1  0  0  0
  4  6  1  0  0  0
  6 19  1  0  0  0
  6  7  1  0  0  0
 19 20  1  0  0  0
  7  8  1  0  0  0
  8  9  2  0  0  0
  9 22  1  0  0  0
 22 23  1  0  0  0
 23 24  2  0  0  0
 23 25  1  0  0  0
 25 27  1  0  0  0
 27 28  1  0  0  0
 27 32  2  0  0  0
 28 29  2  0  0  0
 29 30  1  0  0  0
 30 31  2  0  0  0
 31 32  1  0  0  0
 14 15  1  0  0  0
  3 10  1  0  0  0
  5 11  1  0  0  0
 20 21  1  0  0  0
 25 26  1  0  0  0
M  END
> <minimizedAffinity>
-7.35315

$$$$
3GS6_NP6_A_341


 32 33  0  0  0  0  0  0  0  0999 V2000
  -16.2787  -10.9609    6.7209 C   0  0  0  0  0  0  0  0  0  0  0  0
  -16.7932  -12.3935    6.4933 C   0  0  0  0  0  0  0  0  0  0  0  0
  -15.7622  -13.3443    6.8417 O   0  0  0  0  0  0  0  0  0  0  0  0
  -18.0734  -12.5905    7.3245 C   0  0  0  0  0  0  0  0  0  0  0  0
  -18.5094  -13.9608    7.3639 O   0  0  0  0  0  0  0  0  0  0  0  0
  -19.1968  -11.6941    6.7875 C   0  0  0  0  0  0  0  0  0  0  0  0
  -18.8075  -10.3188    6.7117 O   0  0  0  0  0  0  0  0  0  0  0  0
  -17.3997   -9.9593    6.5825 C   0  0  0  0  0  0  0  0  0  0  0  0
  -17.0811   -8.7321    6.4652 N   0  0  0  0  0  0  0  0  0  0  0  0
  -15.5174  -13.2290    7.7732 H   0  0  0  0  0  0  0  0  0  0  0  0
  -18.7349  -14.2542    6.4672 H   0  0  0  0  0  0  0  0  0  0  0  0
  -13.9331  -10.5949    6.2149 C   0  0  0  0  0  0  0  0  0  0  0  0
  -13.6333  -10.6402    7.3973 O   0  0  0  0  0  0  0  0  0  0  0  0
  -15.1877  -10.7300    5.7861 N   0  0  0  0  0  0  0  0  0  0  0  0
  -15.3792  -10.6726    4.8221 H   0  0  0  0  0  0  0  0  0  0  0  0
  -12.8635  -10.3685    5.1639 C   0  0  0  0  0  0  0  0  0  0  0  0
  -13.1004   -9.5230    2.8195 C   0  0  0  0  0  0  0  0  0  0  0  0
  -13.2963   -9.1919    4.2954 C   0  0  0  0  0  0  0  0  0  0  0  0
  -20.4580  -11.7588    7.6288 C   0  0  0  0  0  0  0  0  0  0  0  0
  -21.1202  -10.7410    7.8303 O   0  0  0  0  0  0  0  0  0  0  0  0
  -20.6030  -10.1194    8.3659 H   0  0  0  0  0  0  0  0  0  0  0  0
  -17.9762   -7.8398    6.4066 O   0  0  0  0  0  0  0  0  0  0  0  0
  -18.3406   -7.1319    5.1712 C   0  0  0  0  0  0  0  0  0  0  0  0
  -18.5859   -5.9293    5.2150 O   0  0  0  0  0  0  0  0  0  0  0  0
  -18.3937   -7.8634    4.0462 N   0  0  0  0  0  0  0  0  0  0  0  0
  -18.2034   -8.8258    4.1281 H   0  0  0  0  0  0  0  0  0  0  0  0
  -18.6978   -7.3765    2.7574 C   0  0  0  0  0  0  0  0  0  0  0  0
  -17.6468   -6.9702    1.9206 C   0  0  0  0  0  0  0  0  0  0  0  0
  -17.9049   -6.4696    0.6428 C   0  0  0  0  0  0  0  0  0  0  0  0
  -19.2232   -6.3595    0.1995 C   0  0  0  0  0  0  0  0  0  0  0  0
  -20.2752   -6.7544    1.0376 C   0  0  0  0  0  0  0  0  0  0  0  0
  -20.0199   -7.2586    2.3151 C   0  0  0  0  0  0  0  0  0  0  0  0
 17 18  1  0  0  0
 18 16  1  0  0  0
 16 12  1  0  0  0
 12 13  2  0  0  0
 12 14  1  0  0  0
 14  1  1  0  0  0
  1  2  1  0  0  0
  1  8  1  0  0  0
  2  3  1  0  0  0
  2  4  1  0  0  0
  4  5  1  0  0  0
  4  6  1  0  0  0
  6 19  1  0  0  0
  6  7  1  0  0  0
 19 20  1  0  0  0
  7  8  1  0  0  0
  8  9  2  0  0  0
  9 22  1  0  0  0
 22 23  1  0  0  0
 23 24  2  0  0  0
 23 25  1  0  0  0
 25 27  1  0  0  0
 27 28  1  0  0  0
 27 32  2  0  0  0
 28 29  2  0  0  0
 29 30  1  0  0  0
 30 31  2  0  0  0
 31 32  1  0  0  0
 14 15  1  0  0  0
  3 10  1  0  0  0
  5 11  1  0  0  0
 20 21  1  0  0  0
 25 26  1  0  0  0
M  END
> <minimizedAffinity>
-7.29477

$$$$
3GS6_NP6_A_341


 32 33  0  0  0  0  0  0  0  0999 V2000
  -18.9672   -8.9120    5.0774 C   0  0  0  0  0  0  0  0  0  0  0  0
  -19.0191   -8.5758    3.5764 C   0  0  0  0  0  0  0  0  0  0  0  0
  -20.3897   -8.5936    3.1186 O   0  0  0  0  0  0  0  0  0  0  0  0
  -18.3491   -7.2075    3.3588 C   0  0  0  0  0  0  0  0  0  0  0  0
  -18.5443   -6.6942    2.0292 O   0  0  0  0  0  0  0  0  0  0  0  0
  -16.8506   -7.2949    3.6765 C   0  0  0  0  0  0  0  0  0  0  0  0
  -16.6006   -7.8176    4.9853 O   0  0  0  0  0  0  0  0  0  0  0  0
  -17.5821   -8.6815    5.6318 C   0  0  0  0  0  0  0  0  0  0  0  0
  -17.3159   -9.1762    6.7745 N   0  0  0  0  0  0  0  0  0  0  0  0
  -20.9057   -7.9413    3.6177 H   0  0  0  0  0  0  0  0  0  0  0  0
  -18.1283   -7.2913    1.3879 H   0  0  0  0  0  0  0  0  0  0  0  0
  -20.5270  -10.5613    5.9369 C   0  0  0  0  0  0  0  0  0  0  0  0
  -21.1937   -9.6984    6.4854 O   0  0  0  0  0  0  0  0  0  0  0  0
  -19.4262  -10.2834    5.2388 N   0  0  0  0  0  0  0  0  0  0  0  0
  -18.9159  -11.0171    4.8260 H   0  0  0  0  0  0  0  0  0  0  0  0
  -20.9313  -12.0193    6.0392 C   0  0  0  0  0  0  0  0  0  0  0  0
  -19.3978  -12.7019    7.8966 C   0  0  0  0  0  0  0  0  0  0  0  0
  -20.8469  -12.4310    7.5054 C   0  0  0  0  0  0  0  0  0  0  0  0
  -16.1479   -5.9531    3.5861 C   0  0  0  0  0  0  0  0  0  0  0  0
  -16.1110   -5.3447    2.5167 O   0  0  0  0  0  0  0  0  0  0  0  0
  -15.5805   -5.8458    1.8778 H   0  0  0  0  0  0  0  0  0  0  0  0
  -16.1931   -8.9661    7.3187 O   0  0  0  0  0  0  0  0  0  0  0  0
  -15.0016   -9.7904    7.0717 C   0  0  0  0  0  0  0  0  0  0  0  0
  -14.1354   -9.8735    7.9384 O   0  0  0  0  0  0  0  0  0  0  0  0
  -14.9275  -10.4082    5.8816 N   0  0  0  0  0  0  0  0  0  0  0  0
  -15.6660  -10.2527    5.2494 H   0  0  0  0  0  0  0  0  0  0  0  0
  -13.8866  -11.2601    5.4560 C   0  0  0  0  0  0  0  0  0  0  0  0
  -12.8598  -10.7302    4.6593 C   0  0  0  0  0  0  0  0  0  0  0  0
  -11.8179  -11.5418    4.2053 C   0  0  0  0  0  0  0  0  0  0  0  0
  -11.8062  -12.8970    4.5365 C   0  0  0  0  0  0  0  0  0  0  0  0
  -12.8365  -13.4309    5.3230 C   0  0  0  0  0  0  0  0  0  0  0  0
  -13.8782  -12.6208    5.7811 C   0  0  0  0  0  0  0  0  0  0  0  0
 17 18  1  0  0  0
 18 16  1  0  0  0
 16 12  1  0  0  0
 12 13  2  0  0  0
 12 14  1  0  0  0
 14  1  1  0  0  0
  1  2  1  0  0  0
  1  8  1  0  0  0
  2  3  1  0  0  0
  2  4  1  0  0  0
  4  5  1  0  0  0
  4  6  1  0  0  0
  6 19  1  0  0  0
  6  7  1  0  0  0
 19 20  1  0  0  0
  7  8  1  0  0  0
  8  9  2  0  0  0
  9 22  1  0  0  0
 22 23  1  0  0  0
 23 24  2  0  0  0
 23 25  1  0  0  0
 25 27  1  0  0  0
 27 28  1  0  0  0
 27 32  2  0  0  0
 28 29  2  0  0  0
 29 30  1  0  0  0
 30 31  2  0  0  0
 31 32  1  0  0  0
 14 15  1  0  0  0
  3 10  1  0  0  0
  5 11  1  0  0  0
 20 21  1  0  0  0
 25 26  1  0  0  0
M  END
> <minimizedAffinity>
-7.12880

$$$$
3GS6_NP6_A_341


 32 33  0  0  0  0  0  0  0  0999 V2000
  -15.9896  -10.2247    6.4280 C   0  0  0  0  0  0  0  0  0  0  0  0
  -17.0096  -11.3760    6.4787 C   0  0  0  0  0  0  0  0  0  0  0  0
  -16.7220  -12.2348    7.6048 O   0  0  0  0  0  0  0  0  0  0  0  0
  -18.4237  -10.7730    6.5512 C   0  0  0  0  0  0  0  0  0  0  0  0
  -19.4369  -11.7550    6.8311 O   0  0  0  0  0  0  0  0  0  0  0  0
  -18.7514  -10.0329    5.2478 C   0  0  0  0  0  0  0  0  0  0  0  0
  -17.7623   -9.0537    4.9137 O   0  0  0  0  0  0  0  0  0  0  0  0
  -16.3957   -9.1920    5.4045 C   0  0  0  0  0  0  0  0  0  0  0  0
  -15.5206   -8.3366    5.0525 N   0  0  0  0  0  0  0  0  0  0  0  0
  -16.7699  -11.7193    8.4251 H   0  0  0  0  0  0  0  0  0  0  0  0
  -19.4680  -12.4023    6.1094 H   0  0  0  0  0  0  0  0  0  0  0  0
  -13.6610  -10.6032    6.9992 C   0  0  0  0  0  0  0  0  0  0  0  0
  -13.7584   -9.9183    8.0049 O   0  0  0  0  0  0  0  0  0  0  0  0
  -14.6812  -10.8052    6.1659 N   0  0  0  0  0  0  0  0  0  0  0  0
  -14.5477  -11.3556    5.3606 H   0  0  0  0  0  0  0  0  0  0  0  0
  -12.3398  -11.2589    6.6467 C   0  0  0  0  0  0  0  0  0  0  0  0
  -12.0418  -12.9195    4.7971 C   0  0  0  0  0  0  0  0  0  0  0  0
  -12.2981  -11.4543    5.1347 C   0  0  0  0  0  0  0  0  0  0  0  0
  -20.0912   -9.3218    5.2926 C   0  0  0  0  0  0  0  0  0  0  0  0
  -20.8836   -9.5520    6.2059 O   0  0  0  0  0  0  0  0  0  0  0  0
  -21.1921  -10.4695    6.1427 H   0  0  0  0  0  0  0  0  0  0  0  0
  -15.8183   -7.4098    4.2443 O   0  0  0  0  0  0  0  0  0  0  0  0
  -15.4975   -7.4454    2.8104 C   0  0  0  0  0  0  0  0  0  0  0  0
  -14.9953   -6.4581    2.2799 O   0  0  0  0  0  0  0  0  0  0  0  0
  -15.7894   -8.5786    2.1516 N   0  0  0  0  0  0  0  0  0  0  0  0
  -16.2146   -9.3006    2.6685 H   0  0  0  0  0  0  0  0  0  0  0  0
  -15.5416   -8.8275    0.7852 C   0  0  0  0  0  0  0  0  0  0  0  0
  -16.5455   -8.5335   -0.1506 C   0  0  0  0  0  0  0  0  0  0  0  0
  -16.3463   -8.7773   -1.5111 C   0  0  0  0  0  0  0  0  0  0  0  0
  -15.1410   -9.3323   -1.9420 C   0  0  0  0  0  0  0  0  0  0  0  0
  -14.1410   -9.6371   -1.0081 C   0  0  0  0  0  0  0  0  0  0  0  0
  -14.3363   -9.3913    0.3530 C   0  0  0  0  0  0  0  0  0  0  0  0
 17 18  1  0  0  0
 18 16  1  0  0  0
 16 12  1  0  0  0
 12 13  2  0  0  0
 12 14  1  0  0  0
 14  1  1  0  0  0
  1  2  1  0  0  0
  1  8  1  0  0  0
  2  3  1  0  0  0
  2  4  1  0  0  0
  4  5  1  0  0  0
  4  6  1  0  0  0
  6 19  1  0  0  0
  6  7  1  0  0  0
 19 20  1  0  0  0
  7  8  1  0  0  0
  8  9  2  0  0  0
  9 22  1  0  0  0
 22 23  1  0  0  0
 23 24  2  0  0  0
 23 25  1  0  0  0
 25 27  1  0  0  0
 27 28  1  0  0  0
 27 32  2  0  0  0
 28 29  2  0  0  0
 29 30  1  0  0  0
 30 31  2  0  0  0
 31 32  1  0  0  0
 14 15  1  0  0  0
  3 10  1  0  0  0
  5 11  1  0  0  0
 20 21  1  0  0  0
 25 26  1  0  0  0
M  END
> <minimizedAffinity>
-6.85010

$$$$
3GS6_NP6_A_341


 32 33  0  0  0  0  0  0  0  0999 V2000
  -14.1084   -8.6357    4.5707 C   0  0  0  0  0  0  0  0  0  0  0  0
  -13.3458   -9.5659    3.6106 C   0  0  0  0  0  0  0  0  0  0  0  0
  -12.9263   -8.8254    2.4427 O   0  0  0  0  0  0  0  0  0  0  0  0
  -12.1566  -10.1818    4.3690 C   0  0  0  0  0  0  0  0  0  0  0  0
  -11.2475  -10.8873    3.5057 O   0  0  0  0  0  0  0  0  0  0  0  0
  -12.6612  -11.1132    5.4788 C   0  0  0  0  0  0  0  0  0  0  0  0
  -13.5850  -10.4631    6.3578 O   0  0  0  0  0  0  0  0  0  0  0  0
  -14.3613   -9.3190    5.8929 C   0  0  0  0  0  0  0  0  0  0  0  0
  -15.2142   -8.7886    6.6756 N   0  0  0  0  0  0  0  0  0  0  0  0
  -12.3512   -8.0928    2.7136 H   0  0  0  0  0  0  0  0  0  0  0  0
  -11.7076  -11.6354    3.0938 H   0  0  0  0  0  0  0  0  0  0  0  0
  -15.4278   -7.0111    3.3411 C   0  0  0  0  0  0  0  0  0  0  0  0
  -14.5190   -6.1967    3.3702 O   0  0  0  0  0  0  0  0  0  0  0  0
  -15.3306   -8.2165    3.9013 N   0  0  0  0  0  0  0  0  0  0  0  0
  -16.0974   -8.8327    3.8616 H   0  0  0  0  0  0  0  0  0  0  0  0
  -16.7376   -6.6699    2.6571 C   0  0  0  0  0  0  0  0  0  0  0  0
  -19.1431   -7.3461    2.8107 C   0  0  0  0  0  0  0  0  0  0  0  0
  -17.8751   -7.0427    3.6022 C   0  0  0  0  0  0  0  0  0  0  0  0
  -11.5410  -11.6716    6.3367 C   0  0  0  0  0  0  0  0  0  0  0  0
  -11.8009  -12.2755    7.3773 O   0  0  0  0  0  0  0  0  0  0  0  0
  -12.2003  -11.6635    8.0152 H   0  0  0  0  0  0  0  0  0  0  0  0
  -15.4252   -9.2803    7.8222 O   0  0  0  0  0  0  0  0  0  0  0  0
  -16.2969  -10.4387    8.0636 C   0  0  0  0  0  0  0  0  0  0  0  0
  -16.1831  -11.0716    9.1100 O   0  0  0  0  0  0  0  0  0  0  0  0
  -17.1779  -10.7465    7.0979 N   0  0  0  0  0  0  0  0  0  0  0  0
  -17.1676  -10.1877    6.2874 H   0  0  0  0  0  0  0  0  0  0  0  0
  -18.1168  -11.7986    7.1404 C   0  0  0  0  0  0  0  0  0  0  0  0
  -19.2847  -11.6348    7.9015 C   0  0  0  0  0  0  0  0  0  0  0  0
  -20.2333  -12.6565    7.9815 C   0  0  0  0  0  0  0  0  0  0  0  0
  -20.0099  -13.8580    7.3085 C   0  0  0  0  0  0  0  0  0  0  0  0
  -18.8390  -14.0281    6.5566 C   0  0  0  0  0  0  0  0  0  0  0  0
  -17.8899  -13.0066    6.4722 C   0  0  0  0  0  0  0  0  0  0  0  0
 17 18  1  0  0  0
 18 16  1  0  0  0
 16 12  1  0  0  0
 12 13  2  0  0  0
 12 14  1  0  0  0
 14  1  1  0  0  0
  1  2  1  0  0  0
  1  8  1  0  0  0
  2  3  1  0  0  0
  2  4  1  0  0  0
  4  5  1  0  0  0
  4  6  1  0  0  0
  6 19  1  0  0  0
  6  7  1  0  0  0
 19 20  1  0  0  0
  7  8  1  0  0  0
  8  9  2  0  0  0
  9 22  1  0  0  0
 22 23  1  0  0  0
 23 24  2  0  0  0
 23 25  1  0  0  0
 25 27  1  0  0  0
 27 28  1  0  0  0
 27 32  2  0  0  0
 28 29  2  0  0  0
 29 30  1  0  0  0
 30 31  2  0  0  0
 31 32  1  0  0  0
 14 15  1  0  0  0
  3 10  1  0  0  0
  5 11  1  0  0  0
 20 21  1  0  0  0
 25 26  1  0  0  0
M  END
> <minimizedAffinity>
-6.72797

$$$$
3GS6_NP6_A_341


 32 33  0  0  0  0  0  0  0  0999 V2000
  -16.2096   -9.3949    5.8979 C   0  0  0  0  0  0  0  0  0  0  0  0
  -17.3296   -8.4931    5.3492 C   0  0  0  0  0  0  0  0  0  0  0  0
  -18.0502   -7.8868    6.4453 O   0  0  0  0  0  0  0  0  0  0  0  0
  -16.6991   -7.4450    4.4149 C   0  0  0  0  0  0  0  0  0  0  0  0
  -17.6234   -6.4130    4.0276 O   0  0  0  0  0  0  0  0  0  0  0  0
  -16.1171   -8.1271    3.1700 C   0  0  0  0  0  0  0  0  0  0  0  0
  -15.2018   -9.1766    3.5013 O   0  0  0  0  0  0  0  0  0  0  0  0
  -15.3020   -9.8613    4.7854 C   0  0  0  0  0  0  0  0  0  0  0  0
  -14.5100  -10.8259    5.0375 N   0  0  0  0  0  0  0  0  0  0  0  0
  -17.4384   -7.3586    6.9816 H   0  0  0  0  0  0  0  0  0  0  0  0
  -18.3527   -6.8051    3.5224 H   0  0  0  0  0  0  0  0  0  0  0  0
  -16.5079  -10.7620    7.8814 C   0  0  0  0  0  0  0  0  0  0  0  0
  -15.6609  -10.1279    8.4902 O   0  0  0  0  0  0  0  0  0  0  0  0
  -16.8389  -10.4909    6.6192 N   0  0  0  0  0  0  0  0  0  0  0  0
  -17.5196  -11.0407    6.1679 H   0  0  0  0  0  0  0  0  0  0  0  0
  -17.2269  -11.9164    8.5523 C   0  0  0  0  0  0  0  0  0  0  0  0
  -19.2738  -13.3422    8.3417 C   0  0  0  0  0  0  0  0  0  0  0  0
  -18.6210  -12.0226    7.9431 C   0  0  0  0  0  0  0  0  0  0  0  0
  -15.3840   -7.1629    2.2559 C   0  0  0  0  0  0  0  0  0  0  0  0
  -15.0853   -6.0376    2.6554 O   0  0  0  0  0  0  0  0  0  0  0  0
  -15.8938   -5.5251    2.8124 H   0  0  0  0  0  0  0  0  0  0  0  0
  -13.6831  -11.2216    4.1654 O   0  0  0  0  0  0  0  0  0  0  0  0
  -13.9426  -12.3370    3.2442 C   0  0  0  0  0  0  0  0  0  0  0  0
  -13.2306  -13.3367    3.2916 O   0  0  0  0  0  0  0  0  0  0  0  0
  -14.9598  -12.1863    2.3805 N   0  0  0  0  0  0  0  0  0  0  0  0
  -15.4502  -11.3331    2.4104 H   0  0  0  0  0  0  0  0  0  0  0  0
  -15.3888  -13.1406    1.4341 C   0  0  0  0  0  0  0  0  0  0  0  0
  -15.3881  -12.7945    0.0739 C   0  0  0  0  0  0  0  0  0  0  0  0
  -15.8179  -13.7046   -0.8941 C   0  0  0  0  0  0  0  0  0  0  0  0
  -16.2659  -14.9665   -0.5024 C   0  0  0  0  0  0  0  0  0  0  0  0
  -16.2779  -15.3106    0.8565 C   0  0  0  0  0  0  0  0  0  0  0  0
  -15.8456  -14.4034    1.8268 C   0  0  0  0  0  0  0  0  0  0  0  0
 17 18  1  0  0  0
 18 16  1  0  0  0
 16 12  1  0  0  0
 12 13  2  0  0  0
 12 14  1  0  0  0
 14  1  1  0  0  0
  1  2  1  0  0  0
  1  8  1  0  0  0
  2  3  1  0  0  0
  2  4  1  0  0  0
  4  5  1  0  0  0
  4  6  1  0  0  0
  6 19  1  0  0  0
  6  7  1  0  0  0
 19 20  1  0  0  0
  7  8  1  0  0  0
  8  9  2  0  0  0
  9 22  1  0  0  0
 22 23  1  0  0  0
 23 24  2  0  0  0
 23 25  1  0  0  0
 25 27  1  0  0  0
 27 28  1  0  0  0
 27 32  2  0  0  0
 28 29  2  0  0  0
 29 30  1  0  0  0
 30 31  2  0  0  0
 31 32  1  0  0  0
 14 15  1  0  0  0
  3 10  1  0  0  0
  5 11  1  0  0  0
 20 21  1  0  0  0
 25 26  1  0  0  0
M  END
> <minimizedAffinity>
-6.48402

$$$$
3GS6_NP6_A_341


 32 33  0  0  0  0  0  0  0  0999 V2000
  -13.8928   -9.3649    3.3461 C   0  0  0  0  0  0  0  0  0  0  0  0
  -15.0575   -8.9668    4.2700 C   0  0  0  0  0  0  0  0  0  0  0  0
  -14.5915   -8.8824    5.6354 O   0  0  0  0  0  0  0  0  0  0  0  0
  -15.6438   -7.6344    3.7704 C   0  0  0  0  0  0  0  0  0  0  0  0
  -16.5863   -7.0576    4.6915 O   0  0  0  0  0  0  0  0  0  0  0  0
  -16.2982   -7.8259    2.3960 C   0  0  0  0  0  0  0  0  0  0  0  0
  -15.4054   -8.4145    1.4446 O   0  0  0  0  0  0  0  0  0  0  0  0
  -14.2918   -9.2418    1.8953 C   0  0  0  0  0  0  0  0  0  0  0  0
  -13.5411   -9.7969    1.0295 N   0  0  0  0  0  0  0  0  0  0  0  0
  -13.8854   -8.2202    5.6957 H   0  0  0  0  0  0  0  0  0  0  0  0
  -17.3454   -7.6531    4.7926 H   0  0  0  0  0  0  0  0  0  0  0  0
  -12.1890  -11.0241    3.8321 C   0  0  0  0  0  0  0  0  0  0  0  0
  -11.2947  -10.2184    3.6291 O   0  0  0  0  0  0  0  0  0  0  0  0
  -13.4789  -10.7110    3.7125 N   0  0  0  0  0  0  0  0  0  0  0  0
  -14.1622  -11.4010    3.8746 H   0  0  0  0  0  0  0  0  0  0  0  0
  -11.8572  -12.4496    4.2290 C   0  0  0  0  0  0  0  0  0  0  0  0
  -13.5608  -13.8798    5.3777 C   0  0  0  0  0  0  0  0  0  0  0  0
  -13.1119  -13.2962    4.0419 C   0  0  0  0  0  0  0  0  0  0  0  0
  -16.8029   -6.5270    1.7954 C   0  0  0  0  0  0  0  0  0  0  0  0
  -16.3250   -5.4516    2.1563 O   0  0  0  0  0  0  0  0  0  0  0  0
  -16.5486   -5.2945    3.0870 H   0  0  0  0  0  0  0  0  0  0  0  0
  -13.7894   -9.6777   -0.2054 O   0  0  0  0  0  0  0  0  0  0  0  0
  -14.6969  -10.5678   -0.9431 C   0  0  0  0  0  0  0  0  0  0  0  0
  -15.1857  -10.1866   -2.0035 O   0  0  0  0  0  0  0  0  0  0  0  0
  -14.9493  -11.7671   -0.3941 N   0  0  0  0  0  0  0  0  0  0  0  0
  -14.5247  -11.9613    0.4726 H   0  0  0  0  0  0  0  0  0  0  0  0
  -15.7681  -12.7738   -0.9478 C   0  0  0  0  0  0  0  0  0  0  0  0
  -17.1407  -12.7687   -0.6548 C   0  0  0  0  0  0  0  0  0  0  0  0
  -17.9841  -13.7546   -1.1712 C   0  0  0  0  0  0  0  0  0  0  0  0
  -17.4530  -14.7632   -1.9756 C   0  0  0  0  0  0  0  0  0  0  0  0
  -16.0805  -14.7767   -2.2607 C   0  0  0  0  0  0  0  0  0  0  0  0
  -15.2350  -13.7899   -1.7482 C   0  0  0  0  0  0  0  0  0  0  0  0
 17 18  1  0  0  0
 18 16  1  0  0  0
 16 12  1  0  0  0
 12 13  2  0  0  0
 12 14  1  0  0  0
 14  1  1  0  0  0
  1  2  1  0  0  0
  1  8  1  0  0  0
  2  3  1  0  0  0
  2  4  1  0  0  0
  4  5  1  0  0  0
  4  6  1  0  0  0
  6 19  1  0  0  0
  6  7  1  0  0  0
 19 20  1  0  0  0
  7  8  1  0  0  0
  8  9  2  0  0  0
  9 22  1  0  0  0
 22 23  1  0  0  0
 23 24  2  0  0  0
 23 25  1  0  0  0
 25 27  1  0  0  0
 27 28  1  0  0  0
 27 32  2  0  0  0
 28 29  2  0  0  0
 29 30  1  0  0  0
 30 31  2  0  0  0
 31 32  1  0  0  0
 14 15  1  0  0  0
  3 10  1  0  0  0
  5 11  1  0  0  0
 20 21  1  0  0  0
 25 26  1  0  0  0
M  END
> <minimizedAffinity>
-6.45559

$$$$
3GS6_NP6_A_341


 32 33  0  0  0  0  0  0  0  0999 V2000
  -13.9239   -8.9940    3.3286 C   0  0  0  0  0  0  0  0  0  0  0  0
  -14.2757   -7.5788    3.8204 C   0  0  0  0  0  0  0  0  0  0  0  0
  -13.0739   -6.8937    4.2385 O   0  0  0  0  0  0  0  0  0  0  0  0
  -15.0068   -6.8358    2.6881 C   0  0  0  0  0  0  0  0  0  0  0  0
  -15.1788   -5.4335    2.9590 O   0  0  0  0  0  0  0  0  0  0  0  0
  -16.3667   -7.4918    2.4157 C   0  0  0  0  0  0  0  0  0  0  0  0
  -16.2528   -8.8949    2.1567 O   0  0  0  0  0  0  0  0  0  0  0  0
  -15.1185   -9.6492    2.6785 C   0  0  0  0  0  0  0  0  0  0  0  0
  -15.0645  -10.9056    2.4791 N   0  0  0  0  0  0  0  0  0  0  0  0
  -12.4579   -6.8364    3.4914 H   0  0  0  0  0  0  0  0  0  0  0  0
  -15.7368   -5.3221    3.7445 H   0  0  0  0  0  0  0  0  0  0  0  0
  -12.2756  -10.4343    4.3779 C   0  0  0  0  0  0  0  0  0  0  0  0
  -11.6194  -10.4932    3.3502 O   0  0  0  0  0  0  0  0  0  0  0  0
  -13.4110   -9.7421    4.4666 N   0  0  0  0  0  0  0  0  0  0  0  0
  -13.9104   -9.7368    5.3150 H   0  0  0  0  0  0  0  0  0  0  0  0
  -11.8166  -11.1722    5.6206 C   0  0  0  0  0  0  0  0  0  0  0  0
  -12.7728  -13.4209    5.0758 C   0  0  0  0  0  0  0  0  0  0  0  0
  -12.8850  -12.1990    5.9818 C   0  0  0  0  0  0  0  0  0  0  0  0
  -17.0953   -6.8744    1.2365 C   0  0  0  0  0  0  0  0  0  0  0  0
  -17.4157   -5.6862    1.2604 O   0  0  0  0  0  0  0  0  0  0  0  0
  -18.0818   -5.5448    1.9512 H   0  0  0  0  0  0  0  0  0  0  0  0
  -16.0085  -11.5017    1.8837 O   0  0  0  0  0  0  0  0  0  0  0  0
  -16.5996  -12.7628    2.3531 C   0  0  0  0  0  0  0  0  0  0  0  0
  -17.5538  -13.2439    1.7478 O   0  0  0  0  0  0  0  0  0  0  0  0
  -16.0531  -13.3189    3.4465 N   0  0  0  0  0  0  0  0  0  0  0  0
  -15.3069  -12.8357    3.8696 H   0  0  0  0  0  0  0  0  0  0  0  0
  -16.4521  -14.5333    4.0436 C   0  0  0  0  0  0  0  0  0  0  0  0
  -15.8019  -15.7191    3.6683 C   0  0  0  0  0  0  0  0  0  0  0  0
  -16.1752  -16.9443    4.2248 C   0  0  0  0  0  0  0  0  0  0  0  0
  -17.2154  -16.9907    5.1533 C   0  0  0  0  0  0  0  0  0  0  0  0
  -17.8737  -15.8090    5.5215 C   0  0  0  0  0  0  0  0  0  0  0  0
  -17.5003  -14.5816    4.9689 C   0  0  0  0  0  0  0  0  0  0  0  0
 17 18  1  0  0  0
 18 16  1  0  0  0
 16 12  1  0  0  0
 12 13  2  0  0  0
 12 14  1  0  0  0
 14  1  1  0  0  0
  1  2  1  0  0  0
  1  8  1  0  0  0
  2  3  1  0  0  0
  2  4  1  0  0  0
  4  5  1  0  0  0
  4  6  1  0  0  0
  6 19  1  0  0  0
  6  7  1  0  0  0
 19 20  1  0  0  0
  7  8  1  0  0  0
  8  9  2  0  0  0
  9 22  1  0  0  0
 22 23  1  0  0  0
 23 24  2  0  0  0
 23 25  1  0  0  0
 25 27  1  0  0  0
 27 28  1  0  0  0
 27 32  2  0  0  0
 28 29  2  0  0  0
 29 30  1  0  0  0
 30 31  2  0  0  0
 31 32  1  0  0  0
 14 15  1  0  0  0
  3 10  1  0  0  0
  5 11  1  0  0  0
 20 21  1  0  0  0
 25 26  1  0  0  0
M  END
> <minimizedAffinity>
-6.30557

$$$$
3GS6_NP6_A_341


 32 33  0  0  0  0  0  0  0  0999 V2000
  -13.8990   -9.1739    3.4042 C   0  0  0  0  0  0  0  0  0  0  0  0
  -13.9055   -7.6771    3.7624 C   0  0  0  0  0  0  0  0  0  0  0  0
  -12.5478   -7.2014    3.8997 O   0  0  0  0  0  0  0  0  0  0  0  0
  -14.6823   -6.9174    2.6725 C   0  0  0  0  0  0  0  0  0  0  0  0
  -14.5557   -5.4891    2.7880 O   0  0  0  0  0  0  0  0  0  0  0  0
  -16.1625   -7.3202    2.6988 C   0  0  0  0  0  0  0  0  0  0  0  0
  -16.3435   -8.7369    2.6041 O   0  0  0  0  0  0  0  0  0  0  0  0
  -15.2853   -9.6437    3.0347 C   0  0  0  0  0  0  0  0  0  0  0  0
  -15.4881  -10.8999    2.9891 N   0  0  0  0  0  0  0  0  0  0  0  0
  -12.0722   -7.3358    3.0650 H   0  0  0  0  0  0  0  0  0  0  0  0
  -14.9388   -5.1976    3.6301 H   0  0  0  0  0  0  0  0  0  0  0  0
  -12.1942  -10.5768    4.4130 C   0  0  0  0  0  0  0  0  0  0  0  0
  -11.5779  -10.6467    3.3617 O   0  0  0  0  0  0  0  0  0  0  0  0
  -13.3334   -9.8958    4.5340 N   0  0  0  0  0  0  0  0  0  0  0  0
  -13.7994   -9.8809    5.4011 H   0  0  0  0  0  0  0  0  0  0  0  0
  -11.6785  -11.2873    5.6495 C   0  0  0  0  0  0  0  0  0  0  0  0
  -12.7287  -13.4864    5.0764 C   0  0  0  0  0  0  0  0  0  0  0  0
  -12.7160  -12.3251    6.0651 C   0  0  0  0  0  0  0  0  0  0  0  0
  -16.9672   -6.6880    1.5783 C   0  0  0  0  0  0  0  0  0  0  0  0
  -16.9919   -5.4642    1.4487 O   0  0  0  0  0  0  0  0  0  0  0  0
  -17.4412   -5.0673    2.2113 H   0  0  0  0  0  0  0  0  0  0  0  0
  -16.6116  -11.3555    2.6270 O   0  0  0  0  0  0  0  0  0  0  0  0
  -16.8062  -12.1849    1.4294 C   0  0  0  0  0  0  0  0  0  0  0  0
  -17.7642  -11.9655    0.6928 O   0  0  0  0  0  0  0  0  0  0  0  0
  -15.9088  -13.1607    1.2150 N   0  0  0  0  0  0  0  0  0  0  0  0
  -15.1933  -13.2660    1.8830 H   0  0  0  0  0  0  0  0  0  0  0  0
  -15.8992  -14.0485    0.1186 C   0  0  0  0  0  0  0  0  0  0  0  0
  -16.2257  -15.3963    0.3346 C   0  0  0  0  0  0  0  0  0  0  0  0
  -16.2151  -16.3110   -0.7206 C   0  0  0  0  0  0  0  0  0  0  0  0
  -15.8622  -15.8820   -2.0004 C   0  0  0  0  0  0  0  0  0  0  0  0
  -15.5250  -14.5385   -2.2166 C   0  0  0  0  0  0  0  0  0  0  0  0
  -15.5379  -13.6207   -1.1636 C   0  0  0  0  0  0  0  0  0  0  0  0
 17 18  1  0  0  0
 18 16  1  0  0  0
 16 12  1  0  0  0
 12 13  2  0  0  0
 12 14  1  0  0  0
 14  1  1  0  0  0
  1  2  1  0  0  0
  1  8  1  0  0  0
  2  3  1  0  0  0
  2  4  1  0  0  0
  4  5  1  0  0  0
  4  6  1  0  0  0
  6 19  1  0  0  0
  6  7  1  0  0  0
 19 20  1  0  0  0
  7  8  1  0  0  0
  8  9  2  0  0  0
  9 22  1  0  0  0
 22 23  1  0  0  0
 23 24  2  0  0  0
 23 25  1  0  0  0
 25 27  1  0  0  0
 27 28  1  0  0  0
 27 32  2  0  0  0
 28 29  2  0  0  0
 29 30  1  0  0  0
 30 31  2  0  0  0
 31 32  1  0  0  0
 14 15  1  0  0  0
  3 10  1  0  0  0
  5 11  1  0  0  0
 20 21  1  0  0  0
 25 26  1  0  0  0
M  END
> <minimizedAffinity>
-6.26034

$$$$
3GS6_NP6_A_341


 32 33  0  0  0  0  0  0  0  0999 V2000
  -14.0054   -9.2094    3.4513 C   0  0  0  0  0  0  0  0  0  0  0  0
  -13.9614   -7.7164    3.8220 C   0  0  0  0  0  0  0  0  0  0  0  0
  -12.5881   -7.2836    3.9452 O   0  0  0  0  0  0  0  0  0  0  0  0
  -14.7287   -6.9238    2.7488 C   0  0  0  0  0  0  0  0  0  0  0  0
  -14.5569   -5.5011    2.8745 O   0  0  0  0  0  0  0  0  0  0  0  0
  -16.2200   -7.2815    2.7913 C   0  0  0  0  0  0  0  0  0  0  0  0
  -16.4456   -8.6911    2.6872 O   0  0  0  0  0  0  0  0  0  0  0  0
  -15.4101   -9.6335    3.0962 C   0  0  0  0  0  0  0  0  0  0  0  0
  -15.6519  -10.8825    3.0430 N   0  0  0  0  0  0  0  0  0  0  0  0
  -12.1277   -7.4251    3.1033 H   0  0  0  0  0  0  0  0  0  0  0  0
  -14.9199   -5.2054    3.7240 H   0  0  0  0  0  0  0  0  0  0  0  0
  -12.3212  -10.6570    4.4309 C   0  0  0  0  0  0  0  0  0  0  0  0
  -11.7109  -10.7220    3.3758 O   0  0  0  0  0  0  0  0  0  0  0  0
  -13.4476   -9.9581    4.5675 N   0  0  0  0  0  0  0  0  0  0  0  0
  -13.9094   -9.9481    5.4369 H   0  0  0  0  0  0  0  0  0  0  0  0
  -11.8125  -11.3951    5.6541 C   0  0  0  0  0  0  0  0  0  0  0  0
  -12.7150  -13.6344    4.9920 C   0  0  0  0  0  0  0  0  0  0  0  0
  -12.8167  -12.4908    5.9962 C   0  0  0  0  0  0  0  0  0  0  0  0
  -17.0195   -6.6153    1.6869 C   0  0  0  0  0  0  0  0  0  0  0  0
  -16.8994   -5.4082    1.4781 O   0  0  0  0  0  0  0  0  0  0  0  0
  -17.2375   -4.9130    2.2406 H   0  0  0  0  0  0  0  0  0  0  0  0
  -16.7934  -11.3005    2.6919 O   0  0  0  0  0  0  0  0  0  0  0  0
  -17.8455  -11.6897    3.6415 C   0  0  0  0  0  0  0  0  0  0  0  0
  -19.0038  -11.7975    3.2476 O   0  0  0  0  0  0  0  0  0  0  0  0
  -17.4677  -11.8986    4.9131 N   0  0  0  0  0  0  0  0  0  0  0  0
  -16.5168  -11.7593    5.1267 H   0  0  0  0  0  0  0  0  0  0  0  0
  -18.3110  -12.2999    5.9706 C   0  0  0  0  0  0  0  0  0  0  0  0
  -18.5960  -13.6649    6.1300 C   0  0  0  0  0  0  0  0  0  0  0  0
  -19.4368  -14.1032    7.1552 C   0  0  0  0  0  0  0  0  0  0  0  0
  -20.0104  -13.1718    8.0212 C   0  0  0  0  0  0  0  0  0  0  0  0
  -19.7361  -11.8068    7.8572 C   0  0  0  0  0  0  0  0  0  0  0  0
  -18.8929  -11.3658    6.8346 C   0  0  0  0  0  0  0  0  0  0  0  0
 17 18  1  0  0  0
 18 16  1  0  0  0
 16 12  1  0  0  0
 12 13  2  0  0  0
 12 14  1  0  0  0
 14  1  1  0  0  0
  1  2  1  0  0  0
  1  8  1  0  0  0
  2  3  1  0  0  0
  2  4  1  0  0  0
  4  5  1  0  0  0
  4  6  1  0  0  0
  6 19  1  0  0  0
  6  7  1  0  0  0
 19 20  1  0  0  0
  7  8  1  0  0  0
  8  9  2  0  0  0
  9 22  1  0  0  0
 22 23  1  0  0  0
 23 24  2  0  0  0
 23 25  1  0  0  0
 25 27  1  0  0  0
 27 28  1  0  0  0
 27 32  2  0  0  0
 28 29  2  0  0  0
 29 30  1  0  0  0
 30 31  2  0  0  0
 31 32  1  0  0  0
 14 15  1  0  0  0
  3 10  1  0  0  0
  5 11  1  0  0  0
 20 21  1  0  0  0
 25 26  1  0  0  0
M  END
> <minimizedAffinity>
-6.24898

$$$$
