5VD3_H8H_A_401


 39 44  0  0  0  0  0  0  0  0999 V2000
  -13.3493    3.1409    2.0217 C   0  0  0  0  0  0  0  0  0  0  0  0
  -14.4181    3.9944    2.2924 C   0  0  0  0  0  0  0  0  0  0  0  0
  -15.6921    3.5019    2.5277 C   0  0  0  0  0  0  0  0  0  0  0  0
  -15.9218    2.1046    2.4998 C   0  0  0  0  0  0  0  0  0  0  0  0
  -17.2105    1.4900    2.7258 C   0  0  0  0  0  0  0  0  0  0  0  0
  -17.2864    0.1523    2.6660 N   0  0  0  0  0  0  0  0  0  0  0  0
  -16.2427   -0.5833    2.4092 C   0  0  0  0  0  0  0  0  0  0  0  0
  -15.0420   -0.0711    2.1919 N   0  0  0  0  0  0  0  0  0  0  0  0
  -14.8234    1.2426    2.2251 C   0  0  0  0  0  0  0  0  0  0  0  0
  -13.5524    1.7637    1.9869 C   0  0  0  0  0  0  0  0  0  0  0  0
  -18.3666    2.2352    3.0103 N   0  0  0  0  0  0  0  0  0  0  0  0
  -18.2826    3.2141    3.0725 H   0  0  0  0  0  0  0  0  0  0  0  0
  -19.6580    1.6572    3.2148 C   0  0  0  0  0  0  0  0  0  0  0  0
  -19.9610    0.8734    4.3328 C   0  0  0  0  0  0  0  0  0  0  0  0
  -19.2002    0.4813    5.4176 O   0  0  0  0  0  0  0  0  0  0  0  0
  -19.9749   -0.3916    6.2509 C   0  0  0  0  0  0  0  0  0  0  0  0
  -21.2738   -0.3872    5.6460 O   0  0  0  0  0  0  0  0  0  0  0  0
  -21.2400    0.3291    4.4769 C   0  0  0  0  0  0  0  0  0  0  0  0
  -22.2215    0.5600    3.5282 C   0  0  0  0  0  0  0  0  0  0  0  0
  -21.9424    1.3357    2.4163 C   0  0  0  0  0  0  0  0  0  0  0  0
  -20.6733    1.8715    2.2686 C   0  0  0  0  0  0  0  0  0  0  0  0
  -20.3440    2.8431    0.8673 Cl  0  0  0  0  0  0  0  0  0  0  0  0
  -12.1501    3.7612    1.8060 O   0  0  0  0  0  0  0  0  0  0  0  0
  -11.0783    2.8715    1.5469 C   0  0  0  0  0  0  0  0  0  0  0  0
   -9.7948    3.5065    2.0458 C   0  0  0  0  0  0  0  0  0  0  0  0
   -7.2332   -1.3677    2.8773 C   0  0  0  0  0  0  0  0  0  0  0  0
   -8.2126   -0.3002    2.5812 N   0  0  0  0  0  0  0  0  0  0  0  0
   -8.3174    0.5629    3.7882 C   0  0  0  0  0  0  0  0  0  0  0  0
   -9.2320    1.7664    3.4756 C   0  0  0  0  0  0  0  0  0  0  0  0
   -8.7416    2.5343    2.3052 N   0  0  0  0  0  0  0  0  0  0  0  0
   -8.6629    1.6299    1.1285 C   0  0  0  0  0  0  0  0  0  0  0  0
   -7.6970    0.4692    1.4122 C   0  0  0  0  0  0  0  0  0  0  0  0
  -16.7734    4.2913    2.7944 O   0  0  0  0  0  0  0  0  0  0  0  0
  -16.8800    5.5515    2.1327 C   0  0  0  0  0  0  0  0  0  0  0  0
  -17.6171    5.2245    0.8240 C   0  0  0  0  0  0  0  0  0  0  0  0
  -18.8049    6.1333    0.5020 C   0  0  0  0  0  0  0  0  0  0  0  0
  -19.5353    6.4355    1.6878 O   0  0  0  0  0  0  0  0  0  0  0  0
  -18.8033    7.2004    2.6349 C   0  0  0  0  0  0  0  0  0  0  0  0
  -17.6422    6.3545    3.1865 C   0  0  0  0  0  0  0  0  0  0  0  0
 26 27  1  0  0  0
 27 28  1  0  0  0
 27 32  1  0  0  0
 28 29  1  0  0  0
 29 30  1  0  0  0
 30 25  1  0  0  0
 30 31  1  0  0  0
 25 24  1  0  0  0
 24 23  1  0  0  0
 23  1  1  0  0  0
  1  2  1  0  0  0
  1 10  2  0  0  0
  2  3  2  0  0  0
  3 33  1  0  0  0
  3  4  1  0  0  0
 33 34  1  0  0  0
 34 35  1  0  0  0
 34 39  1  0  0  0
 35 36  1  0  0  0
 36 37  1  0  0  0
 37 38  1  0  0  0
 38 39  1  0  0  0
  4  5  2  0  0  0
  4  9  1  0  0  0
  5 11  1  0  0  0
  5  6  1  0  0  0
 11 13  1  0  0  0
 13 14  1  0  0  0
 13 21  2  0  0  0
 14 15  1  0  0  0
 14 18  2  0  0  0
 15 16  1  0  0  0
 16 17  1  0  0  0
 17 18  1  0  0  0
 18 19  1  0  0  0
 19 20  2  0  0  0
 20 21  1  0  0  0
 21 22  1  0  0  0
  6  7  2  0  0  0
  7  8  1  0  0  0
  8  9  2  0  0  0
  9 10  1  0  0  0
 31 32  1  0  0  0
 11 12  1  0  0  0
M  END
> <minimizedAffinity>
-10.26496

$$$$
5VD3_H8H_A_401


 39 44  0  0  0  0  0  0  0  0999 V2000
  -13.3682    3.2426    2.0281 C   0  0  0  0  0  0  0  0  0  0  0  0
  -14.4424    4.0820    2.3203 C   0  0  0  0  0  0  0  0  0  0  0  0
  -15.7126    3.5752    2.5456 C   0  0  0  0  0  0  0  0  0  0  0  0
  -15.9326    2.1774    2.4848 C   0  0  0  0  0  0  0  0  0  0  0  0
  -17.2167    1.5486    2.6979 C   0  0  0  0  0  0  0  0  0  0  0  0
  -17.2835    0.2123    2.6065 N   0  0  0  0  0  0  0  0  0  0  0  0
  -16.2351   -0.5098    2.3309 C   0  0  0  0  0  0  0  0  0  0  0  0
  -15.0383    0.0158    2.1242 N   0  0  0  0  0  0  0  0  0  0  0  0
  -14.8288    1.3298    2.1883 C   0  0  0  0  0  0  0  0  0  0  0  0
  -13.5618    1.8652    1.9608 C   0  0  0  0  0  0  0  0  0  0  0  0
  -18.3776    2.2788    3.0015 N   0  0  0  0  0  0  0  0  0  0  0  0
  -18.3020    3.2574    3.0780 H   0  0  0  0  0  0  0  0  0  0  0  0
  -19.6622    1.6859    3.2061 C   0  0  0  0  0  0  0  0  0  0  0  0
  -19.9561    0.8986    4.3240 C   0  0  0  0  0  0  0  0  0  0  0  0
  -19.1908    0.5152    5.4087 O   0  0  0  0  0  0  0  0  0  0  0  0
  -19.9554   -0.3667    6.2419 C   0  0  0  0  0  0  0  0  0  0  0  0
  -21.2542   -0.3771    5.6371 O   0  0  0  0  0  0  0  0  0  0  0  0
  -21.2287    0.3396    4.4681 C   0  0  0  0  0  0  0  0  0  0  0  0
  -22.2129    0.5593    3.5195 C   0  0  0  0  0  0  0  0  0  0  0  0
  -21.9428    1.3382    2.4076 C   0  0  0  0  0  0  0  0  0  0  0  0
  -20.6799    1.8887    2.2599 C   0  0  0  0  0  0  0  0  0  0  0  0
  -20.3619    2.8641    0.8587 Cl  0  0  0  0  0  0  0  0  0  0  0  0
  -12.1736    3.8762    1.8256 O   0  0  0  0  0  0  0  0  0  0  0  0
  -11.0945    2.9999    1.5513 C   0  0  0  0  0  0  0  0  0  0  0  0
   -9.9335    3.8182    1.0202 C   0  0  0  0  0  0  0  0  0  0  0  0
   -7.2446    4.5460    5.8421 C   0  0  0  0  0  0  0  0  0  0  0  0
   -8.2657    4.3516    4.7905 N   0  0  0  0  0  0  0  0  0  0  0  0
   -8.1501    5.4858    3.8349 C   0  0  0  0  0  0  0  0  0  0  0  0
   -9.1111    5.2527    2.6496 C   0  0  0  0  0  0  0  0  0  0  0  0
   -8.8470    3.9555    1.9806 N   0  0  0  0  0  0  0  0  0  0  0  0
   -8.9825    2.8591    2.9747 C   0  0  0  0  0  0  0  0  0  0  0  0
   -7.9766    3.0511    4.1202 C   0  0  0  0  0  0  0  0  0  0  0  0
  -16.7990    4.3505    2.8324 O   0  0  0  0  0  0  0  0  0  0  0  0
  -16.9333    5.6099    2.1741 C   0  0  0  0  0  0  0  0  0  0  0  0
  -17.6019    5.2611    0.8346 C   0  0  0  0  0  0  0  0  0  0  0  0
  -18.8141    6.1202    0.4697 C   0  0  0  0  0  0  0  0  0  0  0  0
  -19.6044    6.3816    1.6264 O   0  0  0  0  0  0  0  0  0  0  0  0
  -18.9453    7.1703    2.6069 C   0  0  0  0  0  0  0  0  0  0  0  0
  -17.7718    6.3713    3.2005 C   0  0  0  0  0  0  0  0  0  0  0  0
 26 27  1  0  0  0
 27 28  1  0  0  0
 27 32  1  0  0  0
 28 29  1  0  0  0
 29 30  1  0  0  0
 30 25  1  0  0  0
 30 31  1  0  0  0
 25 24  1  0  0  0
 24 23  1  0  0  0
 23  1  1  0  0  0
  1  2  1  0  0  0
  1 10  2  0  0  0
  2  3  2  0  0  0
  3 33  1  0  0  0
  3  4  1  0  0  0
 33 34  1  0  0  0
 34 35  1  0  0  0
 34 39  1  0  0  0
 35 36  1  0  0  0
 36 37  1  0  0  0
 37 38  1  0  0  0
 38 39  1  0  0  0
  4  5  2  0  0  0
  4  9  1  0  0  0
  5 11  1  0  0  0
  5  6  1  0  0  0
 11 13  1  0  0  0
 13 14  1  0  0  0
 13 21  2  0  0  0
 14 15  1  0  0  0
 14 18  2  0  0  0
 15 16  1  0  0  0
 16 17  1  0  0  0
 17 18  1  0  0  0
 18 19  1  0  0  0
 19 20  2  0  0  0
 20 21  1  0  0  0
 21 22  1  0  0  0
  6  7  2  0  0  0
  7  8  1  0  0  0
  8  9  2  0  0  0
  9 10  1  0  0  0
 31 32  1  0  0  0
 11 12  1  0  0  0
M  END
> <minimizedAffinity>
-10.16778

$$$$
5VD3_H8H_A_401


 39 44  0  0  0  0  0  0  0  0999 V2000
  -15.6261    6.2063    1.3403 C   0  0  0  0  0  0  0  0  0  0  0  0
  -17.0006    6.3198    1.5445 C   0  0  0  0  0  0  0  0  0  0  0  0
  -17.7477    5.2571    2.0276 C   0  0  0  0  0  0  0  0  0  0  0  0
  -17.1101    4.0285    2.3275 C   0  0  0  0  0  0  0  0  0  0  0  0
  -17.7969    2.8597    2.8295 C   0  0  0  0  0  0  0  0  0  0  0  0
  -17.0692    1.7587    3.0677 N   0  0  0  0  0  0  0  0  0  0  0  0
  -15.7848    1.7259    2.8545 C   0  0  0  0  0  0  0  0  0  0  0  0
  -15.1090    2.7661    2.3932 N   0  0  0  0  0  0  0  0  0  0  0  0
  -15.7066    3.9244    2.1177 C   0  0  0  0  0  0  0  0  0  0  0  0
  -14.9786    5.0070    1.6261 C   0  0  0  0  0  0  0  0  0  0  0  0
  -19.1788    2.8418    3.0806 N   0  0  0  0  0  0  0  0  0  0  0  0
  -19.6315    3.7014    3.2398 H   0  0  0  0  0  0  0  0  0  0  0  0
  -19.9672    1.6499    3.1187 C   0  0  0  0  0  0  0  0  0  0  0  0
  -20.0458    0.8379    4.2547 C   0  0  0  0  0  0  0  0  0  0  0  0
  -19.4601    0.9384    5.5022 O   0  0  0  0  0  0  0  0  0  0  0  0
  -19.8112   -0.2100    6.2861 C   0  0  0  0  0  0  0  0  0  0  0  0
  -20.7355   -0.9264    5.4582 O   0  0  0  0  0  0  0  0  0  0  0  0
  -20.8286   -0.3195    4.2318 C   0  0  0  0  0  0  0  0  0  0  0  0
  -21.5383   -0.6750    3.0976 C   0  0  0  0  0  0  0  0  0  0  0  0
  -21.4763    0.1171    1.9641 C   0  0  0  0  0  0  0  0  0  0  0  0
  -20.6962    1.2620    1.9828 C   0  0  0  0  0  0  0  0  0  0  0  0
  -20.6330    2.2429    0.5511 Cl  0  0  0  0  0  0  0  0  0  0  0  0
  -15.0152    7.3302    0.8575 O   0  0  0  0  0  0  0  0  0  0  0  0
  -15.7722    8.0251   -0.1179 C   0  0  0  0  0  0  0  0  0  0  0  0
  -15.5548    9.5134    0.0751 C   0  0  0  0  0  0  0  0  0  0  0  0
  -20.5997   10.4743    2.2282 C   0  0  0  0  0  0  0  0  0  0  0  0
  -19.3172    9.8714    1.8062 N   0  0  0  0  0  0  0  0  0  0  0  0
  -19.2463    9.9552    0.3227 C   0  0  0  0  0  0  0  0  0  0  0  0
  -17.8646    9.4550   -0.1499 C   0  0  0  0  0  0  0  0  0  0  0  0
  -16.7622   10.2169    0.4860 N   0  0  0  0  0  0  0  0  0  0  0  0
  -16.8751   10.0943    1.9628 C   0  0  0  0  0  0  0  0  0  0  0  0
  -18.2215   10.6576    2.4429 C   0  0  0  0  0  0  0  0  0  0  0  0
  -19.0946    5.3124    2.2432 O   0  0  0  0  0  0  0  0  0  0  0  0
  -19.8282    6.4135    1.7077 C   0  0  0  0  0  0  0  0  0  0  0  0
  -20.1628    5.9762    0.2725 C   0  0  0  0  0  0  0  0  0  0  0  0
  -21.6268    6.1508   -0.1359 C   0  0  0  0  0  0  0  0  0  0  0  0
  -22.4889    5.8060    0.9452 O   0  0  0  0  0  0  0  0  0  0  0  0
  -22.3729    6.6658    2.0699 C   0  0  0  0  0  0  0  0  0  0  0  0
  -20.9830    6.4893    2.7062 C   0  0  0  0  0  0  0  0  0  0  0  0
 26 27  1  0  0  0
 27 28  1  0  0  0
 27 32  1  0  0  0
 28 29  1  0  0  0
 29 30  1  0  0  0
 30 25  1  0  0  0
 30 31  1  0  0  0
 25 24  1  0  0  0
 24 23  1  0  0  0
 23  1  1  0  0  0
  1  2  1  0  0  0
  1 10  2  0  0  0
  2  3  2  0  0  0
  3 33  1  0  0  0
  3  4  1  0  0  0
 33 34  1  0  0  0
 34 35  1  0  0  0
 34 39  1  0  0  0
 35 36  1  0  0  0
 36 37  1  0  0  0
 37 38  1  0  0  0
 38 39  1  0  0  0
  4  5  2  0  0  0
  4  9  1  0  0  0
  5 11  1  0  0  0
  5  6  1  0  0  0
 11 13  1  0  0  0
 13 14  1  0  0  0
 13 21  2  0  0  0
 14 15  1  0  0  0
 14 18  2  0  0  0
 15 16  1  0  0  0
 16 17  1  0  0  0
 17 18  1  0  0  0
 18 19  1  0  0  0
 19 20  2  0  0  0
 20 21  1  0  0  0
 21 22  1  0  0  0
  6  7  2  0  0  0
  7  8  1  0  0  0
  8  9  2  0  0  0
  9 10  1  0  0  0
 31 32  1  0  0  0
 11 12  1  0  0  0
M  END
> <minimizedAffinity>
-9.40471

$$$$
5VD3_H8H_A_401


 39 44  0  0  0  0  0  0  0  0999 V2000
  -13.1721    2.8227    1.6858 C   0  0  0  0  0  0  0  0  0  0  0  0
  -14.1111    3.7402    2.1552 C   0  0  0  0  0  0  0  0  0  0  0  0
  -15.3471    3.3284    2.6282 C   0  0  0  0  0  0  0  0  0  0  0  0
  -15.6700    1.9494    2.6437 C   0  0  0  0  0  0  0  0  0  0  0  0
  -16.9302    1.4168    3.1103 C   0  0  0  0  0  0  0  0  0  0  0  0
  -17.1046    0.0878    3.0654 N   0  0  0  0  0  0  0  0  0  0  0  0
  -16.1796   -0.7105    2.6144 C   0  0  0  0  0  0  0  0  0  0  0  0
  -15.0106   -0.2745    2.1730 N   0  0  0  0  0  0  0  0  0  0  0  0
  -14.7032    1.0216    2.1647 C   0  0  0  0  0  0  0  0  0  0  0  0
  -13.4688    1.4622    1.6895 C   0  0  0  0  0  0  0  0  0  0  0  0
  -17.9595    2.2317    3.6098 N   0  0  0  0  0  0  0  0  0  0  0  0
  -17.7139    2.9700    4.2131 H   0  0  0  0  0  0  0  0  0  0  0  0
  -19.3424    2.0532    3.2946 C   0  0  0  0  0  0  0  0  0  0  0  0
  -19.9284    2.6030    2.1499 C   0  0  0  0  0  0  0  0  0  0  0  0
  -19.4096    3.3768    1.1294 O   0  0  0  0  0  0  0  0  0  0  0  0
  -20.4632    3.7440    0.2286 C   0  0  0  0  0  0  0  0  0  0  0  0
  -21.6061    3.0356    0.7235 O   0  0  0  0  0  0  0  0  0  0  0  0
  -21.2875    2.4000    1.8963 C   0  0  0  0  0  0  0  0  0  0  0  0
  -22.0680    1.6526    2.7617 C   0  0  0  0  0  0  0  0  0  0  0  0
  -21.5061    1.0974    3.8983 C   0  0  0  0  0  0  0  0  0  0  0  0
  -20.1600    1.3023    4.1546 C   0  0  0  0  0  0  0  0  0  0  0  0
  -19.4740    0.5959    5.5852 Cl  0  0  0  0  0  0  0  0  0  0  0  0
  -11.9971    3.3666    1.2464 O   0  0  0  0  0  0  0  0  0  0  0  0
  -10.8654    2.5393    1.4519 C   0  0  0  0  0  0  0  0  0  0  0  0
   -9.7000    3.4141    1.8715 C   0  0  0  0  0  0  0  0  0  0  0  0
   -8.4117    8.7093    0.7261 C   0  0  0  0  0  0  0  0  0  0  0  0
   -8.3824    7.2849    1.1218 N   0  0  0  0  0  0  0  0  0  0  0  0
   -9.3533    7.1062    2.2347 C   0  0  0  0  0  0  0  0  0  0  0  0
   -9.4497    5.6072    2.5903 C   0  0  0  0  0  0  0  0  0  0  0  0
   -9.8258    4.7902    1.4109 N   0  0  0  0  0  0  0  0  0  0  0  0
   -8.8225    4.9991    0.3346 C   0  0  0  0  0  0  0  0  0  0  0  0
   -8.7762    6.4804   -0.0706 C   0  0  0  0  0  0  0  0  0  0  0  0
  -16.3036    4.1827    3.0960 O   0  0  0  0  0  0  0  0  0  0  0  0
  -16.2972    5.5341    2.6367 C   0  0  0  0  0  0  0  0  0  0  0  0
  -16.5659    5.4164    1.1277 C   0  0  0  0  0  0  0  0  0  0  0  0
  -17.6624    6.3372    0.5887 C   0  0  0  0  0  0  0  0  0  0  0  0
  -18.7447    6.4151    1.5125 O   0  0  0  0  0  0  0  0  0  0  0  0
  -18.4027    7.0256    2.7487 C   0  0  0  0  0  0  0  0  0  0  0  0
  -17.4075    6.1271    3.5038 C   0  0  0  0  0  0  0  0  0  0  0  0
 26 27  1  0  0  0
 27 28  1  0  0  0
 27 32  1  0  0  0
 28 29  1  0  0  0
 29 30  1  0  0  0
 30 25  1  0  0  0
 30 31  1  0  0  0
 25 24  1  0  0  0
 24 23  1  0  0  0
 23  1  1  0  0  0
  1  2  1  0  0  0
  1 10  2  0  0  0
  2  3  2  0  0  0
  3 33  1  0  0  0
  3  4  1  0  0  0
 33 34  1  0  0  0
 34 35  1  0  0  0
 34 39  1  0  0  0
 35 36  1  0  0  0
 36 37  1  0  0  0
 37 38  1  0  0  0
 38 39  1  0  0  0
  4  5  2  0  0  0
  4  9  1  0  0  0
  5 11  1  0  0  0
  5  6  1  0  0  0
 11 13  1  0  0  0
 13 14  1  0  0  0
 13 21  2  0  0  0
 14 15  1  0  0  0
 14 18  2  0  0  0
 15 16  1  0  0  0
 16 17  1  0  0  0
 17 18  1  0  0  0
 18 19  1  0  0  0
 19 20  2  0  0  0
 20 21  1  0  0  0
 21 22  1  0  0  0
  6  7  2  0  0  0
  7  8  1  0  0  0
  8  9  2  0  0  0
  9 10  1  0  0  0
 31 32  1  0  0  0
 11 12  1  0  0  0
M  END
> <minimizedAffinity>
-9.13078

$$$$
5VD3_H8H_A_401


 39 44  0  0  0  0  0  0  0  0999 V2000
  -16.0908    4.2036    1.6704 C   0  0  0  0  0  0  0  0  0  0  0  0
  -17.4725    4.2918    1.8341 C   0  0  0  0  0  0  0  0  0  0  0  0
  -18.2000    5.3299    1.2735 C   0  0  0  0  0  0  0  0  0  0  0  0
  -17.5357    6.3232    0.5132 C   0  0  0  0  0  0  0  0  0  0  0  0
  -18.1989    7.4477   -0.1077 C   0  0  0  0  0  0  0  0  0  0  0  0
  -17.4459    8.3171   -0.7974 N   0  0  0  0  0  0  0  0  0  0  0  0
  -16.1567    8.1697   -0.9098 C   0  0  0  0  0  0  0  0  0  0  0  0
  -15.5009    7.1608   -0.3588 N   0  0  0  0  0  0  0  0  0  0  0  0
  -16.1257    6.2221    0.3504 C   0  0  0  0  0  0  0  0  0  0  0  0
  -15.4165    5.1704    0.9288 C   0  0  0  0  0  0  0  0  0  0  0  0
  -19.5858    7.6522   -0.0214 N   0  0  0  0  0  0  0  0  0  0  0  0
  -20.1783    6.8840   -0.1891 H   0  0  0  0  0  0  0  0  0  0  0  0
  -20.1886    8.9091    0.2952 C   0  0  0  0  0  0  0  0  0  0  0  0
  -21.0017    9.6006   -0.6085 C   0  0  0  0  0  0  0  0  0  0  0  0
  -21.4025    9.3086   -1.8982 O   0  0  0  0  0  0  0  0  0  0  0  0
  -22.1799   10.3983   -2.4126 C   0  0  0  0  0  0  0  0  0  0  0  0
  -22.3073   11.2906   -1.2988 O   0  0  0  0  0  0  0  0  0  0  0  0
  -21.5597   10.8293   -0.2455 C   0  0  0  0  0  0  0  0  0  0  0  0
  -21.3251   11.3745    1.0053 C   0  0  0  0  0  0  0  0  0  0  0  0
  -20.5258   10.7042    1.9151 C   0  0  0  0  0  0  0  0  0  0  0  0
  -19.9670    9.4885    1.5551 C   0  0  0  0  0  0  0  0  0  0  0  0
  -18.9685    8.6628    2.7115 Cl  0  0  0  0  0  0  0  0  0  0  0  0
  -15.5005    3.1310    2.2792 O   0  0  0  0  0  0  0  0  0  0  0  0
  -16.2943    2.5304    3.2874 C   0  0  0  0  0  0  0  0  0  0  0  0
  -16.4914    1.0682    2.9371 C   0  0  0  0  0  0  0  0  0  0  0  0
  -21.3299   -1.6263    2.3554 C   0  0  0  0  0  0  0  0  0  0  0  0
  -19.9730   -1.1957    2.7553 N   0  0  0  0  0  0  0  0  0  0  0  0
  -19.1356   -1.1461    1.5269 C   0  0  0  0  0  0  0  0  0  0  0  0
  -17.7459   -0.5749    1.8810 C   0  0  0  0  0  0  0  0  0  0  0  0
  -17.8514    0.7617    2.5154 N   0  0  0  0  0  0  0  0  0  0  0  0
  -18.6895    0.6549    3.7381 C   0  0  0  0  0  0  0  0  0  0  0  0
  -20.0965    0.1539    3.3777 C   0  0  0  0  0  0  0  0  0  0  0  0
  -19.5519    5.4663    1.4043 O   0  0  0  0  0  0  0  0  0  0  0  0
  -20.1574    5.1161    2.6486 C   0  0  0  0  0  0  0  0  0  0  0  0
  -21.2605    6.1700    2.8364 C   0  0  0  0  0  0  0  0  0  0  0  0
  -22.6371    5.6123    3.2030 C   0  0  0  0  0  0  0  0  0  0  0  0
  -22.8974    4.4139    2.4771 O   0  0  0  0  0  0  0  0  0  0  0  0
  -22.0267    3.3411    2.8072 C   0  0  0  0  0  0  0  0  0  0  0  0
  -20.5981    3.6835    2.3491 C   0  0  0  0  0  0  0  0  0  0  0  0
 26 27  1  0  0  0
 27 28  1  0  0  0
 27 32  1  0  0  0
 28 29  1  0  0  0
 29 30  1  0  0  0
 30 25  1  0  0  0
 30 31  1  0  0  0
 25 24  1  0  0  0
 24 23  1  0  0  0
 23  1  1  0  0  0
  1  2  1  0  0  0
  1 10  2  0  0  0
  2  3  2  0  0  0
  3 33  1  0  0  0
  3  4  1  0  0  0
 33 34  1  0  0  0
 34 35  1  0  0  0
 34 39  1  0  0  0
 35 36  1  0  0  0
 36 37  1  0  0  0
 37 38  1  0  0  0
 38 39  1  0  0  0
  4  5  2  0  0  0
  4  9  1  0  0  0
  5 11  1  0  0  0
  5  6  1  0  0  0
 11 13  1  0  0  0
 13 14  1  0  0  0
 13 21  2  0  0  0
 14 15  1  0  0  0
 14 18  2  0  0  0
 15 16  1  0  0  0
 16 17  1  0  0  0
 17 18  1  0  0  0
 18 19  1  0  0  0
 19 20  2  0  0  0
 20 21  1  0  0  0
 21 22  1  0  0  0
  6  7  2  0  0  0
  7  8  1  0  0  0
  8  9  2  0  0  0
  9 10  1  0  0  0
 31 32  1  0  0  0
 11 12  1  0  0  0
M  END
> <minimizedAffinity>
-9.01579

$$$$
5VD3_H8H_A_401


 39 44  0  0  0  0  0  0  0  0999 V2000
  -16.6191    1.4678    2.8323 C   0  0  0  0  0  0  0  0  0  0  0  0
  -17.5344    2.5174    2.7658 C   0  0  0  0  0  0  0  0  0  0  0  0
  -17.1206    3.8217    2.5450 C   0  0  0  0  0  0  0  0  0  0  0  0
  -15.7427    4.1030    2.3772 C   0  0  0  0  0  0  0  0  0  0  0  0
  -15.2073    5.4261    2.1481 C   0  0  0  0  0  0  0  0  0  0  0  0
  -13.8790    5.5499    2.0105 N   0  0  0  0  0  0  0  0  0  0  0  0
  -13.0830    4.5216    2.0827 C   0  0  0  0  0  0  0  0  0  0  0  0
  -13.5211    3.2907    2.2937 N   0  0  0  0  0  0  0  0  0  0  0  0
  -14.8176    3.0240    2.4444 C   0  0  0  0  0  0  0  0  0  0  0  0
  -15.2592    1.7215    2.6725 C   0  0  0  0  0  0  0  0  0  0  0  0
  -16.0202    6.5680    2.0576 N   0  0  0  0  0  0  0  0  0  0  0  0
  -16.6783    6.7255    2.7727 H   0  0  0  0  0  0  0  0  0  0  0  0
  -15.9492    7.5151    0.9892 C   0  0  0  0  0  0  0  0  0  0  0  0
  -15.8279    8.8904    1.2120 C   0  0  0  0  0  0  0  0  0  0  0  0
  -15.7538    9.6330    2.3749 O   0  0  0  0  0  0  0  0  0  0  0  0
  -15.7151   11.0284    2.0463 C   0  0  0  0  0  0  0  0  0  0  0  0
  -15.6502   11.0465    0.6150 O   0  0  0  0  0  0  0  0  0  0  0  0
  -15.7688    9.7700    0.1278 C   0  0  0  0  0  0  0  0  0  0  0  0
  -15.8218    9.2990   -1.1730 C   0  0  0  0  0  0  0  0  0  0  0  0
  -15.9386    7.9411   -1.4146 C   0  0  0  0  0  0  0  0  0  0  0  0
  -16.0031    7.0678   -0.3409 C   0  0  0  0  0  0  0  0  0  0  0  0
  -16.1478    5.3678   -0.6655 Cl  0  0  0  0  0  0  0  0  0  0  0  0
  -17.1643    0.2344    3.0580 O   0  0  0  0  0  0  0  0  0  0  0  0
  -17.1438   -0.6213    1.9290 C   0  0  0  0  0  0  0  0  0  0  0  0
  -18.5575   -1.1015    1.6637 C   0  0  0  0  0  0  0  0  0  0  0  0
  -23.4357    1.2967    2.8734 C   0  0  0  0  0  0  0  0  0  0  0  0
  -22.3468    0.4949    2.2751 N   0  0  0  0  0  0  0  0  0  0  0  0
  -21.2800    1.4363    1.8409 C   0  0  0  0  0  0  0  0  0  0  0  0
  -20.0671    0.6302    1.3294 C   0  0  0  0  0  0  0  0  0  0  0  0
  -19.5665   -0.3135    2.3584 N   0  0  0  0  0  0  0  0  0  0  0  0
  -20.6660   -1.2334    2.7505 C   0  0  0  0  0  0  0  0  0  0  0  0
  -21.8470   -0.4372    3.3266 C   0  0  0  0  0  0  0  0  0  0  0  0
  -17.9723    4.8861    2.4736 O   0  0  0  0  0  0  0  0  0  0  0  0
  -19.3526    4.6407    2.2053 C   0  0  0  0  0  0  0  0  0  0  0  0
  -20.0808    5.7967    2.9098 C   0  0  0  0  0  0  0  0  0  0  0  0
  -21.1205    6.5263    2.0570 C   0  0  0  0  0  0  0  0  0  0  0  0
  -20.6508    6.6750    0.7198 O   0  0  0  0  0  0  0  0  0  0  0  0
  -20.4856    5.4453    0.0283 C   0  0  0  0  0  0  0  0  0  0  0  0
  -19.3429    4.6443    0.6768 C   0  0  0  0  0  0  0  0  0  0  0  0
 26 27  1  0  0  0
 27 28  1  0  0  0
 27 32  1  0  0  0
 28 29  1  0  0  0
 29 30  1  0  0  0
 30 25  1  0  0  0
 30 31  1  0  0  0
 25 24  1  0  0  0
 24 23  1  0  0  0
 23  1  1  0  0  0
  1  2  1  0  0  0
  1 10  2  0  0  0
  2  3  2  0  0  0
  3 33  1  0  0  0
  3  4  1  0  0  0
 33 34  1  0  0  0
 34 35  1  0  0  0
 34 39  1  0  0  0
 35 36  1  0  0  0
 36 37  1  0  0  0
 37 38  1  0  0  0
 38 39  1  0  0  0
  4  5  2  0  0  0
  4  9  1  0  0  0
  5 11  1  0  0  0
  5  6  1  0  0  0
 11 13  1  0  0  0
 13 14  1  0  0  0
 13 21  2  0  0  0
 14 15  1  0  0  0
 14 18  2  0  0  0
 15 16  1  0  0  0
 16 17  1  0  0  0
 17 18  1  0  0  0
 18 19  1  0  0  0
 19 20  2  0  0  0
 20 21  1  0  0  0
 21 22  1  0  0  0
  6  7  2  0  0  0
  7  8  1  0  0  0
  8  9  2  0  0  0
  9 10  1  0  0  0
 31 32  1  0  0  0
 11 12  1  0  0  0
M  END
> <minimizedAffinity>
-8.94085

$$$$
5VD3_H8H_A_401


 39 44  0  0  0  0  0  0  0  0999 V2000
  -16.5997    6.7662    1.3621 C   0  0  0  0  0  0  0  0  0  0  0  0
  -17.4741    5.7067    1.1240 C   0  0  0  0  0  0  0  0  0  0  0  0
  -18.8478    5.8907    1.1290 C   0  0  0  0  0  0  0  0  0  0  0  0
  -19.3835    7.1785    1.3751 C   0  0  0  0  0  0  0  0  0  0  0  0
  -20.7978    7.4758    1.4077 C   0  0  0  0  0  0  0  0  0  0  0  0
  -21.1672    8.7408    1.6565 N   0  0  0  0  0  0  0  0  0  0  0  0
  -20.2921    9.6819    1.8685 C   0  0  0  0  0  0  0  0  0  0  0  0
  -18.9871    9.4626    1.8530 N   0  0  0  0  0  0  0  0  0  0  0  0
  -18.4820    8.2531    1.6144 C   0  0  0  0  0  0  0  0  0  0  0  0
  -17.1042    8.0405    1.6088 C   0  0  0  0  0  0  0  0  0  0  0  0
  -21.7831    6.5005    1.1822 N   0  0  0  0  0  0  0  0  0  0  0  0
  -21.5506    5.7302    0.6149 H   0  0  0  0  0  0  0  0  0  0  0  0
  -23.1034    6.5595    1.7271 C   0  0  0  0  0  0  0  0  0  0  0  0
  -24.1569    7.2068    1.0736 C   0  0  0  0  0  0  0  0  0  0  0  0
  -24.2177    7.8878   -0.1272 O   0  0  0  0  0  0  0  0  0  0  0  0
  -25.5331    8.4326   -0.2986 C   0  0  0  0  0  0  0  0  0  0  0  0
  -26.2684    7.9242    0.8211 O   0  0  0  0  0  0  0  0  0  0  0  0
  -25.4261    7.2373    1.6575 C   0  0  0  0  0  0  0  0  0  0  0  0
  -25.6617    6.6272    2.8778 C   0  0  0  0  0  0  0  0  0  0  0  0
  -24.6330    5.9787    3.5390 C   0  0  0  0  0  0  0  0  0  0  0  0
  -23.3725    5.9522    2.9643 C   0  0  0  0  0  0  0  0  0  0  0  0
  -22.0959    5.1321    3.8092 Cl  0  0  0  0  0  0  0  0  0  0  0  0
  -15.2717    6.4424    1.3306 O   0  0  0  0  0  0  0  0  0  0  0  0
  -15.0176    5.0712    1.0807 C   0  0  0  0  0  0  0  0  0  0  0  0
  -13.8934    4.6166    1.9914 C   0  0  0  0  0  0  0  0  0  0  0  0
  -15.8019   -0.5845    2.5541 C   0  0  0  0  0  0  0  0  0  0  0  0
  -15.4835    0.7766    2.0719 N   0  0  0  0  0  0  0  0  0  0  0  0
  -16.0037    1.7435    3.0755 C   0  0  0  0  0  0  0  0  0  0  0  0
  -15.5769    3.1719    2.6751 C   0  0  0  0  0  0  0  0  0  0  0  0
  -14.1044    3.2816    2.5342 N   0  0  0  0  0  0  0  0  0  0  0  0
  -13.6389    2.3025    1.5176 C   0  0  0  0  0  0  0  0  0  0  0  0
  -14.0003    0.8731    1.9497 C   0  0  0  0  0  0  0  0  0  0  0  0
  -19.7483    4.8895    0.9051 O   0  0  0  0  0  0  0  0  0  0  0  0
  -19.3567    3.5441    1.1767 C   0  0  0  0  0  0  0  0  0  0  0  0
  -19.1924    3.5047    2.7046 C   0  0  0  0  0  0  0  0  0  0  0  0
  -19.8930    2.3383    3.4041 C   0  0  0  0  0  0  0  0  0  0  0  0
  -21.1626    2.0903    2.8062 O   0  0  0  0  0  0  0  0  0  0  0  0
  -21.0869    1.6475    1.4586 C   0  0  0  0  0  0  0  0  0  0  0  0
  -20.5400    2.7844    0.5776 C   0  0  0  0  0  0  0  0  0  0  0  0
 26 27  1  0  0  0
 27 28  1  0  0  0
 27 32  1  0  0  0
 28 29  1  0  0  0
 29 30  1  0  0  0
 30 25  1  0  0  0
 30 31  1  0  0  0
 25 24  1  0  0  0
 24 23  1  0  0  0
 23  1  1  0  0  0
  1  2  1  0  0  0
  1 10  2  0  0  0
  2  3  2  0  0  0
  3 33  1  0  0  0
  3  4  1  0  0  0
 33 34  1  0  0  0
 34 35  1  0  0  0
 34 39  1  0  0  0
 35 36  1  0  0  0
 36 37  1  0  0  0
 37 38  1  0  0  0
 38 39  1  0  0  0
  4  5  2  0  0  0
  4  9  1  0  0  0
  5 11  1  0  0  0
  5  6  1  0  0  0
 11 13  1  0  0  0
 13 14  1  0  0  0
 13 21  2  0  0  0
 14 15  1  0  0  0
 14 18  2  0  0  0
 15 16  1  0  0  0
 16 17  1  0  0  0
 17 18  1  0  0  0
 18 19  1  0  0  0
 19 20  2  0  0  0
 20 21  1  0  0  0
 21 22  1  0  0  0
  6  7  2  0  0  0
  7  8  1  0  0  0
  8  9  2  0  0  0
  9 10  1  0  0  0
 31 32  1  0  0  0
 11 12  1  0  0  0
M  END
> <minimizedAffinity>
-8.88090

$$$$
5VD3_H8H_A_401


 39 44  0  0  0  0  0  0  0  0999 V2000
  -15.2172    2.9771    2.4291 C   0  0  0  0  0  0  0  0  0  0  0  0
  -16.5694    2.8105    2.7253 C   0  0  0  0  0  0  0  0  0  0  0  0
  -17.4840    3.8308    2.5167 C   0  0  0  0  0  0  0  0  0  0  0  0
  -17.0465    5.0696    1.9877 C   0  0  0  0  0  0  0  0  0  0  0  0
  -17.9160    6.1972    1.7381 C   0  0  0  0  0  0  0  0  0  0  0  0
  -17.3670    7.3137    1.2374 N   0  0  0  0  0  0  0  0  0  0  0  0
  -16.0924    7.3969    0.9830 C   0  0  0  0  0  0  0  0  0  0  0  0
  -15.2531    6.3960    1.1959 N   0  0  0  0  0  0  0  0  0  0  0  0
  -15.6648    5.2280    1.6867 C   0  0  0  0  0  0  0  0  0  0  0  0
  -14.7643    4.1875    1.9104 C   0  0  0  0  0  0  0  0  0  0  0  0
  -19.2973    6.1602    1.9905 N   0  0  0  0  0  0  0  0  0  0  0  0
  -19.6181    5.5906    2.7265 H   0  0  0  0  0  0  0  0  0  0  0  0
  -20.2649    6.9001    1.2424 C   0  0  0  0  0  0  0  0  0  0  0  0
  -20.5593    8.2401    1.5141 C   0  0  0  0  0  0  0  0  0  0  0  0
  -20.0668    9.1188    2.4600 O   0  0  0  0  0  0  0  0  0  0  0  0
  -20.7671   10.3663    2.3600 C   0  0  0  0  0  0  0  0  0  0  0  0
  -21.6151   10.1982    1.2174 O   0  0  0  0  0  0  0  0  0  0  0  0
  -21.5197    8.9114    0.7526 C   0  0  0  0  0  0  0  0  0  0  0  0
  -22.1847    8.2697   -0.2783 C   0  0  0  0  0  0  0  0  0  0  0  0
  -21.9054    6.9447   -0.5650 C   0  0  0  0  0  0  0  0  0  0  0  0
  -20.9576    6.2757    0.1925 C   0  0  0  0  0  0  0  0  0  0  0  0
  -20.6207    4.6142   -0.1844 Cl  0  0  0  0  0  0  0  0  0  0  0  0
  -14.4275    1.8911    2.6866 O   0  0  0  0  0  0  0  0  0  0  0  0
  -13.3841    1.7004    1.7474 C   0  0  0  0  0  0  0  0  0  0  0  0
  -12.0761    2.1202    2.3897 C   0  0  0  0  0  0  0  0  0  0  0  0
   -7.5087    4.4630    0.2308 C   0  0  0  0  0  0  0  0  0  0  0  0
   -8.5635    3.9547    1.1338 N   0  0  0  0  0  0  0  0  0  0  0  0
   -9.8422    4.6087    0.7464 C   0  0  0  0  0  0  0  0  0  0  0  0
  -10.9943    4.0076    1.5795 C   0  0  0  0  0  0  0  0  0  0  0  0
  -11.0722    2.5351    1.4193 N   0  0  0  0  0  0  0  0  0  0  0  0
   -9.7759    1.9324    1.8256 C   0  0  0  0  0  0  0  0  0  0  0  0
   -8.6373    2.4766    0.9494 C   0  0  0  0  0  0  0  0  0  0  0  0
  -18.8169    3.7229    2.7913 O   0  0  0  0  0  0  0  0  0  0  0  0
  -19.3600    2.4277    3.0459 C   0  0  0  0  0  0  0  0  0  0  0  0
  -20.6506    2.7122    3.8310 C   0  0  0  0  0  0  0  0  0  0  0  0
  -21.8967    1.9874    3.3184 C   0  0  0  0  0  0  0  0  0  0  0  0
  -21.9069    1.9633    1.8936 O   0  0  0  0  0  0  0  0  0  0  0  0
  -20.8480    1.2070    1.3237 C   0  0  0  0  0  0  0  0  0  0  0  0
  -19.5076    1.9032    1.6179 C   0  0  0  0  0  0  0  0  0  0  0  0
 26 27  1  0  0  0
 27 28  1  0  0  0
 27 32  1  0  0  0
 28 29  1  0  0  0
 29 30  1  0  0  0
 30 25  1  0  0  0
 30 31  1  0  0  0
 25 24  1  0  0  0
 24 23  1  0  0  0
 23  1  1  0  0  0
  1  2  1  0  0  0
  1 10  2  0  0  0
  2  3  2  0  0  0
  3 33  1  0  0  0
  3  4  1  0  0  0
 33 34  1  0  0  0
 34 35  1  0  0  0
 34 39  1  0  0  0
 35 36  1  0  0  0
 36 37  1  0  0  0
 37 38  1  0  0  0
 38 39  1  0  0  0
  4  5  2  0  0  0
  4  9  1  0  0  0
  5 11  1  0  0  0
  5  6  1  0  0  0
 11 13  1  0  0  0
 13 14  1  0  0  0
 13 21  2  0  0  0
 14 15  1  0  0  0
 14 18  2  0  0  0
 15 16  1  0  0  0
 16 17  1  0  0  0
 17 18  1  0  0  0
 18 19  1  0  0  0
 19 20  2  0  0  0
 20 21  1  0  0  0
 21 22  1  0  0  0
  6  7  2  0  0  0
  7  8  1  0  0  0
  8  9  2  0  0  0
  9 10  1  0  0  0
 31 32  1  0  0  0
 11 12  1  0  0  0
M  END
> <minimizedAffinity>
-8.72571

$$$$
5VD3_H8H_A_401


 39 44  0  0  0  0  0  0  0  0999 V2000
  -17.3453    7.4948    2.1049 C   0  0  0  0  0  0  0  0  0  0  0  0
  -16.7368    6.2514    1.9392 C   0  0  0  0  0  0  0  0  0  0  0  0
  -17.4484    5.0732    2.1014 C   0  0  0  0  0  0  0  0  0  0  0  0
  -18.8234    5.1232    2.4376 C   0  0  0  0  0  0  0  0  0  0  0  0
  -19.6530    3.9559    2.6346 C   0  0  0  0  0  0  0  0  0  0  0  0
  -20.9411    4.1487    2.9544 N   0  0  0  0  0  0  0  0  0  0  0  0
  -21.4427    5.3429    3.0912 C   0  0  0  0  0  0  0  0  0  0  0  0
  -20.7265    6.4433    2.9252 N   0  0  0  0  0  0  0  0  0  0  0  0
  -19.4350    6.3975    2.6019 C   0  0  0  0  0  0  0  0  0  0  0  0
  -18.6956    7.5679    2.4378 C   0  0  0  0  0  0  0  0  0  0  0  0
  -19.1646    2.6463    2.4958 N   0  0  0  0  0  0  0  0  0  0  0  0
  -18.2298    2.5288    2.2102 H   0  0  0  0  0  0  0  0  0  0  0  0
  -19.9437    1.4738    2.7445 C   0  0  0  0  0  0  0  0  0  0  0  0
  -19.9602    0.8332    3.9877 C   0  0  0  0  0  0  0  0  0  0  0  0
  -19.3125    1.1104    5.1764 O   0  0  0  0  0  0  0  0  0  0  0  0
  -19.6172    0.0869    6.1336 C   0  0  0  0  0  0  0  0  0  0  0  0
  -20.5786   -0.7389    5.4651 O   0  0  0  0  0  0  0  0  0  0  0  0
  -20.7370   -0.3138    4.1708 C   0  0  0  0  0  0  0  0  0  0  0  0
  -21.5016   -0.8268    3.1369 C   0  0  0  0  0  0  0  0  0  0  0  0
  -21.5013   -0.2056    1.8999 C   0  0  0  0  0  0  0  0  0  0  0  0
  -20.7273    0.9286    1.7146 C   0  0  0  0  0  0  0  0  0  0  0  0
  -20.7421    1.6939    0.1558 Cl  0  0  0  0  0  0  0  0  0  0  0  0
  -16.5255    8.5730    1.9179 O   0  0  0  0  0  0  0  0  0  0  0  0
  -16.5446    9.0908    0.5992 C   0  0  0  0  0  0  0  0  0  0  0  0
  -16.8227   10.5798    0.6713 C   0  0  0  0  0  0  0  0  0  0  0  0
  -22.2546   10.3284   -0.5296 C   0  0  0  0  0  0  0  0  0  0  0  0
  -20.8939   10.0820   -0.0060 N   0  0  0  0  0  0  0  0  0  0  0  0
  -19.9885    9.8992   -1.1721 C   0  0  0  0  0  0  0  0  0  0  0  0
  -18.5340    9.7696   -0.6719 C   0  0  0  0  0  0  0  0  0  0  0  0
  -18.1316   10.9410    0.1441 N   0  0  0  0  0  0  0  0  0  0  0  0
  -19.0610   11.0734    1.2963 C   0  0  0  0  0  0  0  0  0  0  0  0
  -20.5008   11.2742    0.7991 C   0  0  0  0  0  0  0  0  0  0  0  0
  -16.9027    3.8306    1.9541 O   0  0  0  0  0  0  0  0  0  0  0  0
  -15.8121    3.4585    2.7965 C   0  0  0  0  0  0  0  0  0  0  0  0
  -16.1190    2.0025    3.1825 C   0  0  0  0  0  0  0  0  0  0  0  0
  -14.9557    1.0243    3.0072 C   0  0  0  0  0  0  0  0  0  0  0  0
  -14.2330    1.3200    1.8151 O   0  0  0  0  0  0  0  0  0  0  0  0
  -13.5807    2.5817    1.8361 C   0  0  0  0  0  0  0  0  0  0  0  0
  -14.6359    3.7017    1.8513 C   0  0  0  0  0  0  0  0  0  0  0  0
 26 27  1  0  0  0
 27 28  1  0  0  0
 27 32  1  0  0  0
 28 29  1  0  0  0
 29 30  1  0  0  0
 30 25  1  0  0  0
 30 31  1  0  0  0
 25 24  1  0  0  0
 24 23  1  0  0  0
 23  1  1  0  0  0
  1  2  1  0  0  0
  1 10  2  0  0  0
  2  3  2  0  0  0
  3 33  1  0  0  0
  3  4  1  0  0  0
 33 34  1  0  0  0
 34 35  1  0  0  0
 34 39  1  0  0  0
 35 36  1  0  0  0
 36 37  1  0  0  0
 37 38  1  0  0  0
 38 39  1  0  0  0
  4  5  2  0  0  0
  4  9  1  0  0  0
  5 11  1  0  0  0
  5  6  1  0  0  0
 11 13  1  0  0  0
 13 14  1  0  0  0
 13 21  2  0  0  0
 14 15  1  0  0  0
 14 18  2  0  0  0
 15 16  1  0  0  0
 16 17  1  0  0  0
 17 18  1  0  0  0
 18 19  1  0  0  0
 19 20  2  0  0  0
 20 21  1  0  0  0
 21 22  1  0  0  0
  6  7  2  0  0  0
  7  8  1  0  0  0
  8  9  2  0  0  0
  9 10  1  0  0  0
 31 32  1  0  0  0
 11 12  1  0  0  0
M  END
> <minimizedAffinity>
-8.65497

$$$$
5VD3_H8H_A_401


 39 44  0  0  0  0  0  0  0  0999 V2000
  -15.9988    3.5229    2.6645 C   0  0  0  0  0  0  0  0  0  0  0  0
  -17.2017    2.8317    2.5264 C   0  0  0  0  0  0  0  0  0  0  0  0
  -18.4147    3.4998    2.4709 C   0  0  0  0  0  0  0  0  0  0  0  0
  -18.4427    4.9136    2.5502 C   0  0  0  0  0  0  0  0  0  0  0  0
  -19.6520    5.7044    2.5077 C   0  0  0  0  0  0  0  0  0  0  0  0
  -19.5332    7.0373    2.5971 N   0  0  0  0  0  0  0  0  0  0  0  0
  -18.3731    7.6157    2.7231 C   0  0  0  0  0  0  0  0  0  0  0  0
  -17.2370    6.9386    2.7703 N   0  0  0  0  0  0  0  0  0  0  0  0
  -17.2091    5.6092    2.6885 C   0  0  0  0  0  0  0  0  0  0  0  0
  -16.0026    4.9131    2.7468 C   0  0  0  0  0  0  0  0  0  0  0  0
  -20.9275    5.1327    2.3692 N   0  0  0  0  0  0  0  0  0  0  0  0
  -21.0633    4.2172    2.7051 H   0  0  0  0  0  0  0  0  0  0  0  0
  -22.0403    5.8005    1.7698 C   0  0  0  0  0  0  0  0  0  0  0  0
  -23.2727    5.9349    2.4172 C   0  0  0  0  0  0  0  0  0  0  0  0
  -23.7132    5.5149    3.6576 O   0  0  0  0  0  0  0  0  0  0  0  0
  -25.1012    5.8439    3.8056 C   0  0  0  0  0  0  0  0  0  0  0  0
  -25.4099    6.5888    2.6213 O   0  0  0  0  0  0  0  0  0  0  0  0
  -24.3273    6.5933    1.7792 C   0  0  0  0  0  0  0  0  0  0  0  0
  -24.1697    7.1248    0.5106 C   0  0  0  0  0  0  0  0  0  0  0  0
  -22.9568    7.0050   -0.1457 C   0  0  0  0  0  0  0  0  0  0  0  0
  -21.9116    6.3476    0.4829 C   0  0  0  0  0  0  0  0  0  0  0  0
  -20.3977    6.2095   -0.3568 Cl  0  0  0  0  0  0  0  0  0  0  0  0
  -14.8794    2.7390    2.7087 O   0  0  0  0  0  0  0  0  0  0  0  0
  -13.7442    3.3182    2.0896 C   0  0  0  0  0  0  0  0  0  0  0  0
  -12.6040    2.3201    2.1460 C   0  0  0  0  0  0  0  0  0  0  0  0
   -7.6156    4.3572    0.7398 C   0  0  0  0  0  0  0  0  0  0  0  0
   -8.8112    3.8808    1.4679 N   0  0  0  0  0  0  0  0  0  0  0  0
   -9.9684    4.7011    1.0197 C   0  0  0  0  0  0  0  0  0  0  0  0
  -11.2610    4.1498    1.6586 C   0  0  0  0  0  0  0  0  0  0  0  0
  -11.4599    2.7158    1.3360 N   0  0  0  0  0  0  0  0  0  0  0  0
  -10.2825    1.9427    1.8102 C   0  0  0  0  0  0  0  0  0  0  0  0
   -9.0038    2.4432    1.1211 C   0  0  0  0  0  0  0  0  0  0  0  0
  -19.6206    2.8736    2.3394 O   0  0  0  0  0  0  0  0  0  0  0  0
  -19.7450    1.5267    2.7952 C   0  0  0  0  0  0  0  0  0  0  0  0
  -20.3403    1.6638    4.2058 C   0  0  0  0  0  0  0  0  0  0  0  0
  -21.5484    0.7695    4.4915 C   0  0  0  0  0  0  0  0  0  0  0  0
  -22.3993    0.7040    3.3502 O   0  0  0  0  0  0  0  0  0  0  0  0
  -21.8036    0.0754    2.2242 C   0  0  0  0  0  0  0  0  0  0  0  0
  -20.6467    0.9473    1.7054 C   0  0  0  0  0  0  0  0  0  0  0  0
 26 27  1  0  0  0
 27 28  1  0  0  0
 27 32  1  0  0  0
 28 29  1  0  0  0
 29 30  1  0  0  0
 30 25  1  0  0  0
 30 31  1  0  0  0
 25 24  1  0  0  0
 24 23  1  0  0  0
 23  1  1  0  0  0
  1  2  1  0  0  0
  1 10  2  0  0  0
  2  3  2  0  0  0
  3 33  1  0  0  0
  3  4  1  0  0  0
 33 34  1  0  0  0
 34 35  1  0  0  0
 34 39  1  0  0  0
 35 36  1  0  0  0
 36 37  1  0  0  0
 37 38  1  0  0  0
 38 39  1  0  0  0
  4  5  2  0  0  0
  4  9  1  0  0  0
  5 11  1  0  0  0
  5  6  1  0  0  0
 11 13  1  0  0  0
 13 14  1  0  0  0
 13 21  2  0  0  0
 14 15  1  0  0  0
 14 18  2  0  0  0
 15 16  1  0  0  0
 16 17  1  0  0  0
 17 18  1  0  0  0
 18 19  1  0  0  0
 19 20  2  0  0  0
 20 21  1  0  0  0
 21 22  1  0  0  0
  6  7  2  0  0  0
  7  8  1  0  0  0
  8  9  2  0  0  0
  9 10  1  0  0  0
 31 32  1  0  0  0
 11 12  1  0  0  0
M  END
> <minimizedAffinity>
-8.63947

$$$$
