1ODJ_GMP_A_1237


 26 28  0  0  0  0  0  0  0  0999 V2000
    1.4839  -79.2591 -145.2053 N   0  0  0  0  0  0  0  0  0  0  0  0
    2.0127  -79.9934 -144.1672 C   0  0  0  0  0  0  0  0  0  0  0  0
    1.1307  -80.3390 -143.2751 N   0  0  0  0  0  0  0  0  0  0  0  0
   -0.0671  -79.8053 -143.7363 C   0  0  0  0  0  0  0  0  0  0  0  0
   -1.3788  -79.8619 -143.1688 C   0  0  0  0  0  0  0  0  0  0  0  0
   -1.7452  -80.4082 -142.1156 O   0  0  0  0  0  0  0  0  0  0  0  0
   -2.3065  -79.1903 -143.9538 N   0  0  0  0  0  0  0  0  0  0  0  0
   -2.0246  -78.5523 -145.1308 C   0  0  0  0  0  0  0  0  0  0  0  0
   -3.0716  -77.9618 -145.7301 N   0  0  0  0  0  0  0  0  0  0  0  0
   -0.8069  -78.4892 -145.6793 N   0  0  0  0  0  0  0  0  0  0  0  0
    0.1204  -79.1354 -144.9307 C   0  0  0  0  0  0  0  0  0  0  0  0
   -3.2392  -79.1717 -143.6391 H   0  0  0  0  0  0  0  0  0  0  0  0
   -3.9657  -78.0120 -145.3210 H   0  0  0  0  0  0  0  0  0  0  0  0
   -2.9450  -77.4787 -146.5786 H   0  0  0  0  0  0  0  0  0  0  0  0
    1.6735  -79.8725 -148.3330 C   0  0  0  0  0  0  0  0  0  0  0  0
    1.5272  -78.6174 -147.5740 O   0  0  0  0  0  0  0  0  0  0  0  0
    3.1127  -80.2918 -148.0611 C   0  0  0  0  0  0  0  0  0  0  0  0
    3.8747  -79.8155 -149.2070 O   0  0  0  0  0  0  0  0  0  0  0  0
    3.5464  -79.5870 -146.7529 C   0  0  0  0  0  0  0  0  0  0  0  0
    4.7882  -78.8775 -146.8289 O   0  0  0  0  0  0  0  0  0  0  0  0
    2.2937  -78.7415 -146.3601 C   0  0  0  0  0  0  0  0  0  0  0  0
    3.7422  -78.8601 -149.3089 H   0  0  0  0  0  0  0  0  0  0  0  0
    4.7247  -78.1862 -147.5064 H   0  0  0  0  0  0  0  0  0  0  0  0
   -0.5907  -80.3211 -148.1451 O   0  0  0  0  0  0  0  0  0  0  0  0
    0.6603  -80.9612 -147.9785 C   0  0  0  0  0  0  0  0  0  0  0  0
   -1.3036  -80.9457 -147.9387 H   0  0  0  0  0  0  0  0  0  0  0  0
 24 25  1  0  0  0
 25 15  1  0  0  0
 15 16  1  0  0  0
 15 17  1  0  0  0
 16 21  1  0  0  0
 17 18  1  0  0  0
 17 19  1  0  0  0
 19 20  1  0  0  0
 19 21  1  0  0  0
 21  1  1  0  0  0
  1  2  1  0  0  0
  1 11  1  0  0  0
  2  3  2  0  0  0
  3  4  1  0  0  0
  4  5  1  0  0  0
  4 11  2  0  0  0
  5  6  2  0  0  0
  5  7  1  0  0  0
  7  8  1  0  0  0
  8  9  1  0  0  0
  8 10  2  0  0  0
 10 11  1  0  0  0
 24 26  1  0  0  0
 18 22  1  0  0  0
 20 23  1  0  0  0
  7 12  1  0  0  0
  9 13  1  0  0  0
  9 14  1  0  0  0
M  END
> <minimizedAffinity>
-9.48708

$$$$
1ODJ_GMP_A_1237


 26 28  0  0  0  0  0  0  0  0999 V2000
    1.3858  -79.2295 -145.0458 N   0  0  0  0  0  0  0  0  0  0  0  0
    0.2649  -78.5641 -144.6016 C   0  0  0  0  0  0  0  0  0  0  0  0
   -0.3007  -79.1298 -143.5753 N   0  0  0  0  0  0  0  0  0  0  0  0
    0.4837  -80.2462 -143.3096 C   0  0  0  0  0  0  0  0  0  0  0  0
    0.3471  -81.2470 -142.2970 C   0  0  0  0  0  0  0  0  0  0  0  0
   -0.5216  -81.3444 -141.4151 O   0  0  0  0  0  0  0  0  0  0  0  0
    1.3516  -82.2019 -142.3809 N   0  0  0  0  0  0  0  0  0  0  0  0
    2.3605  -82.2017 -143.3050 C   0  0  0  0  0  0  0  0  0  0  0  0
    3.2280  -83.2227 -143.2098 N   0  0  0  0  0  0  0  0  0  0  0  0
    2.5075  -81.2755 -144.2580 N   0  0  0  0  0  0  0  0  0  0  0  0
    1.5367  -80.3309 -144.2009 C   0  0  0  0  0  0  0  0  0  0  0  0
    1.3367  -82.9357 -141.7247 H   0  0  0  0  0  0  0  0  0  0  0  0
    3.1141  -83.9014 -142.5057 H   0  0  0  0  0  0  0  0  0  0  0  0
    3.9778  -83.2924 -143.8440 H   0  0  0  0  0  0  0  0  0  0  0  0
    1.5509  -79.9398 -148.1544 C   0  0  0  0  0  0  0  0  0  0  0  0
    1.4564  -78.6584 -147.4319 O   0  0  0  0  0  0  0  0  0  0  0  0
    2.9714  -80.4102 -147.8684 C   0  0  0  0  0  0  0  0  0  0  0  0
    3.7529  -79.9990 -149.0263 O   0  0  0  0  0  0  0  0  0  0  0  0
    3.4335  -79.6867 -146.5803 C   0  0  0  0  0  0  0  0  0  0  0  0
    4.7036  -79.0316 -146.6747 O   0  0  0  0  0  0  0  0  0  0  0  0
    2.2167  -78.7792 -146.2137 C   0  0  0  0  0  0  0  0  0  0  0  0
    3.6600  -79.0422 -149.1558 H   0  0  0  0  0  0  0  0  0  0  0  0
    4.6689  -78.3580 -147.3718 H   0  0  0  0  0  0  0  0  0  0  0  0
   -0.7236  -80.2580 -147.8568 O   0  0  0  0  0  0  0  0  0  0  0  0
    0.4934  -80.9750 -147.7703 C   0  0  0  0  0  0  0  0  0  0  0  0
   -1.4613  -80.8443 -147.6265 H   0  0  0  0  0  0  0  0  0  0  0  0
 24 25  1  0  0  0
 25 15  1  0  0  0
 15 16  1  0  0  0
 15 17  1  0  0  0
 16 21  1  0  0  0
 17 18  1  0  0  0
 17 19  1  0  0  0
 19 20  1  0  0  0
 19 21  1  0  0  0
 21  1  1  0  0  0
  1  2  1  0  0  0
  1 11  1  0  0  0
  2  3  2  0  0  0
  3  4  1  0  0  0
  4  5  1  0  0  0
  4 11  2  0  0  0
  5  6  2  0  0  0
  5  7  1  0  0  0
  7  8  1  0  0  0
  8  9  1  0  0  0
  8 10  2  0  0  0
 10 11  1  0  0  0
 24 26  1  0  0  0
 18 22  1  0  0  0
 20 23  1  0  0  0
  7 12  1  0  0  0
  9 13  1  0  0  0
  9 14  1  0  0  0
M  END
> <minimizedAffinity>
-9.42829

$$$$
1ODJ_GMP_A_1237


 26 28  0  0  0  0  0  0  0  0999 V2000
    2.4864  -79.5878 -146.2044 N   0  0  0  0  0  0  0  0  0  0  0  0
    1.5446  -78.5830 -146.2076 C   0  0  0  0  0  0  0  0  0  0  0  0
    0.7196  -78.6429 -145.2032 N   0  0  0  0  0  0  0  0  0  0  0  0
    1.1265  -79.7562 -144.4769 C   0  0  0  0  0  0  0  0  0  0  0  0
    0.5925  -80.3154 -143.2736 C   0  0  0  0  0  0  0  0  0  0  0  0
   -0.3743  -79.9249 -142.5993 O   0  0  0  0  0  0  0  0  0  0  0  0
    1.2979  -81.4430 -142.8751 N   0  0  0  0  0  0  0  0  0  0  0  0
    2.3769  -81.9677 -143.5325 C   0  0  0  0  0  0  0  0  0  0  0  0
    2.9109  -83.0673 -142.9757 N   0  0  0  0  0  0  0  0  0  0  0  0
    2.8927  -81.4598 -144.6566 N   0  0  0  0  0  0  0  0  0  0  0  0
    2.2200  -80.3580 -145.0705 C   0  0  0  0  0  0  0  0  0  0  0  0
    0.9986  -81.9001 -142.0561 H   0  0  0  0  0  0  0  0  0  0  0  0
    2.5263  -83.4362 -142.1479 H   0  0  0  0  0  0  0  0  0  0  0  0
    3.6868  -83.5043 -143.3954 H   0  0  0  0  0  0  0  0  0  0  0  0
    3.4972  -77.8853 -148.7093 C   0  0  0  0  0  0  0  0  0  0  0  0
    4.2080  -78.4967 -147.5718 O   0  0  0  0  0  0  0  0  0  0  0  0
    3.0847  -79.0800 -149.5598 C   0  0  0  0  0  0  0  0  0  0  0  0
    4.1057  -79.1874 -150.5926 O   0  0  0  0  0  0  0  0  0  0  0  0
    3.0820  -80.3157 -148.6276 C   0  0  0  0  0  0  0  0  0  0  0  0
    3.8099  -81.4474 -149.1182 O   0  0  0  0  0  0  0  0  0  0  0  0
    3.5505  -79.7390 -147.2541 C   0  0  0  0  0  0  0  0  0  0  0  0
    4.9787  -79.2663 -150.1773 H   0  0  0  0  0  0  0  0  0  0  0  0
    4.7394  -81.2024 -149.2483 H   0  0  0  0  0  0  0  0  0  0  0  0
    2.7224  -75.7031 -148.7450 O   0  0  0  0  0  0  0  0  0  0  0  0
    2.3167  -76.9926 -148.3262 C   0  0  0  0  0  0  0  0  0  0  0  0
    2.0246  -75.0617 -148.5390 H   0  0  0  0  0  0  0  0  0  0  0  0
 24 25  1  0  0  0
 25 15  1  0  0  0
 15 16  1  0  0  0
 15 17  1  0  0  0
 16 21  1  0  0  0
 17 18  1  0  0  0
 17 19  1  0  0  0
 19 20  1  0  0  0
 19 21  1  0  0  0
 21  1  1  0  0  0
  1  2  1  0  0  0
  1 11  1  0  0  0
  2  3  2  0  0  0
  3  4  1  0  0  0
  4  5  1  0  0  0
  4 11  2  0  0  0
  5  6  2  0  0  0
  5  7  1  0  0  0
  7  8  1  0  0  0
  8  9  1  0  0  0
  8 10  2  0  0  0
 10 11  1  0  0  0
 24 26  1  0  0  0
 18 22  1  0  0  0
 20 23  1  0  0  0
  7 12  1  0  0  0
  9 13  1  0  0  0
  9 14  1  0  0  0
M  END
> <minimizedAffinity>
-8.43156

$$$$
1ODJ_GMP_A_1237


 26 28  0  0  0  0  0  0  0  0999 V2000
    2.4040  -79.5816 -146.0396 N   0  0  0  0  0  0  0  0  0  0  0  0
    2.7189  -79.4321 -144.7073 C   0  0  0  0  0  0  0  0  0  0  0  0
    1.6768  -79.2859 -143.9419 N   0  0  0  0  0  0  0  0  0  0  0  0
    0.5911  -79.3383 -144.8084 C   0  0  0  0  0  0  0  0  0  0  0  0
   -0.8091  -79.2331 -144.5365 C   0  0  0  0  0  0  0  0  0  0  0  0
   -1.3767  -79.0649 -143.4449 O   0  0  0  0  0  0  0  0  0  0  0  0
   -1.5659  -79.3365 -145.6960 N   0  0  0  0  0  0  0  0  0  0  0  0
   -1.0569  -79.5226 -146.9523 C   0  0  0  0  0  0  0  0  0  0  0  0
   -1.9674  -79.5929 -147.9373 N   0  0  0  0  0  0  0  0  0  0  0  0
    0.2474  -79.6254 -147.2278 N   0  0  0  0  0  0  0  0  0  0  0  0
    1.0107  -79.5247 -146.1121 C   0  0  0  0  0  0  0  0  0  0  0  0
   -2.5441  -79.2707 -145.6074 H   0  0  0  0  0  0  0  0  0  0  0  0
   -2.9263  -79.5165 -147.7276 H   0  0  0  0  0  0  0  0  0  0  0  0
   -1.6759  -79.7207 -148.8689 H   0  0  0  0  0  0  0  0  0  0  0  0
    3.4219  -77.8884 -148.5479 C   0  0  0  0  0  0  0  0  0  0  0  0
    4.1355  -78.5533 -147.4428 O   0  0  0  0  0  0  0  0  0  0  0  0
    2.9249  -79.0465 -149.4037 C   0  0  0  0  0  0  0  0  0  0  0  0
    3.9075  -79.1863 -150.4693 O   0  0  0  0  0  0  0  0  0  0  0  0
    2.8891  -80.2964 -148.4912 C   0  0  0  0  0  0  0  0  0  0  0  0
    3.5446  -81.4540 -149.0218 O   0  0  0  0  0  0  0  0  0  0  0  0
    3.4270  -79.7670 -147.1242 C   0  0  0  0  0  0  0  0  0  0  0  0
    4.7877  -79.3152 -150.0826 H   0  0  0  0  0  0  0  0  0  0  0  0
    4.4808  -81.2528 -149.1770 H   0  0  0  0  0  0  0  0  0  0  0  0
    2.6499  -75.7110 -148.7114 O   0  0  0  0  0  0  0  0  0  0  0  0
    2.2993  -76.9453 -148.1144 C   0  0  0  0  0  0  0  0  0  0  0  0
    1.9838  -75.0426 -148.4870 H   0  0  0  0  0  0  0  0  0  0  0  0
 24 25  1  0  0  0
 25 15  1  0  0  0
 15 16  1  0  0  0
 15 17  1  0  0  0
 16 21  1  0  0  0
 17 18  1  0  0  0
 17 19  1  0  0  0
 19 20  1  0  0  0
 19 21  1  0  0  0
 21  1  1  0  0  0
  1  2  1  0  0  0
  1 11  1  0  0  0
  2  3  2  0  0  0
  3  4  1  0  0  0
  4  5  1  0  0  0
  4 11  2  0  0  0
  5  6  2  0  0  0
  5  7  1  0  0  0
  7  8  1  0  0  0
  8  9  1  0  0  0
  8 10  2  0  0  0
 10 11  1  0  0  0
 24 26  1  0  0  0
 18 22  1  0  0  0
 20 23  1  0  0  0
  7 12  1  0  0  0
  9 13  1  0  0  0
  9 14  1  0  0  0
M  END
> <minimizedAffinity>
-7.71921

$$$$
1ODJ_GMP_A_1237


 26 28  0  0  0  0  0  0  0  0999 V2000
    0.3155  -79.7340 -147.1751 N   0  0  0  0  0  0  0  0  0  0  0  0
    0.2817  -81.1107 -147.1675 C   0  0  0  0  0  0  0  0  0  0  0  0
    1.3245  -81.6577 -147.7212 N   0  0  0  0  0  0  0  0  0  0  0  0
    2.1111  -80.5867 -148.1295 C   0  0  0  0  0  0  0  0  0  0  0  0
    3.3752  -80.5758 -148.7985 C   0  0  0  0  0  0  0  0  0  0  0  0
    4.0625  -81.5395 -149.1735 O   0  0  0  0  0  0  0  0  0  0  0  0
    3.8227  -79.2816 -149.0281 N   0  0  0  0  0  0  0  0  0  0  0  0
    3.1568  -78.1436 -148.6626 C   0  0  0  0  0  0  0  0  0  0  0  0
    3.7677  -76.9914 -148.9838 N   0  0  0  0  0  0  0  0  0  0  0  0
    1.9761  -78.1317 -148.0354 N   0  0  0  0  0  0  0  0  0  0  0  0
    1.5138  -79.3843 -147.8010 C   0  0  0  0  0  0  0  0  0  0  0  0
    4.6857  -79.1745 -149.4895 H   0  0  0  0  0  0  0  0  0  0  0  0
    4.6370  -77.0072 -149.4456 H   0  0  0  0  0  0  0  0  0  0  0  0
    3.3462  -76.1310 -148.7574 H   0  0  0  0  0  0  0  0  0  0  0  0
   -0.5813  -78.8284 -144.2476 C   0  0  0  0  0  0  0  0  0  0  0  0
   -0.3175  -78.0711 -145.4844 O   0  0  0  0  0  0  0  0  0  0  0  0
   -1.8941  -79.5448 -144.5376 C   0  0  0  0  0  0  0  0  0  0  0  0
   -2.9272  -78.7119 -143.9379 O   0  0  0  0  0  0  0  0  0  0  0  0
   -2.0376  -79.6142 -146.0773 C   0  0  0  0  0  0  0  0  0  0  0  0
   -3.2934  -79.1555 -146.5909 O   0  0  0  0  0  0  0  0  0  0  0  0
   -0.7679  -78.8684 -146.5970 C   0  0  0  0  0  0  0  0  0  0  0  0
   -2.8668  -77.8130 -144.2973 H   0  0  0  0  0  0  0  0  0  0  0  0
   -3.4242  -78.2268 -146.3435 H   0  0  0  0  0  0  0  0  0  0  0  0
    0.0675  -80.3299 -142.6081 O   0  0  0  0  0  0  0  0  0  0  0  0
    0.5362  -79.7830 -143.8262 C   0  0  0  0  0  0  0  0  0  0  0  0
    0.7222  -80.9565 -142.2620 H   0  0  0  0  0  0  0  0  0  0  0  0
 24 25  1  0  0  0
 25 15  1  0  0  0
 15 16  1  0  0  0
 15 17  1  0  0  0
 16 21  1  0  0  0
 17 18  1  0  0  0
 17 19  1  0  0  0
 19 20  1  0  0  0
 19 21  1  0  0  0
 21  1  1  0  0  0
  1  2  1  0  0  0
  1 11  1  0  0  0
  2  3  2  0  0  0
  3  4  1  0  0  0
  4  5  1  0  0  0
  4 11  2  0  0  0
  5  6  2  0  0  0
  5  7  1  0  0  0
  7  8  1  0  0  0
  8  9  1  0  0  0
  8 10  2  0  0  0
 10 11  1  0  0  0
 24 26  1  0  0  0
 18 22  1  0  0  0
 20 23  1  0  0  0
  7 12  1  0  0  0
  9 13  1  0  0  0
  9 14  1  0  0  0
M  END
> <minimizedAffinity>
-7.15664

$$$$
1ODJ_GMP_A_1237


 26 28  0  0  0  0  0  0  0  0999 V2000
    0.2305  -79.5668 -146.0627 N   0  0  0  0  0  0  0  0  0  0  0  0
    0.4343  -78.7181 -144.9975 C   0  0  0  0  0  0  0  0  0  0  0  0
   -0.5131  -77.8389 -144.8469 N   0  0  0  0  0  0  0  0  0  0  0  0
   -1.4119  -78.1079 -145.8728 C   0  0  0  0  0  0  0  0  0  0  0  0
   -2.6439  -77.4640 -146.2091 C   0  0  0  0  0  0  0  0  0  0  0  0
   -3.1934  -76.5008 -145.6504 O   0  0  0  0  0  0  0  0  0  0  0  0
   -3.2401  -78.0461 -147.3199 N   0  0  0  0  0  0  0  0  0  0  0  0
   -2.7332  -79.1083 -148.0174 C   0  0  0  0  0  0  0  0  0  0  0  0
   -3.4708  -79.5138 -149.0642 N   0  0  0  0  0  0  0  0  0  0  0  0
   -1.5853  -79.7253 -147.7188 N   0  0  0  0  0  0  0  0  0  0  0  0
   -0.9797  -79.1745 -146.6383 C   0  0  0  0  0  0  0  0  0  0  0  0
   -4.0935  -77.6650 -147.6294 H   0  0  0  0  0  0  0  0  0  0  0  0
   -4.3151  -79.0551 -149.2786 H   0  0  0  0  0  0  0  0  0  0  0  0
   -3.1671  -80.2697 -149.6170 H   0  0  0  0  0  0  0  0  0  0  0  0
    3.1541  -79.7388 -147.3346 C   0  0  0  0  0  0  0  0  0  0  0  0
    2.5520  -80.3598 -146.1411 O   0  0  0  0  0  0  0  0  0  0  0  0
    2.4967  -80.4761 -148.4943 C   0  0  0  0  0  0  0  0  0  0  0  0
    3.4445  -81.5132 -148.8771 O   0  0  0  0  0  0  0  0  0  0  0  0
    1.1772  -81.0785 -147.9535 C   0  0  0  0  0  0  0  0  0  0  0  0
    0.9890  -82.4715 -148.2278 O   0  0  0  0  0  0  0  0  0  0  0  0
    1.1779  -80.6677 -146.4470 C   0  0  0  0  0  0  0  0  0  0  0  0
    3.6472  -82.0664 -148.1065 H   0  0  0  0  0  0  0  0  0  0  0  0
    1.7098  -82.9807 -147.8251 H   0  0  0  0  0  0  0  0  0  0  0  0
    4.1390  -77.7999 -148.1309 O   0  0  0  0  0  0  0  0  0  0  0  0
    2.9878  -78.2216 -147.4242 C   0  0  0  0  0  0  0  0  0  0  0  0
    4.1186  -76.8359 -148.2364 H   0  0  0  0  0  0  0  0  0  0  0  0
 24 25  1  0  0  0
 25 15  1  0  0  0
 15 16  1  0  0  0
 15 17  1  0  0  0
 16 21  1  0  0  0
 17 18  1  0  0  0
 17 19  1  0  0  0
 19 20  1  0  0  0
 19 21  1  0  0  0
 21  1  1  0  0  0
  1  2  1  0  0  0
  1 11  1  0  0  0
  2  3  2  0  0  0
  3  4  1  0  0  0
  4  5  1  0  0  0
  4 11  2  0  0  0
  5  6  2  0  0  0
  5  7  1  0  0  0
  7  8  1  0  0  0
  8  9  1  0  0  0
  8 10  2  0  0  0
 10 11  1  0  0  0
 24 26  1  0  0  0
 18 22  1  0  0  0
 20 23  1  0  0  0
  7 12  1  0  0  0
  9 13  1  0  0  0
  9 14  1  0  0  0
M  END
> <minimizedAffinity>
-7.13433

$$$$
1ODJ_GMP_A_1237


 26 28  0  0  0  0  0  0  0  0999 V2000
    2.2262  -80.0593 -145.2102 N   0  0  0  0  0  0  0  0  0  0  0  0
    3.0528  -81.1502 -145.0583 C   0  0  0  0  0  0  0  0  0  0  0  0
    2.6995  -81.9362 -144.0833 N   0  0  0  0  0  0  0  0  0  0  0  0
    1.5662  -81.3407 -143.5417 C   0  0  0  0  0  0  0  0  0  0  0  0
    0.7446  -81.7530 -142.4459 C   0  0  0  0  0  0  0  0  0  0  0  0
    0.8657  -82.7522 -141.7187 O   0  0  0  0  0  0  0  0  0  0  0  0
   -0.2999  -80.8651 -142.2257 N   0  0  0  0  0  0  0  0  0  0  0  0
   -0.5369  -79.7337 -142.9577 C   0  0  0  0  0  0  0  0  0  0  0  0
   -1.6029  -79.0126 -142.5733 N   0  0  0  0  0  0  0  0  0  0  0  0
    0.2170  -79.3316 -143.9861 N   0  0  0  0  0  0  0  0  0  0  0  0
    1.2476  -80.1802 -144.2215 C   0  0  0  0  0  0  0  0  0  0  0  0
   -0.9178  -81.0650 -141.4857 H   0  0  0  0  0  0  0  0  0  0  0  0
   -2.1538  -79.3143 -141.8152 H   0  0  0  0  0  0  0  0  0  0  0  0
   -1.8332  -78.1824 -143.0496 H   0  0  0  0  0  0  0  0  0  0  0  0
    0.9600  -79.4114 -148.0689 C   0  0  0  0  0  0  0  0  0  0  0  0
    1.1825  -78.5830 -146.8702 O   0  0  0  0  0  0  0  0  0  0  0  0
    2.3622  -79.6224 -148.6258 C   0  0  0  0  0  0  0  0  0  0  0  0
    2.5168  -78.6179 -149.6686 O   0  0  0  0  0  0  0  0  0  0  0  0
    3.3496  -79.3897 -147.4566 C   0  0  0  0  0  0  0  0  0  0  0  0
    4.4216  -78.4828 -147.7392 O   0  0  0  0  0  0  0  0  0  0  0  0
    2.4193  -79.0049 -146.2630 C   0  0  0  0  0  0  0  0  0  0  0  0
    2.3560  -77.7371 -149.2955 H   0  0  0  0  0  0  0  0  0  0  0  0
    4.0575  -77.6137 -147.9696 H   0  0  0  0  0  0  0  0  0  0  0  0
   -1.1340  -80.3239 -147.6865 O   0  0  0  0  0  0  0  0  0  0  0  0
    0.2173  -80.7237 -147.8159 C   0  0  0  0  0  0  0  0  0  0  0  0
   -1.6874  -81.1032 -147.5215 H   0  0  0  0  0  0  0  0  0  0  0  0
 24 25  1  0  0  0
 25 15  1  0  0  0
 15 16  1  0  0  0
 15 17  1  0  0  0
 16 21  1  0  0  0
 17 18  1  0  0  0
 17 19  1  0  0  0
 19 20  1  0  0  0
 19 21  1  0  0  0
 21  1  1  0  0  0
  1  2  1  0  0  0
  1 11  1  0  0  0
  2  3  2  0  0  0
  3  4  1  0  0  0
  4  5  1  0  0  0
  4 11  2  0  0  0
  5  6  2  0  0  0
  5  7  1  0  0  0
  7  8  1  0  0  0
  8  9  1  0  0  0
  8 10  2  0  0  0
 10 11  1  0  0  0
 24 26  1  0  0  0
 18 22  1  0  0  0
 20 23  1  0  0  0
  7 12  1  0  0  0
  9 13  1  0  0  0
  9 14  1  0  0  0
M  END
> <minimizedAffinity>
-7.08685

$$$$
1ODJ_GMP_A_1237


 26 28  0  0  0  0  0  0  0  0999 V2000
    2.2716  -80.2091 -147.0731 N   0  0  0  0  0  0  0  0  0  0  0  0
    2.6540  -81.3172 -147.7957 C   0  0  0  0  0  0  0  0  0  0  0  0
    3.1029  -81.0318 -148.9832 N   0  0  0  0  0  0  0  0  0  0  0  0
    3.0179  -79.6470 -149.0703 C   0  0  0  0  0  0  0  0  0  0  0  0
    3.3682  -78.7693 -150.1438 C   0  0  0  0  0  0  0  0  0  0  0  0
    3.8319  -79.0553 -151.2596 O   0  0  0  0  0  0  0  0  0  0  0  0
    3.1231  -77.4412 -149.8211 N   0  0  0  0  0  0  0  0  0  0  0  0
    2.6162  -77.0032 -148.6282 C   0  0  0  0  0  0  0  0  0  0  0  0
    2.4544  -75.6738 -148.5253 N   0  0  0  0  0  0  0  0  0  0  0  0
    2.2843  -77.8061 -147.6118 N   0  0  0  0  0  0  0  0  0  0  0  0
    2.5110  -79.1108 -147.9015 C   0  0  0  0  0  0  0  0  0  0  0  0
    3.3301  -76.7623 -150.5034 H   0  0  0  0  0  0  0  0  0  0  0  0
    2.7008  -75.0883 -149.2774 H   0  0  0  0  0  0  0  0  0  0  0  0
    2.0894  -75.2850 -147.6977 H   0  0  0  0  0  0  0  0  0  0  0  0
   -0.5583  -79.6708 -145.6957 C   0  0  0  0  0  0  0  0  0  0  0  0
    0.3827  -80.8030 -145.6226 O   0  0  0  0  0  0  0  0  0  0  0  0
    0.1448  -78.5677 -144.9149 C   0  0  0  0  0  0  0  0  0  0  0  0
   -0.4280  -78.6187 -143.5770 O   0  0  0  0  0  0  0  0  0  0  0  0
    1.6531  -78.9157 -144.9048 C   0  0  0  0  0  0  0  0  0  0  0  0
    2.2725  -78.8927 -143.6136 O   0  0  0  0  0  0  0  0  0  0  0  0
    1.7210  -80.2715 -145.6766 C   0  0  0  0  0  0  0  0  0  0  0  0
   -0.3163  -79.5101 -143.2112 H   0  0  0  0  0  0  0  0  0  0  0  0
    1.8370  -79.5376 -143.0346 H   0  0  0  0  0  0  0  0  0  0  0  0
   -0.8297  -77.8334 -147.0791 O   0  0  0  0  0  0  0  0  0  0  0  0
   -0.9429  -79.2436 -147.1124 C   0  0  0  0  0  0  0  0  0  0  0  0
   -1.0584  -77.4700 -147.9489 H   0  0  0  0  0  0  0  0  0  0  0  0
 24 25  1  0  0  0
 25 15  1  0  0  0
 15 16  1  0  0  0
 15 17  1  0  0  0
 16 21  1  0  0  0
 17 18  1  0  0  0
 17 19  1  0  0  0
 19 20  1  0  0  0
 19 21  1  0  0  0
 21  1  1  0  0  0
  1  2  1  0  0  0
  1 11  1  0  0  0
  2  3  2  0  0  0
  3  4  1  0  0  0
  4  5  1  0  0  0
  4 11  2  0  0  0
  5  6  2  0  0  0
  5  7  1  0  0  0
  7  8  1  0  0  0
  8  9  1  0  0  0
  8 10  2  0  0  0
 10 11  1  0  0  0
 24 26  1  0  0  0
 18 22  1  0  0  0
 20 23  1  0  0  0
  7 12  1  0  0  0
  9 13  1  0  0  0
  9 14  1  0  0  0
M  END
> <minimizedAffinity>
-6.74731

$$$$
1ODJ_GMP_A_1237


 26 28  0  0  0  0  0  0  0  0999 V2000
    1.6618  -79.1211 -146.8703 N   0  0  0  0  0  0  0  0  0  0  0  0
    1.5228  -80.3848 -147.3996 C   0  0  0  0  0  0  0  0  0  0  0  0
    2.0132  -80.5009 -148.5993 N   0  0  0  0  0  0  0  0  0  0  0  0
    2.5132  -79.2393 -148.9008 C   0  0  0  0  0  0  0  0  0  0  0  0
    3.1657  -78.7664 -150.0824 C   0  0  0  0  0  0  0  0  0  0  0  0
    3.4325  -79.3891 -151.1231 O   0  0  0  0  0  0  0  0  0  0  0  0
    3.5092  -77.4252 -149.9766 N   0  0  0  0  0  0  0  0  0  0  0  0
    3.2691  -76.6365 -148.8847 C   0  0  0  0  0  0  0  0  0  0  0  0
    3.6820  -75.3630 -148.9930 N   0  0  0  0  0  0  0  0  0  0  0  0
    2.6629  -77.0589 -147.7704 N   0  0  0  0  0  0  0  0  0  0  0  0
    2.3135  -78.3665 -147.8479 C   0  0  0  0  0  0  0  0  0  0  0  0
    3.9603  -77.0097 -150.7467 H   0  0  0  0  0  0  0  0  0  0  0  0
    4.1277  -75.0583 -149.8163 H   0  0  0  0  0  0  0  0  0  0  0  0
    3.5389  -74.7342 -148.2492 H   0  0  0  0  0  0  0  0  0  0  0  0
    1.8444  -80.3579 -143.9322 C   0  0  0  0  0  0  0  0  0  0  0  0
    2.1375  -79.0150 -144.4647 O   0  0  0  0  0  0  0  0  0  0  0  0
    0.3240  -80.4405 -143.9816 C   0  0  0  0  0  0  0  0  0  0  0  0
   -0.1234  -80.0963 -142.6393 O   0  0  0  0  0  0  0  0  0  0  0  0
   -0.1488  -79.4008 -145.0263 C   0  0  0  0  0  0  0  0  0  0  0  0
   -1.1780  -78.5126 -144.5755 O   0  0  0  0  0  0  0  0  0  0  0  0
    1.1788  -78.7305 -145.5023 C   0  0  0  0  0  0  0  0  0  0  0  0
    0.2286  -79.2262 -142.3944 H   0  0  0  0  0  0  0  0  0  0  0  0
   -0.8583  -78.0090 -143.8106 H   0  0  0  0  0  0  0  0  0  0  0  0
    2.6883  -82.4995 -143.6778 O   0  0  0  0  0  0  0  0  0  0  0  0
    2.5265  -81.5076 -144.6741 C   0  0  0  0  0  0  0  0  0  0  0  0
    3.1197  -83.2779 -144.0636 H   0  0  0  0  0  0  0  0  0  0  0  0
 24 25  1  0  0  0
 25 15  1  0  0  0
 15 16  1  0  0  0
 15 17  1  0  0  0
 16 21  1  0  0  0
 17 18  1  0  0  0
 17 19  1  0  0  0
 19 20  1  0  0  0
 19 21  1  0  0  0
 21  1  1  0  0  0
  1  2  1  0  0  0
  1 11  1  0  0  0
  2  3  2  0  0  0
  3  4  1  0  0  0
  4  5  1  0  0  0
  4 11  2  0  0  0
  5  6  2  0  0  0
  5  7  1  0  0  0
  7  8  1  0  0  0
  8  9  1  0  0  0
  8 10  2  0  0  0
 10 11  1  0  0  0
 24 26  1  0  0  0
 18 22  1  0  0  0
 20 23  1  0  0  0
  7 12  1  0  0  0
  9 13  1  0  0  0
  9 14  1  0  0  0
M  END
> <minimizedAffinity>
-6.58036

$$$$
