6B1K_C9G_A_201


 25 28  0  0  0  0  0  0  0  0999 V2000
  -19.3076  -14.9355   16.4858 N   0  0  0  0  0  0  0  0  0  0  0  0
  -18.5904  -16.7559   17.4065 C   0  0  0  0  0  0  0  0  0  0  0  0
  -18.6697  -15.4003   17.5820 C   0  0  0  0  0  0  0  0  0  0  0  0
  -19.6258  -15.9593   15.6529 N   0  0  0  0  0  0  0  0  0  0  0  0
  -19.1764  -17.0597   16.2096 N   0  0  0  0  0  0  0  0  0  0  0  0
  -16.7896  -18.4827   20.1958 C   0  0  0  0  0  0  0  0  0  0  0  0
  -17.3216  -17.4538   19.4399 C   0  0  0  0  0  0  0  0  0  0  0  0
  -18.0305  -17.7855   18.2901 C   0  0  0  0  0  0  0  0  0  0  0  0
  -17.7014  -20.0465   18.6405 C   0  0  0  0  0  0  0  0  0  0  0  0
  -18.2258  -19.0537   17.8966 N   0  0  0  0  0  0  0  0  0  0  0  0
  -17.3742  -22.4245   18.9288 N   0  0  0  0  0  0  0  0  0  0  0  0
  -17.5666  -23.8017   18.4785 C   0  0  0  0  0  0  0  0  0  0  0  0
  -16.6546  -22.1749   20.0733 C   0  0  0  0  0  0  0  0  0  0  0  0
  -17.9417  -21.4126   18.1518 C   0  0  0  0  0  0  0  0  0  0  0  0
  -16.4389  -20.9434   20.5242 C   0  0  0  0  0  0  0  0  0  0  0  0
  -16.9643  -19.8148   19.8097 C   0  0  0  0  0  0  0  0  0  0  0  0
  -18.6058  -21.6940   17.1715 O   0  0  0  0  0  0  0  0  0  0  0  0
  -19.6606  -13.5974   16.1472 C   0  0  0  0  0  0  0  0  0  0  0  0
  -19.7407  -12.6285   17.1350 C   0  0  0  0  0  0  0  0  0  0  0  0
  -20.1305  -11.3406   16.8078 C   0  0  0  0  0  0  0  0  0  0  0  0
  -20.4509  -11.0257   15.4937 C   0  0  0  0  0  0  0  0  0  0  0  0
  -20.3631  -11.9960   14.5060 C   0  0  0  0  0  0  0  0  0  0  0  0
  -19.9593  -13.2752   14.8319 C   0  0  0  0  0  0  0  0  0  0  0  0
  -20.8471   -9.7746   15.1404 O   0  0  0  0  0  0  0  0  0  0  0  0
  -20.9137   -9.1031   15.7905 H   0  0  0  0  0  0  0  0  0  0  0  0
 12 11  1  0  0  0
 13 11  1  0  0  0
 13 15  2  0  0  0
 11 14  1  0  0  0
 15 16  1  0  0  0
 14 17  2  0  0  0
 14  9  1  0  0  0
 16  9  2  0  0  0
 16  6  1  0  0  0
  9 10  1  0  0  0
  6  7  2  0  0  0
 10  8  2  0  0  0
  7  8  1  0  0  0
  8  2  1  0  0  0
  5  2  1  0  0  0
  5  4  2  0  0  0
  2  3  2  0  0  0
  4  1  1  0  0  0
  3  1  1  0  0  0
  1 18  1  0  0  0
 19 18  2  0  0  0
 19 20  1  0  0  0
 18 23  1  0  0  0
 20 21  2  0  0  0
 23 22  2  0  0  0
 21 22  1  0  0  0
 21 24  1  0  0  0
 24 25  1  0  0  0
M  END
> <minimizedAffinity>
-11.33370

$$$$
6B1K_C9G_A_201


 25 28  0  0  0  0  0  0  0  0999 V2000
  -19.2894  -14.7513   16.4160 N   0  0  0  0  0  0  0  0  0  0  0  0
  -18.4610  -16.5460   17.2928 C   0  0  0  0  0  0  0  0  0  0  0  0
  -18.5381  -15.1880   17.4501 C   0  0  0  0  0  0  0  0  0  0  0  0
  -19.6783  -15.7945   15.6390 N   0  0  0  0  0  0  0  0  0  0  0  0
  -19.1617  -16.8792   16.1675 N   0  0  0  0  0  0  0  0  0  0  0  0
  -17.7184  -18.9964   20.0221 C   0  0  0  0  0  0  0  0  0  0  0  0
  -18.4240  -18.0843   19.2584 C   0  0  0  0  0  0  0  0  0  0  0  0
  -17.8021  -17.5524   18.1339 C   0  0  0  0  0  0  0  0  0  0  0  0
  -15.8828  -18.7839   18.5117 C   0  0  0  0  0  0  0  0  0  0  0  0
  -16.5600  -17.8958   17.7589 N   0  0  0  0  0  0  0  0  0  0  0  0
  -13.8346  -20.0205   18.8592 N   0  0  0  0  0  0  0  0  0  0  0  0
  -12.4719  -20.3680   18.4607 C   0  0  0  0  0  0  0  0  0  0  0  0
  -14.3796  -20.5829   19.9891 C   0  0  0  0  0  0  0  0  0  0  0  0
  -14.5240  -19.1116   18.0541 C   0  0  0  0  0  0  0  0  0  0  0  0
  -15.6089  -20.2962   20.4050 C   0  0  0  0  0  0  0  0  0  0  0  0
  -16.4185  -19.3687   19.6671 C   0  0  0  0  0  0  0  0  0  0  0  0
  -14.0078  -18.6782   17.0408 O   0  0  0  0  0  0  0  0  0  0  0  0
  -19.6908  -13.4238   16.0902 C   0  0  0  0  0  0  0  0  0  0  0  0
  -19.9028  -12.4949   17.0967 C   0  0  0  0  0  0  0  0  0  0  0  0
  -20.3389  -11.2198   16.7778 C   0  0  0  0  0  0  0  0  0  0  0  0
  -20.5733  -10.8783   15.4522 C   0  0  0  0  0  0  0  0  0  0  0  0
  -20.3535  -11.8081   14.4464 C   0  0  0  0  0  0  0  0  0  0  0  0
  -19.9039  -13.0737   14.7653 C   0  0  0  0  0  0  0  0  0  0  0  0
  -21.0116   -9.6393   15.1057 O   0  0  0  0  0  0  0  0  0  0  0  0
  -21.1669   -8.9951   15.7681 H   0  0  0  0  0  0  0  0  0  0  0  0
 12 11  1  0  0  0
 13 11  1  0  0  0
 13 15  2  0  0  0
 11 14  1  0  0  0
 15 16  1  0  0  0
 14 17  2  0  0  0
 14  9  1  0  0  0
 16  9  2  0  0  0
 16  6  1  0  0  0
  9 10  1  0  0  0
  6  7  2  0  0  0
 10  8  2  0  0  0
  7  8  1  0  0  0
  8  2  1  0  0  0
  5  2  1  0  0  0
  5  4  2  0  0  0
  2  3  2  0  0  0
  4  1  1  0  0  0
  3  1  1  0  0  0
  1 18  1  0  0  0
 19 18  2  0  0  0
 19 20  1  0  0  0
 18 23  1  0  0  0
 20 21  2  0  0  0
 23 22  2  0  0  0
 21 22  1  0  0  0
 21 24  1  0  0  0
 24 25  1  0  0  0
M  END
> <minimizedAffinity>
-10.69858

$$$$
6B1K_C9G_A_201


 25 28  0  0  0  0  0  0  0  0999 V2000
  -18.8988  -14.7359   17.3228 N   0  0  0  0  0  0  0  0  0  0  0  0
  -17.9769  -16.5749   17.9892 C   0  0  0  0  0  0  0  0  0  0  0  0
  -18.1474  -15.7727   16.8928 C   0  0  0  0  0  0  0  0  0  0  0  0
  -19.1859  -14.8740   18.6425 N   0  0  0  0  0  0  0  0  0  0  0  0
  -18.6360  -15.9981   19.0385 N   0  0  0  0  0  0  0  0  0  0  0  0
  -15.9468  -19.3907   19.3874 C   0  0  0  0  0  0  0  0  0  0  0  0
  -16.6826  -18.2202   19.3491 C   0  0  0  0  0  0  0  0  0  0  0  0
  -17.2207  -17.8251   18.1290 C   0  0  0  0  0  0  0  0  0  0  0  0
  -16.3445  -19.6728   17.0512 C   0  0  0  0  0  0  0  0  0  0  0  0
  -17.0644  -18.5355   17.0011 N   0  0  0  0  0  0  0  0  0  0  0  0
  -15.4370  -21.5665   15.8532 N   0  0  0  0  0  0  0  0  0  0  0  0
  -15.2470  -22.3198   14.6151 C   0  0  0  0  0  0  0  0  0  0  0  0
  -14.8672  -22.0170   17.0204 C   0  0  0  0  0  0  0  0  0  0  0  0
  -16.2015  -20.4004   15.7811 C   0  0  0  0  0  0  0  0  0  0  0  0
  -14.9975  -21.3680   18.1729 C   0  0  0  0  0  0  0  0  0  0  0  0
  -15.7546  -20.1499   18.2295 C   0  0  0  0  0  0  0  0  0  0  0  0
  -16.7184  -20.0720   14.7293 O   0  0  0  0  0  0  0  0  0  0  0  0
  -19.3716  -13.6035   16.5991 C   0  0  0  0  0  0  0  0  0  0  0  0
  -19.6514  -12.4204   17.2647 C   0  0  0  0  0  0  0  0  0  0  0  0
  -20.1559  -11.3376   16.5642 C   0  0  0  0  0  0  0  0  0  0  0  0
  -20.3908  -11.4430   15.1995 C   0  0  0  0  0  0  0  0  0  0  0  0
  -20.1033  -12.6262   14.5348 C   0  0  0  0  0  0  0  0  0  0  0  0
  -19.5858  -13.6993   15.2323 C   0  0  0  0  0  0  0  0  0  0  0  0
  -20.8951  -10.4032   14.4841 O   0  0  0  0  0  0  0  0  0  0  0  0
  -21.0968   -9.5943   14.9119 H   0  0  0  0  0  0  0  0  0  0  0  0
 12 11  1  0  0  0
 13 11  1  0  0  0
 13 15  2  0  0  0
 11 14  1  0  0  0
 15 16  1  0  0  0
 14 17  2  0  0  0
 14  9  1  0  0  0
 16  9  2  0  0  0
 16  6  1  0  0  0
  9 10  1  0  0  0
  6  7  2  0  0  0
 10  8  2  0  0  0
  7  8  1  0  0  0
  8  2  1  0  0  0
  5  2  1  0  0  0
  5  4  2  0  0  0
  2  3  2  0  0  0
  4  1  1  0  0  0
  3  1  1  0  0  0
  1 18  1  0  0  0
 19 18  2  0  0  0
 19 20  1  0  0  0
 18 23  1  0  0  0
 20 21  2  0  0  0
 23 22  2  0  0  0
 21 22  1  0  0  0
 21 24  1  0  0  0
 24 25  1  0  0  0
M  END
> <minimizedAffinity>
-9.65886

$$$$
6B1K_C9G_A_201


 25 28  0  0  0  0  0  0  0  0999 V2000
  -19.1452  -14.8333   16.2119 N   0  0  0  0  0  0  0  0  0  0  0  0
  -17.9904  -16.5782   16.7575 C   0  0  0  0  0  0  0  0  0  0  0  0
  -17.9559  -15.2097   16.7300 C   0  0  0  0  0  0  0  0  0  0  0  0
  -19.9052  -15.9224   15.9298 N   0  0  0  0  0  0  0  0  0  0  0  0
  -19.1947  -16.9785   16.2498 N   0  0  0  0  0  0  0  0  0  0  0  0
  -14.9526  -18.7445   17.0473 C   0  0  0  0  0  0  0  0  0  0  0  0
  -15.8248  -17.8001   16.5370 C   0  0  0  0  0  0  0  0  0  0  0  0
  -16.9894  -17.5326   17.2488 C   0  0  0  0  0  0  0  0  0  0  0  0
  -16.4335  -19.0602   18.8921 C   0  0  0  0  0  0  0  0  0  0  0  0
  -17.2902  -18.1414   18.4064 N   0  0  0  0  0  0  0  0  0  0  0  0
  -15.9299  -20.6598   20.6336 N   0  0  0  0  0  0  0  0  0  0  0  0
  -16.2781  -21.3394   21.8799 C   0  0  0  0  0  0  0  0  0  0  0  0
  -14.7632  -20.9837   19.9826 C   0  0  0  0  0  0  0  0  0  0  0  0
  -16.8241  -19.6985   20.1582 C   0  0  0  0  0  0  0  0  0  0  0  0
  -14.4009  -20.4066   18.8415 C   0  0  0  0  0  0  0  0  0  0  0  0
  -15.2395  -19.4061   18.2449 C   0  0  0  0  0  0  0  0  0  0  0  0
  -17.8211  -19.4210   20.7986 O   0  0  0  0  0  0  0  0  0  0  0  0
  -19.6463  -13.5232   15.9625 C   0  0  0  0  0  0  0  0  0  0  0  0
  -19.9149  -13.1171   14.6649 C   0  0  0  0  0  0  0  0  0  0  0  0
  -20.3565  -11.8270   14.4233 C   0  0  0  0  0  0  0  0  0  0  0  0
  -20.5183  -10.9401   15.4798 C   0  0  0  0  0  0  0  0  0  0  0  0
  -20.2552  -11.3517   16.7782 C   0  0  0  0  0  0  0  0  0  0  0  0
  -19.8300  -12.6429   17.0182 C   0  0  0  0  0  0  0  0  0  0  0  0
  -20.9397   -9.6641   15.2766 O   0  0  0  0  0  0  0  0  0  0  0  0
  -21.1234   -9.3641   14.4082 H   0  0  0  0  0  0  0  0  0  0  0  0
 12 11  1  0  0  0
 13 11  1  0  0  0
 13 15  2  0  0  0
 11 14  1  0  0  0
 15 16  1  0  0  0
 14 17  2  0  0  0
 14  9  1  0  0  0
 16  9  2  0  0  0
 16  6  1  0  0  0
  9 10  1  0  0  0
  6  7  2  0  0  0
 10  8  2  0  0  0
  7  8  1  0  0  0
  8  2  1  0  0  0
  5  2  1  0  0  0
  5  4  2  0  0  0
  2  3  2  0  0  0
  4  1  1  0  0  0
  3  1  1  0  0  0
  1 18  1  0  0  0
 19 18  2  0  0  0
 19 20  1  0  0  0
 18 23  1  0  0  0
 20 21  2  0  0  0
 23 22  2  0  0  0
 21 22  1  0  0  0
 21 24  1  0  0  0
 24 25  1  0  0  0
M  END
> <minimizedAffinity>
-9.56529

$$$$
6B1K_C9G_A_201


 25 28  0  0  0  0  0  0  0  0999 V2000
  -18.8194  -15.0162   17.2085 N   0  0  0  0  0  0  0  0  0  0  0  0
  -17.8228  -16.8798   17.6666 C   0  0  0  0  0  0  0  0  0  0  0  0
  -18.1029  -16.0128   16.6445 C   0  0  0  0  0  0  0  0  0  0  0  0
  -18.9796  -15.2414   18.5377 N   0  0  0  0  0  0  0  0  0  0  0  0
  -18.3850  -16.3799   18.8077 N   0  0  0  0  0  0  0  0  0  0  0  0
  -15.0032  -19.3360   17.5190 C   0  0  0  0  0  0  0  0  0  0  0  0
  -15.6578  -18.1186   17.5677 C   0  0  0  0  0  0  0  0  0  0  0  0
  -17.0459  -18.1251   17.6546 C   0  0  0  0  0  0  0  0  0  0  0  0
  -17.1171  -20.4355   17.6546 C   0  0  0  0  0  0  0  0  0  0  0  0
  -17.7662  -19.2564   17.7043 N   0  0  0  0  0  0  0  0  0  0  0  0
  -17.2696  -22.8482   17.6325 N   0  0  0  0  0  0  0  0  0  0  0  0
  -18.0626  -24.0758   17.6582 C   0  0  0  0  0  0  0  0  0  0  0  0
  -15.9001  -22.9223   17.5380 C   0  0  0  0  0  0  0  0  0  0  0  0
  -17.9625  -21.6380   17.7031 C   0  0  0  0  0  0  0  0  0  0  0  0
  -15.1296  -21.8400   17.4999 C   0  0  0  0  0  0  0  0  0  0  0  0
  -15.7225  -20.5341   17.5575 C   0  0  0  0  0  0  0  0  0  0  0  0
  -19.1729  -21.6328   17.8295 O   0  0  0  0  0  0  0  0  0  0  0  0
  -19.3683  -13.8476   16.6063 C   0  0  0  0  0  0  0  0  0  0  0  0
  -19.7081  -13.8521   15.2627 C   0  0  0  0  0  0  0  0  0  0  0  0
  -20.1966  -12.6994   14.6709 C   0  0  0  0  0  0  0  0  0  0  0  0
  -20.3343  -11.5392   15.4217 C   0  0  0  0  0  0  0  0  0  0  0  0
  -19.9999  -11.5396   16.7680 C   0  0  0  0  0  0  0  0  0  0  0  0
  -19.5277  -12.6942   17.3596 C   0  0  0  0  0  0  0  0  0  0  0  0
  -20.8006  -10.3881   14.8696 O   0  0  0  0  0  0  0  0  0  0  0  0
  -21.0328  -10.3642   13.9621 H   0  0  0  0  0  0  0  0  0  0  0  0
 12 11  1  0  0  0
 13 11  1  0  0  0
 13 15  2  0  0  0
 11 14  1  0  0  0
 15 16  1  0  0  0
 14 17  2  0  0  0
 14  9  1  0  0  0
 16  9  2  0  0  0
 16  6  1  0  0  0
  9 10  1  0  0  0
  6  7  2  0  0  0
 10  8  2  0  0  0
  7  8  1  0  0  0
  8  2  1  0  0  0
  5  2  1  0  0  0
  5  4  2  0  0  0
  2  3  2  0  0  0
  4  1  1  0  0  0
  3  1  1  0  0  0
  1 18  1  0  0  0
 19 18  2  0  0  0
 19 20  1  0  0  0
 18 23  1  0  0  0
 20 21  2  0  0  0
 23 22  2  0  0  0
 21 22  1  0  0  0
 21 24  1  0  0  0
 24 25  1  0  0  0
M  END
> <minimizedAffinity>
-9.09685

$$$$
6B1K_C9G_A_201


 25 28  0  0  0  0  0  0  0  0999 V2000
  -18.5318  -16.0846   17.1756 N   0  0  0  0  0  0  0  0  0  0  0  0
  -17.6724  -17.7636   18.2331 C   0  0  0  0  0  0  0  0  0  0  0  0
  -18.0822  -16.4667   18.3907 C   0  0  0  0  0  0  0  0  0  0  0  0
  -18.4172  -17.1036   16.2859 N   0  0  0  0  0  0  0  0  0  0  0  0
  -17.8826  -18.1152   16.9291 N   0  0  0  0  0  0  0  0  0  0  0  0
  -17.2066  -20.7061   20.4979 C   0  0  0  0  0  0  0  0  0  0  0  0
  -17.7656  -19.8977   19.5248 C   0  0  0  0  0  0  0  0  0  0  0  0
  -17.1246  -18.7014   19.2204 C   0  0  0  0  0  0  0  0  0  0  0  0
  -15.4560  -19.1067   20.7678 C   0  0  0  0  0  0  0  0  0  0  0  0
  -15.9895  -18.3113   19.8208 N   0  0  0  0  0  0  0  0  0  0  0  0
  -13.6927  -19.4513   22.3855 N   0  0  0  0  0  0  0  0  0  0  0  0
  -12.4721  -19.0063   23.0552 C   0  0  0  0  0  0  0  0  0  0  0  0
  -14.2730  -20.6442   22.7464 C   0  0  0  0  0  0  0  0  0  0  0  0
  -14.2181  -18.6194   21.3948 C   0  0  0  0  0  0  0  0  0  0  0  0
  -15.3880  -21.0937   22.1798 C   0  0  0  0  0  0  0  0  0  0  0  0
  -16.0309  -20.3258   21.1515 C   0  0  0  0  0  0  0  0  0  0  0  0
  -13.6383  -17.5949   21.0858 O   0  0  0  0  0  0  0  0  0  0  0  0
  -19.0773  -14.8331   16.7685 C   0  0  0  0  0  0  0  0  0  0  0  0
  -19.8222  -14.7456   15.6030 C   0  0  0  0  0  0  0  0  0  0  0  0
  -20.3100  -13.5182   15.1866 C   0  0  0  0  0  0  0  0  0  0  0  0
  -20.0426  -12.3769   15.9313 C   0  0  0  0  0  0  0  0  0  0  0  0
  -19.3027  -12.4687   17.1012 C   0  0  0  0  0  0  0  0  0  0  0  0
  -18.8306  -13.6956   17.5225 C   0  0  0  0  0  0  0  0  0  0  0  0
  -20.4972  -11.1555   15.5455 O   0  0  0  0  0  0  0  0  0  0  0  0
  -20.9990  -11.0694   14.7590 H   0  0  0  0  0  0  0  0  0  0  0  0
 12 11  1  0  0  0
 13 11  1  0  0  0
 13 15  2  0  0  0
 11 14  1  0  0  0
 15 16  1  0  0  0
 14 17  2  0  0  0
 14  9  1  0  0  0
 16  9  2  0  0  0
 16  6  1  0  0  0
  9 10  1  0  0  0
  6  7  2  0  0  0
 10  8  2  0  0  0
  7  8  1  0  0  0
  8  2  1  0  0  0
  5  2  1  0  0  0
  5  4  2  0  0  0
  2  3  2  0  0  0
  4  1  1  0  0  0
  3  1  1  0  0  0
  1 18  1  0  0  0
 19 18  2  0  0  0
 19 20  1  0  0  0
 18 23  1  0  0  0
 20 21  2  0  0  0
 23 22  2  0  0  0
 21 22  1  0  0  0
 21 24  1  0  0  0
 24 25  1  0  0  0
M  END
> <minimizedAffinity>
-8.51088

$$$$
