3IPQ_965_A_801


 42 45  0  0  0  0  0  0  0  0999 V2000
   40.4158   14.7932   -6.2523 N   0  0  0  0  0  0  0  0  0  0  0  0
   41.7013   14.4519   -6.8435 C   0  0  0  0  0  0  0  0  0  0  0  0
   42.8519   14.2660   -5.8676 C   0  0  0  0  0  0  0  0  0  0  0  0
   42.9625   15.4026   -4.8737 C   0  0  0  0  0  0  0  0  0  0  0  0
   44.1067   15.2139   -4.0450 O   0  0  0  0  0  0  0  0  0  0  0  0
   47.6396   16.0320   -4.0472 C   0  0  0  0  0  0  0  0  0  0  0  0
   47.6249   17.4233   -3.9805 C   0  0  0  0  0  0  0  0  0  0  0  0
   46.4063   18.0908   -3.9561 C   0  0  0  0  0  0  0  0  0  0  0  0
   45.2065   17.3883   -3.9559 C   0  0  0  0  0  0  0  0  0  0  0  0
   45.2363   15.9780   -4.0405 C   0  0  0  0  0  0  0  0  0  0  0  0
   46.4451   15.3173   -4.0548 C   0  0  0  0  0  0  0  0  0  0  0  0
   48.9492   15.3021   -4.0730 C   0  0  0  0  0  0  0  0  0  0  0  0
   50.4640   16.7331   -2.8254 O   0  0  0  0  0  0  0  0  0  0  0  0
   50.1242   16.2493   -3.9238 C   0  0  0  0  0  0  0  0  0  0  0  0
   50.7222   16.5276   -4.9538 O   0  0  0  0  0  0  0  0  0  0  0  0
   49.9925   16.5070   -2.0479 H   0  0  0  0  0  0  0  0  0  0  0  0
   39.9733   14.1462   -5.0034 C   0  0  0  0  0  0  0  0  0  0  0  0
   38.8893   14.8438   -4.2129 C   0  0  0  0  0  0  0  0  0  0  0  0
   39.2755   15.9035   -3.4120 C   0  0  0  0  0  0  0  0  0  0  0  0
   38.3270   16.5655   -2.6704 C   0  0  0  0  0  0  0  0  0  0  0  0
   36.9992   16.1690   -2.7046 C   0  0  0  0  0  0  0  0  0  0  0  0
   36.5891   15.1101   -3.5091 C   0  0  0  0  0  0  0  0  0  0  0  0
   37.5542   14.4394   -4.2578 C   0  0  0  0  0  0  0  0  0  0  0  0
   37.0715   13.0343   -5.2806 Cl  0  0  0  0  0  0  0  0  0  0  0  0
   35.1273   14.6884   -3.5436 C   0  0  0  0  0  0  0  0  0  0  0  0
   34.4951   15.5141   -2.7224 F   0  0  0  0  0  0  0  0  0  0  0  0
   34.5899   14.7959   -4.7540 F   0  0  0  0  0  0  0  0  0  0  0  0
   34.9771   13.4131   -3.1564 F   0  0  0  0  0  0  0  0  0  0  0  0
   39.5072   15.6367   -7.0512 C   0  0  0  0  0  0  0  0  0  0  0  0
   40.1368   17.0027   -7.4519 C   0  0  0  0  0  0  0  0  0  0  0  0
   40.0100   17.9716   -6.3252 C   0  0  0  0  0  0  0  0  0  0  0  0
   41.1505   18.3390   -5.6304 C   0  0  0  0  0  0  0  0  0  0  0  0
   41.0425   19.2399   -4.5775 C   0  0  0  0  0  0  0  0  0  0  0  0
   39.8155   19.7677   -4.2098 C   0  0  0  0  0  0  0  0  0  0  0  0
   38.6764   19.4092   -4.8993 C   0  0  0  0  0  0  0  0  0  0  0  0
   38.7784   18.5123   -5.9670 C   0  0  0  0  0  0  0  0  0  0  0  0
   39.5328   17.5827   -8.6777 C   0  0  0  0  0  0  0  0  0  0  0  0
   38.2194   17.2357   -8.9842 C   0  0  0  0  0  0  0  0  0  0  0  0
   37.5949   17.7691  -10.0953 C   0  0  0  0  0  0  0  0  0  0  0  0
   38.2831   18.6315  -10.9380 C   0  0  0  0  0  0  0  0  0  0  0  0
   39.5949   18.9676  -10.6496 C   0  0  0  0  0  0  0  0  0  0  0  0
   40.2172   18.4556   -9.5088 C   0  0  0  0  0  0  0  0  0  0  0  0
 13 14  1  0  0  0
 14 15  2  0  0  0
 14 12  1  0  0  0
 12  6  1  0  0  0
  6  7  2  0  0  0
  6 11  1  0  0  0
  7  8  1  0  0  0
  8  9  2  0  0  0
  9 10  1  0  0  0
 10  5  1  0  0  0
 10 11  2  0  0  0
  5  4  1  0  0  0
  4  3  1  0  0  0
  3  2  1  0  0  0
  2  1  1  0  0  0
  1 17  1  0  0  0
  1 29  1  0  0  0
 17 18  1  0  0  0
 18 19  2  0  0  0
 18 23  1  0  0  0
 19 20  1  0  0  0
 20 21  2  0  0  0
 21 22  1  0  0  0
 22 23  2  0  0  0
 22 25  1  0  0  0
 23 24  1  0  0  0
 25 26  1  0  0  0
 25 27  1  0  0  0
 25 28  1  0  0  0
 29 30  1  0  0  0
 30 31  1  0  0  0
 30 37  1  0  0  0
 31 32  2  0  0  0
 31 36  1  0  0  0
 32 33  1  0  0  0
 33 34  2  0  0  0
 34 35  1  0  0  0
 35 36  2  0  0  0
 37 38  1  0  0  0
 37 42  2  0  0  0
 38 39  2  0  0  0
 39 40  1  0  0  0
 40 41  2  0  0  0
 41 42  1  0  0  0
 13 16  1  0  0  0
M  END
> <minimizedAffinity>
-14.00160

$$$$
3IPQ_965_A_801


 42 45  0  0  0  0  0  0  0  0999 V2000
   40.3876   14.8049   -6.0689 N   0  0  0  0  0  0  0  0  0  0  0  0
   41.6175   14.3706   -6.7148 C   0  0  0  0  0  0  0  0  0  0  0  0
   42.8304   14.2344   -5.8086 C   0  0  0  0  0  0  0  0  0  0  0  0
   43.0030   15.4205   -4.8837 C   0  0  0  0  0  0  0  0  0  0  0  0
   44.1448   15.2267   -4.0529 O   0  0  0  0  0  0  0  0  0  0  0  0
   47.6778   16.0442   -4.0255 C   0  0  0  0  0  0  0  0  0  0  0  0
   47.6628   17.4357   -3.9639 C   0  0  0  0  0  0  0  0  0  0  0  0
   46.4442   18.1035   -3.9531 C   0  0  0  0  0  0  0  0  0  0  0  0
   45.2442   17.4012   -3.9614 C   0  0  0  0  0  0  0  0  0  0  0  0
   45.2745   15.9906   -4.0408 C   0  0  0  0  0  0  0  0  0  0  0  0
   46.4833   15.3297   -4.0415 C   0  0  0  0  0  0  0  0  0  0  0  0
   48.9874   15.3139   -4.0365 C   0  0  0  0  0  0  0  0  0  0  0  0
   50.5105   16.7583   -2.8147 O   0  0  0  0  0  0  0  0  0  0  0  0
   50.1624   16.2640   -3.9057 C   0  0  0  0  0  0  0  0  0  0  0  0
   50.7516   16.5335   -4.9430 O   0  0  0  0  0  0  0  0  0  0  0  0
   50.0456   16.5388   -2.0313 H   0  0  0  0  0  0  0  0  0  0  0  0
   40.0133   14.2763   -4.7442 C   0  0  0  0  0  0  0  0  0  0  0  0
   38.5803   13.8300   -4.5605 C   0  0  0  0  0  0  0  0  0  0  0  0
   38.2137   12.6300   -5.1430 C   0  0  0  0  0  0  0  0  0  0  0  0
   36.9207   12.1851   -5.0082 C   0  0  0  0  0  0  0  0  0  0  0  0
   35.9838   12.9347   -4.3143 C   0  0  0  0  0  0  0  0  0  0  0  0
   36.3340   14.1409   -3.7150 C   0  0  0  0  0  0  0  0  0  0  0  0
   37.6455   14.5902   -3.8560 C   0  0  0  0  0  0  0  0  0  0  0  0
   38.1297   16.1692   -3.1310 Cl  0  0  0  0  0  0  0  0  0  0  0  0
   35.2981   14.9516   -2.9497 C   0  0  0  0  0  0  0  0  0  0  0  0
   35.6473   14.8693   -1.6742 F   0  0  0  0  0  0  0  0  0  0  0  0
   35.2818   16.2315   -3.3059 F   0  0  0  0  0  0  0  0  0  0  0  0
   34.0609   14.4715   -3.1439 F   0  0  0  0  0  0  0  0  0  0  0  0
   39.4522   15.6148   -6.8717 C   0  0  0  0  0  0  0  0  0  0  0  0
   40.0598   16.9719   -7.3319 C   0  0  0  0  0  0  0  0  0  0  0  0
   39.9754   17.9686   -6.2255 C   0  0  0  0  0  0  0  0  0  0  0  0
   38.7306   18.4506   -5.8561 C   0  0  0  0  0  0  0  0  0  0  0  0
   38.6416   19.3811   -4.8274 C   0  0  0  0  0  0  0  0  0  0  0  0
   39.7752   19.8368   -4.1741 C   0  0  0  0  0  0  0  0  0  0  0  0
   41.0174   19.3586   -4.5343 C   0  0  0  0  0  0  0  0  0  0  0  0
   41.1141   18.4139   -5.5604 C   0  0  0  0  0  0  0  0  0  0  0  0
   39.4041   17.5193   -8.5461 C   0  0  0  0  0  0  0  0  0  0  0  0
   40.1441   18.3771   -9.3560 C   0  0  0  0  0  0  0  0  0  0  0  0
   39.5965   18.8924  -10.5151 C   0  0  0  0  0  0  0  0  0  0  0  0
   38.2889   18.5868  -10.8671 C   0  0  0  0  0  0  0  0  0  0  0  0
   37.5408   17.7485  -10.0580 C   0  0  0  0  0  0  0  0  0  0  0  0
   38.1035   17.2002   -8.9032 C   0  0  0  0  0  0  0  0  0  0  0  0
 13 14  1  0  0  0
 14 15  2  0  0  0
 14 12  1  0  0  0
 12  6  1  0  0  0
  6  7  2  0  0  0
  6 11  1  0  0  0
  7  8  1  0  0  0
  8  9  2  0  0  0
  9 10  1  0  0  0
 10  5  1  0  0  0
 10 11  2  0  0  0
  5  4  1  0  0  0
  4  3  1  0  0  0
  3  2  1  0  0  0
  2  1  1  0  0  0
  1 17  1  0  0  0
  1 29  1  0  0  0
 17 18  1  0  0  0
 18 19  2  0  0  0
 18 23  1  0  0  0
 19 20  1  0  0  0
 20 21  2  0  0  0
 21 22  1  0  0  0
 22 23  2  0  0  0
 22 25  1  0  0  0
 23 24  1  0  0  0
 25 26  1  0  0  0
 25 27  1  0  0  0
 25 28  1  0  0  0
 29 30  1  0  0  0
 30 31  1  0  0  0
 30 37  1  0  0  0
 31 32  2  0  0  0
 31 36  1  0  0  0
 32 33  1  0  0  0
 33 34  2  0  0  0
 34 35  1  0  0  0
 35 36  2  0  0  0
 37 38  1  0  0  0
 37 42  2  0  0  0
 38 39  2  0  0  0
 39 40  1  0  0  0
 40 41  2  0  0  0
 41 42  1  0  0  0
 13 16  1  0  0  0
M  END
> <minimizedAffinity>
-13.46926

$$$$
3IPQ_965_A_801


 42 45  0  0  0  0  0  0  0  0999 V2000
   40.7104   14.6576   -6.4650 N   0  0  0  0  0  0  0  0  0  0  0  0
   41.9713   14.0283   -6.1010 C   0  0  0  0  0  0  0  0  0  0  0  0
   43.1526   14.9672   -5.9174 C   0  0  0  0  0  0  0  0  0  0  0  0
   43.6147   15.0480   -4.4780 C   0  0  0  0  0  0  0  0  0  0  0  0
   43.9303   16.3972   -4.1440 O   0  0  0  0  0  0  0  0  0  0  0  0
   47.5346   16.5009   -3.7576 C   0  0  0  0  0  0  0  0  0  0  0  0
   47.7851   17.8670   -3.6503 C   0  0  0  0  0  0  0  0  0  0  0  0
   46.7251   18.7619   -3.7312 C   0  0  0  0  0  0  0  0  0  0  0  0
   45.4181   18.3104   -3.8758 C   0  0  0  0  0  0  0  0  0  0  0  0
   45.1805   16.9229   -4.0000 C   0  0  0  0  0  0  0  0  0  0  0  0
   46.2312   16.0365   -3.9099 C   0  0  0  0  0  0  0  0  0  0  0  0
   48.6713   15.5268   -3.6707 C   0  0  0  0  0  0  0  0  0  0  0  0
   50.7390   16.6225   -3.0204 O   0  0  0  0  0  0  0  0  0  0  0  0
   50.0066   16.1954   -3.9354 C   0  0  0  0  0  0  0  0  0  0  0  0
   50.3266   16.3066   -5.1106 O   0  0  0  0  0  0  0  0  0  0  0  0
   50.4754   16.5274   -2.1263 H   0  0  0  0  0  0  0  0  0  0  0  0
   39.4294   13.9948   -6.1581 C   0  0  0  0  0  0  0  0  0  0  0  0
   38.7621   14.3576   -4.8507 C   0  0  0  0  0  0  0  0  0  0  0  0
   39.4206   15.2608   -4.0357 C   0  0  0  0  0  0  0  0  0  0  0  0
   38.8563   15.6174   -2.8347 C   0  0  0  0  0  0  0  0  0  0  0  0
   37.6502   15.0675   -2.4292 C   0  0  0  0  0  0  0  0  0  0  0  0
   36.9685   14.1629   -3.2375 C   0  0  0  0  0  0  0  0  0  0  0  0
   37.5451   13.8015   -4.4536 C   0  0  0  0  0  0  0  0  0  0  0  0
   36.7150   12.5994   -5.5115 Cl  0  0  0  0  0  0  0  0  0  0  0  0
   35.6416   13.5712   -2.7845 C   0  0  0  0  0  0  0  0  0  0  0  0
   35.8250   12.2593   -2.7518 F   0  0  0  0  0  0  0  0  0  0  0  0
   35.2826   13.9822   -1.5730 F   0  0  0  0  0  0  0  0  0  0  0  0
   34.6481   13.8994   -3.6237 F   0  0  0  0  0  0  0  0  0  0  0  0
   40.7759   15.8565   -7.3216 C   0  0  0  0  0  0  0  0  0  0  0  0
   39.5570   16.8066   -7.1360 C   0  0  0  0  0  0  0  0  0  0  0  0
   39.1976   17.4341   -8.4405 C   0  0  0  0  0  0  0  0  0  0  0  0
   40.1441   18.2084   -9.0910 C   0  0  0  0  0  0  0  0  0  0  0  0
   39.8182   18.7989  -10.3063 C   0  0  0  0  0  0  0  0  0  0  0  0
   38.5640   18.6311  -10.8704 C   0  0  0  0  0  0  0  0  0  0  0  0
   37.6180   17.8586  -10.2301 C   0  0  0  0  0  0  0  0  0  0  0  0
   37.9420   17.2519   -9.0129 C   0  0  0  0  0  0  0  0  0  0  0  0
   39.7955   17.8654   -6.1233 C   0  0  0  0  0  0  0  0  0  0  0  0
   38.6975   18.5910   -5.6678 C   0  0  0  0  0  0  0  0  0  0  0  0
   38.8545   19.5674   -4.7029 C   0  0  0  0  0  0  0  0  0  0  0  0
   40.1157   19.8591   -4.2014 C   0  0  0  0  0  0  0  0  0  0  0  0
   41.2148   19.1541   -4.6619 C   0  0  0  0  0  0  0  0  0  0  0  0
   41.0538   18.1440   -5.6131 C   0  0  0  0  0  0  0  0  0  0  0  0
 13 14  1  0  0  0
 14 15  2  0  0  0
 14 12  1  0  0  0
 12  6  1  0  0  0
  6  7  2  0  0  0
  6 11  1  0  0  0
  7  8  1  0  0  0
  8  9  2  0  0  0
  9 10  1  0  0  0
 10  5  1  0  0  0
 10 11  2  0  0  0
  5  4  1  0  0  0
  4  3  1  0  0  0
  3  2  1  0  0  0
  2  1  1  0  0  0
  1 17  1  0  0  0
  1 29  1  0  0  0
 17 18  1  0  0  0
 18 19  2  0  0  0
 18 23  1  0  0  0
 19 20  1  0  0  0
 20 21  2  0  0  0
 21 22  1  0  0  0
 22 23  2  0  0  0
 22 25  1  0  0  0
 23 24  1  0  0  0
 25 26  1  0  0  0
 25 27  1  0  0  0
 25 28  1  0  0  0
 29 30  1  0  0  0
 30 31  1  0  0  0
 30 37  1  0  0  0
 31 32  2  0  0  0
 31 36  1  0  0  0
 32 33  1  0  0  0
 33 34  2  0  0  0
 34 35  1  0  0  0
 35 36  2  0  0  0
 37 38  1  0  0  0
 37 42  2  0  0  0
 38 39  2  0  0  0
 39 40  1  0  0  0
 40 41  2  0  0  0
 41 42  1  0  0  0
 13 16  1  0  0  0
M  END
> <minimizedAffinity>
-13.11004

$$$$
3IPQ_965_A_801


 42 45  0  0  0  0  0  0  0  0999 V2000
   40.5885   14.8139   -6.2036 N   0  0  0  0  0  0  0  0  0  0  0  0
   41.8178   14.4732   -6.9044 C   0  0  0  0  0  0  0  0  0  0  0  0
   42.9646   13.9858   -6.0337 C   0  0  0  0  0  0  0  0  0  0  0  0
   43.7225   15.1210   -5.3789 C   0  0  0  0  0  0  0  0  0  0  0  0
   44.7175   14.5990   -4.5020 O   0  0  0  0  0  0  0  0  0  0  0  0
   47.3674   16.9721   -3.7971 C   0  0  0  0  0  0  0  0  0  0  0  0
   48.5150   16.2121   -4.0113 C   0  0  0  0  0  0  0  0  0  0  0  0
   48.3890   14.8774   -4.3772 C   0  0  0  0  0  0  0  0  0  0  0  0
   47.1371   14.3047   -4.5714 C   0  0  0  0  0  0  0  0  0  0  0  0
   45.9815   15.0829   -4.3345 C   0  0  0  0  0  0  0  0  0  0  0  0
   46.1081   16.4085   -3.9813 C   0  0  0  0  0  0  0  0  0  0  0  0
   47.4924   18.4135   -3.4031 C   0  0  0  0  0  0  0  0  0  0  0  0
   45.3648   19.5689   -3.2100 O   0  0  0  0  0  0  0  0  0  0  0  0
   46.3337   19.2417   -3.9243 C   0  0  0  0  0  0  0  0  0  0  0  0
   46.3939   19.5662   -5.1019 O   0  0  0  0  0  0  0  0  0  0  0  0
   45.3379   19.3101   -2.3098 H   0  0  0  0  0  0  0  0  0  0  0  0
   40.2510   14.1583   -4.9267 C   0  0  0  0  0  0  0  0  0  0  0  0
   38.8130   13.7347   -4.7288 C   0  0  0  0  0  0  0  0  0  0  0  0
   38.4061   12.5711   -5.3566 C   0  0  0  0  0  0  0  0  0  0  0  0
   37.1069   12.1482   -5.2109 C   0  0  0  0  0  0  0  0  0  0  0  0
   36.2035   12.8846   -4.4607 C   0  0  0  0  0  0  0  0  0  0  0  0
   36.5946   14.0540   -3.8155 C   0  0  0  0  0  0  0  0  0  0  0  0
   37.9122   14.4812   -3.9676 C   0  0  0  0  0  0  0  0  0  0  0  0
   38.4485   16.0143   -3.1831 Cl  0  0  0  0  0  0  0  0  0  0  0  0
   35.5953   14.8503   -2.9889 C   0  0  0  0  0  0  0  0  0  0  0  0
   34.3973   14.4537   -3.3926 F   0  0  0  0  0  0  0  0  0  0  0  0
   35.7053   14.6172   -1.6854 F   0  0  0  0  0  0  0  0  0  0  0  0
   35.7535   16.1700   -3.1690 F   0  0  0  0  0  0  0  0  0  0  0  0
   39.6186   15.6669   -6.9158 C   0  0  0  0  0  0  0  0  0  0  0  0
   40.2070   17.0479   -7.3272 C   0  0  0  0  0  0  0  0  0  0  0  0
   40.0577   18.0193   -6.2052 C   0  0  0  0  0  0  0  0  0  0  0  0
   38.7953   18.5056   -5.9082 C   0  0  0  0  0  0  0  0  0  0  0  0
   38.6460   19.4126   -4.8657 C   0  0  0  0  0  0  0  0  0  0  0  0
   39.7373   19.8410   -4.1275 C   0  0  0  0  0  0  0  0  0  0  0  0
   40.9965   19.3583   -4.4154 C   0  0  0  0  0  0  0  0  0  0  0  0
   41.1532   18.4369   -5.4551 C   0  0  0  0  0  0  0  0  0  0  0  0
   39.5811   17.6034   -8.5533 C   0  0  0  0  0  0  0  0  0  0  0  0
   38.2742   17.2230   -8.8477 C   0  0  0  0  0  0  0  0  0  0  0  0
   37.6297   17.7323   -9.9587 C   0  0  0  0  0  0  0  0  0  0  0  0
   38.2915   18.6037  -10.8131 C   0  0  0  0  0  0  0  0  0  0  0  0
   39.5969   18.9732  -10.5367 C   0  0  0  0  0  0  0  0  0  0  0  0
   40.2389   18.4854   -9.3962 C   0  0  0  0  0  0  0  0  0  0  0  0
 13 14  1  0  0  0
 14 15  2  0  0  0
 14 12  1  0  0  0
 12  6  1  0  0  0
  6  7  2  0  0  0
  6 11  1  0  0  0
  7  8  1  0  0  0
  8  9  2  0  0  0
  9 10  1  0  0  0
 10  5  1  0  0  0
 10 11  2  0  0  0
  5  4  1  0  0  0
  4  3  1  0  0  0
  3  2  1  0  0  0
  2  1  1  0  0  0
  1 17  1  0  0  0
  1 29  1  0  0  0
 17 18  1  0  0  0
 18 19  2  0  0  0
 18 23  1  0  0  0
 19 20  1  0  0  0
 20 21  2  0  0  0
 21 22  1  0  0  0
 22 23  2  0  0  0
 22 25  1  0  0  0
 23 24  1  0  0  0
 25 26  1  0  0  0
 25 27  1  0  0  0
 25 28  1  0  0  0
 29 30  1  0  0  0
 30 31  1  0  0  0
 30 37  1  0  0  0
 31 32  2  0  0  0
 31 36  1  0  0  0
 32 33  1  0  0  0
 33 34  2  0  0  0
 34 35  1  0  0  0
 35 36  2  0  0  0
 37 38  1  0  0  0
 37 42  2  0  0  0
 38 39  2  0  0  0
 39 40  1  0  0  0
 40 41  2  0  0  0
 41 42  1  0  0  0
 13 16  1  0  0  0
M  END
> <minimizedAffinity>
-12.80622

$$$$
3IPQ_965_A_801


 42 45  0  0  0  0  0  0  0  0999 V2000
   42.0053   15.8036   -6.4229 N   0  0  0  0  0  0  0  0  0  0  0  0
   41.8371   14.4759   -6.9949 C   0  0  0  0  0  0  0  0  0  0  0  0
   40.6331   13.6891   -6.5027 C   0  0  0  0  0  0  0  0  0  0  0  0
   39.3709   14.0123   -7.2736 C   0  0  0  0  0  0  0  0  0  0  0  0
   38.4322   14.6606   -6.4193 O   0  0  0  0  0  0  0  0  0  0  0  0
   36.4349   14.3179   -3.4118 C   0  0  0  0  0  0  0  0  0  0  0  0
   36.1310   12.9585   -3.4074 C   0  0  0  0  0  0  0  0  0  0  0  0
   36.5893   12.1551   -4.4445 C   0  0  0  0  0  0  0  0  0  0  0  0
   37.3790   12.6812   -5.4608 C   0  0  0  0  0  0  0  0  0  0  0  0
   37.6656   14.0650   -5.4613 C   0  0  0  0  0  0  0  0  0  0  0  0
   37.2187   14.8582   -4.4274 C   0  0  0  0  0  0  0  0  0  0  0  0
   35.9461   15.1933   -2.2968 C   0  0  0  0  0  0  0  0  0  0  0  0
   34.1182   14.2859   -0.9800 O   0  0  0  0  0  0  0  0  0  0  0  0
   34.4856   14.9364   -1.9789 C   0  0  0  0  0  0  0  0  0  0  0  0
   33.6757   15.3966   -2.7714 O   0  0  0  0  0  0  0  0  0  0  0  0
   34.7549   13.9418   -0.3849 H   0  0  0  0  0  0  0  0  0  0  0  0
   42.3643   15.9641   -5.0018 C   0  0  0  0  0  0  0  0  0  0  0  0
   43.8326   16.1196   -4.6756 C   0  0  0  0  0  0  0  0  0  0  0  0
   44.6203   14.9853   -4.7565 C   0  0  0  0  0  0  0  0  0  0  0  0
   45.9598   15.0755   -4.4641 C   0  0  0  0  0  0  0  0  0  0  0  0
   46.5185   16.2822   -4.0729 C   0  0  0  0  0  0  0  0  0  0  0  0
   45.7449   17.4362   -3.9922 C   0  0  0  0  0  0  0  0  0  0  0  0
   44.3863   17.3404   -4.2869 C   0  0  0  0  0  0  0  0  0  0  0  0
   43.3398   18.8034   -4.1530 Cl  0  0  0  0  0  0  0  0  0  0  0  0
   46.3712   18.7568   -3.5681 C   0  0  0  0  0  0  0  0  0  0  0  0
   46.5724   19.4357   -4.6881 F   0  0  0  0  0  0  0  0  0  0  0  0
   45.5796   19.4692   -2.7736 F   0  0  0  0  0  0  0  0  0  0  0  0
   47.5222   18.5621   -2.9077 F   0  0  0  0  0  0  0  0  0  0  0  0
   41.6034   16.9536   -7.2544 C   0  0  0  0  0  0  0  0  0  0  0  0
   40.0854   17.2818   -7.1496 C   0  0  0  0  0  0  0  0  0  0  0  0
   39.5749   17.7556   -8.4685 C   0  0  0  0  0  0  0  0  0  0  0  0
   38.2710   17.4546   -8.8257 C   0  0  0  0  0  0  0  0  0  0  0  0
   37.7865   17.8900  -10.0535 C   0  0  0  0  0  0  0  0  0  0  0  0
   38.5872   18.6111  -10.9243 C   0  0  0  0  0  0  0  0  0  0  0  0
   39.8852   18.9174  -10.5737 C   0  0  0  0  0  0  0  0  0  0  0  0
   40.3763   18.4928   -9.3355 C   0  0  0  0  0  0  0  0  0  0  0  0
   39.7810   18.2924   -6.1057 C   0  0  0  0  0  0  0  0  0  0  0  0
   38.7533   18.0133   -5.2083 C   0  0  0  0  0  0  0  0  0  0  0  0
   38.4459   18.9027   -4.1966 C   0  0  0  0  0  0  0  0  0  0  0  0
   39.1371   20.1014   -4.0850 C   0  0  0  0  0  0  0  0  0  0  0  0
   40.1486   20.3941   -4.9840 C   0  0  0  0  0  0  0  0  0  0  0  0
   40.4830   19.4816   -5.9872 C   0  0  0  0  0  0  0  0  0  0  0  0
 13 14  1  0  0  0
 14 15  2  0  0  0
 14 12  1  0  0  0
 12  6  1  0  0  0
  6  7  2  0  0  0
  6 11  1  0  0  0
  7  8  1  0  0  0
  8  9  2  0  0  0
  9 10  1  0  0  0
 10  5  1  0  0  0
 10 11  2  0  0  0
  5  4  1  0  0  0
  4  3  1  0  0  0
  3  2  1  0  0  0
  2  1  1  0  0  0
  1 17  1  0  0  0
  1 29  1  0  0  0
 17 18  1  0  0  0
 18 19  2  0  0  0
 18 23  1  0  0  0
 19 20  1  0  0  0
 20 21  2  0  0  0
 21 22  1  0  0  0
 22 23  2  0  0  0
 22 25  1  0  0  0
 23 24  1  0  0  0
 25 26  1  0  0  0
 25 27  1  0  0  0
 25 28  1  0  0  0
 29 30  1  0  0  0
 30 31  1  0  0  0
 30 37  1  0  0  0
 31 32  2  0  0  0
 31 36  1  0  0  0
 32 33  1  0  0  0
 33 34  2  0  0  0
 34 35  1  0  0  0
 35 36  2  0  0  0
 37 38  1  0  0  0
 37 42  2  0  0  0
 38 39  2  0  0  0
 39 40  1  0  0  0
 40 41  2  0  0  0
 41 42  1  0  0  0
 13 16  1  0  0  0
M  END
> <minimizedAffinity>
-11.48169

$$$$
