1G7V_PAI_A_300


 35 34  0  0  0  0  0  0  0  0999 V2000
    7.9802  105.1216   80.1109 C   0  0  0  0  0  0  0  0  0  0  0  0
    9.1101  105.2036   79.2595 O   0  0  0  0  0  0  0  0  0  0  0  0
    8.8180  105.3731   78.3502 H   0  0  0  0  0  0  0  0  0  0  0  0
    7.2257  106.5483   80.2427 C   0  0  0  0  0  0  0  0  0  0  0  0
    6.5678  106.4632   81.5423 O   0  0  0  0  0  0  0  0  0  0  0  0
    7.2367  106.3598   82.2372 H   0  0  0  0  0  0  0  0  0  0  0  0
    8.1651  107.9221   80.3804 C   0  0  0  0  0  0  0  0  0  0  0  0
    9.1438  107.8661   79.3179 O   0  0  0  0  0  0  0  0  0  0  0  0
    9.7346  107.1104   79.4621 H   0  0  0  0  0  0  0  0  0  0  0  0
    9.0392  108.1839   81.7105 C   0  0  0  0  0  0  0  0  0  0  0  0
    8.1487  108.5448   82.7800 O   0  0  0  0  0  0  0  0  0  0  0  0
    7.7081  109.3819   82.5653 H   0  0  0  0  0  0  0  0  0  0  0  0
   10.1471  109.3663   81.6307 C   0  0  0  0  0  0  0  0  0  0  0  0
    9.9483  110.4905   80.6334 O   0  0  0  0  0  0  0  0  0  0  0  0
    8.6890  111.6601   80.6981 P   0  0  0  0  0  0  0  0  0  0  0  0
    7.7334  111.6079   79.3615 O   0  0  0  0  0  0  0  0  0  0  0  0
    7.7578  111.4054   81.9941 O   0  0  0  0  0  0  0  0  0  0  0  0
    9.3421  113.1426   80.7984 O   0  0  0  0  0  0  0  0  0  0  0  0
    7.3641  110.5206   81.9405 H   0  0  0  0  0  0  0  0  0  0  0  0
    8.6350  113.8056   80.8351 H   0  0  0  0  0  0  0  0  0  0  0  0
    7.1681  103.8808   79.5391 C   0  0  0  0  0  0  0  0  0  0  0  0
    6.8369  102.7178   80.4363 N   0  0  0  0  0  0  0  0  0  0  0  0
    5.9993  103.0208   81.6787 C   0  0  0  0  0  0  0  0  0  0  0  0
    4.6103  102.3227   81.7398 C   0  0  0  0  0  0  0  0  0  0  0  0
    4.3377  101.3389   80.9515 O   0  0  0  0  0  0  0  0  0  0  0  0
    3.8026  102.7182   82.6003 O   0  0  0  0  0  0  0  0  0  0  0  0
    4.9651  101.0626   80.3128 H   0  0  0  0  0  0  0  0  0  0  0  0
    4.0277  103.4356   83.1595 H   0  0  0  0  0  0  0  0  0  0  0  0
    8.0802  101.9137   80.7984 C   0  0  0  0  0  0  0  0  0  0  0  0
    7.8748  100.1645   80.5766 P   0  0  0  0  0  0  0  0  0  0  0  0
    7.2663  100.0223   79.0845 O   0  0  0  0  0  0  0  0  0  0  0  0
    9.2432   99.3015   80.6896 O   0  0  0  0  0  0  0  0  0  0  0  0
    6.8292   99.6714   81.6759 O   0  0  0  0  0  0  0  0  0  0  0  0
    9.8741   99.6064   80.0187 H   0  0  0  0  0  0  0  0  0  0  0  0
    6.0137  100.1915   81.6027 H   0  0  0  0  0  0  0  0  0  0  0  0
 15 16  2  0  0  0
 15 17  1  0  0  0
 15 14  1  0  0  0
 15 18  1  0  0  0
 14 13  1  0  0  0
 13 10  1  0  0  0
 10 11  1  0  0  0
 10  7  1  0  0  0
  7  8  1  0  0  0
  7  4  1  0  0  0
  4  5  1  0  0  0
  4  1  1  0  0  0
  1  2  1  0  0  0
  1 21  1  0  0  0
 21 22  1  0  0  0
 22 23  1  0  0  0
 22 29  1  0  0  0
 23 24  1  0  0  0
 24 25  1  0  0  0
 24 26  1  0  0  0
 29 30  1  0  0  0
 30 31  2  0  0  0
 30 32  1  0  0  0
 30 33  1  0  0  0
 17 19  1  0  0  0
 18 20  1  0  0  0
 11 12  1  0  0  0
  8  9  1  0  0  0
  5  6  1  0  0  0
  2  3  1  0  0  0
 25 27  1  0  0  0
 26 28  1  0  0  0
 32 34  1  0  0  0
 33 35  1  0  0  0
M  END
> <minimizedAffinity>
-8.04429

$$$$
1G7V_PAI_A_300


 35 34  0  0  0  0  0  0  0  0999 V2000
    8.5605  108.1579   78.7962 C   0  0  0  0  0  0  0  0  0  0  0  0
    9.3081  107.6616   79.8930 O   0  0  0  0  0  0  0  0  0  0  0  0
    8.7516  107.6562   80.6875 H   0  0  0  0  0  0  0  0  0  0  0  0
    7.3639  107.1486   78.3821 C   0  0  0  0  0  0  0  0  0  0  0  0
    7.7607  106.6800   77.0585 O   0  0  0  0  0  0  0  0  0  0  0  0
    8.6054  106.2075   77.1225 H   0  0  0  0  0  0  0  0  0  0  0  0
    7.1953  105.7336   79.2527 C   0  0  0  0  0  0  0  0  0  0  0  0
    6.8988  106.1152   80.6152 O   0  0  0  0  0  0  0  0  0  0  0  0
    7.6595  106.5842   80.9924 H   0  0  0  0  0  0  0  0  0  0  0  0
    8.4316  104.7066   79.3893 C   0  0  0  0  0  0  0  0  0  0  0  0
    9.4035  105.0228   78.3782 O   0  0  0  0  0  0  0  0  0  0  0  0
    9.0158  104.8789   77.5008 H   0  0  0  0  0  0  0  0  0  0  0  0
    8.0908  103.1309   79.2071 C   0  0  0  0  0  0  0  0  0  0  0  0
    7.8140  102.2939   80.4402 O   0  0  0  0  0  0  0  0  0  0  0  0
    6.5589  102.5919   81.5777 P   0  0  0  0  0  0  0  0  0  0  0  0
    6.9298  103.8330   82.5899 O   0  0  0  0  0  0  0  0  0  0  0  0
    5.1861  102.9607   80.8092 O   0  0  0  0  0  0  0  0  0  0  0  0
    6.3227  101.2590   82.4734 O   0  0  0  0  0  0  0  0  0  0  0  0
    5.3203  103.7569   80.2717 H   0  0  0  0  0  0  0  0  0  0  0  0
    5.6153  101.4228   83.1165 H   0  0  0  0  0  0  0  0  0  0  0  0
    8.1893  109.6399   79.2343 C   0  0  0  0  0  0  0  0  0  0  0  0
    8.9402  110.3051   80.3571 N   0  0  0  0  0  0  0  0  0  0  0  0
    8.1999  110.4617   81.6855 C   0  0  0  0  0  0  0  0  0  0  0  0
    8.5012  109.3733   82.7554 C   0  0  0  0  0  0  0  0  0  0  0  0
    8.0838  108.1637   82.5933 O   0  0  0  0  0  0  0  0  0  0  0  0
    9.1915  109.7039   83.7370 O   0  0  0  0  0  0  0  0  0  0  0  0
    7.5656  107.9434   81.8444 H   0  0  0  0  0  0  0  0  0  0  0  0
    9.4809  110.5903   83.8290 H   0  0  0  0  0  0  0  0  0  0  0  0
    9.5572  111.6274   79.9165 C   0  0  0  0  0  0  0  0  0  0  0  0
   11.3322  111.6135   79.9299 P   0  0  0  0  0  0  0  0  0  0  0  0
   11.7398  111.4558   78.3724 O   0  0  0  0  0  0  0  0  0  0  0  0
   12.0162  112.9527   80.5372 O   0  0  0  0  0  0  0  0  0  0  0  0
   11.7854  110.3400   80.7771 O   0  0  0  0  0  0  0  0  0  0  0  0
   11.7365  113.7227   80.0177 H   0  0  0  0  0  0  0  0  0  0  0  0
   11.3729  109.5431   80.4086 H   0  0  0  0  0  0  0  0  0  0  0  0
 15 16  2  0  0  0
 15 17  1  0  0  0
 15 14  1  0  0  0
 15 18  1  0  0  0
 14 13  1  0  0  0
 13 10  1  0  0  0
 10 11  1  0  0  0
 10  7  1  0  0  0
  7  8  1  0  0  0
  7  4  1  0  0  0
  4  5  1  0  0  0
  4  1  1  0  0  0
  1  2  1  0  0  0
  1 21  1  0  0  0
 21 22  1  0  0  0
 22 23  1  0  0  0
 22 29  1  0  0  0
 23 24  1  0  0  0
 24 25  1  0  0  0
 24 26  1  0  0  0
 29 30  1  0  0  0
 30 31  2  0  0  0
 30 32  1  0  0  0
 30 33  1  0  0  0
 17 19  1  0  0  0
 18 20  1  0  0  0
 11 12  1  0  0  0
  8  9  1  0  0  0
  5  6  1  0  0  0
  2  3  1  0  0  0
 25 27  1  0  0  0
 26 28  1  0  0  0
 32 34  1  0  0  0
 33 35  1  0  0  0
M  END
> <minimizedAffinity>
-7.86133

$$$$
1G7V_PAI_A_300


 35 34  0  0  0  0  0  0  0  0999 V2000
    7.8671  109.7565   81.0389 C   0  0  0  0  0  0  0  0  0  0  0  0
    7.7052  109.5240   79.6504 O   0  0  0  0  0  0  0  0  0  0  0  0
    8.5722  109.3628   79.2463 H   0  0  0  0  0  0  0  0  0  0  0  0
    8.3753  108.4279   81.8126 C   0  0  0  0  0  0  0  0  0  0  0  0
    8.0838  108.7203   83.2121 O   0  0  0  0  0  0  0  0  0  0  0  0
    7.1281  108.8421   83.3247 H   0  0  0  0  0  0  0  0  0  0  0  0
    7.5524  107.0002   81.5422 C   0  0  0  0  0  0  0  0  0  0  0  0
    7.5103  106.2977   82.8050 O   0  0  0  0  0  0  0  0  0  0  0  0
    8.4110  106.0532   83.0692 H   0  0  0  0  0  0  0  0  0  0  0  0
    8.1282  105.9102   80.5019 C   0  0  0  0  0  0  0  0  0  0  0  0
    8.8393  106.6016   79.4610 O   0  0  0  0  0  0  0  0  0  0  0  0
    8.2224  107.1627   78.9656 H   0  0  0  0  0  0  0  0  0  0  0  0
    7.0361  104.9728   79.7530 C   0  0  0  0  0  0  0  0  0  0  0  0
    6.9716  103.4996   80.1041 O   0  0  0  0  0  0  0  0  0  0  0  0
    6.3033  102.8554   81.5520 P   0  0  0  0  0  0  0  0  0  0  0  0
    5.0194  101.8736   81.2517 O   0  0  0  0  0  0  0  0  0  0  0  0
    7.4185  101.9983   82.3476 O   0  0  0  0  0  0  0  0  0  0  0  0
    5.7999  104.0756   82.4966 O   0  0  0  0  0  0  0  0  0  0  0  0
    7.7239  101.2669   81.7884 H   0  0  0  0  0  0  0  0  0  0  0  0
    5.4221  103.7165   83.3147 H   0  0  0  0  0  0  0  0  0  0  0  0
    8.7687  111.0641   81.0984 C   0  0  0  0  0  0  0  0  0  0  0  0
    9.4507  111.5674   79.8540 N   0  0  0  0  0  0  0  0  0  0  0  0
   10.9610  111.3510   79.7586 C   0  0  0  0  0  0  0  0  0  0  0  0
   11.4082  109.9860   79.1612 C   0  0  0  0  0  0  0  0  0  0  0  0
   12.6032  109.8340   78.7001 O   0  0  0  0  0  0  0  0  0  0  0  0
   10.5908  109.0478   79.1892 O   0  0  0  0  0  0  0  0  0  0  0  0
   13.1976  110.5583   78.6914 H   0  0  0  0  0  0  0  0  0  0  0  0
    9.7291  109.1872   79.5299 H   0  0  0  0  0  0  0  0  0  0  0  0
    9.0871  113.0182   79.5599 C   0  0  0  0  0  0  0  0  0  0  0  0
    7.5098  113.2001   78.7661 P   0  0  0  0  0  0  0  0  0  0  0  0
    7.4353  111.9515   77.7403 O   0  0  0  0  0  0  0  0  0  0  0  0
    6.2366  113.1551   79.7697 O   0  0  0  0  0  0  0  0  0  0  0  0
    7.5357  114.5898   77.9832 O   0  0  0  0  0  0  0  0  0  0  0  0
    6.2271  112.3080   80.2421 H   0  0  0  0  0  0  0  0  0  0  0  0
    8.2992  114.6099   77.3853 H   0  0  0  0  0  0  0  0  0  0  0  0
 15 16  2  0  0  0
 15 17  1  0  0  0
 15 14  1  0  0  0
 15 18  1  0  0  0
 14 13  1  0  0  0
 13 10  1  0  0  0
 10 11  1  0  0  0
 10  7  1  0  0  0
  7  8  1  0  0  0
  7  4  1  0  0  0
  4  5  1  0  0  0
  4  1  1  0  0  0
  1  2  1  0  0  0
  1 21  1  0  0  0
 21 22  1  0  0  0
 22 23  1  0  0  0
 22 29  1  0  0  0
 23 24  1  0  0  0
 24 25  1  0  0  0
 24 26  1  0  0  0
 29 30  1  0  0  0
 30 31  2  0  0  0
 30 32  1  0  0  0
 30 33  1  0  0  0
 17 19  1  0  0  0
 18 20  1  0  0  0
 11 12  1  0  0  0
  8  9  1  0  0  0
  5  6  1  0  0  0
  2  3  1  0  0  0
 25 27  1  0  0  0
 26 28  1  0  0  0
 32 34  1  0  0  0
 33 35  1  0  0  0
M  END
> <minimizedAffinity>
-7.83637

$$$$
1G7V_PAI_A_300


 35 34  0  0  0  0  0  0  0  0999 V2000
   10.4962  109.7100   80.5270 C   0  0  0  0  0  0  0  0  0  0  0  0
   11.8550  109.3098   80.5646 O   0  0  0  0  0  0  0  0  0  0  0  0
   12.2356  109.5380   81.4272 H   0  0  0  0  0  0  0  0  0  0  0  0
    9.5893  108.8453   81.5526 C   0  0  0  0  0  0  0  0  0  0  0  0
    9.4683  109.7191   82.7149 O   0  0  0  0  0  0  0  0  0  0  0  0
    9.0156  110.5377   82.4583 H   0  0  0  0  0  0  0  0  0  0  0  0
    8.0006  108.5464   81.1336 C   0  0  0  0  0  0  0  0  0  0  0  0
    7.1955  109.5291   81.8235 O   0  0  0  0  0  0  0  0  0  0  0  0
    7.2616  109.3868   82.7808 H   0  0  0  0  0  0  0  0  0  0  0  0
    7.3095  107.1371   81.5048 C   0  0  0  0  0  0  0  0  0  0  0  0
    7.7155  106.7635   82.8325 O   0  0  0  0  0  0  0  0  0  0  0  0
    8.6744  106.6178   82.8483 H   0  0  0  0  0  0  0  0  0  0  0  0
    7.6745  105.8756   80.5522 C   0  0  0  0  0  0  0  0  0  0  0  0
    7.2220  105.8948   79.1056 O   0  0  0  0  0  0  0  0  0  0  0  0
    8.2621  106.0533   77.7451 P   0  0  0  0  0  0  0  0  0  0  0  0
    9.0121  107.5159   77.7128 O   0  0  0  0  0  0  0  0  0  0  0  0
    9.3982  104.9045   77.7750 O   0  0  0  0  0  0  0  0  0  0  0  0
    7.3893  105.8997   76.3852 O   0  0  0  0  0  0  0  0  0  0  0  0
    9.9238  104.9906   78.5857 H   0  0  0  0  0  0  0  0  0  0  0  0
    7.9723  105.9885   75.6151 H   0  0  0  0  0  0  0  0  0  0  0  0
   10.5636  111.2869   80.7140 C   0  0  0  0  0  0  0  0  0  0  0  0
   10.5053  112.1923   79.5123 N   0  0  0  0  0  0  0  0  0  0  0  0
   11.8312  112.7721   79.0195 C   0  0  0  0  0  0  0  0  0  0  0  0
   12.5557  111.9497   77.9154 C   0  0  0  0  0  0  0  0  0  0  0  0
   12.9264  110.7353   78.1419 O   0  0  0  0  0  0  0  0  0  0  0  0
   12.7182  112.4900   76.8060 O   0  0  0  0  0  0  0  0  0  0  0  0
   12.7914  110.3541   78.9872 H   0  0  0  0  0  0  0  0  0  0  0  0
   12.4390  113.3740   76.6700 H   0  0  0  0  0  0  0  0  0  0  0  0
    9.4597  113.2882   79.6829 C   0  0  0  0  0  0  0  0  0  0  0  0
    7.8081  112.6620   79.8592 P   0  0  0  0  0  0  0  0  0  0  0  0
    7.8385  111.2396   79.0894 O   0  0  0  0  0  0  0  0  0  0  0  0
    7.3274  112.4396   81.3921 O   0  0  0  0  0  0  0  0  0  0  0  0
    6.8345  113.6931   79.1286 O   0  0  0  0  0  0  0  0  0  0  0  0
    7.9233  111.8120   81.8300 H   0  0  0  0  0  0  0  0  0  0  0  0
    7.1276  113.8213   78.2129 H   0  0  0  0  0  0  0  0  0  0  0  0
 15 16  2  0  0  0
 15 17  1  0  0  0
 15 14  1  0  0  0
 15 18  1  0  0  0
 14 13  1  0  0  0
 13 10  1  0  0  0
 10 11  1  0  0  0
 10  7  1  0  0  0
  7  8  1  0  0  0
  7  4  1  0  0  0
  4  5  1  0  0  0
  4  1  1  0  0  0
  1  2  1  0  0  0
  1 21  1  0  0  0
 21 22  1  0  0  0
 22 23  1  0  0  0
 22 29  1  0  0  0
 23 24  1  0  0  0
 24 25  1  0  0  0
 24 26  1  0  0  0
 29 30  1  0  0  0
 30 31  2  0  0  0
 30 32  1  0  0  0
 30 33  1  0  0  0
 17 19  1  0  0  0
 18 20  1  0  0  0
 11 12  1  0  0  0
  8  9  1  0  0  0
  5  6  1  0  0  0
  2  3  1  0  0  0
 25 27  1  0  0  0
 26 28  1  0  0  0
 32 34  1  0  0  0
 33 35  1  0  0  0
M  END
> <minimizedAffinity>
-7.83252

$$$$
1G7V_PAI_A_300


 35 34  0  0  0  0  0  0  0  0999 V2000
    8.7811  107.8675   81.2186 C   0  0  0  0  0  0  0  0  0  0  0  0
    7.8181  107.5680   82.2142 O   0  0  0  0  0  0  0  0  0  0  0  0
    7.1252  108.2468   82.2084 H   0  0  0  0  0  0  0  0  0  0  0  0
    8.1636  107.7286   79.7282 C   0  0  0  0  0  0  0  0  0  0  0  0
    9.3116  107.9779   78.8628 O   0  0  0  0  0  0  0  0  0  0  0  0
    9.9889  107.3017   79.0213 H   0  0  0  0  0  0  0  0  0  0  0  0
    7.6350  106.2230   79.2358 C   0  0  0  0  0  0  0  0  0  0  0  0
    6.4250  105.9434   79.9758 O   0  0  0  0  0  0  0  0  0  0  0  0
    6.6334  105.8692   80.9202 H   0  0  0  0  0  0  0  0  0  0  0  0
    8.5533  104.9179   79.4709 C   0  0  0  0  0  0  0  0  0  0  0  0
    9.5864  104.8987   78.4713 O   0  0  0  0  0  0  0  0  0  0  0  0
    9.1851  104.8041   77.5933 H   0  0  0  0  0  0  0  0  0  0  0  0
    7.8094  103.4793   79.3751 C   0  0  0  0  0  0  0  0  0  0  0  0
    6.5558  103.2467   80.1951 O   0  0  0  0  0  0  0  0  0  0  0  0
    6.4867  103.2256   81.9135 P   0  0  0  0  0  0  0  0  0  0  0  0
    7.0240  104.6352   82.5668 O   0  0  0  0  0  0  0  0  0  0  0  0
    4.9666  102.9878   82.4074 O   0  0  0  0  0  0  0  0  0  0  0  0
    7.4193  102.0195   82.4704 O   0  0  0  0  0  0  0  0  0  0  0  0
    4.4035  103.7055   82.0778 H   0  0  0  0  0  0  0  0  0  0  0  0
    7.3832  102.0039   83.4396 H   0  0  0  0  0  0  0  0  0  0  0  0
    9.3659  109.2740   81.6725 C   0  0  0  0  0  0  0  0  0  0  0  0
    9.7241  110.3105   80.6408 N   0  0  0  0  0  0  0  0  0  0  0  0
   11.1823  110.7676   80.5985 C   0  0  0  0  0  0  0  0  0  0  0  0
   11.8453  110.7709   79.1911 C   0  0  0  0  0  0  0  0  0  0  0  0
   11.9500  111.8674   78.5201 O   0  0  0  0  0  0  0  0  0  0  0  0
   12.3049  109.6948   78.7668 O   0  0  0  0  0  0  0  0  0  0  0  0
   11.5944  112.6631   78.8643 H   0  0  0  0  0  0  0  0  0  0  0  0
   12.2142  108.9134   79.2760 H   0  0  0  0  0  0  0  0  0  0  0  0
    8.7784  111.5049   80.6903 C   0  0  0  0  0  0  0  0  0  0  0  0
    8.1316  111.9552   79.0997 P   0  0  0  0  0  0  0  0  0  0  0  0
    9.2482  112.9509   78.4845 O   0  0  0  0  0  0  0  0  0  0  0  0
    7.8963  110.7109   78.0865 O   0  0  0  0  0  0  0  0  0  0  0  0
    6.7537  112.7183   79.3520 O   0  0  0  0  0  0  0  0  0  0  0  0
    8.7376  110.2516   77.9376 H   0  0  0  0  0  0  0  0  0  0  0  0
    6.9016  113.4608   79.9584 H   0  0  0  0  0  0  0  0  0  0  0  0
 15 16  2  0  0  0
 15 17  1  0  0  0
 15 14  1  0  0  0
 15 18  1  0  0  0
 14 13  1  0  0  0
 13 10  1  0  0  0
 10 11  1  0  0  0
 10  7  1  0  0  0
  7  8  1  0  0  0
  7  4  1  0  0  0
  4  5  1  0  0  0
  4  1  1  0  0  0
  1  2  1  0  0  0
  1 21  1  0  0  0
 21 22  1  0  0  0
 22 23  1  0  0  0
 22 29  1  0  0  0
 23 24  1  0  0  0
 24 25  1  0  0  0
 24 26  1  0  0  0
 29 30  1  0  0  0
 30 31  2  0  0  0
 30 32  1  0  0  0
 30 33  1  0  0  0
 17 19  1  0  0  0
 18 20  1  0  0  0
 11 12  1  0  0  0
  8  9  1  0  0  0
  5  6  1  0  0  0
  2  3  1  0  0  0
 25 27  1  0  0  0
 26 28  1  0  0  0
 32 34  1  0  0  0
 33 35  1  0  0  0
M  END
> <minimizedAffinity>
-7.81815

$$$$
1G7V_PAI_A_300


 35 34  0  0  0  0  0  0  0  0999 V2000
    8.0261  110.4693   81.2943 C   0  0  0  0  0  0  0  0  0  0  0  0
    7.7250  109.9398   80.0148 O   0  0  0  0  0  0  0  0  0  0  0  0
    8.5460  109.8254   79.5109 H   0  0  0  0  0  0  0  0  0  0  0  0
    8.8516  109.4113   82.2004 C   0  0  0  0  0  0  0  0  0  0  0  0
    8.0660  109.3328   83.4275 O   0  0  0  0  0  0  0  0  0  0  0  0
    7.1797  108.9959   83.2230 H   0  0  0  0  0  0  0  0  0  0  0  0
    8.9170  107.8233   81.6876 C   0  0  0  0  0  0  0  0  0  0  0  0
    9.4296  107.8425   80.3360 O   0  0  0  0  0  0  0  0  0  0  0  0
    8.7970  108.2953   79.7567 H   0  0  0  0  0  0  0  0  0  0  0  0
    7.5703  106.9412   81.5878 C   0  0  0  0  0  0  0  0  0  0  0  0
    7.3696  106.2682   82.8424 O   0  0  0  0  0  0  0  0  0  0  0  0
    8.0995  105.6483   82.9971 H   0  0  0  0  0  0  0  0  0  0  0  0
    7.5412  105.7860   80.4492 C   0  0  0  0  0  0  0  0  0  0  0  0
    7.1747  106.1668   79.0284 O   0  0  0  0  0  0  0  0  0  0  0  0
    8.2206  106.0413   77.6688 P   0  0  0  0  0  0  0  0  0  0  0  0
    9.0265  107.4453   77.3827 O   0  0  0  0  0  0  0  0  0  0  0  0
    9.3115  104.8739   77.9105 O   0  0  0  0  0  0  0  0  0  0  0  0
    7.3430  105.6816   76.3517 O   0  0  0  0  0  0  0  0  0  0  0  0
    9.8398  105.0827   78.6968 H   0  0  0  0  0  0  0  0  0  0  0  0
    7.9293  105.6098   75.5822 H   0  0  0  0  0  0  0  0  0  0  0  0
    8.6904  111.8767   80.9717 C   0  0  0  0  0  0  0  0  0  0  0  0
    9.0695  112.2255   79.5570 N   0  0  0  0  0  0  0  0  0  0  0  0
   10.5457  112.0888   79.1839 C   0  0  0  0  0  0  0  0  0  0  0  0
   11.2556  110.8074   79.7076 C   0  0  0  0  0  0  0  0  0  0  0  0
   11.8318  110.8043   80.8616 O   0  0  0  0  0  0  0  0  0  0  0  0
   11.2045  109.7873   78.9963 O   0  0  0  0  0  0  0  0  0  0  0  0
   11.8551  111.5873   81.3756 H   0  0  0  0  0  0  0  0  0  0  0  0
   10.7792  109.8187   78.1619 H   0  0  0  0  0  0  0  0  0  0  0  0
    8.5270  113.5901   79.1485 C   0  0  0  0  0  0  0  0  0  0  0  0
    7.1235  113.4928   78.0659 P   0  0  0  0  0  0  0  0  0  0  0  0
    6.6836  111.9372   78.1251 O   0  0  0  0  0  0  0  0  0  0  0  0
    5.8701  114.4282   78.4952 O   0  0  0  0  0  0  0  0  0  0  0  0
    7.6272  113.8952   76.6068 O   0  0  0  0  0  0  0  0  0  0  0  0
    5.5691  114.1783   79.3828 H   0  0  0  0  0  0  0  0  0  0  0  0
    8.3764  113.3322   76.3566 H   0  0  0  0  0  0  0  0  0  0  0  0
 15 16  2  0  0  0
 15 17  1  0  0  0
 15 14  1  0  0  0
 15 18  1  0  0  0
 14 13  1  0  0  0
 13 10  1  0  0  0
 10 11  1  0  0  0
 10  7  1  0  0  0
  7  8  1  0  0  0
  7  4  1  0  0  0
  4  5  1  0  0  0
  4  1  1  0  0  0
  1  2  1  0  0  0
  1 21  1  0  0  0
 21 22  1  0  0  0
 22 23  1  0  0  0
 22 29  1  0  0  0
 23 24  1  0  0  0
 24 25  1  0  0  0
 24 26  1  0  0  0
 29 30  1  0  0  0
 30 31  2  0  0  0
 30 32  1  0  0  0
 30 33  1  0  0  0
 17 19  1  0  0  0
 18 20  1  0  0  0
 11 12  1  0  0  0
  8  9  1  0  0  0
  5  6  1  0  0  0
  2  3  1  0  0  0
 25 27  1  0  0  0
 26 28  1  0  0  0
 32 34  1  0  0  0
 33 35  1  0  0  0
M  END
> <minimizedAffinity>
-7.80987

$$$$
1G7V_PAI_A_300


 35 34  0  0  0  0  0  0  0  0999 V2000
    8.0410  108.1817   81.1906 C   0  0  0  0  0  0  0  0  0  0  0  0
    7.0179  108.8116   81.9420 O   0  0  0  0  0  0  0  0  0  0  0  0
    6.1786  108.7513   81.4595 H   0  0  0  0  0  0  0  0  0  0  0  0
    7.8082  106.5826   81.0860 C   0  0  0  0  0  0  0  0  0  0  0  0
    6.4662  106.4009   81.6290 O   0  0  0  0  0  0  0  0  0  0  0  0
    5.8271  106.8804   81.0790 H   0  0  0  0  0  0  0  0  0  0  0  0
    7.6986  105.9042   79.5640 C   0  0  0  0  0  0  0  0  0  0  0  0
    6.3799  105.3206   79.4618 O   0  0  0  0  0  0  0  0  0  0  0  0
    6.2987  104.5920   80.0969 H   0  0  0  0  0  0  0  0  0  0  0  0
    8.6940  104.7124   79.1275 C   0  0  0  0  0  0  0  0  0  0  0  0
    9.2524  105.0300   77.8414 O   0  0  0  0  0  0  0  0  0  0  0  0
    8.5439  105.0595   77.1795 H   0  0  0  0  0  0  0  0  0  0  0  0
    8.0384  103.2357   78.9798 C   0  0  0  0  0  0  0  0  0  0  0  0
    8.1300  102.2734   80.1475 O   0  0  0  0  0  0  0  0  0  0  0  0
    6.9296  102.0745   81.3629 P   0  0  0  0  0  0  0  0  0  0  0  0
    5.9015  100.8400   81.0142 O   0  0  0  0  0  0  0  0  0  0  0  0
    7.6252  101.7643   82.7881 O   0  0  0  0  0  0  0  0  0  0  0  0
    6.0610  103.4404   81.4838 O   0  0  0  0  0  0  0  0  0  0  0  0
    8.1463  100.9488   82.7229 H   0  0  0  0  0  0  0  0  0  0  0  0
    5.3824  103.3325   82.1685 H   0  0  0  0  0  0  0  0  0  0  0  0
    8.0997  109.0319   79.8490 C   0  0  0  0  0  0  0  0  0  0  0  0
    8.8739  110.3226   79.8071 N   0  0  0  0  0  0  0  0  0  0  0  0
    8.0709  111.6024   79.5743 C   0  0  0  0  0  0  0  0  0  0  0  0
    8.0307  112.5976   80.7694 C   0  0  0  0  0  0  0  0  0  0  0  0
    6.9794  112.6864   81.5113 O   0  0  0  0  0  0  0  0  0  0  0  0
    9.0576  113.2608   81.0034 O   0  0  0  0  0  0  0  0  0  0  0  0
    6.2202  112.1749   81.3112 H   0  0  0  0  0  0  0  0  0  0  0  0
    9.8069  113.1761   80.4471 H   0  0  0  0  0  0  0  0  0  0  0  0
   10.0575  110.2387   78.8502 C   0  0  0  0  0  0  0  0  0  0  0  0
   11.6210  110.5277   79.6395 P   0  0  0  0  0  0  0  0  0  0  0  0
   12.6873  110.5196   78.4231 O   0  0  0  0  0  0  0  0  0  0  0  0
   11.7251  111.9323   80.4436 O   0  0  0  0  0  0  0  0  0  0  0  0
   11.8751  109.3099   80.6381 O   0  0  0  0  0  0  0  0  0  0  0  0
   11.5697  112.6679   79.8308 H   0  0  0  0  0  0  0  0  0  0  0  0
   11.8113  108.4735   80.1509 H   0  0  0  0  0  0  0  0  0  0  0  0
 15 16  2  0  0  0
 15 17  1  0  0  0
 15 14  1  0  0  0
 15 18  1  0  0  0
 14 13  1  0  0  0
 13 10  1  0  0  0
 10 11  1  0  0  0
 10  7  1  0  0  0
  7  8  1  0  0  0
  7  4  1  0  0  0
  4  5  1  0  0  0
  4  1  1  0  0  0
  1  2  1  0  0  0
  1 21  1  0  0  0
 21 22  1  0  0  0
 22 23  1  0  0  0
 22 29  1  0  0  0
 23 24  1  0  0  0
 24 25  1  0  0  0
 24 26  1  0  0  0
 29 30  1  0  0  0
 30 31  2  0  0  0
 30 32  1  0  0  0
 30 33  1  0  0  0
 17 19  1  0  0  0
 18 20  1  0  0  0
 11 12  1  0  0  0
  8  9  1  0  0  0
  5  6  1  0  0  0
  2  3  1  0  0  0
 25 27  1  0  0  0
 26 28  1  0  0  0
 32 34  1  0  0  0
 33 35  1  0  0  0
M  END
> <minimizedAffinity>
-7.77598

$$$$
1G7V_PAI_A_300


 35 34  0  0  0  0  0  0  0  0999 V2000
    8.4060  104.2287   79.3788 C   0  0  0  0  0  0  0  0  0  0  0  0
    9.6650  104.3941   78.7498 O   0  0  0  0  0  0  0  0  0  0  0  0
    9.5772  104.2191   77.7997 H   0  0  0  0  0  0  0  0  0  0  0  0
    7.3485  105.3609   78.9077 C   0  0  0  0  0  0  0  0  0  0  0  0
    6.1013  104.9406   79.5376 O   0  0  0  0  0  0  0  0  0  0  0  0
    6.2080  104.9464   80.5017 H   0  0  0  0  0  0  0  0  0  0  0  0
    7.5587  106.9161   79.4787 C   0  0  0  0  0  0  0  0  0  0  0  0
    8.8170  107.3890   78.9468 O   0  0  0  0  0  0  0  0  0  0  0  0
    9.5423  106.8587   79.3124 H   0  0  0  0  0  0  0  0  0  0  0  0
    7.6684  107.1963   81.0634 C   0  0  0  0  0  0  0  0  0  0  0  0
    6.4239  106.8266   81.6811 O   0  0  0  0  0  0  0  0  0  0  0  0
    5.7143  107.3960   81.3446 H   0  0  0  0  0  0  0  0  0  0  0  0
    7.9543  108.7290   81.5120 C   0  0  0  0  0  0  0  0  0  0  0  0
    8.0388  109.8013   80.4440 O   0  0  0  0  0  0  0  0  0  0  0  0
    8.7225  111.3643   80.6623 P   0  0  0  0  0  0  0  0  0  0  0  0
    8.8041  112.2014   79.2499 O   0  0  0  0  0  0  0  0  0  0  0  0
    7.8340  112.2207   81.7056 O   0  0  0  0  0  0  0  0  0  0  0  0
   10.2278  111.2111   81.2499 O   0  0  0  0  0  0  0  0  0  0  0  0
    6.9325  112.3161   81.3604 H   0  0  0  0  0  0  0  0  0  0  0  0
   10.6173  112.0906   81.3747 H   0  0  0  0  0  0  0  0  0  0  0  0
    8.0530  102.7012   79.1173 C   0  0  0  0  0  0  0  0  0  0  0  0
    7.4446  101.8689   80.2146 N   0  0  0  0  0  0  0  0  0  0  0  0
    7.4913  102.4492   81.6281 C   0  0  0  0  0  0  0  0  0  0  0  0
    6.1201  102.8800   82.2236 C   0  0  0  0  0  0  0  0  0  0  0  0
    5.2563  101.9929   82.5847 O   0  0  0  0  0  0  0  0  0  0  0  0
    5.9143  104.0979   82.3773 O   0  0  0  0  0  0  0  0  0  0  0  0
    5.4381  101.0826   82.4568 H   0  0  0  0  0  0  0  0  0  0  0  0
    6.5600  104.7201   82.1054 H   0  0  0  0  0  0  0  0  0  0  0  0
    7.9702  100.4383   80.1939 C   0  0  0  0  0  0  0  0  0  0  0  0
    6.6844   99.2189   80.0901 P   0  0  0  0  0  0  0  0  0  0  0  0
    5.4242   99.9064   80.8360 O   0  0  0  0  0  0  0  0  0  0  0  0
    6.2620   98.8058   78.5798 O   0  0  0  0  0  0  0  0  0  0  0  0
    7.1928   97.9317   80.8834 O   0  0  0  0  0  0  0  0  0  0  0  0
    5.9540   99.5927   78.1035 H   0  0  0  0  0  0  0  0  0  0  0  0
    7.4436   98.1859   81.7853 H   0  0  0  0  0  0  0  0  0  0  0  0
 15 16  2  0  0  0
 15 17  1  0  0  0
 15 14  1  0  0  0
 15 18  1  0  0  0
 14 13  1  0  0  0
 13 10  1  0  0  0
 10 11  1  0  0  0
 10  7  1  0  0  0
  7  8  1  0  0  0
  7  4  1  0  0  0
  4  5  1  0  0  0
  4  1  1  0  0  0
  1  2  1  0  0  0
  1 21  1  0  0  0
 21 22  1  0  0  0
 22 23  1  0  0  0
 22 29  1  0  0  0
 23 24  1  0  0  0
 24 25  1  0  0  0
 24 26  1  0  0  0
 29 30  1  0  0  0
 30 31  2  0  0  0
 30 32  1  0  0  0
 30 33  1  0  0  0
 17 19  1  0  0  0
 18 20  1  0  0  0
 11 12  1  0  0  0
  8  9  1  0  0  0
  5  6  1  0  0  0
  2  3  1  0  0  0
 25 27  1  0  0  0
 26 28  1  0  0  0
 32 34  1  0  0  0
 33 35  1  0  0  0
M  END
> <minimizedAffinity>
-7.69175

$$$$
1G7V_PAI_A_300


 35 34  0  0  0  0  0  0  0  0999 V2000
    7.6361  103.6834   79.2721 C   0  0  0  0  0  0  0  0  0  0  0  0
    6.3118  104.1295   79.5070 O   0  0  0  0  0  0  0  0  0  0  0  0
    6.2694  104.5785   80.3658 H   0  0  0  0  0  0  0  0  0  0  0  0
    8.6585  104.9232   79.0729 C   0  0  0  0  0  0  0  0  0  0  0  0
    9.4308  104.5379   77.8964 O   0  0  0  0  0  0  0  0  0  0  0  0
    8.8374  104.4527   77.1338 H   0  0  0  0  0  0  0  0  0  0  0  0
    8.0198  106.4045   78.6412 C   0  0  0  0  0  0  0  0  0  0  0  0
    8.7538  106.8523   77.4790 O   0  0  0  0  0  0  0  0  0  0  0  0
    9.6796  107.0094   77.7221 H   0  0  0  0  0  0  0  0  0  0  0  0
    8.0915  107.6530   79.6599 C   0  0  0  0  0  0  0  0  0  0  0  0
    9.4185  108.2045   79.6157 O   0  0  0  0  0  0  0  0  0  0  0  0
   10.0536  107.5449   79.9361 H   0  0  0  0  0  0  0  0  0  0  0  0
    7.7896  107.3345   81.2218 C   0  0  0  0  0  0  0  0  0  0  0  0
    8.6925  107.9368   82.2801 O   0  0  0  0  0  0  0  0  0  0  0  0
    8.7367  109.6006   82.7133 P   0  0  0  0  0  0  0  0  0  0  0  0
    9.7833  110.4520   81.7740 O   0  0  0  0  0  0  0  0  0  0  0  0
    7.2685  110.2571   82.5552 O   0  0  0  0  0  0  0  0  0  0  0  0
    9.2142  109.7373   84.2586 O   0  0  0  0  0  0  0  0  0  0  0  0
    6.9769  110.1787   81.6334 H   0  0  0  0  0  0  0  0  0  0  0  0
    9.2405  110.6745   84.5072 H   0  0  0  0  0  0  0  0  0  0  0  0
    7.9034  102.6590   80.4575 C   0  0  0  0  0  0  0  0  0  0  0  0
    7.1054  101.3854   80.5483 N   0  0  0  0  0  0  0  0  0  0  0  0
    6.2549  101.1913   81.8036 C   0  0  0  0  0  0  0  0  0  0  0  0
    4.9998  102.1039   81.9131 C   0  0  0  0  0  0  0  0  0  0  0  0
    4.3450  102.4449   80.8554 O   0  0  0  0  0  0  0  0  0  0  0  0
    4.6332  102.4476   83.0518 O   0  0  0  0  0  0  0  0  0  0  0  0
    4.6444  102.1717   80.0106 H   0  0  0  0  0  0  0  0  0  0  0  0
    5.1287  102.1852   83.8026 H   0  0  0  0  0  0  0  0  0  0  0  0
    7.9694  100.1588   80.2789 C   0  0  0  0  0  0  0  0  0  0  0  0
    7.0262   98.6752   80.0333 P   0  0  0  0  0  0  0  0  0  0  0  0
    8.1378   97.5492   79.6969 O   0  0  0  0  0  0  0  0  0  0  0  0
    6.1511   98.2081   81.3163 O   0  0  0  0  0  0  0  0  0  0  0  0
    6.0665   98.9302   78.7848 O   0  0  0  0  0  0  0  0  0  0  0  0
    6.7405   98.0549   82.0713 H   0  0  0  0  0  0  0  0  0  0  0  0
    6.5961   99.2091   78.0215 H   0  0  0  0  0  0  0  0  0  0  0  0
 15 16  2  0  0  0
 15 17  1  0  0  0
 15 14  1  0  0  0
 15 18  1  0  0  0
 14 13  1  0  0  0
 13 10  1  0  0  0
 10 11  1  0  0  0
 10  7  1  0  0  0
  7  8  1  0  0  0
  7  4  1  0  0  0
  4  5  1  0  0  0
  4  1  1  0  0  0
  1  2  1  0  0  0
  1 21  1  0  0  0
 21 22  1  0  0  0
 22 23  1  0  0  0
 22 29  1  0  0  0
 23 24  1  0  0  0
 24 25  1  0  0  0
 24 26  1  0  0  0
 29 30  1  0  0  0
 30 31  2  0  0  0
 30 32  1  0  0  0
 30 33  1  0  0  0
 17 19  1  0  0  0
 18 20  1  0  0  0
 11 12  1  0  0  0
  8  9  1  0  0  0
  5  6  1  0  0  0
  2  3  1  0  0  0
 25 27  1  0  0  0
 26 28  1  0  0  0
 32 34  1  0  0  0
 33 35  1  0  0  0
M  END
> <minimizedAffinity>
-7.55758

$$$$
1G7V_PAI_A_300


 35 34  0  0  0  0  0  0  0  0999 V2000
    8.0159  108.2097   78.6781 C   0  0  0  0  0  0  0  0  0  0  0  0
    7.7564  108.4418   77.3045 O   0  0  0  0  0  0  0  0  0  0  0  0
    8.5372  108.1994   76.7825 H   0  0  0  0  0  0  0  0  0  0  0  0
    8.1776  106.6305   78.9978 C   0  0  0  0  0  0  0  0  0  0  0  0
    9.0216  106.6119   80.1879 O   0  0  0  0  0  0  0  0  0  0  0  0
    8.5670  107.0673   80.9138 H   0  0  0  0  0  0  0  0  0  0  0  0
    6.8203  105.7853   79.4799 C   0  0  0  0  0  0  0  0  0  0  0  0
    6.7120  105.9524   80.9117 O   0  0  0  0  0  0  0  0  0  0  0  0
    7.4703  105.5301   81.3448 H   0  0  0  0  0  0  0  0  0  0  0  0
    6.7308  104.1900   79.2595 C   0  0  0  0  0  0  0  0  0  0  0  0
    5.8788  103.6344   80.2757 O   0  0  0  0  0  0  0  0  0  0  0  0
    6.2813  103.7745   81.1471 H   0  0  0  0  0  0  0  0  0  0  0  0
    8.1255  103.3655   79.3431 C   0  0  0  0  0  0  0  0  0  0  0  0
    8.1138  101.8758   79.0634 O   0  0  0  0  0  0  0  0  0  0  0  0
    7.9129  100.6473   80.2502 P   0  0  0  0  0  0  0  0  0  0  0  0
    6.3531  100.5321   80.7565 O   0  0  0  0  0  0  0  0  0  0  0  0
    8.3552   99.2139   79.6493 O   0  0  0  0  0  0  0  0  0  0  0  0
    8.8407  100.9912   81.5368 O   0  0  0  0  0  0  0  0  0  0  0  0
    7.8043   99.0021   78.8795 H   0  0  0  0  0  0  0  0  0  0  0  0
    8.7303  100.3005   82.2089 H   0  0  0  0  0  0  0  0  0  0  0  0
    9.2329  109.1801   78.9999 C   0  0  0  0  0  0  0  0  0  0  0  0
    9.0767  110.2716   80.0253 N   0  0  0  0  0  0  0  0  0  0  0  0
    9.4926  111.6807   79.6028 C   0  0  0  0  0  0  0  0  0  0  0  0
    8.4417  112.7980   79.8621 C   0  0  0  0  0  0  0  0  0  0  0  0
    8.5169  113.9241   79.2378 O   0  0  0  0  0  0  0  0  0  0  0  0
    7.5129  112.5454   80.6513 O   0  0  0  0  0  0  0  0  0  0  0  0
    9.2277  114.0870   78.6493 H   0  0  0  0  0  0  0  0  0  0  0  0
    7.4838  111.7185   81.0912 H   0  0  0  0  0  0  0  0  0  0  0  0
    9.7143  109.8898   81.3561 C   0  0  0  0  0  0  0  0  0  0  0  0
    8.5278  109.4944   82.6158 P   0  0  0  0  0  0  0  0  0  0  0  0
    9.2719  109.8839   83.9983 O   0  0  0  0  0  0  0  0  0  0  0  0
    7.1271  110.3045   82.5061 O   0  0  0  0  0  0  0  0  0  0  0  0
    8.2559  107.9249   82.5288 O   0  0  0  0  0  0  0  0  0  0  0  0
    7.2997  111.2575   82.5597 H   0  0  0  0  0  0  0  0  0  0  0  0
    9.0974  107.4469   82.5950 H   0  0  0  0  0  0  0  0  0  0  0  0
 15 16  2  0  0  0
 15 17  1  0  0  0
 15 14  1  0  0  0
 15 18  1  0  0  0
 14 13  1  0  0  0
 13 10  1  0  0  0
 10 11  1  0  0  0
 10  7  1  0  0  0
  7  8  1  0  0  0
  7  4  1  0  0  0
  4  5  1  0  0  0
  4  1  1  0  0  0
  1  2  1  0  0  0
  1 21  1  0  0  0
 21 22  1  0  0  0
 22 23  1  0  0  0
 22 29  1  0  0  0
 23 24  1  0  0  0
 24 25  1  0  0  0
 24 26  1  0  0  0
 29 30  1  0  0  0
 30 31  2  0  0  0
 30 32  1  0  0  0
 30 33  1  0  0  0
 17 19  1  0  0  0
 18 20  1  0  0  0
 11 12  1  0  0  0
  8  9  1  0  0  0
  5  6  1  0  0  0
  2  3  1  0  0  0
 25 27  1  0  0  0
 26 28  1  0  0  0
 32 34  1  0  0  0
 33 35  1  0  0  0
M  END
> <minimizedAffinity>
-7.44381

$$$$
