6H33_FKQ_A_302


 28 30  0  0  0  0  0  0  0  0999 V2000
   -3.7229    5.1495   13.1916 C   0  0  0  0  0  0  0  0  0  0  0  0
   -3.3567    6.2700   13.5018 O   0  0  0  0  0  0  0  0  0  0  0  0
   -3.6535    4.6996   11.9277 N   0  0  0  0  0  0  0  0  0  0  0  0
   -3.1986    3.3314   11.6354 C   0  0  0  0  0  0  0  0  0  0  0  0
   -1.7128    3.2849   11.3234 C   0  0  0  0  0  0  0  0  0  0  0  0
   -3.3236    5.6267   10.8305 C   0  0  0  0  0  0  0  0  0  0  0  0
   -1.8412    5.6040   10.4887 C   0  0  0  0  0  0  0  0  0  0  0  0
   -1.3730    4.1911   10.1427 C   0  0  0  0  0  0  0  0  0  0  0  0
   -2.1456    3.7468    9.0287 O   0  0  0  0  0  0  0  0  0  0  0  0
   -1.9525    4.3039    8.2584 H   0  0  0  0  0  0  0  0  0  0  0  0
   -5.7190    4.3252   14.4764 C   0  0  0  0  0  0  0  0  0  0  0  0
   -6.3116    3.4737   15.3939 C   0  0  0  0  0  0  0  0  0  0  0  0
   -5.5308    2.5490   16.0710 C   0  0  0  0  0  0  0  0  0  0  0  0
   -4.1666    2.4800   15.8390 C   0  0  0  0  0  0  0  0  0  0  0  0
   -3.5849    3.3353   14.9194 C   0  0  0  0  0  0  0  0  0  0  0  0
   -4.3524    4.2647   14.2261 C   0  0  0  0  0  0  0  0  0  0  0  0
   -6.2864    1.4266   17.2133 S   0  0  0  0  0  0  0  0  0  0  0  0
   -6.1458    1.9988   18.5206 O   0  0  0  0  0  0  0  0  0  0  0  0
   -7.6058    1.1510   16.7330 O   0  0  0  0  0  0  0  0  0  0  0  0
   -5.4673    0.0538   17.2036 N   0  0  0  0  0  0  0  0  0  0  0  0
   -5.5457   -0.3824   16.2849 H   0  0  0  0  0  0  0  0  0  0  0  0
   -5.8478   -0.5741   17.9117 H   0  0  0  0  0  0  0  0  0  0  0  0
    0.1168    4.1513    9.8118 C   0  0  0  0  0  0  0  0  0  0  0  0
    1.0775    4.3273   10.8003 C   0  0  0  0  0  0  0  0  0  0  0  0
    2.4265    4.3632   10.4850 C   0  0  0  0  0  0  0  0  0  0  0  0
    2.8359    4.2202    9.1754 C   0  0  0  0  0  0  0  0  0  0  0  0
    1.8975    4.0408    8.1818 C   0  0  0  0  0  0  0  0  0  0  0  0
    0.5485    4.0057    8.4977 C   0  0  0  0  0  0  0  0  0  0  0  0
 26 25  2  0  0  0
 26 27  1  0  0  0
 25 24  1  0  0  0
 27 28  2  0  0  0
  7  6  1  0  0  0
  7  8  1  0  0  0
 24 23  2  0  0  0
 28 23  1  0  0  0
  6  3  1  0  0  0
 23  8  1  0  0  0
  2  1  2  0  0  0
  8  9  1  0  0  0
  8  5  1  0  0  0
  1  3  1  0  0  0
  1 16  1  0  0  0
  3  4  1  0  0  0
  5  4  1  0  0  0
 16 11  2  0  0  0
 16 15  1  0  0  0
 11 12  1  0  0  0
 15 14  2  0  0  0
 12 13  2  0  0  0
 14 13  1  0  0  0
 13 17  1  0  0  0
 19 17  2  0  0  0
 17 18  2  0  0  0
 17 20  1  0  0  0
  9 10  1  0  0  0
 20 21  1  0  0  0
 20 22  1  0  0  0
M  END
> <minimizedAffinity>
-8.88494

$$$$
6H33_FKQ_A_302


 28 30  0  0  0  0  0  0  0  0999 V2000
   -1.3819    2.1150   11.0727 C   0  0  0  0  0  0  0  0  0  0  0  0
   -0.9599    1.0060   11.3520 O   0  0  0  0  0  0  0  0  0  0  0  0
   -2.6932    2.4060   11.0917 N   0  0  0  0  0  0  0  0  0  0  0  0
   -3.1783    3.6767   11.6526 C   0  0  0  0  0  0  0  0  0  0  0  0
   -3.5845    3.5324   13.1090 C   0  0  0  0  0  0  0  0  0  0  0  0
   -3.6868    1.3290   11.2499 C   0  0  0  0  0  0  0  0  0  0  0  0
   -4.1195    1.1582   12.6986 C   0  0  0  0  0  0  0  0  0  0  0  0
   -4.6641    2.4654   13.2729 C   0  0  0  0  0  0  0  0  0  0  0  0
   -5.7744    2.8555   12.4665 O   0  0  0  0  0  0  0  0  0  0  0  0
   -6.4810    2.1961   12.5484 H   0  0  0  0  0  0  0  0  0  0  0  0
    0.4332    3.7980   11.5055 C   0  0  0  0  0  0  0  0  0  0  0  0
    1.3520    4.7391   11.0715 C   0  0  0  0  0  0  0  0  0  0  0  0
    1.4142    5.0622    9.7243 C   0  0  0  0  0  0  0  0  0  0  0  0
    0.5599    4.4553    8.8180 C   0  0  0  0  0  0  0  0  0  0  0  0
   -0.3539    3.5157    9.2625 C   0  0  0  0  0  0  0  0  0  0  0  0
   -0.4267    3.1740   10.6084 C   0  0  0  0  0  0  0  0  0  0  0  0
    2.6152    6.2316    9.1537 S   0  0  0  0  0  0  0  0  0  0  0  0
    2.0967    6.8138    7.9502 O   0  0  0  0  0  0  0  0  0  0  0  0
    2.9210    7.1000   10.2491 O   0  0  0  0  0  0  0  0  0  0  0  0
    3.9529    5.4471    8.7653 N   0  0  0  0  0  0  0  0  0  0  0  0
    4.3505    5.0185    9.6012 H   0  0  0  0  0  0  0  0  0  0  0  0
    4.6262    6.1005    8.3652 H   0  0  0  0  0  0  0  0  0  0  0  0
   -5.0884    2.3121   14.7313 C   0  0  0  0  0  0  0  0  0  0  0  0
   -4.5607    1.3058   15.5313 C   0  0  0  0  0  0  0  0  0  0  0  0
   -5.0019    1.1244   16.8325 C   0  0  0  0  0  0  0  0  0  0  0  0
   -5.9762    1.9496   17.3550 C   0  0  0  0  0  0  0  0  0  0  0  0
   -6.5086    2.9557   16.5776 C   0  0  0  0  0  0  0  0  0  0  0  0
   -6.0674    3.1361   15.2762 C   0  0  0  0  0  0  0  0  0  0  0  0
 26 25  2  0  0  0
 26 27  1  0  0  0
 25 24  1  0  0  0
 27 28  2  0  0  0
  7  6  1  0  0  0
  7  8  1  0  0  0
 24 23  2  0  0  0
 28 23  1  0  0  0
  6  3  1  0  0  0
 23  8  1  0  0  0
  2  1  2  0  0  0
  8  9  1  0  0  0
  8  5  1  0  0  0
  1  3  1  0  0  0
  1 16  1  0  0  0
  3  4  1  0  0  0
  5  4  1  0  0  0
 16 11  2  0  0  0
 16 15  1  0  0  0
 11 12  1  0  0  0
 15 14  2  0  0  0
 12 13  2  0  0  0
 14 13  1  0  0  0
 13 17  1  0  0  0
 19 17  2  0  0  0
 17 18  2  0  0  0
 17 20  1  0  0  0
  9 10  1  0  0  0
 20 21  1  0  0  0
 20 22  1  0  0  0
M  END
> <minimizedAffinity>
-8.71293

$$$$
6H33_FKQ_A_302


 28 30  0  0  0  0  0  0  0  0999 V2000
   -4.6407    5.5030   13.0424 C   0  0  0  0  0  0  0  0  0  0  0  0
   -5.4565    6.0752   12.3403 O   0  0  0  0  0  0  0  0  0  0  0  0
   -3.3187    5.6998   12.9071 N   0  0  0  0  0  0  0  0  0  0  0  0
   -2.4498    5.8387   14.0862 C   0  0  0  0  0  0  0  0  0  0  0  0
   -2.2360    7.2948   14.4616 C   0  0  0  0  0  0  0  0  0  0  0  0
   -2.7991    6.4619   11.7577 C   0  0  0  0  0  0  0  0  0  0  0  0
   -2.5698    7.9268   12.0993 C   0  0  0  0  0  0  0  0  0  0  0  0
   -1.6333    8.0773   13.2974 C   0  0  0  0  0  0  0  0  0  0  0  0
   -0.3991    7.4488   12.9555 O   0  0  0  0  0  0  0  0  0  0  0  0
    0.0115    7.9235   12.2159 H   0  0  0  0  0  0  0  0  0  0  0  0
   -4.5670    3.1989   14.0426 C   0  0  0  0  0  0  0  0  0  0  0  0
   -4.9587    2.2681   14.9903 C   0  0  0  0  0  0  0  0  0  0  0  0
   -5.9028    2.6196   15.9434 C   0  0  0  0  0  0  0  0  0  0  0  0
   -6.4571    3.8893   15.9456 C   0  0  0  0  0  0  0  0  0  0  0  0
   -6.0579    4.8119   14.9943 C   0  0  0  0  0  0  0  0  0  0  0  0
   -5.1079    4.4800   14.0347 C   0  0  0  0  0  0  0  0  0  0  0  0
   -6.3774    1.4506   17.1858 S   0  0  0  0  0  0  0  0  0  0  0  0
   -6.1007    2.0526   18.4575 O   0  0  0  0  0  0  0  0  0  0  0  0
   -7.7218    1.0493   16.9045 O   0  0  0  0  0  0  0  0  0  0  0  0
   -5.4460    0.1576   17.0582 N   0  0  0  0  0  0  0  0  0  0  0  0
   -5.6171   -0.2976   16.1616 H   0  0  0  0  0  0  0  0  0  0  0  0
   -5.6598   -0.4915   17.8154 H   0  0  0  0  0  0  0  0  0  0  0  0
   -1.4062    9.5426   13.6605 C   0  0  0  0  0  0  0  0  0  0  0  0
   -2.0819   10.5602   12.9980 C   0  0  0  0  0  0  0  0  0  0  0  0
   -1.8195   11.8914   13.2799 C   0  0  0  0  0  0  0  0  0  0  0  0
   -0.8787   12.2256   14.2321 C   0  0  0  0  0  0  0  0  0  0  0  0
   -0.2013   11.2297   14.9023 C   0  0  0  0  0  0  0  0  0  0  0  0
   -0.4637    9.8985   14.6193 C   0  0  0  0  0  0  0  0  0  0  0  0
 26 25  2  0  0  0
 26 27  1  0  0  0
 25 24  1  0  0  0
 27 28  2  0  0  0
  7  6  1  0  0  0
  7  8  1  0  0  0
 24 23  2  0  0  0
 28 23  1  0  0  0
  6  3  1  0  0  0
 23  8  1  0  0  0
  2  1  2  0  0  0
  8  9  1  0  0  0
  8  5  1  0  0  0
  1  3  1  0  0  0
  1 16  1  0  0  0
  3  4  1  0  0  0
  5  4  1  0  0  0
 16 11  2  0  0  0
 16 15  1  0  0  0
 11 12  1  0  0  0
 15 14  2  0  0  0
 12 13  2  0  0  0
 14 13  1  0  0  0
 13 17  1  0  0  0
 19 17  2  0  0  0
 17 18  2  0  0  0
 17 20  1  0  0  0
  9 10  1  0  0  0
 20 21  1  0  0  0
 20 22  1  0  0  0
M  END
> <minimizedAffinity>
-8.60484

$$$$
6H33_FKQ_A_302


 28 30  0  0  0  0  0  0  0  0999 V2000
   -1.9091    5.9508   13.3710 C   0  0  0  0  0  0  0  0  0  0  0  0
   -0.9264    5.3552   13.7776 O   0  0  0  0  0  0  0  0  0  0  0  0
   -2.9843    5.3078   12.8859 N   0  0  0  0  0  0  0  0  0  0  0  0
   -4.3463    5.7433   13.2319 C   0  0  0  0  0  0  0  0  0  0  0  0
   -4.9017    4.9720   14.4166 C   0  0  0  0  0  0  0  0  0  0  0  0
   -2.9262    3.8568   12.6347 C   0  0  0  0  0  0  0  0  0  0  0  0
   -3.4784    3.0517   13.8018 C   0  0  0  0  0  0  0  0  0  0  0  0
   -4.9090    3.4710   14.1377 C   0  0  0  0  0  0  0  0  0  0  0  0
   -5.7009    3.2587   12.9701 O   0  0  0  0  0  0  0  0  0  0  0  0
   -5.7261    2.3110   12.7645 H   0  0  0  0  0  0  0  0  0  0  0  0
   -1.7669    8.1958   14.4910 C   0  0  0  0  0  0  0  0  0  0  0  0
   -1.7046    9.5787   14.4466 C   0  0  0  0  0  0  0  0  0  0  0  0
   -1.7740   10.2266   13.2225 C   0  0  0  0  0  0  0  0  0  0  0  0
   -1.9122    9.4991   12.0515 C   0  0  0  0  0  0  0  0  0  0  0  0
   -1.9727    8.1176   12.1073 C   0  0  0  0  0  0  0  0  0  0  0  0
   -1.8983    7.4499   13.3247 C   0  0  0  0  0  0  0  0  0  0  0  0
   -1.6509   11.9916   13.1520 S   0  0  0  0  0  0  0  0  0  0  0  0
   -2.8718   12.4759   12.5765 O   0  0  0  0  0  0  0  0  0  0  0  0
   -1.2908   12.4479   14.4595 O   0  0  0  0  0  0  0  0  0  0  0  0
   -0.4653   12.3852   12.1545 N   0  0  0  0  0  0  0  0  0  0  0  0
    0.4220   12.0548   12.5340 H   0  0  0  0  0  0  0  0  0  0  0  0
   -0.4330   13.3991   12.0480 H   0  0  0  0  0  0  0  0  0  0  0  0
   -5.4706    2.6810   15.3172 C   0  0  0  0  0  0  0  0  0  0  0  0
   -6.4938    3.1950   16.1045 C   0  0  0  0  0  0  0  0  0  0  0  0
   -6.9509    2.5074   17.2175 C   0  0  0  0  0  0  0  0  0  0  0  0
   -6.3934    1.2925   17.5585 C   0  0  0  0  0  0  0  0  0  0  0  0
   -5.3801    0.7650   16.7871 C   0  0  0  0  0  0  0  0  0  0  0  0
   -4.9229    1.4536   15.6745 C   0  0  0  0  0  0  0  0  0  0  0  0
 26 25  2  0  0  0
 26 27  1  0  0  0
 25 24  1  0  0  0
 27 28  2  0  0  0
  7  6  1  0  0  0
  7  8  1  0  0  0
 24 23  2  0  0  0
 28 23  1  0  0  0
  6  3  1  0  0  0
 23  8  1  0  0  0
  2  1  2  0  0  0
  8  9  1  0  0  0
  8  5  1  0  0  0
  1  3  1  0  0  0
  1 16  1  0  0  0
  3  4  1  0  0  0
  5  4  1  0  0  0
 16 11  2  0  0  0
 16 15  1  0  0  0
 11 12  1  0  0  0
 15 14  2  0  0  0
 12 13  2  0  0  0
 14 13  1  0  0  0
 13 17  1  0  0  0
 19 17  2  0  0  0
 17 18  2  0  0  0
 17 20  1  0  0  0
  9 10  1  0  0  0
 20 21  1  0  0  0
 20 22  1  0  0  0
M  END
> <minimizedAffinity>
-8.00398

$$$$
6H33_FKQ_A_302


 28 30  0  0  0  0  0  0  0  0999 V2000
   -4.0489    4.5883   12.5318 C   0  0  0  0  0  0  0  0  0  0  0  0
   -4.7636    4.9097   11.5982 O   0  0  0  0  0  0  0  0  0  0  0  0
   -2.7453    4.9097   12.5772 N   0  0  0  0  0  0  0  0  0  0  0  0
   -2.1251    5.3807   13.8254 C   0  0  0  0  0  0  0  0  0  0  0  0
   -2.1042    6.8971   13.9082 C   0  0  0  0  0  0  0  0  0  0  0  0
   -2.0847    5.4858   11.3924 C   0  0  0  0  0  0  0  0  0  0  0  0
   -2.0430    7.0059   11.4433 C   0  0  0  0  0  0  0  0  0  0  0  0
   -1.3612    7.5000   12.7185 C   0  0  0  0  0  0  0  0  0  0  0  0
   -0.0378    6.9671   12.7284 O   0  0  0  0  0  0  0  0  0  0  0  0
    0.4631    7.3316   11.9820 H   0  0  0  0  0  0  0  0  0  0  0  0
   -4.1038    2.4587   13.8647 C   0  0  0  0  0  0  0  0  0  0  0  0
   -4.5818    1.6871   14.9106 C   0  0  0  0  0  0  0  0  0  0  0  0
   -5.5759    2.1936   15.7343 C   0  0  0  0  0  0  0  0  0  0  0  0
   -6.0941    3.4589   15.5106 C   0  0  0  0  0  0  0  0  0  0  0  0
   -5.6085    4.2218   14.4628 C   0  0  0  0  0  0  0  0  0  0  0  0
   -4.6076    3.7335   13.6302 C   0  0  0  0  0  0  0  0  0  0  0  0
   -6.1624    1.2320   17.1006 S   0  0  0  0  0  0  0  0  0  0  0  0
   -7.5493    0.9597   16.8588 O   0  0  0  0  0  0  0  0  0  0  0  0
   -5.2716    0.1232   17.2571 O   0  0  0  0  0  0  0  0  0  0  0  0
   -6.0755    2.1183   18.4283 N   0  0  0  0  0  0  0  0  0  0  0  0
   -5.0990    2.3317   18.6312 H   0  0  0  0  0  0  0  0  0  0  0  0
   -6.4800    1.6015   19.2091 H   0  0  0  0  0  0  0  0  0  0  0  0
   -1.3257    9.0245   12.7896 C   0  0  0  0  0  0  0  0  0  0  0  0
   -1.7363    9.7005   13.9322 C   0  0  0  0  0  0  0  0  0  0  0  0
   -1.7715   11.0854   13.9673 C   0  0  0  0  0  0  0  0  0  0  0  0
   -1.3931   11.8163   12.8601 C   0  0  0  0  0  0  0  0  0  0  0  0
   -0.9791   11.1632   11.7190 C   0  0  0  0  0  0  0  0  0  0  0  0
   -0.9448    9.7781   11.6844 C   0  0  0  0  0  0  0  0  0  0  0  0
 26 25  2  0  0  0
 26 27  1  0  0  0
 25 24  1  0  0  0
 27 28  2  0  0  0
  7  6  1  0  0  0
  7  8  1  0  0  0
 24 23  2  0  0  0
 28 23  1  0  0  0
  6  3  1  0  0  0
 23  8  1  0  0  0
  2  1  2  0  0  0
  8  9  1  0  0  0
  8  5  1  0  0  0
  1  3  1  0  0  0
  1 16  1  0  0  0
  3  4  1  0  0  0
  5  4  1  0  0  0
 16 11  2  0  0  0
 16 15  1  0  0  0
 11 12  1  0  0  0
 15 14  2  0  0  0
 12 13  2  0  0  0
 14 13  1  0  0  0
 13 17  1  0  0  0
 19 17  2  0  0  0
 17 18  2  0  0  0
 17 20  1  0  0  0
  9 10  1  0  0  0
 20 21  1  0  0  0
 20 22  1  0  0  0
M  END
> <minimizedAffinity>
-7.89252

$$$$
6H33_FKQ_A_302


 28 30  0  0  0  0  0  0  0  0999 V2000
   -1.0731    3.8800   11.7799 C   0  0  0  0  0  0  0  0  0  0  0  0
   -0.3341    2.9632   12.0945 O   0  0  0  0  0  0  0  0  0  0  0  0
   -2.3930    3.7046   11.6015 N   0  0  0  0  0  0  0  0  0  0  0  0
   -3.3625    4.6872   12.1105 C   0  0  0  0  0  0  0  0  0  0  0  0
   -3.8894    4.3021   13.4820 C   0  0  0  0  0  0  0  0  0  0  0  0
   -2.9610    2.3449   11.5770 C   0  0  0  0  0  0  0  0  0  0  0  0
   -3.5021    1.9265   12.9361 C   0  0  0  0  0  0  0  0  0  0  0  0
   -4.5414    2.9220   13.4501 C   0  0  0  0  0  0  0  0  0  0  0  0
   -5.5958    2.9711   12.4904 O   0  0  0  0  0  0  0  0  0  0  0  0
   -6.0326    2.1062   12.4453 H   0  0  0  0  0  0  0  0  0  0  0  0
   -0.0610    6.0535   12.5324 C   0  0  0  0  0  0  0  0  0  0  0  0
    0.5230    7.2817   12.2708 C   0  0  0  0  0  0  0  0  0  0  0  0
    0.6791    7.6978   10.9571 C   0  0  0  0  0  0  0  0  0  0  0  0
    0.2485    6.8962    9.9124 C   0  0  0  0  0  0  0  0  0  0  0  0
   -0.3332    5.6703   10.1852 C   0  0  0  0  0  0  0  0  0  0  0  0
   -0.4924    5.2333   11.4956 C   0  0  0  0  0  0  0  0  0  0  0  0
    1.4645    9.2466   10.6114 S   0  0  0  0  0  0  0  0  0  0  0  0
    0.5060   10.0595    9.9209 O   0  0  0  0  0  0  0  0  0  0  0  0
    2.0061    9.7359   11.8421 O   0  0  0  0  0  0  0  0  0  0  0  0
    2.6837    8.9928    9.6090 N   0  0  0  0  0  0  0  0  0  0  0  0
    3.3875    8.4154   10.0691 H   0  0  0  0  0  0  0  0  0  0  0  0
    3.0975    9.8865    9.3438 H   0  0  0  0  0  0  0  0  0  0  0  0
   -5.0822    2.5220   14.8205 C   0  0  0  0  0  0  0  0  0  0  0  0
   -6.1707    3.1777   15.3830 C   0  0  0  0  0  0  0  0  0  0  0  0
   -6.6131    2.8609   16.6575 C   0  0  0  0  0  0  0  0  0  0  0  0
   -5.9751    1.8801   17.3885 C   0  0  0  0  0  0  0  0  0  0  0  0
   -4.8960    1.2162   16.8455 C   0  0  0  0  0  0  0  0  0  0  0  0
   -4.4536    1.5340   15.5710 C   0  0  0  0  0  0  0  0  0  0  0  0
 26 25  2  0  0  0
 26 27  1  0  0  0
 25 24  1  0  0  0
 27 28  2  0  0  0
  7  6  1  0  0  0
  7  8  1  0  0  0
 24 23  2  0  0  0
 28 23  1  0  0  0
  6  3  1  0  0  0
 23  8  1  0  0  0
  2  1  2  0  0  0
  8  9  1  0  0  0
  8  5  1  0  0  0
  1  3  1  0  0  0
  1 16  1  0  0  0
  3  4  1  0  0  0
  5  4  1  0  0  0
 16 11  2  0  0  0
 16 15  1  0  0  0
 11 12  1  0  0  0
 15 14  2  0  0  0
 12 13  2  0  0  0
 14 13  1  0  0  0
 13 17  1  0  0  0
 19 17  2  0  0  0
 17 18  2  0  0  0
 17 20  1  0  0  0
  9 10  1  0  0  0
 20 21  1  0  0  0
 20 22  1  0  0  0
M  END
> <minimizedAffinity>
-7.35022

$$$$
6H33_FKQ_A_302


 28 30  0  0  0  0  0  0  0  0999 V2000
   -3.3560    6.5911   13.4791 C   0  0  0  0  0  0  0  0  0  0  0  0
   -4.1625    6.9219   12.6270 O   0  0  0  0  0  0  0  0  0  0  0  0
   -3.5056    5.4729   14.2085 N   0  0  0  0  0  0  0  0  0  0  0  0
   -2.3591    4.5960   14.4931 C   0  0  0  0  0  0  0  0  0  0  0  0
   -2.2522    3.4624   13.4879 C   0  0  0  0  0  0  0  0  0  0  0  0
   -4.7669    4.7132   14.1460 C   0  0  0  0  0  0  0  0  0  0  0  0
   -4.6948    3.5658   13.1494 C   0  0  0  0  0  0  0  0  0  0  0  0
   -3.5305    2.6280   13.4661 C   0  0  0  0  0  0  0  0  0  0  0  0
   -3.7342    2.1263   14.7860 O   0  0  0  0  0  0  0  0  0  0  0  0
   -4.5418    1.5894   14.8069 H   0  0  0  0  0  0  0  0  0  0  0  0
   -1.1621    7.6626   12.8847 C   0  0  0  0  0  0  0  0  0  0  0  0
   -0.1200    8.5353   13.1501 C   0  0  0  0  0  0  0  0  0  0  0  0
   -0.1137    9.2503   14.3384 C   0  0  0  0  0  0  0  0  0  0  0  0
   -1.1371    9.0894   15.2584 C   0  0  0  0  0  0  0  0  0  0  0  0
   -2.1739    8.2151   14.9827 C   0  0  0  0  0  0  0  0  0  0  0  0
   -2.2009    7.4943   13.7939 C   0  0  0  0  0  0  0  0  0  0  0  0
    1.1913   10.4011   14.6668 S   0  0  0  0  0  0  0  0  0  0  0  0
    0.9817   10.9080   15.9917 O   0  0  0  0  0  0  0  0  0  0  0  0
    2.4274    9.7387   14.3828 O   0  0  0  0  0  0  0  0  0  0  0  0
    1.0559   11.6340   13.6583 N   0  0  0  0  0  0  0  0  0  0  0  0
    1.1998   11.3087   12.7023 H   0  0  0  0  0  0  0  0  0  0  0  0
    1.7570   12.3387   13.8867 H   0  0  0  0  0  0  0  0  0  0  0  0
   -3.4373    1.4796   12.4646 C   0  0  0  0  0  0  0  0  0  0  0  0
   -4.2521    0.3596   12.5776 C   0  0  0  0  0  0  0  0  0  0  0  0
   -4.1145   -0.7124   11.7102 C   0  0  0  0  0  0  0  0  0  0  0  0
   -3.1612   -0.6793   10.7135 C   0  0  0  0  0  0  0  0  0  0  0  0
   -2.3465    0.4249   10.5837 C   0  0  0  0  0  0  0  0  0  0  0  0
   -2.4841    1.4965   11.4519 C   0  0  0  0  0  0  0  0  0  0  0  0
 26 25  2  0  0  0
 26 27  1  0  0  0
 25 24  1  0  0  0
 27 28  2  0  0  0
  7  6  1  0  0  0
  7  8  1  0  0  0
 24 23  2  0  0  0
 28 23  1  0  0  0
  6  3  1  0  0  0
 23  8  1  0  0  0
  2  1  2  0  0  0
  8  9  1  0  0  0
  8  5  1  0  0  0
  1  3  1  0  0  0
  1 16  1  0  0  0
  3  4  1  0  0  0
  5  4  1  0  0  0
 16 11  2  0  0  0
 16 15  1  0  0  0
 11 12  1  0  0  0
 15 14  2  0  0  0
 12 13  2  0  0  0
 14 13  1  0  0  0
 13 17  1  0  0  0
 19 17  2  0  0  0
 17 18  2  0  0  0
 17 20  1  0  0  0
  9 10  1  0  0  0
 20 21  1  0  0  0
 20 22  1  0  0  0
M  END
> <minimizedAffinity>
-7.34523

$$$$
6H33_FKQ_A_302


 28 30  0  0  0  0  0  0  0  0999 V2000
   -4.1829    3.2635   11.8365 C   0  0  0  0  0  0  0  0  0  0  0  0
   -4.9690    3.3334   10.9076 O   0  0  0  0  0  0  0  0  0  0  0  0
   -2.8666    3.4783   11.6762 N   0  0  0  0  0  0  0  0  0  0  0  0
   -2.1031    4.2644   12.6579 C   0  0  0  0  0  0  0  0  0  0  0  0
   -1.9970    5.7243   12.2526 C   0  0  0  0  0  0  0  0  0  0  0  0
   -2.2977    3.6018   10.3223 C   0  0  0  0  0  0  0  0  0  0  0  0
   -2.1739    5.0536    9.8840 C   0  0  0  0  0  0  0  0  0  0  0  0
   -1.3453    5.8650   10.8792 C   0  0  0  0  0  0  0  0  0  0  0  0
   -0.0563    5.2584   10.9553 O   0  0  0  0  0  0  0  0  0  0  0  0
    0.3864    5.3309   10.0952 H   0  0  0  0  0  0  0  0  0  0  0  0
   -5.5589    3.6392   13.9054 C   0  0  0  0  0  0  0  0  0  0  0  0
   -6.0537    3.2280   15.1318 C   0  0  0  0  0  0  0  0  0  0  0  0
   -5.6601    2.0041   15.6516 C   0  0  0  0  0  0  0  0  0  0  0  0
   -4.7729    1.1997   14.9549 C   0  0  0  0  0  0  0  0  0  0  0  0
   -4.2851    1.6201   13.7298 C   0  0  0  0  0  0  0  0  0  0  0  0
   -4.6733    2.8411   13.1896 C   0  0  0  0  0  0  0  0  0  0  0  0
   -6.3214    1.4502   17.1980 S   0  0  0  0  0  0  0  0  0  0  0  0
   -6.1543    2.5226   18.1352 O   0  0  0  0  0  0  0  0  0  0  0  0
   -7.6454    0.9683   16.9491 O   0  0  0  0  0  0  0  0  0  0  0  0
   -5.4450    0.2198   17.7211 N   0  0  0  0  0  0  0  0  0  0  0  0
   -5.5405   -0.5643   17.0757 H   0  0  0  0  0  0  0  0  0  0  0  0
   -5.7701   -0.0601   18.6465 H   0  0  0  0  0  0  0  0  0  0  0  0
   -1.2255    7.3278   10.4592 C   0  0  0  0  0  0  0  0  0  0  0  0
   -2.1066    8.2884   10.9408 C   0  0  0  0  0  0  0  0  0  0  0  0
   -2.0402    9.6009   10.5013 C   0  0  0  0  0  0  0  0  0  0  0  0
   -1.0884    9.9740    9.5748 C   0  0  0  0  0  0  0  0  0  0  0  0
   -0.2034    9.0358    9.0887 C   0  0  0  0  0  0  0  0  0  0  0  0
   -0.2708    7.7231    9.5281 C   0  0  0  0  0  0  0  0  0  0  0  0
 26 25  2  0  0  0
 26 27  1  0  0  0
 25 24  1  0  0  0
 27 28  2  0  0  0
  7  6  1  0  0  0
  7  8  1  0  0  0
 24 23  2  0  0  0
 28 23  1  0  0  0
  6  3  1  0  0  0
 23  8  1  0  0  0
  2  1  2  0  0  0
  8  9  1  0  0  0
  8  5  1  0  0  0
  1  3  1  0  0  0
  1 16  1  0  0  0
  3  4  1  0  0  0
  5  4  1  0  0  0
 16 11  2  0  0  0
 16 15  1  0  0  0
 11 12  1  0  0  0
 15 14  2  0  0  0
 12 13  2  0  0  0
 14 13  1  0  0  0
 13 17  1  0  0  0
 19 17  2  0  0  0
 17 18  2  0  0  0
 17 20  1  0  0  0
  9 10  1  0  0  0
 20 21  1  0  0  0
 20 22  1  0  0  0
M  END
> <minimizedAffinity>
-7.28823

$$$$
6H33_FKQ_A_302


 28 30  0  0  0  0  0  0  0  0999 V2000
   -4.3394    4.0830   12.1832 C   0  0  0  0  0  0  0  0  0  0  0  0
   -5.0073    4.9986   11.7346 O   0  0  0  0  0  0  0  0  0  0  0  0
   -3.2631    3.6016   11.5393 N   0  0  0  0  0  0  0  0  0  0  0  0
   -2.0309    3.2671   12.2702 C   0  0  0  0  0  0  0  0  0  0  0  0
   -1.0396    4.4178   12.2620 C   0  0  0  0  0  0  0  0  0  0  0  0
   -2.9754    4.0297   10.1587 C   0  0  0  0  0  0  0  0  0  0  0  0
   -1.9817    5.1810   10.1122 C   0  0  0  0  0  0  0  0  0  0  0  0
   -0.6831    4.8228   10.8338 C   0  0  0  0  0  0  0  0  0  0  0  0
   -0.1398    3.6725   10.1879 O   0  0  0  0  0  0  0  0  0  0  0  0
    0.0981    3.8966    9.2746 H   0  0  0  0  0  0  0  0  0  0  0  0
   -5.6974    4.0040   14.2960 C   0  0  0  0  0  0  0  0  0  0  0  0
   -6.1359    3.3583   15.4400 C   0  0  0  0  0  0  0  0  0  0  0  0
   -5.6430    2.0983   15.7446 C   0  0  0  0  0  0  0  0  0  0  0  0
   -4.7133    1.4906   14.9165 C   0  0  0  0  0  0  0  0  0  0  0  0
   -4.2825    2.1446   13.7754 C   0  0  0  0  0  0  0  0  0  0  0  0
   -4.7701    3.4055   13.4501 C   0  0  0  0  0  0  0  0  0  0  0  0
   -6.2306    1.2465   17.1815 S   0  0  0  0  0  0  0  0  0  0  0  0
   -7.6073    0.9223   16.9447 O   0  0  0  0  0  0  0  0  0  0  0  0
   -5.3188    0.1762   17.4472 O   0  0  0  0  0  0  0  0  0  0  0  0
   -6.1844    2.2469   18.4275 N   0  0  0  0  0  0  0  0  0  0  0  0
   -5.2161    2.4996   18.6249 H   0  0  0  0  0  0  0  0  0  0  0  0
   -6.5902    1.7911   19.2447 H   0  0  0  0  0  0  0  0  0  0  0  0
    0.3179    5.9751   10.8076 C   0  0  0  0  0  0  0  0  0  0  0  0
    1.1462    6.2323   11.8933 C   0  0  0  0  0  0  0  0  0  0  0  0
    2.0017    7.3225   11.8947 C   0  0  0  0  0  0  0  0  0  0  0  0
    2.0443    8.1712   10.8079 C   0  0  0  0  0  0  0  0  0  0  0  0
    1.2328    7.9297    9.7202 C   0  0  0  0  0  0  0  0  0  0  0  0
    0.3769    6.8396    9.7197 C   0  0  0  0  0  0  0  0  0  0  0  0
 26 25  2  0  0  0
 26 27  1  0  0  0
 25 24  1  0  0  0
 27 28  2  0  0  0
  7  6  1  0  0  0
  7  8  1  0  0  0
 24 23  2  0  0  0
 28 23  1  0  0  0
  6  3  1  0  0  0
 23  8  1  0  0  0
  2  1  2  0  0  0
  8  9  1  0  0  0
  8  5  1  0  0  0
  1  3  1  0  0  0
  1 16  1  0  0  0
  3  4  1  0  0  0
  5  4  1  0  0  0
 16 11  2  0  0  0
 16 15  1  0  0  0
 11 12  1  0  0  0
 15 14  2  0  0  0
 12 13  2  0  0  0
 14 13  1  0  0  0
 13 17  1  0  0  0
 19 17  2  0  0  0
 17 18  2  0  0  0
 17 20  1  0  0  0
  9 10  1  0  0  0
 20 21  1  0  0  0
 20 22  1  0  0  0
M  END
> <minimizedAffinity>
-7.27862

$$$$
6H33_FKQ_A_302


 28 30  0  0  0  0  0  0  0  0999 V2000
   -1.8421    6.5197   12.9048 C   0  0  0  0  0  0  0  0  0  0  0  0
   -0.8301    6.0428   13.3889 O   0  0  0  0  0  0  0  0  0  0  0  0
   -2.8703    5.7548   12.5018 N   0  0  0  0  0  0  0  0  0  0  0  0
   -4.2603    6.1463   12.7831 C   0  0  0  0  0  0  0  0  0  0  0  0
   -4.7824    5.5004   14.0548 C   0  0  0  0  0  0  0  0  0  0  0  0
   -2.7214    4.2899   12.4397 C   0  0  0  0  0  0  0  0  0  0  0  0
   -3.2381    3.6086   13.6982 C   0  0  0  0  0  0  0  0  0  0  0  0
   -4.6954    3.9785   13.9713 C   0  0  0  0  0  0  0  0  0  0  0  0
   -5.4586    3.5699   12.8373 O   0  0  0  0  0  0  0  0  0  0  0  0
   -5.4240    2.6040   12.7552 H   0  0  0  0  0  0  0  0  0  0  0  0
   -2.2663    8.4986   11.4154 C   0  0  0  0  0  0  0  0  0  0  0  0
   -2.3909    9.8618   11.2052 C   0  0  0  0  0  0  0  0  0  0  0  0
   -2.1687   10.7382   12.2567 C   0  0  0  0  0  0  0  0  0  0  0  0
   -1.8174   10.2571   13.5076 C   0  0  0  0  0  0  0  0  0  0  0  0
   -1.6964    8.8928   13.7067 C   0  0  0  0  0  0  0  0  0  0  0  0
   -1.9214    7.9983   12.6662 C   0  0  0  0  0  0  0  0  0  0  0  0
   -2.3687   12.4800   12.0088 S   0  0  0  0  0  0  0  0  0  0  0  0
   -1.9074   12.7719   10.6828 O   0  0  0  0  0  0  0  0  0  0  0  0
   -3.7210   12.8073   12.3429 O   0  0  0  0  0  0  0  0  0  0  0  0
   -1.4130   13.2577   13.0274 N   0  0  0  0  0  0  0  0  0  0  0  0
   -1.7132   13.0720   13.9844 H   0  0  0  0  0  0  0  0  0  0  0  0
   -1.4636   14.2597   12.8435 H   0  0  0  0  0  0  0  0  0  0  0  0
   -5.2224    3.3131   15.2401 C   0  0  0  0  0  0  0  0  0  0  0  0
   -4.5797    2.2129   15.7947 C   0  0  0  0  0  0  0  0  0  0  0  0
   -5.1015    1.5670   16.9042 C   0  0  0  0  0  0  0  0  0  0  0  0
   -6.2735    2.0139   17.4786 C   0  0  0  0  0  0  0  0  0  0  0  0
   -6.9230    3.1062   16.9446 C   0  0  0  0  0  0  0  0  0  0  0  0
   -6.4009    3.7513   15.8345 C   0  0  0  0  0  0  0  0  0  0  0  0
 26 25  2  0  0  0
 26 27  1  0  0  0
 25 24  1  0  0  0
 27 28  2  0  0  0
  7  6  1  0  0  0
  7  8  1  0  0  0
 24 23  2  0  0  0
 28 23  1  0  0  0
  6  3  1  0  0  0
 23  8  1  0  0  0
  2  1  2  0  0  0
  8  9  1  0  0  0
  8  5  1  0  0  0
  1  3  1  0  0  0
  1 16  1  0  0  0
  3  4  1  0  0  0
  5  4  1  0  0  0
 16 11  2  0  0  0
 16 15  1  0  0  0
 11 12  1  0  0  0
 15 14  2  0  0  0
 12 13  2  0  0  0
 14 13  1  0  0  0
 13 17  1  0  0  0
 19 17  2  0  0  0
 17 18  2  0  0  0
 17 20  1  0  0  0
  9 10  1  0  0  0
 20 21  1  0  0  0
 20 22  1  0  0  0
M  END
> <minimizedAffinity>
-7.22598

$$$$
