6F05_GTS_A_301


 30 29  0  0  0  0  0  0  0  0999 V2000
  -66.8266  -12.8044  -53.5150 C   0  0  0  0  0  0  0  0  0  0  0  0
  -67.5519  -13.6844  -55.7021 C   0  0  0  0  0  0  0  0  0  0  0  0
  -68.5637  -13.0424  -55.5993 O   0  0  0  0  0  0  0  0  0  0  0  0
  -66.6102  -13.6320  -54.6436 N   0  0  0  0  0  0  0  0  0  0  0  0
  -65.7933  -14.1793  -54.6940 H   0  0  0  0  0  0  0  0  0  0  0  0
  -67.2852  -14.5711  -56.9418 C   0  0  0  0  0  0  0  0  0  0  0  0
  -66.0320  -14.0890  -57.6538 C   0  0  0  0  0  0  0  0  0  0  0  0
  -65.2081  -15.8979  -56.3012 N   0  0  0  0  0  0  0  0  0  0  0  0
  -64.8091  -14.9411  -57.2791 C   0  0  0  0  0  0  0  0  0  0  0  0
  -64.4066  -16.4727  -56.0411 H   0  0  0  0  0  0  0  0  0  0  0  0
  -65.9420  -16.4922  -56.6867 H   0  0  0  0  0  0  0  0  0  0  0  0
  -63.6542  -14.0839  -56.7552 C   0  0  0  0  0  0  0  0  0  0  0  0
  -62.4812  -14.2086  -57.2374 O   0  0  0  0  0  0  0  0  0  0  0  0
  -63.8457  -13.2039  -55.8375 O   0  0  0  0  0  0  0  0  0  0  0  0
  -64.6987  -13.0921  -55.4663 H   0  0  0  0  0  0  0  0  0  0  0  0
  -65.7282  -11.7672  -53.6049 C   0  0  0  0  0  0  0  0  0  0  0  0
  -64.6766  -11.9528  -53.0538 O   0  0  0  0  0  0  0  0  0  0  0  0
  -65.8274  -10.5005  -54.2543 N   0  0  0  0  0  0  0  0  0  0  0  0
  -65.0436   -9.9135  -54.1523 H   0  0  0  0  0  0  0  0  0  0  0  0
  -66.8907   -9.9630  -55.0260 C   0  0  0  0  0  0  0  0  0  0  0  0
  -66.3619  -10.3961  -56.3801 C   0  0  0  0  0  0  0  0  0  0  0  0
  -67.1740  -10.7081  -57.2817 O   0  0  0  0  0  0  0  0  0  0  0  0
  -65.1311  -10.4930  -56.5748 O   0  0  0  0  0  0  0  0  0  0  0  0
  -68.0954  -10.6329  -57.1289 H   0  0  0  0  0  0  0  0  0  0  0  0
  -66.5586  -13.5977  -52.2447 C   0  0  0  0  0  0  0  0  0  0  0  0
  -65.6805  -15.1595  -52.5340 S   0  0  0  0  0  0  0  0  0  0  0  0
  -66.5501  -16.0893  -53.3615 O   0  0  0  0  0  0  0  0  0  0  0  0
  -65.2281  -15.7469  -51.2199 O   0  0  0  0  0  0  0  0  0  0  0  0
  -64.4766  -14.9254  -53.4058 O   0  0  0  0  0  0  0  0  0  0  0  0
  -64.7596  -14.5475  -54.2532 H   0  0  0  0  0  0  0  0  0  0  0  0
  8  9  1  0  0  0
  9 12  1  0  0  0
  9  7  1  0  0  0
 12 13  2  0  0  0
 12 14  1  0  0  0
  7  6  1  0  0  0
  6  2  1  0  0  0
  2  3  2  0  0  0
  2  4  1  0  0  0
  4  1  1  0  0  0
  1 16  1  0  0  0
  1 25  1  0  0  0
 16 17  2  0  0  0
 16 18  1  0  0  0
 25 26  1  0  0  0
 26 27  2  0  0  0
 26 28  2  0  0  0
 26 29  1  0  0  0
 18 20  1  0  0  0
 20 21  1  0  0  0
 21 22  1  0  0  0
 21 23  2  0  0  0
  8 10  1  0  0  0
  8 11  1  0  0  0
 14 15  1  0  0  0
  4  5  1  0  0  0
 29 30  1  0  0  0
 18 19  1  0  0  0
 22 24  1  0  0  0
M  END
> <minimizedAffinity>
0.00000

$$$$
6F05_GTS_A_301


 30 29  0  0  0  0  0  0  0  0999 V2000
  -60.3424  -12.0802  -54.5032 C   0  0  0  0  0  0  0  0  0  0  0  0
  -58.6606  -13.8693  -54.2704 C   0  0  0  0  0  0  0  0  0  0  0  0
  -57.8634  -13.1611  -54.8266 O   0  0  0  0  0  0  0  0  0  0  0  0
  -59.9807  -13.3852  -54.0889 N   0  0  0  0  0  0  0  0  0  0  0  0
  -60.6562  -13.9650  -53.6686 H   0  0  0  0  0  0  0  0  0  0  0  0
  -58.2747  -15.2868  -53.7845 C   0  0  0  0  0  0  0  0  0  0  0  0
  -58.4780  -15.3838  -52.2814 C   0  0  0  0  0  0  0  0  0  0  0  0
  -60.4817  -16.3941  -53.1444 N   0  0  0  0  0  0  0  0  0  0  0  0
  -59.7691  -16.1425  -51.9361 C   0  0  0  0  0  0  0  0  0  0  0  0
  -61.3429  -16.8979  -52.9326 H   0  0  0  0  0  0  0  0  0  0  0  0
  -59.9038  -16.9562  -53.7692 H   0  0  0  0  0  0  0  0  0  0  0  0
  -60.6415  -15.3653  -50.9472 C   0  0  0  0  0  0  0  0  0  0  0  0
  -61.0358  -15.9068  -49.8631 O   0  0  0  0  0  0  0  0  0  0  0  0
  -60.9745  -14.1444  -51.1751 O   0  0  0  0  0  0  0  0  0  0  0  0
  -60.6975  -13.7229  -51.9647 H   0  0  0  0  0  0  0  0  0  0  0  0
  -60.5055  -11.3161  -53.2071 C   0  0  0  0  0  0  0  0  0  0  0  0
  -61.4318  -11.5536  -52.4792 O   0  0  0  0  0  0  0  0  0  0  0  0
  -59.6733  -10.2479  -52.7574 N   0  0  0  0  0  0  0  0  0  0  0  0
  -59.9659   -9.8084  -51.9265 H   0  0  0  0  0  0  0  0  0  0  0  0
  -58.4851   -9.7261  -53.3328 C   0  0  0  0  0  0  0  0  0  0  0  0
  -57.5135  -10.5095  -52.4710 C   0  0  0  0  0  0  0  0  0  0  0  0
  -56.6434  -11.2215  -53.0239 O   0  0  0  0  0  0  0  0  0  0  0  0
  -57.6160  -10.4873  -51.2254 O   0  0  0  0  0  0  0  0  0  0  0  0
  -56.5722  -11.2333  -53.9581 H   0  0  0  0  0  0  0  0  0  0  0  0
  -61.7186  -12.1162  -55.1511 C   0  0  0  0  0  0  0  0  0  0  0  0
  -62.5586  -13.7165  -54.9862 S   0  0  0  0  0  0  0  0  0  0  0  0
  -61.7196  -14.8035  -55.6343 O   0  0  0  0  0  0  0  0  0  0  0  0
  -63.9637  -13.6187  -55.5272 O   0  0  0  0  0  0  0  0  0  0  0  0
  -62.6185  -14.1257  -53.5394 O   0  0  0  0  0  0  0  0  0  0  0  0
  -61.7183  -14.1908  -53.1842 H   0  0  0  0  0  0  0  0  0  0  0  0
  8  9  1  0  0  0
  9 12  1  0  0  0
  9  7  1  0  0  0
 12 13  2  0  0  0
 12 14  1  0  0  0
  7  6  1  0  0  0
  6  2  1  0  0  0
  2  3  2  0  0  0
  2  4  1  0  0  0
  4  1  1  0  0  0
  1 16  1  0  0  0
  1 25  1  0  0  0
 16 17  2  0  0  0
 16 18  1  0  0  0
 25 26  1  0  0  0
 26 27  2  0  0  0
 26 28  2  0  0  0
 26 29  1  0  0  0
 18 20  1  0  0  0
 20 21  1  0  0  0
 21 22  1  0  0  0
 21 23  2  0  0  0
  8 10  1  0  0  0
  8 11  1  0  0  0
 14 15  1  0  0  0
  4  5  1  0  0  0
 29 30  1  0  0  0
 18 19  1  0  0  0
 22 24  1  0  0  0
M  END
> <minimizedAffinity>
0.00805

$$$$
6F05_GTS_A_301


 30 29  0  0  0  0  0  0  0  0999 V2000
  -62.6950   -8.1160  -51.8992 C   0  0  0  0  0  0  0  0  0  0  0  0
  -63.1606   -9.0904  -54.1167 C   0  0  0  0  0  0  0  0  0  0  0  0
  -62.3587   -8.3313  -54.5935 O   0  0  0  0  0  0  0  0  0  0  0  0
  -63.4092   -9.0199  -52.7228 N   0  0  0  0  0  0  0  0  0  0  0  0
  -64.0886   -9.6084  -52.3212 H   0  0  0  0  0  0  0  0  0  0  0  0
  -63.9286  -10.1052  -54.9969 C   0  0  0  0  0  0  0  0  0  0  0  0
  -63.6365  -11.5182  -54.5196 C   0  0  0  0  0  0  0  0  0  0  0  0
  -65.7547  -11.0462  -53.4849 N   0  0  0  0  0  0  0  0  0  0  0  0
  -64.8016  -12.0850  -53.6931 C   0  0  0  0  0  0  0  0  0  0  0  0
  -66.5360  -11.4064  -52.9369 H   0  0  0  0  0  0  0  0  0  0  0  0
  -66.0967  -10.7129  -54.3862 H   0  0  0  0  0  0  0  0  0  0  0  0
  -64.3275  -12.6582  -52.3553 C   0  0  0  0  0  0  0  0  0  0  0  0
  -64.6168  -13.8533  -52.0208 O   0  0  0  0  0  0  0  0  0  0  0  0
  -63.6079  -11.9577  -51.5523 O   0  0  0  0  0  0  0  0  0  0  0  0
  -63.3809  -11.0761  -51.7745 H   0  0  0  0  0  0  0  0  0  0  0  0
  -61.7660   -9.0038  -51.0998 C   0  0  0  0  0  0  0  0  0  0  0  0
  -62.2075   -9.7257  -50.2465 O   0  0  0  0  0  0  0  0  0  0  0  0
  -60.3438   -9.0377  -51.2098 N   0  0  0  0  0  0  0  0  0  0  0  0
  -59.8858   -9.6183  -50.5599 H   0  0  0  0  0  0  0  0  0  0  0  0
  -59.4927   -8.3567  -52.1192 C   0  0  0  0  0  0  0  0  0  0  0  0
  -59.3390   -9.4988  -53.1053 C   0  0  0  0  0  0  0  0  0  0  0  0
  -59.6230   -9.3077  -54.3105 O   0  0  0  0  0  0  0  0  0  0  0  0
  -58.9862  -10.6306  -52.7094 O   0  0  0  0  0  0  0  0  0  0  0  0
  -59.8867   -8.4566  -54.6005 H   0  0  0  0  0  0  0  0  0  0  0  0
  -63.6468   -7.4834  -50.8948 C   0  0  0  0  0  0  0  0  0  0  0  0
  -65.3012   -8.2296  -50.8908 S   0  0  0  0  0  0  0  0  0  0  0  0
  -65.9289   -8.0889  -52.2662 O   0  0  0  0  0  0  0  0  0  0  0  0
  -66.1282   -7.6423  -49.7737 O   0  0  0  0  0  0  0  0  0  0  0  0
  -65.1999   -9.7180  -50.6944 O   0  0  0  0  0  0  0  0  0  0  0  0
  -64.6692  -10.1031  -51.4092 H   0  0  0  0  0  0  0  0  0  0  0  0
  8  9  1  0  0  0
  9 12  1  0  0  0
  9  7  1  0  0  0
 12 13  2  0  0  0
 12 14  1  0  0  0
  7  6  1  0  0  0
  6  2  1  0  0  0
  2  3  2  0  0  0
  2  4  1  0  0  0
  4  1  1  0  0  0
  1 16  1  0  0  0
  1 25  1  0  0  0
 16 17  2  0  0  0
 16 18  1  0  0  0
 25 26  1  0  0  0
 26 27  2  0  0  0
 26 28  2  0  0  0
 26 29  1  0  0  0
 18 20  1  0  0  0
 20 21  1  0  0  0
 21 22  1  0  0  0
 21 23  2  0  0  0
  8 10  1  0  0  0
  8 11  1  0  0  0
 14 15  1  0  0  0
  4  5  1  0  0  0
 29 30  1  0  0  0
 18 19  1  0  0  0
 22 24  1  0  0  0
M  END
> <minimizedAffinity>
0.00900

$$$$
6F05_GTS_A_301


 30 29  0  0  0  0  0  0  0  0999 V2000
  -66.1508  -13.9006  -52.6602 C   0  0  0  0  0  0  0  0  0  0  0  0
  -63.7079  -14.2049  -52.8134 C   0  0  0  0  0  0  0  0  0  0  0  0
  -63.6119  -13.8225  -51.6771 O   0  0  0  0  0  0  0  0  0  0  0  0
  -64.9963  -14.2479  -53.4033 N   0  0  0  0  0  0  0  0  0  0  0  0
  -65.0900  -14.5234  -54.3438 H   0  0  0  0  0  0  0  0  0  0  0  0
  -62.4603  -14.6168  -53.6309 C   0  0  0  0  0  0  0  0  0  0  0  0
  -62.5959  -16.0642  -54.0742 C   0  0  0  0  0  0  0  0  0  0  0  0
  -63.2874  -14.8528  -56.0324 N   0  0  0  0  0  0  0  0  0  0  0  0
  -63.0007  -16.1640  -55.5534 C   0  0  0  0  0  0  0  0  0  0  0  0
  -63.5582  -14.9012  -57.0145 H   0  0  0  0  0  0  0  0  0  0  0  0
  -62.4578  -14.2670  -55.9369 H   0  0  0  0  0  0  0  0  0  0  0  0
  -64.2049  -17.0872  -55.7552 C   0  0  0  0  0  0  0  0  0  0  0  0
  -64.1501  -18.0560  -56.5813 O   0  0  0  0  0  0  0  0  0  0  0  0
  -65.2866  -16.9222  -55.0800 O   0  0  0  0  0  0  0  0  0  0  0  0
  -65.3527  -16.2175  -54.4660 H   0  0  0  0  0  0  0  0  0  0  0  0
  -66.8524  -15.2222  -52.4336 C   0  0  0  0  0  0  0  0  0  0  0  0
  -67.3787  -15.7911  -53.3520 O   0  0  0  0  0  0  0  0  0  0  0  0
  -67.0199  -15.8734  -51.1751 N   0  0  0  0  0  0  0  0  0  0  0  0
  -67.5691  -16.6902  -51.1944 H   0  0  0  0  0  0  0  0  0  0  0  0
  -66.5104  -15.5158  -49.8993 C   0  0  0  0  0  0  0  0  0  0  0  0
  -65.3018  -16.4316  -49.9293 C   0  0  0  0  0  0  0  0  0  0  0  0
  -64.1614  -15.9443  -49.7515 O   0  0  0  0  0  0  0  0  0  0  0  0
  -65.4385  -17.6479  -50.1831 O   0  0  0  0  0  0  0  0  0  0  0  0
  -64.0663  -15.0316  -49.5616 H   0  0  0  0  0  0  0  0  0  0  0  0
  -67.0825  -13.0685  -53.5288 C   0  0  0  0  0  0  0  0  0  0  0  0
  -66.5704  -12.9801  -55.2676 S   0  0  0  0  0  0  0  0  0  0  0  0
  -65.1867  -12.3623  -55.3624 O   0  0  0  0  0  0  0  0  0  0  0  0
  -67.6217  -12.2628  -56.0782 O   0  0  0  0  0  0  0  0  0  0  0  0
  -66.3828  -14.3650  -55.8255 O   0  0  0  0  0  0  0  0  0  0  0  0
  -65.7079  -14.8329  -55.3092 H   0  0  0  0  0  0  0  0  0  0  0  0
  8  9  1  0  0  0
  9 12  1  0  0  0
  9  7  1  0  0  0
 12 13  2  0  0  0
 12 14  1  0  0  0
  7  6  1  0  0  0
  6  2  1  0  0  0
  2  3  2  0  0  0
  2  4  1  0  0  0
  4  1  1  0  0  0
  1 16  1  0  0  0
  1 25  1  0  0  0
 16 17  2  0  0  0
 16 18  1  0  0  0
 25 26  1  0  0  0
 26 27  2  0  0  0
 26 28  2  0  0  0
 26 29  1  0  0  0
 18 20  1  0  0  0
 20 21  1  0  0  0
 21 22  1  0  0  0
 21 23  2  0  0  0
  8 10  1  0  0  0
  8 11  1  0  0  0
 14 15  1  0  0  0
  4  5  1  0  0  0
 29 30  1  0  0  0
 18 19  1  0  0  0
 22 24  1  0  0  0
M  END
> <minimizedAffinity>
0.00926

$$$$
6F05_GTS_A_301


 30 29  0  0  0  0  0  0  0  0999 V2000
  -57.6032  -12.6321  -50.9279 C   0  0  0  0  0  0  0  0  0  0  0  0
  -58.2999  -14.9724  -50.5799 C   0  0  0  0  0  0  0  0  0  0  0  0
  -57.5831  -15.0185  -49.6152 O   0  0  0  0  0  0  0  0  0  0  0  0
  -58.3433  -13.7704  -51.3304 N   0  0  0  0  0  0  0  0  0  0  0  0
  -58.8963  -13.7264  -52.1437 H   0  0  0  0  0  0  0  0  0  0  0  0
  -59.1386  -16.1970  -51.0171 C   0  0  0  0  0  0  0  0  0  0  0  0
  -60.6141  -15.8325  -51.0137 C   0  0  0  0  0  0  0  0  0  0  0  0
  -60.0261  -15.6025  -53.3336 N   0  0  0  0  0  0  0  0  0  0  0  0
  -61.1338  -15.5774  -52.4374 C   0  0  0  0  0  0  0  0  0  0  0  0
  -60.3543  -15.4346  -54.2846 H   0  0  0  0  0  0  0  0  0  0  0  0
  -59.5716  -16.5145  -53.2868 H   0  0  0  0  0  0  0  0  0  0  0  0
  -61.8825  -14.2464  -52.5423 C   0  0  0  0  0  0  0  0  0  0  0  0
  -63.0654  -14.2013  -53.0141 O   0  0  0  0  0  0  0  0  0  0  0  0
  -61.3464  -13.1509  -52.1352 O   0  0  0  0  0  0  0  0  0  0  0  0
  -60.4777  -13.1566  -51.7840 H   0  0  0  0  0  0  0  0  0  0  0  0
  -58.6567  -11.6681  -50.4266 C   0  0  0  0  0  0  0  0  0  0  0  0
  -59.4134  -11.1457  -51.2003 O   0  0  0  0  0  0  0  0  0  0  0  0
  -58.8224  -11.2415  -49.0752 N   0  0  0  0  0  0  0  0  0  0  0  0
  -59.5092  -10.5504  -48.9339 H   0  0  0  0  0  0  0  0  0  0  0  0
  -58.1418  -11.6676  -47.9046 C   0  0  0  0  0  0  0  0  0  0  0  0
  -59.1817  -12.6753  -47.4534 C   0  0  0  0  0  0  0  0  0  0  0  0
  -58.8345  -13.8616  -47.2490 O   0  0  0  0  0  0  0  0  0  0  0  0
  -60.3798  -12.3375  -47.3406 O   0  0  0  0  0  0  0  0  0  0  0  0
  -57.9346  -14.1079  -47.3353 H   0  0  0  0  0  0  0  0  0  0  0  0
  -56.9748  -11.9771  -52.1490 C   0  0  0  0  0  0  0  0  0  0  0  0
  -57.5409  -12.6799  -53.7236 S   0  0  0  0  0  0  0  0  0  0  0  0
  -57.2016  -14.1590  -53.7748 O   0  0  0  0  0  0  0  0  0  0  0  0
  -56.9826  -11.8801  -54.8749 O   0  0  0  0  0  0  0  0  0  0  0  0
  -59.0438  -12.6550  -53.7938 O   0  0  0  0  0  0  0  0  0  0  0  0
  -59.4104  -13.1675  -53.0564 H   0  0  0  0  0  0  0  0  0  0  0  0
  8  9  1  0  0  0
  9 12  1  0  0  0
  9  7  1  0  0  0
 12 13  2  0  0  0
 12 14  1  0  0  0
  7  6  1  0  0  0
  6  2  1  0  0  0
  2  3  2  0  0  0
  2  4  1  0  0  0
  4  1  1  0  0  0
  1 16  1  0  0  0
  1 25  1  0  0  0
 16 17  2  0  0  0
 16 18  1  0  0  0
 25 26  1  0  0  0
 26 27  2  0  0  0
 26 28  2  0  0  0
 26 29  1  0  0  0
 18 20  1  0  0  0
 20 21  1  0  0  0
 21 22  1  0  0  0
 21 23  2  0  0  0
  8 10  1  0  0  0
  8 11  1  0  0  0
 14 15  1  0  0  0
  4  5  1  0  0  0
 29 30  1  0  0  0
 18 19  1  0  0  0
 22 24  1  0  0  0
M  END
> <minimizedAffinity>
0.00929

$$$$
6F05_GTS_A_301


 30 29  0  0  0  0  0  0  0  0999 V2000
  -65.5957  -10.8225  -51.6792 C   0  0  0  0  0  0  0  0  0  0  0  0
  -65.0562   -8.7693  -52.9349 C   0  0  0  0  0  0  0  0  0  0  0  0
  -65.8203   -8.1646  -52.2301 O   0  0  0  0  0  0  0  0  0  0  0  0
  -64.9056  -10.1634  -52.7255 N   0  0  0  0  0  0  0  0  0  0  0  0
  -64.3122  -10.6811  -53.3164 H   0  0  0  0  0  0  0  0  0  0  0  0
  -64.2712   -8.0598  -54.0640 C   0  0  0  0  0  0  0  0  0  0  0  0
  -62.7786   -8.2173  -53.8245 C   0  0  0  0  0  0  0  0  0  0  0  0
  -63.2328   -9.9423  -55.4365 N   0  0  0  0  0  0  0  0  0  0  0  0
  -62.1728   -9.2937  -54.7390 C   0  0  0  0  0  0  0  0  0  0  0  0
  -62.8471  -10.6610  -56.0490 H   0  0  0  0  0  0  0  0  0  0  0  0
  -63.7418   -9.2571  -55.9948 H   0  0  0  0  0  0  0  0  0  0  0  0
  -61.3429  -10.3111  -53.9519 C   0  0  0  0  0  0  0  0  0  0  0  0
  -60.1361  -10.5578  -54.2786 O   0  0  0  0  0  0  0  0  0  0  0  0
  -61.8348  -10.9194  -52.9314 O   0  0  0  0  0  0  0  0  0  0  0  0
  -62.7196  -10.7559  -52.6701 H   0  0  0  0  0  0  0  0  0  0  0  0
  -64.5134  -11.1438  -50.6713 C   0  0  0  0  0  0  0  0  0  0  0  0
  -63.6931  -11.9874  -50.9153 O   0  0  0  0  0  0  0  0  0  0  0  0
  -64.3865  -10.5699  -49.3712 N   0  0  0  0  0  0  0  0  0  0  0  0
  -63.6688  -10.9477  -48.8133 H   0  0  0  0  0  0  0  0  0  0  0  0
  -65.1438   -9.5338  -48.7644 C   0  0  0  0  0  0  0  0  0  0  0  0
  -64.1792   -8.4054  -49.0754 C   0  0  0  0  0  0  0  0  0  0  0  0
  -64.5961   -7.3980  -49.6926 O   0  0  0  0  0  0  0  0  0  0  0  0
  -62.9718   -8.5052  -48.7677 O   0  0  0  0  0  0  0  0  0  0  0  0
  -65.5025   -7.3298  -49.9201 H   0  0  0  0  0  0  0  0  0  0  0  0
  -66.1201  -12.1600  -52.1802 C   0  0  0  0  0  0  0  0  0  0  0  0
  -65.5173  -12.6045  -53.8333 S   0  0  0  0  0  0  0  0  0  0  0  0
  -65.9411  -11.5444  -54.8343 O   0  0  0  0  0  0  0  0  0  0  0  0
  -65.9673  -14.0005  -54.1875 O   0  0  0  0  0  0  0  0  0  0  0  0
  -64.0139  -12.5508  -53.8705 O   0  0  0  0  0  0  0  0  0  0  0  0
  -63.7166  -11.6558  -53.6437 H   0  0  0  0  0  0  0  0  0  0  0  0
  8  9  1  0  0  0
  9 12  1  0  0  0
  9  7  1  0  0  0
 12 13  2  0  0  0
 12 14  1  0  0  0
  7  6  1  0  0  0
  6  2  1  0  0  0
  2  3  2  0  0  0
  2  4  1  0  0  0
  4  1  1  0  0  0
  1 16  1  0  0  0
  1 25  1  0  0  0
 16 17  2  0  0  0
 16 18  1  0  0  0
 25 26  1  0  0  0
 26 27  2  0  0  0
 26 28  2  0  0  0
 26 29  1  0  0  0
 18 20  1  0  0  0
 20 21  1  0  0  0
 21 22  1  0  0  0
 21 23  2  0  0  0
  8 10  1  0  0  0
  8 11  1  0  0  0
 14 15  1  0  0  0
  4  5  1  0  0  0
 29 30  1  0  0  0
 18 19  1  0  0  0
 22 24  1  0  0  0
M  END
> <minimizedAffinity>
0.00938

$$$$
6F05_GTS_A_301


 30 29  0  0  0  0  0  0  0  0999 V2000
  -65.4354   -9.1510  -47.1157 C   0  0  0  0  0  0  0  0  0  0  0  0
  -64.4228  -11.3062  -46.4728 C   0  0  0  0  0  0  0  0  0  0  0  0
  -64.8191  -11.1318  -45.3507 O   0  0  0  0  0  0  0  0  0  0  0  0
  -64.6826  -10.3051  -47.4424 N   0  0  0  0  0  0  0  0  0  0  0  0
  -64.3343  -10.4139  -48.3568 H   0  0  0  0  0  0  0  0  0  0  0  0
  -63.6242  -12.5753  -46.8549 C   0  0  0  0  0  0  0  0  0  0  0  0
  -64.3612  -13.3322  -47.9475 C   0  0  0  0  0  0  0  0  0  0  0  0
  -62.7074  -12.1052  -49.1883 N   0  0  0  0  0  0  0  0  0  0  0  0
  -63.7191  -13.0997  -49.3242 C   0  0  0  0  0  0  0  0  0  0  0  0
  -62.2704  -11.9387  -50.0948 H   0  0  0  0  0  0  0  0  0  0  0  0
  -62.0023  -12.4260  -48.5248 H   0  0  0  0  0  0  0  0  0  0  0  0
  -64.7519  -12.6787  -50.3727 C   0  0  0  0  0  0  0  0  0  0  0  0
  -64.8630  -13.3182  -51.4693 O   0  0  0  0  0  0  0  0  0  0  0  0
  -65.5452  -11.6892  -50.1610 O   0  0  0  0  0  0  0  0  0  0  0  0
  -65.4844  -11.2024  -49.3626 H   0  0  0  0  0  0  0  0  0  0  0  0
  -66.7556   -9.3614  -47.8251 C   0  0  0  0  0  0  0  0  0  0  0  0
  -66.8143   -9.2917  -49.0234 O   0  0  0  0  0  0  0  0  0  0  0  0
  -68.0158   -9.5854  -47.1945 N   0  0  0  0  0  0  0  0  0  0  0  0
  -68.7888   -9.6254  -47.8028 H   0  0  0  0  0  0  0  0  0  0  0  0
  -68.3179   -9.7590  -45.8184 C   0  0  0  0  0  0  0  0  0  0  0  0
  -68.3472  -11.2753  -45.8346 C   0  0  0  0  0  0  0  0  0  0  0  0
  -67.6158  -11.9091  -45.0389 O   0  0  0  0  0  0  0  0  0  0  0  0
  -69.0514  -11.8835  -46.6692 O   0  0  0  0  0  0  0  0  0  0  0  0
  -67.0906  -11.4467  -44.4158 H   0  0  0  0  0  0  0  0  0  0  0  0
  -64.7972   -7.9292  -47.7596 C   0  0  0  0  0  0  0  0  0  0  0  0
  -63.4540   -8.3322  -48.9117 S   0  0  0  0  0  0  0  0  0  0  0  0
  -62.3595   -9.0861  -48.1774 O   0  0  0  0  0  0  0  0  0  0  0  0
  -62.9791   -7.0802  -49.6072 O   0  0  0  0  0  0  0  0  0  0  0  0
  -63.9332   -9.3147  -49.9458 O   0  0  0  0  0  0  0  0  0  0  0  0
  -64.2404  -10.1229  -49.5061 H   0  0  0  0  0  0  0  0  0  0  0  0
  8  9  1  0  0  0
  9 12  1  0  0  0
  9  7  1  0  0  0
 12 13  2  0  0  0
 12 14  1  0  0  0
  7  6  1  0  0  0
  6  2  1  0  0  0
  2  3  2  0  0  0
  2  4  1  0  0  0
  4  1  1  0  0  0
  1 16  1  0  0  0
  1 25  1  0  0  0
 16 17  2  0  0  0
 16 18  1  0  0  0
 25 26  1  0  0  0
 26 27  2  0  0  0
 26 28  2  0  0  0
 26 29  1  0  0  0
 18 20  1  0  0  0
 20 21  1  0  0  0
 21 22  1  0  0  0
 21 23  2  0  0  0
  8 10  1  0  0  0
  8 11  1  0  0  0
 14 15  1  0  0  0
  4  5  1  0  0  0
 29 30  1  0  0  0
 18 19  1  0  0  0
 22 24  1  0  0  0
M  END
> <minimizedAffinity>
0.00947

$$$$
6F05_GTS_A_301


 30 29  0  0  0  0  0  0  0  0999 V2000
  -61.9947  -14.2570  -50.4476 C   0  0  0  0  0  0  0  0  0  0  0  0
  -60.9580  -15.3757  -52.3860 C   0  0  0  0  0  0  0  0  0  0  0  0
  -61.5323  -16.3873  -52.0806 O   0  0  0  0  0  0  0  0  0  0  0  0
  -61.1287  -14.2306  -51.5678 N   0  0  0  0  0  0  0  0  0  0  0  0
  -60.6379  -13.4044  -51.7817 H   0  0  0  0  0  0  0  0  0  0  0  0
  -60.0311  -15.3202  -53.6238 C   0  0  0  0  0  0  0  0  0  0  0  0
  -60.5404  -14.2687  -54.5958 C   0  0  0  0  0  0  0  0  0  0  0  0
  -58.7941  -13.0979  -53.4297 N   0  0  0  0  0  0  0  0  0  0  0  0
  -59.7079  -12.9792  -54.5167 C   0  0  0  0  0  0  0  0  0  0  0  0
  -58.2328  -12.2489  -53.3631 H   0  0  0  0  0  0  0  0  0  0  0  0
  -58.1820  -13.8988  -53.5860 H   0  0  0  0  0  0  0  0  0  0  0  0
  -60.5895  -11.7394  -54.3474 C   0  0  0  0  0  0  0  0  0  0  0  0
  -60.4873  -10.7545  -55.1495 O   0  0  0  0  0  0  0  0  0  0  0  0
  -61.4676  -11.6740  -53.4103 O   0  0  0  0  0  0  0  0  0  0  0  0
  -61.5630  -12.3847  -52.8072 H   0  0  0  0  0  0  0  0  0  0  0  0
  -63.1724  -13.4077  -50.8743 C   0  0  0  0  0  0  0  0  0  0  0  0
  -63.0478  -12.2181  -50.9900 O   0  0  0  0  0  0  0  0  0  0  0  0
  -64.4990  -13.8777  -51.1089 N   0  0  0  0  0  0  0  0  0  0  0  0
  -65.1638  -13.1787  -51.3057 H   0  0  0  0  0  0  0  0  0  0  0  0
  -65.0006  -15.2057  -51.1001 C   0  0  0  0  0  0  0  0  0  0  0  0
  -64.9274  -15.4314  -52.5982 C   0  0  0  0  0  0  0  0  0  0  0  0
  -64.2899  -16.4166  -53.0371 O   0  0  0  0  0  0  0  0  0  0  0  0
  -65.4505  -14.6135  -53.3854 O   0  0  0  0  0  0  0  0  0  0  0  0
  -63.9003  -17.0258  -52.4412 H   0  0  0  0  0  0  0  0  0  0  0  0
  -61.3425  -13.5249  -49.2842 C   0  0  0  0  0  0  0  0  0  0  0  0
  -59.8138  -12.6573  -49.7358 S   0  0  0  0  0  0  0  0  0  0  0  0
  -58.8009  -13.6523  -50.2738 O   0  0  0  0  0  0  0  0  0  0  0  0
  -59.3172  -11.8456  -48.5648 O   0  0  0  0  0  0  0  0  0  0  0  0
  -60.0630  -11.7361  -50.8993 O   0  0  0  0  0  0  0  0  0  0  0  0
  -60.3828  -12.2510  -51.6566 H   0  0  0  0  0  0  0  0  0  0  0  0
  8  9  1  0  0  0
  9 12  1  0  0  0
  9  7  1  0  0  0
 12 13  2  0  0  0
 12 14  1  0  0  0
  7  6  1  0  0  0
  6  2  1  0  0  0
  2  3  2  0  0  0
  2  4  1  0  0  0
  4  1  1  0  0  0
  1 16  1  0  0  0
  1 25  1  0  0  0
 16 17  2  0  0  0
 16 18  1  0  0  0
 25 26  1  0  0  0
 26 27  2  0  0  0
 26 28  2  0  0  0
 26 29  1  0  0  0
 18 20  1  0  0  0
 20 21  1  0  0  0
 21 22  1  0  0  0
 21 23  2  0  0  0
  8 10  1  0  0  0
  8 11  1  0  0  0
 14 15  1  0  0  0
  4  5  1  0  0  0
 29 30  1  0  0  0
 18 19  1  0  0  0
 22 24  1  0  0  0
M  END
> <minimizedAffinity>
0.00972

$$$$
6F05_GTS_A_301


 30 29  0  0  0  0  0  0  0  0999 V2000
  -58.9459  -10.4654  -51.7633 C   0  0  0  0  0  0  0  0  0  0  0  0
  -57.1315  -10.7331  -50.1141 C   0  0  0  0  0  0  0  0  0  0  0  0
  -56.9002   -9.5568  -50.2114 O   0  0  0  0  0  0  0  0  0  0  0  0
  -58.1660  -11.2847  -50.9112 N   0  0  0  0  0  0  0  0  0  0  0  0
  -58.3450  -12.2520  -50.8717 H   0  0  0  0  0  0  0  0  0  0  0  0
  -56.3090  -11.6380  -49.1659 C   0  0  0  0  0  0  0  0  0  0  0  0
  -57.2337  -12.2821  -48.1461 C   0  0  0  0  0  0  0  0  0  0  0  0
  -56.9703  -14.0231  -49.7830 N   0  0  0  0  0  0  0  0  0  0  0  0
  -57.5295  -13.7477  -48.5015 C   0  0  0  0  0  0  0  0  0  0  0  0
  -57.1581  -14.9937  -50.0345 H   0  0  0  0  0  0  0  0  0  0  0  0
  -55.9626  -13.8681  -49.7547 H   0  0  0  0  0  0  0  0  0  0  0  0
  -59.0309  -14.0460  -48.4927 C   0  0  0  0  0  0  0  0  0  0  0  0
  -59.4990  -15.0058  -47.7972 O   0  0  0  0  0  0  0  0  0  0  0  0
  -59.8540  -13.3220  -49.1647 O   0  0  0  0  0  0  0  0  0  0  0  0
  -59.5356  -12.6101  -49.6841 H   0  0  0  0  0  0  0  0  0  0  0  0
  -60.2972  -10.4115  -51.0842 C   0  0  0  0  0  0  0  0  0  0  0  0
  -60.9979  -11.3875  -51.0568 O   0  0  0  0  0  0  0  0  0  0  0  0
  -60.8896   -9.2552  -50.4944 N   0  0  0  0  0  0  0  0  0  0  0  0
  -61.8088   -9.3765  -50.1632 H   0  0  0  0  0  0  0  0  0  0  0  0
  -60.3476   -7.9555  -50.3154 C   0  0  0  0  0  0  0  0  0  0  0  0
  -59.8952   -8.1496  -48.8807 C   0  0  0  0  0  0  0  0  0  0  0  0
  -58.6968   -7.9364  -48.5839 O   0  0  0  0  0  0  0  0  0  0  0  0
  -60.6964   -8.5699  -48.0183 O   0  0  0  0  0  0  0  0  0  0  0  0
  -58.1017   -7.6213  -49.2354 H   0  0  0  0  0  0  0  0  0  0  0  0
  -59.1654  -11.1767  -53.0903 C   0  0  0  0  0  0  0  0  0  0  0  0
  -58.5924  -12.8987  -53.0961 S   0  0  0  0  0  0  0  0  0  0  0  0
  -57.1047  -12.9436  -52.7957 O   0  0  0  0  0  0  0  0  0  0  0  0
  -58.9789  -13.5657  -54.3932 O   0  0  0  0  0  0  0  0  0  0  0  0
  -59.2112  -13.6565  -51.9527 O   0  0  0  0  0  0  0  0  0  0  0  0
  -58.9671  -13.2334  -51.1147 H   0  0  0  0  0  0  0  0  0  0  0  0
  8  9  1  0  0  0
  9 12  1  0  0  0
  9  7  1  0  0  0
 12 13  2  0  0  0
 12 14  1  0  0  0
  7  6  1  0  0  0
  6  2  1  0  0  0
  2  3  2  0  0  0
  2  4  1  0  0  0
  4  1  1  0  0  0
  1 16  1  0  0  0
  1 25  1  0  0  0
 16 17  2  0  0  0
 16 18  1  0  0  0
 25 26  1  0  0  0
 26 27  2  0  0  0
 26 28  2  0  0  0
 26 29  1  0  0  0
 18 20  1  0  0  0
 20 21  1  0  0  0
 21 22  1  0  0  0
 21 23  2  0  0  0
  8 10  1  0  0  0
  8 11  1  0  0  0
 14 15  1  0  0  0
  4  5  1  0  0  0
 29 30  1  0  0  0
 18 19  1  0  0  0
 22 24  1  0  0  0
M  END
> <minimizedAffinity>
0.01007

$$$$
6F05_GTS_A_301


 30 29  0  0  0  0  0  0  0  0999 V2000
  -61.5785   -8.9775  -55.8522 C   0  0  0  0  0  0  0  0  0  0  0  0
  -60.9983  -10.9695  -54.5184 C   0  0  0  0  0  0  0  0  0  0  0  0
  -61.8223  -11.5934  -55.1335 O   0  0  0  0  0  0  0  0  0  0  0  0
  -60.8323   -9.5939  -54.8184 N   0  0  0  0  0  0  0  0  0  0  0  0
  -60.1884   -9.0590  -54.3002 H   0  0  0  0  0  0  0  0  0  0  0  0
  -60.1529  -11.6339  -53.4057 C   0  0  0  0  0  0  0  0  0  0  0  0
  -58.6775  -11.5305  -53.7555 C   0  0  0  0  0  0  0  0  0  0  0  0
  -58.9790   -9.7033  -52.2223 N   0  0  0  0  0  0  0  0  0  0  0  0
  -57.9852  -10.4190  -52.9511 C   0  0  0  0  0  0  0  0  0  0  0  0
  -58.5354   -8.9605  -51.6820 H   0  0  0  0  0  0  0  0  0  0  0  0
  -59.4624  -10.3413  -51.5902 H   0  0  0  0  0  0  0  0  0  0  0  0
  -57.1905   -9.4712  -53.8530 C   0  0  0  0  0  0  0  0  0  0  0  0
  -55.9590   -9.2365  -53.6247 O   0  0  0  0  0  0  0  0  0  0  0  0
  -57.7390   -8.9118  -54.8726 O   0  0  0  0  0  0  0  0  0  0  0  0
  -58.6431   -9.0678  -55.0627 H   0  0  0  0  0  0  0  0  0  0  0  0
  -60.5623   -8.7447  -56.9493 C   0  0  0  0  0  0  0  0  0  0  0  0
  -59.7119   -7.9061  -56.8158 O   0  0  0  0  0  0  0  0  0  0  0  0
  -60.5355   -9.4018  -58.2155 N   0  0  0  0  0  0  0  0  0  0  0  0
  -59.8510   -9.0760  -58.8436 H   0  0  0  0  0  0  0  0  0  0  0  0
  -61.3514  -10.4566  -58.7021 C   0  0  0  0  0  0  0  0  0  0  0  0
  -60.3846  -11.5837  -58.3935 C   0  0  0  0  0  0  0  0  0  0  0  0
  -60.7718  -12.5453  -57.6899 O   0  0  0  0  0  0  0  0  0  0  0  0
  -59.2009  -11.5256  -58.7908 O   0  0  0  0  0  0  0  0  0  0  0  0
  -61.6606  -12.5825  -57.3956 H   0  0  0  0  0  0  0  0  0  0  0  0
  -62.0351   -7.5995  -55.3968 C   0  0  0  0  0  0  0  0  0  0  0  0
  -61.3076   -7.0770  -53.8183 S   0  0  0  0  0  0  0  0  0  0  0  0
  -61.6836   -8.0664  -52.7296 O   0  0  0  0  0  0  0  0  0  0  0  0
  -61.7002   -5.6516  -53.5170 O   0  0  0  0  0  0  0  0  0  0  0  0
  -59.8070   -7.1683  -53.8818 O   0  0  0  0  0  0  0  0  0  0  0  0
  -59.5465   -8.0824  -54.0753 H   0  0  0  0  0  0  0  0  0  0  0  0
  8  9  1  0  0  0
  9 12  1  0  0  0
  9  7  1  0  0  0
 12 13  2  0  0  0
 12 14  1  0  0  0
  7  6  1  0  0  0
  6  2  1  0  0  0
  2  3  2  0  0  0
  2  4  1  0  0  0
  4  1  1  0  0  0
  1 16  1  0  0  0
  1 25  1  0  0  0
 16 17  2  0  0  0
 16 18  1  0  0  0
 25 26  1  0  0  0
 26 27  2  0  0  0
 26 28  2  0  0  0
 26 29  1  0  0  0
 18 20  1  0  0  0
 20 21  1  0  0  0
 21 22  1  0  0  0
 21 23  2  0  0  0
  8 10  1  0  0  0
  8 11  1  0  0  0
 14 15  1  0  0  0
  4  5  1  0  0  0
 29 30  1  0  0  0
 18 19  1  0  0  0
 22 24  1  0  0  0
M  END
> <minimizedAffinity>
0.01047

$$$$
