3EBL_GA4_A_401


 26 30  0  0  0  0  0  0  0  0999 V2000
   30.4382   46.0748   14.6982 C   0  0  0  0  0  0  0  0  0  0  0  0
   29.3433   45.6862   13.7078 C   0  0  0  0  0  0  0  0  0  0  0  0
   29.6611   44.3315   13.0112 C   0  0  0  0  0  0  0  0  0  0  0  0
   29.3586   43.2647   13.9179 O   0  0  0  0  0  0  0  0  0  0  0  0
   31.1215   44.2161   12.5137 C   0  0  0  0  0  0  0  0  0  0  0  0
   32.0147   44.3617   13.7352 C   0  0  0  0  0  0  0  0  0  0  0  0
   33.5515   44.2493   13.6369 C   0  0  0  0  0  0  0  0  0  0  0  0
   34.1448   45.2754   14.6228 C   0  0  0  0  0  0  0  0  0  0  0  0
   32.9996   46.3030   14.8791 C   0  0  0  0  0  0  0  0  0  0  0  0
   31.8280   45.8560   14.0351 C   0  0  0  0  0  0  0  0  0  0  0  0
   33.4590   47.7603   14.6151 C   0  0  0  0  0  0  0  0  0  0  0  0
   34.7983   48.0948   15.3245 C   0  0  0  0  0  0  0  0  0  0  0  0
   35.7715   46.8774   15.3345 C   0  0  0  0  0  0  0  0  0  0  0  0
   35.3893   46.0278   14.1363 C   0  0  0  0  0  0  0  0  0  0  0  0
   34.6425   44.7267   15.9606 C   0  0  0  0  0  0  0  0  0  0  0  0
   35.4536   45.9006   16.4270 C   0  0  0  0  0  0  0  0  0  0  0  0
   35.8726   45.9902   17.6821 C   0  0  0  0  0  0  0  0  0  0  0  0
   31.3839   42.9351   11.7151 C   0  0  0  0  0  0  0  0  0  0  0  0
   31.4211   45.4721   11.7585 C   0  0  0  0  0  0  0  0  0  0  0  0
   31.3418   45.6803   10.5449 O   0  0  0  0  0  0  0  0  0  0  0  0
   31.8570   46.4291   12.7033 O   0  0  0  0  0  0  0  0  0  0  0  0
   29.9227   43.3383   14.7036 H   0  0  0  0  0  0  0  0  0  0  0  0
   34.0251   42.8286   13.8040 C   0  0  0  0  0  0  0  0  0  0  0  0
   35.1496   42.4135   13.4148 O   0  0  0  0  0  0  0  0  0  0  0  0
   33.2135   42.0967   14.3638 O   0  0  0  0  0  0  0  0  0  0  0  0
   32.3863   42.4393   14.6400 H   0  0  0  0  0  0  0  0  0  0  0  0
  1  2  1  0  0  0
  1 10  1  0  0  0
  2  3  1  0  0  0
  3  4  1  0  0  0
  3  5  1  0  0  0
  5  6  1  0  0  0
  5 18  1  0  0  0
  5 19  1  0  0  0
  6  7  1  0  0  0
  6 10  1  0  0  0
  7 23  1  0  0  0
  7  8  1  0  0  0
 23 24  2  0  0  0
 23 25  1  0  0  0
  8  9  1  0  0  0
  8 14  1  0  0  0
  8 15  1  0  0  0
  9 10  1  0  0  0
  9 11  1  0  0  0
 10 21  1  0  0  0
 11 12  1  0  0  0
 12 13  1  0  0  0
 13 14  1  0  0  0
 13 16  1  0  0  0
 15 16  1  0  0  0
 16 17  2  0  0  0
 19 20  2  0  0  0
 19 21  1  0  0  0
  4 22  1  0  0  0
 25 26  1  0  0  0
M  END
> <minimizedAffinity>
-12.83440

$$$$
3EBL_GA4_A_401


 26 30  0  0  0  0  0  0  0  0999 V2000
   30.8253   47.0015   13.4722 C   0  0  0  0  0  0  0  0  0  0  0  0
   29.8067   46.4837   12.4599 C   0  0  0  0  0  0  0  0  0  0  0  0
   29.7643   44.9282   12.4405 C   0  0  0  0  0  0  0  0  0  0  0  0
   29.0177   44.4731   13.5750 O   0  0  0  0  0  0  0  0  0  0  0  0
   31.1636   44.2687   12.4183 C   0  0  0  0  0  0  0  0  0  0  0  0
   31.8844   44.7248   13.6768 C   0  0  0  0  0  0  0  0  0  0  0  0
   33.3029   44.2258   14.0275 C   0  0  0  0  0  0  0  0  0  0  0  0
   34.0558   45.4115   14.6635 C   0  0  0  0  0  0  0  0  0  0  0  0
   33.2764   46.6821   14.2042 C   0  0  0  0  0  0  0  0  0  0  0  0
   32.1475   46.1959   13.3244 C   0  0  0  0  0  0  0  0  0  0  0  0
   34.2092   47.7223   13.5314 C   0  0  0  0  0  0  0  0  0  0  0  0
   35.4773   48.0126   14.3778 C   0  0  0  0  0  0  0  0  0  0  0  0
   35.9989   46.7346   15.1017 C   0  0  0  0  0  0  0  0  0  0  0  0
   35.5289   45.5594   14.2643 C   0  0  0  0  0  0  0  0  0  0  0  0
   34.1678   45.4089   16.1886 C   0  0  0  0  0  0  0  0  0  0  0  0
   35.2418   46.4431   16.3629 C   0  0  0  0  0  0  0  0  0  0  0  0
   35.4955   46.9759   17.5506 C   0  0  0  0  0  0  0  0  0  0  0  0
   31.1066   42.7452   12.2661 C   0  0  0  0  0  0  0  0  0  0  0  0
   31.9478   44.9552   11.3454 C   0  0  0  0  0  0  0  0  0  0  0  0
   32.1026   44.6197   10.1681 O   0  0  0  0  0  0  0  0  0  0  0  0
   32.5365   46.0995   11.9307 O   0  0  0  0  0  0  0  0  0  0  0  0
   29.4651   44.7516   14.3894 H   0  0  0  0  0  0  0  0  0  0  0  0
   33.2699   42.9573   14.8402 C   0  0  0  0  0  0  0  0  0  0  0  0
   33.1118   42.9287   16.0901 O   0  0  0  0  0  0  0  0  0  0  0  0
   33.4080   41.9358   14.1728 O   0  0  0  0  0  0  0  0  0  0  0  0
   33.5235   41.9945   13.2448 H   0  0  0  0  0  0  0  0  0  0  0  0
  1  2  1  0  0  0
  1 10  1  0  0  0
  2  3  1  0  0  0
  3  4  1  0  0  0
  3  5  1  0  0  0
  5  6  1  0  0  0
  5 18  1  0  0  0
  5 19  1  0  0  0
  6  7  1  0  0  0
  6 10  1  0  0  0
  7 23  1  0  0  0
  7  8  1  0  0  0
 23 24  2  0  0  0
 23 25  1  0  0  0
  8  9  1  0  0  0
  8 14  1  0  0  0
  8 15  1  0  0  0
  9 10  1  0  0  0
  9 11  1  0  0  0
 10 21  1  0  0  0
 11 12  1  0  0  0
 12 13  1  0  0  0
 13 14  1  0  0  0
 13 16  1  0  0  0
 15 16  1  0  0  0
 16 17  2  0  0  0
 19 20  2  0  0  0
 19 21  1  0  0  0
  4 22  1  0  0  0
 25 26  1  0  0  0
M  END
> <minimizedAffinity>
-11.20546

$$$$
3EBL_GA4_A_401


 26 30  0  0  0  0  0  0  0  0999 V2000
   34.7682   47.3157   13.3438 C   0  0  0  0  0  0  0  0  0  0  0  0
   35.9323   47.7564   14.2277 C   0  0  0  0  0  0  0  0  0  0  0  0
   36.2268   46.7119   15.3431 C   0  0  0  0  0  0  0  0  0  0  0  0
   36.9471   45.6150   14.7690 O   0  0  0  0  0  0  0  0  0  0  0  0
   34.9583   46.2018   16.0672 C   0  0  0  0  0  0  0  0  0  0  0  0
   34.0782   45.5557   15.0092 C   0  0  0  0  0  0  0  0  0  0  0  0
   32.7361   44.8821   15.3686 C   0  0  0  0  0  0  0  0  0  0  0  0
   31.7547   45.1859   14.2190 C   0  0  0  0  0  0  0  0  0  0  0  0
   32.3517   46.4301   13.4920 C   0  0  0  0  0  0  0  0  0  0  0  0
   33.6090   46.8017   14.2444 C   0  0  0  0  0  0  0  0  0  0  0  0
   31.3181   47.5792   13.3666 C   0  0  0  0  0  0  0  0  0  0  0  0
   29.9581   47.0906   12.8004 C   0  0  0  0  0  0  0  0  0  0  0  0
   29.5954   45.6626   13.3086 C   0  0  0  0  0  0  0  0  0  0  0  0
   30.3123   45.4974   14.6361 C   0  0  0  0  0  0  0  0  0  0  0  0
   31.5270   44.0658   13.2030 C   0  0  0  0  0  0  0  0  0  0  0  0
   30.2898   44.5854   12.5301 C   0  0  0  0  0  0  0  0  0  0  0  0
   29.8623   44.0688   11.3858 C   0  0  0  0  0  0  0  0  0  0  0  0
   35.2722   45.2768   17.2476 C   0  0  0  0  0  0  0  0  0  0  0  0
   34.1589   47.4096   16.4407 C   0  0  0  0  0  0  0  0  0  0  0  0
   34.1518   48.0308   17.5069 O   0  0  0  0  0  0  0  0  0  0  0  0
   33.3496   47.7310   15.3271 O   0  0  0  0  0  0  0  0  0  0  0  0
   36.3989   45.1866   14.0931 H   0  0  0  0  0  0  0  0  0  0  0  0
   32.9106   43.4261   15.7152 C   0  0  0  0  0  0  0  0  0  0  0  0
   33.3357   42.5583   14.9063 O   0  0  0  0  0  0  0  0  0  0  0  0
   32.6032   43.1502   16.8716 O   0  0  0  0  0  0  0  0  0  0  0  0
   32.2905   43.8211   17.4460 H   0  0  0  0  0  0  0  0  0  0  0  0
  1  2  1  0  0  0
  1 10  1  0  0  0
  2  3  1  0  0  0
  3  4  1  0  0  0
  3  5  1  0  0  0
  5  6  1  0  0  0
  5 18  1  0  0  0
  5 19  1  0  0  0
  6  7  1  0  0  0
  6 10  1  0  0  0
  7 23  1  0  0  0
  7  8  1  0  0  0
 23 24  2  0  0  0
 23 25  1  0  0  0
  8  9  1  0  0  0
  8 14  1  0  0  0
  8 15  1  0  0  0
  9 10  1  0  0  0
  9 11  1  0  0  0
 10 21  1  0  0  0
 11 12  1  0  0  0
 12 13  1  0  0  0
 13 14  1  0  0  0
 13 16  1  0  0  0
 15 16  1  0  0  0
 16 17  2  0  0  0
 19 20  2  0  0  0
 19 21  1  0  0  0
  4 22  1  0  0  0
 25 26  1  0  0  0
M  END
> <minimizedAffinity>
-10.91998

$$$$
3EBL_GA4_A_401


 26 30  0  0  0  0  0  0  0  0999 V2000
   32.0126   45.6726   10.9328 C   0  0  0  0  0  0  0  0  0  0  0  0
   30.6298   46.1100   11.4096 C   0  0  0  0  0  0  0  0  0  0  0  0
   30.5829   46.2589   12.9579 C   0  0  0  0  0  0  0  0  0  0  0  0
   31.2092   47.4946   13.3215 O   0  0  0  0  0  0  0  0  0  0  0  0
   31.2389   45.0803   13.7156 C   0  0  0  0  0  0  0  0  0  0  0  0
   32.6919   45.0265   13.2713 C   0  0  0  0  0  0  0  0  0  0  0  0
   33.6842   43.9995   13.8582 C   0  0  0  0  0  0  0  0  0  0  0  0
   34.6130   43.5592   12.7090 C   0  0  0  0  0  0  0  0  0  0  0  0
   33.8408   43.9166   11.4018 C   0  0  0  0  0  0  0  0  0  0  0  0
   32.5205   44.5118   11.8349 C   0  0  0  0  0  0  0  0  0  0  0  0
   33.7120   42.6968   10.4530 C   0  0  0  0  0  0  0  0  0  0  0  0
   35.0694   41.9794   10.2263 C   0  0  0  0  0  0  0  0  0  0  0  0
   35.9477   41.9754   11.5139 C   0  0  0  0  0  0  0  0  0  0  0  0
   34.9803   42.0707   12.6793 C   0  0  0  0  0  0  0  0  0  0  0  0
   36.0005   44.2009   12.6699 C   0  0  0  0  0  0  0  0  0  0  0  0
   36.6807   43.2689   11.7096 C   0  0  0  0  0  0  0  0  0  0  0  0
   37.8454   43.5818   11.1578 C   0  0  0  0  0  0  0  0  0  0  0  0
   31.0689   45.1751   15.2354 C   0  0  0  0  0  0  0  0  0  0  0  0
   30.6860   43.8236   13.1219 C   0  0  0  0  0  0  0  0  0  0  0  0
   29.7300   43.1445   13.5058 O   0  0  0  0  0  0  0  0  0  0  0  0
   31.4905   43.5051   12.0040 O   0  0  0  0  0  0  0  0  0  0  0  0
   32.1401   47.4777   13.0493 H   0  0  0  0  0  0  0  0  0  0  0  0
   34.3708   44.5209   15.0940 C   0  0  0  0  0  0  0  0  0  0  0  0
   34.6199   45.7396   15.2970 O   0  0  0  0  0  0  0  0  0  0  0  0
   34.6694   43.6468   15.9030 O   0  0  0  0  0  0  0  0  0  0  0  0
   34.4689   42.7501   15.7192 H   0  0  0  0  0  0  0  0  0  0  0  0
  1  2  1  0  0  0
  1 10  1  0  0  0
  2  3  1  0  0  0
  3  4  1  0  0  0
  3  5  1  0  0  0
  5  6  1  0  0  0
  5 18  1  0  0  0
  5 19  1  0  0  0
  6  7  1  0  0  0
  6 10  1  0  0  0
  7 23  1  0  0  0
  7  8  1  0  0  0
 23 24  2  0  0  0
 23 25  1  0  0  0
  8  9  1  0  0  0
  8 14  1  0  0  0
  8 15  1  0  0  0
  9 10  1  0  0  0
  9 11  1  0  0  0
 10 21  1  0  0  0
 11 12  1  0  0  0
 12 13  1  0  0  0
 13 14  1  0  0  0
 13 16  1  0  0  0
 15 16  1  0  0  0
 16 17  2  0  0  0
 19 20  2  0  0  0
 19 21  1  0  0  0
  4 22  1  0  0  0
 25 26  1  0  0  0
M  END
> <minimizedAffinity>
-10.25227

$$$$
