2QI4_MZ6_A_200


 42 45  0  0  0  0  0  0  0  0999 V2000
   20.0025   29.7602   15.5267 C   0  0  0  0  0  0  0  0  0  0  0  0
   20.1320   28.5999   16.3618 O   0  0  0  0  0  0  0  0  0  0  0  0
   19.2825   28.1332   16.4010 H   0  0  0  0  0  0  0  0  0  0  0  0
   19.6179   29.3316   14.1229 C   0  0  0  0  0  0  0  0  0  0  0  0
   21.6204   30.0632   12.2337 O   0  0  0  0  0  0  0  0  0  0  0  0
   21.5013   28.9069   12.6136 C   0  0  0  0  0  0  0  0  0  0  0  0
   20.6256   28.4822   13.5134 N   0  0  0  0  0  0  0  0  0  0  0  0
   20.6603   27.5363   13.7840 H   0  0  0  0  0  0  0  0  0  0  0  0
   22.3560   27.8587   11.9922 C   0  0  0  0  0  0  0  0  0  0  0  0
   21.8472   26.8108   11.2540 C   0  0  0  0  0  0  0  0  0  0  0  0
   22.7243   25.8563   10.7479 C   0  0  0  0  0  0  0  0  0  0  0  0
   22.2343   24.8353   10.0168 O   0  0  0  0  0  0  0  0  0  0  0  0
   24.0967   25.9403   10.9708 C   0  0  0  0  0  0  0  0  0  0  0  0
   24.6124   26.9949   11.7138 C   0  0  0  0  0  0  0  0  0  0  0  0
   23.7355   27.9403   12.2333 C   0  0  0  0  0  0  0  0  0  0  0  0
   21.3125   24.7704    9.8615 H   0  0  0  0  0  0  0  0  0  0  0  0
   18.3574   28.4578   14.0369 C   0  0  0  0  0  0  0  0  0  0  0  0
   18.0636   28.0940   12.5756 C   0  0  0  0  0  0  0  0  0  0  0  0
   17.5791   29.0452   11.6819 C   0  0  0  0  0  0  0  0  0  0  0  0
   17.3233   28.7052   10.3527 C   0  0  0  0  0  0  0  0  0  0  0  0
   17.5445   27.4064    9.9091 C   0  0  0  0  0  0  0  0  0  0  0  0
   18.0221   26.4547   10.7978 C   0  0  0  0  0  0  0  0  0  0  0  0
   18.2719   26.7942   12.1220 C   0  0  0  0  0  0  0  0  0  0  0  0
   18.9705   30.7443   16.1086 C   0  0  0  0  0  0  0  0  0  0  0  0
   19.2480   32.0957   15.5550 N   0  0  0  0  0  0  0  0  0  0  0  0
   17.9304   32.8384   14.9252 S   0  0  0  0  0  0  0  0  0  0  0  0
   17.0534   31.8357   14.4173 O   0  0  0  0  0  0  0  0  0  0  0  0
   18.4287   33.6632   13.8569 O   0  0  0  0  0  0  0  0  0  0  0  0
   17.1793   33.7711   16.0519 C   0  0  0  0  0  0  0  0  0  0  0  0
   16.1980   33.1730   16.8441 C   0  0  0  0  0  0  0  0  0  0  0  0
   15.5394   33.8832   17.8480 C   0  0  0  0  0  0  0  0  0  0  0  0
   15.8218   35.2182   18.0898 C   0  0  0  0  0  0  0  0  0  0  0  0
   16.7915   35.8725   17.3191 C   0  0  0  0  0  0  0  0  0  0  0  0
   17.4708   35.1423   16.3040 C   0  0  0  0  0  0  0  0  0  0  0  0
   15.2899   36.0628   19.0042 N   0  0  0  0  0  0  0  0  0  0  0  0
   15.8188   37.3011   18.9463 C   0  0  0  0  0  0  0  0  0  0  0  0
   17.0370   37.5176   17.7229 S   0  0  0  0  0  0  0  0  0  0  0  0
   19.9441   32.9721   16.5289 C   0  0  0  0  0  0  0  0  0  0  0  0
   21.1426   33.6409   15.8350 C   0  0  0  0  0  0  0  0  0  0  0  0
   21.3763   35.0804   16.3009 C   0  0  0  0  0  0  0  0  0  0  0  0
   22.4053   32.7842   16.0074 C   0  0  0  0  0  0  0  0  0  0  0  0
   22.9340   32.1783   14.7212 C   0  0  0  0  0  0  0  0  0  0  0  0
  5  6  2  0  0  0
  6  9  1  0  0  0
  6  7  1  0  0  0
  9 15  2  0  0  0
  9 10  1  0  0  0
 10 11  2  0  0  0
 11 13  1  0  0  0
 11 12  1  0  0  0
 13 14  2  0  0  0
 14 15  1  0  0  0
  7  4  1  0  0  0
  4 17  1  0  0  0
  4  1  1  0  0  0
 17 18  1  0  0  0
 18 19  2  0  0  0
 18 23  1  0  0  0
 19 20  1  0  0  0
 20 21  2  0  0  0
 21 22  1  0  0  0
 22 23  2  0  0  0
  1 24  1  0  0  0
  1  2  1  0  0  0
 24 25  1  0  0  0
 25 26  1  0  0  0
 25 38  1  0  0  0
 38 39  1  0  0  0
 39 40  1  0  0  0
 39 41  1  0  0  0
 41 42  1  0  0  0
 26 28  2  0  0  0
 26 27  2  0  0  0
 26 29  1  0  0  0
 29 34  2  0  0  0
 29 30  1  0  0  0
 30 31  2  0  0  0
 31 32  1  0  0  0
 32 33  2  0  0  0
 32 35  1  0  0  0
 33 34  1  0  0  0
 33 37  1  0  0  0
 35 36  2  0  0  0
 36 37  1  0  0  0
 12 16  1  0  0  0
  7  8  1  0  0  0
  2  3  1  0  0  0
M  END
> <minimizedAffinity>
-10.02551

$$$$
2QI4_MZ6_A_200


 42 45  0  0  0  0  0  0  0  0999 V2000
   19.4433   30.8189   16.2207 C   0  0  0  0  0  0  0  0  0  0  0  0
   19.4171   30.0870   17.4553 O   0  0  0  0  0  0  0  0  0  0  0  0
   19.0062   30.6312   18.1451 H   0  0  0  0  0  0  0  0  0  0  0  0
   18.0236   31.1485   15.7988 C   0  0  0  0  0  0  0  0  0  0  0  0
   15.3470   32.0597   16.1450 O   0  0  0  0  0  0  0  0  0  0  0  0
   16.2996   32.7729   16.4270 C   0  0  0  0  0  0  0  0  0  0  0  0
   17.5742   32.4215   16.3333 N   0  0  0  0  0  0  0  0  0  0  0  0
   18.2555   33.0607   16.6439 H   0  0  0  0  0  0  0  0  0  0  0  0
   16.0407   34.1734   16.8590 C   0  0  0  0  0  0  0  0  0  0  0  0
   16.7141   35.2593   16.3402 C   0  0  0  0  0  0  0  0  0  0  0  0
   16.4311   36.5273   16.8388 C   0  0  0  0  0  0  0  0  0  0  0  0
   17.0786   37.5938   16.3285 O   0  0  0  0  0  0  0  0  0  0  0  0
   15.4860   36.7182   17.8440 C   0  0  0  0  0  0  0  0  0  0  0  0
   14.8056   35.6263   18.3686 C   0  0  0  0  0  0  0  0  0  0  0  0
   15.0990   34.3574   17.8825 C   0  0  0  0  0  0  0  0  0  0  0  0
   17.7160   37.4753   15.6521 H   0  0  0  0  0  0  0  0  0  0  0  0
   17.8270   31.3401   14.2874 C   0  0  0  0  0  0  0  0  0  0  0  0
   17.8511   29.9821   13.5736 C   0  0  0  0  0  0  0  0  0  0  0  0
   17.8929   28.7920   14.2949 C   0  0  0  0  0  0  0  0  0  0  0  0
   17.9060   27.5621   13.6352 C   0  0  0  0  0  0  0  0  0  0  0  0
   17.8841   27.5145   12.2460 C   0  0  0  0  0  0  0  0  0  0  0  0
   17.8479   28.6981   11.5239 C   0  0  0  0  0  0  0  0  0  0  0  0
   17.8394   29.9217   12.1826 C   0  0  0  0  0  0  0  0  0  0  0  0
   20.2924   32.0968   16.3566 C   0  0  0  0  0  0  0  0  0  0  0  0
   21.2445   32.1499   15.2163 N   0  0  0  0  0  0  0  0  0  0  0  0
   22.3809   33.3220   15.3545 S   0  0  0  0  0  0  0  0  0  0  0  0
   22.4835   33.9936   14.1012 O   0  0  0  0  0  0  0  0  0  0  0  0
   23.6065   32.6340   15.6618 O   0  0  0  0  0  0  0  0  0  0  0  0
   22.0072   34.3717   16.5637 C   0  0  0  0  0  0  0  0  0  0  0  0
   22.2750   33.9770   17.8755 C   0  0  0  0  0  0  0  0  0  0  0  0
   22.0232   34.8221   18.9563 C   0  0  0  0  0  0  0  0  0  0  0  0
   21.4813   36.0844   18.7728 C   0  0  0  0  0  0  0  0  0  0  0  0
   21.1839   36.5298   17.4783 C   0  0  0  0  0  0  0  0  0  0  0  0
   21.4534   35.6706   16.3765 C   0  0  0  0  0  0  0  0  0  0  0  0
   21.1663   37.0316   19.6871 N   0  0  0  0  0  0  0  0  0  0  0  0
   20.6553   38.1484   19.1323 C   0  0  0  0  0  0  0  0  0  0  0  0
   20.5179   38.1046   17.3982 S   0  0  0  0  0  0  0  0  0  0  0  0
   21.8646   30.8312   14.9374 C   0  0  0  0  0  0  0  0  0  0  0  0
   21.2422   30.2441   13.6595 C   0  0  0  0  0  0  0  0  0  0  0  0
   21.2590   31.2227   12.4823 C   0  0  0  0  0  0  0  0  0  0  0  0
   21.9236   28.9172   13.2949 C   0  0  0  0  0  0  0  0  0  0  0  0
   21.6190   28.4182   11.8952 C   0  0  0  0  0  0  0  0  0  0  0  0
  5  6  2  0  0  0
  6  9  1  0  0  0
  6  7  1  0  0  0
  9 15  2  0  0  0
  9 10  1  0  0  0
 10 11  2  0  0  0
 11 13  1  0  0  0
 11 12  1  0  0  0
 13 14  2  0  0  0
 14 15  1  0  0  0
  7  4  1  0  0  0
  4 17  1  0  0  0
  4  1  1  0  0  0
 17 18  1  0  0  0
 18 19  2  0  0  0
 18 23  1  0  0  0
 19 20  1  0  0  0
 20 21  2  0  0  0
 21 22  1  0  0  0
 22 23  2  0  0  0
  1 24  1  0  0  0
  1  2  1  0  0  0
 24 25  1  0  0  0
 25 26  1  0  0  0
 25 38  1  0  0  0
 38 39  1  0  0  0
 39 40  1  0  0  0
 39 41  1  0  0  0
 41 42  1  0  0  0
 26 28  2  0  0  0
 26 27  2  0  0  0
 26 29  1  0  0  0
 29 34  2  0  0  0
 29 30  1  0  0  0
 30 31  2  0  0  0
 31 32  1  0  0  0
 32 33  2  0  0  0
 32 35  1  0  0  0
 33 34  1  0  0  0
 33 37  1  0  0  0
 35 36  2  0  0  0
 36 37  1  0  0  0
 12 16  1  0  0  0
  7  8  1  0  0  0
  2  3  1  0  0  0
M  END
> <minimizedAffinity>
-9.82290

$$$$
2QI4_MZ6_A_200


 42 45  0  0  0  0  0  0  0  0999 V2000
   18.9932   31.8362   16.0615 C   0  0  0  0  0  0  0  0  0  0  0  0
   18.4374   31.1735   17.2072 O   0  0  0  0  0  0  0  0  0  0  0  0
   17.8536   31.7850   17.6828 H   0  0  0  0  0  0  0  0  0  0  0  0
   17.8726   32.2614   15.1311 C   0  0  0  0  0  0  0  0  0  0  0  0
   18.6757   29.5367   14.9177 O   0  0  0  0  0  0  0  0  0  0  0  0
   18.1815   30.1269   13.9674 C   0  0  0  0  0  0  0  0  0  0  0  0
   17.7469   31.3789   13.9849 N   0  0  0  0  0  0  0  0  0  0  0  0
   17.3138   31.7309   13.1739 H   0  0  0  0  0  0  0  0  0  0  0  0
   18.1003   29.4282   12.6558 C   0  0  0  0  0  0  0  0  0  0  0  0
   19.1308   28.6707   12.1399 C   0  0  0  0  0  0  0  0  0  0  0  0
   18.9757   28.0900   10.8848 C   0  0  0  0  0  0  0  0  0  0  0  0
   19.9753   27.3398   10.3795 O   0  0  0  0  0  0  0  0  0  0  0  0
   17.8066   28.2576   10.1463 C   0  0  0  0  0  0  0  0  0  0  0  0
   16.7665   29.0199   10.6635 C   0  0  0  0  0  0  0  0  0  0  0  0
   16.9266   29.6137   11.9102 C   0  0  0  0  0  0  0  0  0  0  0  0
   20.7655   27.2213   10.8689 H   0  0  0  0  0  0  0  0  0  0  0  0
   16.4659   32.2028   15.7455 C   0  0  0  0  0  0  0  0  0  0  0  0
   16.0913   33.5656   16.3425 C   0  0  0  0  0  0  0  0  0  0  0  0
   16.5546   34.7500   15.7761 C   0  0  0  0  0  0  0  0  0  0  0  0
   16.2006   35.9844   16.3226 C   0  0  0  0  0  0  0  0  0  0  0  0
   15.3842   36.0424   17.4463 C   0  0  0  0  0  0  0  0  0  0  0  0
   14.9250   34.8645   18.0166 C   0  0  0  0  0  0  0  0  0  0  0  0
   15.2823   33.6362   17.4735 C   0  0  0  0  0  0  0  0  0  0  0  0
   19.8498   33.0437   16.4863 C   0  0  0  0  0  0  0  0  0  0  0  0
   21.2293   32.8441   15.9698 N   0  0  0  0  0  0  0  0  0  0  0  0
   22.3891   33.5564   16.8819 S   0  0  0  0  0  0  0  0  0  0  0  0
   23.5012   33.8498   16.0396 O   0  0  0  0  0  0  0  0  0  0  0  0
   22.7501   32.5799   17.8749 O   0  0  0  0  0  0  0  0  0  0  0  0
   21.8196   34.9156   17.6112 C   0  0  0  0  0  0  0  0  0  0  0  0
   21.5902   34.8696   18.9873 C   0  0  0  0  0  0  0  0  0  0  0  0
   21.1433   35.9892   19.6891 C   0  0  0  0  0  0  0  0  0  0  0  0
   20.8935   37.1907   19.0452 C   0  0  0  0  0  0  0  0  0  0  0  0
   21.0976   37.2921   17.6630 C   0  0  0  0  0  0  0  0  0  0  0  0
   21.5655   36.1520   16.9515 C   0  0  0  0  0  0  0  0  0  0  0  0
   20.4566   38.3681   19.5503 N   0  0  0  0  0  0  0  0  0  0  0  0
   20.3311   39.3281   18.6127 C   0  0  0  0  0  0  0  0  0  0  0  0
   20.7480   38.8302   16.9984 S   0  0  0  0  0  0  0  0  0  0  0  0
   21.5396   31.4135   15.7282 C   0  0  0  0  0  0  0  0  0  0  0  0
   22.1651   31.2646   14.3312 C   0  0  0  0  0  0  0  0  0  0  0  0
   22.2582   29.8077   13.8700 C   0  0  0  0  0  0  0  0  0  0  0  0
   21.4067   32.1274   13.3122 C   0  0  0  0  0  0  0  0  0  0  0  0
   21.0360   31.4061   12.0303 C   0  0  0  0  0  0  0  0  0  0  0  0
  5  6  2  0  0  0
  6  9  1  0  0  0
  6  7  1  0  0  0
  9 15  2  0  0  0
  9 10  1  0  0  0
 10 11  2  0  0  0
 11 13  1  0  0  0
 11 12  1  0  0  0
 13 14  2  0  0  0
 14 15  1  0  0  0
  7  4  1  0  0  0
  4 17  1  0  0  0
  4  1  1  0  0  0
 17 18  1  0  0  0
 18 19  2  0  0  0
 18 23  1  0  0  0
 19 20  1  0  0  0
 20 21  2  0  0  0
 21 22  1  0  0  0
 22 23  2  0  0  0
  1 24  1  0  0  0
  1  2  1  0  0  0
 24 25  1  0  0  0
 25 26  1  0  0  0
 25 38  1  0  0  0
 38 39  1  0  0  0
 39 40  1  0  0  0
 39 41  1  0  0  0
 41 42  1  0  0  0
 26 28  2  0  0  0
 26 27  2  0  0  0
 26 29  1  0  0  0
 29 34  2  0  0  0
 29 30  1  0  0  0
 30 31  2  0  0  0
 31 32  1  0  0  0
 32 33  2  0  0  0
 32 35  1  0  0  0
 33 34  1  0  0  0
 33 37  1  0  0  0
 35 36  2  0  0  0
 36 37  1  0  0  0
 12 16  1  0  0  0
  7  8  1  0  0  0
  2  3  1  0  0  0
M  END
> <minimizedAffinity>
-9.61888

$$$$
2QI4_MZ6_A_200


 42 45  0  0  0  0  0  0  0  0999 V2000
   17.9931   30.8783   14.7804 C   0  0  0  0  0  0  0  0  0  0  0  0
   18.4108   29.6156   15.3204 O   0  0  0  0  0  0  0  0  0  0  0  0
   19.3479   29.4706   15.1161 H   0  0  0  0  0  0  0  0  0  0  0  0
   18.8066   31.9920   15.4129 C   0  0  0  0  0  0  0  0  0  0  0  0
   17.4070   34.3206   14.5565 O   0  0  0  0  0  0  0  0  0  0  0  0
   17.3957   33.9708   15.7283 C   0  0  0  0  0  0  0  0  0  0  0  0
   17.9858   32.8861   16.2100 N   0  0  0  0  0  0  0  0  0  0  0  0
   17.8602   32.6743   17.1632 H   0  0  0  0  0  0  0  0  0  0  0  0
   16.7215   34.8432   16.7281 C   0  0  0  0  0  0  0  0  0  0  0  0
   17.3927   35.7790   17.4867 C   0  0  0  0  0  0  0  0  0  0  0  0
   16.6811   36.5188   18.4264 C   0  0  0  0  0  0  0  0  0  0  0  0
   17.3295   37.4424   19.1637 O   0  0  0  0  0  0  0  0  0  0  0  0
   15.3132   36.3334   18.6122 C   0  0  0  0  0  0  0  0  0  0  0  0
   14.6341   35.3916   17.8492 C   0  0  0  0  0  0  0  0  0  0  0  0
   15.3469   34.6408   16.9215 C   0  0  0  0  0  0  0  0  0  0  0  0
   18.2497   37.5742   19.0459 H   0  0  0  0  0  0  0  0  0  0  0  0
   19.8619   31.5251   16.4269 C   0  0  0  0  0  0  0  0  0  0  0  0
   21.2030   32.2185   16.1530 C   0  0  0  0  0  0  0  0  0  0  0  0
   22.0280   31.8015   15.1120 C   0  0  0  0  0  0  0  0  0  0  0  0
   23.2419   32.4451   14.8668 C   0  0  0  0  0  0  0  0  0  0  0  0
   23.6429   33.5084   15.6676 C   0  0  0  0  0  0  0  0  0  0  0  0
   22.8262   33.9232   16.7090 C   0  0  0  0  0  0  0  0  0  0  0  0
   21.6199   33.2782   16.9542 C   0  0  0  0  0  0  0  0  0  0  0  0
   18.1308   30.8932   13.2464 C   0  0  0  0  0  0  0  0  0  0  0  0
   18.7222   29.5989   12.8168 N   0  0  0  0  0  0  0  0  0  0  0  0
   17.6243   28.5236   12.2485 S   0  0  0  0  0  0  0  0  0  0  0  0
   16.4716   29.2463   11.8225 O   0  0  0  0  0  0  0  0  0  0  0  0
   17.3052   27.6745   13.3652 O   0  0  0  0  0  0  0  0  0  0  0  0
   18.2518   27.6267   11.0215 C   0  0  0  0  0  0  0  0  0  0  0  0
   19.0824   26.5558   11.3557 C   0  0  0  0  0  0  0  0  0  0  0  0
   19.6254   25.7223   10.3778 C   0  0  0  0  0  0  0  0  0  0  0  0
   19.3744   25.9331    9.0312 C   0  0  0  0  0  0  0  0  0  0  0  0
   18.5549   26.9987    8.6371 C   0  0  0  0  0  0  0  0  0  0  0  0
   17.9922   27.8399    9.6374 C   0  0  0  0  0  0  0  0  0  0  0  0
   19.8111   25.2428    7.9517 N   0  0  0  0  0  0  0  0  0  0  0  0
   19.3542   25.7442    6.7871 C   0  0  0  0  0  0  0  0  0  0  0  0
   18.3322   27.1435    6.9462 S   0  0  0  0  0  0  0  0  0  0  0  0
   19.8412   29.7801   11.8596 C   0  0  0  0  0  0  0  0  0  0  0  0
   21.1677   29.4718   12.5742 C   0  0  0  0  0  0  0  0  0  0  0  0
   20.9934   28.5584   13.7903 C   0  0  0  0  0  0  0  0  0  0  0  0
   22.1871   28.8945   11.5814 C   0  0  0  0  0  0  0  0  0  0  0  0
   23.1525   27.8916   12.1839 C   0  0  0  0  0  0  0  0  0  0  0  0
  5  6  2  0  0  0
  6  9  1  0  0  0
  6  7  1  0  0  0
  9 15  2  0  0  0
  9 10  1  0  0  0
 10 11  2  0  0  0
 11 13  1  0  0  0
 11 12  1  0  0  0
 13 14  2  0  0  0
 14 15  1  0  0  0
  7  4  1  0  0  0
  4 17  1  0  0  0
  4  1  1  0  0  0
 17 18  1  0  0  0
 18 19  2  0  0  0
 18 23  1  0  0  0
 19 20  1  0  0  0
 20 21  2  0  0  0
 21 22  1  0  0  0
 22 23  2  0  0  0
  1 24  1  0  0  0
  1  2  1  0  0  0
 24 25  1  0  0  0
 25 26  1  0  0  0
 25 38  1  0  0  0
 38 39  1  0  0  0
 39 40  1  0  0  0
 39 41  1  0  0  0
 41 42  1  0  0  0
 26 28  2  0  0  0
 26 27  2  0  0  0
 26 29  1  0  0  0
 29 34  2  0  0  0
 29 30  1  0  0  0
 30 31  2  0  0  0
 31 32  1  0  0  0
 32 33  2  0  0  0
 32 35  1  0  0  0
 33 34  1  0  0  0
 33 37  1  0  0  0
 35 36  2  0  0  0
 36 37  1  0  0  0
 12 16  1  0  0  0
  7  8  1  0  0  0
  2  3  1  0  0  0
M  END
> <minimizedAffinity>
-9.48655

$$$$
2QI4_MZ6_A_200


 42 45  0  0  0  0  0  0  0  0999 V2000
   18.6487   29.2157   13.9624 C   0  0  0  0  0  0  0  0  0  0  0  0
   17.8087   28.3544   14.7455 O   0  0  0  0  0  0  0  0  0  0  0  0
   16.9494   28.2546   14.3066 H   0  0  0  0  0  0  0  0  0  0  0  0
   18.8702   28.5976   12.5945 C   0  0  0  0  0  0  0  0  0  0  0  0
   21.2396   29.9055   11.7056 O   0  0  0  0  0  0  0  0  0  0  0  0
   21.2444   28.7184   11.9995 C   0  0  0  0  0  0  0  0  0  0  0  0
   20.2025   28.0374   12.4550 N   0  0  0  0  0  0  0  0  0  0  0  0
   20.3398   27.0975   12.7136 H   0  0  0  0  0  0  0  0  0  0  0  0
   22.4912   27.9341   11.7854 C   0  0  0  0  0  0  0  0  0  0  0  0
   22.5381   26.7859   11.0231 C   0  0  0  0  0  0  0  0  0  0  0  0
   23.7433   26.0983   10.9163 C   0  0  0  0  0  0  0  0  0  0  0  0
   23.7981   24.9809   10.1642 O   0  0  0  0  0  0  0  0  0  0  0  0
   24.8947   26.5463   11.5595 C   0  0  0  0  0  0  0  0  0  0  0  0
   24.8507   27.7030   12.3279 C   0  0  0  0  0  0  0  0  0  0  0  0
   23.6436   28.3818   12.4484 C   0  0  0  0  0  0  0  0  0  0  0  0
   23.0287   24.6718    9.7277 H   0  0  0  0  0  0  0  0  0  0  0  0
   17.9730   27.3916   12.2778 C   0  0  0  0  0  0  0  0  0  0  0  0
   17.9803   27.1073   10.7700 C   0  0  0  0  0  0  0  0  0  0  0  0
   17.9848   25.8023   10.2850 C   0  0  0  0  0  0  0  0  0  0  0  0
   17.9830   25.5554    8.9113 C   0  0  0  0  0  0  0  0  0  0  0  0
   17.9836   26.6150    8.0114 C   0  0  0  0  0  0  0  0  0  0  0  0
   17.9845   27.9164    8.4907 C   0  0  0  0  0  0  0  0  0  0  0  0
   17.9908   28.1601    9.8589 C   0  0  0  0  0  0  0  0  0  0  0  0
   18.0341   30.6228   13.8425 C   0  0  0  0  0  0  0  0  0  0  0  0
   18.7407   31.5247   14.7896 N   0  0  0  0  0  0  0  0  0  0  0  0
   17.9641   31.7269   16.2181 S   0  0  0  0  0  0  0  0  0  0  0  0
   18.7879   31.1946   17.2527 O   0  0  0  0  0  0  0  0  0  0  0  0
   16.7452   30.9714   16.1026 O   0  0  0  0  0  0  0  0  0  0  0  0
   17.6196   33.3119   16.4875 C   0  0  0  0  0  0  0  0  0  0  0  0
   16.5443   33.8719   15.7957 C   0  0  0  0  0  0  0  0  0  0  0  0
   16.1619   35.1986   15.9943 C   0  0  0  0  0  0  0  0  0  0  0  0
   16.8448   36.0209   16.8764 C   0  0  0  0  0  0  0  0  0  0  0  0
   17.9381   35.5147   17.5913 C   0  0  0  0  0  0  0  0  0  0  0  0
   18.3183   34.1574   17.3962 C   0  0  0  0  0  0  0  0  0  0  0  0
   16.6275   37.3189   17.1934 N   0  0  0  0  0  0  0  0  0  0  0  0
   17.5020   37.7911   18.1038 C   0  0  0  0  0  0  0  0  0  0  0  0
   18.6891   36.6382   18.6417 S   0  0  0  0  0  0  0  0  0  0  0  0
   20.1546   31.1269   14.9988 C   0  0  0  0  0  0  0  0  0  0  0  0
   21.0721   32.1646   14.3305 C   0  0  0  0  0  0  0  0  0  0  0  0
   20.9198   33.5675   14.9241 C   0  0  0  0  0  0  0  0  0  0  0  0
   22.5327   31.6928   14.3749 C   0  0  0  0  0  0  0  0  0  0  0  0
   23.5137   32.7324   14.8826 C   0  0  0  0  0  0  0  0  0  0  0  0
  5  6  2  0  0  0
  6  9  1  0  0  0
  6  7  1  0  0  0
  9 15  2  0  0  0
  9 10  1  0  0  0
 10 11  2  0  0  0
 11 13  1  0  0  0
 11 12  1  0  0  0
 13 14  2  0  0  0
 14 15  1  0  0  0
  7  4  1  0  0  0
  4 17  1  0  0  0
  4  1  1  0  0  0
 17 18  1  0  0  0
 18 19  2  0  0  0
 18 23  1  0  0  0
 19 20  1  0  0  0
 20 21  2  0  0  0
 21 22  1  0  0  0
 22 23  2  0  0  0
  1 24  1  0  0  0
  1  2  1  0  0  0
 24 25  1  0  0  0
 25 26  1  0  0  0
 25 38  1  0  0  0
 38 39  1  0  0  0
 39 40  1  0  0  0
 39 41  1  0  0  0
 41 42  1  0  0  0
 26 28  2  0  0  0
 26 27  2  0  0  0
 26 29  1  0  0  0
 29 34  2  0  0  0
 29 30  1  0  0  0
 30 31  2  0  0  0
 31 32  1  0  0  0
 32 33  2  0  0  0
 32 35  1  0  0  0
 33 34  1  0  0  0
 33 37  1  0  0  0
 35 36  2  0  0  0
 36 37  1  0  0  0
 12 16  1  0  0  0
  7  8  1  0  0  0
  2  3  1  0  0  0
M  END
> <minimizedAffinity>
-9.41959

$$$$
2QI4_MZ6_A_200


 42 45  0  0  0  0  0  0  0  0999 V2000
   21.4341   30.9876   14.8928 C   0  0  0  0  0  0  0  0  0  0  0  0
   22.7859   30.5737   15.1418 O   0  0  0  0  0  0  0  0  0  0  0  0
   23.3979   31.1990   14.7228 H   0  0  0  0  0  0  0  0  0  0  0  0
   21.2088   32.3635   15.4913 C   0  0  0  0  0  0  0  0  0  0  0  0
   18.9149   33.4483   14.1968 O   0  0  0  0  0  0  0  0  0  0  0  0
   18.8646   33.0652   15.3572 C   0  0  0  0  0  0  0  0  0  0  0  0
   19.8678   32.5158   16.0269 N   0  0  0  0  0  0  0  0  0  0  0  0
   19.6937   32.1923   16.9403 H   0  0  0  0  0  0  0  0  0  0  0  0
   17.6057   33.2712   16.1239 C   0  0  0  0  0  0  0  0  0  0  0  0
   17.5166   34.1078   17.2166 C   0  0  0  0  0  0  0  0  0  0  0  0
   16.3049   34.2023   17.8944 C   0  0  0  0  0  0  0  0  0  0  0  0
   16.2086   35.0263   18.9569 O   0  0  0  0  0  0  0  0  0  0  0  0
   15.1885   33.4734   17.4913 C   0  0  0  0  0  0  0  0  0  0  0  0
   15.2750   32.6299   16.3908 C   0  0  0  0  0  0  0  0  0  0  0  0
   16.4893   32.5226   15.7226 C   0  0  0  0  0  0  0  0  0  0  0  0
   16.9542   35.5206   19.2355 H   0  0  0  0  0  0  0  0  0  0  0  0
   22.0868   32.6898   16.7089 C   0  0  0  0  0  0  0  0  0  0  0  0
   21.8387   34.1322   17.1697 C   0  0  0  0  0  0  0  0  0  0  0  0
   21.7091   34.4426   18.5206 C   0  0  0  0  0  0  0  0  0  0  0  0
   21.4920   35.7594   18.9289 C   0  0  0  0  0  0  0  0  0  0  0  0
   21.3962   36.7762   17.9856 C   0  0  0  0  0  0  0  0  0  0  0  0
   21.5194   36.4701   16.6385 C   0  0  0  0  0  0  0  0  0  0  0  0
   21.7311   35.1575   16.2339 C   0  0  0  0  0  0  0  0  0  0  0  0
   21.1262   30.9818   13.3837 C   0  0  0  0  0  0  0  0  0  0  0  0
   20.6650   29.6204   13.0051 N   0  0  0  0  0  0  0  0  0  0  0  0
   19.0505   29.5143   12.7471 S   0  0  0  0  0  0  0  0  0  0  0  0
   18.5992   30.7623   12.2264 O   0  0  0  0  0  0  0  0  0  0  0  0
   18.4708   29.2661   14.0402 O   0  0  0  0  0  0  0  0  0  0  0  0
   18.6927   28.2778   11.7240 C   0  0  0  0  0  0  0  0  0  0  0  0
   18.4119   27.0299   12.2829 C   0  0  0  0  0  0  0  0  0  0  0  0
   18.0624   25.9380   11.4883 C   0  0  0  0  0  0  0  0  0  0  0  0
   17.9948   26.0436   10.1081 C   0  0  0  0  0  0  0  0  0  0  0  0
   18.2755   27.2700    9.4920 C   0  0  0  0  0  0  0  0  0  0  0  0
   18.6195   28.3856   10.3057 C   0  0  0  0  0  0  0  0  0  0  0  0
   17.6829   25.1056    9.1833 N   0  0  0  0  0  0  0  0  0  0  0  0
   17.7182   25.5790    7.9219 C   0  0  0  0  0  0  0  0  0  0  0  0
   18.1568   27.2573    7.7845 S   0  0  0  0  0  0  0  0  0  0  0  0
   21.4291   29.0638   11.8615 C   0  0  0  0  0  0  0  0  0  0  0  0
   22.2612   27.8659   12.3493 C   0  0  0  0  0  0  0  0  0  0  0  0
   21.9663   26.5784   11.5753 C   0  0  0  0  0  0  0  0  0  0  0  0
   23.7578   28.2079   12.3187 C   0  0  0  0  0  0  0  0  0  0  0  0
   24.6590   27.0508   11.9316 C   0  0  0  0  0  0  0  0  0  0  0  0
  5  6  2  0  0  0
  6  9  1  0  0  0
  6  7  1  0  0  0
  9 15  2  0  0  0
  9 10  1  0  0  0
 10 11  2  0  0  0
 11 13  1  0  0  0
 11 12  1  0  0  0
 13 14  2  0  0  0
 14 15  1  0  0  0
  7  4  1  0  0  0
  4 17  1  0  0  0
  4  1  1  0  0  0
 17 18  1  0  0  0
 18 19  2  0  0  0
 18 23  1  0  0  0
 19 20  1  0  0  0
 20 21  2  0  0  0
 21 22  1  0  0  0
 22 23  2  0  0  0
  1 24  1  0  0  0
  1  2  1  0  0  0
 24 25  1  0  0  0
 25 26  1  0  0  0
 25 38  1  0  0  0
 38 39  1  0  0  0
 39 40  1  0  0  0
 39 41  1  0  0  0
 41 42  1  0  0  0
 26 28  2  0  0  0
 26 27  2  0  0  0
 26 29  1  0  0  0
 29 34  2  0  0  0
 29 30  1  0  0  0
 30 31  2  0  0  0
 31 32  1  0  0  0
 32 33  2  0  0  0
 32 35  1  0  0  0
 33 34  1  0  0  0
 33 37  1  0  0  0
 35 36  2  0  0  0
 36 37  1  0  0  0
 12 16  1  0  0  0
  7  8  1  0  0  0
  2  3  1  0  0  0
M  END
> <minimizedAffinity>
-9.32464

$$$$
2QI4_MZ6_A_200


 42 45  0  0  0  0  0  0  0  0999 V2000
   19.0094   32.3340   16.5304 C   0  0  0  0  0  0  0  0  0  0  0  0
   18.4249   32.7098   17.7865 O   0  0  0  0  0  0  0  0  0  0  0  0
   18.0066   33.5808   17.7008 H   0  0  0  0  0  0  0  0  0  0  0  0
   17.9242   32.2503   15.4733 C   0  0  0  0  0  0  0  0  0  0  0  0
   18.8912   31.8382   12.8258 O   0  0  0  0  0  0  0  0  0  0  0  0
   18.4211   30.9168   13.4782 C   0  0  0  0  0  0  0  0  0  0  0  0
   17.9818   31.0070   14.7254 N   0  0  0  0  0  0  0  0  0  0  0  0
   17.6769   30.1834   15.1705 H   0  0  0  0  0  0  0  0  0  0  0  0
   18.2635   29.5877   12.8273 C   0  0  0  0  0  0  0  0  0  0  0  0
   18.4596   29.3808   11.4780 C   0  0  0  0  0  0  0  0  0  0  0  0
   18.2470   28.1090   10.9546 C   0  0  0  0  0  0  0  0  0  0  0  0
   18.4471   27.8980    9.6383 O   0  0  0  0  0  0  0  0  0  0  0  0
   17.8440   27.0488   11.7631 C   0  0  0  0  0  0  0  0  0  0  0  0
   17.6459   27.2539   13.1229 C   0  0  0  0  0  0  0  0  0  0  0  0
   17.8425   28.5276   13.6440 C   0  0  0  0  0  0  0  0  0  0  0  0
   18.7182   28.6051    9.0864 H   0  0  0  0  0  0  0  0  0  0  0  0
   16.4890   32.2369   16.0208 C   0  0  0  0  0  0  0  0  0  0  0  0
   16.0877   33.6417   16.4897 C   0  0  0  0  0  0  0  0  0  0  0  0
   15.2596   33.8212   17.5944 C   0  0  0  0  0  0  0  0  0  0  0  0
   14.9079   35.1039   18.0171 C   0  0  0  0  0  0  0  0  0  0  0  0
   15.3779   36.2184   17.3317 C   0  0  0  0  0  0  0  0  0  0  0  0
   16.1987   36.0435   16.2275 C   0  0  0  0  0  0  0  0  0  0  0  0
   16.5441   34.7652   15.8056 C   0  0  0  0  0  0  0  0  0  0  0  0
   20.1110   33.3279   16.1170 C   0  0  0  0  0  0  0  0  0  0  0  0
   21.4307   32.6725   16.3133 N   0  0  0  0  0  0  0  0  0  0  0  0
   22.2848   32.4724   14.9295 S   0  0  0  0  0  0  0  0  0  0  0  0
   23.6619   32.7016   15.2183 O   0  0  0  0  0  0  0  0  0  0  0  0
   21.7849   33.4709   14.0222 O   0  0  0  0  0  0  0  0  0  0  0  0
   22.0503   30.9721   14.2988 C   0  0  0  0  0  0  0  0  0  0  0  0
   21.4786   30.0008   15.1224 C   0  0  0  0  0  0  0  0  0  0  0  0
   21.2114   28.7143   14.6542 C   0  0  0  0  0  0  0  0  0  0  0  0
   21.5173   28.3425   13.3547 C   0  0  0  0  0  0  0  0  0  0  0  0
   22.1010   29.2739   12.4862 C   0  0  0  0  0  0  0  0  0  0  0  0
   22.3611   30.5893   12.9625 C   0  0  0  0  0  0  0  0  0  0  0  0
   21.3393   27.1547   12.7303 N   0  0  0  0  0  0  0  0  0  0  0  0
   21.7596   27.1657   11.4499 C   0  0  0  0  0  0  0  0  0  0  0  0
   22.4278   28.6805   10.9143 S   0  0  0  0  0  0  0  0  0  0  0  0
   22.2456   33.3458   17.3544 C   0  0  0  0  0  0  0  0  0  0  0  0
   21.6240   34.7168   17.6694 C   0  0  0  0  0  0  0  0  0  0  0  0
   21.5486   35.0083   19.1705 C   0  0  0  0  0  0  0  0  0  0  0  0
   22.3736   35.8276   16.9198 C   0  0  0  0  0  0  0  0  0  0  0  0
   21.7788   37.2126   17.0901 C   0  0  0  0  0  0  0  0  0  0  0  0
  5  6  2  0  0  0
  6  9  1  0  0  0
  6  7  1  0  0  0
  9 15  2  0  0  0
  9 10  1  0  0  0
 10 11  2  0  0  0
 11 13  1  0  0  0
 11 12  1  0  0  0
 13 14  2  0  0  0
 14 15  1  0  0  0
  7  4  1  0  0  0
  4 17  1  0  0  0
  4  1  1  0  0  0
 17 18  1  0  0  0
 18 19  2  0  0  0
 18 23  1  0  0  0
 19 20  1  0  0  0
 20 21  2  0  0  0
 21 22  1  0  0  0
 22 23  2  0  0  0
  1 24  1  0  0  0
  1  2  1  0  0  0
 24 25  1  0  0  0
 25 26  1  0  0  0
 25 38  1  0  0  0
 38 39  1  0  0  0
 39 40  1  0  0  0
 39 41  1  0  0  0
 41 42  1  0  0  0
 26 28  2  0  0  0
 26 27  2  0  0  0
 26 29  1  0  0  0
 29 34  2  0  0  0
 29 30  1  0  0  0
 30 31  2  0  0  0
 31 32  1  0  0  0
 32 33  2  0  0  0
 32 35  1  0  0  0
 33 34  1  0  0  0
 33 37  1  0  0  0
 35 36  2  0  0  0
 36 37  1  0  0  0
 12 16  1  0  0  0
  7  8  1  0  0  0
  2  3  1  0  0  0
M  END
> <minimizedAffinity>
-9.21899

$$$$
2QI4_MZ6_A_200


 42 45  0  0  0  0  0  0  0  0999 V2000
   19.6797   30.8269   14.7834 C   0  0  0  0  0  0  0  0  0  0  0  0
   18.7339   30.4918   15.8100 O   0  0  0  0  0  0  0  0  0  0  0  0
   17.8424   30.7450   15.5234 H   0  0  0  0  0  0  0  0  0  0  0  0
   19.3412   30.0639   13.5164 C   0  0  0  0  0  0  0  0  0  0  0  0
   21.6218   30.4165   11.8464 O   0  0  0  0  0  0  0  0  0  0  0  0
   21.3744   29.3341   12.3591 C   0  0  0  0  0  0  0  0  0  0  0  0
   20.3601   29.0870   13.1758 N   0  0  0  0  0  0  0  0  0  0  0  0
   20.2937   28.1893   13.5744 H   0  0  0  0  0  0  0  0  0  0  0  0
   22.2299   28.1666   12.0122 C   0  0  0  0  0  0  0  0  0  0  0  0
   23.5620   28.0787   12.3579 C   0  0  0  0  0  0  0  0  0  0  0  0
   24.2903   26.9647   11.9515 C   0  0  0  0  0  0  0  0  0  0  0  0
   25.5901   26.8680   12.2951 O   0  0  0  0  0  0  0  0  0  0  0  0
   23.7020   25.9439   11.2085 C   0  0  0  0  0  0  0  0  0  0  0  0
   22.3601   26.0294   10.8589 C   0  0  0  0  0  0  0  0  0  0  0  0
   21.6357   27.1493   11.2506 C   0  0  0  0  0  0  0  0  0  0  0  0
   25.9946   27.5497   12.7948 H   0  0  0  0  0  0  0  0  0  0  0  0
   18.0743   29.1994   13.6021 C   0  0  0  0  0  0  0  0  0  0  0  0
   17.9650   28.2958   12.3668 C   0  0  0  0  0  0  0  0  0  0  0  0
   18.1164   26.9158   12.4706 C   0  0  0  0  0  0  0  0  0  0  0  0
   18.0066   26.1026   11.3415 C   0  0  0  0  0  0  0  0  0  0  0  0
   17.7506   26.6666   10.0970 C   0  0  0  0  0  0  0  0  0  0  0  0
   17.6044   28.0416    9.9888 C   0  0  0  0  0  0  0  0  0  0  0  0
   17.7186   28.8498   11.1135 C   0  0  0  0  0  0  0  0  0  0  0  0
   19.6991   32.3457   14.5279 C   0  0  0  0  0  0  0  0  0  0  0  0
   19.9572   33.0346   15.8196 N   0  0  0  0  0  0  0  0  0  0  0  0
   21.5215   33.4697   16.0388 S   0  0  0  0  0  0  0  0  0  0  0  0
   22.0667   33.8275   14.7711 O   0  0  0  0  0  0  0  0  0  0  0  0
   22.1762   32.2990   16.5591 O   0  0  0  0  0  0  0  0  0  0  0  0
   21.6483   34.7085   17.1126 C   0  0  0  0  0  0  0  0  0  0  0  0
   21.8007   34.3879   18.4626 C   0  0  0  0  0  0  0  0  0  0  0  0
   21.9529   35.3777   19.4336 C   0  0  0  0  0  0  0  0  0  0  0  0
   21.9434   36.7226   19.0991 C   0  0  0  0  0  0  0  0  0  0  0  0
   21.7846   37.1030   17.7603 C   0  0  0  0  0  0  0  0  0  0  0  0
   21.6421   36.0910   16.7701 C   0  0  0  0  0  0  0  0  0  0  0  0
   22.0699   37.8120   19.8926 N   0  0  0  0  0  0  0  0  0  0  0  0
   22.0140   38.9710   19.2070 C   0  0  0  0  0  0  0  0  0  0  0  0
   21.7889   38.7933   17.4907 S   0  0  0  0  0  0  0  0  0  0  0  0
   19.0447   34.1838   16.0381 C   0  0  0  0  0  0  0  0  0  0  0  0
   17.9261   33.7598   17.0047 C   0  0  0  0  0  0  0  0  0  0  0  0
   17.8884   34.6030   18.2820 C   0  0  0  0  0  0  0  0  0  0  0  0
   16.5687   33.7689   16.2870 C   0  0  0  0  0  0  0  0  0  0  0  0
   15.8791   32.4190   16.2298 C   0  0  0  0  0  0  0  0  0  0  0  0
  5  6  2  0  0  0
  6  9  1  0  0  0
  6  7  1  0  0  0
  9 15  2  0  0  0
  9 10  1  0  0  0
 10 11  2  0  0  0
 11 13  1  0  0  0
 11 12  1  0  0  0
 13 14  2  0  0  0
 14 15  1  0  0  0
  7  4  1  0  0  0
  4 17  1  0  0  0
  4  1  1  0  0  0
 17 18  1  0  0  0
 18 19  2  0  0  0
 18 23  1  0  0  0
 19 20  1  0  0  0
 20 21  2  0  0  0
 21 22  1  0  0  0
 22 23  2  0  0  0
  1 24  1  0  0  0
  1  2  1  0  0  0
 24 25  1  0  0  0
 25 26  1  0  0  0
 25 38  1  0  0  0
 38 39  1  0  0  0
 39 40  1  0  0  0
 39 41  1  0  0  0
 41 42  1  0  0  0
 26 28  2  0  0  0
 26 27  2  0  0  0
 26 29  1  0  0  0
 29 34  2  0  0  0
 29 30  1  0  0  0
 30 31  2  0  0  0
 31 32  1  0  0  0
 32 33  2  0  0  0
 32 35  1  0  0  0
 33 34  1  0  0  0
 33 37  1  0  0  0
 35 36  2  0  0  0
 36 37  1  0  0  0
 12 16  1  0  0  0
  7  8  1  0  0  0
  2  3  1  0  0  0
M  END
> <minimizedAffinity>
-9.21888

$$$$
2QI4_MZ6_A_200


 42 45  0  0  0  0  0  0  0  0999 V2000
   21.2664   32.0946   15.3855 C   0  0  0  0  0  0  0  0  0  0  0  0
   22.4058   31.4339   15.9564 O   0  0  0  0  0  0  0  0  0  0  0  0
   23.2184   31.8154   15.5891 H   0  0  0  0  0  0  0  0  0  0  0  0
   21.3115   33.5707   15.7341 C   0  0  0  0  0  0  0  0  0  0  0  0
   18.6721   34.2232   14.8840 O   0  0  0  0  0  0  0  0  0  0  0  0
   18.9927   34.2929   16.0621 C   0  0  0  0  0  0  0  0  0  0  0  0
   20.1825   33.9756   16.5525 N   0  0  0  0  0  0  0  0  0  0  0  0
   20.3081   34.0169   17.5281 H   0  0  0  0  0  0  0  0  0  0  0  0
   18.0071   34.8280   17.0406 C   0  0  0  0  0  0  0  0  0  0  0  0
   16.7977   34.2192   17.3023 C   0  0  0  0  0  0  0  0  0  0  0  0
   15.9239   34.8190   18.2040 C   0  0  0  0  0  0  0  0  0  0  0  0
   14.7447   34.2234   18.4719 O   0  0  0  0  0  0  0  0  0  0  0  0
   16.2470   36.0136   18.8433 C   0  0  0  0  0  0  0  0  0  0  0  0
   17.4647   36.6293   18.5820 C   0  0  0  0  0  0  0  0  0  0  0  0
   18.3316   36.0393   17.6693 C   0  0  0  0  0  0  0  0  0  0  0  0
   14.5186   33.4196   18.0468 H   0  0  0  0  0  0  0  0  0  0  0  0
   22.5100   33.9943   16.5965 C   0  0  0  0  0  0  0  0  0  0  0  0
   22.1147   35.1546   17.5195 C   0  0  0  0  0  0  0  0  0  0  0  0
   22.0129   36.4556   17.0346 C   0  0  0  0  0  0  0  0  0  0  0  0
   21.6444   37.5021   17.8815 C   0  0  0  0  0  0  0  0  0  0  0  0
   21.3812   37.2544   19.2239 C   0  0  0  0  0  0  0  0  0  0  0  0
   21.4868   35.9605   19.7118 C   0  0  0  0  0  0  0  0  0  0  0  0
   21.8582   34.9207   18.8678 C   0  0  0  0  0  0  0  0  0  0  0  0
   21.2167   31.8861   13.8603 C   0  0  0  0  0  0  0  0  0  0  0  0
   20.4834   30.6229   13.5840 N   0  0  0  0  0  0  0  0  0  0  0  0
   21.4218   29.2817   13.6546 S   0  0  0  0  0  0  0  0  0  0  0  0
   21.2336   28.6723   14.9296 O   0  0  0  0  0  0  0  0  0  0  0  0
   22.7742   29.7516   13.5130 O   0  0  0  0  0  0  0  0  0  0  0  0
   21.0589   28.2383   12.4367 C   0  0  0  0  0  0  0  0  0  0  0  0
   21.9217   27.1624   12.2213 C   0  0  0  0  0  0  0  0  0  0  0  0
   21.6668   26.2107   11.2338 C   0  0  0  0  0  0  0  0  0  0  0  0
   20.5529   26.3032   10.4145 C   0  0  0  0  0  0  0  0  0  0  0  0
   19.6571   27.3675   10.5797 C   0  0  0  0  0  0  0  0  0  0  0  0
   19.9128   28.3301   11.5960 C   0  0  0  0  0  0  0  0  0  0  0  0
   20.1470   25.4896    9.4116 N   0  0  0  0  0  0  0  0  0  0  0  0
   19.0006   25.8994    8.8336 C   0  0  0  0  0  0  0  0  0  0  0  0
   18.3287   27.3595    9.5003 S   0  0  0  0  0  0  0  0  0  0  0  0
   19.2734   30.4766   14.4300 C   0  0  0  0  0  0  0  0  0  0  0  0
   18.0674   31.0782   13.6893 C   0  0  0  0  0  0  0  0  0  0  0  0
   17.5080   30.1518   12.6064 C   0  0  0  0  0  0  0  0  0  0  0  0
   16.9787   31.4920   14.6899 C   0  0  0  0  0  0  0  0  0  0  0  0
   17.2323   31.0423   16.1162 C   0  0  0  0  0  0  0  0  0  0  0  0
  5  6  2  0  0  0
  6  9  1  0  0  0
  6  7  1  0  0  0
  9 15  2  0  0  0
  9 10  1  0  0  0
 10 11  2  0  0  0
 11 13  1  0  0  0
 11 12  1  0  0  0
 13 14  2  0  0  0
 14 15  1  0  0  0
  7  4  1  0  0  0
  4 17  1  0  0  0
  4  1  1  0  0  0
 17 18  1  0  0  0
 18 19  2  0  0  0
 18 23  1  0  0  0
 19 20  1  0  0  0
 20 21  2  0  0  0
 21 22  1  0  0  0
 22 23  2  0  0  0
  1 24  1  0  0  0
  1  2  1  0  0  0
 24 25  1  0  0  0
 25 26  1  0  0  0
 25 38  1  0  0  0
 38 39  1  0  0  0
 39 40  1  0  0  0
 39 41  1  0  0  0
 41 42  1  0  0  0
 26 28  2  0  0  0
 26 27  2  0  0  0
 26 29  1  0  0  0
 29 34  2  0  0  0
 29 30  1  0  0  0
 30 31  2  0  0  0
 31 32  1  0  0  0
 32 33  2  0  0  0
 32 35  1  0  0  0
 33 34  1  0  0  0
 33 37  1  0  0  0
 35 36  2  0  0  0
 36 37  1  0  0  0
 12 16  1  0  0  0
  7  8  1  0  0  0
  2  3  1  0  0  0
M  END
> <minimizedAffinity>
-9.13194

$$$$
2QI4_MZ6_A_200


 42 45  0  0  0  0  0  0  0  0999 V2000
   19.7484   30.0132   15.3788 C   0  0  0  0  0  0  0  0  0  0  0  0
   20.3143   28.9580   16.1707 O   0  0  0  0  0  0  0  0  0  0  0  0
   19.6712   28.2367   16.2553 H   0  0  0  0  0  0  0  0  0  0  0  0
   19.4235   29.4863   13.9935 C   0  0  0  0  0  0  0  0  0  0  0  0
   21.5075   30.2111   12.1918 O   0  0  0  0  0  0  0  0  0  0  0  0
   21.3948   29.0639   12.6002 C   0  0  0  0  0  0  0  0  0  0  0  0
   20.4819   28.6445   13.4648 N   0  0  0  0  0  0  0  0  0  0  0  0
   20.5238   27.7081   13.7659 H   0  0  0  0  0  0  0  0  0  0  0  0
   22.3056   28.0192   12.0576 C   0  0  0  0  0  0  0  0  0  0  0  0
   21.8602   26.9303   11.3381 C   0  0  0  0  0  0  0  0  0  0  0  0
   22.7856   25.9841   10.9081 C   0  0  0  0  0  0  0  0  0  0  0  0
   22.3578   24.9229   10.1954 O   0  0  0  0  0  0  0  0  0  0  0  0
   24.1436   26.1168   11.1880 C   0  0  0  0  0  0  0  0  0  0  0  0
   24.5955   27.2128   11.9124 C   0  0  0  0  0  0  0  0  0  0  0  0
   23.6700   28.1504   12.3563 C   0  0  0  0  0  0  0  0  0  0  0  0
   21.4462   24.8251   10.0022 H   0  0  0  0  0  0  0  0  0  0  0  0
   18.2017   28.5577   13.9259 C   0  0  0  0  0  0  0  0  0  0  0  0
   17.9893   28.0655   12.4882 C   0  0  0  0  0  0  0  0  0  0  0  0
   18.1907   26.7304   12.1488 C   0  0  0  0  0  0  0  0  0  0  0  0
   17.9864   26.2921   10.8396 C   0  0  0  0  0  0  0  0  0  0  0  0
   17.5848   27.1900    9.8572 C   0  0  0  0  0  0  0  0  0  0  0  0
   17.3883   28.5219   10.1903 C   0  0  0  0  0  0  0  0  0  0  0  0
   17.5967   28.9572   11.4936 C   0  0  0  0  0  0  0  0  0  0  0  0
   18.4960   30.5990   16.0574 C   0  0  0  0  0  0  0  0  0  0  0  0
   18.5420   32.0791   15.9275 N   0  0  0  0  0  0  0  0  0  0  0  0
   20.0362   32.7176   16.1376 S   0  0  0  0  0  0  0  0  0  0  0  0
   20.6447   32.8595   14.8562 O   0  0  0  0  0  0  0  0  0  0  0  0
   20.7542   31.7597   16.9355 O   0  0  0  0  0  0  0  0  0  0  0  0
   19.9604   34.1598   16.9237 C   0  0  0  0  0  0  0  0  0  0  0  0
   18.9824   34.3154   17.9073 C   0  0  0  0  0  0  0  0  0  0  0  0
   18.8740   35.4930   18.6471 C   0  0  0  0  0  0  0  0  0  0  0  0
   19.7246   36.5643   18.4245 C   0  0  0  0  0  0  0  0  0  0  0  0
   20.7195   36.4676   17.4431 C   0  0  0  0  0  0  0  0  0  0  0  0
   20.8359   35.2605   16.6985 C   0  0  0  0  0  0  0  0  0  0  0  0
   19.7686   37.7740   19.0305 N   0  0  0  0  0  0  0  0  0  0  0  0
   20.7437   38.5689   18.5471 C   0  0  0  0  0  0  0  0  0  0  0  0
   21.6955   37.8634   17.2727 S   0  0  0  0  0  0  0  0  0  0  0  0
   17.9284   32.5536   14.6627 C   0  0  0  0  0  0  0  0  0  0  0  0
   16.6131   33.2822   14.9856 C   0  0  0  0  0  0  0  0  0  0  0  0
   16.0217   32.8771   16.3383 C   0  0  0  0  0  0  0  0  0  0  0  0
   16.8082   34.8024   14.8921 C   0  0  0  0  0  0  0  0  0  0  0  0
   16.1972   35.5861   16.0381 C   0  0  0  0  0  0  0  0  0  0  0  0
  5  6  2  0  0  0
  6  9  1  0  0  0
  6  7  1  0  0  0
  9 15  2  0  0  0
  9 10  1  0  0  0
 10 11  2  0  0  0
 11 13  1  0  0  0
 11 12  1  0  0  0
 13 14  2  0  0  0
 14 15  1  0  0  0
  7  4  1  0  0  0
  4 17  1  0  0  0
  4  1  1  0  0  0
 17 18  1  0  0  0
 18 19  2  0  0  0
 18 23  1  0  0  0
 19 20  1  0  0  0
 20 21  2  0  0  0
 21 22  1  0  0  0
 22 23  2  0  0  0
  1 24  1  0  0  0
  1  2  1  0  0  0
 24 25  1  0  0  0
 25 26  1  0  0  0
 25 38  1  0  0  0
 38 39  1  0  0  0
 39 40  1  0  0  0
 39 41  1  0  0  0
 41 42  1  0  0  0
 26 28  2  0  0  0
 26 27  2  0  0  0
 26 29  1  0  0  0
 29 34  2  0  0  0
 29 30  1  0  0  0
 30 31  2  0  0  0
 31 32  1  0  0  0
 32 33  2  0  0  0
 32 35  1  0  0  0
 33 34  1  0  0  0
 33 37  1  0  0  0
 35 36  2  0  0  0
 36 37  1  0  0  0
 12 16  1  0  0  0
  7  8  1  0  0  0
  2  3  1  0  0  0
M  END
> <minimizedAffinity>
-9.08419

$$$$
