2OVV_PFH_A_999


 30 34  0  0  0  0  0  0  0  0999 V2000
   13.9168   19.1564   49.3326 C   0  0  0  0  0  0  0  0  0  0  0  0
   11.6701   19.0864   48.3227 C   0  0  0  0  0  0  0  0  0  0  0  0
   12.8676   19.7181   50.3166 C   0  0  0  0  0  0  0  0  0  0  0  0
   11.7128   20.0442   49.4463 N   0  0  0  0  0  0  0  0  0  0  0  0
   13.1360   18.5603   48.1244 C   0  0  0  0  0  0  0  0  0  0  0  0
    8.1043   22.9805   51.0832 C   0  0  0  0  0  0  0  0  0  0  0  0
   10.5253   20.3007   50.1084 C   0  0  0  0  0  0  0  0  0  0  0  0
    9.9313   21.6198   50.1905 C   0  0  0  0  0  0  0  0  0  0  0  0
    8.8342   19.4791   51.4660 C   0  0  0  0  0  0  0  0  0  0  0  0
    9.8186   24.0223   49.6894 C   0  0  0  0  0  0  0  0  0  0  0  0
    8.6306   24.1057   50.4560 C   0  0  0  0  0  0  0  0  0  0  0  0
   10.4429   22.7948   49.5706 C   0  0  0  0  0  0  0  0  0  0  0  0
    8.7485   21.7374   50.9640 C   0  0  0  0  0  0  0  0  0  0  0  0
    8.2513   20.6559   51.5712 N   0  0  0  0  0  0  0  0  0  0  0  0
    9.9422   19.2902   50.7636 N   0  0  0  0  0  0  0  0  0  0  0  0
   10.3594   25.3427   47.6668 C   0  0  0  0  0  0  0  0  0  0  0  0
   10.2259   25.2276   49.1017 O   0  0  0  0  0  0  0  0  0  0  0  0
    8.0880   25.3480   50.5295 O   0  0  0  0  0  0  0  0  0  0  0  0
    6.8885   25.5356   49.8093 C   0  0  0  0  0  0  0  0  0  0  0  0
   13.1787   17.1086   48.1163 O   0  0  0  0  0  0  0  0  0  0  0  0
   13.6466   16.5746   46.9274 C   0  0  0  0  0  0  0  0  0  0  0  0
   14.7357   15.3774   44.5902 C   0  0  0  0  0  0  0  0  0  0  0  0
   14.7686   15.7292   47.0057 C   0  0  0  0  0  0  0  0  0  0  0  0
   15.2945   15.1482   45.8783 C   0  0  0  0  0  0  0  0  0  0  0  0
   15.2722   14.8080   43.4213 C   0  0  0  0  0  0  0  0  0  0  0  0
   13.5930   16.2305   44.4910 C   0  0  0  0  0  0  0  0  0  0  0  0
   13.0822   16.8134   45.6700 C   0  0  0  0  0  0  0  0  0  0  0  0
   12.9931   16.5007   43.2435 C   0  0  0  0  0  0  0  0  0  0  0  0
   13.5264   15.9503   42.1315 C   0  0  0  0  0  0  0  0  0  0  0  0
   14.6576   15.1034   42.2283 C   0  0  0  0  0  0  0  0  0  0  0  0
  6 11  1  0  0  0
  6 13  2  0  0  0
  7  8  1  0  0  0
  7  4  1  0  0  0
  7 15  2  0  0  0
  8 12  2  0  0  0
  8 13  1  0  0  0
  9 14  2  0  0  0
  9 15  1  0  0  0
 21 27  2  0  0  0
 21 23  1  0  0  0
 21 20  1  0  0  0
  1  5  1  0  0  0
  1  3  1  0  0  0
  2  5  1  0  0  0
  2  4  1  0  0  0
  3  4  1  0  0  0
 22 25  2  0  0  0
 22 26  1  0  0  0
 22 24  1  0  0  0
 16 17  1  0  0  0
 17 10  1  0  0  0
 10 11  2  0  0  0
 10 12  1  0  0  0
 11 18  1  0  0  0
 18 19  1  0  0  0
 13 14  1  0  0  0
  5 20  1  0  0  0
 23 24  2  0  0  0
 25 30  1  0  0  0
 26 28  2  0  0  0
 26 27  1  0  0  0
 28 29  1  0  0  0
 29 30  2  0  0  0
M  END
> <minimizedAffinity>
-10.40827

$$$$
2OVV_PFH_A_999


 30 34  0  0  0  0  0  0  0  0999 V2000
   11.7506   19.8791   46.5692 C   0  0  0  0  0  0  0  0  0  0  0  0
   10.1803   18.9371   48.2182 C   0  0  0  0  0  0  0  0  0  0  0  0
   11.2779   20.9755   47.5485 C   0  0  0  0  0  0  0  0  0  0  0  0
   10.0443   20.4058   48.1407 N   0  0  0  0  0  0  0  0  0  0  0  0
   11.2108   18.5219   47.1090 C   0  0  0  0  0  0  0  0  0  0  0  0
    7.4744   23.9208   50.4566 C   0  0  0  0  0  0  0  0  0  0  0  0
    9.5686   21.0603   49.2631 C   0  0  0  0  0  0  0  0  0  0  0  0
    8.6835   22.2057   49.1985 C   0  0  0  0  0  0  0  0  0  0  0  0
    9.6404   21.2741   51.5711 C   0  0  0  0  0  0  0  0  0  0  0  0
    7.3043   23.8629   48.0204 C   0  0  0  0  0  0  0  0  0  0  0  0
    6.9651   24.4382   49.2694 C   0  0  0  0  0  0  0  0  0  0  0  0
    8.1486   22.7685   48.0053 C   0  0  0  0  0  0  0  0  0  0  0  0
    8.3379   22.8126   50.4328 C   0  0  0  0  0  0  0  0  0  0  0  0
    8.8358   22.3174   51.5696 N   0  0  0  0  0  0  0  0  0  0  0  0
   10.0104   20.6549   50.4592 N   0  0  0  0  0  0  0  0  0  0  0  0
    5.6382   23.8196   46.1903 C   0  0  0  0  0  0  0  0  0  0  0  0
    6.7082   24.4741   46.9092 O   0  0  0  0  0  0  0  0  0  0  0  0
    6.1403   25.5140   49.1939 O   0  0  0  0  0  0  0  0  0  0  0  0
    6.6757   26.7303   49.6700 C   0  0  0  0  0  0  0  0  0  0  0  0
   12.2732   17.6977   47.6580 O   0  0  0  0  0  0  0  0  0  0  0  0
   12.9910   17.0061   46.6967 C   0  0  0  0  0  0  0  0  0  0  0  0
   14.5668   15.5061   44.8667 C   0  0  0  0  0  0  0  0  0  0  0  0
   14.0648   16.2166   47.1476 C   0  0  0  0  0  0  0  0  0  0  0  0
   14.8254   15.4896   46.2655 C   0  0  0  0  0  0  0  0  0  0  0  0
   15.3469   14.7846   43.9451 C   0  0  0  0  0  0  0  0  0  0  0  0
   13.4774   16.2995   44.3898 C   0  0  0  0  0  0  0  0  0  0  0  0
   12.7201   17.0365   45.3247 C   0  0  0  0  0  0  0  0  0  0  0  0
   13.1698   16.3613   43.0148 C   0  0  0  0  0  0  0  0  0  0  0  0
   13.9343   15.6670   42.1446 C   0  0  0  0  0  0  0  0  0  0  0  0
   15.0129   14.8791   42.6155 C   0  0  0  0  0  0  0  0  0  0  0  0
  6 11  1  0  0  0
  6 13  2  0  0  0
  7  8  1  0  0  0
  7  4  1  0  0  0
  7 15  2  0  0  0
  8 12  2  0  0  0
  8 13  1  0  0  0
  9 14  2  0  0  0
  9 15  1  0  0  0
 21 27  2  0  0  0
 21 23  1  0  0  0
 21 20  1  0  0  0
  1  5  1  0  0  0
  1  3  1  0  0  0
  2  5  1  0  0  0
  2  4  1  0  0  0
  3  4  1  0  0  0
 22 25  2  0  0  0
 22 26  1  0  0  0
 22 24  1  0  0  0
 16 17  1  0  0  0
 17 10  1  0  0  0
 10 11  2  0  0  0
 10 12  1  0  0  0
 11 18  1  0  0  0
 18 19  1  0  0  0
 13 14  1  0  0  0
  5 20  1  0  0  0
 23 24  2  0  0  0
 25 30  1  0  0  0
 26 28  2  0  0  0
 26 27  1  0  0  0
 28 29  1  0  0  0
 29 30  2  0  0  0
M  END
> <minimizedAffinity>
-9.25983

$$$$
2OVV_PFH_A_999


 30 34  0  0  0  0  0  0  0  0999 V2000
   10.4998   17.9281   48.0578 C   0  0  0  0  0  0  0  0  0  0  0  0
   11.2875   19.4748   49.8070 C   0  0  0  0  0  0  0  0  0  0  0  0
    9.4377   19.0150   48.3321 C   0  0  0  0  0  0  0  0  0  0  0  0
    9.8194   19.5479   49.6615 N   0  0  0  0  0  0  0  0  0  0  0  0
   11.7771   18.3273   48.8539 C   0  0  0  0  0  0  0  0  0  0  0  0
    8.8783   24.3676   49.2065 C   0  0  0  0  0  0  0  0  0  0  0  0
    9.2028   20.7320   50.0249 C   0  0  0  0  0  0  0  0  0  0  0  0
    9.3954   21.9785   49.3116 C   0  0  0  0  0  0  0  0  0  0  0  0
    7.8801   21.8462   51.5697 C   0  0  0  0  0  0  0  0  0  0  0  0
   10.3157   23.3655   47.5045 C   0  0  0  0  0  0  0  0  0  0  0  0
    9.6482   24.4876   48.0535 C   0  0  0  0  0  0  0  0  0  0  0  0
   10.1803   22.1431   48.1354 C   0  0  0  0  0  0  0  0  0  0  0  0
    8.7511   23.1231   49.8464 C   0  0  0  0  0  0  0  0  0  0  0  0
    8.0195   23.0048   50.9582 N   0  0  0  0  0  0  0  0  0  0  0  0
    8.4522   20.7335   51.1325 N   0  0  0  0  0  0  0  0  0  0  0  0
   10.6835   22.9936   45.0852 C   0  0  0  0  0  0  0  0  0  0  0  0
   11.0417   23.6265   46.3346 O   0  0  0  0  0  0  0  0  0  0  0  0
    9.8420   25.6498   47.3790 O   0  0  0  0  0  0  0  0  0  0  0  0
    8.7403   26.5319   47.3506 C   0  0  0  0  0  0  0  0  0  0  0  0
   12.8390   18.7876   47.9765 O   0  0  0  0  0  0  0  0  0  0  0  0
   13.0473   17.9669   46.8807 C   0  0  0  0  0  0  0  0  0  0  0  0
   13.5614   16.1563   44.7502 C   0  0  0  0  0  0  0  0  0  0  0  0
   13.7918   16.7926   47.0957 C   0  0  0  0  0  0  0  0  0  0  0  0
   14.0391   15.9157   46.0684 C   0  0  0  0  0  0  0  0  0  0  0  0
   13.8215   15.2808   43.6805 C   0  0  0  0  0  0  0  0  0  0  0  0
   12.7996   17.3424   44.5130 C   0  0  0  0  0  0  0  0  0  0  0  0
   12.5687   18.2224   45.5914 C   0  0  0  0  0  0  0  0  0  0  0  0
   12.2996   17.6411   43.2286 C   0  0  0  0  0  0  0  0  0  0  0  0
   12.5652   16.7919   42.2126 C   0  0  0  0  0  0  0  0  0  0  0  0
   13.3184   15.6154   42.4462 C   0  0  0  0  0  0  0  0  0  0  0  0
  6 11  1  0  0  0
  6 13  2  0  0  0
  7  8  1  0  0  0
  7  4  1  0  0  0
  7 15  2  0  0  0
  8 12  2  0  0  0
  8 13  1  0  0  0
  9 14  2  0  0  0
  9 15  1  0  0  0
 21 27  2  0  0  0
 21 23  1  0  0  0
 21 20  1  0  0  0
  1  5  1  0  0  0
  1  3  1  0  0  0
  2  5  1  0  0  0
  2  4  1  0  0  0
  3  4  1  0  0  0
 22 25  2  0  0  0
 22 26  1  0  0  0
 22 24  1  0  0  0
 16 17  1  0  0  0
 17 10  1  0  0  0
 10 11  2  0  0  0
 10 12  1  0  0  0
 11 18  1  0  0  0
 18 19  1  0  0  0
 13 14  1  0  0  0
  5 20  1  0  0  0
 23 24  2  0  0  0
 25 30  1  0  0  0
 26 28  2  0  0  0
 26 27  1  0  0  0
 28 29  1  0  0  0
 29 30  2  0  0  0
M  END
> <minimizedAffinity>
-8.95750

$$$$
2OVV_PFH_A_999


 30 34  0  0  0  0  0  0  0  0999 V2000
    9.9927   18.9317   48.0639 C   0  0  0  0  0  0  0  0  0  0  0  0
   12.3140   19.5156   47.4781 C   0  0  0  0  0  0  0  0  0  0  0  0
   10.8389   17.6529   47.8816 C   0  0  0  0  0  0  0  0  0  0  0  0
   12.0120   18.1188   47.1046 N   0  0  0  0  0  0  0  0  0  0  0  0
   10.9735   20.1398   48.0057 C   0  0  0  0  0  0  0  0  0  0  0  0
   15.1083   15.0744   44.7663 C   0  0  0  0  0  0  0  0  0  0  0  0
   13.0733   17.2331   47.0448 C   0  0  0  0  0  0  0  0  0  0  0  0
   13.5388   16.6344   45.8102 C   0  0  0  0  0  0  0  0  0  0  0  0
   14.6273   15.9720   48.2162 C   0  0  0  0  0  0  0  0  0  0  0  0
   13.5180   16.3012   43.3761 C   0  0  0  0  0  0  0  0  0  0  0  0
   14.5801   15.3745   43.5144 C   0  0  0  0  0  0  0  0  0  0  0  0
   13.0200   16.9091   44.5133 C   0  0  0  0  0  0  0  0  0  0  0  0
   14.5920   15.6909   45.9187 C   0  0  0  0  0  0  0  0  0  0  0  0
   15.0906   15.3997   47.1237 N   0  0  0  0  0  0  0  0  0  0  0  0
   13.6444   16.8608   48.1962 N   0  0  0  0  0  0  0  0  0  0  0  0
   11.9538   17.3616   41.7774 C   0  0  0  0  0  0  0  0  0  0  0  0
   13.0951   16.5199   42.0580 O   0  0  0  0  0  0  0  0  0  0  0  0
   15.0023   14.8167   42.3509 O   0  0  0  0  0  0  0  0  0  0  0  0
   15.0518   13.4061   42.3309 C   0  0  0  0  0  0  0  0  0  0  0  0
   11.1544   20.7524   49.3100 O   0  0  0  0  0  0  0  0  0  0  0  0
   10.4493   21.9335   49.4700 C   0  0  0  0  0  0  0  0  0  0  0  0
    8.9584   24.3001   49.9781 C   0  0  0  0  0  0  0  0  0  0  0  0
    9.7453   22.0975   50.6771 C   0  0  0  0  0  0  0  0  0  0  0  0
    9.0266   23.2408   50.9252 C   0  0  0  0  0  0  0  0  0  0  0  0
    8.2113   25.4701   50.2050 C   0  0  0  0  0  0  0  0  0  0  0  0
    9.6705   24.1535   48.7472 C   0  0  0  0  0  0  0  0  0  0  0  0
   10.3950   22.9633   48.5250 C   0  0  0  0  0  0  0  0  0  0  0  0
    9.6417   25.1654   47.7652 C   0  0  0  0  0  0  0  0  0  0  0  0
    8.9134   26.2785   47.9983 C   0  0  0  0  0  0  0  0  0  0  0  0
    8.2088   26.4262   49.2180 C   0  0  0  0  0  0  0  0  0  0  0  0
  6 11  1  0  0  0
  6 13  2  0  0  0
  7  8  1  0  0  0
  7  4  1  0  0  0
  7 15  2  0  0  0
  8 12  2  0  0  0
  8 13  1  0  0  0
  9 14  2  0  0  0
  9 15  1  0  0  0
 21 27  2  0  0  0
 21 23  1  0  0  0
 21 20  1  0  0  0
  1  5  1  0  0  0
  1  3  1  0  0  0
  2  5  1  0  0  0
  2  4  1  0  0  0
  3  4  1  0  0  0
 22 25  2  0  0  0
 22 26  1  0  0  0
 22 24  1  0  0  0
 16 17  1  0  0  0
 17 10  1  0  0  0
 10 11  2  0  0  0
 10 12  1  0  0  0
 11 18  1  0  0  0
 18 19  1  0  0  0
 13 14  1  0  0  0
  5 20  1  0  0  0
 23 24  2  0  0  0
 25 30  1  0  0  0
 26 28  2  0  0  0
 26 27  1  0  0  0
 28 29  1  0  0  0
 29 30  2  0  0  0
M  END
> <minimizedAffinity>
-8.92829

$$$$
2OVV_PFH_A_999


 30 34  0  0  0  0  0  0  0  0999 V2000
   10.4526   18.1822   47.7682 C   0  0  0  0  0  0  0  0  0  0  0  0
   12.0450   20.0564   47.9237 C   0  0  0  0  0  0  0  0  0  0  0  0
    9.8857   19.2952   48.6762 C   0  0  0  0  0  0  0  0  0  0  0  0
   11.0824   20.0889   49.0435 N   0  0  0  0  0  0  0  0  0  0  0  0
   11.7507   18.7428   47.1159 C   0  0  0  0  0  0  0  0  0  0  0  0
   10.0794   24.9161   48.9212 C   0  0  0  0  0  0  0  0  0  0  0  0
   10.8234   21.3181   49.6236 C   0  0  0  0  0  0  0  0  0  0  0  0
   10.5426   22.5145   48.8560 C   0  0  0  0  0  0  0  0  0  0  0  0
   10.7318   22.5732   51.5714 C   0  0  0  0  0  0  0  0  0  0  0  0
   10.1655   23.7591   46.7715 C   0  0  0  0  0  0  0  0  0  0  0  0
    9.9800   24.9386   47.5334 C   0  0  0  0  0  0  0  0  0  0  0  0
   10.4409   22.5796   47.4375 C   0  0  0  0  0  0  0  0  0  0  0  0
   10.3668   23.7147   49.5908 C   0  0  0  0  0  0  0  0  0  0  0  0
   10.4712   23.6898   50.9227 N   0  0  0  0  0  0  0  0  0  0  0  0
   10.9107   21.4134   50.9554 N   0  0  0  0  0  0  0  0  0  0  0  0
    9.5767   22.8285   44.5547 C   0  0  0  0  0  0  0  0  0  0  0  0
   10.0216   23.9235   45.3872 O   0  0  0  0  0  0  0  0  0  0  0  0
    9.7236   26.0530   46.8015 O   0  0  0  0  0  0  0  0  0  0  0  0
    8.5415   26.7474   47.1376 C   0  0  0  0  0  0  0  0  0  0  0  0
   11.5679   19.0227   45.7025 O   0  0  0  0  0  0  0  0  0  0  0  0
   12.2137   18.1227   44.8714 C   0  0  0  0  0  0  0  0  0  0  0  0
   13.4441   16.3544   43.0165 C   0  0  0  0  0  0  0  0  0  0  0  0
   11.8449   18.1305   43.5136 C   0  0  0  0  0  0  0  0  0  0  0  0
   12.4397   17.2788   42.6158 C   0  0  0  0  0  0  0  0  0  0  0  0
   14.0506   15.4599   42.1161 C   0  0  0  0  0  0  0  0  0  0  0  0
   13.8350   16.3343   44.3913 C   0  0  0  0  0  0  0  0  0  0  0  0
   13.1993   17.2209   45.2861 C   0  0  0  0  0  0  0  0  0  0  0  0
   14.8227   15.4401   44.8538 C   0  0  0  0  0  0  0  0  0  0  0  0
   15.3889   14.5843   43.9758 C   0  0  0  0  0  0  0  0  0  0  0  0
   15.0041   14.6040   42.6129 C   0  0  0  0  0  0  0  0  0  0  0  0
  6 11  1  0  0  0
  6 13  2  0  0  0
  7  8  1  0  0  0
  7  4  1  0  0  0
  7 15  2  0  0  0
  8 12  2  0  0  0
  8 13  1  0  0  0
  9 14  2  0  0  0
  9 15  1  0  0  0
 21 27  2  0  0  0
 21 23  1  0  0  0
 21 20  1  0  0  0
  1  5  1  0  0  0
  1  3  1  0  0  0
  2  5  1  0  0  0
  2  4  1  0  0  0
  3  4  1  0  0  0
 22 25  2  0  0  0
 22 26  1  0  0  0
 22 24  1  0  0  0
 16 17  1  0  0  0
 17 10  1  0  0  0
 10 11  2  0  0  0
 10 12  1  0  0  0
 11 18  1  0  0  0
 18 19  1  0  0  0
 13 14  1  0  0  0
  5 20  1  0  0  0
 23 24  2  0  0  0
 25 30  1  0  0  0
 26 28  2  0  0  0
 26 27  1  0  0  0
 28 29  1  0  0  0
 29 30  2  0  0  0
M  END
> <minimizedAffinity>
-8.76827

$$$$
2OVV_PFH_A_999


 30 34  0  0  0  0  0  0  0  0999 V2000
    9.8453   22.3430   44.4220 C   0  0  0  0  0  0  0  0  0  0  0  0
   12.0698   21.8525   43.4819 C   0  0  0  0  0  0  0  0  0  0  0  0
   10.1451   23.2815   43.2329 C   0  0  0  0  0  0  0  0  0  0  0  0
   11.6183   23.2030   43.0895 N   0  0  0  0  0  0  0  0  0  0  0  0
   10.9872   21.2852   44.4673 C   0  0  0  0  0  0  0  0  0  0  0  0
   12.7207   23.0463   38.2850 C   0  0  0  0  0  0  0  0  0  0  0  0
   12.1284   23.7275   41.9151 C   0  0  0  0  0  0  0  0  0  0  0  0
   12.0947   23.0217   40.6501 C   0  0  0  0  0  0  0  0  0  0  0  0
   13.3080   25.4462   40.8992 C   0  0  0  0  0  0  0  0  0  0  0  0
   11.5001   21.1350   39.1930 C   0  0  0  0  0  0  0  0  0  0  0  0
   12.1199   21.8035   38.1090 C   0  0  0  0  0  0  0  0  0  0  0  0
   11.4977   21.7478   40.4320 C   0  0  0  0  0  0  0  0  0  0  0  0
   12.7207   23.6598   39.5492 C   0  0  0  0  0  0  0  0  0  0  0  0
   13.3034   24.8493   39.7247 N   0  0  0  0  0  0  0  0  0  0  0  0
   12.7463   24.9128   41.9746 N   0  0  0  0  0  0  0  0  0  0  0  0
   11.3457   18.6884   39.5354 C   0  0  0  0  0  0  0  0  0  0  0  0
   10.9219   19.9000   38.8702 O   0  0  0  0  0  0  0  0  0  0  0  0
   12.0863   21.1286   36.9315 O   0  0  0  0  0  0  0  0  0  0  0  0
   11.3608   21.7484   35.8912 C   0  0  0  0  0  0  0  0  0  0  0  0
   10.5263   19.9739   44.0463 O   0  0  0  0  0  0  0  0  0  0  0  0
   11.4785   18.9789   44.1915 C   0  0  0  0  0  0  0  0  0  0  0  0
   13.4414   16.9809   44.6778 C   0  0  0  0  0  0  0  0  0  0  0  0
   12.0674   18.8401   45.4618 C   0  0  0  0  0  0  0  0  0  0  0  0
   13.0138   17.8741   45.6992 C   0  0  0  0  0  0  0  0  0  0  0  0
   14.4241   15.9984   44.8957 C   0  0  0  0  0  0  0  0  0  0  0  0
   12.8516   17.1039   43.3815 C   0  0  0  0  0  0  0  0  0  0  0  0
   11.8853   18.1106   43.1731 C   0  0  0  0  0  0  0  0  0  0  0  0
   13.2334   16.2513   42.3248 C   0  0  0  0  0  0  0  0  0  0  0  0
   14.1833   15.3185   42.5513 C   0  0  0  0  0  0  0  0  0  0  0  0
   14.7674   15.1941   43.8356 C   0  0  0  0  0  0  0  0  0  0  0  0
  6 11  1  0  0  0
  6 13  2  0  0  0
  7  8  1  0  0  0
  7  4  1  0  0  0
  7 15  2  0  0  0
  8 12  2  0  0  0
  8 13  1  0  0  0
  9 14  2  0  0  0
  9 15  1  0  0  0
 21 27  2  0  0  0
 21 23  1  0  0  0
 21 20  1  0  0  0
  1  5  1  0  0  0
  1  3  1  0  0  0
  2  5  1  0  0  0
  2  4  1  0  0  0
  3  4  1  0  0  0
 22 25  2  0  0  0
 22 26  1  0  0  0
 22 24  1  0  0  0
 16 17  1  0  0  0
 17 10  1  0  0  0
 10 11  2  0  0  0
 10 12  1  0  0  0
 11 18  1  0  0  0
 18 19  1  0  0  0
 13 14  1  0  0  0
  5 20  1  0  0  0
 23 24  2  0  0  0
 25 30  1  0  0  0
 26 28  2  0  0  0
 26 27  1  0  0  0
 28 29  1  0  0  0
 29 30  2  0  0  0
M  END
> <minimizedAffinity>
-8.76747

$$$$
2OVV_PFH_A_999


 30 34  0  0  0  0  0  0  0  0999 V2000
    9.6212   21.3873   45.7067 C   0  0  0  0  0  0  0  0  0  0  0  0
   11.3758   20.5538   44.1905 C   0  0  0  0  0  0  0  0  0  0  0  0
   10.3719   20.2027   46.3531 C   0  0  0  0  0  0  0  0  0  0  0  0
   11.0280   19.5364   45.2031 N   0  0  0  0  0  0  0  0  0  0  0  0
   10.3865   21.7545   44.4013 C   0  0  0  0  0  0  0  0  0  0  0  0
   14.1210   15.8270   44.2049 C   0  0  0  0  0  0  0  0  0  0  0  0
   12.0000   18.6081   45.5315 C   0  0  0  0  0  0  0  0  0  0  0  0
   12.5744   17.6871   44.5715 C   0  0  0  0  0  0  0  0  0  0  0  0
   13.2520   17.6072   47.2073 C   0  0  0  0  0  0  0  0  0  0  0  0
   12.8604   16.7405   42.3225 C   0  0  0  0  0  0  0  0  0  0  0  0
   13.8020   15.8235   42.8504 C   0  0  0  0  0  0  0  0  0  0  0  0
   12.2684   17.6470   43.1818 C   0  0  0  0  0  0  0  0  0  0  0  0
   13.5097   16.7468   45.0737 C   0  0  0  0  0  0  0  0  0  0  0  0
   13.8069   16.7485   46.3764 N   0  0  0  0  0  0  0  0  0  0  0  0
   12.3686   18.5137   46.8142 N   0  0  0  0  0  0  0  0  0  0  0  0
   11.5979   17.3924   40.2956 C   0  0  0  0  0  0  0  0  0  0  0  0
   12.6468   16.6356   40.9414 O   0  0  0  0  0  0  0  0  0  0  0  0
   14.3277   14.9628   41.9416 O   0  0  0  0  0  0  0  0  0  0  0  0
   14.9742   13.8276   42.4764 C   0  0  0  0  0  0  0  0  0  0  0  0
   11.1026   23.0115   44.5300 O   0  0  0  0  0  0  0  0  0  0  0  0
   11.6245   23.4768   43.3347 C   0  0  0  0  0  0  0  0  0  0  0  0
   12.7244   24.6029   40.9674 C   0  0  0  0  0  0  0  0  0  0  0  0
   11.9801   24.8371   43.2805 C   0  0  0  0  0  0  0  0  0  0  0  0
   12.5137   25.3821   42.1388 C   0  0  0  0  0  0  0  0  0  0  0  0
   13.2506   25.1473   39.7820 C   0  0  0  0  0  0  0  0  0  0  0  0
   12.3729   23.2178   41.0044 C   0  0  0  0  0  0  0  0  0  0  0  0
   11.8234   22.6930   42.1933 C   0  0  0  0  0  0  0  0  0  0  0  0
   12.5541   22.3910   39.8763 C   0  0  0  0  0  0  0  0  0  0  0  0
   13.0543   22.9331   38.7451 C   0  0  0  0  0  0  0  0  0  0  0  0
   13.4048   24.3049   38.7072 C   0  0  0  0  0  0  0  0  0  0  0  0
  6 11  1  0  0  0
  6 13  2  0  0  0
  7  8  1  0  0  0
  7  4  1  0  0  0
  7 15  2  0  0  0
  8 12  2  0  0  0
  8 13  1  0  0  0
  9 14  2  0  0  0
  9 15  1  0  0  0
 21 27  2  0  0  0
 21 23  1  0  0  0
 21 20  1  0  0  0
  1  5  1  0  0  0
  1  3  1  0  0  0
  2  5  1  0  0  0
  2  4  1  0  0  0
  3  4  1  0  0  0
 22 25  2  0  0  0
 22 26  1  0  0  0
 22 24  1  0  0  0
 16 17  1  0  0  0
 17 10  1  0  0  0
 10 11  2  0  0  0
 10 12  1  0  0  0
 11 18  1  0  0  0
 18 19  1  0  0  0
 13 14  1  0  0  0
  5 20  1  0  0  0
 23 24  2  0  0  0
 25 30  1  0  0  0
 26 28  2  0  0  0
 26 27  1  0  0  0
 28 29  1  0  0  0
 29 30  2  0  0  0
M  END
> <minimizedAffinity>
-8.39899

$$$$
2OVV_PFH_A_999


 30 34  0  0  0  0  0  0  0  0999 V2000
    9.7467   18.9975   47.7934 C   0  0  0  0  0  0  0  0  0  0  0  0
   11.6030   20.6142   47.6810 C   0  0  0  0  0  0  0  0  0  0  0  0
    9.2532   20.4099   48.1758 C   0  0  0  0  0  0  0  0  0  0  0  0
   10.5006   21.1353   48.5146 N   0  0  0  0  0  0  0  0  0  0  0  0
   11.2084   19.1490   47.2783 C   0  0  0  0  0  0  0  0  0  0  0  0
   10.5704   25.7326   46.7306 C   0  0  0  0  0  0  0  0  0  0  0  0
   10.3775   22.5094   48.6192 C   0  0  0  0  0  0  0  0  0  0  0  0
   10.5299   23.4079   47.4927 C   0  0  0  0  0  0  0  0  0  0  0  0
   10.1117   24.3414   50.0159 C   0  0  0  0  0  0  0  0  0  0  0  0
   10.8966   23.9259   45.1192 C   0  0  0  0  0  0  0  0  0  0  0  0
   10.7924   25.3049   45.4251 C   0  0  0  0  0  0  0  0  0  0  0  0
   10.7654   23.0101   46.1462 C   0  0  0  0  0  0  0  0  0  0  0  0
   10.4453   24.7960   47.7706 C   0  0  0  0  0  0  0  0  0  0  0  0
   10.2401   25.2024   49.0269 N   0  0  0  0  0  0  0  0  0  0  0  0
   10.1810   23.0302   49.8359 N   0  0  0  0  0  0  0  0  0  0  0  0
   11.7387   22.4030   43.3589 C   0  0  0  0  0  0  0  0  0  0  0  0
   11.1047   23.6375   43.7636 O   0  0  0  0  0  0  0  0  0  0  0  0
   10.9430   26.1355   44.3618 O   0  0  0  0  0  0  0  0  0  0  0  0
    9.9824   27.1635   44.2474 C   0  0  0  0  0  0  0  0  0  0  0  0
   11.2980   18.9546   45.8418 O   0  0  0  0  0  0  0  0  0  0  0  0
   12.2364   18.0071   45.4683 C   0  0  0  0  0  0  0  0  0  0  0  0
   14.2127   16.0477   44.8882 C   0  0  0  0  0  0  0  0  0  0  0  0
   13.0830   17.5151   46.4787 C   0  0  0  0  0  0  0  0  0  0  0  0
   14.0364   16.5669   46.2009 C   0  0  0  0  0  0  0  0  0  0  0  0
   15.1970   15.0914   44.5795 C   0  0  0  0  0  0  0  0  0  0  0  0
   13.3593   16.5326   43.8490 C   0  0  0  0  0  0  0  0  0  0  0  0
   12.3936   17.5098   44.1704 C   0  0  0  0  0  0  0  0  0  0  0  0
   13.4842   16.0608   42.5258 C   0  0  0  0  0  0  0  0  0  0  0  0
   14.4394   15.1477   42.2473 C   0  0  0  0  0  0  0  0  0  0  0  0
   15.2846   14.6648   43.2761 C   0  0  0  0  0  0  0  0  0  0  0  0
  6 11  1  0  0  0
  6 13  2  0  0  0
  7  8  1  0  0  0
  7  4  1  0  0  0
  7 15  2  0  0  0
  8 12  2  0  0  0
  8 13  1  0  0  0
  9 14  2  0  0  0
  9 15  1  0  0  0
 21 27  2  0  0  0
 21 23  1  0  0  0
 21 20  1  0  0  0
  1  5  1  0  0  0
  1  3  1  0  0  0
  2  5  1  0  0  0
  2  4  1  0  0  0
  3  4  1  0  0  0
 22 25  2  0  0  0
 22 26  1  0  0  0
 22 24  1  0  0  0
 16 17  1  0  0  0
 17 10  1  0  0  0
 10 11  2  0  0  0
 10 12  1  0  0  0
 11 18  1  0  0  0
 18 19  1  0  0  0
 13 14  1  0  0  0
  5 20  1  0  0  0
 23 24  2  0  0  0
 25 30  1  0  0  0
 26 28  2  0  0  0
 26 27  1  0  0  0
 28 29  1  0  0  0
 29 30  2  0  0  0
M  END
> <minimizedAffinity>
-8.22390

$$$$
2OVV_PFH_A_999


 30 34  0  0  0  0  0  0  0  0999 V2000
   11.5776   19.7044   40.4060 C   0  0  0  0  0  0  0  0  0  0  0  0
   11.0443   17.5986   39.2425 C   0  0  0  0  0  0  0  0  0  0  0  0
   10.4806   19.9395   39.3449 C   0  0  0  0  0  0  0  0  0  0  0  0
   10.6035   18.7644   38.4499 N   0  0  0  0  0  0  0  0  0  0  0  0
   11.8073   18.1666   40.4915 C   0  0  0  0  0  0  0  0  0  0  0  0
    7.3050   20.2686   35.1062 C   0  0  0  0  0  0  0  0  0  0  0  0
    9.5508   18.5750   37.5722 C   0  0  0  0  0  0  0  0  0  0  0  0
    9.0080   19.6328   36.7439 C   0  0  0  0  0  0  0  0  0  0  0  0
    7.9145   17.1395   36.7725 C   0  0  0  0  0  0  0  0  0  0  0  0
    8.9369   21.9234   35.8582 C   0  0  0  0  0  0  0  0  0  0  0  0
    7.8235   21.5592   35.0622 C   0  0  0  0  0  0  0  0  0  0  0  0
    9.5046   20.9653   36.6771 C   0  0  0  0  0  0  0  0  0  0  0  0
    7.8829   19.3019   35.9465 C   0  0  0  0  0  0  0  0  0  0  0  0
    7.3834   18.0636   35.9981 N   0  0  0  0  0  0  0  0  0  0  0  0
    8.9643   17.3727   37.5472 N   0  0  0  0  0  0  0  0  0  0  0  0
    9.3410   24.1690   36.8179 C   0  0  0  0  0  0  0  0  0  0  0  0
    9.3634   23.2492   35.7028 O   0  0  0  0  0  0  0  0  0  0  0  0
    7.3213   22.5609   34.2957 O   0  0  0  0  0  0  0  0  0  0  0  0
    6.2068   23.2416   34.8315 C   0  0  0  0  0  0  0  0  0  0  0  0
   11.2844   17.6100   41.7269 O   0  0  0  0  0  0  0  0  0  0  0  0
   12.2484   16.9984   42.5108 C   0  0  0  0  0  0  0  0  0  0  0  0
   14.3111   15.6808   43.9568 C   0  0  0  0  0  0  0  0  0  0  0  0
   13.2114   16.2183   41.8447 C   0  0  0  0  0  0  0  0  0  0  0  0
   14.2098   15.5832   42.5412 C   0  0  0  0  0  0  0  0  0  0  0  0
   15.3140   15.0214   44.6902 C   0  0  0  0  0  0  0  0  0  0  0  0
   13.3439   16.4722   44.6510 C   0  0  0  0  0  0  0  0  0  0  0  0
   12.3299   17.1071   43.9030 C   0  0  0  0  0  0  0  0  0  0  0  0
   13.3866   16.6076   46.0541 C   0  0  0  0  0  0  0  0  0  0  0  0
   14.3529   15.9616   46.7417 C   0  0  0  0  0  0  0  0  0  0  0  0
   15.3130   15.1785   46.0554 C   0  0  0  0  0  0  0  0  0  0  0  0
  6 11  1  0  0  0
  6 13  2  0  0  0
  7  8  1  0  0  0
  7  4  1  0  0  0
  7 15  2  0  0  0
  8 12  2  0  0  0
  8 13  1  0  0  0
  9 14  2  0  0  0
  9 15  1  0  0  0
 21 27  2  0  0  0
 21 23  1  0  0  0
 21 20  1  0  0  0
  1  5  1  0  0  0
  1  3  1  0  0  0
  2  5  1  0  0  0
  2  4  1  0  0  0
  3  4  1  0  0  0
 22 25  2  0  0  0
 22 26  1  0  0  0
 22 24  1  0  0  0
 16 17  1  0  0  0
 17 10  1  0  0  0
 10 11  2  0  0  0
 10 12  1  0  0  0
 11 18  1  0  0  0
 18 19  1  0  0  0
 13 14  1  0  0  0
  5 20  1  0  0  0
 23 24  2  0  0  0
 25 30  1  0  0  0
 26 28  2  0  0  0
 26 27  1  0  0  0
 28 29  1  0  0  0
 29 30  2  0  0  0
M  END
> <minimizedAffinity>
-8.05583

$$$$
2OVV_PFH_A_999


 30 34  0  0  0  0  0  0  0  0999 V2000
   11.0008   20.0094   45.0569 C   0  0  0  0  0  0  0  0  0  0  0  0
   10.5464   20.9897   47.2717 C   0  0  0  0  0  0  0  0  0  0  0  0
   11.0636   21.5507   44.9857 C   0  0  0  0  0  0  0  0  0  0  0  0
   10.3365   21.9860   46.2017 N   0  0  0  0  0  0  0  0  0  0  0  0
   10.8683   19.6274   46.5607 C   0  0  0  0  0  0  0  0  0  0  0  0
    9.4094   25.9983   48.9156 C   0  0  0  0  0  0  0  0  0  0  0  0
   10.4870   23.3200   46.5369 C   0  0  0  0  0  0  0  0  0  0  0  0
    9.8168   23.9355   47.6645 C   0  0  0  0  0  0  0  0  0  0  0  0
   11.3700   25.3859   45.9626 C   0  0  0  0  0  0  0  0  0  0  0  0
    8.3718   23.9130   49.6514 C   0  0  0  0  0  0  0  0  0  0  0  0
    8.6005   25.3018   49.8083 C   0  0  0  0  0  0  0  0  0  0  0  0
    8.9765   23.2597   48.5939 C   0  0  0  0  0  0  0  0  0  0  0  0
   10.0150   25.3289   47.8387 C   0  0  0  0  0  0  0  0  0  0  0  0
   10.7860   25.9951   46.9743 N   0  0  0  0  0  0  0  0  0  0  0  0
   11.2311   24.0880   45.7328 N   0  0  0  0  0  0  0  0  0  0  0  0
    8.0835   22.3777   51.5715 C   0  0  0  0  0  0  0  0  0  0  0  0
    7.5508   23.3371   50.6303 O   0  0  0  0  0  0  0  0  0  0  0  0
    7.9620   25.8669   50.8649 O   0  0  0  0  0  0  0  0  0  0  0  0
    7.9285   27.2780   50.8764 C   0  0  0  0  0  0  0  0  0  0  0  0
   12.0906   19.0382   47.0784 O   0  0  0  0  0  0  0  0  0  0  0  0
   12.6612   18.1074   46.2264 C   0  0  0  0  0  0  0  0  0  0  0  0
   13.9163   16.1163   44.6322 C   0  0  0  0  0  0  0  0  0  0  0  0
   13.5580   17.1857   46.7972 C   0  0  0  0  0  0  0  0  0  0  0  0
   14.1633   16.2218   46.0292 C   0  0  0  0  0  0  0  0  0  0  0  0
   14.5420   15.1492   43.8250 C   0  0  0  0  0  0  0  0  0  0  0  0
   13.0051   17.0416   44.0348 C   0  0  0  0  0  0  0  0  0  0  0  0
   12.4048   18.0211   44.8540 C   0  0  0  0  0  0  0  0  0  0  0  0
   12.7190   16.9926   42.6547 C   0  0  0  0  0  0  0  0  0  0  0  0
   13.3345   16.0613   41.8946 C   0  0  0  0  0  0  0  0  0  0  0  0
   14.2363   15.1426   42.4852 C   0  0  0  0  0  0  0  0  0  0  0  0
  6 11  1  0  0  0
  6 13  2  0  0  0
  7  8  1  0  0  0
  7  4  1  0  0  0
  7 15  2  0  0  0
  8 12  2  0  0  0
  8 13  1  0  0  0
  9 14  2  0  0  0
  9 15  1  0  0  0
 21 27  2  0  0  0
 21 23  1  0  0  0
 21 20  1  0  0  0
  1  5  1  0  0  0
  1  3  1  0  0  0
  2  5  1  0  0  0
  2  4  1  0  0  0
  3  4  1  0  0  0
 22 25  2  0  0  0
 22 26  1  0  0  0
 22 24  1  0  0  0
 16 17  1  0  0  0
 17 10  1  0  0  0
 10 11  2  0  0  0
 10 12  1  0  0  0
 11 18  1  0  0  0
 18 19  1  0  0  0
 13 14  1  0  0  0
  5 20  1  0  0  0
 23 24  2  0  0  0
 25 30  1  0  0  0
 26 28  2  0  0  0
 26 27  1  0  0  0
 28 29  1  0  0  0
 29 30  2  0  0  0
M  END
> <minimizedAffinity>
-7.96390

$$$$
