3T09_149_A_2001


 16 16  0  0  0  0  0  0  0  0999 V2000
   50.8355   -8.6177   29.1855 C   0  0  0  0  0  0  0  0  0  0  0  0
   51.9205   -9.5765   29.6039 C   0  0  0  0  0  0  0  0  0  0  0  0
   53.2489   -9.1409   29.0142 C   0  0  0  0  0  0  0  0  0  0  0  0
   53.0176   -8.8101   27.5403 C   0  0  0  0  0  0  0  0  0  0  0  0
   52.1915   -7.5256   27.4126 C   0  0  0  0  0  0  0  0  0  0  0  0
   49.7433   -8.7007   29.6943 O   0  0  0  0  0  0  0  0  0  0  0  0
   52.0016   -9.6493   31.0391 O   0  0  0  0  0  0  0  0  0  0  0  0
   54.1939  -10.2103   29.1360 O   0  0  0  0  0  0  0  0  0  0  0  0
   52.3581   -9.9075   26.8890 O   0  0  0  0  0  0  0  0  0  0  0  0
   50.9897   -7.5483   28.1895 O   0  0  0  0  0  0  0  0  0  0  0  0
   52.2162   -8.7732   31.3957 H   0  0  0  0  0  0  0  0  0  0  0  0
   53.8570  -10.9936   28.6737 H   0  0  0  0  0  0  0  0  0  0  0  0
   51.4987  -10.0645   27.3106 H   0  0  0  0  0  0  0  0  0  0  0  0
   51.7529   -7.2227   25.9769 C   0  0  0  0  0  0  0  0  0  0  0  0
   52.8746   -7.3432   25.1039 O   0  0  0  0  0  0  0  0  0  0  0  0
   53.5626   -6.7145   25.3727 H   0  0  0  0  0  0  0  0  0  0  0  0
  1  2  1  0  0  0
  1  6  2  0  0  0
  1 10  1  0  0  0
  2  3  1  0  0  0
  2  7  1  0  0  0
  3  4  1  0  0  0
  3  8  1  0  0  0
  4  5  1  0  0  0
  4  9  1  0  0  0
  5 14  1  0  0  0
  5 10  1  0  0  0
 14 15  1  0  0  0
  7 11  1  0  0  0
  8 12  1  0  0  0
  9 13  1  0  0  0
 15 16  1  0  0  0
M  END
> <minimizedAffinity>
-7.18418

$$$$
3T09_149_A_2001


 16 16  0  0  0  0  0  0  0  0999 V2000
   53.9544   -8.9151   29.0086 C   0  0  0  0  0  0  0  0  0  0  0  0
   53.7286   -8.2151   27.6931 C   0  0  0  0  0  0  0  0  0  0  0  0
   52.4844   -7.3505   27.7762 C   0  0  0  0  0  0  0  0  0  0  0  0
   51.3797   -8.1858   28.4222 C   0  0  0  0  0  0  0  0  0  0  0  0
   51.6917   -8.4144   29.9052 C   0  0  0  0  0  0  0  0  0  0  0  0
   54.9881   -9.5124   29.1918 O   0  0  0  0  0  0  0  0  0  0  0  0
   54.8763   -7.4207   27.3422 O   0  0  0  0  0  0  0  0  0  0  0  0
   52.0942   -6.9552   26.4561 O   0  0  0  0  0  0  0  0  0  0  0  0
   51.2434   -9.4375   27.7308 O   0  0  0  0  0  0  0  0  0  0  0  0
   53.0069   -8.9315   30.1316 O   0  0  0  0  0  0  0  0  0  0  0  0
   55.0235   -6.7465   28.0239 H   0  0  0  0  0  0  0  0  0  0  0  0
   51.9243   -7.7448   25.9190 H   0  0  0  0  0  0  0  0  0  0  0  0
   52.0774   -9.9298   27.7859 H   0  0  0  0  0  0  0  0  0  0  0  0
   50.7351   -9.3982   30.5851 C   0  0  0  0  0  0  0  0  0  0  0  0
   49.3890   -8.9904   30.3475 O   0  0  0  0  0  0  0  0  0  0  0  0
   49.2518   -8.1012   30.7100 H   0  0  0  0  0  0  0  0  0  0  0  0
  1  2  1  0  0  0
  1  6  2  0  0  0
  1 10  1  0  0  0
  2  3  1  0  0  0
  2  7  1  0  0  0
  3  4  1  0  0  0
  3  8  1  0  0  0
  4  5  1  0  0  0
  4  9  1  0  0  0
  5 14  1  0  0  0
  5 10  1  0  0  0
 14 15  1  0  0  0
  7 11  1  0  0  0
  8 12  1  0  0  0
  9 13  1  0  0  0
 15 16  1  0  0  0
M  END
> <minimizedAffinity>
-6.56844

$$$$
3T09_149_A_2001


 16 16  0  0  0  0  0  0  0  0999 V2000
   53.5436   -9.3402   28.8948 C   0  0  0  0  0  0  0  0  0  0  0  0
   52.1698   -8.7704   29.1384 C   0  0  0  0  0  0  0  0  0  0  0  0
   51.2793   -9.8240   29.7702 C   0  0  0  0  0  0  0  0  0  0  0  0
   51.4643  -11.1216   28.9843 C   0  0  0  0  0  0  0  0  0  0  0  0
   52.8579  -11.7023   29.2478 C   0  0  0  0  0  0  0  0  0  0  0  0
   54.4390   -8.6034   28.5567 O   0  0  0  0  0  0  0  0  0  0  0  0
   52.2503   -7.6041   29.9779 O   0  0  0  0  0  0  0  0  0  0  0  0
   49.9147   -9.3953   29.6978 O   0  0  0  0  0  0  0  0  0  0  0  0
   51.2702  -10.8776   27.5821 O   0  0  0  0  0  0  0  0  0  0  0  0
   53.9113  -10.7550   29.0447 O   0  0  0  0  0  0  0  0  0  0  0  0
   52.6344   -7.8482   30.8346 H   0  0  0  0  0  0  0  0  0  0  0  0
   49.6689   -9.2540   28.7701 H   0  0  0  0  0  0  0  0  0  0  0  0
   51.9241  -10.2314   27.2728 H   0  0  0  0  0  0  0  0  0  0  0  0
   53.1980  -12.9002   28.3563 C   0  0  0  0  0  0  0  0  0  0  0  0
   52.0019  -13.6109   28.0418 O   0  0  0  0  0  0  0  0  0  0  0  0
   51.5866  -13.9234   28.8608 H   0  0  0  0  0  0  0  0  0  0  0  0
  1  2  1  0  0  0
  1  6  2  0  0  0
  1 10  1  0  0  0
  2  3  1  0  0  0
  2  7  1  0  0  0
  3  4  1  0  0  0
  3  8  1  0  0  0
  4  5  1  0  0  0
  4  9  1  0  0  0
  5 14  1  0  0  0
  5 10  1  0  0  0
 14 15  1  0  0  0
  7 11  1  0  0  0
  8 12  1  0  0  0
  9 13  1  0  0  0
 15 16  1  0  0  0
M  END
> <minimizedAffinity>
-6.37139

$$$$
3T09_149_A_2001


 16 16  0  0  0  0  0  0  0  0999 V2000
   51.5394   -9.2011   29.9835 C   0  0  0  0  0  0  0  0  0  0  0  0
   51.5911   -8.2957   28.7798 C   0  0  0  0  0  0  0  0  0  0  0  0
   52.0919   -9.0690   27.5742 C   0  0  0  0  0  0  0  0  0  0  0  0
   53.3197   -9.8674   28.0108 C   0  0  0  0  0  0  0  0  0  0  0  0
   52.9017  -11.0040   28.9500 C   0  0  0  0  0  0  0  0  0  0  0  0
   51.0053   -8.8122   30.9946 O   0  0  0  0  0  0  0  0  0  0  0  0
   50.2929   -7.7321   28.5178 O   0  0  0  0  0  0  0  0  0  0  0  0
   52.4472   -8.1485   26.5361 O   0  0  0  0  0  0  0  0  0  0  0  0
   54.2671   -8.9985   28.6518 O   0  0  0  0  0  0  0  0  0  0  0  0
   52.0877  -10.5631   30.0416 O   0  0  0  0  0  0  0  0  0  0  0  0
   49.6617   -8.4455   28.3346 H   0  0  0  0  0  0  0  0  0  0  0  0
   53.1325   -7.5437   26.8608 H   0  0  0  0  0  0  0  0  0  0  0  0
   53.8606   -8.5999   29.4371 H   0  0  0  0  0  0  0  0  0  0  0  0
   54.0867  -11.7378   29.5845 C   0  0  0  0  0  0  0  0  0  0  0  0
   55.1250  -11.8851   28.6176 O   0  0  0  0  0  0  0  0  0  0  0  0
   54.7935  -12.3959   27.8625 H   0  0  0  0  0  0  0  0  0  0  0  0
  1  2  1  0  0  0
  1  6  2  0  0  0
  1 10  1  0  0  0
  2  3  1  0  0  0
  2  7  1  0  0  0
  3  4  1  0  0  0
  3  8  1  0  0  0
  4  5  1  0  0  0
  4  9  1  0  0  0
  5 14  1  0  0  0
  5 10  1  0  0  0
 14 15  1  0  0  0
  7 11  1  0  0  0
  8 12  1  0  0  0
  9 13  1  0  0  0
 15 16  1  0  0  0
M  END
> <minimizedAffinity>
-6.29986

$$$$
3T09_149_A_2001


 16 16  0  0  0  0  0  0  0  0999 V2000
   52.0548  -10.5815   27.1929 C   0  0  0  0  0  0  0  0  0  0  0  0
   52.6477  -11.8840   27.6657 C   0  0  0  0  0  0  0  0  0  0  0  0
   52.2417  -12.1430   29.1046 C   0  0  0  0  0  0  0  0  0  0  0  0
   52.4586  -10.8496   29.8892 C   0  0  0  0  0  0  0  0  0  0  0  0
   51.4273   -9.7980   29.4659 C   0  0  0  0  0  0  0  0  0  0  0  0
   52.1244  -10.2892   26.0231 O   0  0  0  0  0  0  0  0  0  0  0  0
   52.2257  -12.9667   26.8165 O   0  0  0  0  0  0  0  0  0  0  0  0
   53.0571  -13.1891   29.6451 O   0  0  0  0  0  0  0  0  0  0  0  0
   53.7951  -10.3668   29.6790 O   0  0  0  0  0  0  0  0  0  0  0  0
   51.3677   -9.6048   28.0491 O   0  0  0  0  0  0  0  0  0  0  0  0
   51.2593  -13.0439   26.8471 H   0  0  0  0  0  0  0  0  0  0  0  0
   53.9905  -12.9293   29.5966 H   0  0  0  0  0  0  0  0  0  0  0  0
   53.9281  -10.1838   28.7357 H   0  0  0  0  0  0  0  0  0  0  0  0
   51.6881   -8.4126   30.0642 C   0  0  0  0  0  0  0  0  0  0  0  0
   52.4568   -7.6376   29.1459 O   0  0  0  0  0  0  0  0  0  0  0  0
   53.3020   -8.0821   28.9760 H   0  0  0  0  0  0  0  0  0  0  0  0
  1  2  1  0  0  0
  1  6  2  0  0  0
  1 10  1  0  0  0
  2  3  1  0  0  0
  2  7  1  0  0  0
  3  4  1  0  0  0
  3  8  1  0  0  0
  4  5  1  0  0  0
  4  9  1  0  0  0
  5 14  1  0  0  0
  5 10  1  0  0  0
 14 15  1  0  0  0
  7 11  1  0  0  0
  8 12  1  0  0  0
  9 13  1  0  0  0
 15 16  1  0  0  0
M  END
> <minimizedAffinity>
-6.27843

$$$$
3T09_149_A_2001


 16 16  0  0  0  0  0  0  0  0999 V2000
   52.3207  -10.2659   27.4090 C   0  0  0  0  0  0  0  0  0  0  0  0
   52.4285   -9.9865   28.8861 C   0  0  0  0  0  0  0  0  0  0  0  0
   51.7961   -8.6444   29.2043 C   0  0  0  0  0  0  0  0  0  0  0  0
   52.3027   -7.6355   28.1742 C   0  0  0  0  0  0  0  0  0  0  0  0
   51.6982   -7.9390   26.7990 C   0  0  0  0  0  0  0  0  0  0  0  0
   52.6134  -11.3604   26.9904 O   0  0  0  0  0  0  0  0  0  0  0  0
   51.7999  -11.0363   29.6440 O   0  0  0  0  0  0  0  0  0  0  0  0
   52.1843   -8.2392   30.5221 O   0  0  0  0  0  0  0  0  0  0  0  0
   53.7377   -7.6693   28.1193 O   0  0  0  0  0  0  0  0  0  0  0  0
   51.8679   -9.3019   26.3966 O   0  0  0  0  0  0  0  0  0  0  0  0
   50.8593  -11.0842   29.4116 H   0  0  0  0  0  0  0  0  0  0  0  0
   53.1513   -8.1796   30.5703 H   0  0  0  0  0  0  0  0  0  0  0  0
   54.0304   -8.5557   27.8558 H   0  0  0  0  0  0  0  0  0  0  0  0
   52.2964   -7.0944   25.6701 C   0  0  0  0  0  0  0  0  0  0  0  0
   52.1923   -7.8077   24.4392 O   0  0  0  0  0  0  0  0  0  0  0  0
   52.6761   -8.6455   24.5091 H   0  0  0  0  0  0  0  0  0  0  0  0
  1  2  1  0  0  0
  1  6  2  0  0  0
  1 10  1  0  0  0
  2  3  1  0  0  0
  2  7  1  0  0  0
  3  4  1  0  0  0
  3  8  1  0  0  0
  4  5  1  0  0  0
  4  9  1  0  0  0
  5 14  1  0  0  0
  5 10  1  0  0  0
 14 15  1  0  0  0
  7 11  1  0  0  0
  8 12  1  0  0  0
  9 13  1  0  0  0
 15 16  1  0  0  0
M  END
> <minimizedAffinity>
-6.24027

$$$$
3T09_149_A_2001


 16 16  0  0  0  0  0  0  0  0999 V2000
   51.7510   -9.8554   29.9001 C   0  0  0  0  0  0  0  0  0  0  0  0
   51.9166   -9.1048   28.6037 C   0  0  0  0  0  0  0  0  0  0  0  0
   51.8516  -10.0718   27.4362 C   0  0  0  0  0  0  0  0  0  0  0  0
   52.7426  -11.2672   27.7720 C   0  0  0  0  0  0  0  0  0  0  0  0
   52.1079  -12.0984   28.8922 C   0  0  0  0  0  0  0  0  0  0  0  0
   51.6036   -9.2376   30.9274 O   0  0  0  0  0  0  0  0  0  0  0  0
   50.9053   -8.0885   28.4778 O   0  0  0  0  0  0  0  0  0  0  0  0
   52.3290   -9.4190   26.2542 O   0  0  0  0  0  0  0  0  0  0  0  0
   54.0507  -10.8120   28.1532 O   0  0  0  0  0  0  0  0  0  0  0  0
   51.7417  -11.3186   30.0350 O   0  0  0  0  0  0  0  0  0  0  0  0
   50.0284   -8.5030   28.4791 H   0  0  0  0  0  0  0  0  0  0  0  0
   53.2402   -9.1183   26.3964 H   0  0  0  0  0  0  0  0  0  0  0  0
   53.9803  -10.2469   28.9384 H   0  0  0  0  0  0  0  0  0  0  0  0
   53.0216  -13.2078   29.4211 C   0  0  0  0  0  0  0  0  0  0  0  0
   53.8329  -13.7007   28.3563 O   0  0  0  0  0  0  0  0  0  0  0  0
   53.2649  -14.0550   27.6544 H   0  0  0  0  0  0  0  0  0  0  0  0
  1  2  1  0  0  0
  1  6  2  0  0  0
  1 10  1  0  0  0
  2  3  1  0  0  0
  2  7  1  0  0  0
  3  4  1  0  0  0
  3  8  1  0  0  0
  4  5  1  0  0  0
  4  9  1  0  0  0
  5 14  1  0  0  0
  5 10  1  0  0  0
 14 15  1  0  0  0
  7 11  1  0  0  0
  8 12  1  0  0  0
  9 13  1  0  0  0
 15 16  1  0  0  0
M  END
> <minimizedAffinity>
-6.04990

$$$$
3T09_149_A_2001


 16 16  0  0  0  0  0  0  0  0999 V2000
   54.1992  -10.6997   29.2464 C   0  0  0  0  0  0  0  0  0  0  0  0
   53.5695  -11.8537   28.5095 C   0  0  0  0  0  0  0  0  0  0  0  0
   52.7954  -11.3389   27.3103 C   0  0  0  0  0  0  0  0  0  0  0  0
   51.9549  -10.1499   27.7747 C   0  0  0  0  0  0  0  0  0  0  0  0
   52.8617   -8.9549   28.0882 C   0  0  0  0  0  0  0  0  0  0  0  0
   54.9946  -10.9229   30.1275 O   0  0  0  0  0  0  0  0  0  0  0  0
   54.5756  -12.7968   28.0974 O   0  0  0  0  0  0  0  0  0  0  0  0
   51.9448  -12.3790   26.8144 O   0  0  0  0  0  0  0  0  0  0  0  0
   51.1793  -10.5177   28.9265 O   0  0  0  0  0  0  0  0  0  0  0  0
   53.9349   -9.2794   28.9778 O   0  0  0  0  0  0  0  0  0  0  0  0
   55.2025  -12.3602   27.4996 H   0  0  0  0  0  0  0  0  0  0  0  0
   51.3371  -12.6616   27.5157 H   0  0  0  0  0  0  0  0  0  0  0  0
   51.7741  -10.7779   29.6472 H   0  0  0  0  0  0  0  0  0  0  0  0
   52.1221   -7.7823   28.7389 C   0  0  0  0  0  0  0  0  0  0  0  0
   52.0612   -7.9852   30.1495 O   0  0  0  0  0  0  0  0  0  0  0  0
   51.5888   -8.8113   30.3373 H   0  0  0  0  0  0  0  0  0  0  0  0
  1  2  1  0  0  0
  1  6  2  0  0  0
  1 10  1  0  0  0
  2  3  1  0  0  0
  2  7  1  0  0  0
  3  4  1  0  0  0
  3  8  1  0  0  0
  4  5  1  0  0  0
  4  9  1  0  0  0
  5 14  1  0  0  0
  5 10  1  0  0  0
 14 15  1  0  0  0
  7 11  1  0  0  0
  8 12  1  0  0  0
  9 13  1  0  0  0
 15 16  1  0  0  0
M  END
> <minimizedAffinity>
-6.02255

$$$$
3T09_149_A_2001


 16 16  0  0  0  0  0  0  0  0999 V2000
   52.1529   -9.9142   29.8959 C   0  0  0  0  0  0  0  0  0  0  0  0
   51.9167  -11.1877   29.1252 C   0  0  0  0  0  0  0  0  0  0  0  0
   52.7739  -11.1991   27.8733 C   0  0  0  0  0  0  0  0  0  0  0  0
   52.6320   -9.8347   27.1997 C   0  0  0  0  0  0  0  0  0  0  0  0
   53.3308   -8.7587   28.0380 C   0  0  0  0  0  0  0  0  0  0  0  0
   51.6903   -9.7991   31.0056 O   0  0  0  0  0  0  0  0  0  0  0  0
   52.2034  -12.3339   29.9472 O   0  0  0  0  0  0  0  0  0  0  0  0
   52.3136  -12.2320   26.9943 O   0  0  0  0  0  0  0  0  0  0  0  0
   51.2423   -9.5186   27.0202 O   0  0  0  0  0  0  0  0  0  0  0  0
   52.9281   -8.7638   29.4114 O   0  0  0  0  0  0  0  0  0  0  0  0
   53.1341  -12.3117   30.2196 H   0  0  0  0  0  0  0  0  0  0  0  0
   51.3837  -12.0736   26.7683 H   0  0  0  0  0  0  0  0  0  0  0  0
   50.8039   -9.4852   27.8849 H   0  0  0  0  0  0  0  0  0  0  0  0
   53.0780   -7.3343   27.5355 C   0  0  0  0  0  0  0  0  0  0  0  0
   53.0508   -7.3333   26.1094 O   0  0  0  0  0  0  0  0  0  0  0  0
   53.9020   -7.6510   25.7695 H   0  0  0  0  0  0  0  0  0  0  0  0
  1  2  1  0  0  0
  1  6  2  0  0  0
  1 10  1  0  0  0
  2  3  1  0  0  0
  2  7  1  0  0  0
  3  4  1  0  0  0
  3  8  1  0  0  0
  4  5  1  0  0  0
  4  9  1  0  0  0
  5 14  1  0  0  0
  5 10  1  0  0  0
 14 15  1  0  0  0
  7 11  1  0  0  0
  8 12  1  0  0  0
  9 13  1  0  0  0
 15 16  1  0  0  0
M  END
> <minimizedAffinity>
-5.96142

$$$$
3T09_149_A_2001


 16 16  0  0  0  0  0  0  0  0999 V2000
   52.4859   -7.6688   27.7791 C   0  0  0  0  0  0  0  0  0  0  0  0
   52.7281   -8.5436   26.5760 C   0  0  0  0  0  0  0  0  0  0  0  0
   51.8777   -9.7968   26.6702 C   0  0  0  0  0  0  0  0  0  0  0  0
   52.0214  -10.3511   28.0871 C   0  0  0  0  0  0  0  0  0  0  0  0
   51.3164   -9.4283   29.0872 C   0  0  0  0  0  0  0  0  0  0  0  0
   52.9423   -6.5507   27.7999 O   0  0  0  0  0  0  0  0  0  0  0  0
   52.4386   -7.8237   25.3638 O   0  0  0  0  0  0  0  0  0  0  0  0
   52.3443  -10.7578   25.7163 O   0  0  0  0  0  0  0  0  0  0  0  0
   53.4116  -10.4954   28.4187 O   0  0  0  0  0  0  0  0  0  0  0  0
   51.7117   -8.0581   28.9658 O   0  0  0  0  0  0  0  0  0  0  0  0
   51.5064   -7.5555   25.3618 H   0  0  0  0  0  0  0  0  0  0  0  0
   53.2752  -10.9643   25.8942 H   0  0  0  0  0  0  0  0  0  0  0  0
   53.8452   -9.6285   28.3789 H   0  0  0  0  0  0  0  0  0  0  0  0
   51.5700   -9.8064   30.5495 C   0  0  0  0  0  0  0  0  0  0  0  0
   51.3872   -8.6570   31.3742 O   0  0  0  0  0  0  0  0  0  0  0  0
   52.0103   -7.9639   31.1054 H   0  0  0  0  0  0  0  0  0  0  0  0
  1  2  1  0  0  0
  1  6  2  0  0  0
  1 10  1  0  0  0
  2  3  1  0  0  0
  2  7  1  0  0  0
  3  4  1  0  0  0
  3  8  1  0  0  0
  4  5  1  0  0  0
  4  9  1  0  0  0
  5 14  1  0  0  0
  5 10  1  0  0  0
 14 15  1  0  0  0
  7 11  1  0  0  0
  8 12  1  0  0  0
  9 13  1  0  0  0
 15 16  1  0  0  0
M  END
> <minimizedAffinity>
-5.91204

$$$$
