4O09_2R6_A_4000


 29 32  0  0  0  0  0  0  0  0999 V2000
   -1.4917  -11.3477  -26.1017 O   0  0  0  0  0  0  0  0  0  0  0  0
   -0.9899  -11.5890  -25.0043 C   0  0  0  0  0  0  0  0  0  0  0  0
   -1.7059  -12.2365  -24.0623 N   0  0  0  0  0  0  0  0  0  0  0  0
   -1.2087  -12.7102  -22.7581 C   0  0  0  0  0  0  0  0  0  0  0  0
    0.2329  -13.1449  -22.9119 C   0  0  0  0  0  0  0  0  0  0  0  0
    1.0362  -12.1118  -23.6679 C   0  0  0  0  0  0  0  0  0  0  0  0
    2.3893  -11.9525  -23.3665 C   0  0  0  0  0  0  0  0  0  0  0  0
    0.4353  -11.2850  -24.6664 C   0  0  0  0  0  0  0  0  0  0  0  0
    1.2163  -10.2765  -25.3113 C   0  0  0  0  0  0  0  0  0  0  0  0
    2.5706  -10.1609  -24.9987 C   0  0  0  0  0  0  0  0  0  0  0  0
    3.1506  -10.9972  -24.0450 C   0  0  0  0  0  0  0  0  0  0  0  0
   -2.6535  -12.4097  -24.2658 H   0  0  0  0  0  0  0  0  0  0  0  0
    4.5697  -10.9102  -23.7992 N   0  0  0  0  0  0  0  0  0  0  0  0
    5.2556   -9.7362  -23.5605 C   0  0  0  0  0  0  0  0  0  0  0  0
    5.5151  -11.8887  -24.0943 C   0  0  0  0  0  0  0  0  0  0  0  0
    5.2359  -13.3091  -24.4916 C   0  0  0  0  0  0  0  0  0  0  0  0
    6.3829  -14.0034  -25.2383 C   0  0  0  0  0  0  0  0  0  0  0  0
    6.4293  -13.5276  -26.6942 C   0  0  0  0  0  0  0  0  0  0  0  0
    6.1560  -15.5133  -25.2224 C   0  0  0  0  0  0  0  0  0  0  0  0
    7.7037  -13.6653  -24.5300 C   0  0  0  0  0  0  0  0  0  0  0  0
    7.9448  -12.1961  -24.2627 C   0  0  0  0  0  0  0  0  0  0  0  0
    9.0859  -11.7537  -24.2943 O   0  0  0  0  0  0  0  0  0  0  0  0
    6.7743  -11.3253  -24.0182 C   0  0  0  0  0  0  0  0  0  0  0  0
    6.5935   -9.9363  -23.6845 C   0  0  0  0  0  0  0  0  0  0  0  0
    7.6424   -8.8689  -23.5175 C   0  0  0  0  0  0  0  0  0  0  0  0
    0.7242   -9.2416  -26.2983 C   0  0  0  0  0  0  0  0  0  0  0  0
    1.2859   -7.8168  -26.2006 C   0  0  0  0  0  0  0  0  0  0  0  0
    0.1608   -6.8446  -25.8662 C   0  0  0  0  0  0  0  0  0  0  0  0
    2.0295   -7.3357  -27.4508 C   0  0  0  0  0  0  0  0  0  0  0  0
 18 17  1  0  0  0
 28 27  1  0  0  0
  1  2  2  0  0  0
 26 27  1  0  0  0
 26  9  1  0  0  0
 19 17  1  0  0  0
 27 29  1  0  0  0
 17 16  1  0  0  0
 17 20  1  0  0  0
  2  8  1  0  0  0
  2  3  1  0  0  0
  9 10  2  0  0  0
  9  8  1  0  0  0
 10 11  1  0  0  0
  8  6  2  0  0  0
 16 15  1  0  0  0
  3  4  1  0  0  0
 20 21  1  0  0  0
 21 22  2  0  0  0
 21 23  1  0  0  0
 15 23  2  0  0  0
 15 13  1  0  0  0
 11 13  1  0  0  0
 11  7  2  0  0  0
  6  7  1  0  0  0
  6  5  1  0  0  0
 23 24  1  0  0  0
 13 14  1  0  0  0
  5  4  1  0  0  0
 24 14  2  0  0  0
 24 25  1  0  0  0
  3 12  1  0  0  0
M  END
> <minimizedAffinity>
-12.67467

$$$$
4O09_2R6_A_4000


 29 32  0  0  0  0  0  0  0  0999 V2000
   -1.9172  -11.2552  -24.7232 O   0  0  0  0  0  0  0  0  0  0  0  0
   -1.1665  -11.7242  -23.8684 C   0  0  0  0  0  0  0  0  0  0  0  0
   -1.6791  -12.3678  -22.7996 N   0  0  0  0  0  0  0  0  0  0  0  0
   -0.9166  -13.0913  -21.7663 C   0  0  0  0  0  0  0  0  0  0  0  0
    0.2941  -13.7324  -22.4097 C   0  0  0  0  0  0  0  0  0  0  0  0
    1.0212  -12.7522  -23.3010 C   0  0  0  0  0  0  0  0  0  0  0  0
    2.4054  -12.8609  -23.4400 C   0  0  0  0  0  0  0  0  0  0  0  0
    0.3248  -11.7086  -23.9849 C   0  0  0  0  0  0  0  0  0  0  0  0
    1.0597  -10.7638  -24.7661 C   0  0  0  0  0  0  0  0  0  0  0  0
    2.4397  -10.9171  -24.8984 C   0  0  0  0  0  0  0  0  0  0  0  0
    3.1011  -11.9604  -24.2508 C   0  0  0  0  0  0  0  0  0  0  0  0
   -2.6584  -12.3528  -22.6999 H   0  0  0  0  0  0  0  0  0  0  0  0
    4.5156  -12.1431  -24.4692 N   0  0  0  0  0  0  0  0  0  0  0  0
    5.1321  -13.3653  -24.6472 C   0  0  0  0  0  0  0  0  0  0  0  0
    5.5146  -11.2115  -24.1995 C   0  0  0  0  0  0  0  0  0  0  0  0
    5.3167   -9.7612  -23.8666 C   0  0  0  0  0  0  0  0  0  0  0  0
    6.4933   -9.1060  -23.1307 C   0  0  0  0  0  0  0  0  0  0  0  0
    6.4902   -9.5212  -21.6555 C   0  0  0  0  0  0  0  0  0  0  0  0
    6.3589   -7.5872  -23.2134 C   0  0  0  0  0  0  0  0  0  0  0  0
    7.8009   -9.5529  -23.8022 C   0  0  0  0  0  0  0  0  0  0  0  0
    7.9559  -11.0441  -24.0039 C   0  0  0  0  0  0  0  0  0  0  0  0
    9.0674  -11.5527  -23.9349 O   0  0  0  0  0  0  0  0  0  0  0  0
    6.7381  -11.8525  -24.2312 C   0  0  0  0  0  0  0  0  0  0  0  0
    6.4778  -13.2410  -24.5095 C   0  0  0  0  0  0  0  0  0  0  0  0
    7.4621  -14.3759  -24.6144 C   0  0  0  0  0  0  0  0  0  0  0  0
    0.5099   -9.5365  -25.4580 C   0  0  0  0  0  0  0  0  0  0  0  0
    0.5373   -9.4913  -26.9917 C   0  0  0  0  0  0  0  0  0  0  0  0
    0.5851   -8.0419  -27.4605 C   0  0  0  0  0  0  0  0  0  0  0  0
   -0.6275  -10.2163  -27.6736 C   0  0  0  0  0  0  0  0  0  0  0  0
 18 17  1  0  0  0
 28 27  1  0  0  0
  1  2  2  0  0  0
 26 27  1  0  0  0
 26  9  1  0  0  0
 19 17  1  0  0  0
 27 29  1  0  0  0
 17 16  1  0  0  0
 17 20  1  0  0  0
  2  8  1  0  0  0
  2  3  1  0  0  0
  9 10  2  0  0  0
  9  8  1  0  0  0
 10 11  1  0  0  0
  8  6  2  0  0  0
 16 15  1  0  0  0
  3  4  1  0  0  0
 20 21  1  0  0  0
 21 22  2  0  0  0
 21 23  1  0  0  0
 15 23  2  0  0  0
 15 13  1  0  0  0
 11 13  1  0  0  0
 11  7  2  0  0  0
  6  7  1  0  0  0
  6  5  1  0  0  0
 23 24  1  0  0  0
 13 14  1  0  0  0
  5  4  1  0  0  0
 24 14  2  0  0  0
 24 25  1  0  0  0
  3 12  1  0  0  0
M  END
> <minimizedAffinity>
-11.59078

$$$$
4O09_2R6_A_4000


 29 32  0  0  0  0  0  0  0  0999 V2000
    9.2922  -12.3961  -25.0861 O   0  0  0  0  0  0  0  0  0  0  0  0
    8.6817  -11.6184  -24.3536 C   0  0  0  0  0  0  0  0  0  0  0  0
    9.3326  -10.5948  -23.7638 N   0  0  0  0  0  0  0  0  0  0  0  0
    8.7230   -9.5119  -22.9712 C   0  0  0  0  0  0  0  0  0  0  0  0
    7.3619   -9.1885  -23.5488 C   0  0  0  0  0  0  0  0  0  0  0  0
    6.5636  -10.4467  -23.8008 C   0  0  0  0  0  0  0  0  0  0  0  0
    5.1742  -10.4032  -23.6793 C   0  0  0  0  0  0  0  0  0  0  0  0
    7.2023  -11.6791  -24.1399 C   0  0  0  0  0  0  0  0  0  0  0  0
    6.4144  -12.8600  -24.3062 C   0  0  0  0  0  0  0  0  0  0  0  0
    5.0266  -12.7731  -24.1973 C   0  0  0  0  0  0  0  0  0  0  0  0
    4.4152  -11.5558  -23.8978 C   0  0  0  0  0  0  0  0  0  0  0  0
   10.3106  -10.5685  -23.8733 H   0  0  0  0  0  0  0  0  0  0  0  0
    2.9747  -11.4771  -23.8703 N   0  0  0  0  0  0  0  0  0  0  0  0
    2.1328  -12.5506  -23.6595 C   0  0  0  0  0  0  0  0  0  0  0  0
    2.1999  -10.4372  -24.3769 C   0  0  0  0  0  0  0  0  0  0  0  0
    2.6935   -9.0921  -24.8246 C   0  0  0  0  0  0  0  0  0  0  0  0
    1.7548   -8.3526  -25.7875 C   0  0  0  0  0  0  0  0  0  0  0  0
    1.8695   -8.9455  -27.1959 C   0  0  0  0  0  0  0  0  0  0  0  0
    2.1463   -6.8777  -25.8425 C   0  0  0  0  0  0  0  0  0  0  0  0
    0.3144   -8.4927  -25.2714 C   0  0  0  0  0  0  0  0  0  0  0  0
   -0.1281   -9.9013  -24.9424 C   0  0  0  0  0  0  0  0  0  0  0  0
   -1.2947  -10.2271  -25.1200 O   0  0  0  0  0  0  0  0  0  0  0  0
    0.8876  -10.8617  -24.4582 C   0  0  0  0  0  0  0  0  0  0  0  0
    0.8590  -12.2276  -24.0038 C   0  0  0  0  0  0  0  0  0  0  0  0
   -0.3171  -13.1650  -23.9275 C   0  0  0  0  0  0  0  0  0  0  0  0
    6.9238  -14.2632  -24.5484 C   0  0  0  0  0  0  0  0  0  0  0  0
    6.6291  -14.9215  -25.9029 C   0  0  0  0  0  0  0  0  0  0  0  0
    6.6514  -13.8652  -27.0013 C   0  0  0  0  0  0  0  0  0  0  0  0
    5.3107  -15.7000  -25.9620 C   0  0  0  0  0  0  0  0  0  0  0  0
 18 17  1  0  0  0
 28 27  1  0  0  0
  1  2  2  0  0  0
 26 27  1  0  0  0
 26  9  1  0  0  0
 19 17  1  0  0  0
 27 29  1  0  0  0
 17 16  1  0  0  0
 17 20  1  0  0  0
  2  8  1  0  0  0
  2  3  1  0  0  0
  9 10  2  0  0  0
  9  8  1  0  0  0
 10 11  1  0  0  0
  8  6  2  0  0  0
 16 15  1  0  0  0
  3  4  1  0  0  0
 20 21  1  0  0  0
 21 22  2  0  0  0
 21 23  1  0  0  0
 15 23  2  0  0  0
 15 13  1  0  0  0
 11 13  1  0  0  0
 11  7  2  0  0  0
  6  7  1  0  0  0
  6  5  1  0  0  0
 23 24  1  0  0  0
 13 14  1  0  0  0
  5  4  1  0  0  0
 24 14  2  0  0  0
 24 25  1  0  0  0
  3 12  1  0  0  0
M  END
> <minimizedAffinity>
-11.00045

$$$$
4O09_2R6_A_4000


 29 32  0  0  0  0  0  0  0  0999 V2000
   -1.9666  -11.3407  -24.8380 O   0  0  0  0  0  0  0  0  0  0  0  0
   -1.0574  -10.9457  -25.5672 C   0  0  0  0  0  0  0  0  0  0  0  0
   -1.3457  -10.3189  -26.7262 N   0  0  0  0  0  0  0  0  0  0  0  0
   -0.3802   -9.6776  -27.6369 C   0  0  0  0  0  0  0  0  0  0  0  0
    0.7409   -9.0757  -26.8174 C   0  0  0  0  0  0  0  0  0  0  0  0
    1.2504  -10.0566  -25.7868 C   0  0  0  0  0  0  0  0  0  0  0  0
    2.5957  -10.0149  -25.4188 C   0  0  0  0  0  0  0  0  0  0  0  0
    0.3899  -11.0345  -25.1995 C   0  0  0  0  0  0  0  0  0  0  0  0
    0.9275  -11.9849  -24.2771 C   0  0  0  0  0  0  0  0  0  0  0  0
    2.2724  -11.8988  -23.9178 C   0  0  0  0  0  0  0  0  0  0  0  0
    3.0924  -10.9178  -24.4753 C   0  0  0  0  0  0  0  0  0  0  0  0
   -2.2937  -10.2866  -26.9898 H   0  0  0  0  0  0  0  0  0  0  0  0
    4.4586  -10.8008  -24.0262 N   0  0  0  0  0  0  0  0  0  0  0  0
    5.0732   -9.6143  -23.6796 C   0  0  0  0  0  0  0  0  0  0  0  0
    5.4610  -11.7529  -24.1912 C   0  0  0  0  0  0  0  0  0  0  0  0
    5.2778  -13.1741  -24.6384 C   0  0  0  0  0  0  0  0  0  0  0  0
    6.5376  -13.8313  -25.2183 C   0  0  0  0  0  0  0  0  0  0  0  0
    6.7814  -13.3353  -26.6476 C   0  0  0  0  0  0  0  0  0  0  0  0
    6.3488  -15.3462  -25.2500 C   0  0  0  0  0  0  0  0  0  0  0  0
    7.7336  -13.4717  -24.3234 C   0  0  0  0  0  0  0  0  0  0  0  0
    7.8966  -12.0009  -24.0098 C   0  0  0  0  0  0  0  0  0  0  0  0
    9.0188  -11.5314  -23.8720 O   0  0  0  0  0  0  0  0  0  0  0  0
    6.6815  -11.1610  -23.9285 C   0  0  0  0  0  0  0  0  0  0  0  0
    6.4196   -9.7813  -23.6110 C   0  0  0  0  0  0  0  0  0  0  0  0
    7.4064   -8.6918  -23.2839 C   0  0  0  0  0  0  0  0  0  0  0  0
    0.1993  -13.1535  -23.6516 C   0  0  0  0  0  0  0  0  0  0  0  0
   -0.4858  -12.9429  -22.2947 C   0  0  0  0  0  0  0  0  0  0  0  0
    0.3638  -13.5612  -21.1907 C   0  0  0  0  0  0  0  0  0  0  0  0
   -1.9165  -13.4846  -22.2098 C   0  0  0  0  0  0  0  0  0  0  0  0
 18 17  1  0  0  0
 28 27  1  0  0  0
  1  2  2  0  0  0
 26 27  1  0  0  0
 26  9  1  0  0  0
 19 17  1  0  0  0
 27 29  1  0  0  0
 17 16  1  0  0  0
 17 20  1  0  0  0
  2  8  1  0  0  0
  2  3  1  0  0  0
  9 10  2  0  0  0
  9  8  1  0  0  0
 10 11  1  0  0  0
  8  6  2  0  0  0
 16 15  1  0  0  0
  3  4  1  0  0  0
 20 21  1  0  0  0
 21 22  2  0  0  0
 21 23  1  0  0  0
 15 23  2  0  0  0
 15 13  1  0  0  0
 11 13  1  0  0  0
 11  7  2  0  0  0
  6  7  1  0  0  0
  6  5  1  0  0  0
 23 24  1  0  0  0
 13 14  1  0  0  0
  5  4  1  0  0  0
 24 14  2  0  0  0
 24 25  1  0  0  0
  3 12  1  0  0  0
M  END
> <minimizedAffinity>
-10.75400

$$$$
4O09_2R6_A_4000


 29 32  0  0  0  0  0  0  0  0999 V2000
   -1.9459  -11.6305  -25.6852 O   0  0  0  0  0  0  0  0  0  0  0  0
   -1.2792  -11.8096  -24.6665 C   0  0  0  0  0  0  0  0  0  0  0  0
   -1.7829  -12.5384  -23.6496 N   0  0  0  0  0  0  0  0  0  0  0  0
   -1.0659  -12.9486  -22.4288 C   0  0  0  0  0  0  0  0  0  0  0  0
    0.3846  -13.2065  -22.7760 C   0  0  0  0  0  0  0  0  0  0  0  0
    0.9526  -12.0844  -23.6138 C   0  0  0  0  0  0  0  0  0  0  0  0
    2.3047  -11.7632  -23.4888 C   0  0  0  0  0  0  0  0  0  0  0  0
    0.1314  -11.3361  -24.5125 C   0  0  0  0  0  0  0  0  0  0  0  0
    0.6950  -10.2409  -25.2377 C   0  0  0  0  0  0  0  0  0  0  0  0
    2.0550   -9.9630  -25.1025 C   0  0  0  0  0  0  0  0  0  0  0  0
    2.8508  -10.7233  -24.2457 C   0  0  0  0  0  0  0  0  0  0  0  0
   -2.7215  -12.8245  -23.7305 H   0  0  0  0  0  0  0  0  0  0  0  0
    4.2693  -10.4660  -24.1855 N   0  0  0  0  0  0  0  0  0  0  0  0
    5.2368  -11.4341  -24.0056 C   0  0  0  0  0  0  0  0  0  0  0  0
    4.8702   -9.2322  -23.9508 C   0  0  0  0  0  0  0  0  0  0  0  0
    4.1923   -7.8929  -23.9587 C   0  0  0  0  0  0  0  0  0  0  0  0
    4.9357   -6.7933  -23.1883 C   0  0  0  0  0  0  0  0  0  0  0  0
    4.7275   -6.9722  -21.6807 C   0  0  0  0  0  0  0  0  0  0  0  0
    4.3888   -5.4287  -23.6008 C   0  0  0  0  0  0  0  0  0  0  0  0
    6.4312   -6.8824  -23.5290 C   0  0  0  0  0  0  0  0  0  0  0  0
    7.0521   -8.2551  -23.3932 C   0  0  0  0  0  0  0  0  0  0  0  0
    8.2194   -8.3599  -23.0391 O   0  0  0  0  0  0  0  0  0  0  0  0
    6.2024   -9.4388  -23.6483 C   0  0  0  0  0  0  0  0  0  0  0  0
    6.4237  -10.8613  -23.6760 C   0  0  0  0  0  0  0  0  0  0  0  0
    7.6924  -11.6177  -23.3826 C   0  0  0  0  0  0  0  0  0  0  0  0
   -0.0424   -9.2730  -26.1358 C   0  0  0  0  0  0  0  0  0  0  0  0
    0.7496   -8.1239  -26.7742 C   0  0  0  0  0  0  0  0  0  0  0  0
    0.0428   -6.8014  -26.5018 C   0  0  0  0  0  0  0  0  0  0  0  0
    0.9974   -8.2766  -28.2785 C   0  0  0  0  0  0  0  0  0  0  0  0
 18 17  1  0  0  0
 28 27  1  0  0  0
  1  2  2  0  0  0
 26 27  1  0  0  0
 26  9  1  0  0  0
 19 17  1  0  0  0
 27 29  1  0  0  0
 17 16  1  0  0  0
 17 20  1  0  0  0
  2  8  1  0  0  0
  2  3  1  0  0  0
  9 10  2  0  0  0
  9  8  1  0  0  0
 10 11  1  0  0  0
  8  6  2  0  0  0
 16 15  1  0  0  0
  3  4  1  0  0  0
 20 21  1  0  0  0
 21 22  2  0  0  0
 21 23  1  0  0  0
 15 23  2  0  0  0
 15 13  1  0  0  0
 11 13  1  0  0  0
 11  7  2  0  0  0
  6  7  1  0  0  0
  6  5  1  0  0  0
 23 24  1  0  0  0
 13 14  1  0  0  0
  5  4  1  0  0  0
 24 14  2  0  0  0
 24 25  1  0  0  0
  3 12  1  0  0  0
M  END
> <minimizedAffinity>
-10.24024

$$$$
4O09_2R6_A_4000


 29 32  0  0  0  0  0  0  0  0999 V2000
    9.2573  -11.8344  -24.4253 O   0  0  0  0  0  0  0  0  0  0  0  0
    8.5502  -11.0222  -23.8297 C   0  0  0  0  0  0  0  0  0  0  0  0
    9.1170  -10.0690  -23.0620 N   0  0  0  0  0  0  0  0  0  0  0  0
    8.4200   -8.9540  -22.3960 C   0  0  0  0  0  0  0  0  0  0  0  0
    7.2675   -8.5056  -23.2685 C   0  0  0  0  0  0  0  0  0  0  0  0
    6.4586   -9.6866  -23.7529 C   0  0  0  0  0  0  0  0  0  0  0  0
    5.0885   -9.5282  -23.9648 C   0  0  0  0  0  0  0  0  0  0  0  0
    7.0629  -10.9618  -23.9777 C   0  0  0  0  0  0  0  0  0  0  0  0
    6.2493  -12.0684  -24.3734 C   0  0  0  0  0  0  0  0  0  0  0  0
    4.8872  -11.8667  -24.5955 C   0  0  0  0  0  0  0  0  0  0  0  0
    4.3177  -10.6080  -24.4031 C   0  0  0  0  0  0  0  0  0  0  0  0
   10.0916  -10.1233  -22.9339 H   0  0  0  0  0  0  0  0  0  0  0  0
    2.9236  -10.4085  -24.7170 N   0  0  0  0  0  0  0  0  0  0  0  0
    2.3320   -9.1779  -24.9204 C   0  0  0  0  0  0  0  0  0  0  0  0
    1.9000  -11.3336  -24.5309 C   0  0  0  0  0  0  0  0  0  0  0  0
    2.0611  -12.7901  -24.2054 C   0  0  0  0  0  0  0  0  0  0  0  0
    0.8302  -13.4435  -23.5626 C   0  0  0  0  0  0  0  0  0  0  0  0
    0.7339  -13.0482  -22.0851 C   0  0  0  0  0  0  0  0  0  0  0  0
    0.9565  -14.9623  -23.6571 C   0  0  0  0  0  0  0  0  0  0  0  0
   -0.4232  -12.9747  -24.3174 C   0  0  0  0  0  0  0  0  0  0  0  0
   -0.5504  -11.4796  -24.5083 C   0  0  0  0  0  0  0  0  0  0  0  0
   -1.6595  -10.9610  -24.5099 O   0  0  0  0  0  0  0  0  0  0  0  0
    0.6874  -10.6802  -24.6387 C   0  0  0  0  0  0  0  0  0  0  0  0
    0.9789   -9.2907  -24.8787 C   0  0  0  0  0  0  0  0  0  0  0  0
    0.0145   -8.1449  -25.0359 C   0  0  0  0  0  0  0  0  0  0  0  0
    6.6919  -13.5047  -24.5417 C   0  0  0  0  0  0  0  0  0  0  0  0
    6.1811  -14.2863  -25.7596 C   0  0  0  0  0  0  0  0  0  0  0  0
    5.5449  -15.5927  -25.2996 C   0  0  0  0  0  0  0  0  0  0  0  0
    7.2436  -14.5764  -26.8247 C   0  0  0  0  0  0  0  0  0  0  0  0
 18 17  1  0  0  0
 28 27  1  0  0  0
  1  2  2  0  0  0
 26 27  1  0  0  0
 26  9  1  0  0  0
 19 17  1  0  0  0
 27 29  1  0  0  0
 17 16  1  0  0  0
 17 20  1  0  0  0
  2  8  1  0  0  0
  2  3  1  0  0  0
  9 10  2  0  0  0
  9  8  1  0  0  0
 10 11  1  0  0  0
  8  6  2  0  0  0
 16 15  1  0  0  0
  3  4  1  0  0  0
 20 21  1  0  0  0
 21 22  2  0  0  0
 21 23  1  0  0  0
 15 23  2  0  0  0
 15 13  1  0  0  0
 11 13  1  0  0  0
 11  7  2  0  0  0
  6  7  1  0  0  0
  6  5  1  0  0  0
 23 24  1  0  0  0
 13 14  1  0  0  0
  5  4  1  0  0  0
 24 14  2  0  0  0
 24 25  1  0  0  0
  3 12  1  0  0  0
M  END
> <minimizedAffinity>
-10.14743

$$$$
4O09_2R6_A_4000


 29 32  0  0  0  0  0  0  0  0999 V2000
    1.0157   -7.4891  -23.4872 O   0  0  0  0  0  0  0  0  0  0  0  0
    2.1910   -7.1317  -23.5592 C   0  0  0  0  0  0  0  0  0  0  0  0
    2.5170   -5.8387  -23.3563 N   0  0  0  0  0  0  0  0  0  0  0  0
    3.8798   -5.2824  -23.2799 C   0  0  0  0  0  0  0  0  0  0  0  0
    4.7914   -6.3057  -22.6377 C   0  0  0  0  0  0  0  0  0  0  0  0
    4.5945   -7.6727  -23.2513 C   0  0  0  0  0  0  0  0  0  0  0  0
    5.6814   -8.5445  -23.3262 C   0  0  0  0  0  0  0  0  0  0  0  0
    3.3279   -8.0803  -23.7722 C   0  0  0  0  0  0  0  0  0  0  0  0
    3.2018   -9.3569  -24.4025 C   0  0  0  0  0  0  0  0  0  0  0  0
    4.3050  -10.2094  -24.4399 C   0  0  0  0  0  0  0  0  0  0  0  0
    5.5266   -9.8100  -23.8981 C   0  0  0  0  0  0  0  0  0  0  0  0
    1.7717   -5.2045  -23.2488 H   0  0  0  0  0  0  0  0  0  0  0  0
    6.6285  -10.7413  -23.8785 N   0  0  0  0  0  0  0  0  0  0  0  0
    7.9605  -10.3820  -23.8294 C   0  0  0  0  0  0  0  0  0  0  0  0
    6.5755  -12.0831  -24.2459 C   0  0  0  0  0  0  0  0  0  0  0  0
    5.3359  -12.8919  -24.4963 C   0  0  0  0  0  0  0  0  0  0  0  0
    5.5500  -14.1428  -25.3594 C   0  0  0  0  0  0  0  0  0  0  0  0
    5.6807  -13.7499  -26.8348 C   0  0  0  0  0  0  0  0  0  0  0  0
    4.3510  -15.0755  -25.2043 C   0  0  0  0  0  0  0  0  0  0  0  0
    6.8286  -14.8512  -24.8863 C   0  0  0  0  0  0  0  0  0  0  0  0
    8.0543  -13.9735  -24.7616 C   0  0  0  0  0  0  0  0  0  0  0  0
    9.1609  -14.4408  -24.9977 O   0  0  0  0  0  0  0  0  0  0  0  0
    7.8660  -12.5509  -24.4022 C   0  0  0  0  0  0  0  0  0  0  0  0
    8.7486  -11.4434  -24.1421 C   0  0  0  0  0  0  0  0  0  0  0  0
   10.2525  -11.4077  -24.2117 C   0  0  0  0  0  0  0  0  0  0  0  0
    1.9805   -9.9031  -25.1077 C   0  0  0  0  0  0  0  0  0  0  0  0
    0.9663  -10.7115  -24.2874 C   0  0  0  0  0  0  0  0  0  0  0  0
    1.4771  -12.1353  -24.1008 C   0  0  0  0  0  0  0  0  0  0  0  0
   -0.4492  -10.7434  -24.8729 C   0  0  0  0  0  0  0  0  0  0  0  0
 18 17  1  0  0  0
 28 27  1  0  0  0
  1  2  2  0  0  0
 26 27  1  0  0  0
 26  9  1  0  0  0
 19 17  1  0  0  0
 27 29  1  0  0  0
 17 16  1  0  0  0
 17 20  1  0  0  0
  2  8  1  0  0  0
  2  3  1  0  0  0
  9 10  2  0  0  0
  9  8  1  0  0  0
 10 11  1  0  0  0
  8  6  2  0  0  0
 16 15  1  0  0  0
  3  4  1  0  0  0
 20 21  1  0  0  0
 21 22  2  0  0  0
 21 23  1  0  0  0
 15 23  2  0  0  0
 15 13  1  0  0  0
 11 13  1  0  0  0
 11  7  2  0  0  0
  6  7  1  0  0  0
  6  5  1  0  0  0
 23 24  1  0  0  0
 13 14  1  0  0  0
  5  4  1  0  0  0
 24 14  2  0  0  0
 24 25  1  0  0  0
  3 12  1  0  0  0
M  END
> <minimizedAffinity>
-9.96164

$$$$
4O09_2R6_A_4000


 29 32  0  0  0  0  0  0  0  0999 V2000
    1.8101   -6.3332  -24.1332 O   0  0  0  0  0  0  0  0  0  0  0  0
    1.7753   -7.5633  -24.1298 C   0  0  0  0  0  0  0  0  0  0  0  0
    0.6241   -8.2068  -24.4124 N   0  0  0  0  0  0  0  0  0  0  0  0
    0.4530   -9.6617  -24.5753 C   0  0  0  0  0  0  0  0  0  0  0  0
    1.7055  -10.2350  -25.2027 C   0  0  0  0  0  0  0  0  0  0  0  0
    2.9466   -9.7189  -24.5120 C   0  0  0  0  0  0  0  0  0  0  0  0
    4.0723  -10.5401  -24.4390 C   0  0  0  0  0  0  0  0  0  0  0  0
    2.9830   -8.4201  -23.9173 C   0  0  0  0  0  0  0  0  0  0  0  0
    4.1553   -7.9968  -23.2177 C   0  0  0  0  0  0  0  0  0  0  0  0
    5.2681   -8.8368  -23.1837 C   0  0  0  0  0  0  0  0  0  0  0  0
    5.2285  -10.0890  -23.7970 C   0  0  0  0  0  0  0  0  0  0  0  0
   -0.1808   -7.6502  -24.5204 H   0  0  0  0  0  0  0  0  0  0  0  0
    6.4191  -10.9039  -23.8159 N   0  0  0  0  0  0  0  0  0  0  0  0
    7.7070  -10.4161  -23.7212 C   0  0  0  0  0  0  0  0  0  0  0  0
    6.5068  -12.2182  -24.2668 C   0  0  0  0  0  0  0  0  0  0  0  0
    5.3587  -13.1302  -24.5887 C   0  0  0  0  0  0  0  0  0  0  0  0
    5.7084  -14.2957  -25.5239 C   0  0  0  0  0  0  0  0  0  0  0  0
    5.8151  -13.7987  -26.9696 C   0  0  0  0  0  0  0  0  0  0  0  0
    4.6088  -15.3524  -25.4481 C   0  0  0  0  0  0  0  0  0  0  0  0
    7.0471  -14.9003  -25.0733 C   0  0  0  0  0  0  0  0  0  0  0  0
    8.1757  -13.9133  -24.8728 C   0  0  0  0  0  0  0  0  0  0  0  0
    9.3267  -14.2509  -25.1180 O   0  0  0  0  0  0  0  0  0  0  0  0
    7.8398  -12.5427  -24.4292 C   0  0  0  0  0  0  0  0  0  0  0  0
    8.6023  -11.3707  -24.0853 C   0  0  0  0  0  0  0  0  0  0  0  0
   10.0955  -11.1794  -24.1261 C   0  0  0  0  0  0  0  0  0  0  0  0
    4.3302   -6.7153  -22.4338 C   0  0  0  0  0  0  0  0  0  0  0  0
    5.2582   -5.6339  -23.0035 C   0  0  0  0  0  0  0  0  0  0  0  0
    5.1208   -4.3570  -22.1828 C   0  0  0  0  0  0  0  0  0  0  0  0
    5.0391   -5.3202  -24.4871 C   0  0  0  0  0  0  0  0  0  0  0  0
 18 17  1  0  0  0
 28 27  1  0  0  0
  1  2  2  0  0  0
 26 27  1  0  0  0
 26  9  1  0  0  0
 19 17  1  0  0  0
 27 29  1  0  0  0
 17 16  1  0  0  0
 17 20  1  0  0  0
  2  8  1  0  0  0
  2  3  1  0  0  0
  9 10  2  0  0  0
  9  8  1  0  0  0
 10 11  1  0  0  0
  8  6  2  0  0  0
 16 15  1  0  0  0
  3  4  1  0  0  0
 20 21  1  0  0  0
 21 22  2  0  0  0
 21 23  1  0  0  0
 15 23  2  0  0  0
 15 13  1  0  0  0
 11 13  1  0  0  0
 11  7  2  0  0  0
  6  7  1  0  0  0
  6  5  1  0  0  0
 23 24  1  0  0  0
 13 14  1  0  0  0
  5  4  1  0  0  0
 24 14  2  0  0  0
 24 25  1  0  0  0
  3 12  1  0  0  0
M  END
> <minimizedAffinity>
-9.73842

$$$$
