5UFF_8B7_A_300


 43 45  0  0  0  0  0  0  0  0999 V2000
    8.0325    5.7530   24.4773 C   0  0  0  0  0  0  0  0  0  0  0  0
    8.4891    4.6388   23.6240 C   0  0  0  0  0  0  0  0  0  0  0  0
    9.1145    3.5854   24.3971 C   0  0  0  0  0  0  0  0  0  0  0  0
    9.5775    2.5104   23.5048 O   0  0  0  0  0  0  0  0  0  0  0  0
   10.2277    4.0834   25.2337 C   0  0  0  0  0  0  0  0  0  0  0  0
   11.3942    4.3617   24.4515 O   0  0  0  0  0  0  0  0  0  0  0  0
    9.8363    5.2649   26.1299 C   0  0  0  0  0  0  0  0  0  0  0  0
    9.1359    6.3158   25.2657 O   0  0  0  0  0  0  0  0  0  0  0  0
   10.2484    2.8604   22.8979 H   0  0  0  0  0  0  0  0  0  0  0  0
   11.2034    5.0831   23.8318 H   0  0  0  0  0  0  0  0  0  0  0  0
   10.9606    5.8484   26.7219 C   0  0  0  0  0  0  0  0  0  0  0  0
   10.6215    7.1928   26.8679 O   0  0  0  0  0  0  0  0  0  0  0  0
    9.8171    7.2668   27.4049 H   0  0  0  0  0  0  0  0  0  0  0  0
    7.3001    4.0316   22.9812 O   0  0  0  0  0  0  0  0  0  0  0  0
    7.1000    4.5213   21.6990 C   0  0  0  0  0  0  0  0  0  0  0  0
    7.4312    3.4062   20.7480 C   0  0  0  0  0  0  0  0  0  0  0  0
    8.8135    3.0188   20.9161 O   0  0  0  0  0  0  0  0  0  0  0  0
    6.5557    2.2113   20.9790 C   0  0  0  0  0  0  0  0  0  0  0  0
    6.8226    1.1948   19.9624 O   0  0  0  0  0  0  0  0  0  0  0  0
    5.1051    2.5501   20.9839 C   0  0  0  0  0  0  0  0  0  0  0  0
    4.7218    2.7961   19.6098 O   0  0  0  0  0  0  0  0  0  0  0  0
    4.7403    3.7473   21.8450 C   0  0  0  0  0  0  0  0  0  0  0  0
    5.6574    4.8972   21.6957 O   0  0  0  0  0  0  0  0  0  0  0  0
    3.3630    4.2156   21.5665 C   0  0  0  0  0  0  0  0  0  0  0  0
    8.9518    2.6987   21.8212 H   0  0  0  0  0  0  0  0  0  0  0  0
    6.6033    1.5484   19.0862 H   0  0  0  0  0  0  0  0  0  0  0  0
    5.2266    3.5483   19.2630 H   0  0  0  0  0  0  0  0  0  0  0  0
    7.5783    6.7542   23.6077 O   0  0  0  0  0  0  0  0  0  0  0  0
    5.2762   10.0088   23.2912 C   0  0  0  0  0  0  0  0  0  0  0  0
    4.4683   11.1730   23.3946 O   0  0  0  0  0  0  0  0  0  0  0  0
    6.4803   10.1724   24.0576 C   0  0  0  0  0  0  0  0  0  0  0  0
    7.1053   11.4796   23.7025 O   0  0  0  0  0  0  0  0  0  0  0  0
    7.3724    9.0584   23.7980 C   0  0  0  0  0  0  0  0  0  0  0  0
    8.6731    9.2771   24.4790 O   0  0  0  0  0  0  0  0  0  0  0  0
    6.7787    7.7635   24.2568 C   0  0  0  0  0  0  0  0  0  0  0  0
    5.3571    7.5738   23.7436 C   0  0  0  0  0  0  0  0  0  0  0  0
    4.5524    8.8615   23.8628 O   0  0  0  0  0  0  0  0  0  0  0  0
    4.2495   11.3329   24.3260 H   0  0  0  0  0  0  0  0  0  0  0  0
    7.3089   11.4936   22.7542 H   0  0  0  0  0  0  0  0  0  0  0  0
    8.5318    9.3274   25.4374 H   0  0  0  0  0  0  0  0  0  0  0  0
    4.6668    6.5824   24.4821 C   0  0  0  0  0  0  0  0  0  0  0  0
    3.2913    6.7016   24.1686 O   0  0  0  0  0  0  0  0  0  0  0  0
    2.9827    7.5915   24.4008 H   0  0  0  0  0  0  0  0  0  0  0  0
 32 31  1  0  0  0
 34 33  1  0  0  0
 31 33  1  0  0  0
 31 29  1  0  0  0
 33 35  1  0  0  0
 30 29  1  0  0  0
 29 37  1  0  0  0
 12 11  1  0  0  0
 11  7  1  0  0  0
  6  5  1  0  0  0
  8  7  1  0  0  0
  8  1  1  0  0  0
 35 28  1  0  0  0
 35 36  1  0  0  0
 28  1  1  0  0  0
  7  5  1  0  0  0
 37 36  1  0  0  0
  1  2  1  0  0  0
  5  3  1  0  0  0
 24 22  1  0  0  0
 23 22  1  0  0  0
 23 15  1  0  0  0
 36 41  1  0  0  0
  2  3  1  0  0  0
  2 14  1  0  0  0
  3  4  1  0  0  0
 22 20  1  0  0  0
 15 14  1  0  0  0
 15 16  1  0  0  0
 41 42  1  0  0  0
 21 20  1  0  0  0
 16 17  1  0  0  0
 16 18  1  0  0  0
 20 18  1  0  0  0
 18 19  1  0  0  0
 17 25  1  0  0  0
 19 26  1  0  0  0
 21 27  1  0  0  0
  4  9  1  0  0  0
  6 10  1  0  0  0
 12 13  1  0  0  0
 30 38  1  0  0  0
 32 39  1  0  0  0
 34 40  1  0  0  0
 42 43  1  0  0  0
M  END
> <minimizedAffinity>
-8.77341

$$$$
5UFF_8B7_A_300


 43 45  0  0  0  0  0  0  0  0999 V2000
    9.2018    5.2420   24.2995 C   0  0  0  0  0  0  0  0  0  0  0  0
    8.9880    6.2397   25.3657 C   0  0  0  0  0  0  0  0  0  0  0  0
   10.2318    6.6386   25.9918 C   0  0  0  0  0  0  0  0  0  0  0  0
    9.9685    7.6115   27.0644 O   0  0  0  0  0  0  0  0  0  0  0  0
   10.9981    5.4854   26.5115 C   0  0  0  0  0  0  0  0  0  0  0  0
   10.4228    4.9670   27.7158 O   0  0  0  0  0  0  0  0  0  0  0  0
   11.2358    4.3894   25.4653 C   0  0  0  0  0  0  0  0  0  0  0  0
    9.8968    4.0518   24.8060 O   0  0  0  0  0  0  0  0  0  0  0  0
    9.4203    7.1974   27.7492 H   0  0  0  0  0  0  0  0  0  0  0  0
    9.5383    4.6165   27.5268 H   0  0  0  0  0  0  0  0  0  0  0  0
   11.7516    3.2297   26.0518 C   0  0  0  0  0  0  0  0  0  0  0  0
   10.6410    2.4080   26.2386 O   0  0  0  0  0  0  0  0  0  0  0  0
   10.2071    2.2519   25.3852 H   0  0  0  0  0  0  0  0  0  0  0  0
    8.4235    7.4626   24.7480 O   0  0  0  0  0  0  0  0  0  0  0  0
    7.4702    8.0584   25.5604 C   0  0  0  0  0  0  0  0  0  0  0  0
    7.5998    9.5433   25.3704 C   0  0  0  0  0  0  0  0  0  0  0  0
    8.9218    9.9706   25.7690 O   0  0  0  0  0  0  0  0  0  0  0  0
    7.3679    9.9349   23.9420 C   0  0  0  0  0  0  0  0  0  0  0  0
    7.3825   11.3916   23.8166 O   0  0  0  0  0  0  0  0  0  0  0  0
    6.0920    9.3950   23.3946 C   0  0  0  0  0  0  0  0  0  0  0  0
    5.0180   10.1728   23.9752 O   0  0  0  0  0  0  0  0  0  0  0  0
    5.8654    7.9174   23.6649 C   0  0  0  0  0  0  0  0  0  0  0  0
    6.1855    7.5029   25.0474 O   0  0  0  0  0  0  0  0  0  0  0  0
    4.4675    7.5218   23.3759 C   0  0  0  0  0  0  0  0  0  0  0  0
    9.5846    9.5331   25.2121 H   0  0  0  0  0  0  0  0  0  0  0  0
    6.6584   11.7685   24.3406 H   0  0  0  0  0  0  0  0  0  0  0  0
    5.0254   10.0653   24.9392 H   0  0  0  0  0  0  0  0  0  0  0  0
    7.9277    4.8408   23.8744 O   0  0  0  0  0  0  0  0  0  0  0  0
    5.8397    3.1765   20.8975 C   0  0  0  0  0  0  0  0  0  0  0  0
    5.2900    2.5485   19.7476 O   0  0  0  0  0  0  0  0  0  0  0  0
    6.8826    2.3611   21.4557 C   0  0  0  0  0  0  0  0  0  0  0  0
    6.3765    0.9660   21.6071 O   0  0  0  0  0  0  0  0  0  0  0  0
    7.3074    2.9228   22.7239 C   0  0  0  0  0  0  0  0  0  0  0  0
    8.2908    2.0226   23.3765 O   0  0  0  0  0  0  0  0  0  0  0  0
    7.9123    4.2800   22.5461 C   0  0  0  0  0  0  0  0  0  0  0  0
    7.0268    5.1944   21.7094 C   0  0  0  0  0  0  0  0  0  0  0  0
    6.4537    4.4561   20.5068 O   0  0  0  0  0  0  0  0  0  0  0  0
    5.9894    2.4087   19.0902 H   0  0  0  0  0  0  0  0  0  0  0  0
    5.6027    0.9645   22.1920 H   0  0  0  0  0  0  0  0  0  0  0  0
    9.0750    1.9369   22.8121 H   0  0  0  0  0  0  0  0  0  0  0  0
    7.7515    6.3034   21.2098 C   0  0  0  0  0  0  0  0  0  0  0  0
    6.8473    7.1004   20.4670 O   0  0  0  0  0  0  0  0  0  0  0  0
    6.4692    6.5736   19.7456 H   0  0  0  0  0  0  0  0  0  0  0  0
 32 31  1  0  0  0
 34 33  1  0  0  0
 31 33  1  0  0  0
 31 29  1  0  0  0
 33 35  1  0  0  0
 30 29  1  0  0  0
 29 37  1  0  0  0
 12 11  1  0  0  0
 11  7  1  0  0  0
  6  5  1  0  0  0
  8  7  1  0  0  0
  8  1  1  0  0  0
 35 28  1  0  0  0
 35 36  1  0  0  0
 28  1  1  0  0  0
  7  5  1  0  0  0
 37 36  1  0  0  0
  1  2  1  0  0  0
  5  3  1  0  0  0
 24 22  1  0  0  0
 23 22  1  0  0  0
 23 15  1  0  0  0
 36 41  1  0  0  0
  2  3  1  0  0  0
  2 14  1  0  0  0
  3  4  1  0  0  0
 22 20  1  0  0  0
 15 14  1  0  0  0
 15 16  1  0  0  0
 41 42  1  0  0  0
 21 20  1  0  0  0
 16 17  1  0  0  0
 16 18  1  0  0  0
 20 18  1  0  0  0
 18 19  1  0  0  0
 17 25  1  0  0  0
 19 26  1  0  0  0
 21 27  1  0  0  0
  4  9  1  0  0  0
  6 10  1  0  0  0
 12 13  1  0  0  0
 30 38  1  0  0  0
 32 39  1  0  0  0
 34 40  1  0  0  0
 42 43  1  0  0  0
M  END
> <minimizedAffinity>
-8.42096

$$$$
5UFF_8B7_A_300


 43 45  0  0  0  0  0  0  0  0999 V2000
    6.5612    7.1919   24.9797 C   0  0  0  0  0  0  0  0  0  0  0  0
    7.9535    7.5395   25.3246 C   0  0  0  0  0  0  0  0  0  0  0  0
    8.0747    8.9128   25.7692 C   0  0  0  0  0  0  0  0  0  0  0  0
    9.4806    9.2225   26.0756 O   0  0  0  0  0  0  0  0  0  0  0  0
    7.5319    9.8750   24.7862 C   0  0  0  0  0  0  0  0  0  0  0  0
    8.4080   10.0379   23.6655 O   0  0  0  0  0  0  0  0  0  0  0  0
    6.0936    9.5614   24.3556 C   0  0  0  0  0  0  0  0  0  0  0  0
    6.0210    8.0878   23.9495 O   0  0  0  0  0  0  0  0  0  0  0  0
   10.0146    9.1313   25.2710 H   0  0  0  0  0  0  0  0  0  0  0  0
    8.4767    9.1986   23.1841 H   0  0  0  0  0  0  0  0  0  0  0  0
    5.7066   10.3464   23.2651 C   0  0  0  0  0  0  0  0  0  0  0  0
    6.1352    9.6302   22.1485 O   0  0  0  0  0  0  0  0  0  0  0  0
    5.7312    8.7484   22.1553 H   0  0  0  0  0  0  0  0  0  0  0  0
    8.3711    6.6947   26.4680 O   0  0  0  0  0  0  0  0  0  0  0  0
    9.6002    6.0925   26.2432 C   0  0  0  0  0  0  0  0  0  0  0  0
   10.3282    6.0797   27.5575 C   0  0  0  0  0  0  0  0  0  0  0  0
   10.5222    7.4357   28.0187 O   0  0  0  0  0  0  0  0  0  0  0  0
    9.5680    5.3123   28.5971 C   0  0  0  0  0  0  0  0  0  0  0  0
   10.3585    5.2185   29.8236 O   0  0  0  0  0  0  0  0  0  0  0  0
    9.1820    3.9477   28.1410 C   0  0  0  0  0  0  0  0  0  0  0  0
   10.3827    3.1392   28.1570 O   0  0  0  0  0  0  0  0  0  0  0  0
    8.5448    3.9006   26.7628 C   0  0  0  0  0  0  0  0  0  0  0  0
    9.2327    4.7333   25.7533 O   0  0  0  0  0  0  0  0  0  0  0  0
    8.4724    2.5142   26.2464 C   0  0  0  0  0  0  0  0  0  0  0  0
    9.6594    7.8583   28.1523 H   0  0  0  0  0  0  0  0  0  0  0  0
   11.1766    4.7292   29.6443 H   0  0  0  0  0  0  0  0  0  0  0  0
   11.0322    3.5126   27.5408 H   0  0  0  0  0  0  0  0  0  0  0  0
    6.6006    5.8989   24.4396 O   0  0  0  0  0  0  0  0  0  0  0  0
    6.2838    3.7801   21.0629 C   0  0  0  0  0  0  0  0  0  0  0  0
    6.2315    3.2092   19.7629 O   0  0  0  0  0  0  0  0  0  0  0  0
    7.5371    4.4553   21.2568 C   0  0  0  0  0  0  0  0  0  0  0  0
    8.6459    3.5393   20.8604 O   0  0  0  0  0  0  0  0  0  0  0  0
    7.6504    4.8739   22.6410 C   0  0  0  0  0  0  0  0  0  0  0  0
    8.9931    5.4560   22.8896 O   0  0  0  0  0  0  0  0  0  0  0  0
    6.5969    5.8751   22.9979 C   0  0  0  0  0  0  0  0  0  0  0  0
    5.2059    5.4120   22.5845 C   0  0  0  0  0  0  0  0  0  0  0  0
    5.2229    4.7921   21.1933 O   0  0  0  0  0  0  0  0  0  0  0  0
    6.3381    3.9079   19.0985 H   0  0  0  0  0  0  0  0  0  0  0  0
    8.6119    2.7364   21.4038 H   0  0  0  0  0  0  0  0  0  0  0  0
    9.1140    6.2400   22.3314 H   0  0  0  0  0  0  0  0  0  0  0  0
    4.2895    6.4907   22.5478 C   0  0  0  0  0  0  0  0  0  0  0  0
    4.6116    7.2820   21.4187 O   0  0  0  0  0  0  0  0  0  0  0  0
    5.5250    7.5991   21.4962 H   0  0  0  0  0  0  0  0  0  0  0  0
 32 31  1  0  0  0
 34 33  1  0  0  0
 31 33  1  0  0  0
 31 29  1  0  0  0
 33 35  1  0  0  0
 30 29  1  0  0  0
 29 37  1  0  0  0
 12 11  1  0  0  0
 11  7  1  0  0  0
  6  5  1  0  0  0
  8  7  1  0  0  0
  8  1  1  0  0  0
 35 28  1  0  0  0
 35 36  1  0  0  0
 28  1  1  0  0  0
  7  5  1  0  0  0
 37 36  1  0  0  0
  1  2  1  0  0  0
  5  3  1  0  0  0
 24 22  1  0  0  0
 23 22  1  0  0  0
 23 15  1  0  0  0
 36 41  1  0  0  0
  2  3  1  0  0  0
  2 14  1  0  0  0
  3  4  1  0  0  0
 22 20  1  0  0  0
 15 14  1  0  0  0
 15 16  1  0  0  0
 41 42  1  0  0  0
 21 20  1  0  0  0
 16 17  1  0  0  0
 16 18  1  0  0  0
 20 18  1  0  0  0
 18 19  1  0  0  0
 17 25  1  0  0  0
 19 26  1  0  0  0
 21 27  1  0  0  0
  4  9  1  0  0  0
  6 10  1  0  0  0
 12 13  1  0  0  0
 30 38  1  0  0  0
 32 39  1  0  0  0
 34 40  1  0  0  0
 42 43  1  0  0  0
M  END
> <minimizedAffinity>
-8.11899

$$$$
5UFF_8B7_A_300


 43 45  0  0  0  0  0  0  0  0999 V2000
    8.3371    5.2702   23.6183 C   0  0  0  0  0  0  0  0  0  0  0  0
    8.3181    6.1117   24.8305 C   0  0  0  0  0  0  0  0  0  0  0  0
    9.5987    6.1153   25.5076 C   0  0  0  0  0  0  0  0  0  0  0  0
    9.5257    6.9433   26.7224 O   0  0  0  0  0  0  0  0  0  0  0  0
   10.0689    4.7518   25.8343 C   0  0  0  0  0  0  0  0  0  0  0  0
    9.3529    4.1964   26.9428 O   0  0  0  0  0  0  0  0  0  0  0  0
   10.0884    3.8073   24.6260 C   0  0  0  0  0  0  0  0  0  0  0  0
    8.7300    3.8894   23.9264 O   0  0  0  0  0  0  0  0  0  0  0  0
    8.8765    6.5628   27.3345 H   0  0  0  0  0  0  0  0  0  0  0  0
    8.4189    4.0895   26.7036 H   0  0  0  0  0  0  0  0  0  0  0  0
   10.3111    2.4839   25.0186 C   0  0  0  0  0  0  0  0  0  0  0  0
   10.3781    1.7704   23.8228 O   0  0  0  0  0  0  0  0  0  0  0  0
   11.0850    2.1353   23.2678 H   0  0  0  0  0  0  0  0  0  0  0  0
    8.0632    7.5117   24.4174 O   0  0  0  0  0  0  0  0  0  0  0  0
    7.1323    8.1309   25.2383 C   0  0  0  0  0  0  0  0  0  0  0  0
    7.4397    9.6015   25.2169 C   0  0  0  0  0  0  0  0  0  0  0  0
    8.7727    9.8268   25.7282 O   0  0  0  0  0  0  0  0  0  0  0  0
    7.3459   10.1604   23.8290 C   0  0  0  0  0  0  0  0  0  0  0  0
    7.5319   11.6103   23.8628 O   0  0  0  0  0  0  0  0  0  0  0  0
    6.0555    9.8336   23.1603 C   0  0  0  0  0  0  0  0  0  0  0  0
    5.0403   10.6702   23.7645 O   0  0  0  0  0  0  0  0  0  0  0  0
    5.6476    8.3734   23.2571 C   0  0  0  0  0  0  0  0  0  0  0  0
    5.8292    7.7861   24.6016 O   0  0  0  0  0  0  0  0  0  0  0  0
    4.2358    8.1773   22.8542 C   0  0  0  0  0  0  0  0  0  0  0  0
    9.4168    9.3726   25.1628 H   0  0  0  0  0  0  0  0  0  0  0  0
    6.8223   12.0153   24.3857 H   0  0  0  0  0  0  0  0  0  0  0  0
    4.9733   10.4654   24.7102 H   0  0  0  0  0  0  0  0  0  0  0  0
    7.0199    5.2400   23.1394 O   0  0  0  0  0  0  0  0  0  0  0  0
    4.3149    3.0737   21.1438 C   0  0  0  0  0  0  0  0  0  0  0  0
    3.4850    2.1362   20.4725 O   0  0  0  0  0  0  0  0  0  0  0  0
    4.6707    2.5774   22.4443 C   0  0  0  0  0  0  0  0  0  0  0  0
    3.4331    2.1262   23.1445 O   0  0  0  0  0  0  0  0  0  0  0  0
    5.3624    3.6158   23.1843 C   0  0  0  0  0  0  0  0  0  0  0  0
    5.6209    3.1652   24.5748 O   0  0  0  0  0  0  0  0  0  0  0  0
    6.6562    3.9852   22.5291 C   0  0  0  0  0  0  0  0  0  0  0  0
    6.4825    4.2705   21.0430 C   0  0  0  0  0  0  0  0  0  0  0  0
    5.5670    3.2439   20.3888 O   0  0  0  0  0  0  0  0  0  0  0  0
    3.9541    1.2914   20.3881 H   0  0  0  0  0  0  0  0  0  0  0  0
    2.8190    2.8722   23.2287 H   0  0  0  0  0  0  0  0  0  0  0  0
    6.1915    2.3809   24.5598 H   0  0  0  0  0  0  0  0  0  0  0  0
    7.7201    4.2210   20.3570 C   0  0  0  0  0  0  0  0  0  0  0  0
    8.3944    3.0515   20.7838 O   0  0  0  0  0  0  0  0  0  0  0  0
    8.5259    3.0864   21.7442 H   0  0  0  0  0  0  0  0  0  0  0  0
 32 31  1  0  0  0
 34 33  1  0  0  0
 31 33  1  0  0  0
 31 29  1  0  0  0
 33 35  1  0  0  0
 30 29  1  0  0  0
 29 37  1  0  0  0
 12 11  1  0  0  0
 11  7  1  0  0  0
  6  5  1  0  0  0
  8  7  1  0  0  0
  8  1  1  0  0  0
 35 28  1  0  0  0
 35 36  1  0  0  0
 28  1  1  0  0  0
  7  5  1  0  0  0
 37 36  1  0  0  0
  1  2  1  0  0  0
  5  3  1  0  0  0
 24 22  1  0  0  0
 23 22  1  0  0  0
 23 15  1  0  0  0
 36 41  1  0  0  0
  2  3  1  0  0  0
  2 14  1  0  0  0
  3  4  1  0  0  0
 22 20  1  0  0  0
 15 14  1  0  0  0
 15 16  1  0  0  0
 41 42  1  0  0  0
 21 20  1  0  0  0
 16 17  1  0  0  0
 16 18  1  0  0  0
 20 18  1  0  0  0
 18 19  1  0  0  0
 17 25  1  0  0  0
 19 26  1  0  0  0
 21 27  1  0  0  0
  4  9  1  0  0  0
  6 10  1  0  0  0
 12 13  1  0  0  0
 30 38  1  0  0  0
 32 39  1  0  0  0
 34 40  1  0  0  0
 42 43  1  0  0  0
M  END
> <minimizedAffinity>
-8.06112

$$$$
5UFF_8B7_A_300


 43 45  0  0  0  0  0  0  0  0999 V2000
    5.6956    6.7697   24.5370 C   0  0  0  0  0  0  0  0  0  0  0  0
    6.6800    7.8675   24.4763 C   0  0  0  0  0  0  0  0  0  0  0  0
    6.0570    9.1640   24.6472 C   0  0  0  0  0  0  0  0  0  0  0  0
    7.0698   10.2278   24.5526 O   0  0  0  0  0  0  0  0  0  0  0  0
    4.9642    9.3978   23.6786 C   0  0  0  0  0  0  0  0  0  0  0  0
    5.4692    9.6832   22.3696 O   0  0  0  0  0  0  0  0  0  0  0  0
    3.9135    8.2806   23.6628 C   0  0  0  0  0  0  0  0  0  0  0  0
    4.6370    6.9384   23.5336 O   0  0  0  0  0  0  0  0  0  0  0  0
    7.4712   10.2145   23.6696 H   0  0  0  0  0  0  0  0  0  0  0  0
    5.9442    8.9085   22.0303 H   0  0  0  0  0  0  0  0  0  0  0  0
    3.0364    8.4226   22.5832 C   0  0  0  0  0  0  0  0  0  0  0  0
    3.6203    7.6806   21.5576 O   0  0  0  0  0  0  0  0  0  0  0  0
    3.7341    6.7620   21.8475 H   0  0  0  0  0  0  0  0  0  0  0  0
    7.6217    7.7071   25.6090 O   0  0  0  0  0  0  0  0  0  0  0  0
    8.9437    7.7485   25.1913 C   0  0  0  0  0  0  0  0  0  0  0  0
    9.7087    8.5122   26.2348 C   0  0  0  0  0  0  0  0  0  0  0  0
    9.1832    9.8548   26.3370 O   0  0  0  0  0  0  0  0  0  0  0  0
    9.6191    7.8474   27.5755 C   0  0  0  0  0  0  0  0  0  0  0  0
   10.4699    8.5480   28.5363 O   0  0  0  0  0  0  0  0  0  0  0  0
    9.9907    6.4054   27.5315 C   0  0  0  0  0  0  0  0  0  0  0  0
   11.4301    6.3420   27.3905 O   0  0  0  0  0  0  0  0  0  0  0  0
    9.3263    5.6171   26.4158 C   0  0  0  0  0  0  0  0  0  0  0  0
    9.3236    6.3093   25.1094 O   0  0  0  0  0  0  0  0  0  0  0  0
    9.9628    4.2919   26.2351 C   0  0  0  0  0  0  0  0  0  0  0  0
    8.2524    9.8180   26.6075 H   0  0  0  0  0  0  0  0  0  0  0  0
   11.3947    8.4944   28.2486 H   0  0  0  0  0  0  0  0  0  0  0  0
   11.6926    6.7673   26.5591 H   0  0  0  0  0  0  0  0  0  0  0  0
    6.3949    5.5960   24.2231 O   0  0  0  0  0  0  0  0  0  0  0  0
    6.7807    2.6696   21.5251 C   0  0  0  0  0  0  0  0  0  0  0  0
    6.7428    1.7158   20.4728 O   0  0  0  0  0  0  0  0  0  0  0  0
    6.6987    4.0004   20.9900 C   0  0  0  0  0  0  0  0  0  0  0  0
    7.7001    4.1428   19.8934 O   0  0  0  0  0  0  0  0  0  0  0  0
    6.9204    4.9622   22.0530 C   0  0  0  0  0  0  0  0  0  0  0  0
    6.9696    6.3369   21.4949 O   0  0  0  0  0  0  0  0  0  0  0  0
    5.8491    4.8830   23.0948 C   0  0  0  0  0  0  0  0  0  0  0  0
    5.6172    3.4537   23.5676 C   0  0  0  0  0  0  0  0  0  0  0  0
    5.6088    2.4808   22.3958 O   0  0  0  0  0  0  0  0  0  0  0  0
    5.9197    1.8211   19.9705 H   0  0  0  0  0  0  0  0  0  0  0  0
    8.5893    3.9785   20.2443 H   0  0  0  0  0  0  0  0  0  0  0  0
    6.1198    6.5467   21.0769 H   0  0  0  0  0  0  0  0  0  0  0  0
    4.3712    3.3211   24.2271 C   0  0  0  0  0  0  0  0  0  0  0  0
    3.4833    4.2593   23.6475 O   0  0  0  0  0  0  0  0  0  0  0  0
    3.8436    5.1536   23.7533 H   0  0  0  0  0  0  0  0  0  0  0  0
 32 31  1  0  0  0
 34 33  1  0  0  0
 31 33  1  0  0  0
 31 29  1  0  0  0
 33 35  1  0  0  0
 30 29  1  0  0  0
 29 37  1  0  0  0
 12 11  1  0  0  0
 11  7  1  0  0  0
  6  5  1  0  0  0
  8  7  1  0  0  0
  8  1  1  0  0  0
 35 28  1  0  0  0
 35 36  1  0  0  0
 28  1  1  0  0  0
  7  5  1  0  0  0
 37 36  1  0  0  0
  1  2  1  0  0  0
  5  3  1  0  0  0
 24 22  1  0  0  0
 23 22  1  0  0  0
 23 15  1  0  0  0
 36 41  1  0  0  0
  2  3  1  0  0  0
  2 14  1  0  0  0
  3  4  1  0  0  0
 22 20  1  0  0  0
 15 14  1  0  0  0
 15 16  1  0  0  0
 41 42  1  0  0  0
 21 20  1  0  0  0
 16 17  1  0  0  0
 16 18  1  0  0  0
 20 18  1  0  0  0
 18 19  1  0  0  0
 17 25  1  0  0  0
 19 26  1  0  0  0
 21 27  1  0  0  0
  4  9  1  0  0  0
  6 10  1  0  0  0
 12 13  1  0  0  0
 30 38  1  0  0  0
 32 39  1  0  0  0
 34 40  1  0  0  0
 42 43  1  0  0  0
M  END
> <minimizedAffinity>
-7.98977

$$$$
5UFF_8B7_A_300


 43 45  0  0  0  0  0  0  0  0999 V2000
    6.4432    6.6886   22.5906 C   0  0  0  0  0  0  0  0  0  0  0  0
    4.9707    6.7785   22.6340 C   0  0  0  0  0  0  0  0  0  0  0  0
    4.4809    7.9700   21.9717 C   0  0  0  0  0  0  0  0  0  0  0  0
    3.0132    8.0318   22.0629 O   0  0  0  0  0  0  0  0  0  0  0  0
    5.0886    9.2061   22.5102 C   0  0  0  0  0  0  0  0  0  0  0  0
    4.5429    9.5508   23.7883 O   0  0  0  0  0  0  0  0  0  0  0  0
    6.6220    9.1759   22.5247 C   0  0  0  0  0  0  0  0  0  0  0  0
    7.0736    7.8728   23.1876 O   0  0  0  0  0  0  0  0  0  0  0  0
    2.7493    8.0901   22.9945 H   0  0  0  0  0  0  0  0  0  0  0  0
    4.7656    8.8601   24.4319 H   0  0  0  0  0  0  0  0  0  0  0  0
    7.1449   10.2517   23.2488 C   0  0  0  0  0  0  0  0  0  0  0  0
    8.2735    9.7325   23.8813 O   0  0  0  0  0  0  0  0  0  0  0  0
    8.8837    9.3792   23.2151 H   0  0  0  0  0  0  0  0  0  0  0  0
    4.4151    5.6283   21.8830 O   0  0  0  0  0  0  0  0  0  0  0  0
    3.2809    5.1130   22.4928 C   0  0  0  0  0  0  0  0  0  0  0  0
    2.4611    4.4633   21.4141 C   0  0  0  0  0  0  0  0  0  0  0  0
    2.0838    5.4512   20.4289 O   0  0  0  0  0  0  0  0  0  0  0  0
    3.2204    3.3616   20.7378 C   0  0  0  0  0  0  0  0  0  0  0  0
    2.3544    2.6752   19.7804 O   0  0  0  0  0  0  0  0  0  0  0  0
    3.7884    2.3762   21.6998 C   0  0  0  0  0  0  0  0  0  0  0  0
    2.6868    1.5707   22.1827 O   0  0  0  0  0  0  0  0  0  0  0  0
    4.5297    2.9954   22.8724 C   0  0  0  0  0  0  0  0  0  0  0  0
    3.8325    4.1464   23.4845 O   0  0  0  0  0  0  0  0  0  0  0  0
    4.7940    1.9973   23.9344 C   0  0  0  0  0  0  0  0  0  0  0  0
    2.8819    5.8238   20.0225 H   0  0  0  0  0  0  0  0  0  0  0  0
    1.6114    2.2668   20.2516 H   0  0  0  0  0  0  0  0  0  0  0  0
    2.0487    2.1382   22.6428 H   0  0  0  0  0  0  0  0  0  0  0  0
    6.7932    5.5806   23.3747 O   0  0  0  0  0  0  0  0  0  0  0  0
    9.7344    3.0486   24.3394 C   0  0  0  0  0  0  0  0  0  0  0  0
   10.9043    2.2720   24.5554 O   0  0  0  0  0  0  0  0  0  0  0  0
   10.0173    4.4404   24.5565 C   0  0  0  0  0  0  0  0  0  0  0  0
   10.7146    4.5931   25.8665 O   0  0  0  0  0  0  0  0  0  0  0  0
    8.7803    5.1968   24.5111 C   0  0  0  0  0  0  0  0  0  0  0  0
    9.0370    6.6158   24.8632 O   0  0  0  0  0  0  0  0  0  0  0  0
    8.1438    5.1240   23.1587 C   0  0  0  0  0  0  0  0  0  0  0  0
    8.0321    3.6902   22.6568 C   0  0  0  0  0  0  0  0  0  0  0  0
    9.3084    2.9078   22.9374 O   0  0  0  0  0  0  0  0  0  0  0  0
   11.6039    2.5664   23.9514 H   0  0  0  0  0  0  0  0  0  0  0  0
   10.1474    4.2533   26.5762 H   0  0  0  0  0  0  0  0  0  0  0  0
    9.6467    7.0043   24.2165 H   0  0  0  0  0  0  0  0  0  0  0  0
    7.8159    3.6453   21.2582 C   0  0  0  0  0  0  0  0  0  0  0  0
    8.9383    3.0079   20.6764 O   0  0  0  0  0  0  0  0  0  0  0  0
    9.7415    3.5071   20.8922 H   0  0  0  0  0  0  0  0  0  0  0  0
 32 31  1  0  0  0
 34 33  1  0  0  0
 31 33  1  0  0  0
 31 29  1  0  0  0
 33 35  1  0  0  0
 30 29  1  0  0  0
 29 37  1  0  0  0
 12 11  1  0  0  0
 11  7  1  0  0  0
  6  5  1  0  0  0
  8  7  1  0  0  0
  8  1  1  0  0  0
 35 28  1  0  0  0
 35 36  1  0  0  0
 28  1  1  0  0  0
  7  5  1  0  0  0
 37 36  1  0  0  0
  1  2  1  0  0  0
  5  3  1  0  0  0
 24 22  1  0  0  0
 23 22  1  0  0  0
 23 15  1  0  0  0
 36 41  1  0  0  0
  2  3  1  0  0  0
  2 14  1  0  0  0
  3  4  1  0  0  0
 22 20  1  0  0  0
 15 14  1  0  0  0
 15 16  1  0  0  0
 41 42  1  0  0  0
 21 20  1  0  0  0
 16 17  1  0  0  0
 16 18  1  0  0  0
 20 18  1  0  0  0
 18 19  1  0  0  0
 17 25  1  0  0  0
 19 26  1  0  0  0
 21 27  1  0  0  0
  4  9  1  0  0  0
  6 10  1  0  0  0
 12 13  1  0  0  0
 30 38  1  0  0  0
 32 39  1  0  0  0
 34 40  1  0  0  0
 42 43  1  0  0  0
M  END
> <minimizedAffinity>
-7.92060

$$$$
5UFF_8B7_A_300


 43 45  0  0  0  0  0  0  0  0999 V2000
    5.7200    5.5511   21.9039 C   0  0  0  0  0  0  0  0  0  0  0  0
    6.9001    5.5957   22.7889 C   0  0  0  0  0  0  0  0  0  0  0  0
    8.0841    5.0710   22.1400 C   0  0  0  0  0  0  0  0  0  0  0  0
    9.2273    5.1097   23.0664 O   0  0  0  0  0  0  0  0  0  0  0  0
    7.8828    3.7019   21.6184 C   0  0  0  0  0  0  0  0  0  0  0  0
    7.8856    2.7294   22.6692 O   0  0  0  0  0  0  0  0  0  0  0  0
    6.6538    3.5695   20.7105 C   0  0  0  0  0  0  0  0  0  0  0  0
    5.4527    4.1874   21.4297 O   0  0  0  0  0  0  0  0  0  0  0  0
    9.0426    4.5433   23.8318 H   0  0  0  0  0  0  0  0  0  0  0  0
    7.1311    2.8875   23.2580 H   0  0  0  0  0  0  0  0  0  0  0  0
    6.3688    2.2291   20.4327 C   0  0  0  0  0  0  0  0  0  0  0  0
    5.3342    1.9023   21.3079 O   0  0  0  0  0  0  0  0  0  0  0  0
    4.5836    2.4983   21.1582 H   0  0  0  0  0  0  0  0  0  0  0  0
    7.1916    7.0149   23.0995 O   0  0  0  0  0  0  0  0  0  0  0  0
    6.5437    7.4348   24.2517 C   0  0  0  0  0  0  0  0  0  0  0  0
    7.6102    7.7891   25.2491 C   0  0  0  0  0  0  0  0  0  0  0  0
    8.4149    6.6230   25.5348 O   0  0  0  0  0  0  0  0  0  0  0  0
    8.4974    8.8835   24.7364 C   0  0  0  0  0  0  0  0  0  0  0  0
    9.4445    9.2843   25.7758 O   0  0  0  0  0  0  0  0  0  0  0  0
    7.7345   10.0727   24.2646 C   0  0  0  0  0  0  0  0  0  0  0  0
    7.2528   10.7630   25.4423 O   0  0  0  0  0  0  0  0  0  0  0  0
    6.5714    9.7500   23.3421 C   0  0  0  0  0  0  0  0  0  0  0  0
    5.7472    8.6075   23.7905 O   0  0  0  0  0  0  0  0  0  0  0  0
    5.6809   10.9200   23.1631 C   0  0  0  0  0  0  0  0  0  0  0  0
    8.8472    6.3211   24.7207 H   0  0  0  0  0  0  0  0  0  0  0  0
    8.9586    9.6390   26.5367 H   0  0  0  0  0  0  0  0  0  0  0  0
    6.6608   10.1780   25.9405 H   0  0  0  0  0  0  0  0  0  0  0  0
    4.6268    5.9508   22.6850 O   0  0  0  0  0  0  0  0  0  0  0  0
    1.1169    4.6930   24.1310 C   0  0  0  0  0  0  0  0  0  0  0  0
   -0.1208    4.0950   24.4903 O   0  0  0  0  0  0  0  0  0  0  0  0
    2.1375    3.6882   24.0175 C   0  0  0  0  0  0  0  0  0  0  0  0
    2.1131    2.8344   25.2406 O   0  0  0  0  0  0  0  0  0  0  0  0
    3.4258    4.3281   23.8305 C   0  0  0  0  0  0  0  0  0  0  0  0
    4.5070    3.3111   23.8427 O   0  0  0  0  0  0  0  0  0  0  0  0
    3.4745    5.0950   22.5463 C   0  0  0  0  0  0  0  0  0  0  0  0
    2.2750    6.0204   22.3882 C   0  0  0  0  0  0  0  0  0  0  0  0
    0.9857    5.3272   22.8091 O   0  0  0  0  0  0  0  0  0  0  0  0
   -0.3716    3.4421   23.8182 H   0  0  0  0  0  0  0  0  0  0  0  0
    2.2729    3.3853   26.0228 H   0  0  0  0  0  0  0  0  0  0  0  0
    4.3748    2.6898   23.1097 H   0  0  0  0  0  0  0  0  0  0  0  0
    2.1078    6.4278   21.0425 C   0  0  0  0  0  0  0  0  0  0  0  0
    3.1106    7.3874   20.7629 O   0  0  0  0  0  0  0  0  0  0  0  0
    3.0192    8.1373   21.3712 H   0  0  0  0  0  0  0  0  0  0  0  0
 32 31  1  0  0  0
 34 33  1  0  0  0
 31 33  1  0  0  0
 31 29  1  0  0  0
 33 35  1  0  0  0
 30 29  1  0  0  0
 29 37  1  0  0  0
 12 11  1  0  0  0
 11  7  1  0  0  0
  6  5  1  0  0  0
  8  7  1  0  0  0
  8  1  1  0  0  0
 35 28  1  0  0  0
 35 36  1  0  0  0
 28  1  1  0  0  0
  7  5  1  0  0  0
 37 36  1  0  0  0
  1  2  1  0  0  0
  5  3  1  0  0  0
 24 22  1  0  0  0
 23 22  1  0  0  0
 23 15  1  0  0  0
 36 41  1  0  0  0
  2  3  1  0  0  0
  2 14  1  0  0  0
  3  4  1  0  0  0
 22 20  1  0  0  0
 15 14  1  0  0  0
 15 16  1  0  0  0
 41 42  1  0  0  0
 21 20  1  0  0  0
 16 17  1  0  0  0
 16 18  1  0  0  0
 20 18  1  0  0  0
 18 19  1  0  0  0
 17 25  1  0  0  0
 19 26  1  0  0  0
 21 27  1  0  0  0
  4  9  1  0  0  0
  6 10  1  0  0  0
 12 13  1  0  0  0
 30 38  1  0  0  0
 32 39  1  0  0  0
 34 40  1  0  0  0
 42 43  1  0  0  0
M  END
> <minimizedAffinity>
-7.83292

$$$$
5UFF_8B7_A_300


 43 45  0  0  0  0  0  0  0  0999 V2000
    7.6088    7.4565   24.0606 C   0  0  0  0  0  0  0  0  0  0  0  0
    6.3112    7.0695   23.4736 C   0  0  0  0  0  0  0  0  0  0  0  0
    5.9549    7.9071   22.3468 C   0  0  0  0  0  0  0  0  0  0  0  0
    4.6445    7.5037   21.8115 O   0  0  0  0  0  0  0  0  0  0  0  0
    5.9570    9.3458   22.6891 C   0  0  0  0  0  0  0  0  0  0  0  0
    4.8113    9.7061   23.4686 O   0  0  0  0  0  0  0  0  0  0  0  0
    7.2667    9.8179   23.3329 C   0  0  0  0  0  0  0  0  0  0  0  0
    7.6136    8.8641   24.4782 O   0  0  0  0  0  0  0  0  0  0  0  0
    3.9646    7.6302   22.4917 H   0  0  0  0  0  0  0  0  0  0  0  0
    4.8423    9.2448   24.3213 H   0  0  0  0  0  0  0  0  0  0  0  0
    7.1422   11.1114   23.8490 C   0  0  0  0  0  0  0  0  0  0  0  0
    7.1867   10.9424   25.2321 O   0  0  0  0  0  0  0  0  0  0  0  0
    8.0165   10.5041   25.4778 H   0  0  0  0  0  0  0  0  0  0  0  0
    6.4362    5.6916   22.9433 O   0  0  0  0  0  0  0  0  0  0  0  0
    6.1921    5.6394   21.5790 C   0  0  0  0  0  0  0  0  0  0  0  0
    7.3892    4.9897   20.9447 C   0  0  0  0  0  0  0  0  0  0  0  0
    8.5678    5.7855   21.2031 O   0  0  0  0  0  0  0  0  0  0  0  0
    7.6066    3.6049   21.4763 C   0  0  0  0  0  0  0  0  0  0  0  0
    8.7022    2.9606   20.7535 O   0  0  0  0  0  0  0  0  0  0  0  0
    6.3840    2.7572   21.3976 C   0  0  0  0  0  0  0  0  0  0  0  0
    6.2072    2.3949   20.0073 O   0  0  0  0  0  0  0  0  0  0  0  0
    5.1226    3.4201   21.9241 C   0  0  0  0  0  0  0  0  0  0  0  0
    4.9501    4.8205   21.4829 O   0  0  0  0  0  0  0  0  0  0  0  0
    3.9103    2.6615   21.5382 C   0  0  0  0  0  0  0  0  0  0  0  0
    8.7200    5.8368   22.1597 H   0  0  0  0  0  0  0  0  0  0  0  0
    8.4660    2.8765   19.8164 H   0  0  0  0  0  0  0  0  0  0  0  0
    6.0768    3.1974   19.4782 H   0  0  0  0  0  0  0  0  0  0  0  0
    7.7701    6.6718   25.2110 O   0  0  0  0  0  0  0  0  0  0  0  0
   10.4991    5.3139   27.7996 C   0  0  0  0  0  0  0  0  0  0  0  0
   11.6141    4.8852   28.5686 O   0  0  0  0  0  0  0  0  0  0  0  0
   10.7227    6.6431   27.3022 C   0  0  0  0  0  0  0  0  0  0  0  0
   11.1579    7.5149   28.4318 O   0  0  0  0  0  0  0  0  0  0  0  0
    9.5097    7.1343   26.6764 C   0  0  0  0  0  0  0  0  0  0  0  0
    9.6818    8.5528   26.2740 O   0  0  0  0  0  0  0  0  0  0  0  0
    9.1414    6.3156   25.4791 C   0  0  0  0  0  0  0  0  0  0  0  0
    9.1402    4.8236   25.7863 C   0  0  0  0  0  0  0  0  0  0  0  0
   10.3475    4.4342   26.6292 O   0  0  0  0  0  0  0  0  0  0  0  0
   12.4126    4.9033   28.0182 H   0  0  0  0  0  0  0  0  0  0  0  0
   10.4698    7.5259   29.1154 H   0  0  0  0  0  0  0  0  0  0  0  0
   10.3992    8.6199   25.6246 H   0  0  0  0  0  0  0  0  0  0  0  0
    9.1931    4.0499   24.6016 C   0  0  0  0  0  0  0  0  0  0  0  0
    9.8180    4.8404   23.6070 O   0  0  0  0  0  0  0  0  0  0  0  0
    9.3076    5.6543   23.4729 H   0  0  0  0  0  0  0  0  0  0  0  0
 32 31  1  0  0  0
 34 33  1  0  0  0
 31 33  1  0  0  0
 31 29  1  0  0  0
 33 35  1  0  0  0
 30 29  1  0  0  0
 29 37  1  0  0  0
 12 11  1  0  0  0
 11  7  1  0  0  0
  6  5  1  0  0  0
  8  7  1  0  0  0
  8  1  1  0  0  0
 35 28  1  0  0  0
 35 36  1  0  0  0
 28  1  1  0  0  0
  7  5  1  0  0  0
 37 36  1  0  0  0
  1  2  1  0  0  0
  5  3  1  0  0  0
 24 22  1  0  0  0
 23 22  1  0  0  0
 23 15  1  0  0  0
 36 41  1  0  0  0
  2  3  1  0  0  0
  2 14  1  0  0  0
  3  4  1  0  0  0
 22 20  1  0  0  0
 15 14  1  0  0  0
 15 16  1  0  0  0
 41 42  1  0  0  0
 21 20  1  0  0  0
 16 17  1  0  0  0
 16 18  1  0  0  0
 20 18  1  0  0  0
 18 19  1  0  0  0
 17 25  1  0  0  0
 19 26  1  0  0  0
 21 27  1  0  0  0
  4  9  1  0  0  0
  6 10  1  0  0  0
 12 13  1  0  0  0
 30 38  1  0  0  0
 32 39  1  0  0  0
 34 40  1  0  0  0
 42 43  1  0  0  0
M  END
> <minimizedAffinity>
-7.82750

$$$$
5UFF_8B7_A_300


 43 45  0  0  0  0  0  0  0  0999 V2000
    6.2718    5.7153   22.2575 C   0  0  0  0  0  0  0  0  0  0  0  0
    7.2614    5.1451   23.1921 C   0  0  0  0  0  0  0  0  0  0  0  0
    8.2763    4.3747   22.5031 C   0  0  0  0  0  0  0  0  0  0  0  0
    9.2238    3.8041   23.4741 O   0  0  0  0  0  0  0  0  0  0  0  0
    7.6985    3.3116   21.6529 C   0  0  0  0  0  0  0  0  0  0  0  0
    7.2251    2.2085   22.4333 O   0  0  0  0  0  0  0  0  0  0  0  0
    6.6368    3.8243   20.6719 C   0  0  0  0  0  0  0  0  0  0  0  0
    5.6278    4.6710   21.4507 O   0  0  0  0  0  0  0  0  0  0  0  0
    8.7532    3.1971   24.0667 H   0  0  0  0  0  0  0  0  0  0  0  0
    6.4943    2.5027   22.9991 H   0  0  0  0  0  0  0  0  0  0  0  0
    5.9568    2.7669   20.0600 C   0  0  0  0  0  0  0  0  0  0  0  0
    4.6088    3.1013   20.1800 O   0  0  0  0  0  0  0  0  0  0  0  0
    4.4501    3.9607   19.7591 H   0  0  0  0  0  0  0  0  0  0  0  0
    7.9696    6.2651   23.8553 O   0  0  0  0  0  0  0  0  0  0  0  0
    7.5220    6.4626   25.1532 C   0  0  0  0  0  0  0  0  0  0  0  0
    8.6568    6.0973   26.0677 C   0  0  0  0  0  0  0  0  0  0  0  0
    9.0084    4.7087   25.8750 O   0  0  0  0  0  0  0  0  0  0  0  0
    9.8635    6.9489   25.8103 C   0  0  0  0  0  0  0  0  0  0  0  0
   10.9030    6.6494   26.7940 O   0  0  0  0  0  0  0  0  0  0  0  0
    9.5568    8.4065   25.8295 C   0  0  0  0  0  0  0  0  0  0  0  0
    9.3595    8.7808   27.2139 O   0  0  0  0  0  0  0  0  0  0  0  0
    8.3434    8.8061   25.0074 C   0  0  0  0  0  0  0  0  0  0  0  0
    7.1783    7.9129   25.1815 O   0  0  0  0  0  0  0  0  0  0  0  0
    7.9139   10.1904   25.3129 C   0  0  0  0  0  0  0  0  0  0  0  0
    9.2990    4.5728   24.9596 H   0  0  0  0  0  0  0  0  0  0  0  0
   10.5799    6.8673   27.6823 H   0  0  0  0  0  0  0  0  0  0  0  0
    8.6067    8.2890   27.5776 H   0  0  0  0  0  0  0  0  0  0  0  0
    5.2806    6.3118   23.0492 O   0  0  0  0  0  0  0  0  0  0  0  0
    1.9940    8.5890   22.9821 C   0  0  0  0  0  0  0  0  0  0  0  0
    0.8651    9.4187   22.7465 O   0  0  0  0  0  0  0  0  0  0  0  0
    2.0191    7.5073   22.0369 C   0  0  0  0  0  0  0  0  0  0  0  0
    0.6774    6.8558   22.0124 O   0  0  0  0  0  0  0  0  0  0  0  0
    3.0673    6.5729   22.4009 C   0  0  0  0  0  0  0  0  0  0  0  0
    3.0219    5.3843   21.5128 O   0  0  0  0  0  0  0  0  0  0  0  0
    4.4197    7.2082   22.3182 C   0  0  0  0  0  0  0  0  0  0  0  0
    4.4705    8.5406   23.0547 C   0  0  0  0  0  0  0  0  0  0  0  0
    3.2242    9.3710   22.7770 O   0  0  0  0  0  0  0  0  0  0  0  0
    0.9041    9.7689   21.8428 H   0  0  0  0  0  0  0  0  0  0  0  0
    0.4644    6.5207   22.8974 H   0  0  0  0  0  0  0  0  0  0  0  0
    3.1752    5.6600   20.5956 H   0  0  0  0  0  0  0  0  0  0  0  0
    5.5848    9.3149   22.6502 C   0  0  0  0  0  0  0  0  0  0  0  0
    5.3178   10.6592   23.0056 O   0  0  0  0  0  0  0  0  0  0  0  0
    4.5056   10.9549   22.5652 H   0  0  0  0  0  0  0  0  0  0  0  0
 32 31  1  0  0  0
 34 33  1  0  0  0
 31 33  1  0  0  0
 31 29  1  0  0  0
 33 35  1  0  0  0
 30 29  1  0  0  0
 29 37  1  0  0  0
 12 11  1  0  0  0
 11  7  1  0  0  0
  6  5  1  0  0  0
  8  7  1  0  0  0
  8  1  1  0  0  0
 35 28  1  0  0  0
 35 36  1  0  0  0
 28  1  1  0  0  0
  7  5  1  0  0  0
 37 36  1  0  0  0
  1  2  1  0  0  0
  5  3  1  0  0  0
 24 22  1  0  0  0
 23 22  1  0  0  0
 23 15  1  0  0  0
 36 41  1  0  0  0
  2  3  1  0  0  0
  2 14  1  0  0  0
  3  4  1  0  0  0
 22 20  1  0  0  0
 15 14  1  0  0  0
 15 16  1  0  0  0
 41 42  1  0  0  0
 21 20  1  0  0  0
 16 17  1  0  0  0
 16 18  1  0  0  0
 20 18  1  0  0  0
 18 19  1  0  0  0
 17 25  1  0  0  0
 19 26  1  0  0  0
 21 27  1  0  0  0
  4  9  1  0  0  0
  6 10  1  0  0  0
 12 13  1  0  0  0
 30 38  1  0  0  0
 32 39  1  0  0  0
 34 40  1  0  0  0
 42 43  1  0  0  0
M  END
> <minimizedAffinity>
-7.75325

$$$$
5UFF_8B7_A_300


 43 45  0  0  0  0  0  0  0  0999 V2000
    4.8130    7.6804   22.1990 C   0  0  0  0  0  0  0  0  0  0  0  0
    4.0602    6.4619   22.5548 C   0  0  0  0  0  0  0  0  0  0  0  0
    2.6438    6.6021   22.2854 C   0  0  0  0  0  0  0  0  0  0  0  0
    1.9306    5.3764   22.6798 O   0  0  0  0  0  0  0  0  0  0  0  0
    2.0561    7.7839   22.9523 C   0  0  0  0  0  0  0  0  0  0  0  0
    1.8864    7.5689   24.3577 O   0  0  0  0  0  0  0  0  0  0  0  0
    2.8046    9.0887   22.6528 C   0  0  0  0  0  0  0  0  0  0  0  0
    4.2963    8.8592   22.9056 O   0  0  0  0  0  0  0  0  0  0  0  0
    2.0305    5.2372   23.6345 H   0  0  0  0  0  0  0  0  0  0  0  0
    2.7546    7.4512   24.7739 H   0  0  0  0  0  0  0  0  0  0  0  0
    2.3649   10.1282   23.4781 C   0  0  0  0  0  0  0  0  0  0  0  0
    3.4126   11.0478   23.4713 O   0  0  0  0  0  0  0  0  0  0  0  0
    3.5933   11.3254   22.5596 H   0  0  0  0  0  0  0  0  0  0  0  0
    4.5387    5.3549   21.6938 O   0  0  0  0  0  0  0  0  0  0  0  0
    4.4455    4.1271   22.3322 C   0  0  0  0  0  0  0  0  0  0  0  0
    4.5857    3.0712   21.2724 C   0  0  0  0  0  0  0  0  0  0  0  0
    3.5178    3.2061   20.3078 O   0  0  0  0  0  0  0  0  0  0  0  0
    5.9026    3.1779   20.5640 C   0  0  0  0  0  0  0  0  0  0  0  0
    6.0549    2.0662   19.6264 O   0  0  0  0  0  0  0  0  0  0  0  0
    7.0613    3.2099   21.4997 C   0  0  0  0  0  0  0  0  0  0  0  0
    7.2341    1.8654   22.0077 O   0  0  0  0  0  0  0  0  0  0  0  0
    6.9114    4.1844   22.6554 C   0  0  0  0  0  0  0  0  0  0  0  0
    5.5804    4.1547   23.2983 O   0  0  0  0  0  0  0  0  0  0  0  0
    7.9344    3.9477   23.7000 C   0  0  0  0  0  0  0  0  0  0  0  0
    3.5752    4.0754   19.8814 H   0  0  0  0  0  0  0  0  0  0  0  0
    6.0572    1.2287   20.1156 H   0  0  0  0  0  0  0  0  0  0  0  0
    6.4372    1.5977   22.4916 H   0  0  0  0  0  0  0  0  0  0  0  0
    6.1298    7.4698   22.6311 O   0  0  0  0  0  0  0  0  0  0  0  0
    8.9164    8.5436   25.2908 C   0  0  0  0  0  0  0  0  0  0  0  0
    9.7453    9.0256   26.3392 O   0  0  0  0  0  0  0  0  0  0  0  0
    7.7539    7.8988   25.8358 C   0  0  0  0  0  0  0  0  0  0  0  0
    8.1866    6.9225   26.8775 O   0  0  0  0  0  0  0  0  0  0  0  0
    7.0132    7.2561   24.7669 C   0  0  0  0  0  0  0  0  0  0  0  0
    5.8820    6.4756   25.3279 O   0  0  0  0  0  0  0  0  0  0  0  0
    6.4919    8.2568   23.7838 C   0  0  0  0  0  0  0  0  0  0  0  0
    7.5777    9.2180   23.3175 C   0  0  0  0  0  0  0  0  0  0  0  0
    8.4421    9.6795   24.4836 O   0  0  0  0  0  0  0  0  0  0  0  0
    9.2445    9.6514   26.8856 H   0  0  0  0  0  0  0  0  0  0  0  0
    8.7769    6.2643   26.4785 H   0  0  0  0  0  0  0  0  0  0  0  0
    5.2753    7.0735   25.7920 H   0  0  0  0  0  0  0  0  0  0  0  0
    7.0239   10.3788   22.7255 C   0  0  0  0  0  0  0  0  0  0  0  0
    6.2447   11.0276   23.7137 O   0  0  0  0  0  0  0  0  0  0  0  0
    5.5502   10.4259   24.0245 H   0  0  0  0  0  0  0  0  0  0  0  0
 32 31  1  0  0  0
 34 33  1  0  0  0
 31 33  1  0  0  0
 31 29  1  0  0  0
 33 35  1  0  0  0
 30 29  1  0  0  0
 29 37  1  0  0  0
 12 11  1  0  0  0
 11  7  1  0  0  0
  6  5  1  0  0  0
  8  7  1  0  0  0
  8  1  1  0  0  0
 35 28  1  0  0  0
 35 36  1  0  0  0
 28  1  1  0  0  0
  7  5  1  0  0  0
 37 36  1  0  0  0
  1  2  1  0  0  0
  5  3  1  0  0  0
 24 22  1  0  0  0
 23 22  1  0  0  0
 23 15  1  0  0  0
 36 41  1  0  0  0
  2  3  1  0  0  0
  2 14  1  0  0  0
  3  4  1  0  0  0
 22 20  1  0  0  0
 15 14  1  0  0  0
 15 16  1  0  0  0
 41 42  1  0  0  0
 21 20  1  0  0  0
 16 17  1  0  0  0
 16 18  1  0  0  0
 20 18  1  0  0  0
 18 19  1  0  0  0
 17 25  1  0  0  0
 19 26  1  0  0  0
 21 27  1  0  0  0
  4  9  1  0  0  0
  6 10  1  0  0  0
 12 13  1  0  0  0
 30 38  1  0  0  0
 32 39  1  0  0  0
 34 40  1  0  0  0
 42 43  1  0  0  0
M  END
> <minimizedAffinity>
-7.75135

$$$$
