4NXV_GDP_A_501


 36 38  0  0  0  0  0  0  0  0999 V2000
   -1.6774  -35.7404  -10.5515 C   0  0  0  0  0  0  0  0  0  0  0  0
   -2.8553  -35.1383  -10.0781 O   0  0  0  0  0  0  0  0  0  0  0  0
   -1.7092  -35.7822  -12.0498 C   0  0  0  0  0  0  0  0  0  0  0  0
   -2.3434  -36.9142  -12.5369 O   0  0  0  0  0  0  0  0  0  0  0  0
   -2.4425  -34.5133  -12.2989 C   0  0  0  0  0  0  0  0  0  0  0  0
   -3.0948  -34.5212  -13.5185 O   0  0  0  0  0  0  0  0  0  0  0  0
   -3.3970  -34.3932  -11.1327 C   0  0  0  0  0  0  0  0  0  0  0  0
   -3.2352  -36.9728  -12.1598 H   0  0  0  0  0  0  0  0  0  0  0  0
   -3.7188  -35.2634  -13.5467 H   0  0  0  0  0  0  0  0  0  0  0  0
   -3.6666  -33.0186  -10.7208 N   0  0  0  0  0  0  0  0  0  0  0  0
   -3.3005  -31.9132  -11.4012 C   0  0  0  0  0  0  0  0  0  0  0  0
   -3.7121  -30.8326  -10.7563 N   0  0  0  0  0  0  0  0  0  0  0  0
   -4.3586  -31.2025   -9.6498 C   0  0  0  0  0  0  0  0  0  0  0  0
   -5.0082  -30.5016   -8.5881 C   0  0  0  0  0  0  0  0  0  0  0  0
   -5.0443  -29.2783   -8.5865 O   0  0  0  0  0  0  0  0  0  0  0  0
   -5.5946  -31.2359   -7.5601 N   0  0  0  0  0  0  0  0  0  0  0  0
   -5.5912  -32.6776   -7.4986 C   0  0  0  0  0  0  0  0  0  0  0  0
   -6.2284  -33.4037   -6.3962 N   0  0  0  0  0  0  0  0  0  0  0  0
   -4.9911  -33.3394   -8.4846 N   0  0  0  0  0  0  0  0  0  0  0  0
   -4.3473  -32.6112   -9.6023 C   0  0  0  0  0  0  0  0  0  0  0  0
   -6.0376  -30.7422   -6.8326 H   0  0  0  0  0  0  0  0  0  0  0  0
   -6.6705  -32.9071   -5.6702 H   0  0  0  0  0  0  0  0  0  0  0  0
   -6.2143  -34.3880   -6.3819 H   0  0  0  0  0  0  0  0  0  0  0  0
   -0.4586  -35.0180  -10.0176 C   0  0  0  0  0  0  0  0  0  0  0  0
   -0.3836  -35.3325   -8.6578 O   0  0  0  0  0  0  0  0  0  0  0  0
   -0.4117  -34.2364   -7.5297 P   0  0  0  0  0  0  0  0  0  0  0  0
   -1.2973  -33.0789   -7.9535 O   0  0  0  0  0  0  0  0  0  0  0  0
    0.9938  -33.7351   -7.2542 O   0  0  0  0  0  0  0  0  0  0  0  0
    0.9658  -33.0604   -6.5579 H   0  0  0  0  0  0  0  0  0  0  0  0
   -0.9993  -34.8891   -6.2334 O   0  0  0  0  0  0  0  0  0  0  0  0
   -2.2492  -35.8267   -6.2977 P   0  0  0  0  0  0  0  0  0  0  0  0
   -2.9756  -35.7330   -4.9786 O   0  0  0  0  0  0  0  0  0  0  0  0
   -3.1757  -35.3824   -7.4066 O   0  0  0  0  0  0  0  0  0  0  0  0
   -1.8375  -37.2460   -6.5368 O   0  0  0  0  0  0  0  0  0  0  0  0
   -3.9470  -35.9697   -7.4382 H   0  0  0  0  0  0  0  0  0  0  0  0
   -2.6260  -37.8097   -6.5732 H   0  0  0  0  0  0  0  0  0  0  0  0
 31 32  2  0  0  0
 31 33  1  0  0  0
 31 34  1  0  0  0
 31 30  1  0  0  0
 30 26  1  0  0  0
 26 27  2  0  0  0
 26 28  1  0  0  0
 26 25  1  0  0  0
 25 24  1  0  0  0
 24  1  1  0  0  0
  1  2  1  0  0  0
  1  3  1  0  0  0
  2  7  1  0  0  0
  3  4  1  0  0  0
  3  5  1  0  0  0
  5  6  1  0  0  0
  5  7  1  0  0  0
  7 10  1  0  0  0
 10 11  1  0  0  0
 10 20  1  0  0  0
 11 12  2  0  0  0
 12 13  1  0  0  0
 13 14  1  0  0  0
 13 20  2  0  0  0
 14 15  2  0  0  0
 14 16  1  0  0  0
 16 17  1  0  0  0
 17 18  1  0  0  0
 17 19  2  0  0  0
 19 20  1  0  0  0
 33 35  1  0  0  0
 34 36  1  0  0  0
 28 29  1  0  0  0
  4  8  1  0  0  0
  6  9  1  0  0  0
 16 21  1  0  0  0
 18 22  1  0  0  0
 18 23  1  0  0  0
M  END
> <minimizedAffinity>
-7.83948

$$$$
4NXV_GDP_A_501


 36 38  0  0  0  0  0  0  0  0999 V2000
   -6.0217  -33.1181   -6.9329 C   0  0  0  0  0  0  0  0  0  0  0  0
   -5.3453  -34.3351   -7.1211 O   0  0  0  0  0  0  0  0  0  0  0  0
   -6.0210  -32.7705   -5.4746 C   0  0  0  0  0  0  0  0  0  0  0  0
   -7.0885  -33.3335   -4.7931 O   0  0  0  0  0  0  0  0  0  0  0  0
   -4.6942  -33.3305   -5.1062 C   0  0  0  0  0  0  0  0  0  0  0  0
   -4.6203  -33.6502   -3.7625 O   0  0  0  0  0  0  0  0  0  0  0  0
   -4.5335  -34.5401   -5.9987 C   0  0  0  0  0  0  0  0  0  0  0  0
   -7.0896  -34.2937   -4.9305 H   0  0  0  0  0  0  0  0  0  0  0  0
   -5.3121  -34.2943   -3.5449 H   0  0  0  0  0  0  0  0  0  0  0  0
   -3.1539  -34.8139   -6.3908 N   0  0  0  0  0  0  0  0  0  0  0  0
   -2.2137  -35.3723   -5.6016 C   0  0  0  0  0  0  0  0  0  0  0  0
   -1.0777  -35.4896   -6.2714 N   0  0  0  0  0  0  0  0  0  0  0  0
   -1.2479  -35.0203   -7.5082 C   0  0  0  0  0  0  0  0  0  0  0  0
   -0.4052  -34.8889   -8.6541 C   0  0  0  0  0  0  0  0  0  0  0  0
    0.7606  -35.2587   -8.6094 O   0  0  0  0  0  0  0  0  0  0  0  0
   -0.9351  -34.3327   -9.8158 N   0  0  0  0  0  0  0  0  0  0  0  0
   -2.2988  -33.8773   -9.9398 C   0  0  0  0  0  0  0  0  0  0  0  0
   -2.8096  -33.3037  -11.1881 N   0  0  0  0  0  0  0  0  0  0  0  0
   -3.0923  -33.9983   -8.8785 N   0  0  0  0  0  0  0  0  0  0  0  0
   -2.5824  -34.5791   -7.6149 C   0  0  0  0  0  0  0  0  0  0  0  0
   -0.3445  -34.2451  -10.5986 H   0  0  0  0  0  0  0  0  0  0  0  0
   -2.2164  -33.2174  -11.9691 H   0  0  0  0  0  0  0  0  0  0  0  0
   -3.7458  -33.0047  -11.2456 H   0  0  0  0  0  0  0  0  0  0  0  0
   -5.4080  -32.0300   -7.7884 C   0  0  0  0  0  0  0  0  0  0  0  0
   -6.0195  -32.1278   -9.0414 O   0  0  0  0  0  0  0  0  0  0  0  0
   -5.8574  -31.0274  -10.1539 P   0  0  0  0  0  0  0  0  0  0  0  0
   -7.2052  -30.4029  -10.4654 O   0  0  0  0  0  0  0  0  0  0  0  0
   -5.2708  -31.6402  -11.4122 O   0  0  0  0  0  0  0  0  0  0  0  0
   -5.1749  -30.9543  -12.0914 H   0  0  0  0  0  0  0  0  0  0  0  0
   -4.8902  -29.9239   -9.6078 O   0  0  0  0  0  0  0  0  0  0  0  0
   -5.4261  -28.5140   -9.1949 P   0  0  0  0  0  0  0  0  0  0  0  0
   -4.3758  -27.8422   -8.3451 O   0  0  0  0  0  0  0  0  0  0  0  0
   -5.6803  -27.6737  -10.4255 O   0  0  0  0  0  0  0  0  0  0  0  0
   -6.6947  -28.6365   -8.4096 O   0  0  0  0  0  0  0  0  0  0  0  0
   -6.0121  -26.8020  -10.1590 H   0  0  0  0  0  0  0  0  0  0  0  0
   -7.0095  -27.7525   -8.1639 H   0  0  0  0  0  0  0  0  0  0  0  0
 31 32  2  0  0  0
 31 33  1  0  0  0
 31 34  1  0  0  0
 31 30  1  0  0  0
 30 26  1  0  0  0
 26 27  2  0  0  0
 26 28  1  0  0  0
 26 25  1  0  0  0
 25 24  1  0  0  0
 24  1  1  0  0  0
  1  2  1  0  0  0
  1  3  1  0  0  0
  2  7  1  0  0  0
  3  4  1  0  0  0
  3  5  1  0  0  0
  5  6  1  0  0  0
  5  7  1  0  0  0
  7 10  1  0  0  0
 10 11  1  0  0  0
 10 20  1  0  0  0
 11 12  2  0  0  0
 12 13  1  0  0  0
 13 14  1  0  0  0
 13 20  2  0  0  0
 14 15  2  0  0  0
 14 16  1  0  0  0
 16 17  1  0  0  0
 17 18  1  0  0  0
 17 19  2  0  0  0
 19 20  1  0  0  0
 33 35  1  0  0  0
 34 36  1  0  0  0
 28 29  1  0  0  0
  4  8  1  0  0  0
  6  9  1  0  0  0
 16 21  1  0  0  0
 18 22  1  0  0  0
 18 23  1  0  0  0
M  END
> <minimizedAffinity>
-7.60442

$$$$
4NXV_GDP_A_501


 36 38  0  0  0  0  0  0  0  0999 V2000
   -5.7876  -33.2906  -11.3397 C   0  0  0  0  0  0  0  0  0  0  0  0
   -5.2295  -34.5550  -11.0868 O   0  0  0  0  0  0  0  0  0  0  0  0
   -6.6720  -32.9004  -10.1938 C   0  0  0  0  0  0  0  0  0  0  0  0
   -7.9678  -33.3706  -10.3380 O   0  0  0  0  0  0  0  0  0  0  0  0
   -5.9084  -33.5363   -9.0882 C   0  0  0  0  0  0  0  0  0  0  0  0
   -6.7114  -33.8200   -7.9983 O   0  0  0  0  0  0  0  0  0  0  0  0
   -5.3120  -34.7800   -9.7072 C   0  0  0  0  0  0  0  0  0  0  0  0
   -7.9507  -34.3323  -10.4636 H   0  0  0  0  0  0  0  0  0  0  0  0
   -7.4312  -34.4098   -8.2719 H   0  0  0  0  0  0  0  0  0  0  0  0
   -4.0128  -35.1566   -9.1575 N   0  0  0  0  0  0  0  0  0  0  0  0
   -2.9042  -35.4159   -9.8804 C   0  0  0  0  0  0  0  0  0  0  0  0
   -1.9001  -35.7138   -9.0705 N   0  0  0  0  0  0  0  0  0  0  0  0
   -2.3227  -35.6506   -7.8070 C   0  0  0  0  0  0  0  0  0  0  0  0
   -1.7095  -35.8619   -6.5344 C   0  0  0  0  0  0  0  0  0  0  0  0
   -0.5289  -36.1761   -6.4619 O   0  0  0  0  0  0  0  0  0  0  0  0
   -2.4799  -35.7052   -5.3847 N   0  0  0  0  0  0  0  0  0  0  0  0
   -3.8748  -35.3355   -5.3955 C   0  0  0  0  0  0  0  0  0  0  0  0
   -4.6402  -35.1779   -4.1556 N   0  0  0  0  0  0  0  0  0  0  0  0
   -4.4540  -35.1336   -6.5763 N   0  0  0  0  0  0  0  0  0  0  0  0
   -3.6850  -35.2894   -7.8327 C   0  0  0  0  0  0  0  0  0  0  0  0
   -2.0473  -35.8555   -4.5132 H   0  0  0  0  0  0  0  0  0  0  0  0
   -4.2047  -35.3289   -3.2857 H   0  0  0  0  0  0  0  0  0  0  0  0
   -5.5899  -34.9209   -4.1926 H   0  0  0  0  0  0  0  0  0  0  0  0
   -4.6995  -32.2718  -11.6050 C   0  0  0  0  0  0  0  0  0  0  0  0
   -5.3028  -31.0168  -11.4848 O   0  0  0  0  0  0  0  0  0  0  0  0
   -4.4857  -29.7069  -11.1820 P   0  0  0  0  0  0  0  0  0  0  0  0
   -3.9523  -29.1182  -12.4752 O   0  0  0  0  0  0  0  0  0  0  0  0
   -3.3340  -30.0158  -10.2434 O   0  0  0  0  0  0  0  0  0  0  0  0
   -2.8369  -29.2026  -10.0630 H   0  0  0  0  0  0  0  0  0  0  0  0
   -5.4522  -28.6776  -10.5053 O   0  0  0  0  0  0  0  0  0  0  0  0
   -5.7148  -28.7103   -8.9640 P   0  0  0  0  0  0  0  0  0  0  0  0
   -4.5797  -27.9909   -8.2783 O   0  0  0  0  0  0  0  0  0  0  0  0
   -7.0137  -28.0067   -8.6431 O   0  0  0  0  0  0  0  0  0  0  0  0
   -5.7805  -30.1204   -8.4657 O   0  0  0  0  0  0  0  0  0  0  0  0
   -7.1674  -28.0325   -7.6857 H   0  0  0  0  0  0  0  0  0  0  0  0
   -5.9437  -30.1182   -7.5096 H   0  0  0  0  0  0  0  0  0  0  0  0
 31 32  2  0  0  0
 31 33  1  0  0  0
 31 34  1  0  0  0
 31 30  1  0  0  0
 30 26  1  0  0  0
 26 27  2  0  0  0
 26 28  1  0  0  0
 26 25  1  0  0  0
 25 24  1  0  0  0
 24  1  1  0  0  0
  1  2  1  0  0  0
  1  3  1  0  0  0
  2  7  1  0  0  0
  3  4  1  0  0  0
  3  5  1  0  0  0
  5  6  1  0  0  0
  5  7  1  0  0  0
  7 10  1  0  0  0
 10 11  1  0  0  0
 10 20  1  0  0  0
 11 12  2  0  0  0
 12 13  1  0  0  0
 13 14  1  0  0  0
 13 20  2  0  0  0
 14 15  2  0  0  0
 14 16  1  0  0  0
 16 17  1  0  0  0
 17 18  1  0  0  0
 17 19  2  0  0  0
 19 20  1  0  0  0
 33 35  1  0  0  0
 34 36  1  0  0  0
 28 29  1  0  0  0
  4  8  1  0  0  0
  6  9  1  0  0  0
 16 21  1  0  0  0
 18 22  1  0  0  0
 18 23  1  0  0  0
M  END
> <minimizedAffinity>
-7.60222

$$$$
4NXV_GDP_A_501


 36 38  0  0  0  0  0  0  0  0999 V2000
   -1.3210  -34.9844   -9.6637 C   0  0  0  0  0  0  0  0  0  0  0  0
   -1.6563  -34.0665   -8.6543 O   0  0  0  0  0  0  0  0  0  0  0  0
   -0.3872  -36.0162   -9.1061 C   0  0  0  0  0  0  0  0  0  0  0  0
    0.9410  -35.6277   -9.1817 O   0  0  0  0  0  0  0  0  0  0  0  0
   -0.9268  -36.0897   -7.7228 C   0  0  0  0  0  0  0  0  0  0  0  0
    0.0204  -36.5351   -6.8187 O   0  0  0  0  0  0  0  0  0  0  0  0
   -1.3954  -34.6835   -7.4247 C   0  0  0  0  0  0  0  0  0  0  0  0
    1.0529  -34.7707   -8.7414 H   0  0  0  0  0  0  0  0  0  0  0  0
    0.7863  -35.9400   -6.8333 H   0  0  0  0  0  0  0  0  0  0  0  0
   -2.5589  -34.6157   -6.5452 N   0  0  0  0  0  0  0  0  0  0  0  0
   -2.7153  -35.3129   -5.4015 C   0  0  0  0  0  0  0  0  0  0  0  0
   -3.8769  -35.0068   -4.8448 N   0  0  0  0  0  0  0  0  0  0  0  0
   -4.5011  -34.1034   -5.6019 C   0  0  0  0  0  0  0  0  0  0  0  0
   -5.7498  -33.4152   -5.5153 C   0  0  0  0  0  0  0  0  0  0  0  0
   -6.5040  -33.6198   -4.5734 O   0  0  0  0  0  0  0  0  0  0  0  0
   -6.0893  -32.5130   -6.5205 N   0  0  0  0  0  0  0  0  0  0  0  0
   -5.2492  -32.2222   -7.6573 C   0  0  0  0  0  0  0  0  0  0  0  0
   -5.6508  -31.2587   -8.6862 N   0  0  0  0  0  0  0  0  0  0  0  0
   -4.0827  -32.8561   -7.7452 N   0  0  0  0  0  0  0  0  0  0  0  0
   -3.6705  -33.8293   -6.7074 C   0  0  0  0  0  0  0  0  0  0  0  0
   -6.9533  -32.0461   -6.4515 H   0  0  0  0  0  0  0  0  0  0  0  0
   -6.5155  -30.7935   -8.6143 H   0  0  0  0  0  0  0  0  0  0  0  0
   -5.0559  -31.0767   -9.4492 H   0  0  0  0  0  0  0  0  0  0  0  0
   -2.5696  -35.5962  -10.2630 C   0  0  0  0  0  0  0  0  0  0  0  0
   -2.1331  -36.4912  -11.2439 O   0  0  0  0  0  0  0  0  0  0  0  0
   -1.9575  -36.0794  -12.7520 P   0  0  0  0  0  0  0  0  0  0  0  0
   -0.5301  -35.6289  -13.0035 O   0  0  0  0  0  0  0  0  0  0  0  0
   -2.9200  -34.9597  -13.1025 O   0  0  0  0  0  0  0  0  0  0  0  0
   -2.8040  -34.7132  -14.0334 H   0  0  0  0  0  0  0  0  0  0  0  0
   -2.2672  -37.3335  -13.6368 O   0  0  0  0  0  0  0  0  0  0  0  0
   -1.9868  -37.3245  -15.1752 P   0  0  0  0  0  0  0  0  0  0  0  0
   -2.6384  -36.0980  -15.7648 O   0  0  0  0  0  0  0  0  0  0  0  0
   -0.4981  -37.2670  -15.4318 O   0  0  0  0  0  0  0  0  0  0  0  0
   -2.5535  -38.5477  -15.8261 O   0  0  0  0  0  0  0  0  0  0  0  0
   -0.3348  -37.2618  -16.3879 H   0  0  0  0  0  0  0  0  0  0  0  0
   -2.3689  -38.5224  -16.7780 H   0  0  0  0  0  0  0  0  0  0  0  0
 31 32  2  0  0  0
 31 33  1  0  0  0
 31 34  1  0  0  0
 31 30  1  0  0  0
 30 26  1  0  0  0
 26 27  2  0  0  0
 26 28  1  0  0  0
 26 25  1  0  0  0
 25 24  1  0  0  0
 24  1  1  0  0  0
  1  2  1  0  0  0
  1  3  1  0  0  0
  2  7  1  0  0  0
  3  4  1  0  0  0
  3  5  1  0  0  0
  5  6  1  0  0  0
  5  7  1  0  0  0
  7 10  1  0  0  0
 10 11  1  0  0  0
 10 20  1  0  0  0
 11 12  2  0  0  0
 12 13  1  0  0  0
 13 14  1  0  0  0
 13 20  2  0  0  0
 14 15  2  0  0  0
 14 16  1  0  0  0
 16 17  1  0  0  0
 17 18  1  0  0  0
 17 19  2  0  0  0
 19 20  1  0  0  0
 33 35  1  0  0  0
 34 36  1  0  0  0
 28 29  1  0  0  0
  4  8  1  0  0  0
  6  9  1  0  0  0
 16 21  1  0  0  0
 18 22  1  0  0  0
 18 23  1  0  0  0
M  END
> <minimizedAffinity>
-7.58010

$$$$
4NXV_GDP_A_501


 36 38  0  0  0  0  0  0  0  0999 V2000
   -1.7025  -33.1281  -10.8418 C   0  0  0  0  0  0  0  0  0  0  0  0
   -1.0823  -33.1601   -9.5815 O   0  0  0  0  0  0  0  0  0  0  0  0
   -1.4244  -34.4119  -11.5643 C   0  0  0  0  0  0  0  0  0  0  0  0
   -0.2373  -34.3739  -12.2786 O   0  0  0  0  0  0  0  0  0  0  0  0
   -1.4088  -35.3328  -10.3974 C   0  0  0  0  0  0  0  0  0  0  0  0
   -0.6646  -36.4721  -10.6447 O   0  0  0  0  0  0  0  0  0  0  0  0
   -0.8396  -34.5032   -9.2689 C   0  0  0  0  0  0  0  0  0  0  0  0
    0.4906  -34.1350  -11.6835 H   0  0  0  0  0  0  0  0  0  0  0  0
    0.2455  -36.2217  -10.8682 H   0  0  0  0  0  0  0  0  0  0  0  0
   -1.3722  -34.8409   -7.9520 N   0  0  0  0  0  0  0  0  0  0  0  0
   -0.6491  -35.3051   -6.9125 C   0  0  0  0  0  0  0  0  0  0  0  0
   -1.4384  -35.4964   -5.8669 N   0  0  0  0  0  0  0  0  0  0  0  0
   -2.6868  -35.1581   -6.1926 C   0  0  0  0  0  0  0  0  0  0  0  0
   -3.9352  -35.1492   -5.4986 C   0  0  0  0  0  0  0  0  0  0  0  0
   -3.9961  -35.5135   -4.3318 O   0  0  0  0  0  0  0  0  0  0  0  0
   -5.0751  -34.7212   -6.1747 N   0  0  0  0  0  0  0  0  0  0  0  0
   -5.0765  -34.2775   -7.5479 C   0  0  0  0  0  0  0  0  0  0  0  0
   -6.3042  -33.8309   -8.2125 N   0  0  0  0  0  0  0  0  0  0  0  0
   -3.9177  -34.2794   -8.2018 N   0  0  0  0  0  0  0  0  0  0  0  0
   -2.6735  -34.7276   -7.5348 C   0  0  0  0  0  0  0  0  0  0  0  0
   -5.9304  -34.7213   -5.6871 H   0  0  0  0  0  0  0  0  0  0  0  0
   -7.1579  -33.8322   -7.7221 H   0  0  0  0  0  0  0  0  0  0  0  0
   -6.2751  -33.5295   -9.1493 H   0  0  0  0  0  0  0  0  0  0  0  0
   -3.1844  -32.8527  -10.6991 C   0  0  0  0  0  0  0  0  0  0  0  0
   -3.3407  -31.4720  -10.8502 O   0  0  0  0  0  0  0  0  0  0  0  0
   -3.7245  -30.5246   -9.6544 P   0  0  0  0  0  0  0  0  0  0  0  0
   -2.4760  -30.1209   -8.8916 O   0  0  0  0  0  0  0  0  0  0  0  0
   -4.6928  -31.2281   -8.7215 O   0  0  0  0  0  0  0  0  0  0  0  0
   -4.9231  -30.6363   -7.9883 H   0  0  0  0  0  0  0  0  0  0  0  0
   -4.4040  -29.2449  -10.2479 O   0  0  0  0  0  0  0  0  0  0  0  0
   -5.6557  -28.6049   -9.5629 P   0  0  0  0  0  0  0  0  0  0  0  0
   -5.3094  -28.3206   -8.1222 O   0  0  0  0  0  0  0  0  0  0  0  0
   -6.0186  -27.3086  -10.2507 O   0  0  0  0  0  0  0  0  0  0  0  0
   -6.8259  -29.5370   -9.6164 O   0  0  0  0  0  0  0  0  0  0  0  0
   -6.7953  -26.9198   -9.8189 H   0  0  0  0  0  0  0  0  0  0  0  0
   -7.5900  -29.1216   -9.1870 H   0  0  0  0  0  0  0  0  0  0  0  0
 31 32  2  0  0  0
 31 33  1  0  0  0
 31 34  1  0  0  0
 31 30  1  0  0  0
 30 26  1  0  0  0
 26 27  2  0  0  0
 26 28  1  0  0  0
 26 25  1  0  0  0
 25 24  1  0  0  0
 24  1  1  0  0  0
  1  2  1  0  0  0
  1  3  1  0  0  0
  2  7  1  0  0  0
  3  4  1  0  0  0
  3  5  1  0  0  0
  5  6  1  0  0  0
  5  7  1  0  0  0
  7 10  1  0  0  0
 10 11  1  0  0  0
 10 20  1  0  0  0
 11 12  2  0  0  0
 12 13  1  0  0  0
 13 14  1  0  0  0
 13 20  2  0  0  0
 14 15  2  0  0  0
 14 16  1  0  0  0
 16 17  1  0  0  0
 17 18  1  0  0  0
 17 19  2  0  0  0
 19 20  1  0  0  0
 33 35  1  0  0  0
 34 36  1  0  0  0
 28 29  1  0  0  0
  4  8  1  0  0  0
  6  9  1  0  0  0
 16 21  1  0  0  0
 18 22  1  0  0  0
 18 23  1  0  0  0
M  END
> <minimizedAffinity>
-7.56341

$$$$
4NXV_GDP_A_501


 36 38  0  0  0  0  0  0  0  0999 V2000
   -0.3595  -34.2508   -9.1789 C   0  0  0  0  0  0  0  0  0  0  0  0
   -1.6455  -33.6976   -9.0604 O   0  0  0  0  0  0  0  0  0  0  0  0
    0.1022  -34.7258   -7.8340 C   0  0  0  0  0  0  0  0  0  0  0  0
    0.7273  -33.7278   -7.1032 O   0  0  0  0  0  0  0  0  0  0  0  0
   -1.2080  -35.1607   -7.2825 C   0  0  0  0  0  0  0  0  0  0  0  0
   -1.2196  -35.1474   -5.8995 O   0  0  0  0  0  0  0  0  0  0  0  0
   -2.2080  -34.1965   -7.8791 C   0  0  0  0  0  0  0  0  0  0  0  0
    0.1349  -32.9635   -7.0272 H   0  0  0  0  0  0  0  0  0  0  0  0
   -1.0192  -34.2526   -5.5831 H   0  0  0  0  0  0  0  0  0  0  0  0
   -3.5235  -34.7788   -8.1284 N   0  0  0  0  0  0  0  0  0  0  0  0
   -3.8664  -36.0623   -7.8962 C   0  0  0  0  0  0  0  0  0  0  0  0
   -5.1357  -36.2533   -8.2205 N   0  0  0  0  0  0  0  0  0  0  0  0
   -5.6522  -35.1059   -8.6633 C   0  0  0  0  0  0  0  0  0  0  0  0
   -6.9369  -34.7048   -9.1416 C   0  0  0  0  0  0  0  0  0  0  0  0
   -7.8534  -35.5136   -9.2034 O   0  0  0  0  0  0  0  0  0  0  0  0
   -7.1227  -33.3818   -9.5353 N   0  0  0  0  0  0  0  0  0  0  0  0
   -6.0889  -32.3761   -9.4880 C   0  0  0  0  0  0  0  0  0  0  0  0
   -6.3378  -30.9944   -9.9092 N   0  0  0  0  0  0  0  0  0  0  0  0
   -4.8895  -32.7396   -9.0411 N   0  0  0  0  0  0  0  0  0  0  0  0
   -4.6327  -34.1338   -8.6121 C   0  0  0  0  0  0  0  0  0  0  0  0
   -8.0117  -33.1172   -9.8653 H   0  0  0  0  0  0  0  0  0  0  0  0
   -7.2278  -30.7330  -10.2388 H   0  0  0  0  0  0  0  0  0  0  0  0
   -5.6148  -30.3278   -9.8625 H   0  0  0  0  0  0  0  0  0  0  0  0
   -0.3472  -35.3520  -10.2181 C   0  0  0  0  0  0  0  0  0  0  0  0
   -0.9488  -34.8167  -11.3604 O   0  0  0  0  0  0  0  0  0  0  0  0
   -2.2264  -35.4507  -12.0242 P   0  0  0  0  0  0  0  0  0  0  0  0
   -3.4392  -34.5806  -11.7493 O   0  0  0  0  0  0  0  0  0  0  0  0
   -2.4599  -36.8469  -11.4773 O   0  0  0  0  0  0  0  0  0  0  0  0
   -3.2490  -37.2289  -11.8923 H   0  0  0  0  0  0  0  0  0  0  0  0
   -1.9839  -35.5263  -13.5691 O   0  0  0  0  0  0  0  0  0  0  0  0
   -1.1468  -36.6877  -14.1984 P   0  0  0  0  0  0  0  0  0  0  0  0
   -0.7138  -36.2606  -15.5792 O   0  0  0  0  0  0  0  0  0  0  0  0
    0.0789  -36.9602  -13.3566 O   0  0  0  0  0  0  0  0  0  0  0  0
   -1.9642  -37.9377  -14.3001 O   0  0  0  0  0  0  0  0  0  0  0  0
    0.5909  -37.6814  -13.7549 H   0  0  0  0  0  0  0  0  0  0  0  0
   -1.4273  -38.6441  -14.6922 H   0  0  0  0  0  0  0  0  0  0  0  0
 31 32  2  0  0  0
 31 33  1  0  0  0
 31 34  1  0  0  0
 31 30  1  0  0  0
 30 26  1  0  0  0
 26 27  2  0  0  0
 26 28  1  0  0  0
 26 25  1  0  0  0
 25 24  1  0  0  0
 24  1  1  0  0  0
  1  2  1  0  0  0
  1  3  1  0  0  0
  2  7  1  0  0  0
  3  4  1  0  0  0
  3  5  1  0  0  0
  5  6  1  0  0  0
  5  7  1  0  0  0
  7 10  1  0  0  0
 10 11  1  0  0  0
 10 20  1  0  0  0
 11 12  2  0  0  0
 12 13  1  0  0  0
 13 14  1  0  0  0
 13 20  2  0  0  0
 14 15  2  0  0  0
 14 16  1  0  0  0
 16 17  1  0  0  0
 17 18  1  0  0  0
 17 19  2  0  0  0
 19 20  1  0  0  0
 33 35  1  0  0  0
 34 36  1  0  0  0
 28 29  1  0  0  0
  4  8  1  0  0  0
  6  9  1  0  0  0
 16 21  1  0  0  0
 18 22  1  0  0  0
 18 23  1  0  0  0
M  END
> <minimizedAffinity>
-7.56272

$$$$
4NXV_GDP_A_501


 36 38  0  0  0  0  0  0  0  0999 V2000
   -1.9621  -34.9382   -7.0417 C   0  0  0  0  0  0  0  0  0  0  0  0
   -2.6689  -33.7734   -7.3846 O   0  0  0  0  0  0  0  0  0  0  0  0
   -2.6465  -35.6135   -5.8915 C   0  0  0  0  0  0  0  0  0  0  0  0
   -2.2196  -35.1345   -4.6630 O   0  0  0  0  0  0  0  0  0  0  0  0
   -4.0531  -35.2701   -6.2283 C   0  0  0  0  0  0  0  0  0  0  0  0
   -4.8712  -35.2784   -5.1131 O   0  0  0  0  0  0  0  0  0  0  0  0
   -3.9652  -33.9048   -6.8716 C   0  0  0  0  0  0  0  0  0  0  0  0
   -2.3372  -34.1722   -4.6325 H   0  0  0  0  0  0  0  0  0  0  0  0
   -4.5339  -34.6455   -4.4600 H   0  0  0  0  0  0  0  0  0  0  0  0
   -4.9668  -33.6669   -7.9070 N   0  0  0  0  0  0  0  0  0  0  0  0
   -5.8628  -34.5723   -8.3498 C   0  0  0  0  0  0  0  0  0  0  0  0
   -6.6293  -34.0264   -9.2813 N   0  0  0  0  0  0  0  0  0  0  0  0
   -6.2602  -32.7578   -9.4643 C   0  0  0  0  0  0  0  0  0  0  0  0
   -6.7060  -31.6976  -10.3113 C   0  0  0  0  0  0  0  0  0  0  0  0
   -7.6335  -31.8768  -11.0895 O   0  0  0  0  0  0  0  0  0  0  0  0
   -6.0652  -30.4634  -10.2343 N   0  0  0  0  0  0  0  0  0  0  0  0
   -4.9678  -30.1815   -9.3407 C   0  0  0  0  0  0  0  0  0  0  0  0
   -4.3307  -28.8623   -9.2943 N   0  0  0  0  0  0  0  0  0  0  0  0
   -4.5474  -31.1621   -8.5456 N   0  0  0  0  0  0  0  0  0  0  0  0
   -5.1886  -32.4967   -8.5865 C   0  0  0  0  0  0  0  0  0  0  0  0
   -6.3795  -29.7407  -10.8244 H   0  0  0  0  0  0  0  0  0  0  0  0
   -4.6473  -28.1417   -9.8857 H   0  0  0  0  0  0  0  0  0  0  0  0
   -3.5862  -28.6968   -8.6717 H   0  0  0  0  0  0  0  0  0  0  0  0
   -1.8174  -35.8466   -8.2443 C   0  0  0  0  0  0  0  0  0  0  0  0
   -1.3180  -35.0490   -9.2776 O   0  0  0  0  0  0  0  0  0  0  0  0
   -1.8713  -35.1195  -10.7486 P   0  0  0  0  0  0  0  0  0  0  0  0
   -3.3857  -35.2189  -10.7285 O   0  0  0  0  0  0  0  0  0  0  0  0
   -1.2861  -36.3200  -11.4691 O   0  0  0  0  0  0  0  0  0  0  0  0
   -1.6331  -36.3546  -12.3742 H   0  0  0  0  0  0  0  0  0  0  0  0
   -1.4493  -33.8062  -11.4894 O   0  0  0  0  0  0  0  0  0  0  0  0
   -1.9889  -32.4121  -11.0303 P   0  0  0  0  0  0  0  0  0  0  0  0
   -1.1707  -31.3434  -11.7121 O   0  0  0  0  0  0  0  0  0  0  0  0
   -3.4384  -32.2581  -11.4311 O   0  0  0  0  0  0  0  0  0  0  0  0
   -1.8676  -32.2575   -9.5462 O   0  0  0  0  0  0  0  0  0  0  0  0
   -3.7634  -31.3911  -11.1421 H   0  0  0  0  0  0  0  0  0  0  0  0
   -2.2071  -31.3879   -9.2829 H   0  0  0  0  0  0  0  0  0  0  0  0
 31 32  2  0  0  0
 31 33  1  0  0  0
 31 34  1  0  0  0
 31 30  1  0  0  0
 30 26  1  0  0  0
 26 27  2  0  0  0
 26 28  1  0  0  0
 26 25  1  0  0  0
 25 24  1  0  0  0
 24  1  1  0  0  0
  1  2  1  0  0  0
  1  3  1  0  0  0
  2  7  1  0  0  0
  3  4  1  0  0  0
  3  5  1  0  0  0
  5  6  1  0  0  0
  5  7  1  0  0  0
  7 10  1  0  0  0
 10 11  1  0  0  0
 10 20  1  0  0  0
 11 12  2  0  0  0
 12 13  1  0  0  0
 13 14  1  0  0  0
 13 20  2  0  0  0
 14 15  2  0  0  0
 14 16  1  0  0  0
 16 17  1  0  0  0
 17 18  1  0  0  0
 17 19  2  0  0  0
 19 20  1  0  0  0
 33 35  1  0  0  0
 34 36  1  0  0  0
 28 29  1  0  0  0
  4  8  1  0  0  0
  6  9  1  0  0  0
 16 21  1  0  0  0
 18 22  1  0  0  0
 18 23  1  0  0  0
M  END
> <minimizedAffinity>
-7.41915

$$$$
4NXV_GDP_A_501


 36 38  0  0  0  0  0  0  0  0999 V2000
   -3.7629  -31.6103  -10.3073 C   0  0  0  0  0  0  0  0  0  0  0  0
   -3.6400  -32.7848   -9.5461 O   0  0  0  0  0  0  0  0  0  0  0  0
   -5.1535  -31.5207  -10.8602 C   0  0  0  0  0  0  0  0  0  0  0  0
   -5.2876  -32.1796  -12.0721 O   0  0  0  0  0  0  0  0  0  0  0  0
   -5.8891  -32.1530   -9.7337 C   0  0  0  0  0  0  0  0  0  0  0  0
   -7.0916  -32.7016  -10.1414 O   0  0  0  0  0  0  0  0  0  0  0  0
   -4.9326  -33.1916   -9.1934 C   0  0  0  0  0  0  0  0  0  0  0  0
   -5.0025  -33.1014  -11.9723 H   0  0  0  0  0  0  0  0  0  0  0  0
   -6.9274  -33.3648  -10.8300 H   0  0  0  0  0  0  0  0  0  0  0  0
   -5.0401  -33.4109   -7.7538 N   0  0  0  0  0  0  0  0  0  0  0  0
   -5.9217  -32.8023   -6.9346 C   0  0  0  0  0  0  0  0  0  0  0  0
   -5.7572  -33.2381   -5.6953 N   0  0  0  0  0  0  0  0  0  0  0  0
   -4.7755  -34.1408   -5.6750 C   0  0  0  0  0  0  0  0  0  0  0  0
   -4.1658  -34.9342   -4.6557 C   0  0  0  0  0  0  0  0  0  0  0  0
   -4.5498  -34.8525   -3.4965 O   0  0  0  0  0  0  0  0  0  0  0  0
   -3.1300  -35.7965   -5.0069 N   0  0  0  0  0  0  0  0  0  0  0  0
   -2.6281  -35.9446   -6.3518 C   0  0  0  0  0  0  0  0  0  0  0  0
   -1.5382  -36.8715   -6.6702 N   0  0  0  0  0  0  0  0  0  0  0  0
   -3.1918  -35.2118   -7.3087 N   0  0  0  0  0  0  0  0  0  0  0  0
   -4.2949  -34.2750   -6.9933 C   0  0  0  0  0  0  0  0  0  0  0  0
   -2.7158  -36.3368   -4.2958 H   0  0  0  0  0  0  0  0  0  0  0  0
   -1.1261  -37.4104   -5.9567 H   0  0  0  0  0  0  0  0  0  0  0  0
   -1.2183  -36.9552   -7.5975 H   0  0  0  0  0  0  0  0  0  0  0  0
   -3.3887  -30.3984   -9.4805 C   0  0  0  0  0  0  0  0  0  0  0  0
   -3.8535  -29.2857  -10.1872 O   0  0  0  0  0  0  0  0  0  0  0  0
   -4.2344  -27.9310   -9.4838 P   0  0  0  0  0  0  0  0  0  0  0  0
   -3.2629  -27.6426   -8.3540 O   0  0  0  0  0  0  0  0  0  0  0  0
   -5.6491  -28.0054   -8.9400 O   0  0  0  0  0  0  0  0  0  0  0  0
   -5.8742  -27.1663   -8.5087 H   0  0  0  0  0  0  0  0  0  0  0  0
   -4.1417  -26.7879  -10.5498 O   0  0  0  0  0  0  0  0  0  0  0  0
   -4.8028  -26.9430  -11.9585 P   0  0  0  0  0  0  0  0  0  0  0  0
   -3.7081  -27.1906  -12.9669 O   0  0  0  0  0  0  0  0  0  0  0  0
   -5.7534  -28.1183  -11.9599 O   0  0  0  0  0  0  0  0  0  0  0  0
   -5.5509  -25.7019  -12.3342 O   0  0  0  0  0  0  0  0  0  0  0  0
   -6.1579  -28.2060  -12.8372 H   0  0  0  0  0  0  0  0  0  0  0  0
   -5.9524  -25.8189  -13.2094 H   0  0  0  0  0  0  0  0  0  0  0  0
 31 32  2  0  0  0
 31 33  1  0  0  0
 31 34  1  0  0  0
 31 30  1  0  0  0
 30 26  1  0  0  0
 26 27  2  0  0  0
 26 28  1  0  0  0
 26 25  1  0  0  0
 25 24  1  0  0  0
 24  1  1  0  0  0
  1  2  1  0  0  0
  1  3  1  0  0  0
  2  7  1  0  0  0
  3  4  1  0  0  0
  3  5  1  0  0  0
  5  6  1  0  0  0
  5  7  1  0  0  0
  7 10  1  0  0  0
 10 11  1  0  0  0
 10 20  1  0  0  0
 11 12  2  0  0  0
 12 13  1  0  0  0
 13 14  1  0  0  0
 13 20  2  0  0  0
 14 15  2  0  0  0
 14 16  1  0  0  0
 16 17  1  0  0  0
 17 18  1  0  0  0
 17 19  2  0  0  0
 19 20  1  0  0  0
 33 35  1  0  0  0
 34 36  1  0  0  0
 28 29  1  0  0  0
  4  8  1  0  0  0
  6  9  1  0  0  0
 16 21  1  0  0  0
 18 22  1  0  0  0
 18 23  1  0  0  0
M  END
> <minimizedAffinity>
-7.39638

$$$$
4NXV_GDP_A_501


 36 38  0  0  0  0  0  0  0  0999 V2000
   -3.6400  -32.4125   -9.4777 C   0  0  0  0  0  0  0  0  0  0  0  0
   -2.7900  -32.9499   -8.4965 O   0  0  0  0  0  0  0  0  0  0  0  0
   -4.0835  -33.5057  -10.4027 C   0  0  0  0  0  0  0  0  0  0  0  0
   -3.1979  -33.7087  -11.4494 O   0  0  0  0  0  0  0  0  0  0  0  0
   -4.1433  -34.6234   -9.4244 C   0  0  0  0  0  0  0  0  0  0  0  0
   -3.9990  -35.8562  -10.0348 O   0  0  0  0  0  0  0  0  0  0  0  0
   -3.0298  -34.3285   -8.4452 C   0  0  0  0  0  0  0  0  0  0  0  0
   -2.3116  -33.8799  -11.0944 H   0  0  0  0  0  0  0  0  0  0  0  0
   -3.1514  -35.8867  -10.5056 H   0  0  0  0  0  0  0  0  0  0  0  0
   -3.3053  -34.7636   -7.0789 N   0  0  0  0  0  0  0  0  0  0  0  0
   -2.7097  -35.7996   -6.4540 C   0  0  0  0  0  0  0  0  0  0  0  0
   -3.1818  -35.9119   -5.2221 N   0  0  0  0  0  0  0  0  0  0  0  0
   -4.0863  -34.9547   -5.0106 C   0  0  0  0  0  0  0  0  0  0  0  0
   -4.9090  -34.5814   -3.9043 C   0  0  0  0  0  0  0  0  0  0  0  0
   -4.8577  -35.2109   -2.8560 O   0  0  0  0  0  0  0  0  0  0  0  0
   -5.7670  -33.4931   -4.0439 N   0  0  0  0  0  0  0  0  0  0  0  0
   -5.8781  -32.7061   -5.2483 C   0  0  0  0  0  0  0  0  0  0  0  0
   -6.7937  -31.5654   -5.3421 N   0  0  0  0  0  0  0  0  0  0  0  0
   -5.1134  -33.0444   -6.2834 N   0  0  0  0  0  0  0  0  0  0  0  0
   -4.1848  -34.1948   -6.1938 C   0  0  0  0  0  0  0  0  0  0  0  0
   -6.3309  -33.2463   -3.2756 H   0  0  0  0  0  0  0  0  0  0  0  0
   -7.3563  -31.3212   -4.5721 H   0  0  0  0  0  0  0  0  0  0  0  0
   -6.8460  -31.0434   -6.1753 H   0  0  0  0  0  0  0  0  0  0  0  0
   -4.8046  -31.6891   -8.8350 C   0  0  0  0  0  0  0  0  0  0  0  0
   -4.3377  -30.4134   -8.5064 O   0  0  0  0  0  0  0  0  0  0  0  0
   -4.9288  -29.1022   -9.1437 P   0  0  0  0  0  0  0  0  0  0  0  0
   -4.5778  -27.9032   -8.2819 O   0  0  0  0  0  0  0  0  0  0  0  0
   -6.4362  -29.2191   -9.2738 O   0  0  0  0  0  0  0  0  0  0  0  0
   -6.7907  -28.4065   -9.6674 H   0  0  0  0  0  0  0  0  0  0  0  0
   -4.2922  -28.9227  -10.5629 O   0  0  0  0  0  0  0  0  0  0  0  0
   -4.9611  -28.0034  -11.6367 P   0  0  0  0  0  0  0  0  0  0  0  0
   -3.9001  -27.5853  -12.6244 O   0  0  0  0  0  0  0  0  0  0  0  0
   -6.0468  -28.7613  -12.3662 O   0  0  0  0  0  0  0  0  0  0  0  0
   -5.5523  -26.7847  -10.9993 O   0  0  0  0  0  0  0  0  0  0  0  0
   -6.4551  -28.1830  -13.0294 H   0  0  0  0  0  0  0  0  0  0  0  0
   -5.9612  -26.2292  -11.6812 H   0  0  0  0  0  0  0  0  0  0  0  0
 31 32  2  0  0  0
 31 33  1  0  0  0
 31 34  1  0  0  0
 31 30  1  0  0  0
 30 26  1  0  0  0
 26 27  2  0  0  0
 26 28  1  0  0  0
 26 25  1  0  0  0
 25 24  1  0  0  0
 24  1  1  0  0  0
  1  2  1  0  0  0
  1  3  1  0  0  0
  2  7  1  0  0  0
  3  4  1  0  0  0
  3  5  1  0  0  0
  5  6  1  0  0  0
  5  7  1  0  0  0
  7 10  1  0  0  0
 10 11  1  0  0  0
 10 20  1  0  0  0
 11 12  2  0  0  0
 12 13  1  0  0  0
 13 14  1  0  0  0
 13 20  2  0  0  0
 14 15  2  0  0  0
 14 16  1  0  0  0
 16 17  1  0  0  0
 17 18  1  0  0  0
 17 19  2  0  0  0
 19 20  1  0  0  0
 33 35  1  0  0  0
 34 36  1  0  0  0
 28 29  1  0  0  0
  4  8  1  0  0  0
  6  9  1  0  0  0
 16 21  1  0  0  0
 18 22  1  0  0  0
 18 23  1  0  0  0
M  END
> <minimizedAffinity>
-7.37667

$$$$
4NXV_GDP_A_501


 36 38  0  0  0  0  0  0  0  0999 V2000
   -0.2706  -34.3668   -9.1287 C   0  0  0  0  0  0  0  0  0  0  0  0
   -1.5464  -33.7816   -9.0674 O   0  0  0  0  0  0  0  0  0  0  0  0
    0.1495  -34.7863   -7.7521 C   0  0  0  0  0  0  0  0  0  0  0  0
    0.7797  -33.7678   -7.0547 O   0  0  0  0  0  0  0  0  0  0  0  0
   -1.1823  -35.1666   -7.2120 C   0  0  0  0  0  0  0  0  0  0  0  0
   -1.2253  -35.0867   -5.8319 O   0  0  0  0  0  0  0  0  0  0  0  0
   -2.1467  -34.2113   -7.8775 C   0  0  0  0  0  0  0  0  0  0  0  0
    0.2028  -32.9884   -7.0292 H   0  0  0  0  0  0  0  0  0  0  0  0
   -1.0124  -34.1822   -5.5536 H   0  0  0  0  0  0  0  0  0  0  0  0
   -3.4688  -34.7770   -8.1303 N   0  0  0  0  0  0  0  0  0  0  0  0
   -3.8461  -36.0396   -7.8434 C   0  0  0  0  0  0  0  0  0  0  0  0
   -5.1114  -36.2193   -8.1894 N   0  0  0  0  0  0  0  0  0  0  0  0
   -5.5910  -35.0848   -8.7012 C   0  0  0  0  0  0  0  0  0  0  0  0
   -6.8546  -34.6807   -9.2306 C   0  0  0  0  0  0  0  0  0  0  0  0
   -7.7874  -35.4717   -9.2750 O   0  0  0  0  0  0  0  0  0  0  0  0
   -7.0010  -33.3754   -9.6938 N   0  0  0  0  0  0  0  0  0  0  0  0
   -5.9461  -32.3909   -9.6708 C   0  0  0  0  0  0  0  0  0  0  0  0
   -6.1535  -31.0271  -10.1659 N   0  0  0  0  0  0  0  0  0  0  0  0
   -4.7662  -32.7572   -9.1767 N   0  0  0  0  0  0  0  0  0  0  0  0
   -4.5513  -34.1334   -8.6729 C   0  0  0  0  0  0  0  0  0  0  0  0
   -7.8756  -33.1086  -10.0586 H   0  0  0  0  0  0  0  0  0  0  0  0
   -7.0294  -30.7635  -10.5301 H   0  0  0  0  0  0  0  0  0  0  0  0
   -5.4169  -30.3746  -10.1344 H   0  0  0  0  0  0  0  0  0  0  0  0
   -0.2590  -35.5165  -10.1138 C   0  0  0  0  0  0  0  0  0  0  0  0
   -0.7214  -34.9961  -11.3258 O   0  0  0  0  0  0  0  0  0  0  0  0
   -1.8058  -35.7228  -12.2038 P   0  0  0  0  0  0  0  0  0  0  0  0
   -2.8782  -36.3218  -11.3122 O   0  0  0  0  0  0  0  0  0  0  0  0
   -1.1580  -36.8149  -13.0347 O   0  0  0  0  0  0  0  0  0  0  0  0
   -1.8342  -37.2565  -13.5719 H   0  0  0  0  0  0  0  0  0  0  0  0
   -2.4559  -34.6590  -13.1509 O   0  0  0  0  0  0  0  0  0  0  0  0
   -3.3575  -33.5153  -12.5811 P   0  0  0  0  0  0  0  0  0  0  0  0
   -3.5953  -32.5113  -13.6819 O   0  0  0  0  0  0  0  0  0  0  0  0
   -4.6854  -34.0776  -12.1274 O   0  0  0  0  0  0  0  0  0  0  0  0
   -2.6884  -32.8359  -11.4270 O   0  0  0  0  0  0  0  0  0  0  0  0
   -5.2368  -33.3611  -11.7760 H   0  0  0  0  0  0  0  0  0  0  0  0
   -3.2633  -32.1314  -11.0891 H   0  0  0  0  0  0  0  0  0  0  0  0
 31 32  2  0  0  0
 31 33  1  0  0  0
 31 34  1  0  0  0
 31 30  1  0  0  0
 30 26  1  0  0  0
 26 27  2  0  0  0
 26 28  1  0  0  0
 26 25  1  0  0  0
 25 24  1  0  0  0
 24  1  1  0  0  0
  1  2  1  0  0  0
  1  3  1  0  0  0
  2  7  1  0  0  0
  3  4  1  0  0  0
  3  5  1  0  0  0
  5  6  1  0  0  0
  5  7  1  0  0  0
  7 10  1  0  0  0
 10 11  1  0  0  0
 10 20  1  0  0  0
 11 12  2  0  0  0
 12 13  1  0  0  0
 13 14  1  0  0  0
 13 20  2  0  0  0
 14 15  2  0  0  0
 14 16  1  0  0  0
 16 17  1  0  0  0
 17 18  1  0  0  0
 17 19  2  0  0  0
 19 20  1  0  0  0
 33 35  1  0  0  0
 34 36  1  0  0  0
 28 29  1  0  0  0
  4  8  1  0  0  0
  6  9  1  0  0  0
 16 21  1  0  0  0
 18 22  1  0  0  0
 18 23  1  0  0  0
M  END
> <minimizedAffinity>
-7.36429

$$$$
