2QWC_DAN_A_800


 26 26  0  0  0  0  0  0  0  0999 V2000
   24.7677   16.0633   61.6958 C   0  0  0  0  0  0  0  0  0  0  0  0
   23.8458   16.2878   62.6904 C   0  0  0  0  0  0  0  0  0  0  0  0
   24.1034   17.3277   63.7844 C   0  0  0  0  0  0  0  0  0  0  0  0
   25.1433   18.4162   63.2779 C   0  0  0  0  0  0  0  0  0  0  0  0
   26.3384   17.7015   62.6697 C   0  0  0  0  0  0  0  0  0  0  0  0
   22.8624   17.8953   64.0775 O   0  0  0  0  0  0  0  0  0  0  0  0
   25.8908   16.9380   61.5733 O   0  0  0  0  0  0  0  0  0  0  0  0
   22.4887   18.2884   63.2733 H   0  0  0  0  0  0  0  0  0  0  0  0
   25.3332   20.4539   64.6650 C   0  0  0  0  0  0  0  0  0  0  0  0
   25.7389   21.1238   65.9895 C   0  0  0  0  0  0  0  0  0  0  0  0
   25.5516   19.1539   64.5006 N   0  0  0  0  0  0  0  0  0  0  0  0
   24.8818   21.1625   63.7613 O   0  0  0  0  0  0  0  0  0  0  0  0
   26.0038   18.6578   65.2208 H   0  0  0  0  0  0  0  0  0  0  0  0
   24.6318   14.9813   60.7867 C   0  0  0  0  0  0  0  0  0  0  0  0
   25.6264   14.7340   60.0783 O   0  0  0  0  0  0  0  0  0  0  0  0
   23.5693   14.3261   60.6638 O   0  0  0  0  0  0  0  0  0  0  0  0
   22.8308   14.5254   61.2049 H   0  0  0  0  0  0  0  0  0  0  0  0
   27.4079   18.6897   62.1530 C   0  0  0  0  0  0  0  0  0  0  0  0
   26.7080   19.8441   61.6687 O   0  0  0  0  0  0  0  0  0  0  0  0
   26.1123   19.5828   60.9491 H   0  0  0  0  0  0  0  0  0  0  0  0
   28.2343   18.1133   60.9956 C   0  0  0  0  0  0  0  0  0  0  0  0
   29.4810   18.6383   61.1865 O   0  0  0  0  0  0  0  0  0  0  0  0
   29.4320   19.6066   61.1570 H   0  0  0  0  0  0  0  0  0  0  0  0
   27.7190   18.5180   59.5655 C   0  0  0  0  0  0  0  0  0  0  0  0
   26.8903   17.4713   59.1204 O   0  0  0  0  0  0  0  0  0  0  0  0
   27.3970   16.6444   59.0994 H   0  0  0  0  0  0  0  0  0  0  0  0
 14  1  1  0  0  0
 14 15  2  0  0  0
 14 16  1  0  0  0
  1  2  2  0  0  0
  1  7  1  0  0  0
  2  3  1  0  0  0
  3  4  1  0  0  0
  3  6  1  0  0  0
  4  5  1  0  0  0
  4 11  1  0  0  0
  5 18  1  0  0  0
  5  7  1  0  0  0
 18 21  1  0  0  0
 18 19  1  0  0  0
 21 24  1  0  0  0
 21 22  1  0  0  0
 24 25  1  0  0  0
  9 10  1  0  0  0
  9 11  1  0  0  0
  9 12  2  0  0  0
 11 13  1  0  0  0
 16 17  1  0  0  0
  6  8  1  0  0  0
 19 20  1  0  0  0
 22 23  1  0  0  0
 25 26  1  0  0  0
M  END
> <minimizedAffinity>
-7.60721

$$$$
2QWC_DAN_A_800


 26 26  0  0  0  0  0  0  0  0999 V2000
   26.0092   16.2872   60.7370 C   0  0  0  0  0  0  0  0  0  0  0  0
   25.1245   15.6589   61.5809 C   0  0  0  0  0  0  0  0  0  0  0  0
   24.8511   16.2047   62.9852 C   0  0  0  0  0  0  0  0  0  0  0  0
   25.1894   17.7551   63.0506 C   0  0  0  0  0  0  0  0  0  0  0  0
   26.5662   17.9787   62.4479 C   0  0  0  0  0  0  0  0  0  0  0  0
   23.5008   15.9590   63.2387 O   0  0  0  0  0  0  0  0  0  0  0  0
   26.5364   17.5641   61.1017 O   0  0  0  0  0  0  0  0  0  0  0  0
   22.9602   16.3935   62.5606 H   0  0  0  0  0  0  0  0  0  0  0  0
   24.1226   18.5000   65.1529 C   0  0  0  0  0  0  0  0  0  0  0  0
   24.2141   18.7621   66.6664 C   0  0  0  0  0  0  0  0  0  0  0  0
   25.2013   18.0836   64.4991 N   0  0  0  0  0  0  0  0  0  0  0  0
   23.0633   18.7564   64.5744 O   0  0  0  0  0  0  0  0  0  0  0  0
   26.0457   17.9886   64.9964 H   0  0  0  0  0  0  0  0  0  0  0  0
   26.4135   15.6971   59.5106 C   0  0  0  0  0  0  0  0  0  0  0  0
   26.4972   16.4670   58.5346 O   0  0  0  0  0  0  0  0  0  0  0  0
   26.6409   14.4696   59.3894 O   0  0  0  0  0  0  0  0  0  0  0  0
   26.5733   13.9048   60.1340 H   0  0  0  0  0  0  0  0  0  0  0  0
   26.9803   19.4671   62.4756 C   0  0  0  0  0  0  0  0  0  0  0  0
   27.0623   19.9012   61.1111 O   0  0  0  0  0  0  0  0  0  0  0  0
   27.7278   19.3730   60.6432 H   0  0  0  0  0  0  0  0  0  0  0  0
   28.3515   19.6864   63.1286 C   0  0  0  0  0  0  0  0  0  0  0  0
   28.7210   20.9331   62.7098 O   0  0  0  0  0  0  0  0  0  0  0  0
   28.7684   20.9479   61.7410 H   0  0  0  0  0  0  0  0  0  0  0  0
   29.4514   18.6498   62.6922 C   0  0  0  0  0  0  0  0  0  0  0  0
   29.5884   18.7654   61.2964 O   0  0  0  0  0  0  0  0  0  0  0  0
   28.7352   18.5846   60.8718 H   0  0  0  0  0  0  0  0  0  0  0  0
 14  1  1  0  0  0
 14 15  2  0  0  0
 14 16  1  0  0  0
  1  2  2  0  0  0
  1  7  1  0  0  0
  2  3  1  0  0  0
  3  4  1  0  0  0
  3  6  1  0  0  0
  4  5  1  0  0  0
  4 11  1  0  0  0
  5 18  1  0  0  0
  5  7  1  0  0  0
 18 21  1  0  0  0
 18 19  1  0  0  0
 21 24  1  0  0  0
 21 22  1  0  0  0
 24 25  1  0  0  0
  9 10  1  0  0  0
  9 11  1  0  0  0
  9 12  2  0  0  0
 11 13  1  0  0  0
 16 17  1  0  0  0
  6  8  1  0  0  0
 19 20  1  0  0  0
 22 23  1  0  0  0
 25 26  1  0  0  0
M  END
> <minimizedAffinity>
-7.55449

$$$$
2QWC_DAN_A_800


 26 26  0  0  0  0  0  0  0  0999 V2000
   25.4739   16.7770   61.4744 C   0  0  0  0  0  0  0  0  0  0  0  0
   24.2185   16.6609   62.0220 C   0  0  0  0  0  0  0  0  0  0  0  0
   23.9333   17.1378   63.4489 C   0  0  0  0  0  0  0  0  0  0  0  0
   24.9922   18.2382   63.8854 C   0  0  0  0  0  0  0  0  0  0  0  0
   26.3864   17.7267   63.5635 C   0  0  0  0  0  0  0  0  0  0  0  0
   22.6343   17.6479   63.4330 O   0  0  0  0  0  0  0  0  0  0  0  0
   26.4753   17.5193   62.1727 O   0  0  0  0  0  0  0  0  0  0  0  0
   22.5769   18.3664   62.7838 H   0  0  0  0  0  0  0  0  0  0  0  0
   23.9524   19.2176   65.9032 C   0  0  0  0  0  0  0  0  0  0  0  0
   23.8000   19.2502   67.4340 C   0  0  0  0  0  0  0  0  0  0  0  0
   24.8196   18.3744   65.3543 N   0  0  0  0  0  0  0  0  0  0  0  0
   23.3142   20.0321   65.2310 O   0  0  0  0  0  0  0  0  0  0  0  0
   25.3721   17.8152   65.9470 H   0  0  0  0  0  0  0  0  0  0  0  0
   25.8010   16.1755   60.2306 C   0  0  0  0  0  0  0  0  0  0  0  0
   25.8261   14.9300   60.2153 O   0  0  0  0  0  0  0  0  0  0  0  0
   26.0867   16.8424   59.2074 O   0  0  0  0  0  0  0  0  0  0  0  0
   26.0626   17.7786   59.2365 H   0  0  0  0  0  0  0  0  0  0  0  0
   27.4849   18.7374   63.9625 C   0  0  0  0  0  0  0  0  0  0  0  0
   26.8474   20.0159   64.0891 O   0  0  0  0  0  0  0  0  0  0  0  0
   26.4502   20.2648   63.2399 H   0  0  0  0  0  0  0  0  0  0  0  0
   28.5887   18.8583   62.9033 C   0  0  0  0  0  0  0  0  0  0  0  0
   29.3268   17.7200   63.0642 O   0  0  0  0  0  0  0  0  0  0  0  0
   29.6836   17.6908   63.9657 H   0  0  0  0  0  0  0  0  0  0  0  0
   29.5260   20.1089   63.0825 C   0  0  0  0  0  0  0  0  0  0  0  0
   28.8521   21.2068   62.5160 O   0  0  0  0  0  0  0  0  0  0  0  0
   28.6685   21.0260   61.5808 H   0  0  0  0  0  0  0  0  0  0  0  0
 14  1  1  0  0  0
 14 15  2  0  0  0
 14 16  1  0  0  0
  1  2  2  0  0  0
  1  7  1  0  0  0
  2  3  1  0  0  0
  3  4  1  0  0  0
  3  6  1  0  0  0
  4  5  1  0  0  0
  4 11  1  0  0  0
  5 18  1  0  0  0
  5  7  1  0  0  0
 18 21  1  0  0  0
 18 19  1  0  0  0
 21 24  1  0  0  0
 21 22  1  0  0  0
 24 25  1  0  0  0
  9 10  1  0  0  0
  9 11  1  0  0  0
  9 12  2  0  0  0
 11 13  1  0  0  0
 16 17  1  0  0  0
  6  8  1  0  0  0
 19 20  1  0  0  0
 22 23  1  0  0  0
 25 26  1  0  0  0
M  END
> <minimizedAffinity>
-7.17078

$$$$
2QWC_DAN_A_800


 26 26  0  0  0  0  0  0  0  0999 V2000
   26.4677   15.4600   61.2688 C   0  0  0  0  0  0  0  0  0  0  0  0
   25.1910   15.8110   61.6379 C   0  0  0  0  0  0  0  0  0  0  0  0
   24.9447   16.8224   62.7609 C   0  0  0  0  0  0  0  0  0  0  0  0
   26.2105   17.7643   62.9433 C   0  0  0  0  0  0  0  0  0  0  0  0
   27.4558   16.8969   63.0175 C   0  0  0  0  0  0  0  0  0  0  0  0
   23.8113   17.5461   62.3868 O   0  0  0  0  0  0  0  0  0  0  0  0
   27.5753   16.1837   61.8083 O   0  0  0  0  0  0  0  0  0  0  0  0
   23.9690   17.9741   61.5308 H   0  0  0  0  0  0  0  0  0  0  0  0
   25.6882   19.7498   64.3207 C   0  0  0  0  0  0  0  0  0  0  0  0
   25.4178   20.3723   65.7017 C   0  0  0  0  0  0  0  0  0  0  0  0
   25.9880   18.4584   64.2374 N   0  0  0  0  0  0  0  0  0  0  0  0
   25.6910   20.4889   63.3326 O   0  0  0  0  0  0  0  0  0  0  0  0
   26.0661   17.9387   65.0698 H   0  0  0  0  0  0  0  0  0  0  0  0
   26.7134   14.3935   60.3644 C   0  0  0  0  0  0  0  0  0  0  0  0
   27.9101   14.1088   60.1667 O   0  0  0  0  0  0  0  0  0  0  0  0
   25.7949   13.7874   59.7626 O   0  0  0  0  0  0  0  0  0  0  0  0
   24.9001   14.0144   59.9233 H   0  0  0  0  0  0  0  0  0  0  0  0
   28.7406   17.7355   63.2012 C   0  0  0  0  0  0  0  0  0  0  0  0
   28.7658   18.1630   64.5701 O   0  0  0  0  0  0  0  0  0  0  0  0
   27.9804   18.7012   64.7553 H   0  0  0  0  0  0  0  0  0  0  0  0
   28.7620   18.9854   62.3113 C   0  0  0  0  0  0  0  0  0  0  0  0
   29.5557   18.6276   61.2585 O   0  0  0  0  0  0  0  0  0  0  0  0
   30.4387   18.3929   61.5844 H   0  0  0  0  0  0  0  0  0  0  0  0
   29.3673   20.2630   63.0012 C   0  0  0  0  0  0  0  0  0  0  0  0
   28.4786   21.3236   62.7446 O   0  0  0  0  0  0  0  0  0  0  0  0
   28.3851   21.4424   61.7864 H   0  0  0  0  0  0  0  0  0  0  0  0
 14  1  1  0  0  0
 14 15  2  0  0  0
 14 16  1  0  0  0
  1  2  2  0  0  0
  1  7  1  0  0  0
  2  3  1  0  0  0
  3  4  1  0  0  0
  3  6  1  0  0  0
  4  5  1  0  0  0
  4 11  1  0  0  0
  5 18  1  0  0  0
  5  7  1  0  0  0
 18 21  1  0  0  0
 18 19  1  0  0  0
 21 24  1  0  0  0
 21 22  1  0  0  0
 24 25  1  0  0  0
  9 10  1  0  0  0
  9 11  1  0  0  0
  9 12  2  0  0  0
 11 13  1  0  0  0
 16 17  1  0  0  0
  6  8  1  0  0  0
 19 20  1  0  0  0
 22 23  1  0  0  0
 25 26  1  0  0  0
M  END
> <minimizedAffinity>
-6.99659

$$$$
2QWC_DAN_A_800


 26 26  0  0  0  0  0  0  0  0999 V2000
   24.8670   17.9190   64.2142 C   0  0  0  0  0  0  0  0  0  0  0  0
   25.7995   18.8997   64.4556 C   0  0  0  0  0  0  0  0  0  0  0  0
   27.2764   18.6851   64.1128 C   0  0  0  0  0  0  0  0  0  0  0  0
   27.4261   17.5787   62.9832 C   0  0  0  0  0  0  0  0  0  0  0  0
   26.5958   16.3679   63.3749 C   0  0  0  0  0  0  0  0  0  0  0  0
   27.7584   19.9247   63.6895 O   0  0  0  0  0  0  0  0  0  0  0  0
   25.2463   16.7628   63.4653 O   0  0  0  0  0  0  0  0  0  0  0  0
   27.2417   20.2294   62.9273 H   0  0  0  0  0  0  0  0  0  0  0  0
   29.7487   17.8217   62.1716 C   0  0  0  0  0  0  0  0  0  0  0  0
   31.2359   17.4398   62.2727 C   0  0  0  0  0  0  0  0  0  0  0  0
   28.8704   17.2325   62.9754 N   0  0  0  0  0  0  0  0  0  0  0  0
   29.4034   18.6146   61.2915 O   0  0  0  0  0  0  0  0  0  0  0  0
   29.1909   16.5359   63.5929 H   0  0  0  0  0  0  0  0  0  0  0  0
   23.5346   18.0261   64.6926 C   0  0  0  0  0  0  0  0  0  0  0  0
   22.6436   18.0750   63.8231 O   0  0  0  0  0  0  0  0  0  0  0  0
   23.2548   18.1056   65.9127 O   0  0  0  0  0  0  0  0  0  0  0  0
   23.9374   18.0671   66.5534 H   0  0  0  0  0  0  0  0  0  0  0  0
   26.6881   15.2344   62.3289 C   0  0  0  0  0  0  0  0  0  0  0  0
   27.9715   14.6166   62.4976 O   0  0  0  0  0  0  0  0  0  0  0  0
   28.6690   15.2738   62.3475 H   0  0  0  0  0  0  0  0  0  0  0  0
   26.5943   15.7521   60.8875 C   0  0  0  0  0  0  0  0  0  0  0  0
   25.3136   16.2166   60.7862 O   0  0  0  0  0  0  0  0  0  0  0  0
   24.6922   15.4918   60.9579 H   0  0  0  0  0  0  0  0  0  0  0  0
   26.8319   14.6538   59.7866 C   0  0  0  0  0  0  0  0  0  0  0  0
   26.2267   13.4722   60.2535 O   0  0  0  0  0  0  0  0  0  0  0  0
   26.6212   13.2208   61.1032 H   0  0  0  0  0  0  0  0  0  0  0  0
 14  1  1  0  0  0
 14 15  2  0  0  0
 14 16  1  0  0  0
  1  2  2  0  0  0
  1  7  1  0  0  0
  2  3  1  0  0  0
  3  4  1  0  0  0
  3  6  1  0  0  0
  4  5  1  0  0  0
  4 11  1  0  0  0
  5 18  1  0  0  0
  5  7  1  0  0  0
 18 21  1  0  0  0
 18 19  1  0  0  0
 21 24  1  0  0  0
 21 22  1  0  0  0
 24 25  1  0  0  0
  9 10  1  0  0  0
  9 11  1  0  0  0
  9 12  2  0  0  0
 11 13  1  0  0  0
 16 17  1  0  0  0
  6  8  1  0  0  0
 19 20  1  0  0  0
 22 23  1  0  0  0
 25 26  1  0  0  0
M  END
> <minimizedAffinity>
-6.91061

$$$$
2QWC_DAN_A_800


 26 26  0  0  0  0  0  0  0  0999 V2000
   25.0137   19.4966   64.8312 C   0  0  0  0  0  0  0  0  0  0  0  0
   26.1161   20.2380   65.1844 C   0  0  0  0  0  0  0  0  0  0  0  0
   27.5245   19.8040   64.7686 C   0  0  0  0  0  0  0  0  0  0  0  0
   27.4584   18.8703   63.4855 C   0  0  0  0  0  0  0  0  0  0  0  0
   26.4143   17.7920   63.7215 C   0  0  0  0  0  0  0  0  0  0  0  0
   28.2321   20.9803   64.5162 O   0  0  0  0  0  0  0  0  0  0  0  0
   25.1646   18.4148   63.9102 O   0  0  0  0  0  0  0  0  0  0  0  0
   27.7807   21.4868   63.8229 H   0  0  0  0  0  0  0  0  0  0  0  0
   29.5245   18.2804   62.2624 C   0  0  0  0  0  0  0  0  0  0  0  0
   30.9408   17.6789   62.2638 C   0  0  0  0  0  0  0  0  0  0  0  0
   28.8107   18.2647   63.3826 N   0  0  0  0  0  0  0  0  0  0  0  0
   29.0627   18.6957   61.1962 O   0  0  0  0  0  0  0  0  0  0  0  0
   29.1948   17.8327   64.1795 H   0  0  0  0  0  0  0  0  0  0  0  0
   23.7271   19.7791   65.3610 C   0  0  0  0  0  0  0  0  0  0  0  0
   23.7047   20.3394   66.4735 O   0  0  0  0  0  0  0  0  0  0  0  0
   22.6655   19.4576   64.7754 O   0  0  0  0  0  0  0  0  0  0  0  0
   22.7007   19.0368   63.9390 H   0  0  0  0  0  0  0  0  0  0  0  0
   26.2870   16.8302   62.5189 C   0  0  0  0  0  0  0  0  0  0  0  0
   26.2400   17.6442   61.3388 O   0  0  0  0  0  0  0  0  0  0  0  0
   25.4716   18.2345   61.3835 H   0  0  0  0  0  0  0  0  0  0  0  0
   25.0045   15.9891   62.5688 C   0  0  0  0  0  0  0  0  0  0  0  0
   25.3855   14.7763   62.0686 O   0  0  0  0  0  0  0  0  0  0  0  0
   25.7164   14.8891   61.1638 H   0  0  0  0  0  0  0  0  0  0  0  0
   23.8223   16.5559   61.6994 C   0  0  0  0  0  0  0  0  0  0  0  0
   23.0223   17.3329   62.5577 O   0  0  0  0  0  0  0  0  0  0  0  0
   22.6997   16.7806   63.2870 H   0  0  0  0  0  0  0  0  0  0  0  0
 14  1  1  0  0  0
 14 15  2  0  0  0
 14 16  1  0  0  0
  1  2  2  0  0  0
  1  7  1  0  0  0
  2  3  1  0  0  0
  3  4  1  0  0  0
  3  6  1  0  0  0
  4  5  1  0  0  0
  4 11  1  0  0  0
  5 18  1  0  0  0
  5  7  1  0  0  0
 18 21  1  0  0  0
 18 19  1  0  0  0
 21 24  1  0  0  0
 21 22  1  0  0  0
 24 25  1  0  0  0
  9 10  1  0  0  0
  9 11  1  0  0  0
  9 12  2  0  0  0
 11 13  1  0  0  0
 16 17  1  0  0  0
  6  8  1  0  0  0
 19 20  1  0  0  0
 22 23  1  0  0  0
 25 26  1  0  0  0
M  END
> <minimizedAffinity>
-6.75021

$$$$
2QWC_DAN_A_800


 26 26  0  0  0  0  0  0  0  0999 V2000
   25.3475   16.4663   61.6082 C   0  0  0  0  0  0  0  0  0  0  0  0
   26.2643   15.4439   61.5462 C   0  0  0  0  0  0  0  0  0  0  0  0
   27.7664   15.7246   61.6442 C   0  0  0  0  0  0  0  0  0  0  0  0
   28.0232   17.1009   62.3942 C   0  0  0  0  0  0  0  0  0  0  0  0
   27.1319   18.1653   61.7768 C   0  0  0  0  0  0  0  0  0  0  0  0
   28.3160   14.6464   62.3396 O   0  0  0  0  0  0  0  0  0  0  0  0
   25.7883   17.7803   61.9552 O   0  0  0  0  0  0  0  0  0  0  0  0
   27.8948   14.5749   63.2105 H   0  0  0  0  0  0  0  0  0  0  0  0
   30.4353   16.9865   62.9245 C   0  0  0  0  0  0  0  0  0  0  0  0
   31.8923   17.3120   62.5516 C   0  0  0  0  0  0  0  0  0  0  0  0
   29.4526   17.4146   62.1400 N   0  0  0  0  0  0  0  0  0  0  0  0
   30.2174   16.3973   63.9865 O   0  0  0  0  0  0  0  0  0  0  0  0
   29.6816   17.9638   61.3557 H   0  0  0  0  0  0  0  0  0  0  0  0
   23.9716   16.2485   61.3343 C   0  0  0  0  0  0  0  0  0  0  0  0
   23.1741   17.0343   61.8811 O   0  0  0  0  0  0  0  0  0  0  0  0
   23.5624   15.3043   60.6172 O   0  0  0  0  0  0  0  0  0  0  0  0
   24.1761   14.7226   60.2135 H   0  0  0  0  0  0  0  0  0  0  0  0
   27.3217   19.5450   62.4460 C   0  0  0  0  0  0  0  0  0  0  0  0
   28.5878   20.0519   62.0018 O   0  0  0  0  0  0  0  0  0  0  0  0
   29.2929   19.4436   62.2733 H   0  0  0  0  0  0  0  0  0  0  0  0
   27.3539   19.4588   63.9777 C   0  0  0  0  0  0  0  0  0  0  0  0
   26.0357   19.4602   64.3364 O   0  0  0  0  0  0  0  0  0  0  0  0
   25.6162   20.2766   64.0227 H   0  0  0  0  0  0  0  0  0  0  0  0
   28.0798   20.6645   64.6806 C   0  0  0  0  0  0  0  0  0  0  0  0
   27.5370   21.8415   64.1324 O   0  0  0  0  0  0  0  0  0  0  0  0
   27.6786   21.8465   63.1728 H   0  0  0  0  0  0  0  0  0  0  0  0
 14  1  1  0  0  0
 14 15  2  0  0  0
 14 16  1  0  0  0
  1  2  2  0  0  0
  1  7  1  0  0  0
  2  3  1  0  0  0
  3  4  1  0  0  0
  3  6  1  0  0  0
  4  5  1  0  0  0
  4 11  1  0  0  0
  5 18  1  0  0  0
  5  7  1  0  0  0
 18 21  1  0  0  0
 18 19  1  0  0  0
 21 24  1  0  0  0
 21 22  1  0  0  0
 24 25  1  0  0  0
  9 10  1  0  0  0
  9 11  1  0  0  0
  9 12  2  0  0  0
 11 13  1  0  0  0
 16 17  1  0  0  0
  6  8  1  0  0  0
 19 20  1  0  0  0
 22 23  1  0  0  0
 25 26  1  0  0  0
M  END
> <minimizedAffinity>
-6.70409

$$$$
2QWC_DAN_A_800


 26 26  0  0  0  0  0  0  0  0999 V2000
   25.4304   17.0580   62.2912 C   0  0  0  0  0  0  0  0  0  0  0  0
   26.2978   16.1826   62.9001 C   0  0  0  0  0  0  0  0  0  0  0  0
   27.6031   16.6760   63.5306 C   0  0  0  0  0  0  0  0  0  0  0  0
   27.4874   18.2147   63.9071 C   0  0  0  0  0  0  0  0  0  0  0  0
   26.9381   18.9691   62.7080 C   0  0  0  0  0  0  0  0  0  0  0  0
   27.8110   15.8817   64.6593 O   0  0  0  0  0  0  0  0  0  0  0  0
   25.6567   18.4636   62.4118 O   0  0  0  0  0  0  0  0  0  0  0  0
   27.0538   15.9682   65.2594 H   0  0  0  0  0  0  0  0  0  0  0  0
   29.3088   18.9337   65.4164 C   0  0  0  0  0  0  0  0  0  0  0  0
   30.7846   19.3154   65.6263 C   0  0  0  0  0  0  0  0  0  0  0  0
   28.8801   18.6447   64.1928 N   0  0  0  0  0  0  0  0  0  0  0  0
   28.5458   18.9792   66.3850 O   0  0  0  0  0  0  0  0  0  0  0  0
   29.5131   18.7188   63.4425 H   0  0  0  0  0  0  0  0  0  0  0  0
   24.3143   16.5993   61.5432 C   0  0  0  0  0  0  0  0  0  0  0  0
   23.2369   17.1894   61.7509 O   0  0  0  0  0  0  0  0  0  0  0  0
   24.3816   15.6347   60.7442 O   0  0  0  0  0  0  0  0  0  0  0  0
   25.2002   15.2022   60.5999 H   0  0  0  0  0  0  0  0  0  0  0  0
   26.7972   20.4826   62.9857 C   0  0  0  0  0  0  0  0  0  0  0  0
   28.1154   21.0432   62.9122 O   0  0  0  0  0  0  0  0  0  0  0  0
   28.6815   20.6271   63.5811 H   0  0  0  0  0  0  0  0  0  0  0  0
   26.2317   20.7765   64.3816 C   0  0  0  0  0  0  0  0  0  0  0  0
   24.9015   20.9948   64.1596 O   0  0  0  0  0  0  0  0  0  0  0  0
   24.7936   21.7445   63.5537 H   0  0  0  0  0  0  0  0  0  0  0  0
   26.8515   22.0427   65.0796 C   0  0  0  0  0  0  0  0  0  0  0  0
   26.6128   23.1356   64.2259 O   0  0  0  0  0  0  0  0  0  0  0  0
   27.0197   22.9659   63.3619 H   0  0  0  0  0  0  0  0  0  0  0  0
 14  1  1  0  0  0
 14 15  2  0  0  0
 14 16  1  0  0  0
  1  2  2  0  0  0
  1  7  1  0  0  0
  2  3  1  0  0  0
  3  4  1  0  0  0
  3  6  1  0  0  0
  4  5  1  0  0  0
  4 11  1  0  0  0
  5 18  1  0  0  0
  5  7  1  0  0  0
 18 21  1  0  0  0
 18 19  1  0  0  0
 21 24  1  0  0  0
 21 22  1  0  0  0
 24 25  1  0  0  0
  9 10  1  0  0  0
  9 11  1  0  0  0
  9 12  2  0  0  0
 11 13  1  0  0  0
 16 17  1  0  0  0
  6  8  1  0  0  0
 19 20  1  0  0  0
 22 23  1  0  0  0
 25 26  1  0  0  0
M  END
> <minimizedAffinity>
-6.69905

$$$$
2QWC_DAN_A_800


 26 26  0  0  0  0  0  0  0  0999 V2000
   25.4679   16.1407   61.5453 C   0  0  0  0  0  0  0  0  0  0  0  0
   26.4811   15.2232   61.4000 C   0  0  0  0  0  0  0  0  0  0  0  0
   27.8645   15.4733   62.0070 C   0  0  0  0  0  0  0  0  0  0  0  0
   27.7590   16.4922   63.2207 C   0  0  0  0  0  0  0  0  0  0  0  0
   26.9405   17.6934   62.7781 C   0  0  0  0  0  0  0  0  0  0  0  0
   28.3367   14.2260   62.4186 O   0  0  0  0  0  0  0  0  0  0  0  0
   25.6499   17.2492   62.4283 O   0  0  0  0  0  0  0  0  0  0  0  0
   27.7164   13.8399   63.0566 H   0  0  0  0  0  0  0  0  0  0  0  0
   29.7955   16.5671   64.6206 C   0  0  0  0  0  0  0  0  0  0  0  0
   31.2657   16.9833   64.8021 C   0  0  0  0  0  0  0  0  0  0  0  0
   29.1596   16.8986   63.5024 N   0  0  0  0  0  0  0  0  0  0  0  0
   29.2253   15.9986   65.5555 O   0  0  0  0  0  0  0  0  0  0  0  0
   29.6376   17.4370   62.8310 H   0  0  0  0  0  0  0  0  0  0  0  0
   24.2436   16.0145   60.8376 C   0  0  0  0  0  0  0  0  0  0  0  0
   23.8022   14.8563   60.7106 O   0  0  0  0  0  0  0  0  0  0  0  0
   23.6469   16.9948   60.3315 O   0  0  0  0  0  0  0  0  0  0  0  0
   23.9929   17.8592   60.4368 H   0  0  0  0  0  0  0  0  0  0  0  0
   26.7911   18.7435   63.9017 C   0  0  0  0  0  0  0  0  0  0  0  0
   26.4328   18.0296   65.0929 O   0  0  0  0  0  0  0  0  0  0  0  0
   25.5939   17.5637   64.9508 H   0  0  0  0  0  0  0  0  0  0  0  0
   25.6864   19.7676   63.6095 C   0  0  0  0  0  0  0  0  0  0  0  0
   25.8317   20.0395   62.2786 O   0  0  0  0  0  0  0  0  0  0  0  0
   26.7182   20.3985   62.1169 H   0  0  0  0  0  0  0  0  0  0  0  0
   25.8109   21.1071   64.4250 C   0  0  0  0  0  0  0  0  0  0  0  0
   24.8990   22.0157   63.8565 O   0  0  0  0  0  0  0  0  0  0  0  0
   25.1126   22.1443   62.9190 H   0  0  0  0  0  0  0  0  0  0  0  0
 14  1  1  0  0  0
 14 15  2  0  0  0
 14 16  1  0  0  0
  1  2  2  0  0  0
  1  7  1  0  0  0
  2  3  1  0  0  0
  3  4  1  0  0  0
  3  6  1  0  0  0
  4  5  1  0  0  0
  4 11  1  0  0  0
  5 18  1  0  0  0
  5  7  1  0  0  0
 18 21  1  0  0  0
 18 19  1  0  0  0
 21 24  1  0  0  0
 21 22  1  0  0  0
 24 25  1  0  0  0
  9 10  1  0  0  0
  9 11  1  0  0  0
  9 12  2  0  0  0
 11 13  1  0  0  0
 16 17  1  0  0  0
  6  8  1  0  0  0
 19 20  1  0  0  0
 22 23  1  0  0  0
 25 26  1  0  0  0
M  END
> <minimizedAffinity>
-6.65641

$$$$
2QWC_DAN_A_800


 26 26  0  0  0  0  0  0  0  0999 V2000
   24.6424   18.9480   64.9487 C   0  0  0  0  0  0  0  0  0  0  0  0
   25.7918   19.5296   65.4284 C   0  0  0  0  0  0  0  0  0  0  0  0
   27.1666   19.1150   64.8969 C   0  0  0  0  0  0  0  0  0  0  0  0
   27.0307   18.4873   63.4442 C   0  0  0  0  0  0  0  0  0  0  0  0
   25.9242   17.4461   63.4655 C   0  0  0  0  0  0  0  0  0  0  0  0
   27.9431   20.2748   64.8884 O   0  0  0  0  0  0  0  0  0  0  0  0
   24.7173   18.0849   63.8126 O   0  0  0  0  0  0  0  0  0  0  0  0
   27.5172   20.9449   64.3313 H   0  0  0  0  0  0  0  0  0  0  0  0
   29.3531   18.4723   62.5966 C   0  0  0  0  0  0  0  0  0  0  0  0
   30.6951   17.7410   62.4175 C   0  0  0  0  0  0  0  0  0  0  0  0
   28.3419   17.8407   63.1823 N   0  0  0  0  0  0  0  0  0  0  0  0
   29.2324   19.6050   62.1222 O   0  0  0  0  0  0  0  0  0  0  0  0
   28.4671   16.9029   63.4546 H   0  0  0  0  0  0  0  0  0  0  0  0
   23.3808   19.1832   65.5561 C   0  0  0  0  0  0  0  0  0  0  0  0
   22.5817   19.8822   64.9040 O   0  0  0  0  0  0  0  0  0  0  0  0
   23.0844   18.7524   66.6961 O   0  0  0  0  0  0  0  0  0  0  0  0
   23.6974   18.2280   67.1727 H   0  0  0  0  0  0  0  0  0  0  0  0
   25.7262   16.7772   62.0868 C   0  0  0  0  0  0  0  0  0  0  0  0
   24.4364   17.1837   61.6090 O   0  0  0  0  0  0  0  0  0  0  0  0
   23.7532   16.8875   62.2306 H   0  0  0  0  0  0  0  0  0  0  0  0
   25.7437   15.2448   62.1661 C   0  0  0  0  0  0  0  0  0  0  0  0
   26.8903   14.9628   62.8532 O   0  0  0  0  0  0  0  0  0  0  0  0
   27.6529   15.3148   62.3680 H   0  0  0  0  0  0  0  0  0  0  0  0
   25.7903   14.5231   60.7691 C   0  0  0  0  0  0  0  0  0  0  0  0
   24.4594   14.4065   60.3269 O   0  0  0  0  0  0  0  0  0  0  0  0
   23.9461   13.9005   60.9761 H   0  0  0  0  0  0  0  0  0  0  0  0
 14  1  1  0  0  0
 14 15  2  0  0  0
 14 16  1  0  0  0
  1  2  2  0  0  0
  1  7  1  0  0  0
  2  3  1  0  0  0
  3  4  1  0  0  0
  3  6  1  0  0  0
  4  5  1  0  0  0
  4 11  1  0  0  0
  5 18  1  0  0  0
  5  7  1  0  0  0
 18 21  1  0  0  0
 18 19  1  0  0  0
 21 24  1  0  0  0
 21 22  1  0  0  0
 24 25  1  0  0  0
  9 10  1  0  0  0
  9 11  1  0  0  0
  9 12  2  0  0  0
 11 13  1  0  0  0
 16 17  1  0  0  0
  6  8  1  0  0  0
 19 20  1  0  0  0
 22 23  1  0  0  0
 25 26  1  0  0  0
M  END
> <minimizedAffinity>
-6.59523

$$$$
