1QK4_IMP_A_300


 28 30  0  0  0  0  0  0  0  0999 V2000
   27.7082    7.3406    8.8416 C   0  0  0  0  0  0  0  0  0  0  0  0
   27.8500    8.0737    7.5796 O   0  0  0  0  0  0  0  0  0  0  0  0
   26.5350    6.3993    8.6031 C   0  0  0  0  0  0  0  0  0  0  0  0
   25.8834    6.0072    9.8036 O   0  0  0  0  0  0  0  0  0  0  0  0
   25.5820    7.2214    7.7716 C   0  0  0  0  0  0  0  0  0  0  0  0
   24.6473    7.9306    8.5544 O   0  0  0  0  0  0  0  0  0  0  0  0
   26.5453    8.1577    7.0091 C   0  0  0  0  0  0  0  0  0  0  0  0
   25.5620    6.7951   10.2692 H   0  0  0  0  0  0  0  0  0  0  0  0
   25.1180    8.5045    9.1789 H   0  0  0  0  0  0  0  0  0  0  0  0
   26.6988    7.6654    5.6149 N   0  0  0  0  0  0  0  0  0  0  0  0
   27.6636    6.8835    5.0350 C   0  0  0  0  0  0  0  0  0  0  0  0
   27.4343    6.6693    3.7736 N   0  0  0  0  0  0  0  0  0  0  0  0
   26.2758    7.3432    3.4866 C   0  0  0  0  0  0  0  0  0  0  0  0
   25.5292    7.4447    2.2799 C   0  0  0  0  0  0  0  0  0  0  0  0
   25.8090    6.9650    1.1827 O   0  0  0  0  0  0  0  0  0  0  0  0
   24.3264    8.1780    2.4323 N   0  0  0  0  0  0  0  0  0  0  0  0
   23.9468    8.7563    3.6316 C   0  0  0  0  0  0  0  0  0  0  0  0
   24.6476    8.6282    4.7679 N   0  0  0  0  0  0  0  0  0  0  0  0
   25.7765    7.9334    4.6249 C   0  0  0  0  0  0  0  0  0  0  0  0
   23.7352    8.2807    1.6518 H   0  0  0  0  0  0  0  0  0  0  0  0
   29.1012    6.8049    9.0701 C   0  0  0  0  0  0  0  0  0  0  0  0
   29.1971    5.3795    9.1810 O   0  0  0  0  0  0  0  0  0  0  0  0
   30.6096    4.7452    8.7593 P   0  0  0  0  0  0  0  0  0  0  0  0
   31.6187    4.8392    9.8598 O   0  0  0  0  0  0  0  0  0  0  0  0
   31.1088    5.5198    7.5810 O   0  0  0  0  0  0  0  0  0  0  0  0
   30.2520    3.2842    8.4004 O   0  0  0  0  0  0  0  0  0  0  0  0
   31.9648    5.1620    7.2980 H   0  0  0  0  0  0  0  0  0  0  0  0
   31.0547    2.8123    8.1287 H   0  0  0  0  0  0  0  0  0  0  0  0
 23 24  2  0  0  0
 23 25  1  0  0  0
 23 26  1  0  0  0
 23 22  1  0  0  0
 22 21  1  0  0  0
 21  1  1  0  0  0
  1  2  1  0  0  0
  1  3  1  0  0  0
  2  7  1  0  0  0
  3  4  1  0  0  0
  3  5  1  0  0  0
  5  6  1  0  0  0
  5  7  1  0  0  0
  7 10  1  0  0  0
 10 11  1  0  0  0
 10 19  1  0  0  0
 11 12  2  0  0  0
 12 13  1  0  0  0
 13 14  1  0  0  0
 13 19  2  0  0  0
 14 15  2  0  0  0
 14 16  1  0  0  0
 16 17  1  0  0  0
 17 18  2  0  0  0
 18 19  1  0  0  0
 25 27  1  0  0  0
 26 28  1  0  0  0
  4  8  1  0  0  0
  6  9  1  0  0  0
 16 20  1  0  0  0
M  END
> <minimizedAffinity>
-10.35418

$$$$
1QK4_IMP_A_300


 28 30  0  0  0  0  0  0  0  0999 V2000
   24.6509    8.6482   10.2148 C   0  0  0  0  0  0  0  0  0  0  0  0
   25.0800    7.5183    9.3846 O   0  0  0  0  0  0  0  0  0  0  0  0
   25.7127    8.7439   11.3024 C   0  0  0  0  0  0  0  0  0  0  0  0
   25.2407    9.3713   12.4869 O   0  0  0  0  0  0  0  0  0  0  0  0
   26.0424    7.3036   11.6060 C   0  0  0  0  0  0  0  0  0  0  0  0
   25.2529    6.7709   12.6464 O   0  0  0  0  0  0  0  0  0  0  0  0
   25.7714    6.6182   10.2485 C   0  0  0  0  0  0  0  0  0  0  0  0
   24.4817    8.8771   12.8341 H   0  0  0  0  0  0  0  0  0  0  0  0
   24.3146    6.8514   12.4139 H   0  0  0  0  0  0  0  0  0  0  0  0
   27.0679    6.3501    9.5726 N   0  0  0  0  0  0  0  0  0  0  0  0
   27.8559    7.1468    8.7833 C   0  0  0  0  0  0  0  0  0  0  0  0
   28.9305    6.5362    8.3810 N   0  0  0  0  0  0  0  0  0  0  0  0
   28.8601    5.2732    8.9087 C   0  0  0  0  0  0  0  0  0  0  0  0
   29.7642    4.1775    8.8319 C   0  0  0  0  0  0  0  0  0  0  0  0
   30.8219    4.1207    8.2071 O   0  0  0  0  0  0  0  0  0  0  0  0
   29.3506    3.0625    9.6022 N   0  0  0  0  0  0  0  0  0  0  0  0
   28.1697    3.0459   10.3246 C   0  0  0  0  0  0  0  0  0  0  0  0
   27.3410    4.0970   10.4097 N   0  0  0  0  0  0  0  0  0  0  0  0
   27.7337    5.1477    9.6890 C   0  0  0  0  0  0  0  0  0  0  0  0
   29.9279    2.2653    9.6247 H   0  0  0  0  0  0  0  0  0  0  0  0
   24.4736    9.7534    9.2015 C   0  0  0  0  0  0  0  0  0  0  0  0
   24.3882   11.0754    9.7479 O   0  0  0  0  0  0  0  0  0  0  0  0
   22.9719   11.4686   10.3921 P   0  0  0  0  0  0  0  0  0  0  0  0
   22.8476   10.9971   11.8065 O   0  0  0  0  0  0  0  0  0  0  0  0
   21.9122   10.8071    9.5693 O   0  0  0  0  0  0  0  0  0  0  0  0
   22.9406   13.0099   10.2717 O   0  0  0  0  0  0  0  0  0  0  0  0
   21.0390   11.0241    9.9317 H   0  0  0  0  0  0  0  0  0  0  0  0
   22.1089   13.3462   10.6407 H   0  0  0  0  0  0  0  0  0  0  0  0
 23 24  2  0  0  0
 23 25  1  0  0  0
 23 26  1  0  0  0
 23 22  1  0  0  0
 22 21  1  0  0  0
 21  1  1  0  0  0
  1  2  1  0  0  0
  1  3  1  0  0  0
  2  7  1  0  0  0
  3  4  1  0  0  0
  3  5  1  0  0  0
  5  6  1  0  0  0
  5  7  1  0  0  0
  7 10  1  0  0  0
 10 11  1  0  0  0
 10 19  1  0  0  0
 11 12  2  0  0  0
 12 13  1  0  0  0
 13 14  1  0  0  0
 13 19  2  0  0  0
 14 15  2  0  0  0
 14 16  1  0  0  0
 16 17  1  0  0  0
 17 18  2  0  0  0
 18 19  1  0  0  0
 25 27  1  0  0  0
 26 28  1  0  0  0
  4  8  1  0  0  0
  6  9  1  0  0  0
 16 20  1  0  0  0
M  END
> <minimizedAffinity>
-9.78221

$$$$
1QK4_IMP_A_300


 28 30  0  0  0  0  0  0  0  0999 V2000
   24.6518    8.4722    9.3677 C   0  0  0  0  0  0  0  0  0  0  0  0
   25.2440    7.2763    8.7602 O   0  0  0  0  0  0  0  0  0  0  0  0
   25.5373    8.7635   10.5720 C   0  0  0  0  0  0  0  0  0  0  0  0
   24.8711    9.5026   11.5865 O   0  0  0  0  0  0  0  0  0  0  0  0
   25.8773    7.3935   11.1038 C   0  0  0  0  0  0  0  0  0  0  0  0
   24.9659    6.9468   12.0831 O   0  0  0  0  0  0  0  0  0  0  0  0
   25.8371    6.5317    9.8225 C   0  0  0  0  0  0  0  0  0  0  0  0
   24.0900    9.0108   11.8848 H   0  0  0  0  0  0  0  0  0  0  0  0
   24.0695    6.9424   11.7125 H   0  0  0  0  0  0  0  0  0  0  0  0
   27.2287    6.2598    9.3763 N   0  0  0  0  0  0  0  0  0  0  0  0
   28.1307    7.0439    8.7054 C   0  0  0  0  0  0  0  0  0  0  0  0
   29.2607    6.4344    8.5021 N   0  0  0  0  0  0  0  0  0  0  0  0
   29.1124    5.1851    9.0458 C   0  0  0  0  0  0  0  0  0  0  0  0
   30.0237    4.0975    9.1490 C   0  0  0  0  0  0  0  0  0  0  0  0
   31.1700    4.0356    8.7081 O   0  0  0  0  0  0  0  0  0  0  0  0
   29.4961    2.9988    9.8715 N   0  0  0  0  0  0  0  0  0  0  0  0
   28.2125    2.9886   10.3904 C   0  0  0  0  0  0  0  0  0  0  0  0
   27.3745    4.0326   10.3091 N   0  0  0  0  0  0  0  0  0  0  0  0
   27.8738    5.0681    9.6338 C   0  0  0  0  0  0  0  0  0  0  0  0
   30.0667    2.2087   10.0106 H   0  0  0  0  0  0  0  0  0  0  0  0
   24.5805    9.4321    8.2044 C   0  0  0  0  0  0  0  0  0  0  0  0
   24.9851    8.8916    6.9405 O   0  0  0  0  0  0  0  0  0  0  0  0
   23.9700    9.1416    5.7230 P   0  0  0  0  0  0  0  0  0  0  0  0
   24.0104    8.0316    4.7207 O   0  0  0  0  0  0  0  0  0  0  0  0
   24.3876   10.4116    5.0519 O   0  0  0  0  0  0  0  0  0  0  0  0
   22.5965    9.2643    6.4228 O   0  0  0  0  0  0  0  0  0  0  0  0
   23.7930   10.5947    4.3077 H   0  0  0  0  0  0  0  0  0  0  0  0
   21.9075    9.4192    5.7578 H   0  0  0  0  0  0  0  0  0  0  0  0
 23 24  2  0  0  0
 23 25  1  0  0  0
 23 26  1  0  0  0
 23 22  1  0  0  0
 22 21  1  0  0  0
 21  1  1  0  0  0
  1  2  1  0  0  0
  1  3  1  0  0  0
  2  7  1  0  0  0
  3  4  1  0  0  0
  3  5  1  0  0  0
  5  6  1  0  0  0
  5  7  1  0  0  0
  7 10  1  0  0  0
 10 11  1  0  0  0
 10 19  1  0  0  0
 11 12  2  0  0  0
 12 13  1  0  0  0
 13 14  1  0  0  0
 13 19  2  0  0  0
 14 15  2  0  0  0
 14 16  1  0  0  0
 16 17  1  0  0  0
 17 18  2  0  0  0
 18 19  1  0  0  0
 25 27  1  0  0  0
 26 28  1  0  0  0
  4  8  1  0  0  0
  6  9  1  0  0  0
 16 20  1  0  0  0
M  END
> <minimizedAffinity>
-9.16098

$$$$
1QK4_IMP_A_300


 28 30  0  0  0  0  0  0  0  0999 V2000
   24.9881    8.2091    9.0397 C   0  0  0  0  0  0  0  0  0  0  0  0
   26.1680    8.2118    8.1691 O   0  0  0  0  0  0  0  0  0  0  0  0
   25.4606    7.5253   10.3159 C   0  0  0  0  0  0  0  0  0  0  0  0
   24.4010    6.9327   11.0544 O   0  0  0  0  0  0  0  0  0  0  0  0
   26.3814    6.4391    9.8181 C   0  0  0  0  0  0  0  0  0  0  0  0
   25.7139    5.2160    9.5996 O   0  0  0  0  0  0  0  0  0  0  0  0
   26.9289    7.0549    8.5116 C   0  0  0  0  0  0  0  0  0  0  0  0
   23.9463    6.2795   10.5000 H   0  0  0  0  0  0  0  0  0  0  0  0
   24.9916    5.3504    8.9663 H   0  0  0  0  0  0  0  0  0  0  0  0
   28.3084    7.5544    8.7511 N   0  0  0  0  0  0  0  0  0  0  0  0
   28.7991    8.8288    8.8680 C   0  0  0  0  0  0  0  0  0  0  0  0
   30.0811    8.8474    9.0817 N   0  0  0  0  0  0  0  0  0  0  0  0
   30.4745    7.5345    9.0973 C   0  0  0  0  0  0  0  0  0  0  0  0
   31.7501    6.9447    9.3182 C   0  0  0  0  0  0  0  0  0  0  0  0
   32.8209    7.5209    9.5017 O   0  0  0  0  0  0  0  0  0  0  0  0
   31.7101    5.5284    9.3375 N   0  0  0  0  0  0  0  0  0  0  0  0
   30.5464    4.8076    9.1299 C   0  0  0  0  0  0  0  0  0  0  0  0
   29.3460    5.3784    8.9506 N   0  0  0  0  0  0  0  0  0  0  0  0
   29.3836    6.7110    8.9381 C   0  0  0  0  0  0  0  0  0  0  0  0
   32.5457    5.0358    9.5057 H   0  0  0  0  0  0  0  0  0  0  0  0
   24.5768    9.6618    9.0422 C   0  0  0  0  0  0  0  0  0  0  0  0
   24.3515   10.2308   10.3379 O   0  0  0  0  0  0  0  0  0  0  0  0
   22.8137   10.4561   10.7378 P   0  0  0  0  0  0  0  0  0  0  0  0
   21.9611   10.7553    9.5454 O   0  0  0  0  0  0  0  0  0  0  0  0
   22.7651   11.6251   11.6698 O   0  0  0  0  0  0  0  0  0  0  0  0
   22.4268    9.1288   11.4305 O   0  0  0  0  0  0  0  0  0  0  0  0
   21.8464   11.7907   11.9332 H   0  0  0  0  0  0  0  0  0  0  0  0
   21.4995    9.1695   11.7123 H   0  0  0  0  0  0  0  0  0  0  0  0
 23 24  2  0  0  0
 23 25  1  0  0  0
 23 26  1  0  0  0
 23 22  1  0  0  0
 22 21  1  0  0  0
 21  1  1  0  0  0
  1  2  1  0  0  0
  1  3  1  0  0  0
  2  7  1  0  0  0
  3  4  1  0  0  0
  3  5  1  0  0  0
  5  6  1  0  0  0
  5  7  1  0  0  0
  7 10  1  0  0  0
 10 11  1  0  0  0
 10 19  1  0  0  0
 11 12  2  0  0  0
 12 13  1  0  0  0
 13 14  1  0  0  0
 13 19  2  0  0  0
 14 15  2  0  0  0
 14 16  1  0  0  0
 16 17  1  0  0  0
 17 18  2  0  0  0
 18 19  1  0  0  0
 25 27  1  0  0  0
 26 28  1  0  0  0
  4  8  1  0  0  0
  6  9  1  0  0  0
 16 20  1  0  0  0
M  END
> <minimizedAffinity>
-9.09583

$$$$
1QK4_IMP_A_300


 28 30  0  0  0  0  0  0  0  0999 V2000
   25.2460    9.2481    8.1405 C   0  0  0  0  0  0  0  0  0  0  0  0
   26.6515    9.0927    8.5284 O   0  0  0  0  0  0  0  0  0  0  0  0
   24.9370    7.9979    7.3275 C   0  0  0  0  0  0  0  0  0  0  0  0
   23.8596    8.1778    6.4184 O   0  0  0  0  0  0  0  0  0  0  0  0
   26.2052    7.7583    6.5467 C   0  0  0  0  0  0  0  0  0  0  0  0
   26.1959    8.3877    5.2845 O   0  0  0  0  0  0  0  0  0  0  0  0
   27.2795    8.3427    7.4903 C   0  0  0  0  0  0  0  0  0  0  0  0
   24.0685    8.9030    5.8090 H   0  0  0  0  0  0  0  0  0  0  0  0
   26.0557    9.3406    5.3994 H   0  0  0  0  0  0  0  0  0  0  0  0
   27.9754    7.2271    8.1838 N   0  0  0  0  0  0  0  0  0  0  0  0
   27.5471    6.3627    9.1575 C   0  0  0  0  0  0  0  0  0  0  0  0
   28.4676    5.5130    9.5041 N   0  0  0  0  0  0  0  0  0  0  0  0
   29.5651    5.8230    8.7440 C   0  0  0  0  0  0  0  0  0  0  0  0
   30.8503    5.2176    8.6692 C   0  0  0  0  0  0  0  0  0  0  0  0
   31.2760    4.2772    9.3375 O   0  0  0  0  0  0  0  0  0  0  0  0
   31.6796    5.7979    7.6776 N   0  0  0  0  0  0  0  0  0  0  0  0
   31.2764    6.8643    6.8921 C   0  0  0  0  0  0  0  0  0  0  0  0
   30.0513    7.4065    6.9550 N   0  0  0  0  0  0  0  0  0  0  0  0
   29.2698    6.8563    7.8845 C   0  0  0  0  0  0  0  0  0  0  0  0
   32.5812    5.4268    7.5413 H   0  0  0  0  0  0  0  0  0  0  0  0
   24.5650    9.5034    9.4636 C   0  0  0  0  0  0  0  0  0  0  0  0
   24.3128    8.3366   10.2563 O   0  0  0  0  0  0  0  0  0  0  0  0
   23.1077    8.4610   11.3086 P   0  0  0  0  0  0  0  0  0  0  0  0
   22.3103    9.7104   11.1046 O   0  0  0  0  0  0  0  0  0  0  0  0
   23.7147    8.4951   12.6753 O   0  0  0  0  0  0  0  0  0  0  0  0
   22.2814    7.1780   11.0585 O   0  0  0  0  0  0  0  0  0  0  0  0
   23.0119    8.5702   13.3395 H   0  0  0  0  0  0  0  0  0  0  0  0
   21.5187    7.1627   11.6576 H   0  0  0  0  0  0  0  0  0  0  0  0
 23 24  2  0  0  0
 23 25  1  0  0  0
 23 26  1  0  0  0
 23 22  1  0  0  0
 22 21  1  0  0  0
 21  1  1  0  0  0
  1  2  1  0  0  0
  1  3  1  0  0  0
  2  7  1  0  0  0
  3  4  1  0  0  0
  3  5  1  0  0  0
  5  6  1  0  0  0
  5  7  1  0  0  0
  7 10  1  0  0  0
 10 11  1  0  0  0
 10 19  1  0  0  0
 11 12  2  0  0  0
 12 13  1  0  0  0
 13 14  1  0  0  0
 13 19  2  0  0  0
 14 15  2  0  0  0
 14 16  1  0  0  0
 16 17  1  0  0  0
 17 18  2  0  0  0
 18 19  1  0  0  0
 25 27  1  0  0  0
 26 28  1  0  0  0
  4  8  1  0  0  0
  6  9  1  0  0  0
 16 20  1  0  0  0
M  END
> <minimizedAffinity>
-8.98791

$$$$
1QK4_IMP_A_300


 28 30  0  0  0  0  0  0  0  0999 V2000
   26.5014    9.2270   12.1671 C   0  0  0  0  0  0  0  0  0  0  0  0
   27.5041    8.5753   11.3187 O   0  0  0  0  0  0  0  0  0  0  0  0
   26.1295   10.4943   11.4088 C   0  0  0  0  0  0  0  0  0  0  0  0
   25.6185   11.5175   12.2522 O   0  0  0  0  0  0  0  0  0  0  0  0
   27.4391   10.9525   10.8168 C   0  0  0  0  0  0  0  0  0  0  0  0
   28.1329   11.8492   11.6557 O   0  0  0  0  0  0  0  0  0  0  0  0
   28.1920    9.6170   10.6285 C   0  0  0  0  0  0  0  0  0  0  0  0
   26.2788   11.7399   12.9272 H   0  0  0  0  0  0  0  0  0  0  0  0
   28.2898   11.4309   12.5167 H   0  0  0  0  0  0  0  0  0  0  0  0
   28.1434    9.2302    9.1940 N   0  0  0  0  0  0  0  0  0  0  0  0
   27.3021    9.6164    8.1832 C   0  0  0  0  0  0  0  0  0  0  0  0
   27.5942    9.0469    7.0519 N   0  0  0  0  0  0  0  0  0  0  0  0
   28.6671    8.2343    7.3109 C   0  0  0  0  0  0  0  0  0  0  0  0
   29.4309    7.3948    6.4531 C   0  0  0  0  0  0  0  0  0  0  0  0
   29.2466    7.1792    5.2566 O   0  0  0  0  0  0  0  0  0  0  0  0
   30.5272    6.7823    7.1095 N   0  0  0  0  0  0  0  0  0  0  0  0
   30.7952    6.9677    8.4551 C   0  0  0  0  0  0  0  0  0  0  0  0
   30.0821    7.7844    9.2446 N   0  0  0  0  0  0  0  0  0  0  0  0
   29.0541    8.3646    8.6249 C   0  0  0  0  0  0  0  0  0  0  0  0
   31.1240    6.2000    6.5862 H   0  0  0  0  0  0  0  0  0  0  0  0
   25.4905    8.1273   12.3871 C   0  0  0  0  0  0  0  0  0  0  0  0
   24.1406    8.5679   12.5796 O   0  0  0  0  0  0  0  0  0  0  0  0
   23.1196    8.2108   11.3941 P   0  0  0  0  0  0  0  0  0  0  0  0
   22.7438    9.4176   10.5936 O   0  0  0  0  0  0  0  0  0  0  0  0
   21.8857    7.6492   12.0264 O   0  0  0  0  0  0  0  0  0  0  0  0
   23.8912    7.1596   10.5629 O   0  0  0  0  0  0  0  0  0  0  0  0
   21.2437    7.4212   11.3359 H   0  0  0  0  0  0  0  0  0  0  0  0
   23.3462    6.8782    9.8114 H   0  0  0  0  0  0  0  0  0  0  0  0
 23 24  2  0  0  0
 23 25  1  0  0  0
 23 26  1  0  0  0
 23 22  1  0  0  0
 22 21  1  0  0  0
 21  1  1  0  0  0
  1  2  1  0  0  0
  1  3  1  0  0  0
  2  7  1  0  0  0
  3  4  1  0  0  0
  3  5  1  0  0  0
  5  6  1  0  0  0
  5  7  1  0  0  0
  7 10  1  0  0  0
 10 11  1  0  0  0
 10 19  1  0  0  0
 11 12  2  0  0  0
 12 13  1  0  0  0
 13 14  1  0  0  0
 13 19  2  0  0  0
 14 15  2  0  0  0
 14 16  1  0  0  0
 16 17  1  0  0  0
 17 18  2  0  0  0
 18 19  1  0  0  0
 25 27  1  0  0  0
 26 28  1  0  0  0
  4  8  1  0  0  0
  6  9  1  0  0  0
 16 20  1  0  0  0
M  END
> <minimizedAffinity>
-8.46811

$$$$
1QK4_IMP_A_300


 28 30  0  0  0  0  0  0  0  0999 V2000
   25.7015    7.7574    8.6479 C   0  0  0  0  0  0  0  0  0  0  0  0
   26.7343    8.5631    7.9890 O   0  0  0  0  0  0  0  0  0  0  0  0
   26.4620    6.9402    9.6838 C   0  0  0  0  0  0  0  0  0  0  0  0
   25.7945    5.7383   10.0435 O   0  0  0  0  0  0  0  0  0  0  0  0
   27.7547    6.5958    8.9867 C   0  0  0  0  0  0  0  0  0  0  0  0
   27.6920    5.3670    8.2972 O   0  0  0  0  0  0  0  0  0  0  0  0
   27.9376    7.7985    8.0349 C   0  0  0  0  0  0  0  0  0  0  0  0
   25.6612    5.1933    9.2523 H   0  0  0  0  0  0  0  0  0  0  0  0
   26.9679    5.3947    7.6523 H   0  0  0  0  0  0  0  0  0  0  0  0
   28.9594    8.7165    8.6034 N   0  0  0  0  0  0  0  0  0  0  0  0
   28.8304    9.8796    9.3168 C   0  0  0  0  0  0  0  0  0  0  0  0
   29.9806   10.3911    9.6409 N   0  0  0  0  0  0  0  0  0  0  0  0
   30.9241    9.5473    9.1151 C   0  0  0  0  0  0  0  0  0  0  0  0
   32.3450    9.5809    9.1771 C   0  0  0  0  0  0  0  0  0  0  0  0
   33.0525   10.4407    9.6991 O   0  0  0  0  0  0  0  0  0  0  0  0
   32.9532    8.4561    8.5667 N   0  0  0  0  0  0  0  0  0  0  0  0
   32.2261    7.4519    7.9504 C   0  0  0  0  0  0  0  0  0  0  0  0
   30.8855    7.4201    7.9245 N   0  0  0  0  0  0  0  0  0  0  0  0
   30.3139    8.4761    8.5038 C   0  0  0  0  0  0  0  0  0  0  0  0
   33.9351    8.3855    8.5816 H   0  0  0  0  0  0  0  0  0  0  0  0
   24.6898    8.7968    9.0671 C   0  0  0  0  0  0  0  0  0  0  0  0
   24.7508    9.1882   10.4443 O   0  0  0  0  0  0  0  0  0  0  0  0
   23.4728    8.7974   11.3328 P   0  0  0  0  0  0  0  0  0  0  0  0
   22.3101    9.7025   11.0733 O   0  0  0  0  0  0  0  0  0  0  0  0
   23.8742    8.9288   12.7678 O   0  0  0  0  0  0  0  0  0  0  0  0
   23.1908    7.3320   10.9276 O   0  0  0  0  0  0  0  0  0  0  0  0
   23.1224    8.6991   13.3362 H   0  0  0  0  0  0  0  0  0  0  0  0
   22.4229    7.0024   11.4201 H   0  0  0  0  0  0  0  0  0  0  0  0
 23 24  2  0  0  0
 23 25  1  0  0  0
 23 26  1  0  0  0
 23 22  1  0  0  0
 22 21  1  0  0  0
 21  1  1  0  0  0
  1  2  1  0  0  0
  1  3  1  0  0  0
  2  7  1  0  0  0
  3  4  1  0  0  0
  3  5  1  0  0  0
  5  6  1  0  0  0
  5  7  1  0  0  0
  7 10  1  0  0  0
 10 11  1  0  0  0
 10 19  1  0  0  0
 11 12  2  0  0  0
 12 13  1  0  0  0
 13 14  1  0  0  0
 13 19  2  0  0  0
 14 15  2  0  0  0
 14 16  1  0  0  0
 16 17  1  0  0  0
 17 18  2  0  0  0
 18 19  1  0  0  0
 25 27  1  0  0  0
 26 28  1  0  0  0
  4  8  1  0  0  0
  6  9  1  0  0  0
 16 20  1  0  0  0
M  END
> <minimizedAffinity>
-8.13874

$$$$
1QK4_IMP_A_300


 28 30  0  0  0  0  0  0  0  0999 V2000
   25.8670   10.1824    9.4373 C   0  0  0  0  0  0  0  0  0  0  0  0
   27.1380    9.5993    9.8785 O   0  0  0  0  0  0  0  0  0  0  0  0
   25.6263    9.5708    8.0635 C   0  0  0  0  0  0  0  0  0  0  0  0
   24.7876   10.3682    7.2388 O   0  0  0  0  0  0  0  0  0  0  0  0
   27.0046    9.5121    7.4533 C   0  0  0  0  0  0  0  0  0  0  0  0
   27.3207   10.6668    6.7076 O   0  0  0  0  0  0  0  0  0  0  0  0
   27.9020    9.3500    8.7000 C   0  0  0  0  0  0  0  0  0  0  0  0
   25.1858   11.2453    7.1248 H   0  0  0  0  0  0  0  0  0  0  0  0
   27.2458   11.4493    7.2760 H   0  0  0  0  0  0  0  0  0  0  0  0
   28.3309    7.9309    8.8084 N   0  0  0  0  0  0  0  0  0  0  0  0
   27.7422    6.8543    9.4192 C   0  0  0  0  0  0  0  0  0  0  0  0
   28.4405    5.7663    9.2840 N   0  0  0  0  0  0  0  0  0  0  0  0
   29.5508    6.1240    8.5645 C   0  0  0  0  0  0  0  0  0  0  0  0
   30.6459    5.3493    8.0909 C   0  0  0  0  0  0  0  0  0  0  0  0
   30.8548    4.1522    8.2800 O   0  0  0  0  0  0  0  0  0  0  0  0
   31.5533    6.0972    7.3004 N   0  0  0  0  0  0  0  0  0  0  0  0
   31.3926    7.4494    7.0502 C   0  0  0  0  0  0  0  0  0  0  0  0
   30.3398    8.1603    7.4805 N   0  0  0  0  0  0  0  0  0  0  0  0
   29.4836    7.4544    8.2195 C   0  0  0  0  0  0  0  0  0  0  0  0
   32.3315    5.6356    6.9125 H   0  0  0  0  0  0  0  0  0  0  0  0
   24.9462    9.8806   10.5952 C   0  0  0  0  0  0  0  0  0  0  0  0
   24.9380    8.5150   11.0295 O   0  0  0  0  0  0  0  0  0  0  0  0
   25.2509    8.2810   12.5859 P   0  0  0  0  0  0  0  0  0  0  0  0
   25.4332    6.8320   12.9108 O   0  0  0  0  0  0  0  0  0  0  0  0
   24.0801    8.8036   13.3565 O   0  0  0  0  0  0  0  0  0  0  0  0
   26.5340    9.1115   12.8209 O   0  0  0  0  0  0  0  0  0  0  0  0
   24.2357    8.6779   14.3057 H   0  0  0  0  0  0  0  0  0  0  0  0
   26.8055    9.0315   13.7487 H   0  0  0  0  0  0  0  0  0  0  0  0
 23 24  2  0  0  0
 23 25  1  0  0  0
 23 26  1  0  0  0
 23 22  1  0  0  0
 22 21  1  0  0  0
 21  1  1  0  0  0
  1  2  1  0  0  0
  1  3  1  0  0  0
  2  7  1  0  0  0
  3  4  1  0  0  0
  3  5  1  0  0  0
  5  6  1  0  0  0
  5  7  1  0  0  0
  7 10  1  0  0  0
 10 11  1  0  0  0
 10 19  1  0  0  0
 11 12  2  0  0  0
 12 13  1  0  0  0
 13 14  1  0  0  0
 13 19  2  0  0  0
 14 15  2  0  0  0
 14 16  1  0  0  0
 16 17  1  0  0  0
 17 18  2  0  0  0
 18 19  1  0  0  0
 25 27  1  0  0  0
 26 28  1  0  0  0
  4  8  1  0  0  0
  6  9  1  0  0  0
 16 20  1  0  0  0
M  END
> <minimizedAffinity>
-8.11533

$$$$
1QK4_IMP_A_300


 28 30  0  0  0  0  0  0  0  0999 V2000
   26.3075   10.3684    8.8052 C   0  0  0  0  0  0  0  0  0  0  0  0
   27.1358    9.3627    9.4777 O   0  0  0  0  0  0  0  0  0  0  0  0
   26.6767   10.2407    7.3333 C   0  0  0  0  0  0  0  0  0  0  0  0
   26.4331   11.4292    6.5934 O   0  0  0  0  0  0  0  0  0  0  0  0
   28.1610    9.9731    7.3602 C   0  0  0  0  0  0  0  0  0  0  0  0
   28.9295   11.1534    7.2860 O   0  0  0  0  0  0  0  0  0  0  0  0
   28.3317    9.2410    8.7096 C   0  0  0  0  0  0  0  0  0  0  0  0
   26.9398   12.1604    6.9802 H   0  0  0  0  0  0  0  0  0  0  0  0
   28.6884   11.7428    8.0177 H   0  0  0  0  0  0  0  0  0  0  0  0
   28.4835    7.7842    8.4558 N   0  0  0  0  0  0  0  0  0  0  0  0
   27.6287    6.8721    7.8937 C   0  0  0  0  0  0  0  0  0  0  0  0
   28.1408    5.6784    7.8460 N   0  0  0  0  0  0  0  0  0  0  0  0
   29.3857    5.7851    8.4094 C   0  0  0  0  0  0  0  0  0  0  0  0
   30.4102    4.8167    8.6003 C   0  0  0  0  0  0  0  0  0  0  0  0
   30.3686    3.6179    8.3293 O   0  0  0  0  0  0  0  0  0  0  0  0
   31.5955    5.3648    9.1502 N   0  0  0  0  0  0  0  0  0  0  0  0
   31.7169    6.7014    9.4903 C   0  0  0  0  0  0  0  0  0  0  0  0
   30.7516    7.6081    9.2785 N   0  0  0  0  0  0  0  0  0  0  0  0
   29.6386    7.0926    8.7559 C   0  0  0  0  0  0  0  0  0  0  0  0
   32.3659    4.7696    9.2967 H   0  0  0  0  0  0  0  0  0  0  0  0
   24.9185   10.0300    9.2909 C   0  0  0  0  0  0  0  0  0  0  0  0
   24.3342   10.9854   10.1849 O   0  0  0  0  0  0  0  0  0  0  0  0
   22.7959   10.7293   10.5636 P   0  0  0  0  0  0  0  0  0  0  0  0
   22.5922    9.3993   11.2178 O   0  0  0  0  0  0  0  0  0  0  0  0
   22.0142   10.7635    9.2887 O   0  0  0  0  0  0  0  0  0  0  0  0
   22.4567   11.9129   11.4993 O   0  0  0  0  0  0  0  0  0  0  0  0
   21.0756   10.6117    9.4808 H   0  0  0  0  0  0  0  0  0  0  0  0
   21.5325   11.8443   11.7854 H   0  0  0  0  0  0  0  0  0  0  0  0
 23 24  2  0  0  0
 23 25  1  0  0  0
 23 26  1  0  0  0
 23 22  1  0  0  0
 22 21  1  0  0  0
 21  1  1  0  0  0
  1  2  1  0  0  0
  1  3  1  0  0  0
  2  7  1  0  0  0
  3  4  1  0  0  0
  3  5  1  0  0  0
  5  6  1  0  0  0
  5  7  1  0  0  0
  7 10  1  0  0  0
 10 11  1  0  0  0
 10 19  1  0  0  0
 11 12  2  0  0  0
 12 13  1  0  0  0
 13 14  1  0  0  0
 13 19  2  0  0  0
 14 15  2  0  0  0
 14 16  1  0  0  0
 16 17  1  0  0  0
 17 18  2  0  0  0
 18 19  1  0  0  0
 25 27  1  0  0  0
 26 28  1  0  0  0
  4  8  1  0  0  0
  6  9  1  0  0  0
 16 20  1  0  0  0
M  END
> <minimizedAffinity>
-7.95160

$$$$
1QK4_IMP_A_300


 28 30  0  0  0  0  0  0  0  0999 V2000
   25.2679    8.3925   10.1129 C   0  0  0  0  0  0  0  0  0  0  0  0
   26.2105    8.5152    8.9965 O   0  0  0  0  0  0  0  0  0  0  0  0
   25.9230    7.3896   11.0534 C   0  0  0  0  0  0  0  0  0  0  0  0
   24.9896    6.7185   11.8887 O   0  0  0  0  0  0  0  0  0  0  0  0
   26.5575    6.3884   10.1205 C   0  0  0  0  0  0  0  0  0  0  0  0
   25.7041    5.3066    9.8190 O   0  0  0  0  0  0  0  0  0  0  0  0
   26.8713    7.2563    8.8818 C   0  0  0  0  0  0  0  0  0  0  0  0
   24.3401    6.2529   11.3390 H   0  0  0  0  0  0  0  0  0  0  0  0
   24.8813    5.6425    9.4304 H   0  0  0  0  0  0  0  0  0  0  0  0
   28.3223    7.5791    8.8701 N   0  0  0  0  0  0  0  0  0  0  0  0
   28.9791    8.7810    8.8178 C   0  0  0  0  0  0  0  0  0  0  0  0
   30.2711    8.6395    8.8304 N   0  0  0  0  0  0  0  0  0  0  0  0
   30.4967    7.2885    8.8805 C   0  0  0  0  0  0  0  0  0  0  0  0
   31.7085    6.5460    8.9452 C   0  0  0  0  0  0  0  0  0  0  0  0
   32.8577    6.9830    8.9201 O   0  0  0  0  0  0  0  0  0  0  0  0
   31.4975    5.1507    9.0729 N   0  0  0  0  0  0  0  0  0  0  0  0
   30.2356    4.5818    9.0990 C   0  0  0  0  0  0  0  0  0  0  0  0
   29.1018    5.2974    9.0651 N   0  0  0  0  0  0  0  0  0  0  0  0
   29.3012    6.6107    8.9505 C   0  0  0  0  0  0  0  0  0  0  0  0
   32.2820    4.5605    9.1462 H   0  0  0  0  0  0  0  0  0  0  0  0
   25.0611    9.8290   10.5293 C   0  0  0  0  0  0  0  0  0  0  0  0
   23.7333   10.3343   10.3421 O   0  0  0  0  0  0  0  0  0  0  0  0
   23.5316   11.3004    9.0767 P   0  0  0  0  0  0  0  0  0  0  0  0
   23.2807   12.7174    9.4859 O   0  0  0  0  0  0  0  0  0  0  0  0
   22.3411   10.7993    8.3222 O   0  0  0  0  0  0  0  0  0  0  0  0
   24.8494   11.1319    8.2852 O   0  0  0  0  0  0  0  0  0  0  0  0
   22.1891   11.3623    7.5471 H   0  0  0  0  0  0  0  0  0  0  0  0
   24.8218   11.6862    7.4897 H   0  0  0  0  0  0  0  0  0  0  0  0
 23 24  2  0  0  0
 23 25  1  0  0  0
 23 26  1  0  0  0
 23 22  1  0  0  0
 22 21  1  0  0  0
 21  1  1  0  0  0
  1  2  1  0  0  0
  1  3  1  0  0  0
  2  7  1  0  0  0
  3  4  1  0  0  0
  3  5  1  0  0  0
  5  6  1  0  0  0
  5  7  1  0  0  0
  7 10  1  0  0  0
 10 11  1  0  0  0
 10 19  1  0  0  0
 11 12  2  0  0  0
 12 13  1  0  0  0
 13 14  1  0  0  0
 13 19  2  0  0  0
 14 15  2  0  0  0
 14 16  1  0  0  0
 16 17  1  0  0  0
 17 18  2  0  0  0
 18 19  1  0  0  0
 25 27  1  0  0  0
 26 28  1  0  0  0
  4  8  1  0  0  0
  6  9  1  0  0  0
 16 20  1  0  0  0
M  END
> <minimizedAffinity>
-7.86107

$$$$
