5TWJ_SAM_C_201


 33 35  0  0  0  0  0  0  0  0999 V2000
    8.5419    5.0152   47.3704 C   0  0  0  0  0  0  0  0  0  0  0  0
    7.1473    5.2697   47.2099 O   0  0  0  0  0  0  0  0  0  0  0  0
    8.5925    3.6607   48.0449 C   0  0  0  0  0  0  0  0  0  0  0  0
    9.7490    3.5116   48.8446 O   0  0  0  0  0  0  0  0  0  0  0  0
    7.3086    3.6196   48.8552 C   0  0  0  0  0  0  0  0  0  0  0  0
    7.4684    4.2999   50.0972 O   0  0  0  0  0  0  0  0  0  0  0  0
    6.3436    4.4546   48.0436 C   0  0  0  0  0  0  0  0  0  0  0  0
    9.7731    4.2146   49.5125 H   0  0  0  0  0  0  0  0  0  0  0  0
    7.7448    5.2148   49.9315 H   0  0  0  0  0  0  0  0  0  0  0  0
    5.4065    3.6176   47.2461 N   0  0  0  0  0  0  0  0  0  0  0  0
    5.3570    3.4973   45.8556 C   0  0  0  0  0  0  0  0  0  0  0  0
    4.3665    2.6375   45.5194 N   0  0  0  0  0  0  0  0  0  0  0  0
    3.7683    2.2118   46.6768 C   0  0  0  0  0  0  0  0  0  0  0  0
    2.7143    1.3409   46.9054 C   0  0  0  0  0  0  0  0  0  0  0  0
    2.0953    0.7620   45.8732 N   0  0  0  0  0  0  0  0  0  0  0  0
    2.3052    1.0777   48.1989 N   0  0  0  0  0  0  0  0  0  0  0  0
    2.9542    1.6887   49.2697 C   0  0  0  0  0  0  0  0  0  0  0  0
    4.0072    2.5561   49.0483 N   0  0  0  0  0  0  0  0  0  0  0  0
    4.4072    2.8122   47.7644 C   0  0  0  0  0  0  0  0  0  0  0  0
    2.3897    0.9521   44.9532 H   0  0  0  0  0  0  0  0  0  0  0  0
    1.3447    0.1452   46.0324 H   0  0  0  0  0  0  0  0  0  0  0  0
    9.3349    5.0813   46.0499 C   0  0  0  0  0  0  0  0  0  0  0  0
    8.5029    5.9021   44.6556 S   0  0  0  0  0  0  0  0  0  0  0  0
    9.6492    7.2521   44.2677 C   0  0  0  0  0  0  0  0  0  0  0  0
    8.6923    4.7766   43.2473 C   0  0  0  0  0  0  0  0  0  0  0  0
    8.5053    5.5247   41.9269 C   0  0  0  0  0  0  0  0  0  0  0  0
   10.9465    5.2865   41.5516 N   0  0  0  0  0  0  0  0  0  0  0  0
    9.6427    5.4124   40.9037 C   0  0  0  0  0  0  0  0  0  0  0  0
   11.6741    5.2145   40.8404 H   0  0  0  0  0  0  0  0  0  0  0  0
   10.9570    4.4496   42.1346 H   0  0  0  0  0  0  0  0  0  0  0  0
    9.6054    6.5710   39.8993 C   0  0  0  0  0  0  0  0  0  0  0  0
   10.6373    6.9824   39.3638 O   0  0  0  0  0  0  0  0  0  0  0  0
    8.5536    7.1341   39.5962 O   0  0  0  0  0  0  0  0  0  0  0  0
 27 28  1  0  0  0
 28 31  1  0  0  0
 28 26  1  0  0  0
 31 32  2  0  0  0
 31 33  1  0  0  0
 26 25  1  0  0  0
 25 23  1  0  0  0
 23 24  1  0  0  0
 23 22  1  0  0  0
 22  1  1  0  0  0
  1  2  1  0  0  0
  1  3  1  0  0  0
  2  7  1  0  0  0
  3  4  1  0  0  0
  3  5  1  0  0  0
  5  6  1  0  0  0
  5  7  1  0  0  0
  7 10  1  0  0  0
 10 11  1  0  0  0
 10 19  1  0  0  0
 11 12  2  0  0  0
 12 13  1  0  0  0
 13 14  1  0  0  0
 13 19  2  0  0  0
 14 15  1  0  0  0
 14 16  2  0  0  0
 16 17  1  0  0  0
 17 18  2  0  0  0
 18 19  1  0  0  0
 27 29  1  0  0  0
 27 30  1  0  0  0
  4  8  1  0  0  0
  6  9  1  0  0  0
 15 20  1  0  0  0
 15 21  1  0  0  0
M  CHG 1  23   1
M  CHG 1  33  -1
M  END
> <minimizedAffinity>
-10.00057

$$$$
5TWJ_SAM_C_201


 33 35  0  0  0  0  0  0  0  0999 V2000
    8.8710    4.2887   47.1553 C   0  0  0  0  0  0  0  0  0  0  0  0
    7.5517    4.7542   46.8753 O   0  0  0  0  0  0  0  0  0  0  0  0
    8.6525    3.0610   48.0138 C   0  0  0  0  0  0  0  0  0  0  0  0
    9.7338    2.8339   48.8960 O   0  0  0  0  0  0  0  0  0  0  0  0
    7.3540    3.3632   48.7413 C   0  0  0  0  0  0  0  0  0  0  0  0
    7.5893    4.1818   49.8839 O   0  0  0  0  0  0  0  0  0  0  0  0
    6.5850    4.2231   47.7635 C   0  0  0  0  0  0  0  0  0  0  0  0
    9.8603    3.6132   49.4596 H   0  0  0  0  0  0  0  0  0  0  0  0
    8.0318    5.0003   49.6097 H   0  0  0  0  0  0  0  0  0  0  0  0
    5.5416    3.4523   47.0343 N   0  0  0  0  0  0  0  0  0  0  0  0
    5.4071    3.3133   45.6511 C   0  0  0  0  0  0  0  0  0  0  0  0
    4.3337    2.5319   45.3857 N   0  0  0  0  0  0  0  0  0  0  0  0
    3.7668    2.1757   46.5817 C   0  0  0  0  0  0  0  0  0  0  0  0
    2.6599    1.3978   46.8838 C   0  0  0  0  0  0  0  0  0  0  0  0
    1.9412    0.8543   45.8982 N   0  0  0  0  0  0  0  0  0  0  0  0
    2.3017    1.1904   48.2024 N   0  0  0  0  0  0  0  0  0  0  0  0
    3.0551    1.7640   49.2244 C   0  0  0  0  0  0  0  0  0  0  0  0
    4.1610    2.5388   48.9296 N   0  0  0  0  0  0  0  0  0  0  0  0
    4.5101    2.7400   47.6213 C   0  0  0  0  0  0  0  0  0  0  0  0
    2.1996    1.0043   44.9601 H   0  0  0  0  0  0  0  0  0  0  0  0
    1.1530    0.3036   46.1096 H   0  0  0  0  0  0  0  0  0  0  0  0
    9.7097    4.0203   45.8897 C   0  0  0  0  0  0  0  0  0  0  0  0
    8.8204    3.2957   44.4776 S   0  0  0  0  0  0  0  0  0  0  0  0
    9.9576    3.6192   43.1031 C   0  0  0  0  0  0  0  0  0  0  0  0
    8.9362    1.5006   44.7011 C   0  0  0  0  0  0  0  0  0  0  0  0
   10.2127    1.1300   45.4569 C   0  0  0  0  0  0  0  0  0  0  0  0
    8.8760   -0.4242   46.8550 N   0  0  0  0  0  0  0  0  0  0  0  0
   10.1859   -0.1799   46.2550 C   0  0  0  0  0  0  0  0  0  0  0  0
    8.8987   -1.3012   47.3754 H   0  0  0  0  0  0  0  0  0  0  0  0
    8.1711   -0.4829   46.1202 H   0  0  0  0  0  0  0  0  0  0  0  0
   11.3147   -0.2238   47.2925 C   0  0  0  0  0  0  0  0  0  0  0  0
   11.1477    0.2134   48.4333 O   0  0  0  0  0  0  0  0  0  0  0  0
   12.4235   -0.6877   47.0266 O   0  0  0  0  0  0  0  0  0  0  0  0
 27 28  1  0  0  0
 28 31  1  0  0  0
 28 26  1  0  0  0
 31 32  2  0  0  0
 31 33  1  0  0  0
 26 25  1  0  0  0
 25 23  1  0  0  0
 23 24  1  0  0  0
 23 22  1  0  0  0
 22  1  1  0  0  0
  1  2  1  0  0  0
  1  3  1  0  0  0
  2  7  1  0  0  0
  3  4  1  0  0  0
  3  5  1  0  0  0
  5  6  1  0  0  0
  5  7  1  0  0  0
  7 10  1  0  0  0
 10 11  1  0  0  0
 10 19  1  0  0  0
 11 12  2  0  0  0
 12 13  1  0  0  0
 13 14  1  0  0  0
 13 19  2  0  0  0
 14 15  1  0  0  0
 14 16  2  0  0  0
 16 17  1  0  0  0
 17 18  2  0  0  0
 18 19  1  0  0  0
 27 29  1  0  0  0
 27 30  1  0  0  0
  4  8  1  0  0  0
  6  9  1  0  0  0
 15 20  1  0  0  0
 15 21  1  0  0  0
M  CHG 1  23   1
M  CHG 1  33  -1
M  END
> <minimizedAffinity>
-9.83846

$$$$
5TWJ_SAM_C_201


 33 35  0  0  0  0  0  0  0  0999 V2000
    9.2224    3.0096   46.6555 C   0  0  0  0  0  0  0  0  0  0  0  0
    8.0695    3.7221   46.2097 O   0  0  0  0  0  0  0  0  0  0  0  0
    8.7086    2.1568   47.7960 C   0  0  0  0  0  0  0  0  0  0  0  0
    9.7166    1.8877   48.7502 O   0  0  0  0  0  0  0  0  0  0  0  0
    7.5646    2.9776   48.3654 C   0  0  0  0  0  0  0  0  0  0  0  0
    8.0494    3.9734   49.2621 O   0  0  0  0  0  0  0  0  0  0  0  0
    7.0248    3.7238   47.1658 C   0  0  0  0  0  0  0  0  0  0  0  0
   10.0672    2.7240   49.0947 H   0  0  0  0  0  0  0  0  0  0  0  0
    8.6874    4.5405   48.8013 H   0  0  0  0  0  0  0  0  0  0  0  0
    5.7887    3.0986   46.6221 N   0  0  0  0  0  0  0  0  0  0  0  0
    5.4543    2.9196   45.2780 C   0  0  0  0  0  0  0  0  0  0  0  0
    4.2480    2.3099   45.1980 N   0  0  0  0  0  0  0  0  0  0  0  0
    3.7948    2.1051   46.4752 C   0  0  0  0  0  0  0  0  0  0  0  0
    2.6306    1.5303   46.9611 C   0  0  0  0  0  0  0  0  0  0  0  0
    1.7139    1.0650   46.1087 N   0  0  0  0  0  0  0  0  0  0  0  0
    2.4208    1.4441   48.3243 N   0  0  0  0  0  0  0  0  0  0  0  0
    3.3809    1.9353   49.2064 C   0  0  0  0  0  0  0  0  0  0  0  0
    4.5446    2.5074   48.7282 N   0  0  0  0  0  0  0  0  0  0  0  0
    4.7459    2.5894   47.3766 C   0  0  0  0  0  0  0  0  0  0  0  0
    1.8670    1.1282   45.1382 H   0  0  0  0  0  0  0  0  0  0  0  0
    0.8849    0.6588   46.4508 H   0  0  0  0  0  0  0  0  0  0  0  0
    9.9156    2.2022   45.5397 C   0  0  0  0  0  0  0  0  0  0  0  0
   10.9028    3.1623   44.3508 S   0  0  0  0  0  0  0  0  0  0  0  0
   12.1206    1.9412   43.7913 C   0  0  0  0  0  0  0  0  0  0  0  0
    9.8367    3.3825   42.9014 C   0  0  0  0  0  0  0  0  0  0  0  0
    9.7632    4.8566   42.5019 C   0  0  0  0  0  0  0  0  0  0  0  0
    7.7235    5.6248   41.3157 N   0  0  0  0  0  0  0  0  0  0  0  0
    8.3908    5.5334   42.6126 C   0  0  0  0  0  0  0  0  0  0  0  0
    6.8175    6.0790   41.4309 H   0  0  0  0  0  0  0  0  0  0  0  0
    7.5884    4.6878   40.9361 H   0  0  0  0  0  0  0  0  0  0  0  0
    8.4962    6.8972   43.3064 C   0  0  0  0  0  0  0  0  0  0  0  0
    8.5272    6.9849   44.5360 O   0  0  0  0  0  0  0  0  0  0  0  0
    8.5473    7.9484   42.6679 O   0  0  0  0  0  0  0  0  0  0  0  0
 27 28  1  0  0  0
 28 31  1  0  0  0
 28 26  1  0  0  0
 31 32  2  0  0  0
 31 33  1  0  0  0
 26 25  1  0  0  0
 25 23  1  0  0  0
 23 24  1  0  0  0
 23 22  1  0  0  0
 22  1  1  0  0  0
  1  2  1  0  0  0
  1  3  1  0  0  0
  2  7  1  0  0  0
  3  4  1  0  0  0
  3  5  1  0  0  0
  5  6  1  0  0  0
  5  7  1  0  0  0
  7 10  1  0  0  0
 10 11  1  0  0  0
 10 19  1  0  0  0
 11 12  2  0  0  0
 12 13  1  0  0  0
 13 14  1  0  0  0
 13 19  2  0  0  0
 14 15  1  0  0  0
 14 16  2  0  0  0
 16 17  1  0  0  0
 17 18  2  0  0  0
 18 19  1  0  0  0
 27 29  1  0  0  0
 27 30  1  0  0  0
  4  8  1  0  0  0
  6  9  1  0  0  0
 15 20  1  0  0  0
 15 21  1  0  0  0
M  CHG 1  23   1
M  CHG 1  33  -1
M  END
> <minimizedAffinity>
-9.09790

$$$$
5TWJ_SAM_C_201


 33 35  0  0  0  0  0  0  0  0999 V2000
    8.8496    4.2120   47.2058 C   0  0  0  0  0  0  0  0  0  0  0  0
    7.5569    4.6994   46.8497 O   0  0  0  0  0  0  0  0  0  0  0  0
    8.5616    3.0595   48.1444 C   0  0  0  0  0  0  0  0  0  0  0  0
    9.6072    2.8626   49.0756 O   0  0  0  0  0  0  0  0  0  0  0  0
    7.2537    3.4585   48.8053 C   0  0  0  0  0  0  0  0  0  0  0  0
    7.4839    4.3515   49.8918 O   0  0  0  0  0  0  0  0  0  0  0  0
    6.5455    4.2686   47.7426 C   0  0  0  0  0  0  0  0  0  0  0  0
    9.7447    3.6770   49.5843 H   0  0  0  0  0  0  0  0  0  0  0  0
    7.9635    5.1320   49.5728 H   0  0  0  0  0  0  0  0  0  0  0  0
    5.4974    3.4811   47.0384 N   0  0  0  0  0  0  0  0  0  0  0  0
    5.3365    3.3339   45.6589 C   0  0  0  0  0  0  0  0  0  0  0  0
    4.2680    2.5375   45.4191 N   0  0  0  0  0  0  0  0  0  0  0  0
    3.7303    2.1798   46.6281 C   0  0  0  0  0  0  0  0  0  0  0  0
    2.6400    1.3892   46.9563 C   0  0  0  0  0  0  0  0  0  0  0  0
    1.9083    0.8320   45.9880 N   0  0  0  0  0  0  0  0  0  0  0  0
    2.3115    1.1835   48.2829 N   0  0  0  0  0  0  0  0  0  0  0  0
    3.0782    1.7715   49.2865 C   0  0  0  0  0  0  0  0  0  0  0  0
    4.1678    2.5589   48.9657 N   0  0  0  0  0  0  0  0  0  0  0  0
    4.4874    2.7584   47.6496 C   0  0  0  0  0  0  0  0  0  0  0  0
    2.1454    0.9809   45.0442 H   0  0  0  0  0  0  0  0  0  0  0  0
    1.1317    0.2723   46.2180 H   0  0  0  0  0  0  0  0  0  0  0  0
    9.7156    3.8221   45.9912 C   0  0  0  0  0  0  0  0  0  0  0  0
    9.8009    2.0464   45.6046 S   0  0  0  0  0  0  0  0  0  0  0  0
    8.2560    1.7789   44.6942 C   0  0  0  0  0  0  0  0  0  0  0  0
   11.0729    1.8897   44.3227 C   0  0  0  0  0  0  0  0  0  0  0  0
   10.4349    1.6733   42.9500 C   0  0  0  0  0  0  0  0  0  0  0  0
   12.3745    2.8852   41.9876 N   0  0  0  0  0  0  0  0  0  0  0  0
   10.9687    2.5344   41.7981 C   0  0  0  0  0  0  0  0  0  0  0  0
   12.6912    3.4559   41.2038 H   0  0  0  0  0  0  0  0  0  0  0  0
   12.9339    2.0337   42.0361 H   0  0  0  0  0  0  0  0  0  0  0  0
   10.0893    3.7707   41.5725 C   0  0  0  0  0  0  0  0  0  0  0  0
    9.5912    4.3792   42.5223 O   0  0  0  0  0  0  0  0  0  0  0  0
    9.8442    4.1961   40.4436 O   0  0  0  0  0  0  0  0  0  0  0  0
 27 28  1  0  0  0
 28 31  1  0  0  0
 28 26  1  0  0  0
 31 32  2  0  0  0
 31 33  1  0  0  0
 26 25  1  0  0  0
 25 23  1  0  0  0
 23 24  1  0  0  0
 23 22  1  0  0  0
 22  1  1  0  0  0
  1  2  1  0  0  0
  1  3  1  0  0  0
  2  7  1  0  0  0
  3  4  1  0  0  0
  3  5  1  0  0  0
  5  6  1  0  0  0
  5  7  1  0  0  0
  7 10  1  0  0  0
 10 11  1  0  0  0
 10 19  1  0  0  0
 11 12  2  0  0  0
 12 13  1  0  0  0
 13 14  1  0  0  0
 13 19  2  0  0  0
 14 15  1  0  0  0
 14 16  2  0  0  0
 16 17  1  0  0  0
 17 18  2  0  0  0
 18 19  1  0  0  0
 27 29  1  0  0  0
 27 30  1  0  0  0
  4  8  1  0  0  0
  6  9  1  0  0  0
 15 20  1  0  0  0
 15 21  1  0  0  0
M  CHG 1  23   1
M  CHG 1  33  -1
M  END
> <minimizedAffinity>
-9.03044

$$$$
5TWJ_SAM_C_201


 33 35  0  0  0  0  0  0  0  0999 V2000
    8.6161    3.8817   45.3807 C   0  0  0  0  0  0  0  0  0  0  0  0
    7.2721    3.4052   45.3368 O   0  0  0  0  0  0  0  0  0  0  0  0
    8.5783    4.9927   46.4085 C   0  0  0  0  0  0  0  0  0  0  0  0
    9.5609    5.9780   46.1579 O   0  0  0  0  0  0  0  0  0  0  0  0
    7.1630    5.5323   46.2958 C   0  0  0  0  0  0  0  0  0  0  0  0
    7.0555    6.4580   45.2177 O   0  0  0  0  0  0  0  0  0  0  0  0
    6.3482    4.3243   45.8911 C   0  0  0  0  0  0  0  0  0  0  0  0
    9.4315    6.3450   45.2695 H   0  0  0  0  0  0  0  0  0  0  0  0
    7.3290    6.0270   44.3929 H   0  0  0  0  0  0  0  0  0  0  0  0
    5.6122    3.7299   47.0399 N   0  0  0  0  0  0  0  0  0  0  0  0
    5.8998    3.8851   48.3978 C   0  0  0  0  0  0  0  0  0  0  0  0
    4.9958    3.1877   49.1255 N   0  0  0  0  0  0  0  0  0  0  0  0
    4.1361    2.5741   48.2520 C   0  0  0  0  0  0  0  0  0  0  0  0
    3.0423    1.7481   48.4595 C   0  0  0  0  0  0  0  0  0  0  0  0
    2.6809    1.4248   49.7039 N   0  0  0  0  0  0  0  0  0  0  0  0
    2.3324    1.2591   47.3793 N   0  0  0  0  0  0  0  0  0  0  0  0
    2.7185    1.5985   46.0844 C   0  0  0  0  0  0  0  0  0  0  0  0
    3.8067    2.4235   45.8711 N   0  0  0  0  0  0  0  0  0  0  0  0
    4.5053    2.9042   46.9458 C   0  0  0  0  0  0  0  0  0  0  0  0
    3.1891    1.7752   50.4708 H   0  0  0  0  0  0  0  0  0  0  0  0
    1.9062    0.8362   49.8543 H   0  0  0  0  0  0  0  0  0  0  0  0
    9.6488    2.7806   45.6942 C   0  0  0  0  0  0  0  0  0  0  0  0
   10.8655    2.4277   44.3885 S   0  0  0  0  0  0  0  0  0  0  0  0
   10.9991    0.6214   44.4688 C   0  0  0  0  0  0  0  0  0  0  0  0
    9.9946    2.7124   42.8244 C   0  0  0  0  0  0  0  0  0  0  0  0
   10.3058    4.1057   42.2768 C   0  0  0  0  0  0  0  0  0  0  0  0
    8.9567    5.1554   40.4781 N   0  0  0  0  0  0  0  0  0  0  0  0
    9.1045    4.9916   41.9227 C   0  0  0  0  0  0  0  0  0  0  0  0
    8.1500    5.7486   40.2840 H   0  0  0  0  0  0  0  0  0  0  0  0
    8.8195    4.2424   40.0447 H   0  0  0  0  0  0  0  0  0  0  0  0
    9.1702    6.3383   42.6539 C   0  0  0  0  0  0  0  0  0  0  0  0
   10.1288    6.6249   43.3746 O   0  0  0  0  0  0  0  0  0  0  0  0
    8.2731    7.1754   42.5549 O   0  0  0  0  0  0  0  0  0  0  0  0
 27 28  1  0  0  0
 28 31  1  0  0  0
 28 26  1  0  0  0
 31 32  2  0  0  0
 31 33  1  0  0  0
 26 25  1  0  0  0
 25 23  1  0  0  0
 23 24  1  0  0  0
 23 22  1  0  0  0
 22  1  1  0  0  0
  1  2  1  0  0  0
  1  3  1  0  0  0
  2  7  1  0  0  0
  3  4  1  0  0  0
  3  5  1  0  0  0
  5  6  1  0  0  0
  5  7  1  0  0  0
  7 10  1  0  0  0
 10 11  1  0  0  0
 10 19  1  0  0  0
 11 12  2  0  0  0
 12 13  1  0  0  0
 13 14  1  0  0  0
 13 19  2  0  0  0
 14 15  1  0  0  0
 14 16  2  0  0  0
 16 17  1  0  0  0
 17 18  2  0  0  0
 18 19  1  0  0  0
 27 29  1  0  0  0
 27 30  1  0  0  0
  4  8  1  0  0  0
  6  9  1  0  0  0
 15 20  1  0  0  0
 15 21  1  0  0  0
M  CHG 1  23   1
M  CHG 1  33  -1
M  END
> <minimizedAffinity>
-8.99715

$$$$
5TWJ_SAM_C_201


 33 35  0  0  0  0  0  0  0  0999 V2000
    8.3088    4.5638   46.2340 C   0  0  0  0  0  0  0  0  0  0  0  0
    9.4573    4.2684   45.4408 O   0  0  0  0  0  0  0  0  0  0  0  0
    7.6886    5.7633   45.5494 C   0  0  0  0  0  0  0  0  0  0  0  0
    6.9769    6.5804   46.4576 O   0  0  0  0  0  0  0  0  0  0  0  0
    8.8796    6.4731   44.9294 C   0  0  0  0  0  0  0  0  0  0  0  0
    9.5369    7.2973   45.8883 O   0  0  0  0  0  0  0  0  0  0  0  0
    9.8431    5.3511   44.6135 C   0  0  0  0  0  0  0  0  0  0  0  0
    7.5734    6.8746   47.1637 H   0  0  0  0  0  0  0  0  0  0  0  0
    9.8111    6.7566   46.6455 H   0  0  0  0  0  0  0  0  0  0  0  0
    9.8159    4.9728   43.1745 N   0  0  0  0  0  0  0  0  0  0  0  0
    9.4015    5.7648   42.1013 C   0  0  0  0  0  0  0  0  0  0  0  0
    9.5309    5.0592   40.9529 N   0  0  0  0  0  0  0  0  0  0  0  0
   10.0119    3.8167   41.2746 C   0  0  0  0  0  0  0  0  0  0  0  0
   10.3203    2.7147   40.4923 C   0  0  0  0  0  0  0  0  0  0  0  0
   10.1455    2.7696   39.1694 N   0  0  0  0  0  0  0  0  0  0  0  0
   10.8034    1.5627   41.0833 N   0  0  0  0  0  0  0  0  0  0  0  0
   10.9794    1.5129   42.4644 C   0  0  0  0  0  0  0  0  0  0  0  0
   10.6760    2.6091   43.2496 N   0  0  0  0  0  0  0  0  0  0  0  0
   10.1979    3.7470   42.6574 C   0  0  0  0  0  0  0  0  0  0  0  0
    9.8011    3.5921   38.7521 H   0  0  0  0  0  0  0  0  0  0  0  0
   10.3610    1.9876   38.6115 H   0  0  0  0  0  0  0  0  0  0  0  0
    7.3452    3.3702   46.3891 C   0  0  0  0  0  0  0  0  0  0  0  0
    6.9506    2.8751   48.0946 S   0  0  0  0  0  0  0  0  0  0  0  0
    8.4399    3.3844   48.9946 C   0  0  0  0  0  0  0  0  0  0  0  0
    5.6960    4.0533   48.6637 C   0  0  0  0  0  0  0  0  0  0  0  0
    4.3559    3.3518   48.8872 C   0  0  0  0  0  0  0  0  0  0  0  0
    3.5651    2.8604   46.5872 N   0  0  0  0  0  0  0  0  0  0  0  0
    3.9618    2.2764   47.8666 C   0  0  0  0  0  0  0  0  0  0  0  0
    3.3113    2.1160   45.9377 H   0  0  0  0  0  0  0  0  0  0  0  0
    4.3428    3.3968   46.2025 H   0  0  0  0  0  0  0  0  0  0  0  0
    2.8883    1.3381   48.4319 C   0  0  0  0  0  0  0  0  0  0  0  0
    2.3094    0.5244   47.7084 O   0  0  0  0  0  0  0  0  0  0  0  0
    2.5617    1.3650   49.6184 O   0  0  0  0  0  0  0  0  0  0  0  0
 27 28  1  0  0  0
 28 31  1  0  0  0
 28 26  1  0  0  0
 31 32  2  0  0  0
 31 33  1  0  0  0
 26 25  1  0  0  0
 25 23  1  0  0  0
 23 24  1  0  0  0
 23 22  1  0  0  0
 22  1  1  0  0  0
  1  2  1  0  0  0
  1  3  1  0  0  0
  2  7  1  0  0  0
  3  4  1  0  0  0
  3  5  1  0  0  0
  5  6  1  0  0  0
  5  7  1  0  0  0
  7 10  1  0  0  0
 10 11  1  0  0  0
 10 19  1  0  0  0
 11 12  2  0  0  0
 12 13  1  0  0  0
 13 14  1  0  0  0
 13 19  2  0  0  0
 14 15  1  0  0  0
 14 16  2  0  0  0
 16 17  1  0  0  0
 17 18  2  0  0  0
 18 19  1  0  0  0
 27 29  1  0  0  0
 27 30  1  0  0  0
  4  8  1  0  0  0
  6  9  1  0  0  0
 15 20  1  0  0  0
 15 21  1  0  0  0
M  CHG 1  23   1
M  CHG 1  33  -1
M  END
> <minimizedAffinity>
-8.53894

$$$$
5TWJ_SAM_C_201


 33 35  0  0  0  0  0  0  0  0999 V2000
    8.3443    5.6396   46.0627 C   0  0  0  0  0  0  0  0  0  0  0  0
    9.2711    4.6438   46.4929 O   0  0  0  0  0  0  0  0  0  0  0  0
    8.2527    5.4334   44.5656 C   0  0  0  0  0  0  0  0  0  0  0  0
    7.9365    6.6320   43.8856 O   0  0  0  0  0  0  0  0  0  0  0  0
    9.6235    4.8931   44.1973 C   0  0  0  0  0  0  0  0  0  0  0  0
   10.5642    5.9526   44.0444 O   0  0  0  0  0  0  0  0  0  0  0  0
   10.0527    4.1292   45.4300 C   0  0  0  0  0  0  0  0  0  0  0  0
    8.6065    7.3041   44.0864 H   0  0  0  0  0  0  0  0  0  0  0  0
   10.6041    6.4703   44.8637 H   0  0  0  0  0  0  0  0  0  0  0  0
    9.8643    2.6610   45.2775 N   0  0  0  0  0  0  0  0  0  0  0  0
    8.7471    1.9101   45.6501 C   0  0  0  0  0  0  0  0  0  0  0  0
    8.9638    0.6094   45.3426 N   0  0  0  0  0  0  0  0  0  0  0  0
   10.2131    0.5109   44.7876 C   0  0  0  0  0  0  0  0  0  0  0  0
   10.9261   -0.5753   44.3044 C   0  0  0  0  0  0  0  0  0  0  0  0
   10.3869   -1.7963   44.3485 N   0  0  0  0  0  0  0  0  0  0  0  0
   12.1927   -0.3922   43.7827 N   0  0  0  0  0  0  0  0  0  0  0  0
   12.7490    0.8845   43.7438 C   0  0  0  0  0  0  0  0  0  0  0  0
   12.0423    1.9718   44.2219 N   0  0  0  0  0  0  0  0  0  0  0  0
   10.7881    1.7831   44.7372 C   0  0  0  0  0  0  0  0  0  0  0  0
    9.4843   -1.9227   44.7209 H   0  0  0  0  0  0  0  0  0  0  0  0
   10.8919   -2.5700   44.0086 H   0  0  0  0  0  0  0  0  0  0  0  0
    6.9837    5.5658   46.7841 C   0  0  0  0  0  0  0  0  0  0  0  0
    6.5926    3.9863   47.5978 S   0  0  0  0  0  0  0  0  0  0  0  0
    5.8792    4.5339   49.1721 C   0  0  0  0  0  0  0  0  0  0  0  0
    5.1644    3.3200   46.7021 C   0  0  0  0  0  0  0  0  0  0  0  0
    4.6583    2.0388   47.3658 C   0  0  0  0  0  0  0  0  0  0  0  0
    3.2400    2.0554   49.4018 N   0  0  0  0  0  0  0  0  0  0  0  0
    3.2364    2.0754   47.9407 C   0  0  0  0  0  0  0  0  0  0  0  0
    2.2797    2.0808   49.7446 H   0  0  0  0  0  0  0  0  0  0  0  0
    3.7475    2.8681   49.7518 H   0  0  0  0  0  0  0  0  0  0  0  0
    2.3670    0.9589   47.3490 C   0  0  0  0  0  0  0  0  0  0  0  0
    2.3125   -0.1534   47.8785 O   0  0  0  0  0  0  0  0  0  0  0  0
    1.7004    1.1270   46.3279 O   0  0  0  0  0  0  0  0  0  0  0  0
 27 28  1  0  0  0
 28 31  1  0  0  0
 28 26  1  0  0  0
 31 32  2  0  0  0
 31 33  1  0  0  0
 26 25  1  0  0  0
 25 23  1  0  0  0
 23 24  1  0  0  0
 23 22  1  0  0  0
 22  1  1  0  0  0
  1  2  1  0  0  0
  1  3  1  0  0  0
  2  7  1  0  0  0
  3  4  1  0  0  0
  3  5  1  0  0  0
  5  6  1  0  0  0
  5  7  1  0  0  0
  7 10  1  0  0  0
 10 11  1  0  0  0
 10 19  1  0  0  0
 11 12  2  0  0  0
 12 13  1  0  0  0
 13 14  1  0  0  0
 13 19  2  0  0  0
 14 15  1  0  0  0
 14 16  2  0  0  0
 16 17  1  0  0  0
 17 18  2  0  0  0
 18 19  1  0  0  0
 27 29  1  0  0  0
 27 30  1  0  0  0
  4  8  1  0  0  0
  6  9  1  0  0  0
 15 20  1  0  0  0
 15 21  1  0  0  0
M  CHG 1  23   1
M  CHG 1  33  -1
M  END
> <minimizedAffinity>
-8.35423

$$$$
5TWJ_SAM_C_201


 33 35  0  0  0  0  0  0  0  0999 V2000
    8.3316    2.3930   47.7046 C   0  0  0  0  0  0  0  0  0  0  0  0
    7.8985    2.3628   46.3455 O   0  0  0  0  0  0  0  0  0  0  0  0
    9.7475    1.8595   47.6505 C   0  0  0  0  0  0  0  0  0  0  0  0
   10.1175    1.2199   48.8559 O   0  0  0  0  0  0  0  0  0  0  0  0
    9.7242    0.9105   46.4650 C   0  0  0  0  0  0  0  0  0  0  0  0
    9.2057   -0.3623   46.8419 O   0  0  0  0  0  0  0  0  0  0  0  0
    8.6985    1.5202   45.5358 C   0  0  0  0  0  0  0  0  0  0  0  0
    9.4985    0.4965   49.0413 H   0  0  0  0  0  0  0  0  0  0  0  0
    8.3172   -0.2518   47.2152 H   0  0  0  0  0  0  0  0  0  0  0  0
    9.3280    2.2763   44.4193 N   0  0  0  0  0  0  0  0  0  0  0  0
   10.0915    1.7556   43.3722 C   0  0  0  0  0  0  0  0  0  0  0  0
   10.4806    2.7673   42.5607 N   0  0  0  0  0  0  0  0  0  0  0  0
    9.9873    3.9361   43.0797 C   0  0  0  0  0  0  0  0  0  0  0  0
   10.0893    5.2513   42.6537 C   0  0  0  0  0  0  0  0  0  0  0  0
   10.7801    5.5395   41.5477 N   0  0  0  0  0  0  0  0  0  0  0  0
    9.4799    6.2596   43.3762 N   0  0  0  0  0  0  0  0  0  0  0  0
    8.7641    5.9504   44.5308 C   0  0  0  0  0  0  0  0  0  0  0  0
    8.6569    4.6408   44.9593 N   0  0  0  0  0  0  0  0  0  0  0  0
    9.2631    3.6471   44.2388 C   0  0  0  0  0  0  0  0  0  0  0  0
   11.2129    4.8185   41.0358 H   0  0  0  0  0  0  0  0  0  0  0  0
   10.8566    6.4730   41.2443 H   0  0  0  0  0  0  0  0  0  0  0  0
    8.2172    3.7860   48.3555 C   0  0  0  0  0  0  0  0  0  0  0  0
    6.5296    4.3813   48.6833 S   0  0  0  0  0  0  0  0  0  0  0  0
    6.1298    5.2603   47.1488 C   0  0  0  0  0  0  0  0  0  0  0  0
    5.4733    2.9100   48.6084 C   0  0  0  0  0  0  0  0  0  0  0  0
    4.3240    3.1179   47.6216 C   0  0  0  0  0  0  0  0  0  0  0  0
    3.6989    2.1895   45.4070 N   0  0  0  0  0  0  0  0  0  0  0  0
    3.8664    1.8880   46.8270 C   0  0  0  0  0  0  0  0  0  0  0  0
    3.3951    1.3495   44.9146 H   0  0  0  0  0  0  0  0  0  0  0  0
    4.5872    2.5080   45.0199 H   0  0  0  0  0  0  0  0  0  0  0  0
    2.6048    1.2665   47.4392 C   0  0  0  0  0  0  0  0  0  0  0  0
    2.5484    0.9939   48.6404 O   0  0  0  0  0  0  0  0  0  0  0  0
    1.6105    1.0126   46.7593 O   0  0  0  0  0  0  0  0  0  0  0  0
 27 28  1  0  0  0
 28 31  1  0  0  0
 28 26  1  0  0  0
 31 32  2  0  0  0
 31 33  1  0  0  0
 26 25  1  0  0  0
 25 23  1  0  0  0
 23 24  1  0  0  0
 23 22  1  0  0  0
 22  1  1  0  0  0
  1  2  1  0  0  0
  1  3  1  0  0  0
  2  7  1  0  0  0
  3  4  1  0  0  0
  3  5  1  0  0  0
  5  6  1  0  0  0
  5  7  1  0  0  0
  7 10  1  0  0  0
 10 11  1  0  0  0
 10 19  1  0  0  0
 11 12  2  0  0  0
 12 13  1  0  0  0
 13 14  1  0  0  0
 13 19  2  0  0  0
 14 15  1  0  0  0
 14 16  2  0  0  0
 16 17  1  0  0  0
 17 18  2  0  0  0
 18 19  1  0  0  0
 27 29  1  0  0  0
 27 30  1  0  0  0
  4  8  1  0  0  0
  6  9  1  0  0  0
 15 20  1  0  0  0
 15 21  1  0  0  0
M  CHG 1  23   1
M  CHG 1  33  -1
M  END
> <minimizedAffinity>
-8.25698

$$$$
5TWJ_SAM_C_201


 33 35  0  0  0  0  0  0  0  0999 V2000
    8.5962    3.5087   45.0888 C   0  0  0  0  0  0  0  0  0  0  0  0
    7.2098    3.1727   45.1107 O   0  0  0  0  0  0  0  0  0  0  0  0
    8.7210    4.6189   46.1106 C   0  0  0  0  0  0  0  0  0  0  0  0
    9.7865    5.4977   45.8085 O   0  0  0  0  0  0  0  0  0  0  0  0
    7.3648    5.3008   46.0611 C   0  0  0  0  0  0  0  0  0  0  0  0
    7.3020    6.2315   44.9837 O   0  0  0  0  0  0  0  0  0  0  0  0
    6.4121    4.1824   45.7022 C   0  0  0  0  0  0  0  0  0  0  0  0
    9.6536    5.8751   44.9248 H   0  0  0  0  0  0  0  0  0  0  0  0
    7.4906    5.7737   44.1496 H   0  0  0  0  0  0  0  0  0  0  0  0
    5.6742    3.6680   46.8877 N   0  0  0  0  0  0  0  0  0  0  0  0
    5.9771    3.8914   48.2327 C   0  0  0  0  0  0  0  0  0  0  0  0
    5.0652    3.2546   49.0048 N   0  0  0  0  0  0  0  0  0  0  0  0
    4.1850    2.6125   48.1731 C   0  0  0  0  0  0  0  0  0  0  0  0
    3.0759    1.8229   48.4344 C   0  0  0  0  0  0  0  0  0  0  0  0
    2.7189    1.5764   49.6975 N   0  0  0  0  0  0  0  0  0  0  0  0
    2.3463    1.2907   47.3883 N   0  0  0  0  0  0  0  0  0  0  0  0
    2.7278    1.5501   46.0737 C   0  0  0  0  0  0  0  0  0  0  0  0
    3.8312    2.3384   45.8068 N   0  0  0  0  0  0  0  0  0  0  0  0
    4.5493    2.8624   46.8479 C   0  0  0  0  0  0  0  0  0  0  0  0
    3.2413    1.9574   50.4399 H   0  0  0  0  0  0  0  0  0  0  0  0
    1.9334    1.0137   49.8861 H   0  0  0  0  0  0  0  0  0  0  0  0
    9.5242    2.3077   45.3602 C   0  0  0  0  0  0  0  0  0  0  0  0
   10.2134    1.4801   43.8940 S   0  0  0  0  0  0  0  0  0  0  0  0
   11.9371    1.2059   44.3849 C   0  0  0  0  0  0  0  0  0  0  0  0
    9.5068   -0.1893   43.9024 C   0  0  0  0  0  0  0  0  0  0  0  0
   10.3143   -1.1147   44.8132 C   0  0  0  0  0  0  0  0  0  0  0  0
    8.7686   -0.9482   46.7472 N   0  0  0  0  0  0  0  0  0  0  0  0
    9.5345   -1.8622   45.9026 C   0  0  0  0  0  0  0  0  0  0  0  0
    8.2658   -1.4815   47.4566 H   0  0  0  0  0  0  0  0  0  0  0  0
    8.1015   -0.4329   46.1729 H   0  0  0  0  0  0  0  0  0  0  0  0
   10.4567   -2.7726   46.7231 C   0  0  0  0  0  0  0  0  0  0  0  0
   10.2311   -2.9999   47.9139 O   0  0  0  0  0  0  0  0  0  0  0  0
   11.4527   -3.3021   46.2302 O   0  0  0  0  0  0  0  0  0  0  0  0
 27 28  1  0  0  0
 28 31  1  0  0  0
 28 26  1  0  0  0
 31 32  2  0  0  0
 31 33  1  0  0  0
 26 25  1  0  0  0
 25 23  1  0  0  0
 23 24  1  0  0  0
 23 22  1  0  0  0
 22  1  1  0  0  0
  1  2  1  0  0  0
  1  3  1  0  0  0
  2  7  1  0  0  0
  3  4  1  0  0  0
  3  5  1  0  0  0
  5  6  1  0  0  0
  5  7  1  0  0  0
  7 10  1  0  0  0
 10 11  1  0  0  0
 10 19  1  0  0  0
 11 12  2  0  0  0
 12 13  1  0  0  0
 13 14  1  0  0  0
 13 19  2  0  0  0
 14 15  1  0  0  0
 14 16  2  0  0  0
 16 17  1  0  0  0
 17 18  2  0  0  0
 18 19  1  0  0  0
 27 29  1  0  0  0
 27 30  1  0  0  0
  4  8  1  0  0  0
  6  9  1  0  0  0
 15 20  1  0  0  0
 15 21  1  0  0  0
M  CHG 1  23   1
M  CHG 1  33  -1
M  END
> <minimizedAffinity>
-8.10425

$$$$
5TWJ_SAM_C_201


 33 35  0  0  0  0  0  0  0  0999 V2000
    8.8079    5.1018   46.2616 C   0  0  0  0  0  0  0  0  0  0  0  0
    9.7847    4.0649   46.1817 O   0  0  0  0  0  0  0  0  0  0  0  0
    8.3215    5.2585   44.8365 C   0  0  0  0  0  0  0  0  0  0  0  0
    7.8744    6.5735   44.5724 O   0  0  0  0  0  0  0  0  0  0  0  0
    9.5313    4.8709   44.0040 C   0  0  0  0  0  0  0  0  0  0  0  0
   10.4304    5.9685   43.8709 O   0  0  0  0  0  0  0  0  0  0  0  0
   10.2450    3.8486   44.8600 C   0  0  0  0  0  0  0  0  0  0  0  0
    8.5935    7.2007   44.7472 H   0  0  0  0  0  0  0  0  0  0  0  0
   10.6990    6.2751   44.7511 H   0  0  0  0  0  0  0  0  0  0  0  0
    9.9793    2.4544   44.4126 N   0  0  0  0  0  0  0  0  0  0  0  0
    9.5118    1.3929   45.1906 C   0  0  0  0  0  0  0  0  0  0  0  0
    9.3987    0.2895   44.4141 N   0  0  0  0  0  0  0  0  0  0  0  0
    9.8001    0.6240   43.1470 C   0  0  0  0  0  0  0  0  0  0  0  0
    9.8848   -0.1178   41.9790 C   0  0  0  0  0  0  0  0  0  0  0  0
    9.5412   -1.4083   41.9855 N   0  0  0  0  0  0  0  0  0  0  0  0
   10.3278    0.4787   40.8137 N   0  0  0  0  0  0  0  0  0  0  0  0
   10.6876    1.8246   40.8166 C   0  0  0  0  0  0  0  0  0  0  0  0
   10.6031    2.5701   41.9774 N   0  0  0  0  0  0  0  0  0  0  0  0
   10.1634    1.9728   43.1281 C   0  0  0  0  0  0  0  0  0  0  0  0
    9.2261   -1.8296   42.8177 H   0  0  0  0  0  0  0  0  0  0  0  0
    9.6029   -1.9383   41.1582 H   0  0  0  0  0  0  0  0  0  0  0  0
    7.6820    4.8090   47.2734 C   0  0  0  0  0  0  0  0  0  0  0  0
    6.8969    3.1726   47.1476 S   0  0  0  0  0  0  0  0  0  0  0  0
    7.8474    2.1998   48.3465 C   0  0  0  0  0  0  0  0  0  0  0  0
    5.2779    3.3491   47.9436 C   0  0  0  0  0  0  0  0  0  0  0  0
    4.2077    2.5764   47.1717 C   0  0  0  0  0  0  0  0  0  0  0  0
    3.2422    1.9587   49.3725 N   0  0  0  0  0  0  0  0  0  0  0  0
    2.9541    2.1657   47.9550 C   0  0  0  0  0  0  0  0  0  0  0  0
    2.3867    1.6878   49.8574 H   0  0  0  0  0  0  0  0  0  0  0  0
    3.6025    2.8234   49.7761 H   0  0  0  0  0  0  0  0  0  0  0  0
    2.2737    0.9471   47.3190 C   0  0  0  0  0  0  0  0  0  0  0  0
    1.6556    1.0458   46.2565 O   0  0  0  0  0  0  0  0  0  0  0  0
    2.3131   -0.1659   47.8434 O   0  0  0  0  0  0  0  0  0  0  0  0
 27 28  1  0  0  0
 28 31  1  0  0  0
 28 26  1  0  0  0
 31 32  2  0  0  0
 31 33  1  0  0  0
 26 25  1  0  0  0
 25 23  1  0  0  0
 23 24  1  0  0  0
 23 22  1  0  0  0
 22  1  1  0  0  0
  1  2  1  0  0  0
  1  3  1  0  0  0
  2  7  1  0  0  0
  3  4  1  0  0  0
  3  5  1  0  0  0
  5  6  1  0  0  0
  5  7  1  0  0  0
  7 10  1  0  0  0
 10 11  1  0  0  0
 10 19  1  0  0  0
 11 12  2  0  0  0
 12 13  1  0  0  0
 13 14  1  0  0  0
 13 19  2  0  0  0
 14 15  1  0  0  0
 14 16  2  0  0  0
 16 17  1  0  0  0
 17 18  2  0  0  0
 18 19  1  0  0  0
 27 29  1  0  0  0
 27 30  1  0  0  0
  4  8  1  0  0  0
  6  9  1  0  0  0
 15 20  1  0  0  0
 15 21  1  0  0  0
M  CHG 1  23   1
M  CHG 1  33  -1
M  END
> <minimizedAffinity>
-8.09656

$$$$
