5G4M_O82_A_1292


 20 22  0  0  0  0  0  0  0  0999 V2000
   90.6445   95.5647  -38.1140 C   0  0  0  0  0  0  0  0  0  0  0  0
   90.5564   96.8312  -38.6380 N   0  0  0  0  0  0  0  0  0  0  0  0
   89.5959   94.8261  -38.6712 C   0  0  0  0  0  0  0  0  0  0  0  0
   88.8771   95.6871  -39.5420 C   0  0  0  0  0  0  0  0  0  0  0  0
   89.4936   96.9383  -39.5017 C   0  0  0  0  0  0  0  0  0  0  0  0
   91.5538   95.0098  -37.2082 C   0  0  0  0  0  0  0  0  0  0  0  0
   91.3689   93.6692  -36.8702 C   0  0  0  0  0  0  0  0  0  0  0  0
   90.3243   92.9250  -37.4049 C   0  0  0  0  0  0  0  0  0  0  0  0
   89.4274   93.4796  -38.3170 C   0  0  0  0  0  0  0  0  0  0  0  0
   89.0338   98.0205  -40.2591 C   0  0  0  0  0  0  0  0  0  0  0  0
   87.9141   97.7965  -41.0625 C   0  0  0  0  0  0  0  0  0  0  0  0
   87.2739   96.5606  -41.1126 C   0  0  0  0  0  0  0  0  0  0  0  0
   87.7506   95.4953  -40.3556 C   0  0  0  0  0  0  0  0  0  0  0  0
   91.4664   97.9141  -38.3140 C   0  0  0  0  0  0  0  0  0  0  0  0
   92.7590   96.8919  -39.9977 F   0  0  0  0  0  0  0  0  0  0  0  0
   92.5721   98.0578  -39.3343 C   0  0  0  0  0  0  0  0  0  0  0  0
   86.0745   96.3433  -41.9756 C   0  0  0  0  0  0  0  0  0  0  0  0
   86.2424   95.2123  -42.9351 N   0  0  0  0  0  0  0  0  0  0  0  0
   87.0845   95.6265  -44.0905 C   0  0  0  0  0  0  0  0  0  0  0  0
   85.3256   94.9223  -43.2753 H   0  0  0  0  0  0  0  0  0  0  0  0
  1  2  1  0  0  0
  1  3  2  0  0  0
  1  6  1  0  0  0
 15 16  1  0  0  0
  2  5  1  0  0  0
  2 14  1  0  0  0
  3  4  1  0  0  0
  3  9  1  0  0  0
 18 17  1  0  0  0
 18 19  1  0  0  0
  4  5  2  0  0  0
  4 13  1  0  0  0
  5 10  1  0  0  0
  6  7  2  0  0  0
  7  8  1  0  0  0
  8  9  2  0  0  0
 10 11  2  0  0  0
 11 12  1  0  0  0
 12 13  2  0  0  0
 12 17  1  0  0  0
 14 16  1  0  0  0
 18 20  1  0  0  0
M  END
> <minimizedAffinity>
-0.00210

$$$$
5G4M_O82_A_1292


 20 22  0  0  0  0  0  0  0  0999 V2000
   93.8378   98.3050  -46.0350 C   0  0  0  0  0  0  0  0  0  0  0  0
   93.3884   99.0388  -47.1054 N   0  0  0  0  0  0  0  0  0  0  0  0
   93.2500   98.8590  -44.8935 C   0  0  0  0  0  0  0  0  0  0  0  0
   92.4375   99.9461  -45.3113 C   0  0  0  0  0  0  0  0  0  0  0  0
   92.5433  100.0427  -46.6993 C   0  0  0  0  0  0  0  0  0  0  0  0
   94.7008   97.2063  -45.9757 C   0  0  0  0  0  0  0  0  0  0  0  0
   94.9631   96.6778  -44.7119 C   0  0  0  0  0  0  0  0  0  0  0  0
   94.3973   97.2248  -43.5665 C   0  0  0  0  0  0  0  0  0  0  0  0
   93.5279   98.3128  -43.6321 C   0  0  0  0  0  0  0  0  0  0  0  0
   91.8541  101.0134  -47.4335 C   0  0  0  0  0  0  0  0  0  0  0  0
   91.0507  101.8974  -46.7106 C   0  0  0  0  0  0  0  0  0  0  0  0
   90.9363  101.8292  -45.3242 C   0  0  0  0  0  0  0  0  0  0  0  0
   91.6260  100.8525  -44.6131 C   0  0  0  0  0  0  0  0  0  0  0  0
   93.7646   98.7867  -48.4840 C   0  0  0  0  0  0  0  0  0  0  0  0
   92.0116   97.2200  -48.3305 F   0  0  0  0  0  0  0  0  0  0  0  0
   92.7429   97.9435  -49.2116 C   0  0  0  0  0  0  0  0  0  0  0  0
   90.0747  102.7877  -44.5694 C   0  0  0  0  0  0  0  0  0  0  0  0
   89.0511  102.1094  -43.7208 N   0  0  0  0  0  0  0  0  0  0  0  0
   87.9115  101.6357  -44.5531 C   0  0  0  0  0  0  0  0  0  0  0  0
   88.7054  102.7673  -43.0222 H   0  0  0  0  0  0  0  0  0  0  0  0
  1  2  1  0  0  0
  1  3  2  0  0  0
  1  6  1  0  0  0
 15 16  1  0  0  0
  2  5  1  0  0  0
  2 14  1  0  0  0
  3  4  1  0  0  0
  3  9  1  0  0  0
 18 17  1  0  0  0
 18 19  1  0  0  0
  4  5  2  0  0  0
  4 13  1  0  0  0
  5 10  1  0  0  0
  6  7  2  0  0  0
  7  8  1  0  0  0
  8  9  2  0  0  0
 10 11  2  0  0  0
 11 12  1  0  0  0
 12 13  2  0  0  0
 12 17  1  0  0  0
 14 16  1  0  0  0
 18 20  1  0  0  0
M  END
> <minimizedAffinity>
-0.00209

$$$$
5G4M_O82_A_1292


 20 22  0  0  0  0  0  0  0  0999 V2000
   93.0585   97.2694  -44.6441 C   0  0  0  0  0  0  0  0  0  0  0  0
   93.8112   96.6302  -43.6894 N   0  0  0  0  0  0  0  0  0  0  0  0
   92.1025   98.0271  -43.9603 C   0  0  0  0  0  0  0  0  0  0  0  0
   92.3036   97.8216  -42.5697 C   0  0  0  0  0  0  0  0  0  0  0  0
   93.3753   96.9401  -42.4242 C   0  0  0  0  0  0  0  0  0  0  0  0
   93.1407   97.2491  -46.0398 C   0  0  0  0  0  0  0  0  0  0  0  0
   92.2128   98.0221  -46.7376 C   0  0  0  0  0  0  0  0  0  0  0  0
   91.2482   98.7703  -46.0735 C   0  0  0  0  0  0  0  0  0  0  0  0
   91.1780   98.7966  -44.6813 C   0  0  0  0  0  0  0  0  0  0  0  0
   93.8409   96.5335  -41.1695 C   0  0  0  0  0  0  0  0  0  0  0  0
   93.1763   97.0473  -40.0542 C   0  0  0  0  0  0  0  0  0  0  0  0
   92.0973   97.9201  -40.1723 C   0  0  0  0  0  0  0  0  0  0  0  0
   91.6533   98.3166  -41.4296 C   0  0  0  0  0  0  0  0  0  0  0  0
   94.9182   95.7394  -43.9838 C   0  0  0  0  0  0  0  0  0  0  0  0
   96.0963   97.7764  -44.0999 F   0  0  0  0  0  0  0  0  0  0  0  0
   96.2537   96.4437  -43.9165 C   0  0  0  0  0  0  0  0  0  0  0  0
   91.3973   98.4549  -38.9661 C   0  0  0  0  0  0  0  0  0  0  0  0
   91.3578   99.9465  -38.9272 N   0  0  0  0  0  0  0  0  0  0  0  0
   92.6716  100.4938  -38.4910 C   0  0  0  0  0  0  0  0  0  0  0  0
   90.6357  100.2458  -38.2720 H   0  0  0  0  0  0  0  0  0  0  0  0
  1  2  1  0  0  0
  1  3  2  0  0  0
  1  6  1  0  0  0
 15 16  1  0  0  0
  2  5  1  0  0  0
  2 14  1  0  0  0
  3  4  1  0  0  0
  3  9  1  0  0  0
 18 17  1  0  0  0
 18 19  1  0  0  0
  4  5  2  0  0  0
  4 13  1  0  0  0
  5 10  1  0  0  0
  6  7  2  0  0  0
  7  8  1  0  0  0
  8  9  2  0  0  0
 10 11  2  0  0  0
 11 12  1  0  0  0
 12 13  2  0  0  0
 12 17  1  0  0  0
 14 16  1  0  0  0
 18 20  1  0  0  0
M  END
> <minimizedAffinity>
-0.00209

$$$$
5G4M_O82_A_1292


 20 22  0  0  0  0  0  0  0  0999 V2000
   88.8779   96.2060  -44.5743 C   0  0  0  0  0  0  0  0  0  0  0  0
   89.5176   95.3843  -45.4699 N   0  0  0  0  0  0  0  0  0  0  0  0
   89.8377   97.1041  -44.0973 C   0  0  0  0  0  0  0  0  0  0  0  0
   91.0701   96.7953  -44.7316 C   0  0  0  0  0  0  0  0  0  0  0  0
   90.8466   95.7124  -45.5828 C   0  0  0  0  0  0  0  0  0  0  0  0
   87.5455   96.2379  -44.1511 C   0  0  0  0  0  0  0  0  0  0  0  0
   87.2047   97.2128  -43.2136 C   0  0  0  0  0  0  0  0  0  0  0  0
   88.1495   98.1043  -42.7198 C   0  0  0  0  0  0  0  0  0  0  0  0
   89.4741   98.0761  -43.1541 C   0  0  0  0  0  0  0  0  0  0  0  0
   91.8630   95.1609  -46.3697 C   0  0  0  0  0  0  0  0  0  0  0  0
   93.1283   95.7414  -46.2620 C   0  0  0  0  0  0  0  0  0  0  0  0
   93.3802   96.8156  -45.4121 C   0  0  0  0  0  0  0  0  0  0  0  0
   92.3540   97.3532  -44.6420 C   0  0  0  0  0  0  0  0  0  0  0  0
   88.8709   94.3069  -46.1956 C   0  0  0  0  0  0  0  0  0  0  0  0
   88.2900   96.0727  -47.6432 F   0  0  0  0  0  0  0  0  0  0  0  0
   88.4396   94.7279  -47.5816 C   0  0  0  0  0  0  0  0  0  0  0  0
   94.7424   97.4193  -45.3085 C   0  0  0  0  0  0  0  0  0  0  0  0
   94.7543   98.8854  -45.5881 N   0  0  0  0  0  0  0  0  0  0  0  0
   94.6795   99.1397  -47.0529 C   0  0  0  0  0  0  0  0  0  0  0  0
   95.6159   99.2897  -45.2212 H   0  0  0  0  0  0  0  0  0  0  0  0
  1  2  1  0  0  0
  1  3  2  0  0  0
  1  6  1  0  0  0
 15 16  1  0  0  0
  2  5  1  0  0  0
  2 14  1  0  0  0
  3  4  1  0  0  0
  3  9  1  0  0  0
 18 17  1  0  0  0
 18 19  1  0  0  0
  4  5  2  0  0  0
  4 13  1  0  0  0
  5 10  1  0  0  0
  6  7  2  0  0  0
  7  8  1  0  0  0
  8  9  2  0  0  0
 10 11  2  0  0  0
 11 12  1  0  0  0
 12 13  2  0  0  0
 12 17  1  0  0  0
 14 16  1  0  0  0
 18 20  1  0  0  0
M  END
> <minimizedAffinity>
-0.00209

$$$$
5G4M_O82_A_1292


 20 22  0  0  0  0  0  0  0  0999 V2000
   89.8831   92.5344  -40.3155 C   0  0  0  0  0  0  0  0  0  0  0  0
   89.9908   91.6646  -41.3730 N   0  0  0  0  0  0  0  0  0  0  0  0
   91.0118   92.3341  -39.5145 C   0  0  0  0  0  0  0  0  0  0  0  0
   91.7968   91.3186  -40.1220 C   0  0  0  0  0  0  0  0  0  0  0  0
   91.1358   90.9113  -41.2814 C   0  0  0  0  0  0  0  0  0  0  0  0
   88.8986   93.4763  -40.0014 C   0  0  0  0  0  0  0  0  0  0  0  0
   89.0845   94.2180  -38.8348 C   0  0  0  0  0  0  0  0  0  0  0  0
   90.1939   94.0219  -38.0211 C   0  0  0  0  0  0  0  0  0  0  0  0
   91.1789   93.0899  -38.3451 C   0  0  0  0  0  0  0  0  0  0  0  0
   91.6514   89.9215  -42.1245 C   0  0  0  0  0  0  0  0  0  0  0  0
   92.8669   89.3456  -41.7502 C   0  0  0  0  0  0  0  0  0  0  0  0
   93.5414   89.7265  -40.5926 C   0  0  0  0  0  0  0  0  0  0  0  0
   93.0142   90.7170  -39.7704 C   0  0  0  0  0  0  0  0  0  0  0  0
   89.0163   91.5548  -42.4425 C   0  0  0  0  0  0  0  0  0  0  0  0
   90.2511   93.3650  -43.3082 F   0  0  0  0  0  0  0  0  0  0  0  0
   89.4045   92.3669  -43.6566 C   0  0  0  0  0  0  0  0  0  0  0  0
   94.8387   89.0944  -40.2078 C   0  0  0  0  0  0  0  0  0  0  0  0
   95.9377   90.0862  -40.0168 N   0  0  0  0  0  0  0  0  0  0  0  0
   96.4703   90.5372  -41.3316 C   0  0  0  0  0  0  0  0  0  0  0  0
   96.6901   89.6539  -39.4807 H   0  0  0  0  0  0  0  0  0  0  0  0
  1  2  1  0  0  0
  1  3  2  0  0  0
  1  6  1  0  0  0
 15 16  1  0  0  0
  2  5  1  0  0  0
  2 14  1  0  0  0
  3  4  1  0  0  0
  3  9  1  0  0  0
 18 17  1  0  0  0
 18 19  1  0  0  0
  4  5  2  0  0  0
  4 13  1  0  0  0
  5 10  1  0  0  0
  6  7  2  0  0  0
  7  8  1  0  0  0
  8  9  2  0  0  0
 10 11  2  0  0  0
 11 12  1  0  0  0
 12 13  2  0  0  0
 12 17  1  0  0  0
 14 16  1  0  0  0
 18 20  1  0  0  0
M  END
> <minimizedAffinity>
-0.00209

$$$$
5G4M_O82_A_1292


 20 22  0  0  0  0  0  0  0  0999 V2000
   94.1293   97.1297  -40.2482 C   0  0  0  0  0  0  0  0  0  0  0  0
   94.3466   96.8568  -41.5766 N   0  0  0  0  0  0  0  0  0  0  0  0
   93.5073   96.0020  -39.7033 C   0  0  0  0  0  0  0  0  0  0  0  0
   93.3571   95.0475  -40.7439 C   0  0  0  0  0  0  0  0  0  0  0  0
   93.8853   95.6062  -41.9083 C   0  0  0  0  0  0  0  0  0  0  0  0
   94.4299   98.2623  -39.4851 C   0  0  0  0  0  0  0  0  0  0  0  0
   94.0740   98.2270  -38.1369 C   0  0  0  0  0  0  0  0  0  0  0  0
   93.4435   97.1193  -37.5831 C   0  0  0  0  0  0  0  0  0  0  0  0
   93.1569   95.9878  -38.3455 C   0  0  0  0  0  0  0  0  0  0  0  0
   93.9019   94.9163  -43.1249 C   0  0  0  0  0  0  0  0  0  0  0  0
   93.3550   93.6316  -43.1281 C   0  0  0  0  0  0  0  0  0  0  0  0
   92.8119   93.0553  -41.9823 C   0  0  0  0  0  0  0  0  0  0  0  0
   92.8102   93.7563  -40.7808 C   0  0  0  0  0  0  0  0  0  0  0  0
   94.9765   97.7755  -42.5067 C   0  0  0  0  0  0  0  0  0  0  0  0
   96.9357   96.8348  -41.5970 F   0  0  0  0  0  0  0  0  0  0  0  0
   96.4526   97.4982  -42.6746 C   0  0  0  0  0  0  0  0  0  0  0  0
   92.2277   91.6809  -42.0083 C   0  0  0  0  0  0  0  0  0  0  0  0
   92.8474   90.7639  -41.0069 N   0  0  0  0  0  0  0  0  0  0  0  0
   94.1721   90.2833  -41.4865 C   0  0  0  0  0  0  0  0  0  0  0  0
   92.2331   89.9629  -40.8604 H   0  0  0  0  0  0  0  0  0  0  0  0
  1  2  1  0  0  0
  1  3  2  0  0  0
  1  6  1  0  0  0
 15 16  1  0  0  0
  2  5  1  0  0  0
  2 14  1  0  0  0
  3  4  1  0  0  0
  3  9  1  0  0  0
 18 17  1  0  0  0
 18 19  1  0  0  0
  4  5  2  0  0  0
  4 13  1  0  0  0
  5 10  1  0  0  0
  6  7  2  0  0  0
  7  8  1  0  0  0
  8  9  2  0  0  0
 10 11  2  0  0  0
 11 12  1  0  0  0
 12 13  2  0  0  0
 12 17  1  0  0  0
 14 16  1  0  0  0
 18 20  1  0  0  0
M  END
> <minimizedAffinity>
-0.00208

$$$$
5G4M_O82_A_1292


 20 22  0  0  0  0  0  0  0  0999 V2000
   92.7838  100.4126  -46.5375 C   0  0  0  0  0  0  0  0  0  0  0  0
   91.7102  100.0788  -45.7486 N   0  0  0  0  0  0  0  0  0  0  0  0
   93.2165   99.2309  -47.1473 C   0  0  0  0  0  0  0  0  0  0  0  0
   92.3724   98.1804  -46.6994 C   0  0  0  0  0  0  0  0  0  0  0  0
   91.4400   98.7339  -45.8212 C   0  0  0  0  0  0  0  0  0  0  0  0
   93.4023  101.6452  -46.7682 C   0  0  0  0  0  0  0  0  0  0  0  0
   94.4908  101.6513  -47.6404 C   0  0  0  0  0  0  0  0  0  0  0  0
   94.9415  100.4836  -48.2442 C   0  0  0  0  0  0  0  0  0  0  0  0
   94.3137   99.2590  -48.0202 C   0  0  0  0  0  0  0  0  0  0  0  0
   90.4493   97.9637  -45.2035 C   0  0  0  0  0  0  0  0  0  0  0  0
   90.4356   96.5994  -45.5003 C   0  0  0  0  0  0  0  0  0  0  0  0
   91.3614   96.0204  -46.3648 C   0  0  0  0  0  0  0  0  0  0  0  0
   92.3355   96.8052  -46.9733 C   0  0  0  0  0  0  0  0  0  0  0  0
   90.9649  101.0259  -44.9405 C   0  0  0  0  0  0  0  0  0  0  0  0
   89.8440  101.3830  -46.9818 F   0  0  0  0  0  0  0  0  0  0  0  0
   89.7200  101.5208  -45.6401 C   0  0  0  0  0  0  0  0  0  0  0  0
   91.3319   94.5577  -46.6655 C   0  0  0  0  0  0  0  0  0  0  0  0
   91.2330   94.2635  -48.1255 N   0  0  0  0  0  0  0  0  0  0  0  0
   89.8377   94.4593  -48.6056 C   0  0  0  0  0  0  0  0  0  0  0  0
   91.5124   93.2968  -48.2923 H   0  0  0  0  0  0  0  0  0  0  0  0
  1  2  1  0  0  0
  1  3  2  0  0  0
  1  6  1  0  0  0
 15 16  1  0  0  0
  2  5  1  0  0  0
  2 14  1  0  0  0
  3  4  1  0  0  0
  3  9  1  0  0  0
 18 17  1  0  0  0
 18 19  1  0  0  0
  4  5  2  0  0  0
  4 13  1  0  0  0
  5 10  1  0  0  0
  6  7  2  0  0  0
  7  8  1  0  0  0
  8  9  2  0  0  0
 10 11  2  0  0  0
 11 12  1  0  0  0
 12 13  2  0  0  0
 12 17  1  0  0  0
 14 16  1  0  0  0
 18 20  1  0  0  0
M  END
> <minimizedAffinity>
-0.00208

$$$$
5G4M_O82_A_1292


 20 22  0  0  0  0  0  0  0  0999 V2000
   88.1758   99.0097  -43.7276 C   0  0  0  0  0  0  0  0  0  0  0  0
   88.3060   99.8745  -42.6686 N   0  0  0  0  0  0  0  0  0  0  0  0
   88.3045   97.7175  -43.2087 C   0  0  0  0  0  0  0  0  0  0  0  0
   88.5171   97.8340  -41.8095 C   0  0  0  0  0  0  0  0  0  0  0  0
   88.5189   99.1934  -41.4949 C   0  0  0  0  0  0  0  0  0  0  0  0
   87.9522   99.2530  -45.0863 C   0  0  0  0  0  0  0  0  0  0  0  0
   87.8670   98.1388  -45.9210 C   0  0  0  0  0  0  0  0  0  0  0  0
   88.0058   96.8488  -45.4232 C   0  0  0  0  0  0  0  0  0  0  0  0
   88.2166   96.6109  -44.0656 C   0  0  0  0  0  0  0  0  0  0  0  0
   88.6965   99.6554  -40.1867 C   0  0  0  0  0  0  0  0  0  0  0  0
   88.8813   98.6883  -39.1967 C   0  0  0  0  0  0  0  0  0  0  0  0
   88.8945   97.3259  -39.4859 C   0  0  0  0  0  0  0  0  0  0  0  0
   88.7103   96.8869  -40.7930 C   0  0  0  0  0  0  0  0  0  0  0  0
   88.2335  101.3195  -42.7806 C   0  0  0  0  0  0  0  0  0  0  0  0
   85.9222  100.8849  -42.6383 F   0  0  0  0  0  0  0  0  0  0  0  0
   86.8553  101.8504  -42.4599 C   0  0  0  0  0  0  0  0  0  0  0  0
   89.0981   96.3076  -38.4124 C   0  0  0  0  0  0  0  0  0  0  0  0
   88.0003   95.2982  -38.3491 N   0  0  0  0  0  0  0  0  0  0  0  0
   86.8034   95.8682  -37.6720 C   0  0  0  0  0  0  0  0  0  0  0  0
   88.3238   94.4832  -37.8281 H   0  0  0  0  0  0  0  0  0  0  0  0
  1  2  1  0  0  0
  1  3  2  0  0  0
  1  6  1  0  0  0
 15 16  1  0  0  0
  2  5  1  0  0  0
  2 14  1  0  0  0
  3  4  1  0  0  0
  3  9  1  0  0  0
 18 17  1  0  0  0
 18 19  1  0  0  0
  4  5  2  0  0  0
  4 13  1  0  0  0
  5 10  1  0  0  0
  6  7  2  0  0  0
  7  8  1  0  0  0
  8  9  2  0  0  0
 10 11  2  0  0  0
 11 12  1  0  0  0
 12 13  2  0  0  0
 12 17  1  0  0  0
 14 16  1  0  0  0
 18 20  1  0  0  0
M  END
> <minimizedAffinity>
-0.00206

$$$$
5G4M_O82_A_1292


 20 22  0  0  0  0  0  0  0  0999 V2000
   95.7623   99.1482  -44.7859 C   0  0  0  0  0  0  0  0  0  0  0  0
   94.6319   99.3661  -45.5351 N   0  0  0  0  0  0  0  0  0  0  0  0
   95.3317   98.8008  -43.5016 C   0  0  0  0  0  0  0  0  0  0  0  0
   93.9117   98.8188  -43.5033 C   0  0  0  0  0  0  0  0  0  0  0  0
   93.4960   99.1798  -44.7855 C   0  0  0  0  0  0  0  0  0  0  0  0
   97.1160   99.2217  -45.1284 C   0  0  0  0  0  0  0  0  0  0  0  0
   98.0377   98.9364  -44.1212 C   0  0  0  0  0  0  0  0  0  0  0  0
   97.6265   98.6024  -42.8365 C   0  0  0  0  0  0  0  0  0  0  0  0
   96.2753   98.5187  -42.5032 C   0  0  0  0  0  0  0  0  0  0  0  0
   92.1442   99.2828  -45.1293 C   0  0  0  0  0  0  0  0  0  0  0  0
   91.2157   99.0126  -44.1221 C   0  0  0  0  0  0  0  0  0  0  0  0
   91.6044   98.6608  -42.8317 C   0  0  0  0  0  0  0  0  0  0  0  0
   92.9543   98.5585  -42.5118 C   0  0  0  0  0  0  0  0  0  0  0  0
   94.6412   99.7492  -46.9347 C   0  0  0  0  0  0  0  0  0  0  0  0
   94.8535   97.4214  -47.2300 F   0  0  0  0  0  0  0  0  0  0  0  0
   94.4741   98.5617  -47.8546 C   0  0  0  0  0  0  0  0  0  0  0  0
   90.5948   98.3801  -41.7674 C   0  0  0  0  0  0  0  0  0  0  0  0
   90.7619   97.0341  -41.1443 N   0  0  0  0  0  0  0  0  0  0  0  0
   90.2147   95.9737  -42.0342 C   0  0  0  0  0  0  0  0  0  0  0  0
   90.2657   97.0131  -40.2534 H   0  0  0  0  0  0  0  0  0  0  0  0
  1  2  1  0  0  0
  1  3  2  0  0  0
  1  6  1  0  0  0
 15 16  1  0  0  0
  2  5  1  0  0  0
  2 14  1  0  0  0
  3  4  1  0  0  0
  3  9  1  0  0  0
 18 17  1  0  0  0
 18 19  1  0  0  0
  4  5  2  0  0  0
  4 13  1  0  0  0
  5 10  1  0  0  0
  6  7  2  0  0  0
  7  8  1  0  0  0
  8  9  2  0  0  0
 10 11  2  0  0  0
 11 12  1  0  0  0
 12 13  2  0  0  0
 12 17  1  0  0  0
 14 16  1  0  0  0
 18 20  1  0  0  0
M  END
> <minimizedAffinity>
-0.00206

$$$$
5G4M_O82_A_1292


 20 22  0  0  0  0  0  0  0  0999 V2000
   94.4774   93.3798  -44.4908 C   0  0  0  0  0  0  0  0  0  0  0  0
   93.5268   93.8365  -43.6108 N   0  0  0  0  0  0  0  0  0  0  0  0
   93.9368   93.5185  -45.7730 C   0  0  0  0  0  0  0  0  0  0  0  0
   92.6353   94.0694  -45.6349 C   0  0  0  0  0  0  0  0  0  0  0  0
   92.3985   94.2557  -44.2725 C   0  0  0  0  0  0  0  0  0  0  0  0
   95.7586   92.8655  -44.2689 C   0  0  0  0  0  0  0  0  0  0  0  0
   96.4883   92.4832  -45.3945 C   0  0  0  0  0  0  0  0  0  0  0  0
   95.9606   92.6023  -46.6745 C   0  0  0  0  0  0  0  0  0  0  0  0
   94.6872   93.1269  -46.8912 C   0  0  0  0  0  0  0  0  0  0  0  0
   91.2011   94.7950  -43.7911 C   0  0  0  0  0  0  0  0  0  0  0  0
   90.2373   95.1374  -44.7416 C   0  0  0  0  0  0  0  0  0  0  0  0
   90.4446   94.9516  -46.1063 C   0  0  0  0  0  0  0  0  0  0  0  0
   91.6450   94.4188  -46.5649 C   0  0  0  0  0  0  0  0  0  0  0  0
   93.6947   93.8650  -42.1697 C   0  0  0  0  0  0  0  0  0  0  0  0
   94.7682   95.9028  -42.6653 F   0  0  0  0  0  0  0  0  0  0  0  0
   94.1522   95.2170  -41.6729 C   0  0  0  0  0  0  0  0  0  0  0  0
   89.3985   95.3206  -47.1065 C   0  0  0  0  0  0  0  0  0  0  0  0
   89.8918   96.2755  -48.1423 N   0  0  0  0  0  0  0  0  0  0  0  0
   89.9525   97.6578  -47.5934 C   0  0  0  0  0  0  0  0  0  0  0  0
   89.2585   96.2597  -48.9417 H   0  0  0  0  0  0  0  0  0  0  0  0
  1  2  1  0  0  0
  1  3  2  0  0  0
  1  6  1  0  0  0
 15 16  1  0  0  0
  2  5  1  0  0  0
  2 14  1  0  0  0
  3  4  1  0  0  0
  3  9  1  0  0  0
 18 17  1  0  0  0
 18 19  1  0  0  0
  4  5  2  0  0  0
  4 13  1  0  0  0
  5 10  1  0  0  0
  6  7  2  0  0  0
  7  8  1  0  0  0
  8  9  2  0  0  0
 10 11  2  0  0  0
 11 12  1  0  0  0
 12 13  2  0  0  0
 12 17  1  0  0  0
 14 16  1  0  0  0
 18 20  1  0  0  0
M  END
> <minimizedAffinity>
-0.00113

$$$$
