3RR4_HRD_A_501


 22 24  0  0  0  0  0  0  0  0999 V2000
   17.3131   17.2765   17.3412 N   0  0  0  0  0  0  0  0  0  0  0  0
   19.2758   17.9057   18.2280 N   0  0  0  0  0  0  0  0  0  0  0  0
   18.5700   17.7148   17.0937 C   0  0  0  0  0  0  0  0  0  0  0  0
   18.4454   17.5687   19.2357 C   0  0  0  0  0  0  0  0  0  0  0  0
   18.6803   17.5896   20.6163 C   0  0  0  0  0  0  0  0  0  0  0  0
   17.6008   17.1929   21.4218 C   0  0  0  0  0  0  0  0  0  0  0  0
   15.5207   16.4318   23.0745 C   0  0  0  0  0  0  0  0  0  0  0  0
   16.3601   16.8107   20.8821 C   0  0  0  0  0  0  0  0  0  0  0  0
   16.1528   16.7970   19.4956 C   0  0  0  0  0  0  0  0  0  0  0  0
   17.2304   17.1925   18.6930 C   0  0  0  0  0  0  0  0  0  0  0  0
   17.6916   17.1937   22.8102 C   0  0  0  0  0  0  0  0  0  0  0  0
   18.8454   17.5536   23.4416 O   0  0  0  0  0  0  0  0  0  0  0  0
   16.6851   16.8143   23.6266 N   0  0  0  0  0  0  0  0  0  0  0  0
   15.3864   16.4315   21.7321 N   0  0  0  0  0  0  0  0  0  0  0  0
   20.2041   18.2247   18.3040 H   0  0  0  0  0  0  0  0  0  0  0  0
   16.8015   16.8178   24.6042 H   0  0  0  0  0  0  0  0  0  0  0  0
   18.1928   18.2407   14.7379 C   0  0  0  0  0  0  0  0  0  0  0  0
   19.0677   17.9349   15.8575 N   0  0  0  0  0  0  0  0  0  0  0  0
   20.0403   17.8872   15.7123 H   0  0  0  0  0  0  0  0  0  0  0  0
   14.5404   16.0747   23.9436 N   0  0  0  0  0  0  0  0  0  0  0  0
   13.9308   14.7607   23.7875 C   0  0  0  0  0  0  0  0  0  0  0  0
   14.2500   16.6860   24.6586 H   0  0  0  0  0  0  0  0  0  0  0  0
  1 10  1  0  0  0
  2  4  1  0  0  0
  3  1  2  0  0  0
  3  2  1  0  0  0
 17 18  1  0  0  0
  4  5  1  0  0  0
  5  6  2  0  0  0
  6 11  1  0  0  0
  7 13  1  0  0  0
  7 20  1  0  0  0
  8  6  1  0  0  0
  8 14  1  0  0  0
  9  8  2  0  0  0
 10  4  2  0  0  0
 10  9  1  0  0  0
 18  3  1  0  0  0
 11 12  2  0  0  0
 11 13  1  0  0  0
 21 20  1  0  0  0
 14  7  2  0  0  0
  2 15  1  0  0  0
 18 19  1  0  0  0
 13 16  1  0  0  0
 20 22  1  0  0  0
M  END
> <minimizedAffinity>
-8.97068

$$$$
3RR4_HRD_A_501


 22 24  0  0  0  0  0  0  0  0999 V2000
   13.9279   16.5205   17.2819 N   0  0  0  0  0  0  0  0  0  0  0  0
   11.9157   16.4625   18.2730 N   0  0  0  0  0  0  0  0  0  0  0  0
   12.5865   16.4817   17.1022 C   0  0  0  0  0  0  0  0  0  0  0  0
   12.8599   16.5002   19.2352 C   0  0  0  0  0  0  0  0  0  0  0  0
   12.7013   16.4949   20.6268 C   0  0  0  0  0  0  0  0  0  0  0  0
   13.8902   16.5241   21.3733 C   0  0  0  0  0  0  0  0  0  0  0  0
   16.1854   16.5735   22.9120 C   0  0  0  0  0  0  0  0  0  0  0  0
   15.1587   16.5452   20.7673 C   0  0  0  0  0  0  0  0  0  0  0  0
   15.2884   16.5520   19.3713 C   0  0  0  0  0  0  0  0  0  0  0  0
   14.1019   16.5231   18.6276 C   0  0  0  0  0  0  0  0  0  0  0  0
   13.8755   16.4954   22.7643 C   0  0  0  0  0  0  0  0  0  0  0  0
   12.7014   16.4665   23.4570 O   0  0  0  0  0  0  0  0  0  0  0  0
   14.9902   16.5292   23.5258 N   0  0  0  0  0  0  0  0  0  0  0  0
   16.2438   16.5872   21.5643 N   0  0  0  0  0  0  0  0  0  0  0  0
   10.9399   16.4281   18.3986 H   0  0  0  0  0  0  0  0  0  0  0  0
   14.9289   16.5216   24.5083 H   0  0  0  0  0  0  0  0  0  0  0  0
   11.9269   15.2535   15.0959 C   0  0  0  0  0  0  0  0  0  0  0  0
   11.9825   16.4668   15.8942 N   0  0  0  0  0  0  0  0  0  0  0  0
   11.5726   17.2924   15.5483 H   0  0  0  0  0  0  0  0  0  0  0  0
   17.2712   16.5917   23.7272 N   0  0  0  0  0  0  0  0  0  0  0  0
   18.4900   17.2176   23.2320 C   0  0  0  0  0  0  0  0  0  0  0  0
   17.2358   16.1935   24.6268 H   0  0  0  0  0  0  0  0  0  0  0  0
  1 10  1  0  0  0
  2  4  1  0  0  0
  3  1  2  0  0  0
  3  2  1  0  0  0
 17 18  1  0  0  0
  4  5  1  0  0  0
  5  6  2  0  0  0
  6 11  1  0  0  0
  7 13  1  0  0  0
  7 20  1  0  0  0
  8  6  1  0  0  0
  8 14  1  0  0  0
  9  8  2  0  0  0
 10  4  2  0  0  0
 10  9  1  0  0  0
 18  3  1  0  0  0
 11 12  2  0  0  0
 11 13  1  0  0  0
 21 20  1  0  0  0
 14  7  2  0  0  0
  2 15  1  0  0  0
 18 19  1  0  0  0
 13 16  1  0  0  0
 20 22  1  0  0  0
M  END
> <minimizedAffinity>
-7.87126

$$$$
3RR4_HRD_A_501


 22 24  0  0  0  0  0  0  0  0999 V2000
   14.4611   15.9903   21.7052 N   0  0  0  0  0  0  0  0  0  0  0  0
   16.0848   16.5058   23.1655 N   0  0  0  0  0  0  0  0  0  0  0  0
   14.8297   16.0360   23.0072 C   0  0  0  0  0  0  0  0  0  0  0  0
   16.5315   16.7793   21.9227 C   0  0  0  0  0  0  0  0  0  0  0  0
   17.7755   17.2847   21.5243 C   0  0  0  0  0  0  0  0  0  0  0  0
   17.9496   17.4475   20.1405 C   0  0  0  0  0  0  0  0  0  0  0  0
   18.3712   17.7896   17.4307 C   0  0  0  0  0  0  0  0  0  0  0  0
   16.9477   17.1147   19.2120 C   0  0  0  0  0  0  0  0  0  0  0  0
   15.7103   16.6123   19.6387 C   0  0  0  0  0  0  0  0  0  0  0  0
   15.5376   16.4507   21.0192 C   0  0  0  0  0  0  0  0  0  0  0  0
   19.1474   17.9153   19.6091 C   0  0  0  0  0  0  0  0  0  0  0  0
   20.1902   18.2612   20.4166 O   0  0  0  0  0  0  0  0  0  0  0  0
   19.3605   18.0956   18.2879 N   0  0  0  0  0  0  0  0  0  0  0  0
   17.1992   17.3184   17.9045 N   0  0  0  0  0  0  0  0  0  0  0  0
   16.5730   16.6242   24.0122 H   0  0  0  0  0  0  0  0  0  0  0  0
   20.2212   18.4433   17.9598 H   0  0  0  0  0  0  0  0  0  0  0  0
   13.6777   14.2658   24.2352 C   0  0  0  0  0  0  0  0  0  0  0  0
   14.0373   15.6597   24.0342 N   0  0  0  0  0  0  0  0  0  0  0  0
   13.6972   16.3416   24.6576 H   0  0  0  0  0  0  0  0  0  0  0  0
   18.6466   17.9776   16.1145 N   0  0  0  0  0  0  0  0  0  0  0  0
   17.5287   18.0439   15.1826 C   0  0  0  0  0  0  0  0  0  0  0  0
   19.5749   18.0666   15.7989 H   0  0  0  0  0  0  0  0  0  0  0  0
  1 10  1  0  0  0
  2  4  1  0  0  0
  3  1  2  0  0  0
  3  2  1  0  0  0
 17 18  1  0  0  0
  4  5  1  0  0  0
  5  6  2  0  0  0
  6 11  1  0  0  0
  7 13  1  0  0  0
  7 20  1  0  0  0
  8  6  1  0  0  0
  8 14  1  0  0  0
  9  8  2  0  0  0
 10  4  2  0  0  0
 10  9  1  0  0  0
 18  3  1  0  0  0
 11 12  2  0  0  0
 11 13  1  0  0  0
 21 20  1  0  0  0
 14  7  2  0  0  0
  2 15  1  0  0  0
 18 19  1  0  0  0
 13 16  1  0  0  0
 20 22  1  0  0  0
M  END
> <minimizedAffinity>
-7.71450

$$$$
3RR4_HRD_A_501


 22 24  0  0  0  0  0  0  0  0999 V2000
   16.8662   17.1731   20.6844 N   0  0  0  0  0  0  0  0  0  0  0  0
   15.0809   16.1274   21.5526 N   0  0  0  0  0  0  0  0  0  0  0  0
   16.2354   16.7753   21.8144 C   0  0  0  0  0  0  0  0  0  0  0  0
   14.9740   16.1010   20.2085 C   0  0  0  0  0  0  0  0  0  0  0  0
   13.9587   15.5516   19.4154 C   0  0  0  0  0  0  0  0  0  0  0  0
   14.1243   15.6995   18.0289 C   0  0  0  0  0  0  0  0  0  0  0  0
   14.3754   15.9566   15.2887 C   0  0  0  0  0  0  0  0  0  0  0  0
   15.2293   16.3654   17.4702 C   0  0  0  0  0  0  0  0  0  0  0  0
   16.2326   16.9045   18.2877 C   0  0  0  0  0  0  0  0  0  0  0  0
   16.0666   16.7560   19.6705 C   0  0  0  0  0  0  0  0  0  0  0  0
   13.1758   15.2236   17.1291 C   0  0  0  0  0  0  0  0  0  0  0  0
   12.0604   14.5684   17.5604 O   0  0  0  0  0  0  0  0  0  0  0  0
   13.2933   15.3349   15.7884 N   0  0  0  0  0  0  0  0  0  0  0  0
   15.3113   16.4462   16.1281 N   0  0  0  0  0  0  0  0  0  0  0  0
   14.4482   15.7520   22.2068 H   0  0  0  0  0  0  0  0  0  0  0  0
   12.6021   14.9690   15.1905 H   0  0  0  0  0  0  0  0  0  0  0  0
   18.1142   17.2446   23.3039 C   0  0  0  0  0  0  0  0  0  0  0  0
   16.7028   16.9951   23.0624 N   0  0  0  0  0  0  0  0  0  0  0  0
   16.0765   16.9862   23.8219 H   0  0  0  0  0  0  0  0  0  0  0  0
   14.4336   16.0515   13.9354 N   0  0  0  0  0  0  0  0  0  0  0  0
   15.7342   16.2777   13.3191 C   0  0  0  0  0  0  0  0  0  0  0  0
   13.6204   15.9698   13.3866 H   0  0  0  0  0  0  0  0  0  0  0  0
  1 10  1  0  0  0
  2  4  1  0  0  0
  3  1  2  0  0  0
  3  2  1  0  0  0
 17 18  1  0  0  0
  4  5  1  0  0  0
  5  6  2  0  0  0
  6 11  1  0  0  0
  7 13  1  0  0  0
  7 20  1  0  0  0
  8  6  1  0  0  0
  8 14  1  0  0  0
  9  8  2  0  0  0
 10  4  2  0  0  0
 10  9  1  0  0  0
 18  3  1  0  0  0
 11 12  2  0  0  0
 11 13  1  0  0  0
 21 20  1  0  0  0
 14  7  2  0  0  0
  2 15  1  0  0  0
 18 19  1  0  0  0
 13 16  1  0  0  0
 20 22  1  0  0  0
M  END
> <minimizedAffinity>
-7.29934

$$$$
3RR4_HRD_A_501


 22 24  0  0  0  0  0  0  0  0999 V2000
   14.5867   15.6690   16.7636 N   0  0  0  0  0  0  0  0  0  0  0  0
   12.7794   16.9814   16.5501 N   0  0  0  0  0  0  0  0  0  0  0  0
   13.7549   16.3068   15.9065 C   0  0  0  0  0  0  0  0  0  0  0  0
   13.0001   16.7766   17.8646 C   0  0  0  0  0  0  0  0  0  0  0  0
   12.2742   17.2500   18.9649 C   0  0  0  0  0  0  0  0  0  0  0  0
   12.7476   16.8463   20.2237 C   0  0  0  0  0  0  0  0  0  0  0  0
   13.6140   16.0889   22.7364 C   0  0  0  0  0  0  0  0  0  0  0  0
   13.8692   16.0119   20.3733 C   0  0  0  0  0  0  0  0  0  0  0  0
   14.5790   15.5539   19.2543 C   0  0  0  0  0  0  0  0  0  0  0  0
   14.1061   15.9574   17.9993 C   0  0  0  0  0  0  0  0  0  0  0  0
   12.1030   17.2238   21.3975 C   0  0  0  0  0  0  0  0  0  0  0  0
   11.0006   18.0257   21.3706 O   0  0  0  0  0  0  0  0  0  0  0  0
   12.5234   16.8677   22.6304 N   0  0  0  0  0  0  0  0  0  0  0  0
   14.2593   15.6883   21.6214 N   0  0  0  0  0  0  0  0  0  0  0  0
   12.0567   17.5128   16.1443 H   0  0  0  0  0  0  0  0  0  0  0  0
   12.0421   17.1717   23.4336 H   0  0  0  0  0  0  0  0  0  0  0  0
   15.0457   15.6793   13.9294 C   0  0  0  0  0  0  0  0  0  0  0  0
   13.8822   16.2781   14.5621 N   0  0  0  0  0  0  0  0  0  0  0  0
   13.1745   16.6697   14.0009 H   0  0  0  0  0  0  0  0  0  0  0  0
   13.9821   15.7512   23.9990 N   0  0  0  0  0  0  0  0  0  0  0  0
   14.0495   14.3359   24.3383 C   0  0  0  0  0  0  0  0  0  0  0  0
   14.1972   16.4427   24.6659 H   0  0  0  0  0  0  0  0  0  0  0  0
  1 10  1  0  0  0
  2  4  1  0  0  0
  3  1  2  0  0  0
  3  2  1  0  0  0
 17 18  1  0  0  0
  4  5  1  0  0  0
  5  6  2  0  0  0
  6 11  1  0  0  0
  7 13  1  0  0  0
  7 20  1  0  0  0
  8  6  1  0  0  0
  8 14  1  0  0  0
  9  8  2  0  0  0
 10  4  2  0  0  0
 10  9  1  0  0  0
 18  3  1  0  0  0
 11 12  2  0  0  0
 11 13  1  0  0  0
 21 20  1  0  0  0
 14  7  2  0  0  0
  2 15  1  0  0  0
 18 19  1  0  0  0
 13 16  1  0  0  0
 20 22  1  0  0  0
M  END
> <minimizedAffinity>
-7.21601

$$$$
3RR4_HRD_A_501


 22 24  0  0  0  0  0  0  0  0999 V2000
   18.4463   17.6712   17.1252 N   0  0  0  0  0  0  0  0  0  0  0  0
   16.8278   17.5699   15.5745 N   0  0  0  0  0  0  0  0  0  0  0  0
   18.1314   17.8206   15.8169 C   0  0  0  0  0  0  0  0  0  0  0  0
   16.2875   17.2589   16.7704 C   0  0  0  0  0  0  0  0  0  0  0  0
   14.9659   16.9111   17.0772 C   0  0  0  0  0  0  0  0  0  0  0  0
   14.7122   16.6221   18.4277 C   0  0  0  0  0  0  0  0  0  0  0  0
   14.1351   16.0322   21.0653 C   0  0  0  0  0  0  0  0  0  0  0  0
   15.7187   16.6662   19.4084 C   0  0  0  0  0  0  0  0  0  0  0  0
   17.0335   17.0197   19.0737 C   0  0  0  0  0  0  0  0  0  0  0  0
   17.2854   17.3080   17.7265 C   0  0  0  0  0  0  0  0  0  0  0  0
   13.4481   16.2369   18.8631 C   0  0  0  0  0  0  0  0  0  0  0  0
   12.3986   16.1529   17.9966 O   0  0  0  0  0  0  0  0  0  0  0  0
   13.1529   15.9562   20.1506 N   0  0  0  0  0  0  0  0  0  0  0  0
   15.3788   16.3874   20.6816 N   0  0  0  0  0  0  0  0  0  0  0  0
   16.3669   17.6064   14.7053 H   0  0  0  0  0  0  0  0  0  0  0  0
   12.2390   15.7016   20.4134 H   0  0  0  0  0  0  0  0  0  0  0  0
   18.5663   18.5771   13.5349 C   0  0  0  0  0  0  0  0  0  0  0  0
   19.0137   18.1814   14.8600 N   0  0  0  0  0  0  0  0  0  0  0  0
   19.9769   18.1762   15.0636 H   0  0  0  0  0  0  0  0  0  0  0  0
   13.7839   15.7258   22.3406 N   0  0  0  0  0  0  0  0  0  0  0  0
   12.9603   16.6787   23.0730 C   0  0  0  0  0  0  0  0  0  0  0  0
   14.0773   14.8840   22.7583 H   0  0  0  0  0  0  0  0  0  0  0  0
  1 10  1  0  0  0
  2  4  1  0  0  0
  3  1  2  0  0  0
  3  2  1  0  0  0
 17 18  1  0  0  0
  4  5  1  0  0  0
  5  6  2  0  0  0
  6 11  1  0  0  0
  7 13  1  0  0  0
  7 20  1  0  0  0
  8  6  1  0  0  0
  8 14  1  0  0  0
  9  8  2  0  0  0
 10  4  2  0  0  0
 10  9  1  0  0  0
 18  3  1  0  0  0
 11 12  2  0  0  0
 11 13  1  0  0  0
 21 20  1  0  0  0
 14  7  2  0  0  0
  2 15  1  0  0  0
 18 19  1  0  0  0
 13 16  1  0  0  0
 20 22  1  0  0  0
M  END
> <minimizedAffinity>
-7.14549

$$$$
3RR4_HRD_A_501


 22 24  0  0  0  0  0  0  0  0999 V2000
   15.5129   16.2827   20.5718 N   0  0  0  0  0  0  0  0  0  0  0  0
   13.2810   16.3819   20.7801 N   0  0  0  0  0  0  0  0  0  0  0  0
   14.4628   16.2994   21.4264 C   0  0  0  0  0  0  0  0  0  0  0  0
   13.5845   16.4091   19.4664 C   0  0  0  0  0  0  0  0  0  0  0  0
   12.7244   16.4951   18.3643 C   0  0  0  0  0  0  0  0  0  0  0  0
   13.3494   16.5200   17.1072 C   0  0  0  0  0  0  0  0  0  0  0  0
   14.5051   16.5811   14.5975 C   0  0  0  0  0  0  0  0  0  0  0  0
   14.7469   16.4741   16.9608 C   0  0  0  0  0  0  0  0  0  0  0  0
   15.5847   16.3862   18.0815 C   0  0  0  0  0  0  0  0  0  0  0  0
   14.9603   16.3610   19.3350 C   0  0  0  0  0  0  0  0  0  0  0  0
   12.6129   16.6306   15.9319 C   0  0  0  0  0  0  0  0  0  0  0  0
   11.2509   16.6903   15.9557 O   0  0  0  0  0  0  0  0  0  0  0  0
   13.1666   16.6513   14.7004 N   0  0  0  0  0  0  0  0  0  0  0  0
   15.2566   16.4885   15.7140 N   0  0  0  0  0  0  0  0  0  0  0  0
   12.3837   16.4154   21.1838 H   0  0  0  0  0  0  0  0  0  0  0  0
   12.6026   16.7163   13.8961 H   0  0  0  0  0  0  0  0  0  0  0  0
   13.5430   16.7763   23.6389 C   0  0  0  0  0  0  0  0  0  0  0  0
   14.5770   16.2379   22.7708 N   0  0  0  0  0  0  0  0  0  0  0  0
   15.3746   15.8210   23.1698 H   0  0  0  0  0  0  0  0  0  0  0  0
   15.0065   16.6202   13.3363 N   0  0  0  0  0  0  0  0  0  0  0  0
   16.4482   16.7551   13.1753 C   0  0  0  0  0  0  0  0  0  0  0  0
   14.4130   16.5592   12.5531 H   0  0  0  0  0  0  0  0  0  0  0  0
  1 10  1  0  0  0
  2  4  1  0  0  0
  3  1  2  0  0  0
  3  2  1  0  0  0
 17 18  1  0  0  0
  4  5  1  0  0  0
  5  6  2  0  0  0
  6 11  1  0  0  0
  7 13  1  0  0  0
  7 20  1  0  0  0
  8  6  1  0  0  0
  8 14  1  0  0  0
  9  8  2  0  0  0
 10  4  2  0  0  0
 10  9  1  0  0  0
 18  3  1  0  0  0
 11 12  2  0  0  0
 11 13  1  0  0  0
 21 20  1  0  0  0
 14  7  2  0  0  0
  2 15  1  0  0  0
 18 19  1  0  0  0
 13 16  1  0  0  0
 20 22  1  0  0  0
M  END
> <minimizedAffinity>
-7.06087

$$$$
3RR4_HRD_A_501


 22 24  0  0  0  0  0  0  0  0999 V2000
   15.1310   16.1703   21.7992 N   0  0  0  0  0  0  0  0  0  0  0  0
   16.9094   17.1386   20.8325 N   0  0  0  0  0  0  0  0  0  0  0  0
   16.3387   16.7512   21.9924 C   0  0  0  0  0  0  0  0  0  0  0  0
   16.0325   16.8031   19.8644 C   0  0  0  0  0  0  0  0  0  0  0  0
   16.1384   16.9797   18.4790 C   0  0  0  0  0  0  0  0  0  0  0  0
   15.0550   16.5055   17.7221 C   0  0  0  0  0  0  0  0  0  0  0  0
   12.9642   15.5912   16.1630 C   0  0  0  0  0  0  0  0  0  0  0  0
   13.9407   15.8829   18.3116 C   0  0  0  0  0  0  0  0  0  0  0  0
   13.8597   15.7208   19.7018 C   0  0  0  0  0  0  0  0  0  0  0  0
   14.9407   16.1944   20.4559 C   0  0  0  0  0  0  0  0  0  0  0  0
   15.0448   16.5939   16.3336 C   0  0  0  0  0  0  0  0  0  0  0  0
   16.0772   17.1720   15.6559 O   0  0  0  0  0  0  0  0  0  0  0  0
   14.0244   16.1597   15.5631 N   0  0  0  0  0  0  0  0  0  0  0  0
   12.9417   15.4724   17.5067 N   0  0  0  0  0  0  0  0  0  0  0  0
   17.7841   17.5754   20.7171 H   0  0  0  0  0  0  0  0  0  0  0  0
   14.0562   16.2572   14.5839 H   0  0  0  0  0  0  0  0  0  0  0  0
   18.3371   17.1780   23.3315 C   0  0  0  0  0  0  0  0  0  0  0  0
   16.9110   16.9284   23.2030 N   0  0  0  0  0  0  0  0  0  0  0  0
   16.3523   16.8879   24.0126 H   0  0  0  0  0  0  0  0  0  0  0  0
   11.9752   15.1609   15.3381 N   0  0  0  0  0  0  0  0  0  0  0  0
   11.1427   16.1624   14.6849 C   0  0  0  0  0  0  0  0  0  0  0  0
   11.8250   14.2000   15.1859 H   0  0  0  0  0  0  0  0  0  0  0  0
  1 10  1  0  0  0
  2  4  1  0  0  0
  3  1  2  0  0  0
  3  2  1  0  0  0
 17 18  1  0  0  0
  4  5  1  0  0  0
  5  6  2  0  0  0
  6 11  1  0  0  0
  7 13  1  0  0  0
  7 20  1  0  0  0
  8  6  1  0  0  0
  8 14  1  0  0  0
  9  8  2  0  0  0
 10  4  2  0  0  0
 10  9  1  0  0  0
 18  3  1  0  0  0
 11 12  2  0  0  0
 11 13  1  0  0  0
 21 20  1  0  0  0
 14  7  2  0  0  0
  2 15  1  0  0  0
 18 19  1  0  0  0
 13 16  1  0  0  0
 20 22  1  0  0  0
M  END
> <minimizedAffinity>
-7.04131

$$$$
3RR4_HRD_A_501


 22 24  0  0  0  0  0  0  0  0999 V2000
   13.8018   15.8489   21.0657 N   0  0  0  0  0  0  0  0  0  0  0  0
   15.8382   16.3407   21.8694 N   0  0  0  0  0  0  0  0  0  0  0  0
   14.5920   15.9142   22.1632 C   0  0  0  0  0  0  0  0  0  0  0  0
   15.8430   16.5655   20.5397 C   0  0  0  0  0  0  0  0  0  0  0  0
   16.8903   17.0138   19.7249 C   0  0  0  0  0  0  0  0  0  0  0  0
   16.5879   17.1345   18.3591 C   0  0  0  0  0  0  0  0  0  0  0  0
   16.0723   17.3911   15.6561 C   0  0  0  0  0  0  0  0  0  0  0  0
   15.3217   16.8156   17.8379 C   0  0  0  0  0  0  0  0  0  0  0  0
   14.2902   16.3708   18.6768 C   0  0  0  0  0  0  0  0  0  0  0  0
   14.5928   16.2511   20.0391 C   0  0  0  0  0  0  0  0  0  0  0  0
   17.5457   17.5435   17.4364 C   0  0  0  0  0  0  0  0  0  0  0  0
   18.8096   17.8709   17.8295 O   0  0  0  0  0  0  0  0  0  0  0  0
   17.3018   17.6819   16.1154 N   0  0  0  0  0  0  0  0  0  0  0  0
   15.1191   16.9763   16.5160 N   0  0  0  0  0  0  0  0  0  0  0  0
   16.5880   16.4625   22.4956 H   0  0  0  0  0  0  0  0  0  0  0  0
   18.0085   17.9888   15.5026 H   0  0  0  0  0  0  0  0  0  0  0  0
   13.9255   14.2144   23.7864 C   0  0  0  0  0  0  0  0  0  0  0  0
   14.1862   15.5941   23.4111 N   0  0  0  0  0  0  0  0  0  0  0  0
   14.0649   16.3079   24.0781 H   0  0  0  0  0  0  0  0  0  0  0  0
   15.8888   17.5350   14.3184 N   0  0  0  0  0  0  0  0  0  0  0  0
   15.6229   16.3390   13.5301 C   0  0  0  0  0  0  0  0  0  0  0  0
   15.9340   18.4219   13.8935 H   0  0  0  0  0  0  0  0  0  0  0  0
  1 10  1  0  0  0
  2  4  1  0  0  0
  3  1  2  0  0  0
  3  2  1  0  0  0
 17 18  1  0  0  0
  4  5  1  0  0  0
  5  6  2  0  0  0
  6 11  1  0  0  0
  7 13  1  0  0  0
  7 20  1  0  0  0
  8  6  1  0  0  0
  8 14  1  0  0  0
  9  8  2  0  0  0
 10  4  2  0  0  0
 10  9  1  0  0  0
 18  3  1  0  0  0
 11 12  2  0  0  0
 11 13  1  0  0  0
 21 20  1  0  0  0
 14  7  2  0  0  0
  2 15  1  0  0  0
 18 19  1  0  0  0
 13 16  1  0  0  0
 20 22  1  0  0  0
M  END
> <minimizedAffinity>
-6.94023

$$$$
3RR4_HRD_A_501


 22 24  0  0  0  0  0  0  0  0999 V2000
   16.9697   16.9072   21.9512 N   0  0  0  0  0  0  0  0  0  0  0  0
   14.9255   16.2690   21.2817 N   0  0  0  0  0  0  0  0  0  0  0  0
   15.7509   16.4573   22.3325 C   0  0  0  0  0  0  0  0  0  0  0  0
   15.6437   16.6004   20.1894 C   0  0  0  0  0  0  0  0  0  0  0  0
   15.2573   16.5891   18.8432 C   0  0  0  0  0  0  0  0  0  0  0  0
   16.2351   17.0098   17.9275 C   0  0  0  0  0  0  0  0  0  0  0  0
   18.1034   17.8314   16.0641 C   0  0  0  0  0  0  0  0  0  0  0  0
   17.5151   17.4272   18.3325 C   0  0  0  0  0  0  0  0  0  0  0  0
   17.8763   17.4266   19.6872 C   0  0  0  0  0  0  0  0  0  0  0  0
   16.9003   17.0065   20.5997 C   0  0  0  0  0  0  0  0  0  0  0  0
   15.9731   17.0720   16.5624 C   0  0  0  0  0  0  0  0  0  0  0  0
   14.7624   16.6984   16.0586 O   0  0  0  0  0  0  0  0  0  0  0  0
   16.8815   17.4622   15.6426 N   0  0  0  0  0  0  0  0  0  0  0  0
   18.3930   17.8002   17.3815 N   0  0  0  0  0  0  0  0  0  0  0  0
   13.9927   15.9550   21.3071 H   0  0  0  0  0  0  0  0  0  0  0  0
   16.6540   17.4761   14.6849 H   0  0  0  0  0  0  0  0  0  0  0  0
   14.1412   15.5614   23.9370 C   0  0  0  0  0  0  0  0  0  0  0  0
   15.3962   16.2194   23.6139 N   0  0  0  0  0  0  0  0  0  0  0  0
   15.9983   16.4966   24.3418 H   0  0  0  0  0  0  0  0  0  0  0  0
   18.9706   18.2274   15.0972 N   0  0  0  0  0  0  0  0  0  0  0  0
   18.4551   18.4112   13.7470 C   0  0  0  0  0  0  0  0  0  0  0  0
   19.9203   18.3858   15.3027 H   0  0  0  0  0  0  0  0  0  0  0  0
  1 10  1  0  0  0
  2  4  1  0  0  0
  3  1  2  0  0  0
  3  2  1  0  0  0
 17 18  1  0  0  0
  4  5  1  0  0  0
  5  6  2  0  0  0
  6 11  1  0  0  0
  7 13  1  0  0  0
  7 20  1  0  0  0
  8  6  1  0  0  0
  8 14  1  0  0  0
  9  8  2  0  0  0
 10  4  2  0  0  0
 10  9  1  0  0  0
 18  3  1  0  0  0
 11 12  2  0  0  0
 11 13  1  0  0  0
 21 20  1  0  0  0
 14  7  2  0  0  0
  2 15  1  0  0  0
 18 19  1  0  0  0
 13 16  1  0  0  0
 20 22  1  0  0  0
M  END
> <minimizedAffinity>
-6.92261

$$$$
