5EHW_5OO_A_303


 14 14  0  0  0  0  0  0  0  0999 V2000
   16.3102    2.4461   14.5422 C   0  0  0  0  0  0  0  0  0  0  0  0
   15.4627    3.4111   15.0529 C   0  0  0  0  0  0  0  0  0  0  0  0
   14.9231    4.7174   14.0355 Cl  0  0  0  0  0  0  0  0  0  0  0  0
   15.0418    3.3462   16.3659 C   0  0  0  0  0  0  0  0  0  0  0  0
   15.4770    2.3078   17.1677 C   0  0  0  0  0  0  0  0  0  0  0  0
   14.9423    2.2328   18.8212 Cl  0  0  0  0  0  0  0  0  0  0  0  0
   16.3176    1.3294   16.6644 C   0  0  0  0  0  0  0  0  0  0  0  0
   16.7334    1.4021   15.3436 C   0  0  0  0  0  0  0  0  0  0  0  0
   16.7407    1.4699   12.2790 C   0  0  0  0  0  0  0  0  0  0  0  0
   16.7379    2.5401   13.0993 C   0  0  0  0  0  0  0  0  0  0  0  0
   16.6664    2.6857   10.2414 O   0  0  0  0  0  0  0  0  0  0  0  0
   17.1773    1.7148   10.8525 C   0  0  0  0  0  0  0  0  0  0  0  0
   17.9918    0.9378   10.3039 O   0  0  0  0  0  0  0  0  0  0  0  0
   16.0598    3.2489   10.6805 H   0  0  0  0  0  0  0  0  0  0  0  0
  6  5  1  0  0  0
  7  5  2  0  0  0
  7  8  1  0  0  0
  5  4  1  0  0  0
  8  1  2  0  0  0
  4  2  2  0  0  0
  1  2  1  0  0  0
  1 10  1  0  0  0
  2  3  1  0  0  0
 10  9  2  0  0  0
  9 12  1  0  0  0
 13 12  2  0  0  0
 12 11  1  0  0  0
 11 14  1  0  0  0
M  END
> <minimizedAffinity>
-6.32013

$$$$
5EHW_5OO_A_303


 14 14  0  0  0  0  0  0  0  0999 V2000
   16.1876    4.7620   14.2441 C   0  0  0  0  0  0  0  0  0  0  0  0
   16.9339    5.2836   13.2043 C   0  0  0  0  0  0  0  0  0  0  0  0
   18.5165    4.6411   12.8655 Cl  0  0  0  0  0  0  0  0  0  0  0  0
   16.4322    6.3123   12.4325 C   0  0  0  0  0  0  0  0  0  0  0  0
   15.1764    6.8188   12.7098 C   0  0  0  0  0  0  0  0  0  0  0  0
   14.5510    8.1150   11.7329 Cl  0  0  0  0  0  0  0  0  0  0  0  0
   14.4151    6.2973   13.7421 C   0  0  0  0  0  0  0  0  0  0  0  0
   14.9268    5.2627   14.5105 C   0  0  0  0  0  0  0  0  0  0  0  0
   16.1841    2.4104   15.0987 C   0  0  0  0  0  0  0  0  0  0  0  0
   16.7607    3.6287   15.0569 C   0  0  0  0  0  0  0  0  0  0  0  0
   17.9268    1.6994   16.5454 O   0  0  0  0  0  0  0  0  0  0  0  0
   16.8780    1.3646   15.9413 C   0  0  0  0  0  0  0  0  0  0  0  0
   16.4276    0.1970   15.9880 O   0  0  0  0  0  0  0  0  0  0  0  0
   18.2378    2.5816   16.4904 H   0  0  0  0  0  0  0  0  0  0  0  0
  6  5  1  0  0  0
  7  5  2  0  0  0
  7  8  1  0  0  0
  5  4  1  0  0  0
  8  1  2  0  0  0
  4  2  2  0  0  0
  1  2  1  0  0  0
  1 10  1  0  0  0
  2  3  1  0  0  0
 10  9  2  0  0  0
  9 12  1  0  0  0
 13 12  2  0  0  0
 12 11  1  0  0  0
 11 14  1  0  0  0
M  END
> <minimizedAffinity>
-6.12363

$$$$
5EHW_5OO_A_303


 14 14  0  0  0  0  0  0  0  0999 V2000
   17.4734    4.5318   14.9230 C   0  0  0  0  0  0  0  0  0  0  0  0
   16.6782    5.6548   15.0521 C   0  0  0  0  0  0  0  0  0  0  0  0
   15.0057    5.4851   15.5064 Cl  0  0  0  0  0  0  0  0  0  0  0  0
   17.2019    6.9111   14.8221 C   0  0  0  0  0  0  0  0  0  0  0  0
   18.5295    7.0370   14.4590 C   0  0  0  0  0  0  0  0  0  0  0  0
   19.1822    8.6234   14.1708 Cl  0  0  0  0  0  0  0  0  0  0  0  0
   19.3389    5.9202   14.3368 C   0  0  0  0  0  0  0  0  0  0  0  0
   18.8042    4.6626   14.5719 C   0  0  0  0  0  0  0  0  0  0  0  0
   17.2837    2.4004   16.2198 C   0  0  0  0  0  0  0  0  0  0  0  0
   16.8722    3.1763   15.1965 C   0  0  0  0  0  0  0  0  0  0  0  0
   15.9823    0.8567   17.4684 O   0  0  0  0  0  0  0  0  0  0  0  0
   16.5793    1.0730   16.3850 C   0  0  0  0  0  0  0  0  0  0  0  0
   16.6373    0.2149   15.4747 O   0  0  0  0  0  0  0  0  0  0  0  0
   15.9570    1.5199   18.1299 H   0  0  0  0  0  0  0  0  0  0  0  0
  6  5  1  0  0  0
  7  5  2  0  0  0
  7  8  1  0  0  0
  5  4  1  0  0  0
  8  1  2  0  0  0
  4  2  2  0  0  0
  1  2  1  0  0  0
  1 10  1  0  0  0
  2  3  1  0  0  0
 10  9  2  0  0  0
  9 12  1  0  0  0
 13 12  2  0  0  0
 12 11  1  0  0  0
 11 14  1  0  0  0
M  END
> <minimizedAffinity>
-6.05900

$$$$
5EHW_5OO_A_303


 14 14  0  0  0  0  0  0  0  0999 V2000
   17.1124    3.0632   14.6433 C   0  0  0  0  0  0  0  0  0  0  0  0
   17.3647    2.7657   13.3173 C   0  0  0  0  0  0  0  0  0  0  0  0
   16.7686    1.2790   12.6339 Cl  0  0  0  0  0  0  0  0  0  0  0  0
   18.0875    3.6402   12.5311 C   0  0  0  0  0  0  0  0  0  0  0  0
   18.5596    4.8167   13.0818 C   0  0  0  0  0  0  0  0  0  0  0  0
   19.4697    5.9136   12.0848 Cl  0  0  0  0  0  0  0  0  0  0  0  0
   18.3043    5.1307   14.4060 C   0  0  0  0  0  0  0  0  0  0  0  0
   17.5756    4.2468   15.1873 C   0  0  0  0  0  0  0  0  0  0  0  0
   15.7760    2.4298   16.6615 C   0  0  0  0  0  0  0  0  0  0  0  0
   16.3067    2.0921   15.4687 C   0  0  0  0  0  0  0  0  0  0  0  0
   15.6094    0.4559   17.9698 O   0  0  0  0  0  0  0  0  0  0  0  0
   14.9768    1.3605   17.3709 C   0  0  0  0  0  0  0  0  0  0  0  0
   13.7258    1.3722   17.3153 O   0  0  0  0  0  0  0  0  0  0  0  0
   16.5459    0.4759   17.9931 H   0  0  0  0  0  0  0  0  0  0  0  0
  6  5  1  0  0  0
  7  5  2  0  0  0
  7  8  1  0  0  0
  5  4  1  0  0  0
  8  1  2  0  0  0
  4  2  2  0  0  0
  1  2  1  0  0  0
  1 10  1  0  0  0
  2  3  1  0  0  0
 10  9  2  0  0  0
  9 12  1  0  0  0
 13 12  2  0  0  0
 12 11  1  0  0  0
 11 14  1  0  0  0
M  END
> <minimizedAffinity>
-5.68441

$$$$
5EHW_5OO_A_303


 14 14  0  0  0  0  0  0  0  0999 V2000
   16.9854    2.6598   14.0514 C   0  0  0  0  0  0  0  0  0  0  0  0
   17.6303    3.8577   13.8078 C   0  0  0  0  0  0  0  0  0  0  0  0
   17.4693    5.1740   14.9365 Cl  0  0  0  0  0  0  0  0  0  0  0  0
   18.4011    4.0175   12.6740 C   0  0  0  0  0  0  0  0  0  0  0  0
   18.5214    2.9689   11.7816 C   0  0  0  0  0  0  0  0  0  0  0  0
   19.4945    3.1779   10.3550 Cl  0  0  0  0  0  0  0  0  0  0  0  0
   17.8887    1.7606   12.0200 C   0  0  0  0  0  0  0  0  0  0  0  0
   17.1182    1.6090   13.1628 C   0  0  0  0  0  0  0  0  0  0  0  0
   16.2608    1.4360   16.1100 C   0  0  0  0  0  0  0  0  0  0  0  0
   16.1638    2.5154   15.3074 C   0  0  0  0  0  0  0  0  0  0  0  0
   15.6046    0.5522   18.2133 O   0  0  0  0  0  0  0  0  0  0  0  0
   15.3893    1.4338   17.3452 C   0  0  0  0  0  0  0  0  0  0  0  0
   14.4616    2.2672   17.4596 O   0  0  0  0  0  0  0  0  0  0  0  0
   16.3072   -0.0570   18.0981 H   0  0  0  0  0  0  0  0  0  0  0  0
  6  5  1  0  0  0
  7  5  2  0  0  0
  7  8  1  0  0  0
  5  4  1  0  0  0
  8  1  2  0  0  0
  4  2  2  0  0  0
  1  2  1  0  0  0
  1 10  1  0  0  0
  2  3  1  0  0  0
 10  9  2  0  0  0
  9 12  1  0  0  0
 13 12  2  0  0  0
 12 11  1  0  0  0
 11 14  1  0  0  0
M  END
> <minimizedAffinity>
-5.61772

$$$$
5EHW_5OO_A_303


 14 14  0  0  0  0  0  0  0  0999 V2000
   17.1518    3.9469   15.3284 C   0  0  0  0  0  0  0  0  0  0  0  0
   15.8480    4.4056   15.3182 C   0  0  0  0  0  0  0  0  0  0  0  0
   15.4713    5.9304   14.5662 Cl  0  0  0  0  0  0  0  0  0  0  0  0
   14.8419    3.6621   15.9017 C   0  0  0  0  0  0  0  0  0  0  0  0
   15.1497    2.4543   16.4991 C   0  0  0  0  0  0  0  0  0  0  0  0
   13.8766    1.5231   17.2324 Cl  0  0  0  0  0  0  0  0  0  0  0  0
   16.4503    1.9793   16.5064 C   0  0  0  0  0  0  0  0  0  0  0  0
   17.4537    2.7324   15.9159 C   0  0  0  0  0  0  0  0  0  0  0  0
   18.6783    4.5103   13.4277 C   0  0  0  0  0  0  0  0  0  0  0  0
   18.2230    4.7779   14.6685 C   0  0  0  0  0  0  0  0  0  0  0  0
   20.8869    4.9630   12.6840 O   0  0  0  0  0  0  0  0  0  0  0  0
   19.7417    5.4377   12.8852 C   0  0  0  0  0  0  0  0  0  0  0  0
   19.4790    6.6463   12.6892 O   0  0  0  0  0  0  0  0  0  0  0  0
   21.0512    4.0538   12.8403 H   0  0  0  0  0  0  0  0  0  0  0  0
  6  5  1  0  0  0
  7  5  2  0  0  0
  7  8  1  0  0  0
  5  4  1  0  0  0
  8  1  2  0  0  0
  4  2  2  0  0  0
  1  2  1  0  0  0
  1 10  1  0  0  0
  2  3  1  0  0  0
 10  9  2  0  0  0
  9 12  1  0  0  0
 13 12  2  0  0  0
 12 11  1  0  0  0
 11 14  1  0  0  0
M  END
> <minimizedAffinity>
-5.58068

$$$$
5EHW_5OO_A_303


 14 14  0  0  0  0  0  0  0  0999 V2000
   16.8538    4.4694   13.8525 C   0  0  0  0  0  0  0  0  0  0  0  0
   15.9852    5.5275   14.0429 C   0  0  0  0  0  0  0  0  0  0  0  0
   15.0835    5.6525   15.5275 Cl  0  0  0  0  0  0  0  0  0  0  0  0
   15.8273    6.4861   13.0623 C   0  0  0  0  0  0  0  0  0  0  0  0
   16.5444    6.3781   11.8857 C   0  0  0  0  0  0  0  0  0  0  0  0
   16.3401    7.5899   10.6547 Cl  0  0  0  0  0  0  0  0  0  0  0  0
   17.4254    5.3284   11.6877 C   0  0  0  0  0  0  0  0  0  0  0  0
   17.5787    4.3715   12.6793 C   0  0  0  0  0  0  0  0  0  0  0  0
   16.4687    2.2173   14.8723 C   0  0  0  0  0  0  0  0  0  0  0  0
   17.0126    3.4487   14.9509 C   0  0  0  0  0  0  0  0  0  0  0  0
   17.8533    1.3361   16.5875 O   0  0  0  0  0  0  0  0  0  0  0  0
   16.7240    1.2917   16.0400 C   0  0  0  0  0  0  0  0  0  0  0  0
   15.8386    0.4854   16.4063 O   0  0  0  0  0  0  0  0  0  0  0  0
   18.4944    1.9512   16.2899 H   0  0  0  0  0  0  0  0  0  0  0  0
  6  5  1  0  0  0
  7  5  2  0  0  0
  7  8  1  0  0  0
  5  4  1  0  0  0
  8  1  2  0  0  0
  4  2  2  0  0  0
  1  2  1  0  0  0
  1 10  1  0  0  0
  2  3  1  0  0  0
 10  9  2  0  0  0
  9 12  1  0  0  0
 13 12  2  0  0  0
 12 11  1  0  0  0
 11 14  1  0  0  0
M  END
> <minimizedAffinity>
-5.57529

$$$$
5EHW_5OO_A_303


 14 14  0  0  0  0  0  0  0  0999 V2000
   16.4670    2.5778   12.7992 C   0  0  0  0  0  0  0  0  0  0  0  0
   16.9060    1.6551   13.7298 C   0  0  0  0  0  0  0  0  0  0  0  0
   17.0531    2.1143   15.4032 Cl  0  0  0  0  0  0  0  0  0  0  0  0
   17.2298    0.3709   13.3405 C   0  0  0  0  0  0  0  0  0  0  0  0
   17.1131    0.0152   12.0100 C   0  0  0  0  0  0  0  0  0  0  0  0
   17.5229   -1.6048   11.5271 Cl  0  0  0  0  0  0  0  0  0  0  0  0
   16.6643    0.9277   11.0702 C   0  0  0  0  0  0  0  0  0  0  0  0
   16.3396    2.2147   11.4713 C   0  0  0  0  0  0  0  0  0  0  0  0
   14.9633    4.2309   13.9247 C   0  0  0  0  0  0  0  0  0  0  0  0
   16.1078    3.9671   13.2621 C   0  0  0  0  0  0  0  0  0  0  0  0
   14.1040    6.4139   13.5616 O   0  0  0  0  0  0  0  0  0  0  0  0
   14.7422    5.6665   14.3435 C   0  0  0  0  0  0  0  0  0  0  0  0
   15.2243    6.0870   15.4200 O   0  0  0  0  0  0  0  0  0  0  0  0
   13.7557    6.0685   12.7632 H   0  0  0  0  0  0  0  0  0  0  0  0
  6  5  1  0  0  0
  7  5  2  0  0  0
  7  8  1  0  0  0
  5  4  1  0  0  0
  8  1  2  0  0  0
  4  2  2  0  0  0
  1  2  1  0  0  0
  1 10  1  0  0  0
  2  3  1  0  0  0
 10  9  2  0  0  0
  9 12  1  0  0  0
 13 12  2  0  0  0
 12 11  1  0  0  0
 11 14  1  0  0  0
M  END
> <minimizedAffinity>
-5.34599

$$$$
5EHW_5OO_A_303


 14 14  0  0  0  0  0  0  0  0999 V2000
   16.5672    2.4419   13.9300 C   0  0  0  0  0  0  0  0  0  0  0  0
   16.4018    1.8355   15.1609 C   0  0  0  0  0  0  0  0  0  0  0  0
   17.1105    0.2732   15.4599 Cl  0  0  0  0  0  0  0  0  0  0  0  0
   15.6768    2.4609   16.1552 C   0  0  0  0  0  0  0  0  0  0  0  0
   15.1150    3.6995   15.9090 C   0  0  0  0  0  0  0  0  0  0  0  0
   14.2028    4.4813   17.1669 Cl  0  0  0  0  0  0  0  0  0  0  0  0
   15.2827    4.3217   14.6834 C   0  0  0  0  0  0  0  0  0  0  0  0
   16.0144    3.6865   13.6915 C   0  0  0  0  0  0  0  0  0  0  0  0
   16.8266    0.8575   12.0109 C   0  0  0  0  0  0  0  0  0  0  0  0
   17.3778    1.7368   12.8720 C   0  0  0  0  0  0  0  0  0  0  0  0
   17.9746   -0.9949   11.0695 O   0  0  0  0  0  0  0  0  0  0  0  0
   17.7559    0.2393   10.9914 C   0  0  0  0  0  0  0  0  0  0  0  0
   18.3117    0.9600   10.1312 O   0  0  0  0  0  0  0  0  0  0  0  0
   17.5426   -1.5067   11.7248 H   0  0  0  0  0  0  0  0  0  0  0  0
  6  5  1  0  0  0
  7  5  2  0  0  0
  7  8  1  0  0  0
  5  4  1  0  0  0
  8  1  2  0  0  0
  4  2  2  0  0  0
  1  2  1  0  0  0
  1 10  1  0  0  0
  2  3  1  0  0  0
 10  9  2  0  0  0
  9 12  1  0  0  0
 13 12  2  0  0  0
 12 11  1  0  0  0
 11 14  1  0  0  0
M  END
> <minimizedAffinity>
-5.30529

$$$$
5EHW_5OO_A_303


 14 14  0  0  0  0  0  0  0  0999 V2000
   17.4365    5.3455   13.4604 C   0  0  0  0  0  0  0  0  0  0  0  0
   16.7860    5.8706   14.5609 C   0  0  0  0  0  0  0  0  0  0  0  0
   15.2970    5.1545   15.1112 Cl  0  0  0  0  0  0  0  0  0  0  0  0
   17.3093    6.9607   15.2267 C   0  0  0  0  0  0  0  0  0  0  0  0
   18.4900    7.5251   14.7818 C   0  0  0  0  0  0  0  0  0  0  0  0
   19.1432    8.8986   15.6258 Cl  0  0  0  0  0  0  0  0  0  0  0  0
   19.1563    7.0014   13.6868 C   0  0  0  0  0  0  0  0  0  0  0  0
   18.6238    5.9049   13.0259 C   0  0  0  0  0  0  0  0  0  0  0  0
   17.3191    3.6873   11.5902 C   0  0  0  0  0  0  0  0  0  0  0  0
   16.8442    4.1450   12.7664 C   0  0  0  0  0  0  0  0  0  0  0  0
   15.3989    2.3527   11.1811 O   0  0  0  0  0  0  0  0  0  0  0  0
   16.6392    2.4641   11.0187 C   0  0  0  0  0  0  0  0  0  0  0  0
   17.3163    1.5824   10.4420 O   0  0  0  0  0  0  0  0  0  0  0  0
   14.9208    3.0305   11.6169 H   0  0  0  0  0  0  0  0  0  0  0  0
  6  5  1  0  0  0
  7  5  2  0  0  0
  7  8  1  0  0  0
  5  4  1  0  0  0
  8  1  2  0  0  0
  4  2  2  0  0  0
  1  2  1  0  0  0
  1 10  1  0  0  0
  2  3  1  0  0  0
 10  9  2  0  0  0
  9 12  1  0  0  0
 13 12  2  0  0  0
 12 11  1  0  0  0
 11 14  1  0  0  0
M  END
> <minimizedAffinity>
-5.28357

$$$$
