1O2Z_312_A_246


 40 43  0  0  0  0  0  0  0  0999 V2000
   42.0501   -1.2607   30.9641 C   0  0  0  0  0  0  0  0  0  0  0  0
   42.7732   -1.2271   32.1694 C   0  0  0  0  0  0  0  0  0  0  0  0
   42.1600   -0.9704   33.3977 C   0  0  0  0  0  0  0  0  0  0  0  0
   40.8131   -0.7339   33.4276 C   0  0  0  0  0  0  0  0  0  0  0  0
   40.0451   -0.7353   32.3036 C   0  0  0  0  0  0  0  0  0  0  0  0
   40.6563   -1.0069   31.0727 C   0  0  0  0  0  0  0  0  0  0  0  0
   39.8696   -1.0741   29.9311 O   0  0  0  0  0  0  0  0  0  0  0  0
   44.3737   -2.9125   25.8667 C   0  0  0  0  0  0  0  0  0  0  0  0
   45.0328   -1.6516   26.0089 C   0  0  0  0  0  0  0  0  0  0  0  0
   44.8311   -0.8145   27.1226 C   0  0  0  0  0  0  0  0  0  0  0  0
   43.9414   -1.2519   28.0802 C   0  0  0  0  0  0  0  0  0  0  0  0
   43.2858   -2.4182   27.9835 C   0  0  0  0  0  0  0  0  0  0  0  0
   43.4658   -3.2918   26.9041 C   0  0  0  0  0  0  0  0  0  0  0  0
   43.5385   -0.6993   29.1756 N   0  0  0  0  0  0  0  0  0  0  0  0
   42.4778   -2.6305   29.0089 N   0  0  0  0  0  0  0  0  0  0  0  0
   42.6889   -1.5205   29.7123 C   0  0  0  0  0  0  0  0  0  0  0  0
   43.8205    0.1734   29.5334 H   0  0  0  0  0  0  0  0  0  0  0  0
   44.5945   -3.7218   24.7324 C   0  0  0  0  0  0  0  0  0  0  0  0
   44.6854   -5.0312   24.8707 N   0  0  0  0  0  0  0  0  0  0  0  0
   44.7116   -3.1639   23.5420 N   0  0  0  0  0  0  0  0  0  0  0  0
   44.5969   -5.4394   25.7622 H   0  0  0  0  0  0  0  0  0  0  0  0
   44.8416   -5.5998   24.0823 H   0  0  0  0  0  0  0  0  0  0  0  0
   44.6426   -2.1864   23.4475 H   0  0  0  0  0  0  0  0  0  0  0  0
   44.8679   -3.7254   22.7486 H   0  0  0  0  0  0  0  0  0  0  0  0
   38.7155   -0.3598   32.4734 C   0  0  0  0  0  0  0  0  0  0  0  0
   37.6150   -1.2582   32.4761 C   0  0  0  0  0  0  0  0  0  0  0  0
   36.3122   -0.7728   32.6765 C   0  0  0  0  0  0  0  0  0  0  0  0
   36.0840    0.5712   32.8675 C   0  0  0  0  0  0  0  0  0  0  0  0
   37.1290    1.4640   32.8713 C   0  0  0  0  0  0  0  0  0  0  0  0
   38.4404    1.0027   32.6770 C   0  0  0  0  0  0  0  0  0  0  0  0
   37.8132   -2.6167   32.2884 O   0  0  0  0  0  0  0  0  0  0  0  0
   37.4010   -3.2878   31.0888 C   0  0  0  0  0  0  0  0  0  0  0  0
   42.9865   -0.9432   34.7095 C   0  0  0  0  0  0  0  0  0  0  0  0
   42.1471   -1.7923   35.6851 C   0  0  0  0  0  0  0  0  0  0  0  0
   42.1611   -2.9983   35.4678 O   0  0  0  0  0  0  0  0  0  0  0  0
   41.5257   -1.2290   36.5760 O   0  0  0  0  0  0  0  0  0  0  0  0
   43.3143    0.5592   35.2637 C   0  0  0  0  0  0  0  0  0  0  0  0
   44.5574    1.2655   34.5987 C   0  0  0  0  0  0  0  0  0  0  0  0
   44.4725    1.6661   33.4438 O   0  0  0  0  0  0  0  0  0  0  0  0
   45.5785    1.3842   35.2747 O   0  0  0  0  0  0  0  0  0  0  0  0
  8  9  2  0  0  0
  8 13  1  0  0  0
  8 18  1  0  0  0
  9 10  1  0  0  0
 10 11  2  0  0  0
 11 12  1  0  0  0
 11 14  1  0  0  0
 12 13  2  0  0  0
 12 15  1  0  0  0
 18 19  1  0  0  0
 18 20  2  0  0  0
 14 16  1  0  0  0
 15 16  2  0  0  0
 16  1  1  0  0  0
  1  2  2  0  0  0
  1  6  1  0  0  0
  2  3  1  0  0  0
  3 33  1  0  0  0
  3  4  2  0  0  0
 33 34  1  0  0  0
 33 37  1  0  0  0
 34 35  2  0  0  0
 34 36  1  0  0  0
 37 38  1  0  0  0
 38 39  2  0  0  0
 38 40  1  0  0  0
  4  5  1  0  0  0
  5  6  2  0  0  0
  5 25  1  0  0  0
  6  7  1  0  0  0
 25 26  2  0  0  0
 25 30  1  0  0  0
 26 27  1  0  0  0
 26 31  1  0  0  0
 27 28  2  0  0  0
 28 29  1  0  0  0
 29 30  2  0  0  0
 31 32  1  0  0  0
 19 21  1  0  0  0
 19 22  1  0  0  0
 20 23  1  0  0  0
 20 24  1  0  0  0
 14 17  1  0  0  0
M  CHG 1   7  -1
M  CHG 1  20   1
M  CHG 1  36  -1
M  CHG 1  40  -1
M  END
> <minimizedAffinity>
-8.80620

$$$$
1O2Z_312_A_246


 40 43  0  0  0  0  0  0  0  0999 V2000
   42.9151   -2.5498   31.6211 C   0  0  0  0  0  0  0  0  0  0  0  0
   42.5921   -3.7533   32.2723 C   0  0  0  0  0  0  0  0  0  0  0  0
   42.2211   -3.7944   33.6181 C   0  0  0  0  0  0  0  0  0  0  0  0
   42.1806   -2.6264   34.3287 C   0  0  0  0  0  0  0  0  0  0  0  0
   42.4920   -1.4223   33.7751 C   0  0  0  0  0  0  0  0  0  0  0  0
   42.8503   -1.3777   32.4216 C   0  0  0  0  0  0  0  0  0  0  0  0
   43.1061   -0.1467   31.8336 O   0  0  0  0  0  0  0  0  0  0  0  0
   44.2992   -3.0600   25.9700 C   0  0  0  0  0  0  0  0  0  0  0  0
   44.7635   -1.7254   26.1890 C   0  0  0  0  0  0  0  0  0  0  0  0
   44.6795   -1.0921   27.4435 C   0  0  0  0  0  0  0  0  0  0  0  0
   44.1027   -1.8104   28.4688 C   0  0  0  0  0  0  0  0  0  0  0  0
   43.6366   -3.0581   28.3088 C   0  0  0  0  0  0  0  0  0  0  0  0
   43.7130   -3.7354   27.0855 C   0  0  0  0  0  0  0  0  0  0  0  0
   43.8665   -1.4901   29.6973 N   0  0  0  0  0  0  0  0  0  0  0  0
   43.1173   -3.5504   29.4210 N   0  0  0  0  0  0  0  0  0  0  0  0
   43.2973   -2.5201   30.2442 C   0  0  0  0  0  0  0  0  0  0  0  0
   44.0769   -0.6328   30.1333 H   0  0  0  0  0  0  0  0  0  0  0  0
   44.3926   -3.6598   24.6965 C   0  0  0  0  0  0  0  0  0  0  0  0
   44.8701   -2.9662   23.6802 N   0  0  0  0  0  0  0  0  0  0  0  0
   43.9994   -4.9085   24.5297 N   0  0  0  0  0  0  0  0  0  0  0  0
   45.1613   -2.0352   23.8131 H   0  0  0  0  0  0  0  0  0  0  0  0
   44.9352   -3.3799   22.7892 H   0  0  0  0  0  0  0  0  0  0  0  0
   43.6444   -5.4190   25.2930 H   0  0  0  0  0  0  0  0  0  0  0  0
   44.0611   -5.3296   23.6419 H   0  0  0  0  0  0  0  0  0  0  0  0
   42.5234   -0.3395   34.6494 C   0  0  0  0  0  0  0  0  0  0  0  0
   43.6893    0.1354   35.3076 C   0  0  0  0  0  0  0  0  0  0  0  0
   43.6114    1.2521   36.1564 C   0  0  0  0  0  0  0  0  0  0  0  0
   42.4122    1.8950   36.3645 C   0  0  0  0  0  0  0  0  0  0  0  0
   41.2679    1.4592   35.7403 C   0  0  0  0  0  0  0  0  0  0  0  0
   41.3210    0.3478   34.8844 C   0  0  0  0  0  0  0  0  0  0  0  0
   44.9112   -0.4896   35.1166 O   0  0  0  0  0  0  0  0  0  0  0  0
   46.1410    0.0837   35.5835 C   0  0  0  0  0  0  0  0  0  0  0  0
   41.8682   -5.1389   34.3055 C   0  0  0  0  0  0  0  0  0  0  0  0
   40.6691   -5.6605   33.4885 C   0  0  0  0  0  0  0  0  0  0  0  0
   40.8766   -6.6952   32.8653 O   0  0  0  0  0  0  0  0  0  0  0  0
   39.6246   -5.0234   33.4979 O   0  0  0  0  0  0  0  0  0  0  0  0
   41.5649   -5.0131   35.9068 C   0  0  0  0  0  0  0  0  0  0  0  0
   42.6967   -5.5719   36.8520 C   0  0  0  0  0  0  0  0  0  0  0  0
   42.5786   -5.4503   38.0656 O   0  0  0  0  0  0  0  0  0  0  0  0
   43.6684   -6.1121   36.3251 O   0  0  0  0  0  0  0  0  0  0  0  0
  8  9  2  0  0  0
  8 13  1  0  0  0
  8 18  1  0  0  0
  9 10  1  0  0  0
 10 11  2  0  0  0
 11 12  1  0  0  0
 11 14  1  0  0  0
 12 13  2  0  0  0
 12 15  1  0  0  0
 18 19  1  0  0  0
 18 20  2  0  0  0
 14 16  1  0  0  0
 15 16  2  0  0  0
 16  1  1  0  0  0
  1  2  2  0  0  0
  1  6  1  0  0  0
  2  3  1  0  0  0
  3 33  1  0  0  0
  3  4  2  0  0  0
 33 34  1  0  0  0
 33 37  1  0  0  0
 34 35  2  0  0  0
 34 36  1  0  0  0
 37 38  1  0  0  0
 38 39  2  0  0  0
 38 40  1  0  0  0
  4  5  1  0  0  0
  5  6  2  0  0  0
  5 25  1  0  0  0
  6  7  1  0  0  0
 25 26  2  0  0  0
 25 30  1  0  0  0
 26 27  1  0  0  0
 26 31  1  0  0  0
 27 28  2  0  0  0
 28 29  1  0  0  0
 29 30  2  0  0  0
 31 32  1  0  0  0
 19 21  1  0  0  0
 19 22  1  0  0  0
 20 23  1  0  0  0
 20 24  1  0  0  0
 14 17  1  0  0  0
M  CHG 1   7  -1
M  CHG 1  20   1
M  CHG 1  36  -1
M  CHG 1  40  -1
M  END
> <minimizedAffinity>
-8.41984

$$$$
1O2Z_312_A_246


 40 43  0  0  0  0  0  0  0  0999 V2000
   42.9687   -2.1979   31.6620 C   0  0  0  0  0  0  0  0  0  0  0  0
   42.2299   -3.2442   32.2417 C   0  0  0  0  0  0  0  0  0  0  0  0
   41.8405   -3.2256   33.5827 C   0  0  0  0  0  0  0  0  0  0  0  0
   42.1985   -2.1589   34.3604 C   0  0  0  0  0  0  0  0  0  0  0  0
   42.9246   -1.1132   33.8782 C   0  0  0  0  0  0  0  0  0  0  0  0
   43.3036   -1.1236   32.5296 C   0  0  0  0  0  0  0  0  0  0  0  0
   43.9879   -0.0314   32.0146 O   0  0  0  0  0  0  0  0  0  0  0  0
   44.4466   -2.9676   26.0643 C   0  0  0  0  0  0  0  0  0  0  0  0
   44.8347   -1.5987   26.2065 C   0  0  0  0  0  0  0  0  0  0  0  0
   44.7012   -0.8973   27.4197 C   0  0  0  0  0  0  0  0  0  0  0  0
   44.1521   -1.5837   28.4814 C   0  0  0  0  0  0  0  0  0  0  0  0
   43.7568   -2.8625   28.3928 C   0  0  0  0  0  0  0  0  0  0  0  0
   43.8848   -3.6065   27.2134 C   0  0  0  0  0  0  0  0  0  0  0  0
   43.8840   -1.2041   29.6862 N   0  0  0  0  0  0  0  0  0  0  0  0
   43.2518   -3.3154   29.5281 N   0  0  0  0  0  0  0  0  0  0  0  0
   43.3653   -2.2295   30.2893 C   0  0  0  0  0  0  0  0  0  0  0  0
   44.0421   -0.3120   30.0715 H   0  0  0  0  0  0  0  0  0  0  0  0
   44.5880   -3.6364   24.8301 C   0  0  0  0  0  0  0  0  0  0  0  0
   44.8475   -2.9439   23.7369 N   0  0  0  0  0  0  0  0  0  0  0  0
   44.4569   -4.9485   24.7769 N   0  0  0  0  0  0  0  0  0  0  0  0
   44.9438   -1.9653   23.7852 H   0  0  0  0  0  0  0  0  0  0  0  0
   44.9449   -3.4060   22.8730 H   0  0  0  0  0  0  0  0  0  0  0  0
   44.2633   -5.4576   25.5970 H   0  0  0  0  0  0  0  0  0  0  0  0
   44.5528   -5.4183   23.9170 H   0  0  0  0  0  0  0  0  0  0  0  0
   43.3166   -0.1603   34.8142 C   0  0  0  0  0  0  0  0  0  0  0  0
   42.4645    0.8375   35.3586 C   0  0  0  0  0  0  0  0  0  0  0  0
   42.9600    1.7393   36.3149 C   0  0  0  0  0  0  0  0  0  0  0  0
   44.2700    1.6726   36.7322 C   0  0  0  0  0  0  0  0  0  0  0  0
   45.1175    0.7171   36.2243 C   0  0  0  0  0  0  0  0  0  0  0  0
   44.6448   -0.1977   35.2705 C   0  0  0  0  0  0  0  0  0  0  0  0
   41.1405    0.9286   34.9598 O   0  0  0  0  0  0  0  0  0  0  0  0
   40.1809    1.7163   35.6794 C   0  0  0  0  0  0  0  0  0  0  0  0
   41.0234   -4.3951   34.1904 C   0  0  0  0  0  0  0  0  0  0  0  0
   41.9969   -5.5891   34.1281 C   0  0  0  0  0  0  0  0  0  0  0  0
   42.9145   -5.5534   34.9397 O   0  0  0  0  0  0  0  0  0  0  0  0
   41.8109   -6.4612   33.2903 O   0  0  0  0  0  0  0  0  0  0  0  0
   39.5960   -4.6739   33.4441 C   0  0  0  0  0  0  0  0  0  0  0  0
   38.7203   -3.3924   33.1663 C   0  0  0  0  0  0  0  0  0  0  0  0
   38.2506   -2.7706   34.1119 O   0  0  0  0  0  0  0  0  0  0  0  0
   38.5382   -3.0659   31.9941 O   0  0  0  0  0  0  0  0  0  0  0  0
  8  9  2  0  0  0
  8 13  1  0  0  0
  8 18  1  0  0  0
  9 10  1  0  0  0
 10 11  2  0  0  0
 11 12  1  0  0  0
 11 14  1  0  0  0
 12 13  2  0  0  0
 12 15  1  0  0  0
 18 19  1  0  0  0
 18 20  2  0  0  0
 14 16  1  0  0  0
 15 16  2  0  0  0
 16  1  1  0  0  0
  1  2  2  0  0  0
  1  6  1  0  0  0
  2  3  1  0  0  0
  3 33  1  0  0  0
  3  4  2  0  0  0
 33 34  1  0  0  0
 33 37  1  0  0  0
 34 35  2  0  0  0
 34 36  1  0  0  0
 37 38  1  0  0  0
 38 39  2  0  0  0
 38 40  1  0  0  0
  4  5  1  0  0  0
  5  6  2  0  0  0
  5 25  1  0  0  0
  6  7  1  0  0  0
 25 26  2  0  0  0
 25 30  1  0  0  0
 26 27  1  0  0  0
 26 31  1  0  0  0
 27 28  2  0  0  0
 28 29  1  0  0  0
 29 30  2  0  0  0
 31 32  1  0  0  0
 19 21  1  0  0  0
 19 22  1  0  0  0
 20 23  1  0  0  0
 20 24  1  0  0  0
 14 17  1  0  0  0
M  CHG 1   7  -1
M  CHG 1  20   1
M  CHG 1  36  -1
M  CHG 1  40  -1
M  END
> <minimizedAffinity>
-8.36869

$$$$
1O2Z_312_A_246


 40 43  0  0  0  0  0  0  0  0999 V2000
   42.9244   -1.2386   31.9064 C   0  0  0  0  0  0  0  0  0  0  0  0
   43.8006   -0.3854   32.6000 C   0  0  0  0  0  0  0  0  0  0  0  0
   43.5040    0.1116   33.8711 C   0  0  0  0  0  0  0  0  0  0  0  0
   42.3172   -0.2351   34.4560 C   0  0  0  0  0  0  0  0  0  0  0  0
   41.4095   -1.0449   33.8449 C   0  0  0  0  0  0  0  0  0  0  0  0
   41.7121   -1.5558   32.5761 C   0  0  0  0  0  0  0  0  0  0  0  0
   40.8211   -2.4336   31.9742 O   0  0  0  0  0  0  0  0  0  0  0  0
   44.2013   -2.6540   26.3858 C   0  0  0  0  0  0  0  0  0  0  0  0
   44.0476   -3.9717   26.9193 C   0  0  0  0  0  0  0  0  0  0  0  0
   43.7072   -4.2076   28.2647 C   0  0  0  0  0  0  0  0  0  0  0  0
   43.5452   -3.1019   29.0715 C   0  0  0  0  0  0  0  0  0  0  0  0
   43.6957   -1.8469   28.6223 C   0  0  0  0  0  0  0  0  0  0  0  0
   44.0169   -1.5615   27.2895 C   0  0  0  0  0  0  0  0  0  0  0  0
   43.2662   -3.0058   30.3287 N   0  0  0  0  0  0  0  0  0  0  0  0
   43.5028   -0.9443   29.5695 N   0  0  0  0  0  0  0  0  0  0  0  0
   43.2367   -1.7380   30.6042 C   0  0  0  0  0  0  0  0  0  0  0  0
   43.1071   -3.7485   30.9551 H   0  0  0  0  0  0  0  0  0  0  0  0
   44.5509   -2.4559   25.0334 C   0  0  0  0  0  0  0  0  0  0  0  0
   44.5005   -1.2430   24.5156 N   0  0  0  0  0  0  0  0  0  0  0  0
   44.9230   -3.4847   24.2952 N   0  0  0  0  0  0  0  0  0  0  0  0
   44.2219   -0.4809   25.0732 H   0  0  0  0  0  0  0  0  0  0  0  0
   44.7414   -1.1002   23.5718 H   0  0  0  0  0  0  0  0  0  0  0  0
   44.9580   -4.3863   24.6892 H   0  0  0  0  0  0  0  0  0  0  0  0
   45.1656   -3.3506   23.3505 H   0  0  0  0  0  0  0  0  0  0  0  0
   40.1972   -1.2117   34.5086 C   0  0  0  0  0  0  0  0  0  0  0  0
   39.0366   -0.4241   34.2836 C   0  0  0  0  0  0  0  0  0  0  0  0
   37.8565   -0.6921   34.9970 C   0  0  0  0  0  0  0  0  0  0  0  0
   37.8092   -1.7115   35.9208 C   0  0  0  0  0  0  0  0  0  0  0  0
   38.9159   -2.4910   36.1587 C   0  0  0  0  0  0  0  0  0  0  0  0
   40.1057   -2.2453   35.4556 C   0  0  0  0  0  0  0  0  0  0  0  0
   39.0527    0.6077   33.3588 O   0  0  0  0  0  0  0  0  0  0  0  0
   37.8568    1.2963   32.9652 C   0  0  0  0  0  0  0  0  0  0  0  0
   44.4940    1.0487   34.6101 C   0  0  0  0  0  0  0  0  0  0  0  0
   45.6925    0.1323   34.9283 C   0  0  0  0  0  0  0  0  0  0  0  0
   45.5261   -0.6307   35.8728 O   0  0  0  0  0  0  0  0  0  0  0  0
   46.7081    0.2303   34.2529 O   0  0  0  0  0  0  0  0  0  0  0  0
   43.8640    1.7843   35.9270 C   0  0  0  0  0  0  0  0  0  0  0  0
   44.7912    2.8671   36.6011 C   0  0  0  0  0  0  0  0  0  0  0  0
   45.8883    2.5325   37.0321 O   0  0  0  0  0  0  0  0  0  0  0  0
   44.3680    4.0202   36.6713 O   0  0  0  0  0  0  0  0  0  0  0  0
  8  9  2  0  0  0
  8 13  1  0  0  0
  8 18  1  0  0  0
  9 10  1  0  0  0
 10 11  2  0  0  0
 11 12  1  0  0  0
 11 14  1  0  0  0
 12 13  2  0  0  0
 12 15  1  0  0  0
 18 19  1  0  0  0
 18 20  2  0  0  0
 14 16  1  0  0  0
 15 16  2  0  0  0
 16  1  1  0  0  0
  1  2  2  0  0  0
  1  6  1  0  0  0
  2  3  1  0  0  0
  3 33  1  0  0  0
  3  4  2  0  0  0
 33 34  1  0  0  0
 33 37  1  0  0  0
 34 35  2  0  0  0
 34 36  1  0  0  0
 37 38  1  0  0  0
 38 39  2  0  0  0
 38 40  1  0  0  0
  4  5  1  0  0  0
  5  6  2  0  0  0
  5 25  1  0  0  0
  6  7  1  0  0  0
 25 26  2  0  0  0
 25 30  1  0  0  0
 26 27  1  0  0  0
 26 31  1  0  0  0
 27 28  2  0  0  0
 28 29  1  0  0  0
 29 30  2  0  0  0
 31 32  1  0  0  0
 19 21  1  0  0  0
 19 22  1  0  0  0
 20 23  1  0  0  0
 20 24  1  0  0  0
 14 17  1  0  0  0
M  CHG 1   7  -1
M  CHG 1  20   1
M  CHG 1  36  -1
M  CHG 1  40  -1
M  END
> <minimizedAffinity>
-8.30962

$$$$
1O2Z_312_A_246


 40 43  0  0  0  0  0  0  0  0999 V2000
   41.9860   -1.3925   31.0525 C   0  0  0  0  0  0  0  0  0  0  0  0
   40.6158   -1.6564   31.2248 C   0  0  0  0  0  0  0  0  0  0  0  0
   39.9649   -1.4446   32.4421 C   0  0  0  0  0  0  0  0  0  0  0  0
   40.6866   -0.9744   33.5047 C   0  0  0  0  0  0  0  0  0  0  0  0
   42.0191   -0.7075   33.4231 C   0  0  0  0  0  0  0  0  0  0  0  0
   42.6702   -0.9058   32.1988 C   0  0  0  0  0  0  0  0  0  0  0  0
   44.0137   -0.5746   32.0899 O   0  0  0  0  0  0  0  0  0  0  0  0
   44.3836   -2.9004   25.9448 C   0  0  0  0  0  0  0  0  0  0  0  0
   45.0380   -1.6427   26.1305 C   0  0  0  0  0  0  0  0  0  0  0  0
   44.8191   -0.8366   27.2637 C   0  0  0  0  0  0  0  0  0  0  0  0
   43.9172   -1.3016   28.1965 C   0  0  0  0  0  0  0  0  0  0  0  0
   43.2654   -2.4660   28.0590 C   0  0  0  0  0  0  0  0  0  0  0  0
   43.4622   -3.3094   26.9587 C   0  0  0  0  0  0  0  0  0  0  0  0
   43.4979   -0.7798   29.3009 N   0  0  0  0  0  0  0  0  0  0  0  0
   42.4437   -2.7076   29.0667 N   0  0  0  0  0  0  0  0  0  0  0  0
   42.6427   -1.6169   29.8030 C   0  0  0  0  0  0  0  0  0  0  0  0
   43.7730    0.0833   29.6862 H   0  0  0  0  0  0  0  0  0  0  0  0
   44.6219   -3.6779   24.7920 C   0  0  0  0  0  0  0  0  0  0  0  0
   44.8289   -3.0823   23.6325 N   0  0  0  0  0  0  0  0  0  0  0  0
   44.6334   -4.9947   24.8804 N   0  0  0  0  0  0  0  0  0  0  0  0
   44.8187   -2.0995   23.5752 H   0  0  0  0  0  0  0  0  0  0  0  0
   44.9934   -3.6208   22.8249 H   0  0  0  0  0  0  0  0  0  0  0  0
   44.4781   -5.4311   25.7491 H   0  0  0  0  0  0  0  0  0  0  0  0
   44.7972   -5.5405   24.0776 H   0  0  0  0  0  0  0  0  0  0  0  0
   42.6433   -0.3511   34.6152 C   0  0  0  0  0  0  0  0  0  0  0  0
   42.8510   -1.2279   35.7135 C   0  0  0  0  0  0  0  0  0  0  0  0
   43.5120   -0.7680   36.8645 C   0  0  0  0  0  0  0  0  0  0  0  0
   43.9610    0.5306   36.9462 C   0  0  0  0  0  0  0  0  0  0  0  0
   43.7756    1.4015   35.8990 C   0  0  0  0  0  0  0  0  0  0  0  0
   43.1213    0.9644   34.7366 C   0  0  0  0  0  0  0  0  0  0  0  0
   42.4123   -2.5412   35.6602 O   0  0  0  0  0  0  0  0  0  0  0  0
   41.7801   -3.1789   36.7796 C   0  0  0  0  0  0  0  0  0  0  0  0
   38.4513   -1.7433   32.5977 C   0  0  0  0  0  0  0  0  0  0  0  0
   38.3189   -3.2042   32.1226 C   0  0  0  0  0  0  0  0  0  0  0  0
   38.8382   -4.0375   32.8560 O   0  0  0  0  0  0  0  0  0  0  0  0
   37.7384   -3.4339   31.0703 O   0  0  0  0  0  0  0  0  0  0  0  0
   37.4773   -0.7031   31.7969 C   0  0  0  0  0  0  0  0  0  0  0  0
   37.1045    0.6114   32.5841 C   0  0  0  0  0  0  0  0  0  0  0  0
   37.9387    1.5023   32.6924 O   0  0  0  0  0  0  0  0  0  0  0  0
   35.9759    0.6890   33.0679 O   0  0  0  0  0  0  0  0  0  0  0  0
  8  9  2  0  0  0
  8 13  1  0  0  0
  8 18  1  0  0  0
  9 10  1  0  0  0
 10 11  2  0  0  0
 11 12  1  0  0  0
 11 14  1  0  0  0
 12 13  2  0  0  0
 12 15  1  0  0  0
 18 19  1  0  0  0
 18 20  2  0  0  0
 14 16  1  0  0  0
 15 16  2  0  0  0
 16  1  1  0  0  0
  1  2  2  0  0  0
  1  6  1  0  0  0
  2  3  1  0  0  0
  3 33  1  0  0  0
  3  4  2  0  0  0
 33 34  1  0  0  0
 33 37  1  0  0  0
 34 35  2  0  0  0
 34 36  1  0  0  0
 37 38  1  0  0  0
 38 39  2  0  0  0
 38 40  1  0  0  0
  4  5  1  0  0  0
  5  6  2  0  0  0
  5 25  1  0  0  0
  6  7  1  0  0  0
 25 26  2  0  0  0
 25 30  1  0  0  0
 26 27  1  0  0  0
 26 31  1  0  0  0
 27 28  2  0  0  0
 28 29  1  0  0  0
 29 30  2  0  0  0
 31 32  1  0  0  0
 19 21  1  0  0  0
 19 22  1  0  0  0
 20 23  1  0  0  0
 20 24  1  0  0  0
 14 17  1  0  0  0
M  CHG 1   7  -1
M  CHG 1  20   1
M  CHG 1  36  -1
M  CHG 1  40  -1
M  END
> <minimizedAffinity>
-8.27694

$$$$
1O2Z_312_A_246


 40 43  0  0  0  0  0  0  0  0999 V2000
   43.0851   -1.6562   32.5390 C   0  0  0  0  0  0  0  0  0  0  0  0
   42.2048   -2.4107   33.3343 C   0  0  0  0  0  0  0  0  0  0  0  0
   41.9415   -2.0850   34.6666 C   0  0  0  0  0  0  0  0  0  0  0  0
   42.5687   -1.0021   35.2189 C   0  0  0  0  0  0  0  0  0  0  0  0
   43.4448   -0.2292   34.5200 C   0  0  0  0  0  0  0  0  0  0  0  0
   43.6987   -0.5461   33.1793 C   0  0  0  0  0  0  0  0  0  0  0  0
   44.5404    0.2749   32.4417 O   0  0  0  0  0  0  0  0  0  0  0  0
   44.1740   -2.4213   26.8522 C   0  0  0  0  0  0  0  0  0  0  0  0
   44.0129   -3.7909   27.2300 C   0  0  0  0  0  0  0  0  0  0  0  0
   43.7081   -4.1807   28.5479 C   0  0  0  0  0  0  0  0  0  0  0  0
   43.5893   -3.1769   29.4849 C   0  0  0  0  0  0  0  0  0  0  0  0
   43.7486   -1.8795   29.1833 C   0  0  0  0  0  0  0  0  0  0  0  0
   44.0355   -1.4418   27.8845 C   0  0  0  0  0  0  0  0  0  0  0  0
   43.3491   -3.2274   30.7527 N   0  0  0  0  0  0  0  0  0  0  0  0
   43.5995   -1.0936   30.2365 N   0  0  0  0  0  0  0  0  0  0  0  0
   43.3500   -2.0012   31.1776 C   0  0  0  0  0  0  0  0  0  0  0  0
   43.1955   -4.0372   31.2912 H   0  0  0  0  0  0  0  0  0  0  0  0
   44.4871   -2.0684   25.5226 C   0  0  0  0  0  0  0  0  0  0  0  0
   44.3797   -0.8107   25.1370 N   0  0  0  0  0  0  0  0  0  0  0  0
   44.8821   -2.9982   24.6733 N   0  0  0  0  0  0  0  0  0  0  0  0
   44.0844   -0.1232   25.7768 H   0  0  0  0  0  0  0  0  0  0  0  0
   44.5951   -0.5600   24.2096 H   0  0  0  0  0  0  0  0  0  0  0  0
   44.9595   -3.9340   24.9690 H   0  0  0  0  0  0  0  0  0  0  0  0
   45.0993   -2.7559   23.7441 H   0  0  0  0  0  0  0  0  0  0  0  0
   44.0959    0.7635   35.2469 C   0  0  0  0  0  0  0  0  0  0  0  0
   45.3572    0.6062   35.8813 C   0  0  0  0  0  0  0  0  0  0  0  0
   45.9342    1.6832   36.5745 C   0  0  0  0  0  0  0  0  0  0  0  0
   45.2886    2.8964   36.6522 C   0  0  0  0  0  0  0  0  0  0  0  0
   44.0680    3.0787   36.0472 C   0  0  0  0  0  0  0  0  0  0  0  0
   43.4728    2.0187   35.3455 C   0  0  0  0  0  0  0  0  0  0  0  0
   46.0323   -0.6023   35.8190 O   0  0  0  0  0  0  0  0  0  0  0  0
   47.3174   -0.7890   36.4295 C   0  0  0  0  0  0  0  0  0  0  0  0
   40.9627   -2.9369   35.5157 C   0  0  0  0  0  0  0  0  0  0  0  0
   41.5484   -4.3603   35.4256 C   0  0  0  0  0  0  0  0  0  0  0  0
   40.8792   -5.1568   34.7777 O   0  0  0  0  0  0  0  0  0  0  0  0
   42.6005   -4.6048   36.0004 O   0  0  0  0  0  0  0  0  0  0  0  0
   39.4023   -2.8390   35.0385 C   0  0  0  0  0  0  0  0  0  0  0  0
   38.9369   -1.4147   34.5473 C   0  0  0  0  0  0  0  0  0  0  0  0
   38.7186   -1.2333   33.3553 O   0  0  0  0  0  0  0  0  0  0  0  0
   38.8134   -0.5292   35.3925 O   0  0  0  0  0  0  0  0  0  0  0  0
  8  9  2  0  0  0
  8 13  1  0  0  0
  8 18  1  0  0  0
  9 10  1  0  0  0
 10 11  2  0  0  0
 11 12  1  0  0  0
 11 14  1  0  0  0
 12 13  2  0  0  0
 12 15  1  0  0  0
 18 19  1  0  0  0
 18 20  2  0  0  0
 14 16  1  0  0  0
 15 16  2  0  0  0
 16  1  1  0  0  0
  1  2  2  0  0  0
  1  6  1  0  0  0
  2  3  1  0  0  0
  3 33  1  0  0  0
  3  4  2  0  0  0
 33 34  1  0  0  0
 33 37  1  0  0  0
 34 35  2  0  0  0
 34 36  1  0  0  0
 37 38  1  0  0  0
 38 39  2  0  0  0
 38 40  1  0  0  0
  4  5  1  0  0  0
  5  6  2  0  0  0
  5 25  1  0  0  0
  6  7  1  0  0  0
 25 26  2  0  0  0
 25 30  1  0  0  0
 26 27  1  0  0  0
 26 31  1  0  0  0
 27 28  2  0  0  0
 28 29  1  0  0  0
 29 30  2  0  0  0
 31 32  1  0  0  0
 19 21  1  0  0  0
 19 22  1  0  0  0
 20 23  1  0  0  0
 20 24  1  0  0  0
 14 17  1  0  0  0
M  CHG 1   7  -1
M  CHG 1  20   1
M  CHG 1  36  -1
M  CHG 1  40  -1
M  END
> <minimizedAffinity>
-8.16549

$$$$
1O2Z_312_A_246


 40 43  0  0  0  0  0  0  0  0999 V2000
   42.6573   -1.1136   32.2069 C   0  0  0  0  0  0  0  0  0  0  0  0
   43.6146   -0.6415   33.1220 C   0  0  0  0  0  0  0  0  0  0  0  0
   43.2608   -0.1438   34.3780 C   0  0  0  0  0  0  0  0  0  0  0  0
   41.9384   -0.1051   34.7252 C   0  0  0  0  0  0  0  0  0  0  0  0
   40.9503   -0.5303   33.8909 C   0  0  0  0  0  0  0  0  0  0  0  0
   41.3047   -1.0432   32.6364 C   0  0  0  0  0  0  0  0  0  0  0  0
   40.3088   -1.5387   31.8063 O   0  0  0  0  0  0  0  0  0  0  0  0
   44.1480   -2.5511   26.7459 C   0  0  0  0  0  0  0  0  0  0  0  0
   44.0674   -3.8653   27.3035 C   0  0  0  0  0  0  0  0  0  0  0  0
   43.7124   -4.0964   28.6460 C   0  0  0  0  0  0  0  0  0  0  0  0
   43.4612   -2.9879   29.4257 C   0  0  0  0  0  0  0  0  0  0  0  0
   43.5406   -1.7348   28.9535 C   0  0  0  0  0  0  0  0  0  0  0  0
   43.8730   -1.4553   27.6223 C   0  0  0  0  0  0  0  0  0  0  0  0
   43.1480   -2.8856   30.6743 N   0  0  0  0  0  0  0  0  0  0  0  0
   43.2684   -0.8283   29.8772 N   0  0  0  0  0  0  0  0  0  0  0  0
   43.0306   -1.6172   30.9224 C   0  0  0  0  0  0  0  0  0  0  0  0
   43.0229   -3.6246   31.3126 H   0  0  0  0  0  0  0  0  0  0  0  0
   44.5147   -2.3573   25.3974 C   0  0  0  0  0  0  0  0  0  0  0  0
   44.9054   -3.3878   24.6712 N   0  0  0  0  0  0  0  0  0  0  0  0
   44.4675   -1.1472   24.8727 N   0  0  0  0  0  0  0  0  0  0  0  0
   44.9378   -4.2872   25.0703 H   0  0  0  0  0  0  0  0  0  0  0  0
   45.1644   -3.2571   23.7304 H   0  0  0  0  0  0  0  0  0  0  0  0
   44.1749   -0.3839   25.4213 H   0  0  0  0  0  0  0  0  0  0  0  0
   44.7248   -1.0079   23.9327 H   0  0  0  0  0  0  0  0  0  0  0  0
   39.6470   -0.3181   34.3317 C   0  0  0  0  0  0  0  0  0  0  0  0
   38.8479   -1.2895   34.9920 C   0  0  0  0  0  0  0  0  0  0  0  0
   37.5485   -0.9617   35.4133 C   0  0  0  0  0  0  0  0  0  0  0  0
   37.0328    0.2949   35.1903 C   0  0  0  0  0  0  0  0  0  0  0  0
   37.7830    1.2557   34.5552 C   0  0  0  0  0  0  0  0  0  0  0  0
   39.0855    0.9535   34.1282 C   0  0  0  0  0  0  0  0  0  0  0  0
   39.3400   -2.5623   35.2325 O   0  0  0  0  0  0  0  0  0  0  0  0
   38.9494   -3.6922   34.4388 C   0  0  0  0  0  0  0  0  0  0  0  0
   44.3422    0.3668   35.3651 C   0  0  0  0  0  0  0  0  0  0  0  0
   43.8858    1.8026   35.6926 C   0  0  0  0  0  0  0  0  0  0  0  0
   43.9865    2.6025   34.7696 O   0  0  0  0  0  0  0  0  0  0  0  0
   43.4806    2.0522   36.8199 O   0  0  0  0  0  0  0  0  0  0  0  0
   45.8695    0.2801   34.7892 C   0  0  0  0  0  0  0  0  0  0  0  0
   46.9581   -0.1763   35.8347 C   0  0  0  0  0  0  0  0  0  0  0  0
   46.6724   -0.2004   37.0260 O   0  0  0  0  0  0  0  0  0  0  0  0
   48.0678   -0.4909   35.4063 O   0  0  0  0  0  0  0  0  0  0  0  0
  8  9  2  0  0  0
  8 13  1  0  0  0
  8 18  1  0  0  0
  9 10  1  0  0  0
 10 11  2  0  0  0
 11 12  1  0  0  0
 11 14  1  0  0  0
 12 13  2  0  0  0
 12 15  1  0  0  0
 18 19  1  0  0  0
 18 20  2  0  0  0
 14 16  1  0  0  0
 15 16  2  0  0  0
 16  1  1  0  0  0
  1  2  2  0  0  0
  1  6  1  0  0  0
  2  3  1  0  0  0
  3 33  1  0  0  0
  3  4  2  0  0  0
 33 34  1  0  0  0
 33 37  1  0  0  0
 34 35  2  0  0  0
 34 36  1  0  0  0
 37 38  1  0  0  0
 38 39  2  0  0  0
 38 40  1  0  0  0
  4  5  1  0  0  0
  5  6  2  0  0  0
  5 25  1  0  0  0
  6  7  1  0  0  0
 25 26  2  0  0  0
 25 30  1  0  0  0
 26 27  1  0  0  0
 26 31  1  0  0  0
 27 28  2  0  0  0
 28 29  1  0  0  0
 29 30  2  0  0  0
 31 32  1  0  0  0
 19 21  1  0  0  0
 19 22  1  0  0  0
 20 23  1  0  0  0
 20 24  1  0  0  0
 14 17  1  0  0  0
M  CHG 1   7  -1
M  CHG 1  20   1
M  CHG 1  36  -1
M  CHG 1  40  -1
M  END
> <minimizedAffinity>
-7.99125

$$$$
1O2Z_312_A_246


 40 43  0  0  0  0  0  0  0  0999 V2000
   41.6320   -1.3286   30.9123 C   0  0  0  0  0  0  0  0  0  0  0  0
   40.2441   -1.1054   30.8880 C   0  0  0  0  0  0  0  0  0  0  0  0
   39.5085   -0.8680   32.0512 C   0  0  0  0  0  0  0  0  0  0  0  0
   40.1583   -0.8625   33.2548 C   0  0  0  0  0  0  0  0  0  0  0  0
   41.4971   -1.0836   33.3643 C   0  0  0  0  0  0  0  0  0  0  0  0
   42.2387   -1.3075   32.1971 C   0  0  0  0  0  0  0  0  0  0  0  0
   43.6138   -1.4692   32.2942 O   0  0  0  0  0  0  0  0  0  0  0  0
   44.3476   -2.9077   25.9887 C   0  0  0  0  0  0  0  0  0  0  0  0
   45.0532   -1.6911   26.2467 C   0  0  0  0  0  0  0  0  0  0  0  0
   44.7881   -0.8876   27.3719 C   0  0  0  0  0  0  0  0  0  0  0  0
   43.7896   -1.3122   28.2218 C   0  0  0  0  0  0  0  0  0  0  0  0
   43.0879   -2.4364   28.0135 C   0  0  0  0  0  0  0  0  0  0  0  0
   43.3262   -3.2764   26.9187 C   0  0  0  0  0  0  0  0  0  0  0  0
   43.3119   -0.7810   29.2976 N   0  0  0  0  0  0  0  0  0  0  0  0
   42.1755   -2.6436   28.9482 N   0  0  0  0  0  0  0  0  0  0  0  0
   42.3741   -1.5746   29.7159 C   0  0  0  0  0  0  0  0  0  0  0  0
   43.6021    0.0607   29.7178 H   0  0  0  0  0  0  0  0  0  0  0  0
   44.6351   -3.6836   24.8460 C   0  0  0  0  0  0  0  0  0  0  0  0
   44.8354   -3.0889   23.6849 N   0  0  0  0  0  0  0  0  0  0  0  0
   44.6989   -4.9981   24.9453 N   0  0  0  0  0  0  0  0  0  0  0  0
   44.7860   -2.1078   23.6193 H   0  0  0  0  0  0  0  0  0  0  0  0
   45.0341   -3.6263   22.8843 H   0  0  0  0  0  0  0  0  0  0  0  0
   44.5482   -5.4339   25.8152 H   0  0  0  0  0  0  0  0  0  0  0  0
   44.8971   -5.5429   24.1496 H   0  0  0  0  0  0  0  0  0  0  0  0
   41.9970   -1.1679   34.6608 C   0  0  0  0  0  0  0  0  0  0  0  0
   42.8162   -0.1849   35.2776 C   0  0  0  0  0  0  0  0  0  0  0  0
   43.2501   -0.3621   36.6019 C   0  0  0  0  0  0  0  0  0  0  0  0
   42.8940   -1.4847   37.3144 C   0  0  0  0  0  0  0  0  0  0  0  0
   42.1012   -2.4521   36.7444 C   0  0  0  0  0  0  0  0  0  0  0  0
   41.6519   -2.2959   35.4238 C   0  0  0  0  0  0  0  0  0  0  0  0
   43.1897    0.9567   34.5867 O   0  0  0  0  0  0  0  0  0  0  0  0
   43.9275    2.0175   35.2109 C   0  0  0  0  0  0  0  0  0  0  0  0
   37.9786   -0.6227   31.9892 C   0  0  0  0  0  0  0  0  0  0  0  0
   37.7500    0.5056   33.0148 C   0  0  0  0  0  0  0  0  0  0  0  0
   37.2617    0.1474   34.0802 O   0  0  0  0  0  0  0  0  0  0  0  0
   38.0438    1.6530   32.7077 O   0  0  0  0  0  0  0  0  0  0  0  0
   37.0745   -1.9555   32.2689 C   0  0  0  0  0  0  0  0  0  0  0  0
   37.2054   -3.0965   31.1883 C   0  0  0  0  0  0  0  0  0  0  0  0
   36.6273   -2.9748   30.1148 O   0  0  0  0  0  0  0  0  0  0  0  0
   37.8898   -4.0788   31.4722 O   0  0  0  0  0  0  0  0  0  0  0  0
  8  9  2  0  0  0
  8 13  1  0  0  0
  8 18  1  0  0  0
  9 10  1  0  0  0
 10 11  2  0  0  0
 11 12  1  0  0  0
 11 14  1  0  0  0
 12 13  2  0  0  0
 12 15  1  0  0  0
 18 19  1  0  0  0
 18 20  2  0  0  0
 14 16  1  0  0  0
 15 16  2  0  0  0
 16  1  1  0  0  0
  1  2  2  0  0  0
  1  6  1  0  0  0
  2  3  1  0  0  0
  3 33  1  0  0  0
  3  4  2  0  0  0
 33 34  1  0  0  0
 33 37  1  0  0  0
 34 35  2  0  0  0
 34 36  1  0  0  0
 37 38  1  0  0  0
 38 39  2  0  0  0
 38 40  1  0  0  0
  4  5  1  0  0  0
  5  6  2  0  0  0
  5 25  1  0  0  0
  6  7  1  0  0  0
 25 26  2  0  0  0
 25 30  1  0  0  0
 26 27  1  0  0  0
 26 31  1  0  0  0
 27 28  2  0  0  0
 28 29  1  0  0  0
 29 30  2  0  0  0
 31 32  1  0  0  0
 19 21  1  0  0  0
 19 22  1  0  0  0
 20 23  1  0  0  0
 20 24  1  0  0  0
 14 17  1  0  0  0
M  CHG 1   7  -1
M  CHG 1  20   1
M  CHG 1  36  -1
M  CHG 1  40  -1
M  END
> <minimizedAffinity>
-7.96956

$$$$
1O2Z_312_A_246


 40 43  0  0  0  0  0  0  0  0999 V2000
   41.7745   -2.0195   31.2619 C   0  0  0  0  0  0  0  0  0  0  0  0
   42.0663   -2.9164   32.3046 C   0  0  0  0  0  0  0  0  0  0  0  0
   41.4170   -2.8577   33.5397 C   0  0  0  0  0  0  0  0  0  0  0  0
   40.4733   -1.8892   33.7451 C   0  0  0  0  0  0  0  0  0  0  0  0
   40.1435   -0.9753   32.7915 C   0  0  0  0  0  0  0  0  0  0  0  0
   40.7835   -1.0420   31.5472 C   0  0  0  0  0  0  0  0  0  0  0  0
   40.4066   -0.1550   30.5484 O   0  0  0  0  0  0  0  0  0  0  0  0
   44.2890   -2.9023   26.0649 C   0  0  0  0  0  0  0  0  0  0  0  0
   44.8426   -1.6174   26.3601 C   0  0  0  0  0  0  0  0  0  0  0  0
   44.5598   -0.9288   27.5549 C   0  0  0  0  0  0  0  0  0  0  0  0
   43.6960   -1.5392   28.4386 C   0  0  0  0  0  0  0  0  0  0  0  0
   43.1376   -2.7352   28.1992 C   0  0  0  0  0  0  0  0  0  0  0  0
   43.4013   -3.4656   27.0339 C   0  0  0  0  0  0  0  0  0  0  0  0
   43.2358   -1.1462   29.5794 N   0  0  0  0  0  0  0  0  0  0  0  0
   42.3362   -3.1239   29.1769 N   0  0  0  0  0  0  0  0  0  0  0  0
   42.4482   -2.0865   30.0032 C   0  0  0  0  0  0  0  0  0  0  0  0
   43.4420   -0.2995   30.0375 H   0  0  0  0  0  0  0  0  0  0  0  0
   44.5889   -3.5596   24.8531 C   0  0  0  0  0  0  0  0  0  0  0  0
   44.6770   -4.8763   24.8275 N   0  0  0  0  0  0  0  0  0  0  0  0
   44.7821   -2.8536   23.7549 N   0  0  0  0  0  0  0  0  0  0  0  0
   44.5314   -5.3955   25.6511 H   0  0  0  0  0  0  0  0  0  0  0  0
   44.8882   -5.3391   23.9846 H   0  0  0  0  0  0  0  0  0  0  0  0
   44.7146   -1.8718   23.7827 H   0  0  0  0  0  0  0  0  0  0  0  0
   44.9937   -3.3087   22.9080 H   0  0  0  0  0  0  0  0  0  0  0  0
   39.2558    0.0224   33.1846 C   0  0  0  0  0  0  0  0  0  0  0  0
   37.9591    0.2134   32.6368 C   0  0  0  0  0  0  0  0  0  0  0  0
   37.1357    1.2425   33.1226 C   0  0  0  0  0  0  0  0  0  0  0  0
   37.5718    2.0776   34.1263 C   0  0  0  0  0  0  0  0  0  0  0  0
   38.8209    1.9162   34.6765 C   0  0  0  0  0  0  0  0  0  0  0  0
   39.6607    0.8925   34.2105 C   0  0  0  0  0  0  0  0  0  0  0  0
   37.4913   -0.6123   31.6270 O   0  0  0  0  0  0  0  0  0  0  0  0
   36.5482   -1.6641   31.8789 C   0  0  0  0  0  0  0  0  0  0  0  0
   41.7608   -3.8643   34.6680 C   0  0  0  0  0  0  0  0  0  0  0  0
   41.3199   -5.2235   34.0887 C   0  0  0  0  0  0  0  0  0  0  0  0
   40.1086   -5.3710   33.9753 O   0  0  0  0  0  0  0  0  0  0  0  0
   42.1753   -6.0504   33.8029 O   0  0  0  0  0  0  0  0  0  0  0  0
   41.0758   -3.5136   36.1102 C   0  0  0  0  0  0  0  0  0  0  0  0
   42.0537   -2.9122   37.1912 C   0  0  0  0  0  0  0  0  0  0  0  0
   41.9172   -3.2308   38.3665 O   0  0  0  0  0  0  0  0  0  0  0  0
   42.9246   -2.1332   36.8058 O   0  0  0  0  0  0  0  0  0  0  0  0
  8  9  2  0  0  0
  8 13  1  0  0  0
  8 18  1  0  0  0
  9 10  1  0  0  0
 10 11  2  0  0  0
 11 12  1  0  0  0
 11 14  1  0  0  0
 12 13  2  0  0  0
 12 15  1  0  0  0
 18 19  1  0  0  0
 18 20  2  0  0  0
 14 16  1  0  0  0
 15 16  2  0  0  0
 16  1  1  0  0  0
  1  2  2  0  0  0
  1  6  1  0  0  0
  2  3  1  0  0  0
  3 33  1  0  0  0
  3  4  2  0  0  0
 33 34  1  0  0  0
 33 37  1  0  0  0
 34 35  2  0  0  0
 34 36  1  0  0  0
 37 38  1  0  0  0
 38 39  2  0  0  0
 38 40  1  0  0  0
  4  5  1  0  0  0
  5  6  2  0  0  0
  5 25  1  0  0  0
  6  7  1  0  0  0
 25 26  2  0  0  0
 25 30  1  0  0  0
 26 27  1  0  0  0
 26 31  1  0  0  0
 27 28  2  0  0  0
 28 29  1  0  0  0
 29 30  2  0  0  0
 31 32  1  0  0  0
 19 21  1  0  0  0
 19 22  1  0  0  0
 20 23  1  0  0  0
 20 24  1  0  0  0
 14 17  1  0  0  0
M  CHG 1   7  -1
M  CHG 1  20   1
M  CHG 1  36  -1
M  CHG 1  40  -1
M  END
> <minimizedAffinity>
-7.83619

$$$$
1O2Z_312_A_246


 40 43  0  0  0  0  0  0  0  0999 V2000
   42.4758   -0.7696   32.5307 C   0  0  0  0  0  0  0  0  0  0  0  0
   41.1260   -0.7187   32.9209 C   0  0  0  0  0  0  0  0  0  0  0  0
   40.7195   -0.1221   34.1165 C   0  0  0  0  0  0  0  0  0  0  0  0
   41.6670    0.4215   34.9397 C   0  0  0  0  0  0  0  0  0  0  0  0
   42.9949    0.4006   34.6405 C   0  0  0  0  0  0  0  0  0  0  0  0
   43.4027   -0.1845   33.4348 C   0  0  0  0  0  0  0  0  0  0  0  0
   44.7474   -0.1521   33.0921 O   0  0  0  0  0  0  0  0  0  0  0  0
   44.0607   -2.6990   27.2509 C   0  0  0  0  0  0  0  0  0  0  0  0
   44.0544   -3.9479   27.9470 C   0  0  0  0  0  0  0  0  0  0  0  0
   43.7099   -4.0531   29.3079 C   0  0  0  0  0  0  0  0  0  0  0  0
   43.3933   -2.8834   29.9646 C   0  0  0  0  0  0  0  0  0  0  0  0
   43.4018   -1.6859   29.3600 C   0  0  0  0  0  0  0  0  0  0  0  0
   43.7210   -1.5328   28.0052 C   0  0  0  0  0  0  0  0  0  0  0  0
   43.0715   -2.6652   31.1961 N   0  0  0  0  0  0  0  0  0  0  0  0
   43.0755   -0.7022   30.1816 N   0  0  0  0  0  0  0  0  0  0  0  0
   42.8807   -1.3863   31.3066 C   0  0  0  0  0  0  0  0  0  0  0  0
   42.9874   -3.3371   31.9107 H   0  0  0  0  0  0  0  0  0  0  0  0
   44.4193   -2.6308   25.8881 C   0  0  0  0  0  0  0  0  0  0  0  0
   44.4676   -1.4592   25.2822 N   0  0  0  0  0  0  0  0  0  0  0  0
   44.7008   -3.7386   25.2282 N   0  0  0  0  0  0  0  0  0  0  0  0
   44.2562   -0.6376   25.7817 H   0  0  0  0  0  0  0  0  0  0  0  0
   44.7152   -1.4069   24.3307 H   0  0  0  0  0  0  0  0  0  0  0  0
   44.6623   -4.6085   25.6876 H   0  0  0  0  0  0  0  0  0  0  0  0
   44.9492   -3.6950   24.2765 H   0  0  0  0  0  0  0  0  0  0  0  0
   43.8498    0.8829   35.6276 C   0  0  0  0  0  0  0  0  0  0  0  0
   44.3346    0.1181   36.7223 C   0  0  0  0  0  0  0  0  0  0  0  0
   45.2115    0.7004   37.6525 C   0  0  0  0  0  0  0  0  0  0  0  0
   45.6074    2.0122   37.5203 C   0  0  0  0  0  0  0  0  0  0  0  0
   45.1558    2.7762   36.4708 C   0  0  0  0  0  0  0  0  0  0  0  0
   44.2819    2.2157   35.5261 C   0  0  0  0  0  0  0  0  0  0  0  0
   43.9556   -1.2052   36.8810 O   0  0  0  0  0  0  0  0  0  0  0  0
   43.8188   -1.8080   38.1761 C   0  0  0  0  0  0  0  0  0  0  0  0
   39.2218   -0.0804   34.5160 C   0  0  0  0  0  0  0  0  0  0  0  0
   38.8032   -1.5643   34.5109 C   0  0  0  0  0  0  0  0  0  0  0  0
   37.9783   -1.8679   33.6569 O   0  0  0  0  0  0  0  0  0  0  0  0
   39.2901   -2.3194   35.3415 O   0  0  0  0  0  0  0  0  0  0  0  0
   38.2978    0.8643   33.5537 C   0  0  0  0  0  0  0  0  0  0  0  0
   37.6695    2.1290   34.2554 C   0  0  0  0  0  0  0  0  0  0  0  0
   36.7769    2.7478   33.6881 O   0  0  0  0  0  0  0  0  0  0  0  0
   38.1096    2.4501   35.3585 O   0  0  0  0  0  0  0  0  0  0  0  0
  8  9  2  0  0  0
  8 13  1  0  0  0
  8 18  1  0  0  0
  9 10  1  0  0  0
 10 11  2  0  0  0
 11 12  1  0  0  0
 11 14  1  0  0  0
 12 13  2  0  0  0
 12 15  1  0  0  0
 18 19  1  0  0  0
 18 20  2  0  0  0
 14 16  1  0  0  0
 15 16  2  0  0  0
 16  1  1  0  0  0
  1  2  2  0  0  0
  1  6  1  0  0  0
  2  3  1  0  0  0
  3 33  1  0  0  0
  3  4  2  0  0  0
 33 34  1  0  0  0
 33 37  1  0  0  0
 34 35  2  0  0  0
 34 36  1  0  0  0
 37 38  1  0  0  0
 38 39  2  0  0  0
 38 40  1  0  0  0
  4  5  1  0  0  0
  5  6  2  0  0  0
  5 25  1  0  0  0
  6  7  1  0  0  0
 25 26  2  0  0  0
 25 30  1  0  0  0
 26 27  1  0  0  0
 26 31  1  0  0  0
 27 28  2  0  0  0
 28 29  1  0  0  0
 29 30  2  0  0  0
 31 32  1  0  0  0
 19 21  1  0  0  0
 19 22  1  0  0  0
 20 23  1  0  0  0
 20 24  1  0  0  0
 14 17  1  0  0  0
M  CHG 1   7  -1
M  CHG 1  20   1
M  CHG 1  36  -1
M  CHG 1  40  -1
M  END
> <minimizedAffinity>
-7.83315

$$$$
