3SI4_B04_H_1


 30 32  0  0  0  0  0  0  0  0999 V2000
   17.8073  -13.4422   22.6101 C   0  0  0  0  0  0  0  0  0  0  0  0
   16.8157  -12.8304   22.9871 O   0  0  0  0  0  0  0  0  0  0  0  0
   18.6048  -12.9464   21.6613 N   0  0  0  0  0  0  0  0  0  0  0  0
   18.2643  -11.6589   21.0552 C   0  0  0  0  0  0  0  0  0  0  0  0
   19.3143  -11.4580   19.9694 C   0  0  0  0  0  0  0  0  0  0  0  0
   20.4441  -12.4027   20.3191 C   0  0  0  0  0  0  0  0  0  0  0  0
   19.8152  -13.5504   21.0976 C   0  0  0  0  0  0  0  0  0  0  0  0
   16.9455  -15.5897   23.1934 N   0  0  0  0  0  0  0  0  0  0  0  0
   18.1489  -14.7787   23.2117 C   0  0  0  0  0  0  0  0  0  0  0  0
   17.1462  -16.5050   23.5964 H   0  0  0  0  0  0  0  0  0  0  0  0
   16.6272  -15.7043   22.2312 H   0  0  0  0  0  0  0  0  0  0  0  0
   18.6180  -14.6689   24.6591 C   0  0  0  0  0  0  0  0  0  0  0  0
   19.9729  -14.0113   24.7305 C   0  0  0  0  0  0  0  0  0  0  0  0
   20.1368  -12.7582   25.3187 C   0  0  0  0  0  0  0  0  0  0  0  0
   21.0601  -14.6719   24.1784 C   0  0  0  0  0  0  0  0  0  0  0  0
   21.3992  -12.1737   25.3600 C   0  0  0  0  0  0  0  0  0  0  0  0
   22.3183  -14.0883   24.2264 C   0  0  0  0  0  0  0  0  0  0  0  0
   22.4909  -12.8419   24.8164 C   0  0  0  0  0  0  0  0  0  0  0  0
   16.8880  -11.7541   20.4488 C   0  0  0  0  0  0  0  0  0  0  0  0
   16.6651  -12.5746   19.5699 O   0  0  0  0  0  0  0  0  0  0  0  0
   15.9290  -10.9486   20.9096 N   0  0  0  0  0  0  0  0  0  0  0  0
   16.1663  -10.3267   21.6349 H   0  0  0  0  0  0  0  0  0  0  0  0
   14.5532  -10.9203   20.4183 C   0  0  0  0  0  0  0  0  0  0  0  0
   13.5660  -10.5941   21.5181 C   0  0  0  0  0  0  0  0  0  0  0  0
   13.4783   -9.2968   22.0172 C   0  0  0  0  0  0  0  0  0  0  0  0
   12.5725   -9.0169   23.0306 C   0  0  0  0  0  0  0  0  0  0  0  0
   11.7618  -10.0389   23.5113 C   0  0  0  0  0  0  0  0  0  0  0  0
   11.8900  -11.3127   22.9714 C   0  0  0  0  0  0  0  0  0  0  0  0
   12.7775  -11.5658   22.0006 N   0  0  0  0  0  0  0  0  0  0  0  0
   12.8829  -12.9242   21.4578 C   0  0  0  0  0  0  0  0  0  0  0  0
 13 12  1  0  0  0
 13 14  2  0  0  0
 13 15  1  0  0  0
 12  9  1  0  0  0
  9  8  1  0  0  0
  9  1  1  0  0  0
  1  3  1  0  0  0
  1  2  2  0  0  0
  3  4  1  0  0  0
  3  7  1  0  0  0
 14 16  1  0  0  0
 16 18  2  0  0  0
 18 17  1  0  0  0
 17 15  2  0  0  0
  4 19  1  0  0  0
  4  5  1  0  0  0
 19 20  2  0  0  0
 19 21  1  0  0  0
 21 23  1  0  0  0
 23 24  1  0  0  0
 24 25  2  0  0  0
 24 29  1  0  0  0
  5  6  1  0  0  0
  6  7  1  0  0  0
 25 26  1  0  0  0
 26 27  2  0  0  0
 27 28  1  0  0  0
 28 29  2  0  0  0
 29 30  1  0  0  0
  8 10  1  0  0  0
  8 11  1  0  0  0
 21 22  1  0  0  0
M  CHG 1  29   1
M  END
> <minimizedAffinity>
-9.35399

$$$$
3SI4_B04_H_1


 30 32  0  0  0  0  0  0  0  0999 V2000
   17.3106  -12.7125   20.3043 C   0  0  0  0  0  0  0  0  0  0  0  0
   17.1895  -12.1831   19.2067 O   0  0  0  0  0  0  0  0  0  0  0  0
   16.6198  -13.8101   20.6212 N   0  0  0  0  0  0  0  0  0  0  0  0
   15.6899  -14.3668   19.6384 C   0  0  0  0  0  0  0  0  0  0  0  0
   15.0201  -15.5289   20.3613 C   0  0  0  0  0  0  0  0  0  0  0  0
   15.9214  -15.8493   21.5344 C   0  0  0  0  0  0  0  0  0  0  0  0
   16.6445  -14.5552   21.8829 C   0  0  0  0  0  0  0  0  0  0  0  0
   18.4160  -10.7223   21.0198 N   0  0  0  0  0  0  0  0  0  0  0  0
   18.2466  -12.1303   21.3288 C   0  0  0  0  0  0  0  0  0  0  0  0
   19.0477  -10.2987   21.6995 H   0  0  0  0  0  0  0  0  0  0  0  0
   17.5106  -10.2543   21.0592 H   0  0  0  0  0  0  0  0  0  0  0  0
   19.6246  -12.7843   21.3047 C   0  0  0  0  0  0  0  0  0  0  0  0
   20.1561  -12.9563   22.7051 C   0  0  0  0  0  0  0  0  0  0  0  0
   19.2944  -13.1004   23.7913 C   0  0  0  0  0  0  0  0  0  0  0  0
   21.5293  -12.9491   22.8984 C   0  0  0  0  0  0  0  0  0  0  0  0
   19.8165  -13.2475   25.0730 C   0  0  0  0  0  0  0  0  0  0  0  0
   22.0463  -13.1015   24.1773 C   0  0  0  0  0  0  0  0  0  0  0  0
   21.1938  -13.2517   25.2646 C   0  0  0  0  0  0  0  0  0  0  0  0
   14.6747  -13.3135   19.2763 C   0  0  0  0  0  0  0  0  0  0  0  0
   14.3092  -13.1933   18.1155 O   0  0  0  0  0  0  0  0  0  0  0  0
   14.1750  -12.5463   20.2472 N   0  0  0  0  0  0  0  0  0  0  0  0
   14.4923  -12.7089   21.1648 H   0  0  0  0  0  0  0  0  0  0  0  0
   13.1923  -11.4830   20.0505 C   0  0  0  0  0  0  0  0  0  0  0  0
   12.6813  -10.9341   21.3650 C   0  0  0  0  0  0  0  0  0  0  0  0
   11.7894  -11.6775   22.1342 C   0  0  0  0  0  0  0  0  0  0  0  0
   11.3254  -11.1558   23.3335 C   0  0  0  0  0  0  0  0  0  0  0  0
   11.7777   -9.9073   23.7453 C   0  0  0  0  0  0  0  0  0  0  0  0
   12.6716   -9.2135   22.9389 C   0  0  0  0  0  0  0  0  0  0  0  0
   13.1001   -9.7292   21.7793 N   0  0  0  0  0  0  0  0  0  0  0  0
   14.0431   -8.9647   20.9563 C   0  0  0  0  0  0  0  0  0  0  0  0
 13 12  1  0  0  0
 13 14  2  0  0  0
 13 15  1  0  0  0
 12  9  1  0  0  0
  9  8  1  0  0  0
  9  1  1  0  0  0
  1  3  1  0  0  0
  1  2  2  0  0  0
  3  4  1  0  0  0
  3  7  1  0  0  0
 14 16  1  0  0  0
 16 18  2  0  0  0
 18 17  1  0  0  0
 17 15  2  0  0  0
  4 19  1  0  0  0
  4  5  1  0  0  0
 19 20  2  0  0  0
 19 21  1  0  0  0
 21 23  1  0  0  0
 23 24  1  0  0  0
 24 25  2  0  0  0
 24 29  1  0  0  0
  5  6  1  0  0  0
  6  7  1  0  0  0
 25 26  1  0  0  0
 26 27  2  0  0  0
 27 28  1  0  0  0
 28 29  2  0  0  0
 29 30  1  0  0  0
  8 10  1  0  0  0
  8 11  1  0  0  0
 21 22  1  0  0  0
M  CHG 1  29   1
M  END
> <minimizedAffinity>
-8.02018

$$$$
3SI4_B04_H_1


 30 32  0  0  0  0  0  0  0  0999 V2000
   17.7092  -13.2572   22.3810 C   0  0  0  0  0  0  0  0  0  0  0  0
   16.6951  -12.6244   22.6467 O   0  0  0  0  0  0  0  0  0  0  0  0
   18.5586  -12.8369   21.4407 N   0  0  0  0  0  0  0  0  0  0  0  0
   18.2489  -11.6087   20.7083 C   0  0  0  0  0  0  0  0  0  0  0  0
   19.3593  -11.4916   19.6715 C   0  0  0  0  0  0  0  0  0  0  0  0
   20.4706  -12.3931   20.1650 C   0  0  0  0  0  0  0  0  0  0  0  0
   19.8020  -13.4759   21.0013 C   0  0  0  0  0  0  0  0  0  0  0  0
   16.8164  -15.3448   23.1158 N   0  0  0  0  0  0  0  0  0  0  0  0
   18.0206  -14.5346   23.1132 C   0  0  0  0  0  0  0  0  0  0  0  0
   16.9968  -16.2204   23.6068 H   0  0  0  0  0  0  0  0  0  0  0  0
   16.5391  -15.5447   22.1548 H   0  0  0  0  0  0  0  0  0  0  0  0
   18.4279  -14.2961   24.5638 C   0  0  0  0  0  0  0  0  0  0  0  0
   19.8699  -13.8637   24.6469 C   0  0  0  0  0  0  0  0  0  0  0  0
   20.2174  -12.5947   25.1071 C   0  0  0  0  0  0  0  0  0  0  0  0
   20.8527  -14.7515   24.2356 C   0  0  0  0  0  0  0  0  0  0  0  0
   21.5573  -12.2224   25.1626 C   0  0  0  0  0  0  0  0  0  0  0  0
   22.1881  -14.3787   24.2976 C   0  0  0  0  0  0  0  0  0  0  0  0
   22.5429  -13.1173   24.7608 C   0  0  0  0  0  0  0  0  0  0  0  0
   16.9104  -11.7672   20.0341 C   0  0  0  0  0  0  0  0  0  0  0  0
   16.1645  -10.8041   19.9269 O   0  0  0  0  0  0  0  0  0  0  0  0
   16.5796  -12.9629   19.5424 N   0  0  0  0  0  0  0  0  0  0  0  0
   17.2340  -13.6920   19.6395 H   0  0  0  0  0  0  0  0  0  0  0  0
   15.3192  -13.2711   18.8706 C   0  0  0  0  0  0  0  0  0  0  0  0
   14.5014  -14.2863   19.6395 C   0  0  0  0  0  0  0  0  0  0  0  0
   14.8978  -15.6210   19.6759 C   0  0  0  0  0  0  0  0  0  0  0  0
   14.1322  -16.5398   20.3797 C   0  0  0  0  0  0  0  0  0  0  0  0
   12.9945  -16.0991   21.0462 C   0  0  0  0  0  0  0  0  0  0  0  0
   12.6508  -14.7546   20.9787 C   0  0  0  0  0  0  0  0  0  0  0  0
   13.3969  -13.8845   20.2855 N   0  0  0  0  0  0  0  0  0  0  0  0
   12.9997  -12.4735   20.2380 C   0  0  0  0  0  0  0  0  0  0  0  0
 13 12  1  0  0  0
 13 14  2  0  0  0
 13 15  1  0  0  0
 12  9  1  0  0  0
  9  8  1  0  0  0
  9  1  1  0  0  0
  1  3  1  0  0  0
  1  2  2  0  0  0
  3  4  1  0  0  0
  3  7  1  0  0  0
 14 16  1  0  0  0
 16 18  2  0  0  0
 18 17  1  0  0  0
 17 15  2  0  0  0
  4 19  1  0  0  0
  4  5  1  0  0  0
 19 20  2  0  0  0
 19 21  1  0  0  0
 21 23  1  0  0  0
 23 24  1  0  0  0
 24 25  2  0  0  0
 24 29  1  0  0  0
  5  6  1  0  0  0
  6  7  1  0  0  0
 25 26  1  0  0  0
 26 27  2  0  0  0
 27 28  1  0  0  0
 28 29  2  0  0  0
 29 30  1  0  0  0
  8 10  1  0  0  0
  8 11  1  0  0  0
 21 22  1  0  0  0
M  CHG 1  29   1
M  END
> <minimizedAffinity>
-7.91039

$$$$
3SI4_B04_H_1


 30 32  0  0  0  0  0  0  0  0999 V2000
   17.3104  -13.6162   21.2741 C   0  0  0  0  0  0  0  0  0  0  0  0
   16.9090  -13.2795   20.1672 O   0  0  0  0  0  0  0  0  0  0  0  0
   16.9308  -14.7720   21.8237 N   0  0  0  0  0  0  0  0  0  0  0  0
   16.0021  -15.6313   21.0890 C   0  0  0  0  0  0  0  0  0  0  0  0
   15.7196  -16.7889   22.0387 C   0  0  0  0  0  0  0  0  0  0  0  0
   16.8397  -16.7601   23.0565 C   0  0  0  0  0  0  0  0  0  0  0  0
   17.3112  -15.3141   23.1311 C   0  0  0  0  0  0  0  0  0  0  0  0
   18.1256  -11.3849   21.5017 N   0  0  0  0  0  0  0  0  0  0  0  0
   18.2459  -12.7250   22.0458 C   0  0  0  0  0  0  0  0  0  0  0  0
   18.7500  -10.7558   22.0063 H   0  0  0  0  0  0  0  0  0  0  0  0
   17.1633  -11.0621   21.6027 H   0  0  0  0  0  0  0  0  0  0  0  0
   19.7044  -13.1533   21.9181 C   0  0  0  0  0  0  0  0  0  0  0  0
   20.4078  -13.0479   23.2476 C   0  0  0  0  0  0  0  0  0  0  0  0
   19.6897  -12.9693   24.4397 C   0  0  0  0  0  0  0  0  0  0  0  0
   21.7940  -13.0105   23.2628 C   0  0  0  0  0  0  0  0  0  0  0  0
   20.3686  -12.8629   25.6500 C   0  0  0  0  0  0  0  0  0  0  0  0
   22.4676  -12.9098   24.4721 C   0  0  0  0  0  0  0  0  0  0  0  0
   21.7588  -12.8371   25.6653 C   0  0  0  0  0  0  0  0  0  0  0  0
   14.7398  -14.8575   20.8083 C   0  0  0  0  0  0  0  0  0  0  0  0
   14.2091  -14.9357   19.7093 O   0  0  0  0  0  0  0  0  0  0  0  0
   14.2124  -14.1178   21.7858 N   0  0  0  0  0  0  0  0  0  0  0  0
   14.6744  -14.1158   22.6551 H   0  0  0  0  0  0  0  0  0  0  0  0
   13.0007  -13.3105   21.6626 C   0  0  0  0  0  0  0  0  0  0  0  0
   13.3058  -11.8282   21.6597 C   0  0  0  0  0  0  0  0  0  0  0  0
   14.3680  -11.3341   20.9064 C   0  0  0  0  0  0  0  0  0  0  0  0
   14.6380   -9.9730   20.9210 C   0  0  0  0  0  0  0  0  0  0  0  0
   13.8278   -9.1331   21.6767 C   0  0  0  0  0  0  0  0  0  0  0  0
   12.7792   -9.6821   22.4043 C   0  0  0  0  0  0  0  0  0  0  0  0
   12.5406  -11.0000   22.3859 N   0  0  0  0  0  0  0  0  0  0  0  0
   11.4241  -11.5405   23.1685 C   0  0  0  0  0  0  0  0  0  0  0  0
 13 12  1  0  0  0
 13 14  2  0  0  0
 13 15  1  0  0  0
 12  9  1  0  0  0
  9  8  1  0  0  0
  9  1  1  0  0  0
  1  3  1  0  0  0
  1  2  2  0  0  0
  3  4  1  0  0  0
  3  7  1  0  0  0
 14 16  1  0  0  0
 16 18  2  0  0  0
 18 17  1  0  0  0
 17 15  2  0  0  0
  4 19  1  0  0  0
  4  5  1  0  0  0
 19 20  2  0  0  0
 19 21  1  0  0  0
 21 23  1  0  0  0
 23 24  1  0  0  0
 24 25  2  0  0  0
 24 29  1  0  0  0
  5  6  1  0  0  0
  6  7  1  0  0  0
 25 26  1  0  0  0
 26 27  2  0  0  0
 27 28  1  0  0  0
 28 29  2  0  0  0
 29 30  1  0  0  0
  8 10  1  0  0  0
  8 11  1  0  0  0
 21 22  1  0  0  0
M  CHG 1  29   1
M  END
> <minimizedAffinity>
-7.69140

$$$$
3SI4_B04_H_1


 30 32  0  0  0  0  0  0  0  0999 V2000
   15.3723  -12.2614   21.3757 C   0  0  0  0  0  0  0  0  0  0  0  0
   15.3288  -13.4751   21.5325 O   0  0  0  0  0  0  0  0  0  0  0  0
   14.3121  -11.4933   21.6366 N   0  0  0  0  0  0  0  0  0  0  0  0
   13.0768  -12.1283   22.0967 C   0  0  0  0  0  0  0  0  0  0  0  0
   12.0739  -10.9856   22.1967 C   0  0  0  0  0  0  0  0  0  0  0  0
   12.9040   -9.7203   22.2316 C   0  0  0  0  0  0  0  0  0  0  0  0
   14.1986  -10.0390   21.4959 C   0  0  0  0  0  0  0  0  0  0  0  0
   16.2739  -10.7625   19.7523 N   0  0  0  0  0  0  0  0  0  0  0  0
   16.6320  -11.6049   20.8786 C   0  0  0  0  0  0  0  0  0  0  0  0
   17.1101  -10.3025   19.3924 H   0  0  0  0  0  0  0  0  0  0  0  0
   15.6017  -10.0576   20.0551 H   0  0  0  0  0  0  0  0  0  0  0  0
   17.6700  -12.6140   20.3975 C   0  0  0  0  0  0  0  0  0  0  0  0
   18.7720  -12.7690   21.4147 C   0  0  0  0  0  0  0  0  0  0  0  0
   20.1092  -12.5930   21.0625 C   0  0  0  0  0  0  0  0  0  0  0  0
   18.4309  -13.1120   22.7144 C   0  0  0  0  0  0  0  0  0  0  0  0
   21.1038  -12.7528   22.0228 C   0  0  0  0  0  0  0  0  0  0  0  0
   19.4251  -13.2652   23.6705 C   0  0  0  0  0  0  0  0  0  0  0  0
   20.7601  -13.0855   23.3285 C   0  0  0  0  0  0  0  0  0  0  0  0
   12.6320  -13.1336   21.0659 C   0  0  0  0  0  0  0  0  0  0  0  0
   12.2561  -12.7528   19.9662 O   0  0  0  0  0  0  0  0  0  0  0  0
   12.6844  -14.4311   21.3736 N   0  0  0  0  0  0  0  0  0  0  0  0
   13.0192  -14.6739   22.2670 H   0  0  0  0  0  0  0  0  0  0  0  0
   12.2822  -15.5183   20.4841 C   0  0  0  0  0  0  0  0  0  0  0  0
   13.4690  -16.1488   19.7881 C   0  0  0  0  0  0  0  0  0  0  0  0
   14.1106  -15.4759   18.7512 C   0  0  0  0  0  0  0  0  0  0  0  0
   15.1927  -16.0719   18.1193 C   0  0  0  0  0  0  0  0  0  0  0  0
   15.6200  -17.3226   18.5506 C   0  0  0  0  0  0  0  0  0  0  0  0
   14.9442  -17.9442   19.5934 C   0  0  0  0  0  0  0  0  0  0  0  0
   13.8950  -17.3573   20.1842 N   0  0  0  0  0  0  0  0  0  0  0  0
   13.2079  -18.0469   21.2812 C   0  0  0  0  0  0  0  0  0  0  0  0
 13 12  1  0  0  0
 13 14  2  0  0  0
 13 15  1  0  0  0
 12  9  1  0  0  0
  9  8  1  0  0  0
  9  1  1  0  0  0
  1  3  1  0  0  0
  1  2  2  0  0  0
  3  4  1  0  0  0
  3  7  1  0  0  0
 14 16  1  0  0  0
 16 18  2  0  0  0
 18 17  1  0  0  0
 17 15  2  0  0  0
  4 19  1  0  0  0
  4  5  1  0  0  0
 19 20  2  0  0  0
 19 21  1  0  0  0
 21 23  1  0  0  0
 23 24  1  0  0  0
 24 25  2  0  0  0
 24 29  1  0  0  0
  5  6  1  0  0  0
  6  7  1  0  0  0
 25 26  1  0  0  0
 26 27  2  0  0  0
 27 28  1  0  0  0
 28 29  2  0  0  0
 29 30  1  0  0  0
  8 10  1  0  0  0
  8 11  1  0  0  0
 21 22  1  0  0  0
M  CHG 1  29   1
M  END
> <minimizedAffinity>
-7.56021

$$$$
3SI4_B04_H_1


 30 32  0  0  0  0  0  0  0  0999 V2000
   16.8623  -13.4176   20.4369 C   0  0  0  0  0  0  0  0  0  0  0  0
   16.6526  -12.8874   19.3531 O   0  0  0  0  0  0  0  0  0  0  0  0
   16.3981  -14.6394   20.7088 N   0  0  0  0  0  0  0  0  0  0  0  0
   15.6087  -15.3365   19.6931 C   0  0  0  0  0  0  0  0  0  0  0  0
   15.1728  -16.6304   20.3693 C   0  0  0  0  0  0  0  0  0  0  0  0
   16.1050  -16.8046   21.5491 C   0  0  0  0  0  0  0  0  0  0  0  0
   16.5538  -15.4053   21.9484 C   0  0  0  0  0  0  0  0  0  0  0  0
   17.4612  -11.2714   21.2911 N   0  0  0  0  0  0  0  0  0  0  0  0
   17.6521  -12.6956   21.4950 C   0  0  0  0  0  0  0  0  0  0  0  0
   17.9863  -10.7536   21.9959 H   0  0  0  0  0  0  0  0  0  0  0  0
   16.4697  -11.0461   21.3723 H   0  0  0  0  0  0  0  0  0  0  0  0
   19.1476  -12.9845   21.4116 C   0  0  0  0  0  0  0  0  0  0  0  0
   19.7494  -13.0748   22.7911 C   0  0  0  0  0  0  0  0  0  0  0  0
   21.1079  -12.8449   23.0023 C   0  0  0  0  0  0  0  0  0  0  0  0
   18.9242  -13.4127   23.8533 C   0  0  0  0  0  0  0  0  0  0  0  0
   21.6346  -12.9456   24.2866 C   0  0  0  0  0  0  0  0  0  0  0  0
   19.4521  -13.5069   25.1334 C   0  0  0  0  0  0  0  0  0  0  0  0
   20.8044  -13.2732   25.3529 C   0  0  0  0  0  0  0  0  0  0  0  0
   14.4100  -14.4928   19.3432 C   0  0  0  0  0  0  0  0  0  0  0  0
   14.0834  -14.3542   18.1728 O   0  0  0  0  0  0  0  0  0  0  0  0
   13.7115  -13.9325   20.3325 N   0  0  0  0  0  0  0  0  0  0  0  0
   14.0118  -14.1020   21.2547 H   0  0  0  0  0  0  0  0  0  0  0  0
   12.5344  -13.0862   20.1500 C   0  0  0  0  0  0  0  0  0  0  0  0
   12.6194  -11.8144   20.9659 C   0  0  0  0  0  0  0  0  0  0  0  0
   12.0668  -11.7645   22.2434 C   0  0  0  0  0  0  0  0  0  0  0  0
   12.1475  -10.5879   22.9747 C   0  0  0  0  0  0  0  0  0  0  0  0
   12.7950   -9.4910   22.4175 C   0  0  0  0  0  0  0  0  0  0  0  0
   13.3318   -9.6010   21.1407 C   0  0  0  0  0  0  0  0  0  0  0  0
   13.2347  -10.7421   20.4460 N   0  0  0  0  0  0  0  0  0  0  0  0
   13.8139  -10.8174   19.1007 C   0  0  0  0  0  0  0  0  0  0  0  0
 13 12  1  0  0  0
 13 14  2  0  0  0
 13 15  1  0  0  0
 12  9  1  0  0  0
  9  8  1  0  0  0
  9  1  1  0  0  0
  1  3  1  0  0  0
  1  2  2  0  0  0
  3  4  1  0  0  0
  3  7  1  0  0  0
 14 16  1  0  0  0
 16 18  2  0  0  0
 18 17  1  0  0  0
 17 15  2  0  0  0
  4 19  1  0  0  0
  4  5  1  0  0  0
 19 20  2  0  0  0
 19 21  1  0  0  0
 21 23  1  0  0  0
 23 24  1  0  0  0
 24 25  2  0  0  0
 24 29  1  0  0  0
  5  6  1  0  0  0
  6  7  1  0  0  0
 25 26  1  0  0  0
 26 27  2  0  0  0
 27 28  1  0  0  0
 28 29  2  0  0  0
 29 30  1  0  0  0
  8 10  1  0  0  0
  8 11  1  0  0  0
 21 22  1  0  0  0
M  CHG 1  29   1
M  END
> <minimizedAffinity>
-7.54465

$$$$
3SI4_B04_H_1


 30 32  0  0  0  0  0  0  0  0999 V2000
   15.2679  -12.6069   20.6215 C   0  0  0  0  0  0  0  0  0  0  0  0
   15.9662  -12.5731   21.6270 O   0  0  0  0  0  0  0  0  0  0  0  0
   14.5398  -13.6851   20.3228 N   0  0  0  0  0  0  0  0  0  0  0  0
   14.6033  -14.8472   21.2095 C   0  0  0  0  0  0  0  0  0  0  0  0
   13.7437  -15.9005   20.5214 C   0  0  0  0  0  0  0  0  0  0  0  0
   12.8829  -15.1397   19.5358 C   0  0  0  0  0  0  0  0  0  0  0  0
   13.6651  -13.8870   19.1644 C   0  0  0  0  0  0  0  0  0  0  0  0
   16.0301  -10.3722   20.2749 N   0  0  0  0  0  0  0  0  0  0  0  0
   15.2179  -11.4243   19.6921 C   0  0  0  0  0  0  0  0  0  0  0  0
   16.0157   -9.5544   19.6654 H   0  0  0  0  0  0  0  0  0  0  0  0
   16.9898  -10.7017   20.3790 H   0  0  0  0  0  0  0  0  0  0  0  0
   13.8048  -10.8791   19.5106 C   0  0  0  0  0  0  0  0  0  0  0  0
   13.2033  -10.5073   20.8422 C   0  0  0  0  0  0  0  0  0  0  0  0
   13.5867   -9.3441   21.5077 C   0  0  0  0  0  0  0  0  0  0  0  0
   12.2675  -11.3602   21.4080 C   0  0  0  0  0  0  0  0  0  0  0  0
   13.0197   -9.0340   22.7404 C   0  0  0  0  0  0  0  0  0  0  0  0
   11.7003  -11.0449   22.6348 C   0  0  0  0  0  0  0  0  0  0  0  0
   12.0730   -9.8839   23.3017 C   0  0  0  0  0  0  0  0  0  0  0  0
   16.0340  -15.3113   21.3035 C   0  0  0  0  0  0  0  0  0  0  0  0
   16.6425  -15.6191   20.2883 O   0  0  0  0  0  0  0  0  0  0  0  0
   16.6160  -15.3508   22.5037 N   0  0  0  0  0  0  0  0  0  0  0  0
   16.0799  -15.0673   23.2792 H   0  0  0  0  0  0  0  0  0  0  0  0
   17.9893  -15.7830   22.7533 C   0  0  0  0  0  0  0  0  0  0  0  0
   18.8190  -14.6911   23.3934 C   0  0  0  0  0  0  0  0  0  0  0  0
   18.6675  -14.3998   24.7469 C   0  0  0  0  0  0  0  0  0  0  0  0
   19.4313  -13.3906   25.3158 C   0  0  0  0  0  0  0  0  0  0  0  0
   20.3431  -12.7055   24.5207 C   0  0  0  0  0  0  0  0  0  0  0  0
   20.4545  -13.0431   23.1775 C   0  0  0  0  0  0  0  0  0  0  0  0
   19.7010  -14.0135   22.6439 N   0  0  0  0  0  0  0  0  0  0  0  0
   19.8481  -14.3392   21.2215 C   0  0  0  0  0  0  0  0  0  0  0  0
 13 12  1  0  0  0
 13 14  2  0  0  0
 13 15  1  0  0  0
 12  9  1  0  0  0
  9  8  1  0  0  0
  9  1  1  0  0  0
  1  3  1  0  0  0
  1  2  2  0  0  0
  3  4  1  0  0  0
  3  7  1  0  0  0
 14 16  1  0  0  0
 16 18  2  0  0  0
 18 17  1  0  0  0
 17 15  2  0  0  0
  4 19  1  0  0  0
  4  5  1  0  0  0
 19 20  2  0  0  0
 19 21  1  0  0  0
 21 23  1  0  0  0
 23 24  1  0  0  0
 24 25  2  0  0  0
 24 29  1  0  0  0
  5  6  1  0  0  0
  6  7  1  0  0  0
 25 26  1  0  0  0
 26 27  2  0  0  0
 27 28  1  0  0  0
 28 29  2  0  0  0
 29 30  1  0  0  0
  8 10  1  0  0  0
  8 11  1  0  0  0
 21 22  1  0  0  0
M  CHG 1  29   1
M  END
> <minimizedAffinity>
-7.32417

$$$$
3SI4_B04_H_1


 30 32  0  0  0  0  0  0  0  0999 V2000
   16.0414  -12.1501   21.0056 C   0  0  0  0  0  0  0  0  0  0  0  0
   16.7308  -11.6688   21.8959 O   0  0  0  0  0  0  0  0  0  0  0  0
   15.9464  -13.4719   20.8444 N   0  0  0  0  0  0  0  0  0  0  0  0
   16.7013  -14.3480   21.7407 C   0  0  0  0  0  0  0  0  0  0  0  0
   16.4375  -15.7530   21.2134 C   0  0  0  0  0  0  0  0  0  0  0  0
   15.2021  -15.6349   20.3468 C   0  0  0  0  0  0  0  0  0  0  0  0
   15.1767  -14.2016   19.8331 C   0  0  0  0  0  0  0  0  0  0  0  0
   16.1890  -10.8662   18.9994 N   0  0  0  0  0  0  0  0  0  0  0  0
   15.2825  -11.2537   20.0646 C   0  0  0  0  0  0  0  0  0  0  0  0
   15.7015  -10.2561   18.3433 H   0  0  0  0  0  0  0  0  0  0  0  0
   16.5151  -11.6999   18.5104 H   0  0  0  0  0  0  0  0  0  0  0  0
   14.7826   -9.9808   20.7405 C   0  0  0  0  0  0  0  0  0  0  0  0
   13.5749  -10.2718   21.5950 C   0  0  0  0  0  0  0  0  0  0  0  0
   12.8845  -11.4774   21.4820 C   0  0  0  0  0  0  0  0  0  0  0  0
   13.1471   -9.3025   22.4899 C   0  0  0  0  0  0  0  0  0  0  0  0
   11.7673  -11.7116   22.2784 C   0  0  0  0  0  0  0  0  0  0  0  0
   12.0360   -9.5418   23.2862 C   0  0  0  0  0  0  0  0  0  0  0  0
   11.3458  -10.7438   23.1836 C   0  0  0  0  0  0  0  0  0  0  0  0
   18.1659  -14.0095   21.6342 C   0  0  0  0  0  0  0  0  0  0  0  0
   18.7470  -14.1477   20.5671 O   0  0  0  0  0  0  0  0  0  0  0  0
   18.7933  -13.5374   22.7132 N   0  0  0  0  0  0  0  0  0  0  0  0
   18.2637  -13.4264   23.5357 H   0  0  0  0  0  0  0  0  0  0  0  0
   20.2072  -13.1728   22.7657 C   0  0  0  0  0  0  0  0  0  0  0  0
   20.7757  -13.3093   24.1616 C   0  0  0  0  0  0  0  0  0  0  0  0
   20.6260  -12.2750   25.0822 C   0  0  0  0  0  0  0  0  0  0  0  0
   21.1598  -12.4141   26.3556 C   0  0  0  0  0  0  0  0  0  0  0  0
   21.8180  -13.5935   26.6853 C   0  0  0  0  0  0  0  0  0  0  0  0
   21.9323  -14.5933   25.7273 C   0  0  0  0  0  0  0  0  0  0  0  0
   21.4194  -14.4363   24.4999 N   0  0  0  0  0  0  0  0  0  0  0  0
   21.5619  -15.5152   23.5167 C   0  0  0  0  0  0  0  0  0  0  0  0
 13 12  1  0  0  0
 13 14  2  0  0  0
 13 15  1  0  0  0
 12  9  1  0  0  0
  9  8  1  0  0  0
  9  1  1  0  0  0
  1  3  1  0  0  0
  1  2  2  0  0  0
  3  4  1  0  0  0
  3  7  1  0  0  0
 14 16  1  0  0  0
 16 18  2  0  0  0
 18 17  1  0  0  0
 17 15  2  0  0  0
  4 19  1  0  0  0
  4  5  1  0  0  0
 19 20  2  0  0  0
 19 21  1  0  0  0
 21 23  1  0  0  0
 23 24  1  0  0  0
 24 25  2  0  0  0
 24 29  1  0  0  0
  5  6  1  0  0  0
  6  7  1  0  0  0
 25 26  1  0  0  0
 26 27  2  0  0  0
 27 28  1  0  0  0
 28 29  2  0  0  0
 29 30  1  0  0  0
  8 10  1  0  0  0
  8 11  1  0  0  0
 21 22  1  0  0  0
M  CHG 1  29   1
M  END
> <minimizedAffinity>
-7.32099

$$$$
3SI4_B04_H_1


 30 32  0  0  0  0  0  0  0  0999 V2000
   17.3786  -14.8428   21.9216 C   0  0  0  0  0  0  0  0  0  0  0  0
   17.1539  -14.9404   20.7217 O   0  0  0  0  0  0  0  0  0  0  0  0
   16.9797  -15.7864   22.7775 N   0  0  0  0  0  0  0  0  0  0  0  0
   16.2436  -16.9411   22.2620 C   0  0  0  0  0  0  0  0  0  0  0  0
   15.8717  -17.7426   23.5033 C   0  0  0  0  0  0  0  0  0  0  0  0
   16.7967  -17.2498   24.5955 C   0  0  0  0  0  0  0  0  0  0  0  0
   17.1616  -15.8169   24.2313 C   0  0  0  0  0  0  0  0  0  0  0  0
   17.5922  -12.4697   21.7880 N   0  0  0  0  0  0  0  0  0  0  0  0
   18.1130  -13.6452   22.4613 C   0  0  0  0  0  0  0  0  0  0  0  0
   18.0724  -11.6390   22.1340 H   0  0  0  0  0  0  0  0  0  0  0  0
   16.5926  -12.3866   21.9733 H   0  0  0  0  0  0  0  0  0  0  0  0
   19.6143  -13.7091   22.1984 C   0  0  0  0  0  0  0  0  0  0  0  0
   20.3874  -13.3412   23.4394 C   0  0  0  0  0  0  0  0  0  0  0  0
   21.7690  -13.1601   23.4018 C   0  0  0  0  0  0  0  0  0  0  0  0
   19.6968  -13.2037   24.6342 C   0  0  0  0  0  0  0  0  0  0  0  0
   22.4550  -12.8303   24.5670 C   0  0  0  0  0  0  0  0  0  0  0  0
   20.3835  -12.8695   25.7929 C   0  0  0  0  0  0  0  0  0  0  0  0
   21.7602  -12.6814   25.7623 C   0  0  0  0  0  0  0  0  0  0  0  0
   15.0045  -16.4540   21.5560 C   0  0  0  0  0  0  0  0  0  0  0  0
   14.5620  -17.0781   20.6019 O   0  0  0  0  0  0  0  0  0  0  0  0
   14.3993  -15.3552   22.0111 N   0  0  0  0  0  0  0  0  0  0  0  0
   14.7916  -14.9121   22.7979 H   0  0  0  0  0  0  0  0  0  0  0  0
   13.1981  -14.7604   21.4295 C   0  0  0  0  0  0  0  0  0  0  0  0
   13.5258  -13.5909   20.5265 C   0  0  0  0  0  0  0  0  0  0  0  0
   14.1099  -13.8106   19.2814 C   0  0  0  0  0  0  0  0  0  0  0  0
   14.4103  -12.7262   18.4693 C   0  0  0  0  0  0  0  0  0  0  0  0
   14.1038  -11.4453   18.9146 C   0  0  0  0  0  0  0  0  0  0  0  0
   13.5168  -11.2874   20.1640 C   0  0  0  0  0  0  0  0  0  0  0  0
   13.2438  -12.3459   20.9381 N   0  0  0  0  0  0  0  0  0  0  0  0
   12.6246  -12.1370   22.2511 C   0  0  0  0  0  0  0  0  0  0  0  0
 13 12  1  0  0  0
 13 14  2  0  0  0
 13 15  1  0  0  0
 12  9  1  0  0  0
  9  8  1  0  0  0
  9  1  1  0  0  0
  1  3  1  0  0  0
  1  2  2  0  0  0
  3  4  1  0  0  0
  3  7  1  0  0  0
 14 16  1  0  0  0
 16 18  2  0  0  0
 18 17  1  0  0  0
 17 15  2  0  0  0
  4 19  1  0  0  0
  4  5  1  0  0  0
 19 20  2  0  0  0
 19 21  1  0  0  0
 21 23  1  0  0  0
 23 24  1  0  0  0
 24 25  2  0  0  0
 24 29  1  0  0  0
  5  6  1  0  0  0
  6  7  1  0  0  0
 25 26  1  0  0  0
 26 27  2  0  0  0
 27 28  1  0  0  0
 28 29  2  0  0  0
 29 30  1  0  0  0
  8 10  1  0  0  0
  8 11  1  0  0  0
 21 22  1  0  0  0
M  CHG 1  29   1
M  END
> <minimizedAffinity>
-7.15498

$$$$
3SI4_B04_H_1


 30 32  0  0  0  0  0  0  0  0999 V2000
   15.5443  -12.3470   20.8024 C   0  0  0  0  0  0  0  0  0  0  0  0
   15.6868  -12.1098   21.9954 O   0  0  0  0  0  0  0  0  0  0  0  0
   15.6003  -13.5965   20.3357 N   0  0  0  0  0  0  0  0  0  0  0  0
   15.8581  -14.6893   21.2738 C   0  0  0  0  0  0  0  0  0  0  0  0
   15.9503  -15.9320   20.3971 C   0  0  0  0  0  0  0  0  0  0  0  0
   15.2937  -15.5528   19.0870 C   0  0  0  0  0  0  0  0  0  0  0  0
   15.4585  -14.0453   18.9479 C   0  0  0  0  0  0  0  0  0  0  0  0
   15.8965  -10.0235   20.3874 N   0  0  0  0  0  0  0  0  0  0  0  0
   15.3040  -11.2249   19.8288 C   0  0  0  0  0  0  0  0  0  0  0  0
   15.7493   -9.2428   19.7477 H   0  0  0  0  0  0  0  0  0  0  0  0
   16.8971  -10.1688   20.5220 H   0  0  0  0  0  0  0  0  0  0  0  0
   13.8205  -10.9530   19.6002 C   0  0  0  0  0  0  0  0  0  0  0  0
   13.1202  -10.6907   20.9094 C   0  0  0  0  0  0  0  0  0  0  0  0
   12.2711  -11.6398   21.4765 C   0  0  0  0  0  0  0  0  0  0  0  0
   13.3218   -9.4701   21.5360 C   0  0  0  0  0  0  0  0  0  0  0  0
   11.6318  -11.3632   22.6814 C   0  0  0  0  0  0  0  0  0  0  0  0
   12.6868   -9.2001   22.7401 C   0  0  0  0  0  0  0  0  0  0  0  0
   11.8435  -10.1435   23.3148 C   0  0  0  0  0  0  0  0  0  0  0  0
   17.1702  -14.4349   21.9702 C   0  0  0  0  0  0  0  0  0  0  0  0
   18.2101  -14.4282   21.3266 O   0  0  0  0  0  0  0  0  0  0  0  0
   17.1616  -14.1949   23.2828 N   0  0  0  0  0  0  0  0  0  0  0  0
   16.2893  -14.1903   23.7391 H   0  0  0  0  0  0  0  0  0  0  0  0
   18.3497  -13.9384   24.0938 C   0  0  0  0  0  0  0  0  0  0  0  0
   18.8831  -15.2027   24.7322 C   0  0  0  0  0  0  0  0  0  0  0  0
   18.0113  -16.0958   25.3503 C   0  0  0  0  0  0  0  0  0  0  0  0
   18.5184  -17.2466   25.9370 C   0  0  0  0  0  0  0  0  0  0  0  0
   19.8865  -17.4869   25.8775 C   0  0  0  0  0  0  0  0  0  0  0  0
   20.7072  -16.5626   25.2430 C   0  0  0  0  0  0  0  0  0  0  0  0
   20.2003  -15.4521   24.6915 N   0  0  0  0  0  0  0  0  0  0  0  0
   21.1004  -14.5006   24.0316 C   0  0  0  0  0  0  0  0  0  0  0  0
 13 12  1  0  0  0
 13 14  2  0  0  0
 13 15  1  0  0  0
 12  9  1  0  0  0
  9  8  1  0  0  0
  9  1  1  0  0  0
  1  3  1  0  0  0
  1  2  2  0  0  0
  3  4  1  0  0  0
  3  7  1  0  0  0
 14 16  1  0  0  0
 16 18  2  0  0  0
 18 17  1  0  0  0
 17 15  2  0  0  0
  4 19  1  0  0  0
  4  5  1  0  0  0
 19 20  2  0  0  0
 19 21  1  0  0  0
 21 23  1  0  0  0
 23 24  1  0  0  0
 24 25  2  0  0  0
 24 29  1  0  0  0
  5  6  1  0  0  0
  6  7  1  0  0  0
 25 26  1  0  0  0
 26 27  2  0  0  0
 27 28  1  0  0  0
 28 29  2  0  0  0
 29 30  1  0  0  0
  8 10  1  0  0  0
  8 11  1  0  0  0
 21 22  1  0  0  0
M  CHG 1  29   1
M  END
> <minimizedAffinity>
-7.04480

$$$$
