5OSE_A98_A_404


 14 14  0  0  0  0  0  0  0  0999 V2000
   -2.6358   26.0986  -23.8330 C   0  0  0  0  0  0  0  0  0  0  0  0
   -1.0716   27.2038  -22.2277 C   0  0  0  0  0  0  0  0  0  0  0  0
   -1.5894   26.0716  -21.7652 N   0  0  0  0  0  0  0  0  0  0  0  0
   -2.4978   25.4401  -22.6837 N   0  0  0  0  0  0  0  0  0  0  0  0
   -1.6686   27.5107  -23.7956 S   0  0  0  0  0  0  0  0  0  0  0  0
   -3.0196   24.9319  -25.9186 C   0  0  0  0  0  0  0  0  0  0  0  0
   -3.4428   25.7237  -24.8930 N   0  0  0  0  0  0  0  0  0  0  0  0
   -1.9789   24.3163  -25.9558 O   0  0  0  0  0  0  0  0  0  0  0  0
   -4.3728   26.0463  -24.9071 H   0  0  0  0  0  0  0  0  0  0  0  0
   -5.1497   25.6822  -26.5844 C   0  0  0  0  0  0  0  0  0  0  0  0
   -3.9385   24.9655  -26.8922 O   0  0  0  0  0  0  0  0  0  0  0  0
    0.0560   28.3531  -21.5736 S   0  0  0  0  0  0  0  0  0  0  0  0
    1.5500   27.3438  -21.4284 C   0  0  0  0  0  0  0  0  0  0  0  0
    2.6468   28.0301  -22.1990 C   0  0  0  0  0  0  0  0  0  0  0  0
 11 10  1  0  0  0
 11  6  1  0  0  0
  7  6  1  0  0  0
  7  1  1  0  0  0
  6  8  2  0  0  0
  4  1  2  0  0  0
  4  3  1  0  0  0
  1  5  1  0  0  0
  3  2  2  0  0  0
  5  2  1  0  0  0
  2 12  1  0  0  0
 13 12  1  0  0  0
 13 14  1  0  0  0
  7  9  1  0  0  0
M  END
> <minimizedAffinity>
-4.23878

$$$$
5OSE_A98_A_404


 14 14  0  0  0  0  0  0  0  0999 V2000
   -2.4892   26.6491  -24.0653 C   0  0  0  0  0  0  0  0  0  0  0  0
   -1.1467   27.1050  -22.0073 C   0  0  0  0  0  0  0  0  0  0  0  0
   -1.7578   25.9259  -21.9883 N   0  0  0  0  0  0  0  0  0  0  0  0
   -2.5391   25.6669  -23.1674 N   0  0  0  0  0  0  0  0  0  0  0  0
   -1.4991   27.9117  -23.4682 S   0  0  0  0  0  0  0  0  0  0  0  0
   -4.3060   27.3443  -25.5056 C   0  0  0  0  0  0  0  0  0  0  0  0
   -3.1425   26.6694  -25.2853 N   0  0  0  0  0  0  0  0  0  0  0  0
   -4.8172   28.1405  -24.7518 O   0  0  0  0  0  0  0  0  0  0  0  0
   -2.7452   26.1694  -26.0345 H   0  0  0  0  0  0  0  0  0  0  0  0
   -4.3803   27.7386  -27.8255 C   0  0  0  0  0  0  0  0  0  0  0  0
   -4.8045   26.9625  -26.6884 O   0  0  0  0  0  0  0  0  0  0  0  0
   -0.0956   27.9203  -20.8891 S   0  0  0  0  0  0  0  0  0  0  0  0
    1.4659   27.0512  -21.1689 C   0  0  0  0  0  0  0  0  0  0  0  0
    2.3944   27.9920  -21.8903 C   0  0  0  0  0  0  0  0  0  0  0  0
 11 10  1  0  0  0
 11  6  1  0  0  0
  7  6  1  0  0  0
  7  1  1  0  0  0
  6  8  2  0  0  0
  4  1  2  0  0  0
  4  3  1  0  0  0
  1  5  1  0  0  0
  3  2  2  0  0  0
  5  2  1  0  0  0
  2 12  1  0  0  0
 13 12  1  0  0  0
 13 14  1  0  0  0
  7  9  1  0  0  0
M  END
> <minimizedAffinity>
-3.92959

$$$$
5OSE_A98_A_404


 14 14  0  0  0  0  0  0  0  0999 V2000
    2.8943   28.2076  -23.4507 C   0  0  0  0  0  0  0  0  0  0  0  0
    0.8267   28.3195  -22.0516 C   0  0  0  0  0  0  0  0  0  0  0  0
    1.9468   28.3076  -21.3380 N   0  0  0  0  0  0  0  0  0  0  0  0
    3.1369   28.2325  -22.1415 N   0  0  0  0  0  0  0  0  0  0  0  0
    1.2035   28.2567  -23.7139 S   0  0  0  0  0  0  0  0  0  0  0  0
    4.0485   29.1219  -25.3718 C   0  0  0  0  0  0  0  0  0  0  0  0
    3.8464   28.1358  -24.4527 N   0  0  0  0  0  0  0  0  0  0  0  0
    3.5734   30.2338  -25.3344 O   0  0  0  0  0  0  0  0  0  0  0  0
    4.4080   27.3289  -24.5044 H   0  0  0  0  0  0  0  0  0  0  0  0
    5.4389   27.3609  -26.0854 C   0  0  0  0  0  0  0  0  0  0  0  0
    4.8444   28.6484  -26.3391 O   0  0  0  0  0  0  0  0  0  0  0  0
   -0.8562   28.4051  -21.6265 S   0  0  0  0  0  0  0  0  0  0  0  0
   -1.5169   29.4007  -22.9845 C   0  0  0  0  0  0  0  0  0  0  0  0
   -1.3680   30.8511  -22.6079 C   0  0  0  0  0  0  0  0  0  0  0  0
 11 10  1  0  0  0
 11  6  1  0  0  0
  7  6  1  0  0  0
  7  1  1  0  0  0
  6  8  2  0  0  0
  4  1  2  0  0  0
  4  3  1  0  0  0
  1  5  1  0  0  0
  3  2  2  0  0  0
  5  2  1  0  0  0
  2 12  1  0  0  0
 13 12  1  0  0  0
 13 14  1  0  0  0
  7  9  1  0  0  0
M  END
> <minimizedAffinity>
-3.74208

$$$$
5OSE_A98_A_404


 14 14  0  0  0  0  0  0  0  0999 V2000
   -0.9124   27.4538  -23.1483 C   0  0  0  0  0  0  0  0  0  0  0  0
   -3.0623   27.7756  -24.3810 C   0  0  0  0  0  0  0  0  0  0  0  0
   -2.8320   26.5121  -24.0427 N   0  0  0  0  0  0  0  0  0  0  0  0
   -1.5902   26.3240  -23.3426 N   0  0  0  0  0  0  0  0  0  0  0  0
   -1.7791   28.7592  -23.8379 S   0  0  0  0  0  0  0  0  0  0  0  0
    0.4621   28.1244  -21.2723 C   0  0  0  0  0  0  0  0  0  0  0  0
    0.3090   27.5693  -22.5077 N   0  0  0  0  0  0  0  0  0  0  0  0
   -0.4313   28.4155  -20.5104 O   0  0  0  0  0  0  0  0  0  0  0  0
    1.1106   27.2322  -22.9693 H   0  0  0  0  0  0  0  0  0  0  0  0
    2.6403   28.0431  -22.1623 C   0  0  0  0  0  0  0  0  0  0  0  0
    1.7684   28.3165  -21.0486 O   0  0  0  0  0  0  0  0  0  0  0  0
   -4.3683   28.5683  -25.2094 S   0  0  0  0  0  0  0  0  0  0  0  0
   -3.7150   30.2461  -25.3821 C   0  0  0  0  0  0  0  0  0  0  0  0
   -4.8850   31.1865  -25.5025 C   0  0  0  0  0  0  0  0  0  0  0  0
 11 10  1  0  0  0
 11  6  1  0  0  0
  7  6  1  0  0  0
  7  1  1  0  0  0
  6  8  2  0  0  0
  4  1  2  0  0  0
  4  3  1  0  0  0
  1  5  1  0  0  0
  3  2  2  0  0  0
  5  2  1  0  0  0
  2 12  1  0  0  0
 13 12  1  0  0  0
 13 14  1  0  0  0
  7  9  1  0  0  0
M  END
> <minimizedAffinity>
-3.70256

$$$$
5OSE_A98_A_404


 14 14  0  0  0  0  0  0  0  0999 V2000
   -2.4805   26.7183  -24.4181 C   0  0  0  0  0  0  0  0  0  0  0  0
   -0.9378   28.5298  -23.6542 C   0  0  0  0  0  0  0  0  0  0  0  0
   -1.4167   28.7255  -24.8775 N   0  0  0  0  0  0  0  0  0  0  0  0
   -2.2962   27.6784  -25.3223 N   0  0  0  0  0  0  0  0  0  0  0  0
   -1.5633   27.0763  -23.0177 S   0  0  0  0  0  0  0  0  0  0  0  0
   -2.9627   24.5681  -25.4196 C   0  0  0  0  0  0  0  0  0  0  0  0
   -3.2714   25.5935  -24.5763 N   0  0  0  0  0  0  0  0  0  0  0  0
   -1.9068   24.4121  -25.9889 O   0  0  0  0  0  0  0  0  0  0  0  0
   -4.1018   25.5306  -24.0512 H   0  0  0  0  0  0  0  0  0  0  0  0
   -4.2279   22.8303  -24.4591 C   0  0  0  0  0  0  0  0  0  0  0  0
   -4.0325   23.7706  -25.5328 O   0  0  0  0  0  0  0  0  0  0  0  0
    0.1312   29.4432  -22.6329 S   0  0  0  0  0  0  0  0  0  0  0  0
    0.6779   28.1753  -21.4644 C   0  0  0  0  0  0  0  0  0  0  0  0
    2.1547   27.9644  -21.6702 C   0  0  0  0  0  0  0  0  0  0  0  0
 11 10  1  0  0  0
 11  6  1  0  0  0
  7  6  1  0  0  0
  7  1  1  0  0  0
  6  8  2  0  0  0
  4  1  2  0  0  0
  4  3  1  0  0  0
  1  5  1  0  0  0
  3  2  2  0  0  0
  5  2  1  0  0  0
  2 12  1  0  0  0
 13 12  1  0  0  0
 13 14  1  0  0  0
  7  9  1  0  0  0
M  END
> <minimizedAffinity>
-3.66863

$$$$
5OSE_A98_A_404


 14 14  0  0  0  0  0  0  0  0999 V2000
    2.4216   30.1750  -23.7301 C   0  0  0  0  0  0  0  0  0  0  0  0
    1.0170   28.9168  -22.0903 C   0  0  0  0  0  0  0  0  0  0  0  0
    2.2739   28.4908  -22.1448 N   0  0  0  0  0  0  0  0  0  0  0  0
    3.0804   29.2071  -23.0956 N   0  0  0  0  0  0  0  0  0  0  0  0
    0.7996   30.2078  -23.1835 S   0  0  0  0  0  0  0  0  0  0  0  0
    3.0239   30.6952  -26.0160 C   0  0  0  0  0  0  0  0  0  0  0  0
    2.9458   31.0184  -24.6941 N   0  0  0  0  0  0  0  0  0  0  0  0
    2.5001   29.7414  -26.5445 O   0  0  0  0  0  0  0  0  0  0  0  0
    3.2804   31.8996  -24.4098 H   0  0  0  0  0  0  0  0  0  0  0  0
    3.2588   32.9312  -26.7147 C   0  0  0  0  0  0  0  0  0  0  0  0
    3.7979   31.5978  -26.6321 O   0  0  0  0  0  0  0  0  0  0  0  0
   -0.3624   28.4409  -21.1465 S   0  0  0  0  0  0  0  0  0  0  0  0
   -0.5446   26.7075  -21.6300 C   0  0  0  0  0  0  0  0  0  0  0  0
    0.3596   25.8857  -20.7498 C   0  0  0  0  0  0  0  0  0  0  0  0
 11 10  1  0  0  0
 11  6  1  0  0  0
  7  6  1  0  0  0
  7  1  1  0  0  0
  6  8  2  0  0  0
  4  1  2  0  0  0
  4  3  1  0  0  0
  1  5  1  0  0  0
  3  2  2  0  0  0
  5  2  1  0  0  0
  2 12  1  0  0  0
 13 12  1  0  0  0
 13 14  1  0  0  0
  7  9  1  0  0  0
M  END
> <minimizedAffinity>
-3.56563

$$$$
5OSE_A98_A_404


 14 14  0  0  0  0  0  0  0  0999 V2000
    2.0575   28.7094  -23.4240 C   0  0  0  0  0  0  0  0  0  0  0  0
    3.3843   27.9141  -25.3868 C   0  0  0  0  0  0  0  0  0  0  0  0
    4.0520   27.8564  -24.2401 N   0  0  0  0  0  0  0  0  0  0  0  0
    3.2933   28.3237  -23.1116 N   0  0  0  0  0  0  0  0  0  0  0  0
    1.8154   28.5224  -25.1084 S   0  0  0  0  0  0  0  0  0  0  0  0
    0.2514   28.4115  -21.8405 C   0  0  0  0  0  0  0  0  0  0  0  0
    1.1121   29.2023  -22.5416 N   0  0  0  0  0  0  0  0  0  0  0  0
    0.3096   27.2065  -21.7505 O   0  0  0  0  0  0  0  0  0  0  0  0
    1.0583   30.1770  -22.4134 H   0  0  0  0  0  0  0  0  0  0  0  0
   -1.2558   30.1947  -22.1436 C   0  0  0  0  0  0  0  0  0  0  0  0
   -0.6866   29.1885  -21.2839 O   0  0  0  0  0  0  0  0  0  0  0  0
    3.7864   27.4866  -27.0225 S   0  0  0  0  0  0  0  0  0  0  0  0
    5.3907   26.6822  -26.7968 C   0  0  0  0  0  0  0  0  0  0  0  0
    5.1874   25.1976  -26.9471 C   0  0  0  0  0  0  0  0  0  0  0  0
 11 10  1  0  0  0
 11  6  1  0  0  0
  7  6  1  0  0  0
  7  1  1  0  0  0
  6  8  2  0  0  0
  4  1  2  0  0  0
  4  3  1  0  0  0
  1  5  1  0  0  0
  3  2  2  0  0  0
  5  2  1  0  0  0
  2 12  1  0  0  0
 13 12  1  0  0  0
 13 14  1  0  0  0
  7  9  1  0  0  0
M  END
> <minimizedAffinity>
-3.44987

$$$$
5OSE_A98_A_404


 14 14  0  0  0  0  0  0  0  0999 V2000
   -0.8595   27.0765  -23.3997 C   0  0  0  0  0  0  0  0  0  0  0  0
   -2.8219   26.2213  -24.6892 C   0  0  0  0  0  0  0  0  0  0  0  0
   -2.7383   25.7207  -23.4618 N   0  0  0  0  0  0  0  0  0  0  0  0
   -1.6036   26.2040  -22.7225 N   0  0  0  0  0  0  0  0  0  0  0  0
   -1.5301   27.3018  -24.9586 S   0  0  0  0  0  0  0  0  0  0  0  0
    0.2882   28.9136  -22.3199 C   0  0  0  0  0  0  0  0  0  0  0  0
    0.2871   27.6984  -22.9373 N   0  0  0  0  0  0  0  0  0  0  0  0
   -0.6891   29.5147  -21.9365 O   0  0  0  0  0  0  0  0  0  0  0  0
    1.1486   27.2382  -23.0609 H   0  0  0  0  0  0  0  0  0  0  0  0
    2.5645   28.3200  -22.2228 C   0  0  0  0  0  0  0  0  0  0  0  0
    1.5526   29.3453  -22.2275 O   0  0  0  0  0  0  0  0  0  0  0  0
   -3.9549   26.0058  -25.9892 S   0  0  0  0  0  0  0  0  0  0  0  0
   -3.7000   24.2626  -26.3991 C   0  0  0  0  0  0  0  0  0  0  0  0
   -4.7391   23.4590  -25.6627 C   0  0  0  0  0  0  0  0  0  0  0  0
 11 10  1  0  0  0
 11  6  1  0  0  0
  7  6  1  0  0  0
  7  1  1  0  0  0
  6  8  2  0  0  0
  4  1  2  0  0  0
  4  3  1  0  0  0
  1  5  1  0  0  0
  3  2  2  0  0  0
  5  2  1  0  0  0
  2 12  1  0  0  0
 13 12  1  0  0  0
 13 14  1  0  0  0
  7  9  1  0  0  0
M  END
> <minimizedAffinity>
-3.44149

$$$$
5OSE_A98_A_404


 14 14  0  0  0  0  0  0  0  0999 V2000
   -1.2909   27.2415  -24.0675 C   0  0  0  0  0  0  0  0  0  0  0  0
   -3.0743   27.2620  -25.8179 C   0  0  0  0  0  0  0  0  0  0  0  0
   -2.2789   26.2006  -25.8874 N   0  0  0  0  0  0  0  0  0  0  0  0
   -1.2458   26.1930  -24.8872 N   0  0  0  0  0  0  0  0  0  0  0  0
   -2.5888   28.2606  -24.5233 S   0  0  0  0  0  0  0  0  0  0  0  0
   -0.4423   26.8012  -21.8438 C   0  0  0  0  0  0  0  0  0  0  0  0
   -0.4229   27.4917  -23.0189 N   0  0  0  0  0  0  0  0  0  0  0  0
   -1.0703   25.7905  -21.6260 O   0  0  0  0  0  0  0  0  0  0  0  0
    0.2446   28.2070  -23.1276 H   0  0  0  0  0  0  0  0  0  0  0  0
    1.5862   27.9361  -21.4692 C   0  0  0  0  0  0  0  0  0  0  0  0
    0.3333   27.4407  -20.9591 O   0  0  0  0  0  0  0  0  0  0  0  0
   -4.4546   27.7788  -26.7387 S   0  0  0  0  0  0  0  0  0  0  0  0
   -5.2315   28.9436  -25.5934 C   0  0  0  0  0  0  0  0  0  0  0  0
   -6.4932   28.3069  -25.0734 C   0  0  0  0  0  0  0  0  0  0  0  0
 11 10  1  0  0  0
 11  6  1  0  0  0
  7  6  1  0  0  0
  7  1  1  0  0  0
  6  8  2  0  0  0
  4  1  2  0  0  0
  4  3  1  0  0  0
  1  5  1  0  0  0
  3  2  2  0  0  0
  5  2  1  0  0  0
  2 12  1  0  0  0
 13 12  1  0  0  0
 13 14  1  0  0  0
  7  9  1  0  0  0
M  END
> <minimizedAffinity>
-3.30025

$$$$
5OSE_A98_A_404


 14 14  0  0  0  0  0  0  0  0999 V2000
   -1.6835   28.8522  -23.6873 C   0  0  0  0  0  0  0  0  0  0  0  0
    0.6716   29.5777  -23.2724 C   0  0  0  0  0  0  0  0  0  0  0  0
   -0.2236   30.2664  -22.5736 N   0  0  0  0  0  0  0  0  0  0  0  0
   -1.5799   29.8570  -22.8195 N   0  0  0  0  0  0  0  0  0  0  0  0
   -0.1211   28.4084  -24.2281 S   0  0  0  0  0  0  0  0  0  0  0  0
   -3.7207   28.8402  -24.9943 C   0  0  0  0  0  0  0  0  0  0  0  0
   -2.8614   28.2605  -24.1092 N   0  0  0  0  0  0  0  0  0  0  0  0
   -3.4984   29.8300  -25.6532 O   0  0  0  0  0  0  0  0  0  0  0  0
   -3.0910   27.3728  -23.7506 H   0  0  0  0  0  0  0  0  0  0  0  0
   -5.4947   27.9833  -26.2835 C   0  0  0  0  0  0  0  0  0  0  0  0
   -4.8649   28.1443  -24.9979 O   0  0  0  0  0  0  0  0  0  0  0  0
    2.4059   29.6321  -23.3688 S   0  0  0  0  0  0  0  0  0  0  0  0
    2.8531   28.0317  -22.6542 C   0  0  0  0  0  0  0  0  0  0  0  0
    2.1580   27.9102  -21.3239 C   0  0  0  0  0  0  0  0  0  0  0  0
 11 10  1  0  0  0
 11  6  1  0  0  0
  7  6  1  0  0  0
  7  1  1  0  0  0
  6  8  2  0  0  0
  4  1  2  0  0  0
  4  3  1  0  0  0
  1  5  1  0  0  0
  3  2  2  0  0  0
  5  2  1  0  0  0
  2 12  1  0  0  0
 13 12  1  0  0  0
 13 14  1  0  0  0
  7  9  1  0  0  0
M  END
> <minimizedAffinity>
-3.26881

$$$$
