4PEE_2OX_A_504


 22 24  0  0  0  0  0  0  0  0999 V2000
   30.9364    8.9054   58.5587 N   0  0  0  0  0  0  0  0  0  0  0  0
   30.2054    8.6380   57.4601 C   0  0  0  0  0  0  0  0  0  0  0  0
   31.4714    7.8021   58.8986 N   0  0  0  0  0  0  0  0  0  0  0  0
   31.1451    6.8512   58.1605 N   0  0  0  0  0  0  0  0  0  0  0  0
   30.3250    7.3248   57.2432 C   0  0  0  0  0  0  0  0  0  0  0  0
   29.7105    6.4426   56.0690 C   0  0  0  0  0  0  0  0  0  0  0  0
   28.2419    6.2775   56.0235 N   0  0  0  0  0  0  0  0  0  0  0  0
   27.9919    4.8186   55.9344 C   0  0  0  0  0  0  0  0  0  0  0  0
   26.6724    4.5226   55.2366 C   0  0  0  0  0  0  0  0  0  0  0  0
   29.2196    4.3269   55.1528 C   0  0  0  0  0  0  0  0  0  0  0  0
   29.0873    4.8476   53.7458 O   0  0  0  0  0  0  0  0  0  0  0  0
   30.2540    4.9977   56.0358 C   0  0  0  0  0  0  0  0  0  0  0  0
   31.6386    4.8269   55.5195 O   0  0  0  0  0  0  0  0  0  0  0  0
   27.8579    6.7525   55.2066 H   0  0  0  0  0  0  0  0  0  0  0  0
   28.9084    5.8007   53.7692 H   0  0  0  0  0  0  0  0  0  0  0  0
   31.6890    5.1645   54.6115 H   0  0  0  0  0  0  0  0  0  0  0  0
   32.5213   10.5539   59.2832 C   0  0  0  0  0  0  0  0  0  0  0  0
   32.8255   11.7828   59.8721 C   0  0  0  0  0  0  0  0  0  0  0  0
   31.7942   12.5878   60.3696 C   0  0  0  0  0  0  0  0  0  0  0  0
   30.4648   12.1603   60.2767 C   0  0  0  0  0  0  0  0  0  0  0  0
   30.1643   10.9231   59.6828 C   0  0  0  0  0  0  0  0  0  0  0  0
   31.1870   10.0902   59.1858 C   0  0  0  0  0  0  0  0  0  0  0  0
 11 10  1  0  0  0
 13 12  1  0  0  0
 10 12  1  0  0  0
 10  8  1  0  0  0
  9  8  1  0  0  0
 12  6  1  0  0  0
  6  7  1  0  0  0
  6  5  1  0  0  0
  7  8  1  0  0  0
  5  4  1  0  0  0
  5  2  2  0  0  0
  4  3  2  0  0  0
  2  1  1  0  0  0
  3  1  1  0  0  0
  1 22  1  0  0  0
 22 17  2  0  0  0
 22 21  1  0  0  0
 17 18  1  0  0  0
 21 20  2  0  0  0
 18 19  2  0  0  0
 20 19  1  0  0  0
  7 14  1  0  0  0
 11 15  1  0  0  0
 13 16  1  0  0  0
M  END
> <minimizedAffinity>
-8.88658

$$$$
4PEE_2OX_A_504


 22 24  0  0  0  0  0  0  0  0999 V2000
   32.6587    7.9891   58.2871 N   0  0  0  0  0  0  0  0  0  0  0  0
   32.3201    7.5973   57.0443 C   0  0  0  0  0  0  0  0  0  0  0  0
   31.7140    7.5992   59.0451 N   0  0  0  0  0  0  0  0  0  0  0  0
   30.7943    7.0266   58.4271 N   0  0  0  0  0  0  0  0  0  0  0  0
   31.1205    7.0181   57.1497 C   0  0  0  0  0  0  0  0  0  0  0  0
   30.2341    6.3349   56.0174 C   0  0  0  0  0  0  0  0  0  0  0  0
   28.7704    6.2852   56.2204 N   0  0  0  0  0  0  0  0  0  0  0  0
   28.3725    4.8708   56.0207 C   0  0  0  0  0  0  0  0  0  0  0  0
   26.9312    4.7610   55.5449 C   0  0  0  0  0  0  0  0  0  0  0  0
   29.3967    4.3900   54.9815 C   0  0  0  0  0  0  0  0  0  0  0  0
   29.0756    5.0883   53.6863 O   0  0  0  0  0  0  0  0  0  0  0  0
   30.6253    4.8690   55.7304 C   0  0  0  0  0  0  0  0  0  0  0  0
   31.8790    4.6616   54.9570 O   0  0  0  0  0  0  0  0  0  0  0  0
   28.2990    6.8841   55.5426 H   0  0  0  0  0  0  0  0  0  0  0  0
   28.9940    6.0418   53.8447 H   0  0  0  0  0  0  0  0  0  0  0  0
   31.8052    5.1038   54.0968 H   0  0  0  0  0  0  0  0  0  0  0  0
   34.9038    7.7929   59.1088 C   0  0  0  0  0  0  0  0  0  0  0  0
   36.1042    8.3635   59.5366 C   0  0  0  0  0  0  0  0  0  0  0  0
   36.2268    9.7564   59.5988 C   0  0  0  0  0  0  0  0  0  0  0  0
   35.1492   10.5716   59.2340 C   0  0  0  0  0  0  0  0  0  0  0  0
   33.9438    9.9922   58.8038 C   0  0  0  0  0  0  0  0  0  0  0  0
   33.7931    8.5920   58.7447 C   0  0  0  0  0  0  0  0  0  0  0  0
 11 10  1  0  0  0
 13 12  1  0  0  0
 10 12  1  0  0  0
 10  8  1  0  0  0
  9  8  1  0  0  0
 12  6  1  0  0  0
  6  7  1  0  0  0
  6  5  1  0  0  0
  7  8  1  0  0  0
  5  4  1  0  0  0
  5  2  2  0  0  0
  4  3  2  0  0  0
  2  1  1  0  0  0
  3  1  1  0  0  0
  1 22  1  0  0  0
 22 17  2  0  0  0
 22 21  1  0  0  0
 17 18  1  0  0  0
 21 20  2  0  0  0
 18 19  2  0  0  0
 20 19  1  0  0  0
  7 14  1  0  0  0
 11 15  1  0  0  0
 13 16  1  0  0  0
M  END
> <minimizedAffinity>
-8.81594

$$$$
4PEE_2OX_A_504


 22 24  0  0  0  0  0  0  0  0999 V2000
   30.1911    9.6183   59.0514 N   0  0  0  0  0  0  0  0  0  0  0  0
   31.1440    8.8438   59.6036 C   0  0  0  0  0  0  0  0  0  0  0  0
   29.6067    8.8896   58.1876 N   0  0  0  0  0  0  0  0  0  0  0  0
   30.0937    7.7445   58.1021 N   0  0  0  0  0  0  0  0  0  0  0  0
   31.0871    7.6710   58.9657 C   0  0  0  0  0  0  0  0  0  0  0  0
   31.9487    6.3545   59.2093 C   0  0  0  0  0  0  0  0  0  0  0  0
   33.3976    6.5121   59.4582 N   0  0  0  0  0  0  0  0  0  0  0  0
   34.0826    5.6096   58.5016 C   0  0  0  0  0  0  0  0  0  0  0  0
   35.4333    5.1558   59.0358 C   0  0  0  0  0  0  0  0  0  0  0  0
   33.0687    4.4650   58.3537 C   0  0  0  0  0  0  0  0  0  0  0  0
   33.0433    3.7230   59.6641 O   0  0  0  0  0  0  0  0  0  0  0  0
   31.8737    5.3454   58.0430 C   0  0  0  0  0  0  0  0  0  0  0  0
   30.6107    4.5683   57.9252 O   0  0  0  0  0  0  0  0  0  0  0  0
   33.6225    6.2471   60.4172 H   0  0  0  0  0  0  0  0  0  0  0  0
   32.9218    4.3540   60.3907 H   0  0  0  0  0  0  0  0  0  0  0  0
   30.4645    4.0633   58.7404 H   0  0  0  0  0  0  0  0  0  0  0  0
   30.7103   11.7578   60.0041 C   0  0  0  0  0  0  0  0  0  0  0  0
   30.3751   13.0819   60.2934 C   0  0  0  0  0  0  0  0  0  0  0  0
   29.1172   13.5749   59.9277 C   0  0  0  0  0  0  0  0  0  0  0  0
   28.2008   12.7420   59.2756 C   0  0  0  0  0  0  0  0  0  0  0  0
   28.5435   11.4105   58.9863 C   0  0  0  0  0  0  0  0  0  0  0  0
   29.7996   10.8887   59.3558 C   0  0  0  0  0  0  0  0  0  0  0  0
 11 10  1  0  0  0
 13 12  1  0  0  0
 10 12  1  0  0  0
 10  8  1  0  0  0
  9  8  1  0  0  0
 12  6  1  0  0  0
  6  7  1  0  0  0
  6  5  1  0  0  0
  7  8  1  0  0  0
  5  4  1  0  0  0
  5  2  2  0  0  0
  4  3  2  0  0  0
  2  1  1  0  0  0
  3  1  1  0  0  0
  1 22  1  0  0  0
 22 17  2  0  0  0
 22 21  1  0  0  0
 17 18  1  0  0  0
 21 20  2  0  0  0
 18 19  2  0  0  0
 20 19  1  0  0  0
  7 14  1  0  0  0
 11 15  1  0  0  0
 13 16  1  0  0  0
M  END
> <minimizedAffinity>
-7.55096

$$$$
4PEE_2OX_A_504


 22 24  0  0  0  0  0  0  0  0999 V2000
   30.2082    9.9590   59.1080 N   0  0  0  0  0  0  0  0  0  0  0  0
   29.7926    9.0542   58.2017 C   0  0  0  0  0  0  0  0  0  0  0  0
   31.4551    9.7551   59.2579 N   0  0  0  0  0  0  0  0  0  0  0  0
   31.8822    8.8046   58.5726 N   0  0  0  0  0  0  0  0  0  0  0  0
   30.8615    8.3115   57.8993 C   0  0  0  0  0  0  0  0  0  0  0  0
   30.9866    7.1100   56.8622 C   0  0  0  0  0  0  0  0  0  0  0  0
   29.7488    6.6194   56.2192 N   0  0  0  0  0  0  0  0  0  0  0  0
   29.7279    5.1514   56.4274 C   0  0  0  0  0  0  0  0  0  0  0  0
   28.9482    4.4454   55.3277 C   0  0  0  0  0  0  0  0  0  0  0  0
   31.2243    4.8042   56.4342 C   0  0  0  0  0  0  0  0  0  0  0  0
   31.7332    5.0076   55.0313 O   0  0  0  0  0  0  0  0  0  0  0  0
   31.6273    5.8409   57.4649 C   0  0  0  0  0  0  0  0  0  0  0  0
   33.0984    5.8855   57.6811 O   0  0  0  0  0  0  0  0  0  0  0  0
   29.7589    6.8350   55.2223 H   0  0  0  0  0  0  0  0  0  0  0  0
   31.4660    5.8845   54.7144 H   0  0  0  0  0  0  0  0  0  0  0  0
   33.5447    6.0482   56.8354 H   0  0  0  0  0  0  0  0  0  0  0  0
   30.1713   12.2273   59.8880 C   0  0  0  0  0  0  0  0  0  0  0  0
   29.5059   13.3138   60.4590 C   0  0  0  0  0  0  0  0  0  0  0  0
   28.1724   13.1771   60.8616 C   0  0  0  0  0  0  0  0  0  0  0  0
   27.5111   11.9553   60.6922 C   0  0  0  0  0  0  0  0  0  0  0  0
   28.1852   10.8653   60.1167 C   0  0  0  0  0  0  0  0  0  0  0  0
   29.5317   10.9758   59.7149 C   0  0  0  0  0  0  0  0  0  0  0  0
 11 10  1  0  0  0
 13 12  1  0  0  0
 10 12  1  0  0  0
 10  8  1  0  0  0
  9  8  1  0  0  0
 12  6  1  0  0  0
  6  7  1  0  0  0
  6  5  1  0  0  0
  7  8  1  0  0  0
  5  4  1  0  0  0
  5  2  2  0  0  0
  4  3  2  0  0  0
  2  1  1  0  0  0
  3  1  1  0  0  0
  1 22  1  0  0  0
 22 17  2  0  0  0
 22 21  1  0  0  0
 17 18  1  0  0  0
 21 20  2  0  0  0
 18 19  2  0  0  0
 20 19  1  0  0  0
  7 14  1  0  0  0
 11 15  1  0  0  0
 13 16  1  0  0  0
M  END
> <minimizedAffinity>
-7.30132

$$$$
4PEE_2OX_A_504


 22 24  0  0  0  0  0  0  0  0999 V2000
   30.8972    9.8075   59.3387 N   0  0  0  0  0  0  0  0  0  0  0  0
   31.5615    8.9330   58.5598 C   0  0  0  0  0  0  0  0  0  0  0  0
   29.6609    9.5954   59.1251 N   0  0  0  0  0  0  0  0  0  0  0  0
   29.4558    8.7040   58.2772 N   0  0  0  0  0  0  0  0  0  0  0  0
   30.6311    8.2654   57.8712 C   0  0  0  0  0  0  0  0  0  0  0  0
   30.8168    7.0848   56.8193 C   0  0  0  0  0  0  0  0  0  0  0  0
   29.6090    6.5623   56.1453 N   0  0  0  0  0  0  0  0  0  0  0  0
   29.6345    5.0914   56.3317 C   0  0  0  0  0  0  0  0  0  0  0  0
   28.9004    4.3761   55.2068 C   0  0  0  0  0  0  0  0  0  0  0  0
   31.1415    4.7951   56.3626 C   0  0  0  0  0  0  0  0  0  0  0  0
   31.6697    5.0369   54.9731 O   0  0  0  0  0  0  0  0  0  0  0  0
   31.4890    5.8292   57.4159 C   0  0  0  0  0  0  0  0  0  0  0  0
   32.9534    5.9204   57.6614 O   0  0  0  0  0  0  0  0  0  0  0  0
   29.6307    6.7932   55.1520 H   0  0  0  0  0  0  0  0  0  0  0  0
   31.3787    5.9090   54.6638 H   0  0  0  0  0  0  0  0  0  0  0  0
   33.4099    6.1109   56.8270 H   0  0  0  0  0  0  0  0  0  0  0  0
   31.4719   12.0655   59.9095 C   0  0  0  0  0  0  0  0  0  0  0  0
   31.8952   13.0241   60.8320 C   0  0  0  0  0  0  0  0  0  0  0  0
   32.2084   12.6373   62.1402 C   0  0  0  0  0  0  0  0  0  0  0  0
   32.0976   11.2946   62.5193 C   0  0  0  0  0  0  0  0  0  0  0  0
   31.6705   10.3341   61.5871 C   0  0  0  0  0  0  0  0  0  0  0  0
   31.3614   10.6983   60.2610 C   0  0  0  0  0  0  0  0  0  0  0  0
 11 10  1  0  0  0
 13 12  1  0  0  0
 10 12  1  0  0  0
 10  8  1  0  0  0
  9  8  1  0  0  0
 12  6  1  0  0  0
  6  7  1  0  0  0
  6  5  1  0  0  0
  7  8  1  0  0  0
  5  4  1  0  0  0
  5  2  2  0  0  0
  4  3  2  0  0  0
  2  1  1  0  0  0
  3  1  1  0  0  0
  1 22  1  0  0  0
 22 17  2  0  0  0
 22 21  1  0  0  0
 17 18  1  0  0  0
 21 20  2  0  0  0
 18 19  2  0  0  0
 20 19  1  0  0  0
  7 14  1  0  0  0
 11 15  1  0  0  0
 13 16  1  0  0  0
M  END
> <minimizedAffinity>
-6.97060

$$$$
4PEE_2OX_A_504


 22 24  0  0  0  0  0  0  0  0999 V2000
   29.3773    9.2858   59.6113 N   0  0  0  0  0  0  0  0  0  0  0  0
   30.2655    8.6779   60.4201 C   0  0  0  0  0  0  0  0  0  0  0  0
   29.4658    8.6936   58.4886 N   0  0  0  0  0  0  0  0  0  0  0  0
   30.3291    7.7936   58.4759 N   0  0  0  0  0  0  0  0  0  0  0  0
   30.8811    7.7570   59.6726 C   0  0  0  0  0  0  0  0  0  0  0  0
   32.0035    6.7098   60.0949 C   0  0  0  0  0  0  0  0  0  0  0  0
   33.3279    6.8159   59.4464 N   0  0  0  0  0  0  0  0  0  0  0  0
   33.6414    5.4649   58.9217 C   0  0  0  0  0  0  0  0  0  0  0  0
   35.1436    5.2356   58.8395 C   0  0  0  0  0  0  0  0  0  0  0  0
   32.9393    4.5519   59.9382 C   0  0  0  0  0  0  0  0  0  0  0  0
   33.6953    4.6686   61.2356 O   0  0  0  0  0  0  0  0  0  0  0  0
   31.5894    5.2394   59.8691 C   0  0  0  0  0  0  0  0  0  0  0  0
   30.6134    4.6741   60.8390 O   0  0  0  0  0  0  0  0  0  0  0  0
   34.0323    7.1035   60.1258 H   0  0  0  0  0  0  0  0  0  0  0  0
   33.8091    5.6053   61.4604 H   0  0  0  0  0  0  0  0  0  0  0  0
   30.9812    4.7255   61.7351 H   0  0  0  0  0  0  0  0  0  0  0  0
   28.5290   11.4825   59.1534 C   0  0  0  0  0  0  0  0  0  0  0  0
   27.5925   12.4984   59.3536 C   0  0  0  0  0  0  0  0  0  0  0  0
   26.5587   12.3164   60.2795 C   0  0  0  0  0  0  0  0  0  0  0  0
   26.4668   11.1207   61.0009 C   0  0  0  0  0  0  0  0  0  0  0  0
   27.4116   10.1014   60.7953 C   0  0  0  0  0  0  0  0  0  0  0  0
   28.4682   10.2669   59.8771 C   0  0  0  0  0  0  0  0  0  0  0  0
 11 10  1  0  0  0
 13 12  1  0  0  0
 10 12  1  0  0  0
 10  8  1  0  0  0
  9  8  1  0  0  0
 12  6  1  0  0  0
  6  7  1  0  0  0
  6  5  1  0  0  0
  7  8  1  0  0  0
  5  4  1  0  0  0
  5  2  2  0  0  0
  4  3  2  0  0  0
  2  1  1  0  0  0
  3  1  1  0  0  0
  1 22  1  0  0  0
 22 17  2  0  0  0
 22 21  1  0  0  0
 17 18  1  0  0  0
 21 20  2  0  0  0
 18 19  2  0  0  0
 20 19  1  0  0  0
  7 14  1  0  0  0
 11 15  1  0  0  0
 13 16  1  0  0  0
M  END
> <minimizedAffinity>
-6.85082

$$$$
4PEE_2OX_A_504


 22 24  0  0  0  0  0  0  0  0999 V2000
   32.5768    7.6862   58.9320 N   0  0  0  0  0  0  0  0  0  0  0  0
   31.3107    7.5379   59.3651 C   0  0  0  0  0  0  0  0  0  0  0  0
   32.7062    8.9199   58.6489 N   0  0  0  0  0  0  0  0  0  0  0  0
   31.6597    9.5755   58.8240 N   0  0  0  0  0  0  0  0  0  0  0  0
   30.7368    8.7400   59.2583 C   0  0  0  0  0  0  0  0  0  0  0  0
   29.2596    9.1843   59.6524 C   0  0  0  0  0  0  0  0  0  0  0  0
   28.7461   10.4526   59.0924 N   0  0  0  0  0  0  0  0  0  0  0  0
   28.2443   11.2406   60.2440 C   0  0  0  0  0  0  0  0  0  0  0  0
   27.1396   12.1986   59.8224 C   0  0  0  0  0  0  0  0  0  0  0  0
   27.7654   10.1413   61.2042 C   0  0  0  0  0  0  0  0  0  0  0  0
   26.5472    9.5097   60.5834 O   0  0  0  0  0  0  0  0  0  0  0  0
   29.0464    9.3302   61.1748 C   0  0  0  0  0  0  0  0  0  0  0  0
   28.9355    8.0643   61.9482 O   0  0  0  0  0  0  0  0  0  0  0  0
   27.9893   10.2676   58.4340 H   0  0  0  0  0  0  0  0  0  0  0  0
   26.7422    9.2654   59.6651 H   0  0  0  0  0  0  0  0  0  0  0  0
   28.1898    7.5437   61.6110 H   0  0  0  0  0  0  0  0  0  0  0  0
   34.9259    7.2276   59.0937 C   0  0  0  0  0  0  0  0  0  0  0  0
   36.0018    6.3379   59.0877 C   0  0  0  0  0  0  0  0  0  0  0  0
   35.7735    4.9747   58.8669 C   0  0  0  0  0  0  0  0  0  0  0  0
   34.4716    4.5081   58.6525 C   0  0  0  0  0  0  0  0  0  0  0  0
   33.3924    5.4077   58.6601 C   0  0  0  0  0  0  0  0  0  0  0  0
   33.5994    6.7863   58.8682 C   0  0  0  0  0  0  0  0  0  0  0  0
 11 10  1  0  0  0
 13 12  1  0  0  0
 10 12  1  0  0  0
 10  8  1  0  0  0
  9  8  1  0  0  0
 12  6  1  0  0  0
  6  7  1  0  0  0
  6  5  1  0  0  0
  7  8  1  0  0  0
  5  4  1  0  0  0
  5  2  2  0  0  0
  4  3  2  0  0  0
  2  1  1  0  0  0
  3  1  1  0  0  0
  1 22  1  0  0  0
 22 17  2  0  0  0
 22 21  1  0  0  0
 17 18  1  0  0  0
 21 20  2  0  0  0
 18 19  2  0  0  0
 20 19  1  0  0  0
  7 14  1  0  0  0
 11 15  1  0  0  0
 13 16  1  0  0  0
M  END
> <minimizedAffinity>
-6.73431

$$$$
4PEE_2OX_A_504


 22 24  0  0  0  0  0  0  0  0999 V2000
   31.2020    7.3951   58.5415 N   0  0  0  0  0  0  0  0  0  0  0  0
   30.9244    8.4535   59.3260 C   0  0  0  0  0  0  0  0  0  0  0  0
   30.3435    7.4221   57.6029 N   0  0  0  0  0  0  0  0  0  0  0  0
   29.5289    8.3604   57.7105 N   0  0  0  0  0  0  0  0  0  0  0  0
   29.8412    9.0332   58.8004 C   0  0  0  0  0  0  0  0  0  0  0  0
   29.0739   10.3438   59.2784 C   0  0  0  0  0  0  0  0  0  0  0  0
   29.8726   11.5652   59.5159 N   0  0  0  0  0  0  0  0  0  0  0  0
   29.5122   12.0378   60.8744 C   0  0  0  0  0  0  0  0  0  0  0  0
   29.6995   13.5422   61.0071 C   0  0  0  0  0  0  0  0  0  0  0  0
   28.0470   11.5921   60.9942 C   0  0  0  0  0  0  0  0  0  0  0  0
   27.2458   12.4420   60.0433 O   0  0  0  0  0  0  0  0  0  0  0  0
   28.2822   10.1496   60.5898 C   0  0  0  0  0  0  0  0  0  0  0  0
   27.0165    9.3749   60.4860 O   0  0  0  0  0  0  0  0  0  0  0  0
   29.6447   12.2771   58.8219 H   0  0  0  0  0  0  0  0  0  0  0  0
   27.6612   12.4262   59.1669 H   0  0  0  0  0  0  0  0  0  0  0  0
   26.4183    9.8150   59.8619 H   0  0  0  0  0  0  0  0  0  0  0  0
   31.9662    5.1351   58.2909 C   0  0  0  0  0  0  0  0  0  0  0  0
   32.9854    4.1809   58.2942 C   0  0  0  0  0  0  0  0  0  0  0  0
   34.2953    4.5661   58.6022 C   0  0  0  0  0  0  0  0  0  0  0  0
   34.5796    5.9024   58.9060 C   0  0  0  0  0  0  0  0  0  0  0  0
   33.5502    6.8586   58.9008 C   0  0  0  0  0  0  0  0  0  0  0  0
   32.2217    6.4918   58.6056 C   0  0  0  0  0  0  0  0  0  0  0  0
 11 10  1  0  0  0
 13 12  1  0  0  0
 10 12  1  0  0  0
 10  8  1  0  0  0
  9  8  1  0  0  0
 12  6  1  0  0  0
  6  7  1  0  0  0
  6  5  1  0  0  0
  7  8  1  0  0  0
  5  4  1  0  0  0
  5  2  2  0  0  0
  4  3  2  0  0  0
  2  1  1  0  0  0
  3  1  1  0  0  0
  1 22  1  0  0  0
 22 17  2  0  0  0
 22 21  1  0  0  0
 17 18  1  0  0  0
 21 20  2  0  0  0
 18 19  2  0  0  0
 20 19  1  0  0  0
  7 14  1  0  0  0
 11 15  1  0  0  0
 13 16  1  0  0  0
M  END
> <minimizedAffinity>
-6.71223

$$$$
4PEE_2OX_A_504


 22 24  0  0  0  0  0  0  0  0999 V2000
   31.5750    7.3102   58.9903 N   0  0  0  0  0  0  0  0  0  0  0  0
   31.3862    8.3104   59.8716 C   0  0  0  0  0  0  0  0  0  0  0  0
   30.6532    7.4320   58.1218 N   0  0  0  0  0  0  0  0  0  0  0  0
   29.8773    8.3790   58.3601 N   0  0  0  0  0  0  0  0  0  0  0  0
   30.2866    8.9563   59.4725 C   0  0  0  0  0  0  0  0  0  0  0  0
   29.5956   10.2441   60.1041 C   0  0  0  0  0  0  0  0  0  0  0  0
   28.2687   10.6412   59.5867 N   0  0  0  0  0  0  0  0  0  0  0  0
   28.3769   12.0756   59.2269 C   0  0  0  0  0  0  0  0  0  0  0  0
   27.0286   12.7750   59.3202 C   0  0  0  0  0  0  0  0  0  0  0  0
   29.4030   12.5890   60.2484 C   0  0  0  0  0  0  0  0  0  0  0  0
   28.7374   12.5589   61.5991 O   0  0  0  0  0  0  0  0  0  0  0  0
   30.4488   11.5249   59.9774 C   0  0  0  0  0  0  0  0  0  0  0  0
   31.6173   11.6305   60.8919 O   0  0  0  0  0  0  0  0  0  0  0  0
   27.5556   10.5095   60.3041 H   0  0  0  0  0  0  0  0  0  0  0  0
   28.3408   11.6857   61.7447 H   0  0  0  0  0  0  0  0  0  0  0  0
   31.3127   11.5885   61.8119 H   0  0  0  0  0  0  0  0  0  0  0  0
   32.2350    5.0322   58.6301 C   0  0  0  0  0  0  0  0  0  0  0  0
   33.2184    4.0511   58.4899 C   0  0  0  0  0  0  0  0  0  0  0  0
   34.5683    4.3990   58.6150 C   0  0  0  0  0  0  0  0  0  0  0  0
   34.9283    5.7252   58.8805 C   0  0  0  0  0  0  0  0  0  0  0  0
   33.9347    6.7086   59.0201 C   0  0  0  0  0  0  0  0  0  0  0  0
   32.5686    6.3795   58.9103 C   0  0  0  0  0  0  0  0  0  0  0  0
 11 10  1  0  0  0
 13 12  1  0  0  0
 10 12  1  0  0  0
 10  8  1  0  0  0
  9  8  1  0  0  0
 12  6  1  0  0  0
  6  7  1  0  0  0
  6  5  1  0  0  0
  7  8  1  0  0  0
  5  4  1  0  0  0
  5  2  2  0  0  0
  4  3  2  0  0  0
  2  1  1  0  0  0
  3  1  1  0  0  0
  1 22  1  0  0  0
 22 17  2  0  0  0
 22 21  1  0  0  0
 17 18  1  0  0  0
 21 20  2  0  0  0
 18 19  2  0  0  0
 20 19  1  0  0  0
  7 14  1  0  0  0
 11 15  1  0  0  0
 13 16  1  0  0  0
M  END
> <minimizedAffinity>
-6.25529

$$$$
4PEE_2OX_A_504


 22 24  0  0  0  0  0  0  0  0999 V2000
   32.7526    9.7784   58.9761 N   0  0  0  0  0  0  0  0  0  0  0  0
   31.6208    9.1621   58.5863 C   0  0  0  0  0  0  0  0  0  0  0  0
   33.6974    8.9640   58.7249 N   0  0  0  0  0  0  0  0  0  0  0  0
   33.2990    7.8842   58.2445 N   0  0  0  0  0  0  0  0  0  0  0  0
   31.9852    7.9507   58.1558 C   0  0  0  0  0  0  0  0  0  0  0  0
   31.0824    6.7904   57.5447 C   0  0  0  0  0  0  0  0  0  0  0  0
   31.7622    5.6866   56.8336 N   0  0  0  0  0  0  0  0  0  0  0  0
   31.0935    5.5695   55.5153 C   0  0  0  0  0  0  0  0  0  0  0  0
   31.1898    4.1530   54.9674 C   0  0  0  0  0  0  0  0  0  0  0  0
   29.6559    6.0013   55.8421 C   0  0  0  0  0  0  0  0  0  0  0  0
   29.0524    4.9206   56.7002 O   0  0  0  0  0  0  0  0  0  0  0  0
   30.0289    7.2971   56.5359 C   0  0  0  0  0  0  0  0  0  0  0  0
   28.8475    7.9938   57.1120 O   0  0  0  0  0  0  0  0  0  0  0  0
   31.6662    4.8166   57.3573 H   0  0  0  0  0  0  0  0  0  0  0  0
   29.6512    4.7205   57.4367 H   0  0  0  0  0  0  0  0  0  0  0  0
   28.3855    7.3969   57.7212 H   0  0  0  0  0  0  0  0  0  0  0  0
   31.8489   11.7688   59.9642 C   0  0  0  0  0  0  0  0  0  0  0  0
   32.0074   13.0435   60.5113 C   0  0  0  0  0  0  0  0  0  0  0  0
   33.2824   13.6174   60.5750 C   0  0  0  0  0  0  0  0  0  0  0  0
   34.3920   12.9150   60.0910 C   0  0  0  0  0  0  0  0  0  0  0  0
   34.2269   11.6324   59.5419 C   0  0  0  0  0  0  0  0  0  0  0  0
   32.9512   11.0393   59.4562 C   0  0  0  0  0  0  0  0  0  0  0  0
 11 10  1  0  0  0
 13 12  1  0  0  0
 10 12  1  0  0  0
 10  8  1  0  0  0
  9  8  1  0  0  0
 12  6  1  0  0  0
  6  7  1  0  0  0
  6  5  1  0  0  0
  7  8  1  0  0  0
  5  4  1  0  0  0
  5  2  2  0  0  0
  4  3  2  0  0  0
  2  1  1  0  0  0
  3  1  1  0  0  0
  1 22  1  0  0  0
 22 17  2  0  0  0
 22 21  1  0  0  0
 17 18  1  0  0  0
 21 20  2  0  0  0
 18 19  2  0  0  0
 20 19  1  0  0  0
  7 14  1  0  0  0
 11 15  1  0  0  0
 13 16  1  0  0  0
M  END
> <minimizedAffinity>
-6.25075

$$$$
