1T32_OHH_A_901


 51 57  0  0  0  0  0  0  0  0999 V2000
   13.1394   67.7213    1.8230 C   0  0  0  0  0  0  0  0  0  0  0  0
   13.7046   67.6585    0.4869 C   0  0  0  0  0  0  0  0  0  0  0  0
   13.1042   68.4457   -0.6134 C   0  0  0  0  0  0  0  0  0  0  0  0
   11.9436   69.3141   -0.4390 C   0  0  0  0  0  0  0  0  0  0  0  0
   11.3334   69.4054    0.9111 C   0  0  0  0  0  0  0  0  0  0  0  0
   11.9508   68.5728    2.1239 C   0  0  0  0  0  0  0  0  0  0  0  0
   11.3934   68.6341    3.4605 C   0  0  0  0  0  0  0  0  0  0  0  0
   10.2191   69.5016    3.7056 C   0  0  0  0  0  0  0  0  0  0  0  0
    9.5933   70.3170    2.5674 C   0  0  0  0  0  0  0  0  0  0  0  0
   10.1703   70.2444    1.1918 C   0  0  0  0  0  0  0  0  0  0  0  0
    7.2843   70.8091    2.2487 O   0  0  0  0  0  0  0  0  0  0  0  0
    8.3659   71.2927    2.6266 C   0  0  0  0  0  0  0  0  0  0  0  0
    8.5479   72.6496    3.0963 N   0  0  0  0  0  0  0  0  0  0  0  0
    7.3794   73.6011    3.1568 C   0  0  0  0  0  0  0  0  0  0  0  0
   12.6454   76.8679    5.2622 O   0  0  0  0  0  0  0  0  0  0  0  0
   12.3218   73.9649    2.9626 C   0  0  0  0  0  0  0  0  0  0  0  0
   12.1605   74.9023    4.1765 N   0  0  0  0  0  0  0  0  0  0  0  0
   11.4104   74.2651    5.3497 C   0  0  0  0  0  0  0  0  0  0  0  0
    9.9639   73.8426    4.8639 C   0  0  0  0  0  0  0  0  0  0  0  0
   10.0392   73.0084    3.5009 C   0  0  0  0  0  0  0  0  0  0  0  0
   10.8925   73.7206    2.4087 C   0  0  0  0  0  0  0  0  0  0  0  0
   12.7094   76.2125    4.1961 C   0  0  0  0  0  0  0  0  0  0  0  0
   15.4259   78.2705    2.0781 C   0  0  0  0  0  0  0  0  0  0  0  0
   14.7064   77.6210    3.1773 C   0  0  0  0  0  0  0  0  0  0  0  0
   13.4190   76.8826    2.9578 C   0  0  0  0  0  0  0  0  0  0  0  0
   12.8654   76.8162    1.5598 C   0  0  0  0  0  0  0  0  0  0  0  0
   13.5360   77.4308    0.4545 C   0  0  0  0  0  0  0  0  0  0  0  0
   14.8875   78.2015    0.7194 C   0  0  0  0  0  0  0  0  0  0  0  0
   15.5651   78.8160   -0.4120 C   0  0  0  0  0  0  0  0  0  0  0  0
   14.9808   78.7080   -1.7617 C   0  0  0  0  0  0  0  0  0  0  0  0
   13.7126   77.9939   -2.0086 C   0  0  0  0  0  0  0  0  0  0  0  0
   12.9947   77.3557   -0.9060 C   0  0  0  0  0  0  0  0  0  0  0  0
    8.5107   70.0780    5.2479 O   0  0  0  0  0  0  0  0  0  0  0  0
    9.6113   69.6121    5.1277 C   0  0  0  0  0  0  0  0  0  0  0  0
   10.4414   69.1446    6.3229 C   0  0  0  0  0  0  0  0  0  0  0  0
   10.7782   72.5594    9.4376 C   0  0  0  0  0  0  0  0  0  0  0  0
    9.5819   71.7674    9.4640 C   0  0  0  0  0  0  0  0  0  0  0  0
    9.3656   70.6313    8.4979 C   0  0  0  0  0  0  0  0  0  0  0  0
   10.3463   70.2338    7.4419 C   0  0  0  0  0  0  0  0  0  0  0  0
   11.7081   71.0966    7.3554 C   0  0  0  0  0  0  0  0  0  0  0  0
   11.8525   72.3191    8.4696 C   0  0  0  0  0  0  0  0  0  0  0  0
   13.0838   73.1779    8.4876 C   0  0  0  0  0  0  0  0  0  0  0  0
   14.1669   72.9655    7.5379 C   0  0  0  0  0  0  0  0  0  0  0  0
   14.0812   71.8726    6.5005 C   0  0  0  0  0  0  0  0  0  0  0  0
   12.8858   70.9878    6.4373 C   0  0  0  0  0  0  0  0  0  0  0  0
    9.7881   67.6178    6.8836 P   0  0  0  0  0  0  0  0  0  0  0  0
    8.2394   67.4807    7.1748 O   0  0  0  0  0  0  0  0  0  0  0  0
   10.0123   66.6077    5.7624 O   0  0  0  0  0  0  0  0  0  0  0  0
   10.5760   67.2168    8.0851 O   0  0  0  0  0  0  0  0  0  0  0  0
    8.0455   66.5789    7.4749 H   0  0  0  0  0  0  0  0  0  0  0  0
   10.2409   66.3720    8.4243 H   0  0  0  0  0  0  0  0  0  0  0  0
 15 22  2  0  0  0
 46 47  1  0  0  0
 46 48  2  0  0  0
 46 49  1  0  0  0
 46 35  1  0  0  0
 35 34  1  0  0  0
 35 39  1  0  0  0
 33 34  2  0  0  0
 34  8  1  0  0  0
  1  2  2  0  0  0
  1  6  1  0  0  0
  2  3  1  0  0  0
  3  4  2  0  0  0
  4  5  1  0  0  0
  5  6  2  0  0  0
  5 10  1  0  0  0
  6  7  1  0  0  0
  7  8  2  0  0  0
  8  9  1  0  0  0
  9 10  2  0  0  0
  9 12  1  0  0  0
 11 12  2  0  0  0
 12 13  1  0  0  0
 36 37  2  0  0  0
 36 41  1  0  0  0
 37 38  1  0  0  0
 38 39  2  0  0  0
 39 40  1  0  0  0
 40 41  2  0  0  0
 40 45  1  0  0  0
 41 42  1  0  0  0
 42 43  2  0  0  0
 43 44  1  0  0  0
 44 45  2  0  0  0
 13 14  1  0  0  0
 13 20  1  0  0  0
 16 17  1  0  0  0
 16 21  1  0  0  0
 17 18  1  0  0  0
 17 22  1  0  0  0
 18 19  1  0  0  0
 19 20  1  0  0  0
 20 21  1  0  0  0
 22 25  1  0  0  0
 23 24  2  0  0  0
 23 28  1  0  0  0
 24 25  1  0  0  0
 25 26  2  0  0  0
 26 27  1  0  0  0
 27 28  2  0  0  0
 27 32  1  0  0  0
 28 29  1  0  0  0
 29 30  2  0  0  0
 30 31  1  0  0  0
 31 32  2  0  0  0
 47 50  1  0  0  0
 49 51  1  0  0  0
M  END
> <minimizedAffinity>
-11.95269

$$$$
