4DJP_M73_A_200


 41 42  0  0  0  0  0  0  0  0999 V2000
   18.9721   31.1965   15.9913 C   0  0  0  0  0  0  0  0  0  0  0  0
   18.6933   30.5742   17.2679 O   0  0  0  0  0  0  0  0  0  0  0  0
   18.1377   31.1643   17.8007 H   0  0  0  0  0  0  0  0  0  0  0  0
   17.6491   31.3968   15.2490 C   0  0  0  0  0  0  0  0  0  0  0  0
   15.1404   31.9074   16.4769 O   0  0  0  0  0  0  0  0  0  0  0  0
   15.8631   32.7993   16.0699 C   0  0  0  0  0  0  0  0  0  0  0  0
   17.0843   32.6978   15.5905 N   0  0  0  0  0  0  0  0  0  0  0  0
   17.6241   33.5108   15.4606 H   0  0  0  0  0  0  0  0  0  0  0  0
   15.3499   34.1125   15.9807 O   0  0  0  0  0  0  0  0  0  0  0  0
   16.3260   35.1619   15.9711 C   0  0  0  0  0  0  0  0  0  0  0  0
   15.9356   36.1607   17.0487 C   0  0  0  0  0  0  0  0  0  0  0  0
   16.7551   37.4352   16.9544 C   0  0  0  0  0  0  0  0  0  0  0  0
   16.0990   35.4685   18.3533 C   0  0  0  0  0  0  0  0  0  0  0  0
   15.2944   35.5198   19.2674 O   0  0  0  0  0  0  0  0  0  0  0  0
   17.2709   34.7040   18.5288 O   0  0  0  0  0  0  0  0  0  0  0  0
   18.5002   35.3142   18.9494 C   0  0  0  0  0  0  0  0  0  0  0  0
   17.7207   31.2918   13.7142 C   0  0  0  0  0  0  0  0  0  0  0  0
   17.6781   29.8259   13.3212 C   0  0  0  0  0  0  0  0  0  0  0  0
   17.3932   29.4718   12.0126 C   0  0  0  0  0  0  0  0  0  0  0  0
   17.4249   28.1355   11.6355 C   0  0  0  0  0  0  0  0  0  0  0  0
   17.7130   27.1504   12.5771 C   0  0  0  0  0  0  0  0  0  0  0  0
   17.9868   27.4926   13.8917 C   0  0  0  0  0  0  0  0  0  0  0  0
   17.9668   28.8304   14.2611 C   0  0  0  0  0  0  0  0  0  0  0  0
   19.7509   32.4967   16.2625 C   0  0  0  0  0  0  0  0  0  0  0  0
   21.1387   32.2988   15.7996 N   0  0  0  0  0  0  0  0  0  0  0  0
   21.4046   32.3804   14.2015 S   0  0  0  0  0  0  0  0  0  0  0  0
   20.2709   33.1008   13.6587 O   0  0  0  0  0  0  0  0  0  0  0  0
   22.6669   32.9808   14.0120 O   0  0  0  0  0  0  0  0  0  0  0  0
   21.4360   30.8714   13.5401 C   0  0  0  0  0  0  0  0  0  0  0  0
   21.0043   30.6086   12.2194 C   0  0  0  0  0  0  0  0  0  0  0  0
   20.9566   29.3231   11.6800 C   0  0  0  0  0  0  0  0  0  0  0  0
   21.8304   29.7589   14.2967 C   0  0  0  0  0  0  0  0  0  0  0  0
   21.7574   28.4600   13.7707 C   0  0  0  0  0  0  0  0  0  0  0  0
   21.3301   28.2418   12.4672 C   0  0  0  0  0  0  0  0  0  0  0  0
   21.2864   26.9479   11.9969 O   0  0  0  0  0  0  0  0  0  0  0  0
   22.5081   26.3022   11.6214 C   0  0  0  0  0  0  0  0  0  0  0  0
   22.1341   33.0422   16.6153 C   0  0  0  0  0  0  0  0  0  0  0  0
   21.5355   34.2976   17.2611 C   0  0  0  0  0  0  0  0  0  0  0  0
   22.1112   34.5342   18.6561 C   0  0  0  0  0  0  0  0  0  0  0  0
   21.7269   35.4891   16.3117 C   0  0  0  0  0  0  0  0  0  0  0  0
   22.0649   36.7842   17.0158 C   0  0  0  0  0  0  0  0  0  0  0  0
 21 20  2  0  0  0
 21 22  1  0  0  0
 11 12  1  0  0  0
 11 10  1  0  0  0
 11 13  1  0  0  0
 10  9  1  0  0  0
 20 19  1  0  0  0
 22 23  2  0  0  0
 15 13  1  0  0  0
 15 16  1  0  0  0
 13 14  2  0  0  0
  5  6  2  0  0  0
 19 18  2  0  0  0
  9  6  1  0  0  0
 23 18  1  0  0  0
  6  7  1  0  0  0
 18 17  1  0  0  0
 27 26  2  0  0  0
  7  4  1  0  0  0
 17  4  1  0  0  0
  4  1  1  0  0  0
 28 26  2  0  0  0
 39 38  1  0  0  0
 26 25  1  0  0  0
 26 29  1  0  0  0
 25 37  1  0  0  0
 25 24  1  0  0  0
  1 24  1  0  0  0
  1  2  1  0  0  0
 29 30  2  0  0  0
 29 32  1  0  0  0
 30 31  1  0  0  0
 38 37  1  0  0  0
 38 40  1  0  0  0
 41 40  1  0  0  0
 32 33  2  0  0  0
 31 34  2  0  0  0
 33 34  1  0  0  0
 34 35  1  0  0  0
 35 36  1  0  0  0
  7  8  1  0  0  0
  2  3  1  0  0  0
M  END
> <minimizedAffinity>
-8.55497

$$$$
4DJP_M73_A_200


 41 42  0  0  0  0  0  0  0  0999 V2000
   19.7256   29.9975   15.6234 C   0  0  0  0  0  0  0  0  0  0  0  0
   19.9615   28.8234   16.4360 O   0  0  0  0  0  0  0  0  0  0  0  0
   19.1326   28.3306   16.5405 H   0  0  0  0  0  0  0  0  0  0  0  0
   19.2680   29.5441   14.2354 C   0  0  0  0  0  0  0  0  0  0  0  0
   20.6476   30.6899   12.0340 O   0  0  0  0  0  0  0  0  0  0  0  0
   20.8815   29.5653   12.4390 C   0  0  0  0  0  0  0  0  0  0  0  0
   20.3952   28.9712   13.5075 N   0  0  0  0  0  0  0  0  0  0  0  0
   20.7973   28.1287   13.8201 H   0  0  0  0  0  0  0  0  0  0  0  0
   21.6862   28.7071   11.6567 O   0  0  0  0  0  0  0  0  0  0  0  0
   22.1050   27.4945   12.2957 C   0  0  0  0  0  0  0  0  0  0  0  0
   22.3939   26.4772   11.2035 C   0  0  0  0  0  0  0  0  0  0  0  0
   21.5627   25.2186   11.3764 C   0  0  0  0  0  0  0  0  0  0  0  0
   23.8550   26.2099   11.2431 C   0  0  0  0  0  0  0  0  0  0  0  0
   24.3513   25.1174   11.4571 O   0  0  0  0  0  0  0  0  0  0  0  0
   24.7117   27.3065   11.0150 O   0  0  0  0  0  0  0  0  0  0  0  0
   25.9424   27.4513   11.7394 C   0  0  0  0  0  0  0  0  0  0  0  0
   18.1129   28.5259   14.2113 C   0  0  0  0  0  0  0  0  0  0  0  0
   17.8093   28.1639   12.7684 C   0  0  0  0  0  0  0  0  0  0  0  0
   17.2077   29.0945   11.9370 C   0  0  0  0  0  0  0  0  0  0  0  0
   16.9951   28.7904   10.5986 C   0  0  0  0  0  0  0  0  0  0  0  0
   17.3585   27.5418   10.0995 C   0  0  0  0  0  0  0  0  0  0  0  0
   17.9492   26.5989   10.9255 C   0  0  0  0  0  0  0  0  0  0  0  0
   18.1716   26.9120   12.2594 C   0  0  0  0  0  0  0  0  0  0  0  0
   18.7124   30.8873   16.3665 C   0  0  0  0  0  0  0  0  0  0  0  0
   18.8194   32.2530   15.8161 N   0  0  0  0  0  0  0  0  0  0  0  0
   17.4844   32.8888   15.1491 S   0  0  0  0  0  0  0  0  0  0  0  0
   17.9457   33.6215   13.9875 O   0  0  0  0  0  0  0  0  0  0  0  0
   16.5904   31.8275   14.8957 O   0  0  0  0  0  0  0  0  0  0  0  0
   16.7636   33.9462   16.1873 C   0  0  0  0  0  0  0  0  0  0  0  0
   15.8856   33.5281   17.2140 C   0  0  0  0  0  0  0  0  0  0  0  0
   15.2133   34.4228   18.0465 C   0  0  0  0  0  0  0  0  0  0  0  0
   16.9382   35.3301   16.0459 C   0  0  0  0  0  0  0  0  0  0  0  0
   16.2428   36.2369   16.8605 C   0  0  0  0  0  0  0  0  0  0  0  0
   15.3902   35.7875   17.8607 C   0  0  0  0  0  0  0  0  0  0  0  0
   14.7393   36.7197   18.6385 O   0  0  0  0  0  0  0  0  0  0  0  0
   15.2294   38.0649   18.6690 C   0  0  0  0  0  0  0  0  0  0  0  0
   19.5470   33.1859   16.7156 C   0  0  0  0  0  0  0  0  0  0  0  0
   20.6463   33.9629   15.9812 C   0  0  0  0  0  0  0  0  0  0  0  0
   20.9814   35.2676   16.7014 C   0  0  0  0  0  0  0  0  0  0  0  0
   21.8616   33.0453   15.7836 C   0  0  0  0  0  0  0  0  0  0  0  0
   22.2102   32.7956   14.3333 C   0  0  0  0  0  0  0  0  0  0  0  0
 21 20  2  0  0  0
 21 22  1  0  0  0
 11 12  1  0  0  0
 11 10  1  0  0  0
 11 13  1  0  0  0
 10  9  1  0  0  0
 20 19  1  0  0  0
 22 23  2  0  0  0
 15 13  1  0  0  0
 15 16  1  0  0  0
 13 14  2  0  0  0
  5  6  2  0  0  0
 19 18  2  0  0  0
  9  6  1  0  0  0
 23 18  1  0  0  0
  6  7  1  0  0  0
 18 17  1  0  0  0
 27 26  2  0  0  0
  7  4  1  0  0  0
 17  4  1  0  0  0
  4  1  1  0  0  0
 28 26  2  0  0  0
 39 38  1  0  0  0
 26 25  1  0  0  0
 26 29  1  0  0  0
 25 37  1  0  0  0
 25 24  1  0  0  0
  1 24  1  0  0  0
  1  2  1  0  0  0
 29 30  2  0  0  0
 29 32  1  0  0  0
 30 31  1  0  0  0
 38 37  1  0  0  0
 38 40  1  0  0  0
 41 40  1  0  0  0
 32 33  2  0  0  0
 31 34  2  0  0  0
 33 34  1  0  0  0
 34 35  1  0  0  0
 35 36  1  0  0  0
  7  8  1  0  0  0
  2  3  1  0  0  0
M  END
> <minimizedAffinity>
-8.45700

$$$$
4DJP_M73_A_200


 41 42  0  0  0  0  0  0  0  0999 V2000
   20.6596   31.7192   13.7728 C   0  0  0  0  0  0  0  0  0  0  0  0
   21.7055   32.6694   13.4602 O   0  0  0  0  0  0  0  0  0  0  0  0
   21.3279   33.4159   12.9693 H   0  0  0  0  0  0  0  0  0  0  0  0
   19.6325   32.4062   14.6753 C   0  0  0  0  0  0  0  0  0  0  0  0
   21.0947   31.9265   17.0615 O   0  0  0  0  0  0  0  0  0  0  0  0
   20.8610   33.0496   16.6521 C   0  0  0  0  0  0  0  0  0  0  0  0
   20.2981   33.3967   15.5146 N   0  0  0  0  0  0  0  0  0  0  0  0
   20.3264   34.3375   15.2259 H   0  0  0  0  0  0  0  0  0  0  0  0
   21.1079   34.1542   17.4975 O   0  0  0  0  0  0  0  0  0  0  0  0
   20.1746   35.2369   17.3938 C   0  0  0  0  0  0  0  0  0  0  0  0
   19.4330   35.3309   18.7177 C   0  0  0  0  0  0  0  0  0  0  0  0
   18.1305   36.0979   18.5767 C   0  0  0  0  0  0  0  0  0  0  0  0
   20.3669   35.9592   19.6877 C   0  0  0  0  0  0  0  0  0  0  0  0
   20.8043   35.4063   20.6820 O   0  0  0  0  0  0  0  0  0  0  0  0
   20.7644   37.2864   19.4245 O   0  0  0  0  0  0  0  0  0  0  0  0
   22.1466   37.6245   19.2360 C   0  0  0  0  0  0  0  0  0  0  0  0
   18.4626   33.0981   13.9512 C   0  0  0  0  0  0  0  0  0  0  0  0
   17.2945   33.2196   14.9135 C   0  0  0  0  0  0  0  0  0  0  0  0
   16.6841   32.0766   15.4035 C   0  0  0  0  0  0  0  0  0  0  0  0
   15.6633   32.1849   16.3389 C   0  0  0  0  0  0  0  0  0  0  0  0
   15.2332   33.4405   16.7616 C   0  0  0  0  0  0  0  0  0  0  0  0
   15.8281   34.5906   16.2682 C   0  0  0  0  0  0  0  0  0  0  0  0
   16.8568   34.4772   15.3432 C   0  0  0  0  0  0  0  0  0  0  0  0
   20.0869   31.1964   12.4427 C   0  0  0  0  0  0  0  0  0  0  0  0
   19.8378   29.7492   12.5941 N   0  0  0  0  0  0  0  0  0  0  0  0
   18.2904   29.2685   12.6703 S   0  0  0  0  0  0  0  0  0  0  0  0
   18.0721   28.8902   14.0516 O   0  0  0  0  0  0  0  0  0  0  0  0
   17.4934   30.3268   12.1858 O   0  0  0  0  0  0  0  0  0  0  0  0
   18.0450   27.9471   11.7168 C   0  0  0  0  0  0  0  0  0  0  0  0
   18.1306   26.6245   12.2098 C   0  0  0  0  0  0  0  0  0  0  0  0
   17.9996   25.5017   11.3926 C   0  0  0  0  0  0  0  0  0  0  0  0
   17.8092   28.0823   10.3414 C   0  0  0  0  0  0  0  0  0  0  0  0
   17.7055   26.9578    9.5082 C   0  0  0  0  0  0  0  0  0  0  0  0
   17.7926   25.6736   10.0302 C   0  0  0  0  0  0  0  0  0  0  0  0
   17.6744   24.6042    9.1700 O   0  0  0  0  0  0  0  0  0  0  0  0
   17.0667   24.8053    7.8890 C   0  0  0  0  0  0  0  0  0  0  0  0
   20.6841   28.9179   11.6988 C   0  0  0  0  0  0  0  0  0  0  0  0
   21.8216   28.2215   12.4555 C   0  0  0  0  0  0  0  0  0  0  0  0
   21.6867   28.4156   13.9646 C   0  0  0  0  0  0  0  0  0  0  0  0
   21.8753   26.7464   12.0323 C   0  0  0  0  0  0  0  0  0  0  0  0
   21.5236   26.5135   10.5799 C   0  0  0  0  0  0  0  0  0  0  0  0
 21 20  2  0  0  0
 21 22  1  0  0  0
 11 12  1  0  0  0
 11 10  1  0  0  0
 11 13  1  0  0  0
 10  9  1  0  0  0
 20 19  1  0  0  0
 22 23  2  0  0  0
 15 13  1  0  0  0
 15 16  1  0  0  0
 13 14  2  0  0  0
  5  6  2  0  0  0
 19 18  2  0  0  0
  9  6  1  0  0  0
 23 18  1  0  0  0
  6  7  1  0  0  0
 18 17  1  0  0  0
 27 26  2  0  0  0
  7  4  1  0  0  0
 17  4  1  0  0  0
  4  1  1  0  0  0
 28 26  2  0  0  0
 39 38  1  0  0  0
 26 25  1  0  0  0
 26 29  1  0  0  0
 25 37  1  0  0  0
 25 24  1  0  0  0
  1 24  1  0  0  0
  1  2  1  0  0  0
 29 30  2  0  0  0
 29 32  1  0  0  0
 30 31  1  0  0  0
 38 37  1  0  0  0
 38 40  1  0  0  0
 41 40  1  0  0  0
 32 33  2  0  0  0
 31 34  2  0  0  0
 33 34  1  0  0  0
 34 35  1  0  0  0
 35 36  1  0  0  0
  7  8  1  0  0  0
  2  3  1  0  0  0
M  END
> <minimizedAffinity>
-8.14804

$$$$
4DJP_M73_A_200


 41 42  0  0  0  0  0  0  0  0999 V2000
   18.8526   28.8628   13.9900 C   0  0  0  0  0  0  0  0  0  0  0  0
   17.6311   28.4352   14.6377 O   0  0  0  0  0  0  0  0  0  0  0  0
   16.8760   28.6183   14.0570 H   0  0  0  0  0  0  0  0  0  0  0  0
   19.0343   28.0470   12.7082 C   0  0  0  0  0  0  0  0  0  0  0  0
   21.4764   28.8825   11.5249 O   0  0  0  0  0  0  0  0  0  0  0  0
   21.3499   27.8004   12.0694 C   0  0  0  0  0  0  0  0  0  0  0  0
   20.3150   27.3494   12.7453 N   0  0  0  0  0  0  0  0  0  0  0  0
   20.4062   26.5300   13.2834 H   0  0  0  0  0  0  0  0  0  0  0  0
   22.3611   26.8273   11.9069 O   0  0  0  0  0  0  0  0  0  0  0  0
   23.7045   27.2898   12.0951 C   0  0  0  0  0  0  0  0  0  0  0  0
   24.5799   26.5831   11.0725 C   0  0  0  0  0  0  0  0  0  0  0  0
   26.0412   26.9641   11.2275 C   0  0  0  0  0  0  0  0  0  0  0  0
   24.0360   26.9268    9.7331 C   0  0  0  0  0  0  0  0  0  0  0  0
   24.0271   28.0497    9.2592 O   0  0  0  0  0  0  0  0  0  0  0  0
   23.4975   25.8693    8.9714 O   0  0  0  0  0  0  0  0  0  0  0  0
   24.3435   25.0026    8.2011 C   0  0  0  0  0  0  0  0  0  0  0  0
   17.9322   27.0131   12.4113 C   0  0  0  0  0  0  0  0  0  0  0  0
   17.9295   26.7142   10.9227 C   0  0  0  0  0  0  0  0  0  0  0  0
   17.7288   25.4165   10.4814 C   0  0  0  0  0  0  0  0  0  0  0  0
   17.6541   25.1532    9.1198 C   0  0  0  0  0  0  0  0  0  0  0  0
   17.8104   26.1864    8.1987 C   0  0  0  0  0  0  0  0  0  0  0  0
   18.0245   27.4860    8.6292 C   0  0  0  0  0  0  0  0  0  0  0  0
   18.0855   27.7465    9.9912 C   0  0  0  0  0  0  0  0  0  0  0  0
   18.7586   30.3833   13.7667 C   0  0  0  0  0  0  0  0  0  0  0  0
   19.5232   31.0473   14.8410 N   0  0  0  0  0  0  0  0  0  0  0  0
   20.9707   31.6640   14.4466 S   0  0  0  0  0  0  0  0  0  0  0  0
   21.9026   30.5602   14.5569 O   0  0  0  0  0  0  0  0  0  0  0  0
   20.8495   32.2452   13.1671 O   0  0  0  0  0  0  0  0  0  0  0  0
   21.4135   32.8365   15.5164 C   0  0  0  0  0  0  0  0  0  0  0  0
   22.0060   32.5438   16.7666 C   0  0  0  0  0  0  0  0  0  0  0  0
   22.3128   33.5265   17.7079 C   0  0  0  0  0  0  0  0  0  0  0  0
   21.1500   34.1888   15.2564 C   0  0  0  0  0  0  0  0  0  0  0  0
   21.4288   35.1796   16.2101 C   0  0  0  0  0  0  0  0  0  0  0  0
   22.0138   34.8532   17.4269 C   0  0  0  0  0  0  0  0  0  0  0  0
   22.2755   35.8653   18.3239 O   0  0  0  0  0  0  0  0  0  0  0  0
   22.2982   35.5657   19.7240 C   0  0  0  0  0  0  0  0  0  0  0  0
   18.6884   31.9526   15.6730 C   0  0  0  0  0  0  0  0  0  0  0  0
   17.3887   32.3575   14.9671 C   0  0  0  0  0  0  0  0  0  0  0  0
   16.1700   32.0891   15.8480 C   0  0  0  0  0  0  0  0  0  0  0  0
   17.5013   33.8191   14.5100 C   0  0  0  0  0  0  0  0  0  0  0  0
   16.5247   34.7505   15.1926 C   0  0  0  0  0  0  0  0  0  0  0  0
 21 20  2  0  0  0
 21 22  1  0  0  0
 11 12  1  0  0  0
 11 10  1  0  0  0
 11 13  1  0  0  0
 10  9  1  0  0  0
 20 19  1  0  0  0
 22 23  2  0  0  0
 15 13  1  0  0  0
 15 16  1  0  0  0
 13 14  2  0  0  0
  5  6  2  0  0  0
 19 18  2  0  0  0
  9  6  1  0  0  0
 23 18  1  0  0  0
  6  7  1  0  0  0
 18 17  1  0  0  0
 27 26  2  0  0  0
  7  4  1  0  0  0
 17  4  1  0  0  0
  4  1  1  0  0  0
 28 26  2  0  0  0
 39 38  1  0  0  0
 26 25  1  0  0  0
 26 29  1  0  0  0
 25 37  1  0  0  0
 25 24  1  0  0  0
  1 24  1  0  0  0
  1  2  1  0  0  0
 29 30  2  0  0  0
 29 32  1  0  0  0
 30 31  1  0  0  0
 38 37  1  0  0  0
 38 40  1  0  0  0
 41 40  1  0  0  0
 32 33  2  0  0  0
 31 34  2  0  0  0
 33 34  1  0  0  0
 34 35  1  0  0  0
 35 36  1  0  0  0
  7  8  1  0  0  0
  2  3  1  0  0  0
M  END
> <minimizedAffinity>
-8.05323

$$$$
4DJP_M73_A_200


 41 42  0  0  0  0  0  0  0  0999 V2000
   18.8948   29.9938   14.6187 C   0  0  0  0  0  0  0  0  0  0  0  0
   17.6414   29.8369   15.3250 O   0  0  0  0  0  0  0  0  0  0  0  0
   16.9048   30.0203   14.7212 H   0  0  0  0  0  0  0  0  0  0  0  0
   18.9462   28.9663   13.4859 C   0  0  0  0  0  0  0  0  0  0  0  0
   21.3702   29.5289   12.1185 O   0  0  0  0  0  0  0  0  0  0  0  0
   21.2180   28.5276   12.7949 C   0  0  0  0  0  0  0  0  0  0  0  0
   20.1939   28.2138   13.5592 N   0  0  0  0  0  0  0  0  0  0  0  0
   20.2707   27.4610   14.1890 H   0  0  0  0  0  0  0  0  0  0  0  0
   22.1753   27.4918   12.7139 O   0  0  0  0  0  0  0  0  0  0  0  0
   22.9815   27.4821   11.5290 C   0  0  0  0  0  0  0  0  0  0  0  0
   22.6532   26.2113   10.7618 C   0  0  0  0  0  0  0  0  0  0  0  0
   21.6207   25.3689   11.4892 C   0  0  0  0  0  0  0  0  0  0  0  0
   23.9372   25.4928   10.5543 C   0  0  0  0  0  0  0  0  0  0  0  0
   24.6962   25.1633   11.4492 O   0  0  0  0  0  0  0  0  0  0  0  0
   24.2858   25.1781    9.2246 O   0  0  0  0  0  0  0  0  0  0  0  0
   23.9825   23.8933    8.6612 C   0  0  0  0  0  0  0  0  0  0  0  0
   17.7805   27.9609   13.4412 C   0  0  0  0  0  0  0  0  0  0  0  0
   17.7917   27.2579   12.0956 C   0  0  0  0  0  0  0  0  0  0  0  0
   17.9233   25.8800   12.0396 C   0  0  0  0  0  0  0  0  0  0  0  0
   17.8613   25.2288   10.8145 C   0  0  0  0  0  0  0  0  0  0  0  0
   17.6970   25.9615    9.6413 C   0  0  0  0  0  0  0  0  0  0  0  0
   17.5772   27.3413    9.6847 C   0  0  0  0  0  0  0  0  0  0  0  0
   17.6268   27.9867   10.9126 C   0  0  0  0  0  0  0  0  0  0  0  0
   18.9912   31.4580   14.1524 C   0  0  0  0  0  0  0  0  0  0  0  0
   19.5694   32.2483   15.2572 N   0  0  0  0  0  0  0  0  0  0  0  0
   21.1588   32.5648   15.1879 S   0  0  0  0  0  0  0  0  0  0  0  0
   21.8135   31.3436   15.6109 O   0  0  0  0  0  0  0  0  0  0  0  0
   21.4479   32.9993   13.8774 O   0  0  0  0  0  0  0  0  0  0  0  0
   21.5577   33.7685   16.2402 C   0  0  0  0  0  0  0  0  0  0  0  0
   21.8441   33.5257   17.6036 C   0  0  0  0  0  0  0  0  0  0  0  0
   22.1074   34.5475   18.5159 C   0  0  0  0  0  0  0  0  0  0  0  0
   21.5585   35.1110   15.8359 C   0  0  0  0  0  0  0  0  0  0  0  0
   21.7936   36.1459   16.7540 C   0  0  0  0  0  0  0  0  0  0  0  0
   22.0740   35.8674   18.0856 C   0  0  0  0  0  0  0  0  0  0  0  0
   22.3067   36.9200   18.9431 O   0  0  0  0  0  0  0  0  0  0  0  0
   21.5734   38.1372   18.7661 C   0  0  0  0  0  0  0  0  0  0  0  0
   18.7365   33.4217   15.6291 C   0  0  0  0  0  0  0  0  0  0  0  0
   17.9643   33.1962   16.9346 C   0  0  0  0  0  0  0  0  0  0  0  0
   18.1409   34.3704   17.8955 C   0  0  0  0  0  0  0  0  0  0  0  0
   16.4957   32.8951   16.6023 C   0  0  0  0  0  0  0  0  0  0  0  0
   15.8954   33.8330   15.5789 C   0  0  0  0  0  0  0  0  0  0  0  0
 21 20  2  0  0  0
 21 22  1  0  0  0
 11 12  1  0  0  0
 11 10  1  0  0  0
 11 13  1  0  0  0
 10  9  1  0  0  0
 20 19  1  0  0  0
 22 23  2  0  0  0
 15 13  1  0  0  0
 15 16  1  0  0  0
 13 14  2  0  0  0
  5  6  2  0  0  0
 19 18  2  0  0  0
  9  6  1  0  0  0
 23 18  1  0  0  0
  6  7  1  0  0  0
 18 17  1  0  0  0
 27 26  2  0  0  0
  7  4  1  0  0  0
 17  4  1  0  0  0
  4  1  1  0  0  0
 28 26  2  0  0  0
 39 38  1  0  0  0
 26 25  1  0  0  0
 26 29  1  0  0  0
 25 37  1  0  0  0
 25 24  1  0  0  0
  1 24  1  0  0  0
  1  2  1  0  0  0
 29 30  2  0  0  0
 29 32  1  0  0  0
 30 31  1  0  0  0
 38 37  1  0  0  0
 38 40  1  0  0  0
 41 40  1  0  0  0
 32 33  2  0  0  0
 31 34  2  0  0  0
 33 34  1  0  0  0
 34 35  1  0  0  0
 35 36  1  0  0  0
  7  8  1  0  0  0
  2  3  1  0  0  0
M  END
> <minimizedAffinity>
-7.75299

$$$$
4DJP_M73_A_200


 41 42  0  0  0  0  0  0  0  0999 V2000
   20.7245   30.3615   14.2999 C   0  0  0  0  0  0  0  0  0  0  0  0
   22.0367   30.2671   14.9030 O   0  0  0  0  0  0  0  0  0  0  0  0
   22.5964   30.9877   14.5738 H   0  0  0  0  0  0  0  0  0  0  0  0
   20.0878   31.6861   14.7261 C   0  0  0  0  0  0  0  0  0  0  0  0
   21.3316   32.2143   17.2232 O   0  0  0  0  0  0  0  0  0  0  0  0
   21.5534   32.8806   16.2281 C   0  0  0  0  0  0  0  0  0  0  0  0
   21.1308   32.6687   15.0002 N   0  0  0  0  0  0  0  0  0  0  0  0
   21.5237   33.1801   14.2563 H   0  0  0  0  0  0  0  0  0  0  0  0
   22.2598   34.0970   16.3592 O   0  0  0  0  0  0  0  0  0  0  0  0
   21.5099   35.2848   16.0747 C   0  0  0  0  0  0  0  0  0  0  0  0
   21.4359   36.0980   17.3572 C   0  0  0  0  0  0  0  0  0  0  0  0
   22.2187   35.4436   18.4813 C   0  0  0  0  0  0  0  0  0  0  0  0
   19.9943   36.2587   17.6795 C   0  0  0  0  0  0  0  0  0  0  0  0
   19.5116   37.2431   18.2120 O   0  0  0  0  0  0  0  0  0  0  0  0
   19.1402   35.1895   17.3388 O   0  0  0  0  0  0  0  0  0  0  0  0
   18.2484   34.6140   18.3050 C   0  0  0  0  0  0  0  0  0  0  0  0
   19.0961   32.3048   13.7234 C   0  0  0  0  0  0  0  0  0  0  0  0
   17.8367   32.7111   14.4678 C   0  0  0  0  0  0  0  0  0  0  0  0
   17.1269   31.7644   15.1882 C   0  0  0  0  0  0  0  0  0  0  0  0
   16.0161   32.1487   15.9280 C   0  0  0  0  0  0  0  0  0  0  0  0
   15.5983   33.4775   15.9222 C   0  0  0  0  0  0  0  0  0  0  0  0
   16.2935   34.4301   15.1946 C   0  0  0  0  0  0  0  0  0  0  0  0
   17.4108   34.0439   14.4672 C   0  0  0  0  0  0  0  0  0  0  0  0
   20.8941   30.1993   12.7782 C   0  0  0  0  0  0  0  0  0  0  0  0
   20.3840   28.8652   12.4049 N   0  0  0  0  0  0  0  0  0  0  0  0
   18.7850   28.7228   12.1718 S   0  0  0  0  0  0  0  0  0  0  0  0
   18.2329   28.4054   13.4731 O   0  0  0  0  0  0  0  0  0  0  0  0
   18.3336   29.9234   11.5849 O   0  0  0  0  0  0  0  0  0  0  0  0
   18.4567   27.4788   11.1422 C   0  0  0  0  0  0  0  0  0  0  0  0
   18.3853   27.6481    9.7400 C   0  0  0  0  0  0  0  0  0  0  0  0
   18.0330   26.6166    8.8696 C   0  0  0  0  0  0  0  0  0  0  0  0
   18.1590   26.1979   11.6282 C   0  0  0  0  0  0  0  0  0  0  0  0
   17.7754   25.1631   10.7614 C   0  0  0  0  0  0  0  0  0  0  0  0
   17.7192   25.3674    9.3886 C   0  0  0  0  0  0  0  0  0  0  0  0
   17.3460   24.3153    8.5815 O   0  0  0  0  0  0  0  0  0  0  0  0
   16.5127   24.5714    7.4454 C   0  0  0  0  0  0  0  0  0  0  0  0
   21.2071   28.2004   11.3612 C   0  0  0  0  0  0  0  0  0  0  0  0
   22.1307   27.1253   11.9465 C   0  0  0  0  0  0  0  0  0  0  0  0
   21.7049   25.7260   11.5061 C   0  0  0  0  0  0  0  0  0  0  0  0
   23.5844   27.4628   11.5850 C   0  0  0  0  0  0  0  0  0  0  0  0
   24.5487   26.3167   11.7939 C   0  0  0  0  0  0  0  0  0  0  0  0
 21 20  2  0  0  0
 21 22  1  0  0  0
 11 12  1  0  0  0
 11 10  1  0  0  0
 11 13  1  0  0  0
 10  9  1  0  0  0
 20 19  1  0  0  0
 22 23  2  0  0  0
 15 13  1  0  0  0
 15 16  1  0  0  0
 13 14  2  0  0  0
  5  6  2  0  0  0
 19 18  2  0  0  0
  9  6  1  0  0  0
 23 18  1  0  0  0
  6  7  1  0  0  0
 18 17  1  0  0  0
 27 26  2  0  0  0
  7  4  1  0  0  0
 17  4  1  0  0  0
  4  1  1  0  0  0
 28 26  2  0  0  0
 39 38  1  0  0  0
 26 25  1  0  0  0
 26 29  1  0  0  0
 25 37  1  0  0  0
 25 24  1  0  0  0
  1 24  1  0  0  0
  1  2  1  0  0  0
 29 30  2  0  0  0
 29 32  1  0  0  0
 30 31  1  0  0  0
 38 37  1  0  0  0
 38 40  1  0  0  0
 41 40  1  0  0  0
 32 33  2  0  0  0
 31 34  2  0  0  0
 33 34  1  0  0  0
 34 35  1  0  0  0
 35 36  1  0  0  0
  7  8  1  0  0  0
  2  3  1  0  0  0
M  END
> <minimizedAffinity>
-7.73707

$$$$
4DJP_M73_A_200


 41 42  0  0  0  0  0  0  0  0999 V2000
   19.0885   31.0425   12.7483 C   0  0  0  0  0  0  0  0  0  0  0  0
   20.0010   31.8518   11.9692 O   0  0  0  0  0  0  0  0  0  0  0  0
   20.8983   31.4912   12.0450 H   0  0  0  0  0  0  0  0  0  0  0  0
   19.0785   29.6265   12.1684 C   0  0  0  0  0  0  0  0  0  0  0  0
   21.5695   29.2614   10.8556 O   0  0  0  0  0  0  0  0  0  0  0  0
   21.2969   28.7095   11.9066 C   0  0  0  0  0  0  0  0  0  0  0  0
   20.2334   28.8837   12.6614 N   0  0  0  0  0  0  0  0  0  0  0  0
   20.2167   28.5078   13.5712 H   0  0  0  0  0  0  0  0  0  0  0  0
   22.1340   27.6723   12.3751 O   0  0  0  0  0  0  0  0  0  0  0  0
   23.4125   27.5689   11.7356 C   0  0  0  0  0  0  0  0  0  0  0  0
   23.7540   26.0911   11.6307 C   0  0  0  0  0  0  0  0  0  0  0  0
   25.0310   25.8662   10.8411 C   0  0  0  0  0  0  0  0  0  0  0  0
   22.5762   25.4220   11.0199 C   0  0  0  0  0  0  0  0  0  0  0  0
   21.7406   24.7908   11.6437 O   0  0  0  0  0  0  0  0  0  0  0  0
   22.4305   25.5352    9.6219 O   0  0  0  0  0  0  0  0  0  0  0  0
   21.2596   25.0414    8.9545 C   0  0  0  0  0  0  0  0  0  0  0  0
   17.8143   28.7951   12.4552 C   0  0  0  0  0  0  0  0  0  0  0  0
   17.8070   27.5837   11.5400 C   0  0  0  0  0  0  0  0  0  0  0  0
   18.0161   26.3202   12.0683 C   0  0  0  0  0  0  0  0  0  0  0  0
   17.9380   25.2049   11.2444 C   0  0  0  0  0  0  0  0  0  0  0  0
   17.6797   25.3576    9.8842 C   0  0  0  0  0  0  0  0  0  0  0  0
   17.4818   26.6178    9.3431 C   0  0  0  0  0  0  0  0  0  0  0  0
   17.5478   27.7287   10.1727 C   0  0  0  0  0  0  0  0  0  0  0  0
   19.5301   31.1222   14.2211 C   0  0  0  0  0  0  0  0  0  0  0  0
   19.0194   32.3898   14.7795 N   0  0  0  0  0  0  0  0  0  0  0  0
   17.8167   32.2898   15.8633 S   0  0  0  0  0  0  0  0  0  0  0  0
   16.6300   31.9756   15.0940 O   0  0  0  0  0  0  0  0  0  0  0  0
   18.1964   31.3364   16.8312 O   0  0  0  0  0  0  0  0  0  0  0  0
   17.5896   33.7389   16.6143 C   0  0  0  0  0  0  0  0  0  0  0  0
   18.2294   34.0766   17.8294 C   0  0  0  0  0  0  0  0  0  0  0  0
   17.9830   35.2696   18.5090 C   0  0  0  0  0  0  0  0  0  0  0  0
   16.6830   34.6810   16.1080 C   0  0  0  0  0  0  0  0  0  0  0  0
   16.4082   35.8699   16.8009 C   0  0  0  0  0  0  0  0  0  0  0  0
   17.0590   36.1678   17.9913 C   0  0  0  0  0  0  0  0  0  0  0  0
   16.7595   37.3529   18.6264 O   0  0  0  0  0  0  0  0  0  0  0  0
   15.4284   37.8732   18.5371 C   0  0  0  0  0  0  0  0  0  0  0  0
   20.1022   33.3319   15.1654 C   0  0  0  0  0  0  0  0  0  0  0  0
   21.4335   32.6147   15.4197 C   0  0  0  0  0  0  0  0  0  0  0  0
   22.5252   33.1170   14.4766 C   0  0  0  0  0  0  0  0  0  0  0  0
   21.8000   32.7506   16.9046 C   0  0  0  0  0  0  0  0  0  0  0  0
   22.0453   34.1761   17.3462 C   0  0  0  0  0  0  0  0  0  0  0  0
 21 20  2  0  0  0
 21 22  1  0  0  0
 11 12  1  0  0  0
 11 10  1  0  0  0
 11 13  1  0  0  0
 10  9  1  0  0  0
 20 19  1  0  0  0
 22 23  2  0  0  0
 15 13  1  0  0  0
 15 16  1  0  0  0
 13 14  2  0  0  0
  5  6  2  0  0  0
 19 18  2  0  0  0
  9  6  1  0  0  0
 23 18  1  0  0  0
  6  7  1  0  0  0
 18 17  1  0  0  0
 27 26  2  0  0  0
  7  4  1  0  0  0
 17  4  1  0  0  0
  4  1  1  0  0  0
 28 26  2  0  0  0
 39 38  1  0  0  0
 26 25  1  0  0  0
 26 29  1  0  0  0
 25 37  1  0  0  0
 25 24  1  0  0  0
  1 24  1  0  0  0
  1  2  1  0  0  0
 29 30  2  0  0  0
 29 32  1  0  0  0
 30 31  1  0  0  0
 38 37  1  0  0  0
 38 40  1  0  0  0
 41 40  1  0  0  0
 32 33  2  0  0  0
 31 34  2  0  0  0
 33 34  1  0  0  0
 34 35  1  0  0  0
 35 36  1  0  0  0
  7  8  1  0  0  0
  2  3  1  0  0  0
M  END
> <minimizedAffinity>
-7.50470

$$$$
4DJP_M73_A_200


 41 42  0  0  0  0  0  0  0  0999 V2000
   19.5541   35.2132   18.5542 C   0  0  0  0  0  0  0  0  0  0  0  0
   19.7991   34.9637   19.9585 O   0  0  0  0  0  0  0  0  0  0  0  0
   19.8608   34.0077   20.1111 H   0  0  0  0  0  0  0  0  0  0  0  0
   20.7442   34.6832   17.7515 C   0  0  0  0  0  0  0  0  0  0  0  0
   22.4749   32.5026   17.1933 O   0  0  0  0  0  0  0  0  0  0  0  0
   21.3120   32.5239   16.8318 C   0  0  0  0  0  0  0  0  0  0  0  0
   20.3892   33.4156   17.1225 N   0  0  0  0  0  0  0  0  0  0  0  0
   19.4464   33.2249   16.9127 H   0  0  0  0  0  0  0  0  0  0  0  0
   20.8631   31.5573   15.9044 O   0  0  0  0  0  0  0  0  0  0  0  0
   21.4933   31.5909   14.6176 C   0  0  0  0  0  0  0  0  0  0  0  0
   21.3266   30.2164   13.9897 C   0  0  0  0  0  0  0  0  0  0  0  0
   22.5455   29.3422   14.2238 C   0  0  0  0  0  0  0  0  0  0  0  0
   21.0462   30.4360   12.5471 C   0  0  0  0  0  0  0  0  0  0  0  0
   20.6518   31.4873   12.0729 O   0  0  0  0  0  0  0  0  0  0  0  0
   21.2565   29.3428   11.6815 O   0  0  0  0  0  0  0  0  0  0  0  0
   20.3362   28.2422   11.6374 C   0  0  0  0  0  0  0  0  0  0  0  0
   21.2885   35.6249   16.6613 C   0  0  0  0  0  0  0  0  0  0  0  0
   21.5771   36.9793   17.2838 C   0  0  0  0  0  0  0  0  0  0  0  0
   22.0803   37.0517   18.5724 C   0  0  0  0  0  0  0  0  0  0  0  0
   22.4125   38.2857   19.1165 C   0  0  0  0  0  0  0  0  0  0  0  0
   22.2125   39.4508   18.3798 C   0  0  0  0  0  0  0  0  0  0  0  0
   21.6976   39.3907   17.0948 C   0  0  0  0  0  0  0  0  0  0  0  0
   21.3792   38.1543   16.5502 C   0  0  0  0  0  0  0  0  0  0  0  0
   18.2048   34.5670   18.1905 C   0  0  0  0  0  0  0  0  0  0  0  0
   17.3276   35.6235   17.6487 N   0  0  0  0  0  0  0  0  0  0  0  0
   16.3499   35.2160   16.4202 S   0  0  0  0  0  0  0  0  0  0  0  0
   15.0433   35.0226   17.0156 O   0  0  0  0  0  0  0  0  0  0  0  0
   16.4420   36.2349   15.4491 O   0  0  0  0  0  0  0  0  0  0  0  0
   16.8341   33.7958   15.7390 C   0  0  0  0  0  0  0  0  0  0  0  0
   17.6968   33.7420   14.6198 C   0  0  0  0  0  0  0  0  0  0  0  0
   18.0492   32.5473   13.9919 C   0  0  0  0  0  0  0  0  0  0  0  0
   16.3448   32.5672   16.2045 C   0  0  0  0  0  0  0  0  0  0  0  0
   16.6714   31.3641   15.5602 C   0  0  0  0  0  0  0  0  0  0  0  0
   17.5247   31.3514   14.4642 C   0  0  0  0  0  0  0  0  0  0  0  0
   17.8205   30.1422   13.8745 O   0  0  0  0  0  0  0  0  0  0  0  0
   17.3216   29.8681   12.5605 C   0  0  0  0  0  0  0  0  0  0  0  0
   16.6622   36.4254   18.7085 C   0  0  0  0  0  0  0  0  0  0  0  0
   16.7135   37.9301   18.4176 C   0  0  0  0  0  0  0  0  0  0  0  0
   15.8507   38.7170   19.4024 C   0  0  0  0  0  0  0  0  0  0  0  0
   18.1797   38.3855   18.3917 C   0  0  0  0  0  0  0  0  0  0  0  0
   18.4037   39.7605   18.9805 C   0  0  0  0  0  0  0  0  0  0  0  0
 21 20  2  0  0  0
 21 22  1  0  0  0
 11 12  1  0  0  0
 11 10  1  0  0  0
 11 13  1  0  0  0
 10  9  1  0  0  0
 20 19  1  0  0  0
 22 23  2  0  0  0
 15 13  1  0  0  0
 15 16  1  0  0  0
 13 14  2  0  0  0
  5  6  2  0  0  0
 19 18  2  0  0  0
  9  6  1  0  0  0
 23 18  1  0  0  0
  6  7  1  0  0  0
 18 17  1  0  0  0
 27 26  2  0  0  0
  7  4  1  0  0  0
 17  4  1  0  0  0
  4  1  1  0  0  0
 28 26  2  0  0  0
 39 38  1  0  0  0
 26 25  1  0  0  0
 26 29  1  0  0  0
 25 37  1  0  0  0
 25 24  1  0  0  0
  1 24  1  0  0  0
  1  2  1  0  0  0
 29 30  2  0  0  0
 29 32  1  0  0  0
 30 31  1  0  0  0
 38 37  1  0  0  0
 38 40  1  0  0  0
 41 40  1  0  0  0
 32 33  2  0  0  0
 31 34  2  0  0  0
 33 34  1  0  0  0
 34 35  1  0  0  0
 35 36  1  0  0  0
  7  8  1  0  0  0
  2  3  1  0  0  0
M  END
> <minimizedAffinity>
-7.41471

$$$$
4DJP_M73_A_200


 41 42  0  0  0  0  0  0  0  0999 V2000
   18.8826   33.4252   15.4627 C   0  0  0  0  0  0  0  0  0  0  0  0
   20.3092   33.6467   15.5639 O   0  0  0  0  0  0  0  0  0  0  0  0
   20.7302   32.8675   15.9595 H   0  0  0  0  0  0  0  0  0  0  0  0
   18.6404   32.2347   14.5323 C   0  0  0  0  0  0  0  0  0  0  0  0
   19.9084   32.2003   11.9921 O   0  0  0  0  0  0  0  0  0  0  0  0
   20.3421   31.5826   12.9480 C   0  0  0  0  0  0  0  0  0  0  0  0
   19.9132   31.6083   14.1917 N   0  0  0  0  0  0  0  0  0  0  0  0
   20.4587   31.1993   14.9020 H   0  0  0  0  0  0  0  0  0  0  0  0
   21.3643   30.6291   12.7434 O   0  0  0  0  0  0  0  0  0  0  0  0
   20.9873   29.4642   11.9984 C   0  0  0  0  0  0  0  0  0  0  0  0
   21.3388   28.2482   12.8405 C   0  0  0  0  0  0  0  0  0  0  0  0
   21.7414   28.6409   14.2506 C   0  0  0  0  0  0  0  0  0  0  0  0
   22.4154   27.5233   12.1171 C   0  0  0  0  0  0  0  0  0  0  0  0
   23.6059   27.6466   12.3475 O   0  0  0  0  0  0  0  0  0  0  0  0
   22.0146   26.6355   11.0973 O   0  0  0  0  0  0  0  0  0  0  0  0
   21.3970   25.3775   11.4077 C   0  0  0  0  0  0  0  0  0  0  0  0
   17.6976   31.1438   15.0734 C   0  0  0  0  0  0  0  0  0  0  0  0
   17.6029   30.0266   14.0496 C   0  0  0  0  0  0  0  0  0  0  0  0
   17.2012   30.3115   12.7548 C   0  0  0  0  0  0  0  0  0  0  0  0
   17.1835   29.3039   11.7991 C   0  0  0  0  0  0  0  0  0  0  0  0
   17.5400   28.0034   12.1481 C   0  0  0  0  0  0  0  0  0  0  0  0
   17.9309   27.7050   13.4436 C   0  0  0  0  0  0  0  0  0  0  0  0
   17.9596   28.7178   14.3923 C   0  0  0  0  0  0  0  0  0  0  0  0
   18.3338   33.2381   16.8890 C   0  0  0  0  0  0  0  0  0  0  0  0
   17.9806   34.5706   17.4171 N   0  0  0  0  0  0  0  0  0  0  0  0
   16.4078   34.9675   17.4325 S   0  0  0  0  0  0  0  0  0  0  0  0
   15.9278   34.6914   16.0938 O   0  0  0  0  0  0  0  0  0  0  0  0
   15.7961   34.2357   18.4718 O   0  0  0  0  0  0  0  0  0  0  0  0
   16.2175   36.5753   17.7397 C   0  0  0  0  0  0  0  0  0  0  0  0
   16.8040   37.5799   16.9356 C   0  0  0  0  0  0  0  0  0  0  0  0
   16.7102   38.9393   17.2337 C   0  0  0  0  0  0  0  0  0  0  0  0
   15.5154   37.0168   18.8700 C   0  0  0  0  0  0  0  0  0  0  0  0
   15.4416   38.3806   19.1923 C   0  0  0  0  0  0  0  0  0  0  0  0
   16.0289   39.3387   18.3760 C   0  0  0  0  0  0  0  0  0  0  0  0
   15.9187   40.6646   18.7330 O   0  0  0  0  0  0  0  0  0  0  0  0
   15.1599   41.0111   19.8970 C   0  0  0  0  0  0  0  0  0  0  0  0
   18.6995   34.9060   18.6739 C   0  0  0  0  0  0  0  0  0  0  0  0
   20.1498   35.3331   18.4179 C   0  0  0  0  0  0  0  0  0  0  0  0
   20.2147   36.6044   17.5735 C   0  0  0  0  0  0  0  0  0  0  0  0
   20.8807   35.4558   19.7627 C   0  0  0  0  0  0  0  0  0  0  0  0
   22.0675   36.3927   19.7307 C   0  0  0  0  0  0  0  0  0  0  0  0
 21 20  2  0  0  0
 21 22  1  0  0  0
 11 12  1  0  0  0
 11 10  1  0  0  0
 11 13  1  0  0  0
 10  9  1  0  0  0
 20 19  1  0  0  0
 22 23  2  0  0  0
 15 13  1  0  0  0
 15 16  1  0  0  0
 13 14  2  0  0  0
  5  6  2  0  0  0
 19 18  2  0  0  0
  9  6  1  0  0  0
 23 18  1  0  0  0
  6  7  1  0  0  0
 18 17  1  0  0  0
 27 26  2  0  0  0
  7  4  1  0  0  0
 17  4  1  0  0  0
  4  1  1  0  0  0
 28 26  2  0  0  0
 39 38  1  0  0  0
 26 25  1  0  0  0
 26 29  1  0  0  0
 25 37  1  0  0  0
 25 24  1  0  0  0
  1 24  1  0  0  0
  1  2  1  0  0  0
 29 30  2  0  0  0
 29 32  1  0  0  0
 30 31  1  0  0  0
 38 37  1  0  0  0
 38 40  1  0  0  0
 41 40  1  0  0  0
 32 33  2  0  0  0
 31 34  2  0  0  0
 33 34  1  0  0  0
 34 35  1  0  0  0
 35 36  1  0  0  0
  7  8  1  0  0  0
  2  3  1  0  0  0
M  END
> <minimizedAffinity>
-7.34766

$$$$
4DJP_M73_A_200


 41 42  0  0  0  0  0  0  0  0999 V2000
   17.4775   32.3012   14.6931 C   0  0  0  0  0  0  0  0  0  0  0  0
   16.1266   31.7928   14.7978 O   0  0  0  0  0  0  0  0  0  0  0  0
   15.9468   31.5395   15.7167 H   0  0  0  0  0  0  0  0  0  0  0  0
   17.5929   33.5569   15.5598 C   0  0  0  0  0  0  0  0  0  0  0  0
   18.9734   34.2489   17.9426 O   0  0  0  0  0  0  0  0  0  0  0  0
   19.4861   34.3347   16.8411 C   0  0  0  0  0  0  0  0  0  0  0  0
   18.9944   33.9421   15.6855 N   0  0  0  0  0  0  0  0  0  0  0  0
   19.5802   33.9078   14.8950 H   0  0  0  0  0  0  0  0  0  0  0  0
   20.7139   35.0205   16.7065 O   0  0  0  0  0  0  0  0  0  0  0  0
   21.5781   34.9777   17.8490 C   0  0  0  0  0  0  0  0  0  0  0  0
   21.4229   36.2958   18.5905 C   0  0  0  0  0  0  0  0  0  0  0  0
   22.2631   37.3936   17.9633 C   0  0  0  0  0  0  0  0  0  0  0  0
   21.7850   36.0347   20.0078 C   0  0  0  0  0  0  0  0  0  0  0  0
   21.1286   35.3497   20.7730 O   0  0  0  0  0  0  0  0  0  0  0  0
   22.9728   36.6276   20.4836 O   0  0  0  0  0  0  0  0  0  0  0  0
   23.9376   35.8666   21.2254 C   0  0  0  0  0  0  0  0  0  0  0  0
   16.7996   34.7828   15.0704 C   0  0  0  0  0  0  0  0  0  0  0  0
   16.1690   35.4684   16.2693 C   0  0  0  0  0  0  0  0  0  0  0  0
   16.6152   36.7204   16.6600 C   0  0  0  0  0  0  0  0  0  0  0  0
   15.9912   37.3796   17.7112 C   0  0  0  0  0  0  0  0  0  0  0  0
   14.9385   36.7714   18.3910 C   0  0  0  0  0  0  0  0  0  0  0  0
   14.4928   35.5138   18.0167 C   0  0  0  0  0  0  0  0  0  0  0  0
   15.1109   34.8642   16.9571 C   0  0  0  0  0  0  0  0  0  0  0  0
   18.4389   31.1658   15.0895 C   0  0  0  0  0  0  0  0  0  0  0  0
   18.8836   30.4955   13.8516 N   0  0  0  0  0  0  0  0  0  0  0  0
   20.2638   31.0207   13.1804 S   0  0  0  0  0  0  0  0  0  0  0  0
   19.8702   31.6638   11.9434 O   0  0  0  0  0  0  0  0  0  0  0  0
   20.9091   31.8438   14.1270 O   0  0  0  0  0  0  0  0  0  0  0  0
   21.2551   29.7536   12.8236 C   0  0  0  0  0  0  0  0  0  0  0  0
   22.2311   29.2714   13.7261 C   0  0  0  0  0  0  0  0  0  0  0  0
   23.1239   28.2499   13.4015 C   0  0  0  0  0  0  0  0  0  0  0  0
   21.2187   29.1402   11.5635 C   0  0  0  0  0  0  0  0  0  0  0  0
   22.1326   28.1324   11.2195 C   0  0  0  0  0  0  0  0  0  0  0  0
   23.0760   27.6832   12.1346 C   0  0  0  0  0  0  0  0  0  0  0  0
   23.9433   26.6848   11.7493 O   0  0  0  0  0  0  0  0  0  0  0  0
   23.5533   25.7903   10.7012 C   0  0  0  0  0  0  0  0  0  0  0  0
   18.7720   29.0151   13.9211 C   0  0  0  0  0  0  0  0  0  0  0  0
   17.7720   28.4588   12.9004 C   0  0  0  0  0  0  0  0  0  0  0  0
   17.1435   29.5770   12.0708 C   0  0  0  0  0  0  0  0  0  0  0  0
   18.4681   27.3859   12.0506 C   0  0  0  0  0  0  0  0  0  0  0  0
   17.7600   26.0495   12.0525 C   0  0  0  0  0  0  0  0  0  0  0  0
 21 20  2  0  0  0
 21 22  1  0  0  0
 11 12  1  0  0  0
 11 10  1  0  0  0
 11 13  1  0  0  0
 10  9  1  0  0  0
 20 19  1  0  0  0
 22 23  2  0  0  0
 15 13  1  0  0  0
 15 16  1  0  0  0
 13 14  2  0  0  0
  5  6  2  0  0  0
 19 18  2  0  0  0
  9  6  1  0  0  0
 23 18  1  0  0  0
  6  7  1  0  0  0
 18 17  1  0  0  0
 27 26  2  0  0  0
  7  4  1  0  0  0
 17  4  1  0  0  0
  4  1  1  0  0  0
 28 26  2  0  0  0
 39 38  1  0  0  0
 26 25  1  0  0  0
 26 29  1  0  0  0
 25 37  1  0  0  0
 25 24  1  0  0  0
  1 24  1  0  0  0
  1  2  1  0  0  0
 29 30  2  0  0  0
 29 32  1  0  0  0
 30 31  1  0  0  0
 38 37  1  0  0  0
 38 40  1  0  0  0
 41 40  1  0  0  0
 32 33  2  0  0  0
 31 34  2  0  0  0
 33 34  1  0  0  0
 34 35  1  0  0  0
 35 36  1  0  0  0
  7  8  1  0  0  0
  2  3  1  0  0  0
M  END
> <minimizedAffinity>
-7.33872

$$$$
