6EYT_UDP_A_404


 31 32  0  0  0  0  0  0  0  0999 V2000
  -11.5914   -8.2916  -30.7253 C   0  0  0  0  0  0  0  0  0  0  0  0
  -10.7443   -8.7720  -31.9139 C   0  0  0  0  0  0  0  0  0  0  0  0
   -9.5681   -7.9785  -32.0006 O   0  0  0  0  0  0  0  0  0  0  0  0
  -11.6625   -8.4785  -33.0988 C   0  0  0  0  0  0  0  0  0  0  0  0
  -12.3414   -7.1953  -32.6481 C   0  0  0  0  0  0  0  0  0  0  0  0
  -12.5737   -7.4048  -31.2395 O   0  0  0  0  0  0  0  0  0  0  0  0
  -10.9067   -8.2821  -34.2892 O   0  0  0  0  0  0  0  0  0  0  0  0
   -9.8135   -7.0418  -32.0574 H   0  0  0  0  0  0  0  0  0  0  0  0
  -10.2592   -7.5738  -34.1479 H   0  0  0  0  0  0  0  0  0  0  0  0
  -12.2641   -9.3933  -30.0169 N   0  0  0  0  0  0  0  0  0  0  0  0
  -11.6610   -9.8756  -28.8749 C   0  0  0  0  0  0  0  0  0  0  0  0
  -12.3170  -10.9061  -28.2618 N   0  0  0  0  0  0  0  0  0  0  0  0
  -13.4934  -11.5008  -28.6712 C   0  0  0  0  0  0  0  0  0  0  0  0
  -14.0544  -10.9569  -29.8635 C   0  0  0  0  0  0  0  0  0  0  0  0
  -13.4346   -9.9386  -30.4910 C   0  0  0  0  0  0  0  0  0  0  0  0
  -10.6187   -9.4186  -28.4301 O   0  0  0  0  0  0  0  0  0  0  0  0
  -13.9639  -12.4405  -28.0098 O   0  0  0  0  0  0  0  0  0  0  0  0
  -11.9068  -11.2621  -27.4407 H   0  0  0  0  0  0  0  0  0  0  0  0
  -13.6396   -6.8631  -33.3394 C   0  0  0  0  0  0  0  0  0  0  0  0
  -14.3748   -8.0854  -33.5749 O   0  0  0  0  0  0  0  0  0  0  0  0
  -14.8600   -8.4888  -35.0289 P   0  0  0  0  0  0  0  0  0  0  0  0
  -13.6662   -8.9651  -35.7712 O   0  0  0  0  0  0  0  0  0  0  0  0
  -16.0541   -9.4445  -34.9611 O   0  0  0  0  0  0  0  0  0  0  0  0
  -15.7703  -10.2899  -34.5796 H   0  0  0  0  0  0  0  0  0  0  0  0
  -15.4023   -7.1308  -35.6624 O   0  0  0  0  0  0  0  0  0  0  0  0
  -16.8953   -6.5924  -35.6160 P   0  0  0  0  0  0  0  0  0  0  0  0
  -17.7321   -7.3415  -34.6639 O   0  0  0  0  0  0  0  0  0  0  0  0
  -17.3599   -6.7241  -37.0709 O   0  0  0  0  0  0  0  0  0  0  0  0
  -16.7154   -5.1127  -35.2719 O   0  0  0  0  0  0  0  0  0  0  0  0
  -17.4743   -7.6621  -37.2901 H   0  0  0  0  0  0  0  0  0  0  0  0
  -16.4214   -5.0282  -34.3514 H   0  0  0  0  0  0  0  0  0  0  0  0
 10 11  1  0  0  0
 10 15  1  0  0  0
 10  1  1  0  0  0
 11 12  1  0  0  0
 11 16  2  0  0  0
 12 13  1  0  0  0
 13 14  1  0  0  0
 13 17  2  0  0  0
 14 15  2  0  0  0
  1  2  1  0  0  0
  1  6  1  0  0  0
  2  3  1  0  0  0
  2  4  1  0  0  0
  4  5  1  0  0  0
  4  7  1  0  0  0
  5  6  1  0  0  0
  5 19  1  0  0  0
 19 20  1  0  0  0
 20 21  1  0  0  0
 21 22  2  0  0  0
 21 23  1  0  0  0
 21 25  1  0  0  0
 25 26  1  0  0  0
 26 27  2  0  0  0
 26 28  1  0  0  0
 26 29  1  0  0  0
 12 18  1  0  0  0
  3  8  1  0  0  0
  7  9  1  0  0  0
 23 24  1  0  0  0
 28 30  1  0  0  0
 29 31  1  0  0  0
M  END
> <minimizedAffinity>
-11.90887

$$$$
6EYT_UDP_A_404


 31 32  0  0  0  0  0  0  0  0999 V2000
  -11.9060   -8.2640  -31.0470 C   0  0  0  0  0  0  0  0  0  0  0  0
  -10.7870   -8.7305  -31.9911 C   0  0  0  0  0  0  0  0  0  0  0  0
   -9.7869   -7.7229  -32.0642 O   0  0  0  0  0  0  0  0  0  0  0  0
  -11.5209   -8.8378  -33.3264 C   0  0  0  0  0  0  0  0  0  0  0  0
  -12.5003   -7.6793  -33.2302 C   0  0  0  0  0  0  0  0  0  0  0  0
  -12.9329   -7.7072  -31.8540 O   0  0  0  0  0  0  0  0  0  0  0  0
  -10.6186   -8.6730  -34.4153 O   0  0  0  0  0  0  0  0  0  0  0  0
  -10.1923   -6.8840  -32.3339 H   0  0  0  0  0  0  0  0  0  0  0  0
  -10.1530   -7.8269  -34.3243 H   0  0  0  0  0  0  0  0  0  0  0  0
  -12.4708   -9.3588  -30.2405 N   0  0  0  0  0  0  0  0  0  0  0  0
  -11.7713   -9.7458  -29.1174 C   0  0  0  0  0  0  0  0  0  0  0  0
  -12.3294  -10.7741  -28.4106 N   0  0  0  0  0  0  0  0  0  0  0  0
  -13.4943  -11.4507  -28.7109 C   0  0  0  0  0  0  0  0  0  0  0  0
  -14.1584  -11.0029  -29.8901 C   0  0  0  0  0  0  0  0  0  0  0  0
  -13.6367   -9.9895  -30.6082 C   0  0  0  0  0  0  0  0  0  0  0  0
  -10.7302   -9.2115  -28.7658 O   0  0  0  0  0  0  0  0  0  0  0  0
  -13.8695  -12.3761  -27.9728 O   0  0  0  0  0  0  0  0  0  0  0  0
  -11.8493  -11.0628  -27.6010 H   0  0  0  0  0  0  0  0  0  0  0  0
  -13.6955   -7.7538  -34.1465 C   0  0  0  0  0  0  0  0  0  0  0  0
  -14.7981   -7.0401  -33.5425 O   0  0  0  0  0  0  0  0  0  0  0  0
  -15.5873   -5.9175  -34.3357 P   0  0  0  0  0  0  0  0  0  0  0  0
  -15.1926   -6.0313  -35.7619 O   0  0  0  0  0  0  0  0  0  0  0  0
  -17.0859   -5.9830  -34.0296 O   0  0  0  0  0  0  0  0  0  0  0  0
  -17.4532   -6.8067  -34.3869 H   0  0  0  0  0  0  0  0  0  0  0  0
  -15.0593   -4.5453  -33.7213 O   0  0  0  0  0  0  0  0  0  0  0  0
  -14.5012   -4.3162  -32.2525 P   0  0  0  0  0  0  0  0  0  0  0  0
  -14.7419   -2.9467  -31.7686 O   0  0  0  0  0  0  0  0  0  0  0  0
  -13.0140   -4.6634  -32.3855 O   0  0  0  0  0  0  0  0  0  0  0  0
  -15.2072   -5.4062  -31.4439 O   0  0  0  0  0  0  0  0  0  0  0  0
  -12.5653   -3.9729  -32.8981 H   0  0  0  0  0  0  0  0  0  0  0  0
  -16.1484   -5.1874  -31.3591 H   0  0  0  0  0  0  0  0  0  0  0  0
 10 11  1  0  0  0
 10 15  1  0  0  0
 10  1  1  0  0  0
 11 12  1  0  0  0
 11 16  2  0  0  0
 12 13  1  0  0  0
 13 14  1  0  0  0
 13 17  2  0  0  0
 14 15  2  0  0  0
  1  2  1  0  0  0
  1  6  1  0  0  0
  2  3  1  0  0  0
  2  4  1  0  0  0
  4  5  1  0  0  0
  4  7  1  0  0  0
  5  6  1  0  0  0
  5 19  1  0  0  0
 19 20  1  0  0  0
 20 21  1  0  0  0
 21 22  2  0  0  0
 21 23  1  0  0  0
 21 25  1  0  0  0
 25 26  1  0  0  0
 26 27  2  0  0  0
 26 28  1  0  0  0
 26 29  1  0  0  0
 12 18  1  0  0  0
  3  8  1  0  0  0
  7  9  1  0  0  0
 23 24  1  0  0  0
 28 30  1  0  0  0
 29 31  1  0  0  0
M  END
> <minimizedAffinity>
-11.61403

$$$$
6EYT_UDP_A_404


 31 32  0  0  0  0  0  0  0  0999 V2000
  -14.8314   -6.1042  -33.1684 C   0  0  0  0  0  0  0  0  0  0  0  0
  -14.2974   -5.3726  -31.9272 C   0  0  0  0  0  0  0  0  0  0  0  0
  -15.3073   -5.3510  -30.9269 O   0  0  0  0  0  0  0  0  0  0  0  0
  -14.0629   -3.9623  -32.4650 C   0  0  0  0  0  0  0  0  0  0  0  0
  -15.2127   -3.8156  -33.4484 C   0  0  0  0  0  0  0  0  0  0  0  0
  -15.3013   -5.1142  -34.0711 O   0  0  0  0  0  0  0  0  0  0  0  0
  -14.1420   -3.0009  -31.4179 O   0  0  0  0  0  0  0  0  0  0  0  0
  -16.1138   -4.9529  -31.2903 H   0  0  0  0  0  0  0  0  0  0  0  0
  -14.9987   -3.0804  -30.9700 H   0  0  0  0  0  0  0  0  0  0  0  0
  -13.8052   -6.9180  -33.8413 N   0  0  0  0  0  0  0  0  0  0  0  0
  -14.0590   -7.3152  -35.1368 C   0  0  0  0  0  0  0  0  0  0  0  0
  -13.0826   -8.0793  -35.7124 N   0  0  0  0  0  0  0  0  0  0  0  0
  -11.8989   -8.4877  -35.1319 C   0  0  0  0  0  0  0  0  0  0  0  0
  -11.7088   -8.0477  -33.7893 C   0  0  0  0  0  0  0  0  0  0  0  0
  -12.6503   -7.2905  -33.1934 C   0  0  0  0  0  0  0  0  0  0  0  0
  -15.0765   -7.0074  -35.7391 O   0  0  0  0  0  0  0  0  0  0  0  0
  -11.1117   -9.1929  -35.7836 O   0  0  0  0  0  0  0  0  0  0  0  0
  -13.2406   -8.3692  -36.6399 H   0  0  0  0  0  0  0  0  0  0  0  0
  -15.0419   -2.7506  -34.5021 C   0  0  0  0  0  0  0  0  0  0  0  0
  -16.1747   -2.7893  -35.3995 O   0  0  0  0  0  0  0  0  0  0  0  0
  -16.0328   -3.3264  -36.8840 P   0  0  0  0  0  0  0  0  0  0  0  0
  -15.6913   -2.1622  -37.7388 O   0  0  0  0  0  0  0  0  0  0  0  0
  -15.0822   -4.5251  -36.9429 O   0  0  0  0  0  0  0  0  0  0  0  0
  -14.1825   -4.2353  -36.7251 H   0  0  0  0  0  0  0  0  0  0  0  0
  -17.4816   -3.8789  -37.2513 O   0  0  0  0  0  0  0  0  0  0  0  0
  -18.1120   -5.2636  -36.7968 P   0  0  0  0  0  0  0  0  0  0  0  0
  -19.5734   -5.2986  -36.9718 O   0  0  0  0  0  0  0  0  0  0  0  0
  -17.6698   -5.3856  -35.3341 O   0  0  0  0  0  0  0  0  0  0  0  0
  -17.3487   -6.2824  -37.6451 O   0  0  0  0  0  0  0  0  0  0  0  0
  -18.1532   -4.7400  -34.7952 H   0  0  0  0  0  0  0  0  0  0  0  0
  -17.6277   -6.2061  -38.5710 H   0  0  0  0  0  0  0  0  0  0  0  0
 10 11  1  0  0  0
 10 15  1  0  0  0
 10  1  1  0  0  0
 11 12  1  0  0  0
 11 16  2  0  0  0
 12 13  1  0  0  0
 13 14  1  0  0  0
 13 17  2  0  0  0
 14 15  2  0  0  0
  1  2  1  0  0  0
  1  6  1  0  0  0
  2  3  1  0  0  0
  2  4  1  0  0  0
  4  5  1  0  0  0
  4  7  1  0  0  0
  5  6  1  0  0  0
  5 19  1  0  0  0
 19 20  1  0  0  0
 20 21  1  0  0  0
 21 22  2  0  0  0
 21 23  1  0  0  0
 21 25  1  0  0  0
 25 26  1  0  0  0
 26 27  2  0  0  0
 26 28  1  0  0  0
 26 29  1  0  0  0
 12 18  1  0  0  0
  3  8  1  0  0  0
  7  9  1  0  0  0
 23 24  1  0  0  0
 28 30  1  0  0  0
 29 31  1  0  0  0
M  END
> <minimizedAffinity>
-10.76667

$$$$
6EYT_UDP_A_404


 31 32  0  0  0  0  0  0  0  0999 V2000
  -11.3793   -8.6201  -30.8222 C   0  0  0  0  0  0  0  0  0  0  0  0
  -10.9983   -9.1315  -32.2201 C   0  0  0  0  0  0  0  0  0  0  0  0
   -9.6872   -8.6848  -32.5399 O   0  0  0  0  0  0  0  0  0  0  0  0
  -12.0225   -8.4265  -33.1074 C   0  0  0  0  0  0  0  0  0  0  0  0
  -12.1684   -7.0884  -32.4010 C   0  0  0  0  0  0  0  0  0  0  0  0
  -12.1377   -7.4331  -31.0002 O   0  0  0  0  0  0  0  0  0  0  0  0
  -11.5234   -8.2693  -34.4314 O   0  0  0  0  0  0  0  0  0  0  0  0
   -9.6462   -7.7190  -32.4596 H   0  0  0  0  0  0  0  0  0  0  0  0
  -10.6786   -7.7933  -34.4040 H   0  0  0  0  0  0  0  0  0  0  0  0
  -12.1791   -9.5891  -30.0544 N   0  0  0  0  0  0  0  0  0  0  0  0
  -11.6803  -10.0005  -28.8368 C   0  0  0  0  0  0  0  0  0  0  0  0
  -12.4525  -10.9098  -28.1695 N   0  0  0  0  0  0  0  0  0  0  0  0
  -13.6512  -11.4483  -28.5915 C   0  0  0  0  0  0  0  0  0  0  0  0
  -14.1003  -10.9841  -29.8624 C   0  0  0  0  0  0  0  0  0  0  0  0
  -13.3645  -10.0855  -30.5450 C   0  0  0  0  0  0  0  0  0  0  0  0
  -10.6285   -9.5846  -28.3747 O   0  0  0  0  0  0  0  0  0  0  0  0
  -14.2337  -12.2772  -27.8735 O   0  0  0  0  0  0  0  0  0  0  0  0
  -12.1179  -11.2130  -27.2947 H   0  0  0  0  0  0  0  0  0  0  0  0
  -13.4254   -6.3163  -32.7130 C   0  0  0  0  0  0  0  0  0  0  0  0
  -13.7112   -5.4177  -31.6172 O   0  0  0  0  0  0  0  0  0  0  0  0
  -14.6412   -4.1491  -31.8121 P   0  0  0  0  0  0  0  0  0  0  0  0
  -15.9847   -4.5088  -31.2938 O   0  0  0  0  0  0  0  0  0  0  0  0
  -13.9886   -2.8969  -31.2205 O   0  0  0  0  0  0  0  0  0  0  0  0
  -13.9340   -2.9857  -30.2561 H   0  0  0  0  0  0  0  0  0  0  0  0
  -14.6953   -3.9293  -33.3894 O   0  0  0  0  0  0  0  0  0  0  0  0
  -15.9808   -4.0236  -34.3167 P   0  0  0  0  0  0  0  0  0  0  0  0
  -16.8036   -2.8040  -34.2599 O   0  0  0  0  0  0  0  0  0  0  0  0
  -16.7010   -5.2702  -33.7902 O   0  0  0  0  0  0  0  0  0  0  0  0
  -15.3880   -4.3232  -35.6948 O   0  0  0  0  0  0  0  0  0  0  0  0
  -17.0773   -5.0813  -32.9164 H   0  0  0  0  0  0  0  0  0  0  0  0
  -14.9320   -3.5349  -36.0289 H   0  0  0  0  0  0  0  0  0  0  0  0
 10 11  1  0  0  0
 10 15  1  0  0  0
 10  1  1  0  0  0
 11 12  1  0  0  0
 11 16  2  0  0  0
 12 13  1  0  0  0
 13 14  1  0  0  0
 13 17  2  0  0  0
 14 15  2  0  0  0
  1  2  1  0  0  0
  1  6  1  0  0  0
  2  3  1  0  0  0
  2  4  1  0  0  0
  4  5  1  0  0  0
  4  7  1  0  0  0
  5  6  1  0  0  0
  5 19  1  0  0  0
 19 20  1  0  0  0
 20 21  1  0  0  0
 21 22  2  0  0  0
 21 23  1  0  0  0
 21 25  1  0  0  0
 25 26  1  0  0  0
 26 27  2  0  0  0
 26 28  1  0  0  0
 26 29  1  0  0  0
 12 18  1  0  0  0
  3  8  1  0  0  0
  7  9  1  0  0  0
 23 24  1  0  0  0
 28 30  1  0  0  0
 29 31  1  0  0  0
M  END
> <minimizedAffinity>
-10.70822

$$$$
6EYT_UDP_A_404


 31 32  0  0  0  0  0  0  0  0999 V2000
  -14.1047   -7.9337  -35.2454 C   0  0  0  0  0  0  0  0  0  0  0  0
  -15.4587   -8.3928  -34.6824 C   0  0  0  0  0  0  0  0  0  0  0  0
  -16.0752   -9.2761  -35.6099 O   0  0  0  0  0  0  0  0  0  0  0  0
  -16.2366   -7.0800  -34.6130 C   0  0  0  0  0  0  0  0  0  0  0  0
  -15.7190   -6.3534  -35.8438 C   0  0  0  0  0  0  0  0  0  0  0  0
  -14.3125   -6.6745  -35.8675 O   0  0  0  0  0  0  0  0  0  0  0  0
  -17.6382   -7.3165  -34.6939 O   0  0  0  0  0  0  0  0  0  0  0  0
  -16.1461   -8.8401  -36.4735 H   0  0  0  0  0  0  0  0  0  0  0  0
  -17.8361   -7.8130  -35.5034 H   0  0  0  0  0  0  0  0  0  0  0  0
  -13.0700   -7.7905  -34.2076 N   0  0  0  0  0  0  0  0  0  0  0  0
  -11.7899   -8.1895  -34.5284 C   0  0  0  0  0  0  0  0  0  0  0  0
  -10.8693   -8.0492  -33.5279 N   0  0  0  0  0  0  0  0  0  0  0  0
  -11.0949   -7.5649  -32.2553 C   0  0  0  0  0  0  0  0  0  0  0  0
  -12.4423   -7.1806  -31.9923 C   0  0  0  0  0  0  0  0  0  0  0  0
  -13.3738   -7.3032  -32.9577 C   0  0  0  0  0  0  0  0  0  0  0  0
  -11.4872   -8.6322  -35.6263 O   0  0  0  0  0  0  0  0  0  0  0  0
  -10.1524   -7.5073  -31.4489 O   0  0  0  0  0  0  0  0  0  0  0  0
   -9.9470   -8.3226  -33.7373 H   0  0  0  0  0  0  0  0  0  0  0  0
  -15.9049   -4.8571  -35.8479 C   0  0  0  0  0  0  0  0  0  0  0  0
  -16.3837   -4.4377  -34.5499 O   0  0  0  0  0  0  0  0  0  0  0  0
  -16.2363   -2.9370  -34.0619 P   0  0  0  0  0  0  0  0  0  0  0  0
  -14.8027   -2.5749  -34.1902 O   0  0  0  0  0  0  0  0  0  0  0  0
  -17.2414   -2.0289  -34.7754 O   0  0  0  0  0  0  0  0  0  0  0  0
  -17.0189   -1.9784  -35.7182 H   0  0  0  0  0  0  0  0  0  0  0  0
  -16.6654   -2.9696  -32.5275 O   0  0  0  0  0  0  0  0  0  0  0  0
  -15.8225   -3.5622  -31.3194 P   0  0  0  0  0  0  0  0  0  0  0  0
  -16.5234   -3.4344  -30.0309 O   0  0  0  0  0  0  0  0  0  0  0  0
  -14.5135   -2.7670  -31.3830 O   0  0  0  0  0  0  0  0  0  0  0  0
  -15.5627   -5.0046  -31.7579 O   0  0  0  0  0  0  0  0  0  0  0  0
  -14.6771   -1.8522  -31.1052 H   0  0  0  0  0  0  0  0  0  0  0  0
  -16.3904   -5.5088  -31.7180 H   0  0  0  0  0  0  0  0  0  0  0  0
 10 11  1  0  0  0
 10 15  1  0  0  0
 10  1  1  0  0  0
 11 12  1  0  0  0
 11 16  2  0  0  0
 12 13  1  0  0  0
 13 14  1  0  0  0
 13 17  2  0  0  0
 14 15  2  0  0  0
  1  2  1  0  0  0
  1  6  1  0  0  0
  2  3  1  0  0  0
  2  4  1  0  0  0
  4  5  1  0  0  0
  4  7  1  0  0  0
  5  6  1  0  0  0
  5 19  1  0  0  0
 19 20  1  0  0  0
 20 21  1  0  0  0
 21 22  2  0  0  0
 21 23  1  0  0  0
 21 25  1  0  0  0
 25 26  1  0  0  0
 26 27  2  0  0  0
 26 28  1  0  0  0
 26 29  1  0  0  0
 12 18  1  0  0  0
  3  8  1  0  0  0
  7  9  1  0  0  0
 23 24  1  0  0  0
 28 30  1  0  0  0
 29 31  1  0  0  0
M  END
> <minimizedAffinity>
-10.51465

$$$$
6EYT_UDP_A_404


 31 32  0  0  0  0  0  0  0  0999 V2000
  -13.2741   -8.8335  -34.2191 C   0  0  0  0  0  0  0  0  0  0  0  0
  -12.1462   -7.8138  -33.9972 C   0  0  0  0  0  0  0  0  0  0  0  0
  -10.9163   -8.3741  -34.4378 O   0  0  0  0  0  0  0  0  0  0  0  0
  -12.1412   -7.6701  -32.4765 C   0  0  0  0  0  0  0  0  0  0  0  0
  -12.4807   -9.0846  -32.0353 C   0  0  0  0  0  0  0  0  0  0  0  0
  -13.4745   -9.5139  -32.9893 O   0  0  0  0  0  0  0  0  0  0  0  0
  -10.8577   -7.2686  -32.0095 O   0  0  0  0  0  0  0  0  0  0  0  0
  -10.7652   -9.2186  -33.9852 H   0  0  0  0  0  0  0  0  0  0  0  0
  -10.1895   -7.9014  -32.3162 H   0  0  0  0  0  0  0  0  0  0  0  0
  -14.5411   -8.2076  -34.6325 N   0  0  0  0  0  0  0  0  0  0  0  0
  -15.4616   -9.0048  -35.2788 C   0  0  0  0  0  0  0  0  0  0  0  0
  -16.6150   -8.3743  -35.6538 N   0  0  0  0  0  0  0  0  0  0  0  0
  -16.9352   -7.0460  -35.4587 C   0  0  0  0  0  0  0  0  0  0  0  0
  -15.9331   -6.2813  -34.7930 C   0  0  0  0  0  0  0  0  0  0  0  0
  -14.7859   -6.8728  -34.4073 C   0  0  0  0  0  0  0  0  0  0  0  0
  -15.2737  -10.1916  -35.5001 O   0  0  0  0  0  0  0  0  0  0  0  0
  -18.0254   -6.6152  -35.8683 O   0  0  0  0  0  0  0  0  0  0  0  0
  -17.2892   -8.9266  -36.1118 H   0  0  0  0  0  0  0  0  0  0  0  0
  -13.0199   -9.2223  -30.6339 C   0  0  0  0  0  0  0  0  0  0  0  0
  -13.8394  -10.4109  -30.5586 O   0  0  0  0  0  0  0  0  0  0  0  0
  -13.9486  -11.2538  -29.2208 P   0  0  0  0  0  0  0  0  0  0  0  0
  -12.5795  -11.3582  -28.6574 O   0  0  0  0  0  0  0  0  0  0  0  0
  -15.0291  -10.6803  -28.3001 O   0  0  0  0  0  0  0  0  0  0  0  0
  -14.7559   -9.8035  -27.9880 H   0  0  0  0  0  0  0  0  0  0  0  0
  -14.4667  -12.6860  -29.6896 O   0  0  0  0  0  0  0  0  0  0  0  0
  -15.0352  -13.8403  -28.7591 P   0  0  0  0  0  0  0  0  0  0  0  0
  -14.9202  -15.1697  -29.3814 O   0  0  0  0  0  0  0  0  0  0  0  0
  -16.4843  -13.4068  -28.5100 O   0  0  0  0  0  0  0  0  0  0  0  0
  -14.2260  -13.6723  -27.4718 O   0  0  0  0  0  0  0  0  0  0  0  0
  -16.9983  -13.5129  -29.3257 H   0  0  0  0  0  0  0  0  0  0  0  0
  -13.3088  -13.9463  -27.6283 H   0  0  0  0  0  0  0  0  0  0  0  0
 10 11  1  0  0  0
 10 15  1  0  0  0
 10  1  1  0  0  0
 11 12  1  0  0  0
 11 16  2  0  0  0
 12 13  1  0  0  0
 13 14  1  0  0  0
 13 17  2  0  0  0
 14 15  2  0  0  0
  1  2  1  0  0  0
  1  6  1  0  0  0
  2  3  1  0  0  0
  2  4  1  0  0  0
  4  5  1  0  0  0
  4  7  1  0  0  0
  5  6  1  0  0  0
  5 19  1  0  0  0
 19 20  1  0  0  0
 20 21  1  0  0  0
 21 22  2  0  0  0
 21 23  1  0  0  0
 21 25  1  0  0  0
 25 26  1  0  0  0
 26 27  2  0  0  0
 26 28  1  0  0  0
 26 29  1  0  0  0
 12 18  1  0  0  0
  3  8  1  0  0  0
  7  9  1  0  0  0
 23 24  1  0  0  0
 28 30  1  0  0  0
 29 31  1  0  0  0
M  END
> <minimizedAffinity>
-10.23626

$$$$
6EYT_UDP_A_404


 31 32  0  0  0  0  0  0  0  0999 V2000
  -11.4977   -7.9315  -32.9996 C   0  0  0  0  0  0  0  0  0  0  0  0
  -11.6932   -9.0202  -34.0661 C   0  0  0  0  0  0  0  0  0  0  0  0
  -10.8879   -8.7161  -35.1974 O   0  0  0  0  0  0  0  0  0  0  0  0
  -13.1711   -8.8606  -34.4173 C   0  0  0  0  0  0  0  0  0  0  0  0
  -13.3515   -7.3557  -34.3009 C   0  0  0  0  0  0  0  0  0  0  0  0
  -12.5610   -7.0022  -33.1468 O   0  0  0  0  0  0  0  0  0  0  0  0
  -13.4303   -9.3194  -35.7399 O   0  0  0  0  0  0  0  0  0  0  0  0
  -11.1002   -7.8246  -35.5151 H   0  0  0  0  0  0  0  0  0  0  0  0
  -12.8563   -8.8481  -36.3639 H   0  0  0  0  0  0  0  0  0  0  0  0
  -11.5126   -8.4632  -31.6266 N   0  0  0  0  0  0  0  0  0  0  0  0
  -10.5553   -7.9926  -30.7533 C   0  0  0  0  0  0  0  0  0  0  0  0
  -10.6028   -8.5263  -29.4959 N   0  0  0  0  0  0  0  0  0  0  0  0
  -11.4914   -9.4742  -29.0303 C   0  0  0  0  0  0  0  0  0  0  0  0
  -12.4460   -9.9209  -29.9902 C   0  0  0  0  0  0  0  0  0  0  0  0
  -12.4287   -9.4128  -31.2378 C   0  0  0  0  0  0  0  0  0  0  0  0
   -9.7235   -7.1545  -31.0676 O   0  0  0  0  0  0  0  0  0  0  0  0
  -11.4007   -9.8708  -27.8571 O   0  0  0  0  0  0  0  0  0  0  0  0
   -9.9316   -8.1998  -28.8539 H   0  0  0  0  0  0  0  0  0  0  0  0
  -14.7700   -6.8780  -34.1184 C   0  0  0  0  0  0  0  0  0  0  0  0
  -14.8917   -5.5437  -34.6615 O   0  0  0  0  0  0  0  0  0  0  0  0
  -16.3086   -4.9107  -34.9839 P   0  0  0  0  0  0  0  0  0  0  0  0
  -17.2462   -5.3811  -33.9339 O   0  0  0  0  0  0  0  0  0  0  0  0
  -16.1990   -3.3962  -35.1795 O   0  0  0  0  0  0  0  0  0  0  0  0
  -15.9557   -2.9784  -34.3386 H   0  0  0  0  0  0  0  0  0  0  0  0
  -16.7089   -5.5223  -36.4000 O   0  0  0  0  0  0  0  0  0  0  0  0
  -18.1433   -6.0454  -36.8360 P   0  0  0  0  0  0  0  0  0  0  0  0
  -19.1918   -5.0291  -36.6475 O   0  0  0  0  0  0  0  0  0  0  0  0
  -18.3397   -7.2926  -35.9666 O   0  0  0  0  0  0  0  0  0  0  0  0
  -17.9263   -6.4685  -38.2900 O   0  0  0  0  0  0  0  0  0  0  0  0
  -18.4774   -7.0255  -35.0444 H   0  0  0  0  0  0  0  0  0  0  0  0
  -17.8019   -5.6799  -38.8410 H   0  0  0  0  0  0  0  0  0  0  0  0
 10 11  1  0  0  0
 10 15  1  0  0  0
 10  1  1  0  0  0
 11 12  1  0  0  0
 11 16  2  0  0  0
 12 13  1  0  0  0
 13 14  1  0  0  0
 13 17  2  0  0  0
 14 15  2  0  0  0
  1  2  1  0  0  0
  1  6  1  0  0  0
  2  3  1  0  0  0
  2  4  1  0  0  0
  4  5  1  0  0  0
  4  7  1  0  0  0
  5  6  1  0  0  0
  5 19  1  0  0  0
 19 20  1  0  0  0
 20 21  1  0  0  0
 21 22  2  0  0  0
 21 23  1  0  0  0
 21 25  1  0  0  0
 25 26  1  0  0  0
 26 27  2  0  0  0
 26 28  1  0  0  0
 26 29  1  0  0  0
 12 18  1  0  0  0
  3  8  1  0  0  0
  7  9  1  0  0  0
 23 24  1  0  0  0
 28 30  1  0  0  0
 29 31  1  0  0  0
M  END
> <minimizedAffinity>
-9.94714

$$$$
6EYT_UDP_A_404


 31 32  0  0  0  0  0  0  0  0999 V2000
  -13.0629   -7.8615  -34.3515 C   0  0  0  0  0  0  0  0  0  0  0  0
  -14.0207   -8.8713  -35.0027 C   0  0  0  0  0  0  0  0  0  0  0  0
  -13.7913   -8.8955  -36.4053 O   0  0  0  0  0  0  0  0  0  0  0  0
  -15.3855   -8.2530  -34.7059 C   0  0  0  0  0  0  0  0  0  0  0  0
  -15.0769   -6.7682  -34.8098 C   0  0  0  0  0  0  0  0  0  0  0  0
  -13.7757   -6.6431  -34.1989 O   0  0  0  0  0  0  0  0  0  0  0  0
  -16.3470   -8.6581  -35.6745 O   0  0  0  0  0  0  0  0  0  0  0  0
  -13.8783   -7.9979  -36.7627 H   0  0  0  0  0  0  0  0  0  0  0  0
  -16.0294   -8.4273  -36.5615 H   0  0  0  0  0  0  0  0  0  0  0  0
  -12.5755   -8.3000  -33.0331 N   0  0  0  0  0  0  0  0  0  0  0  0
  -11.2122   -8.2986  -32.8278 C   0  0  0  0  0  0  0  0  0  0  0  0
  -10.8097   -8.7264  -31.5936 N   0  0  0  0  0  0  0  0  0  0  0  0
  -11.6178   -9.1565  -30.5607 C   0  0  0  0  0  0  0  0  0  0  0  0
  -13.0141   -9.1396  -30.8476 C   0  0  0  0  0  0  0  0  0  0  0  0
  -13.4446   -8.7207  -32.0534 C   0  0  0  0  0  0  0  0  0  0  0  0
  -10.4124   -7.9372  -33.6779 O   0  0  0  0  0  0  0  0  0  0  0  0
  -11.0997   -9.5268  -29.4947 O   0  0  0  0  0  0  0  0  0  0  0  0
   -9.8401   -8.7278  -31.4232 H   0  0  0  0  0  0  0  0  0  0  0  0
  -16.0558   -5.8461  -34.1279 C   0  0  0  0  0  0  0  0  0  0  0  0
  -17.3188   -5.8969  -34.8295 O   0  0  0  0  0  0  0  0  0  0  0  0
  -17.4868   -5.2622  -36.2721 P   0  0  0  0  0  0  0  0  0  0  0  0
  -16.6056   -4.0693  -36.3297 O   0  0  0  0  0  0  0  0  0  0  0  0
  -17.2852   -6.3192  -37.3612 O   0  0  0  0  0  0  0  0  0  0  0  0
  -16.3620   -6.6167  -37.3560 H   0  0  0  0  0  0  0  0  0  0  0  0
  -19.0177   -4.8254  -36.3429 O   0  0  0  0  0  0  0  0  0  0  0  0
  -19.7804   -4.2434  -37.6081 P   0  0  0  0  0  0  0  0  0  0  0  0
  -20.7054   -3.1543  -37.2530 O   0  0  0  0  0  0  0  0  0  0  0  0
  -20.4834   -5.4752  -38.1898 O   0  0  0  0  0  0  0  0  0  0  0  0
  -18.6373   -3.8256  -38.5349 O   0  0  0  0  0  0  0  0  0  0  0  0
  -21.2084   -5.7410  -37.6028 H   0  0  0  0  0  0  0  0  0  0  0  0
  -18.1918   -3.0461  -38.1678 H   0  0  0  0  0  0  0  0  0  0  0  0
 10 11  1  0  0  0
 10 15  1  0  0  0
 10  1  1  0  0  0
 11 12  1  0  0  0
 11 16  2  0  0  0
 12 13  1  0  0  0
 13 14  1  0  0  0
 13 17  2  0  0  0
 14 15  2  0  0  0
  1  2  1  0  0  0
  1  6  1  0  0  0
  2  3  1  0  0  0
  2  4  1  0  0  0
  4  5  1  0  0  0
  4  7  1  0  0  0
  5  6  1  0  0  0
  5 19  1  0  0  0
 19 20  1  0  0  0
 20 21  1  0  0  0
 21 22  2  0  0  0
 21 23  1  0  0  0
 21 25  1  0  0  0
 25 26  1  0  0  0
 26 27  2  0  0  0
 26 28  1  0  0  0
 26 29  1  0  0  0
 12 18  1  0  0  0
  3  8  1  0  0  0
  7  9  1  0  0  0
 23 24  1  0  0  0
 28 30  1  0  0  0
 29 31  1  0  0  0
M  END
> <minimizedAffinity>
-9.81565

$$$$
6EYT_UDP_A_404


 31 32  0  0  0  0  0  0  0  0999 V2000
  -15.5321   -3.9495  -34.8709 C   0  0  0  0  0  0  0  0  0  0  0  0
  -16.2636   -3.0351  -33.8760 C   0  0  0  0  0  0  0  0  0  0  0  0
  -15.5746   -1.7949  -33.7876 O   0  0  0  0  0  0  0  0  0  0  0  0
  -16.1194   -3.8087  -32.5669 C   0  0  0  0  0  0  0  0  0  0  0  0
  -14.7366   -4.4200  -32.7244 C   0  0  0  0  0  0  0  0  0  0  0  0
  -14.6852   -4.8021  -34.1149 O   0  0  0  0  0  0  0  0  0  0  0  0
  -16.1800   -2.9291  -31.4490 O   0  0  0  0  0  0  0  0  0  0  0  0
  -14.6477   -1.9560  -33.5514 H   0  0  0  0  0  0  0  0  0  0  0  0
  -15.5014   -2.2421  -31.5410 H   0  0  0  0  0  0  0  0  0  0  0  0
  -16.4497   -4.7749  -35.6739 N   0  0  0  0  0  0  0  0  0  0  0  0
  -16.9403   -4.2272  -36.8400 C   0  0  0  0  0  0  0  0  0  0  0  0
  -17.7978   -5.0272  -37.5423 N   0  0  0  0  0  0  0  0  0  0  0  0
  -18.2153   -6.2974  -37.1998 C   0  0  0  0  0  0  0  0  0  0  0  0
  -17.6748   -6.7949  -35.9781 C   0  0  0  0  0  0  0  0  0  0  0  0
  -16.8243   -6.0331  -35.2631 C   0  0  0  0  0  0  0  0  0  0  0  0
  -16.6332   -3.1110  -37.2308 O   0  0  0  0  0  0  0  0  0  0  0  0
  -19.0110   -6.8980  -37.9401 O   0  0  0  0  0  0  0  0  0  0  0  0
  -18.1558   -4.6580  -38.3818 H   0  0  0  0  0  0  0  0  0  0  0  0
  -14.4449   -5.6145  -31.8518 C   0  0  0  0  0  0  0  0  0  0  0  0
  -14.2411   -6.7735  -32.6915 O   0  0  0  0  0  0  0  0  0  0  0  0
  -13.0295   -7.7659  -32.4475 P   0  0  0  0  0  0  0  0  0  0  0  0
  -12.1503   -7.1395  -31.4290 O   0  0  0  0  0  0  0  0  0  0  0  0
  -13.5334   -9.1796  -32.1450 O   0  0  0  0  0  0  0  0  0  0  0  0
  -13.9972   -9.1822  -31.2930 H   0  0  0  0  0  0  0  0  0  0  0  0
  -12.2835   -7.8424  -33.8535 O   0  0  0  0  0  0  0  0  0  0  0  0
  -12.9060   -8.3239  -35.2326 P   0  0  0  0  0  0  0  0  0  0  0  0
  -13.8040   -9.4792  -35.0693 O   0  0  0  0  0  0  0  0  0  0  0  0
  -11.6701   -8.6281  -36.0868 O   0  0  0  0  0  0  0  0  0  0  0  0
  -13.5896   -7.0608  -35.7595 O   0  0  0  0  0  0  0  0  0  0  0  0
  -11.2358   -9.4289  -35.7535 H   0  0  0  0  0  0  0  0  0  0  0  0
  -14.3719   -6.8673  -35.2196 H   0  0  0  0  0  0  0  0  0  0  0  0
 10 11  1  0  0  0
 10 15  1  0  0  0
 10  1  1  0  0  0
 11 12  1  0  0  0
 11 16  2  0  0  0
 12 13  1  0  0  0
 13 14  1  0  0  0
 13 17  2  0  0  0
 14 15  2  0  0  0
  1  2  1  0  0  0
  1  6  1  0  0  0
  2  3  1  0  0  0
  2  4  1  0  0  0
  4  5  1  0  0  0
  4  7  1  0  0  0
  5  6  1  0  0  0
  5 19  1  0  0  0
 19 20  1  0  0  0
 20 21  1  0  0  0
 21 22  2  0  0  0
 21 23  1  0  0  0
 21 25  1  0  0  0
 25 26  1  0  0  0
 26 27  2  0  0  0
 26 28  1  0  0  0
 26 29  1  0  0  0
 12 18  1  0  0  0
  3  8  1  0  0  0
  7  9  1  0  0  0
 23 24  1  0  0  0
 28 30  1  0  0  0
 29 31  1  0  0  0
M  END
> <minimizedAffinity>
-9.66781

$$$$
6EYT_UDP_A_404


 31 32  0  0  0  0  0  0  0  0999 V2000
  -14.1034   -7.9860  -35.3026 C   0  0  0  0  0  0  0  0  0  0  0  0
  -15.4338   -8.5100  -34.7401 C   0  0  0  0  0  0  0  0  0  0  0  0
  -16.0398   -9.3690  -35.6970 O   0  0  0  0  0  0  0  0  0  0  0  0
  -16.2483   -7.2255  -34.5996 C   0  0  0  0  0  0  0  0  0  0  0  0
  -15.7728   -6.4294  -35.8041 C   0  0  0  0  0  0  0  0  0  0  0  0
  -14.3581   -6.7071  -35.8639 O   0  0  0  0  0  0  0  0  0  0  0  0
  -17.6436   -7.4997  -34.6695 O   0  0  0  0  0  0  0  0  0  0  0  0
  -16.1378   -8.8971  -36.5388 H   0  0  0  0  0  0  0  0  0  0  0  0
  -17.8405   -7.9653  -35.4974 H   0  0  0  0  0  0  0  0  0  0  0  0
  -13.0560   -7.8586  -34.2755 N   0  0  0  0  0  0  0  0  0  0  0  0
  -11.7768   -8.2368  -34.6233 C   0  0  0  0  0  0  0  0  0  0  0  0
  -10.8440   -8.1124  -33.6319 N   0  0  0  0  0  0  0  0  0  0  0  0
  -11.0568   -7.6623  -32.3447 C   0  0  0  0  0  0  0  0  0  0  0  0
  -12.4041   -7.2980  -32.0542 C   0  0  0  0  0  0  0  0  0  0  0  0
  -13.3475   -7.4056  -33.0098 C   0  0  0  0  0  0  0  0  0  0  0  0
  -11.4848   -8.6490  -35.7359 O   0  0  0  0  0  0  0  0  0  0  0  0
  -10.1041   -7.6156  -31.5497 O   0  0  0  0  0  0  0  0  0  0  0  0
   -9.9221   -8.3715  -33.8605 H   0  0  0  0  0  0  0  0  0  0  0  0
  -16.0022   -4.9406  -35.7377 C   0  0  0  0  0  0  0  0  0  0  0  0
  -17.4105   -4.6893  -35.5285 O   0  0  0  0  0  0  0  0  0  0  0  0
  -18.3444   -4.1956  -36.7101 P   0  0  0  0  0  0  0  0  0  0  0  0
  -19.1956   -3.1071  -36.1684 O   0  0  0  0  0  0  0  0  0  0  0  0
  -17.5201   -3.8676  -37.9578 O   0  0  0  0  0  0  0  0  0  0  0  0
  -16.9594   -3.0960  -37.7813 H   0  0  0  0  0  0  0  0  0  0  0  0
  -19.2341   -5.4660  -37.0764 O   0  0  0  0  0  0  0  0  0  0  0  0
  -19.3960   -6.1290  -38.5100 P   0  0  0  0  0  0  0  0  0  0  0  0
  -20.4950   -7.1078  -38.5541 O   0  0  0  0  0  0  0  0  0  0  0  0
  -18.0173   -6.7481  -38.7667 O   0  0  0  0  0  0  0  0  0  0  0  0
  -19.5887   -4.9197  -39.4270 O   0  0  0  0  0  0  0  0  0  0  0  0
  -17.8941   -7.5151  -38.1857 H   0  0  0  0  0  0  0  0  0  0  0  0
  -20.4609   -4.5272  -39.2654 H   0  0  0  0  0  0  0  0  0  0  0  0
 10 11  1  0  0  0
 10 15  1  0  0  0
 10  1  1  0  0  0
 11 12  1  0  0  0
 11 16  2  0  0  0
 12 13  1  0  0  0
 13 14  1  0  0  0
 13 17  2  0  0  0
 14 15  2  0  0  0
  1  2  1  0  0  0
  1  6  1  0  0  0
  2  3  1  0  0  0
  2  4  1  0  0  0
  4  5  1  0  0  0
  4  7  1  0  0  0
  5  6  1  0  0  0
  5 19  1  0  0  0
 19 20  1  0  0  0
 20 21  1  0  0  0
 21 22  2  0  0  0
 21 23  1  0  0  0
 21 25  1  0  0  0
 25 26  1  0  0  0
 26 27  2  0  0  0
 26 28  1  0  0  0
 26 29  1  0  0  0
 12 18  1  0  0  0
  3  8  1  0  0  0
  7  9  1  0  0  0
 23 24  1  0  0  0
 28 30  1  0  0  0
 29 31  1  0  0  0
M  END
> <minimizedAffinity>
-9.57214

$$$$
