3H1X_IMN_A_301


 26 28  0  0  0  0  0  0  0  0999 V2000
    1.9552  -11.5809    8.0781 C   0  0  0  0  0  0  0  0  0  0  0  0
    0.5225  -11.2776    8.2987 C   0  0  0  0  0  0  0  0  0  0  0  0
   -0.4285  -12.2645    8.1202 C   0  0  0  0  0  0  0  0  0  0  0  0
   -0.0670  -13.5485    7.7182 C   0  0  0  0  0  0  0  0  0  0  0  0
    1.2802  -13.8459    7.5228 C   0  0  0  0  0  0  0  0  0  0  0  0
    2.2721  -12.8766    7.6926 C   0  0  0  0  0  0  0  0  0  0  0  0
    0.4111   -9.8554    8.6761 C   0  0  0  0  0  0  0  0  0  0  0  0
    1.8332   -9.3883    8.6752 C   0  0  0  0  0  0  0  0  0  0  0  0
    3.9534  -10.1632    8.2735 C   0  0  0  0  0  0  0  0  0  0  0  0
    2.3683   -8.0502    9.0601 C   0  0  0  0  0  0  0  0  0  0  0  0
    2.6039  -10.4326    8.3275 N   0  0  0  0  0  0  0  0  0  0  0  0
    4.2307   -9.0161    8.5553 O   0  0  0  0  0  0  0  0  0  0  0  0
    5.1515  -11.0180    7.9273 C   0  0  0  0  0  0  0  0  0  0  0  0
    5.7047  -10.8118    6.6645 C   0  0  0  0  0  0  0  0  0  0  0  0
    6.8055  -11.5387    6.2339 C   0  0  0  0  0  0  0  0  0  0  0  0
    7.3824  -12.4830    7.0566 C   0  0  0  0  0  0  0  0  0  0  0  0
    6.8415  -12.7046    8.3139 C   0  0  0  0  0  0  0  0  0  0  0  0
    5.7356  -11.9763    8.7435 C   0  0  0  0  0  0  0  0  0  0  0  0
    8.8143  -13.3782    6.4518 Cl  0  0  0  0  0  0  0  0  0  0  0  0
   -0.6880  -15.8693    7.2254 C   0  0  0  0  0  0  0  0  0  0  0  0
   -1.0066  -14.4975    7.5430 O   0  0  0  0  0  0  0  0  0  0  0  0
   -0.9202   -9.2570    9.0766 C   0  0  0  0  0  0  0  0  0  0  0  0
   -1.3561   -7.8714    8.7086 C   0  0  0  0  0  0  0  0  0  0  0  0
   -1.4150   -6.9420    9.5029 O   0  0  0  0  0  0  0  0  0  0  0  0
   -1.7737   -7.7065    7.4711 O   0  0  0  0  0  0  0  0  0  0  0  0
   -1.7287   -8.4177    6.8628 H   0  0  0  0  0  0  0  0  0  0  0  0
  1  2  2  0  0  0
  1  6  1  0  0  0
  1 11  1  0  0  0
  2  3  1  0  0  0
  2  7  1  0  0  0
  3  4  2  0  0  0
  4  5  1  0  0  0
  4 21  1  0  0  0
  5  6  2  0  0  0
 20 21  1  0  0  0
  7  8  2  0  0  0
  7 22  1  0  0  0
  8 10  1  0  0  0
  8 11  1  0  0  0
  9 13  1  0  0  0
  9 11  1  0  0  0
  9 12  2  0  0  0
 13 14  2  0  0  0
 13 18  1  0  0  0
 14 15  1  0  0  0
 15 16  2  0  0  0
 16 17  1  0  0  0
 16 19  1  0  0  0
 17 18  2  0  0  0
 22 23  1  0  0  0
 23 24  2  0  0  0
 23 25  1  0  0  0
 25 26  1  0  0  0
M  END
> <minimizedAffinity>
-6.87348

$$$$
3H1X_IMN_A_301


 26 28  0  0  0  0  0  0  0  0999 V2000
   -0.9387  -11.6982    8.6210 C   0  0  0  0  0  0  0  0  0  0  0  0
   -0.8725  -10.3415    9.2109 C   0  0  0  0  0  0  0  0  0  0  0  0
   -1.9876   -9.7972    9.8197 C   0  0  0  0  0  0  0  0  0  0  0  0
   -3.1902  -10.4981    9.8781 C   0  0  0  0  0  0  0  0  0  0  0  0
   -3.2566  -11.7810    9.3384 C   0  0  0  0  0  0  0  0  0  0  0  0
   -2.1521  -12.3666    8.7144 C   0  0  0  0  0  0  0  0  0  0  0  0
    0.4856   -9.8115    8.9827 C   0  0  0  0  0  0  0  0  0  0  0  0
    1.1733  -10.9297    8.2634 C   0  0  0  0  0  0  0  0  0  0  0  0
    0.7644  -13.0385    7.4615 C   0  0  0  0  0  0  0  0  0  0  0  0
    2.5998  -11.0170    7.8364 C   0  0  0  0  0  0  0  0  0  0  0  0
    0.2842  -11.9265    8.1170 N   0  0  0  0  0  0  0  0  0  0  0  0
    1.9251  -12.9383    7.1226 O   0  0  0  0  0  0  0  0  0  0  0  0
    0.1240  -14.3540    7.0803 C   0  0  0  0  0  0  0  0  0  0  0  0
   -0.0312  -15.2794    8.1113 C   0  0  0  0  0  0  0  0  0  0  0  0
   -0.6043  -16.5222    7.8822 C   0  0  0  0  0  0  0  0  0  0  0  0
   -1.0411  -16.8664    6.6204 C   0  0  0  0  0  0  0  0  0  0  0  0
   -0.8895  -15.9599    5.5823 C   0  0  0  0  0  0  0  0  0  0  0  0
   -0.3120  -14.7144    5.8132 C   0  0  0  0  0  0  0  0  0  0  0  0
   -1.7901  -18.4799    6.3895 Cl  0  0  0  0  0  0  0  0  0  0  0  0
   -5.4422  -10.7147   10.8247 C   0  0  0  0  0  0  0  0  0  0  0  0
   -4.2696   -9.9511   10.4698 O   0  0  0  0  0  0  0  0  0  0  0  0
    0.9109   -8.4802    9.5637 C   0  0  0  0  0  0  0  0  0  0  0  0
    0.8447   -7.1841    8.8147 C   0  0  0  0  0  0  0  0  0  0  0  0
    1.7203   -6.3296    8.8526 O   0  0  0  0  0  0  0  0  0  0  0  0
   -0.2732   -6.9518    8.1596 O   0  0  0  0  0  0  0  0  0  0  0  0
   -0.9437   -7.6056    8.1304 H   0  0  0  0  0  0  0  0  0  0  0  0
  1  2  2  0  0  0
  1  6  1  0  0  0
  1 11  1  0  0  0
  2  3  1  0  0  0
  2  7  1  0  0  0
  3  4  2  0  0  0
  4  5  1  0  0  0
  4 21  1  0  0  0
  5  6  2  0  0  0
 20 21  1  0  0  0
  7  8  2  0  0  0
  7 22  1  0  0  0
  8 10  1  0  0  0
  8 11  1  0  0  0
  9 13  1  0  0  0
  9 11  1  0  0  0
  9 12  2  0  0  0
 13 14  2  0  0  0
 13 18  1  0  0  0
 14 15  1  0  0  0
 15 16  2  0  0  0
 16 17  1  0  0  0
 16 19  1  0  0  0
 17 18  2  0  0  0
 22 23  1  0  0  0
 23 24  2  0  0  0
 23 25  1  0  0  0
 25 26  1  0  0  0
M  END
> <minimizedAffinity>
-6.69058

$$$$
3H1X_IMN_A_301


 26 28  0  0  0  0  0  0  0  0999 V2000
    1.8564  -12.5473    8.4663 C   0  0  0  0  0  0  0  0  0  0  0  0
    2.6370  -11.3231    8.1743 C   0  0  0  0  0  0  0  0  0  0  0  0
    2.0009  -10.0981    8.1036 C   0  0  0  0  0  0  0  0  0  0  0  0
    0.6242   -9.9900    8.2880 C   0  0  0  0  0  0  0  0  0  0  0  0
   -0.1151  -11.1350    8.5777 C   0  0  0  0  0  0  0  0  0  0  0  0
    0.4901  -12.3918    8.6576 C   0  0  0  0  0  0  0  0  0  0  0  0
    4.0469  -11.7160    7.9865 C   0  0  0  0  0  0  0  0  0  0  0  0
    4.0217  -13.1968    8.2039 C   0  0  0  0  0  0  0  0  0  0  0  0
    2.5558  -14.8936    8.6825 C   0  0  0  0  0  0  0  0  0  0  0  0
    5.1697  -14.1490    8.2257 C   0  0  0  0  0  0  0  0  0  0  0  0
    2.7509  -13.5480    8.4631 N   0  0  0  0  0  0  0  0  0  0  0  0
    3.5737  -15.5497    8.6092 O   0  0  0  0  0  0  0  0  0  0  0  0
    1.3201  -15.7084    8.9915 C   0  0  0  0  0  0  0  0  0  0  0  0
    0.4005  -15.8416    7.9523 C   0  0  0  0  0  0  0  0  0  0  0  0
   -0.7721  -16.5648    8.1177 C   0  0  0  0  0  0  0  0  0  0  0  0
   -1.0498  -17.1765    9.3220 C   0  0  0  0  0  0  0  0  0  0  0  0
   -0.1485  -17.0496   10.3679 C   0  0  0  0  0  0  0  0  0  0  0  0
    1.0264  -16.3216   10.2011 C   0  0  0  0  0  0  0  0  0  0  0  0
   -2.5726  -18.1127    9.4700 Cl  0  0  0  0  0  0  0  0  0  0  0  0
   -1.4157   -8.6292    8.2474 C   0  0  0  0  0  0  0  0  0  0  0  0
    0.0186   -8.7894    8.2102 O   0  0  0  0  0  0  0  0  0  0  0  0
    5.1257  -10.6747    7.7800 C   0  0  0  0  0  0  0  0  0  0  0  0
    5.7505  -10.3734    6.4519 C   0  0  0  0  0  0  0  0  0  0  0  0
    5.9059   -9.2413    6.0130 O   0  0  0  0  0  0  0  0  0  0  0  0
    6.0573  -11.4151    5.7078 O   0  0  0  0  0  0  0  0  0  0  0  0
    5.9385  -12.2818    6.0435 H   0  0  0  0  0  0  0  0  0  0  0  0
  1  2  2  0  0  0
  1  6  1  0  0  0
  1 11  1  0  0  0
  2  3  1  0  0  0
  2  7  1  0  0  0
  3  4  2  0  0  0
  4  5  1  0  0  0
  4 21  1  0  0  0
  5  6  2  0  0  0
 20 21  1  0  0  0
  7  8  2  0  0  0
  7 22  1  0  0  0
  8 10  1  0  0  0
  8 11  1  0  0  0
  9 13  1  0  0  0
  9 11  1  0  0  0
  9 12  2  0  0  0
 13 14  2  0  0  0
 13 18  1  0  0  0
 14 15  1  0  0  0
 15 16  2  0  0  0
 16 17  1  0  0  0
 16 19  1  0  0  0
 17 18  2  0  0  0
 22 23  1  0  0  0
 23 24  2  0  0  0
 23 25  1  0  0  0
 25 26  1  0  0  0
M  END
> <minimizedAffinity>
-6.61701

$$$$
3H1X_IMN_A_301


 26 28  0  0  0  0  0  0  0  0999 V2000
    2.5019  -12.3353    8.2248 C   0  0  0  0  0  0  0  0  0  0  0  0
    1.0667  -12.6676    8.3761 C   0  0  0  0  0  0  0  0  0  0  0  0
    0.1154  -11.6668    8.3156 C   0  0  0  0  0  0  0  0  0  0  0  0
    0.4814  -10.3357    8.1283 C   0  0  0  0  0  0  0  0  0  0  0  0
    1.8286  -10.0167    7.9704 C   0  0  0  0  0  0  0  0  0  0  0  0
    2.8209  -10.9988    8.0255 C   0  0  0  0  0  0  0  0  0  0  0  0
    0.9570  -14.1223    8.5977 C   0  0  0  0  0  0  0  0  0  0  0  0
    2.3795  -14.5852    8.5443 C   0  0  0  0  0  0  0  0  0  0  0  0
    4.5017  -13.7639    8.2634 C   0  0  0  0  0  0  0  0  0  0  0  0
    2.9027  -15.9800    8.6206 C   0  0  0  0  0  0  0  0  0  0  0  0
    3.1506  -13.5054    8.3326 N   0  0  0  0  0  0  0  0  0  0  0  0
    4.7790  -14.9368    8.4024 O   0  0  0  0  0  0  0  0  0  0  0  0
    5.7022  -12.8691    8.0529 C   0  0  0  0  0  0  0  0  0  0  0  0
    6.4991  -13.1659    6.9484 C   0  0  0  0  0  0  0  0  0  0  0  0
    7.6289  -12.4158    6.6541 C   0  0  0  0  0  0  0  0  0  0  0  0
    7.9846  -11.3490    7.4521 C   0  0  0  0  0  0  0  0  0  0  0  0
    7.2059  -11.0432    8.5578 C   0  0  0  0  0  0  0  0  0  0  0  0
    6.0742  -11.7982    8.8532 C   0  0  0  0  0  0  0  0  0  0  0  0
    9.4451  -10.4057    7.0110 Cl  0  0  0  0  0  0  0  0  0  0  0  0
   -1.5540   -9.2926    9.0133 C   0  0  0  0  0  0  0  0  0  0  0  0
   -0.4576   -9.3715    8.0774 O   0  0  0  0  0  0  0  0  0  0  0  0
   -0.3945  -14.7985    8.6824 C   0  0  0  0  0  0  0  0  0  0  0  0
   -0.7426  -16.0605    7.9535 C   0  0  0  0  0  0  0  0  0  0  0  0
   -1.0588  -16.0999    6.7716 O   0  0  0  0  0  0  0  0  0  0  0  0
   -0.7829  -17.1563    8.6820 O   0  0  0  0  0  0  0  0  0  0  0  0
   -0.5409  -17.1265    9.5867 H   0  0  0  0  0  0  0  0  0  0  0  0
  1  2  2  0  0  0
  1  6  1  0  0  0
  1 11  1  0  0  0
  2  3  1  0  0  0
  2  7  1  0  0  0
  3  4  2  0  0  0
  4  5  1  0  0  0
  4 21  1  0  0  0
  5  6  2  0  0  0
 20 21  1  0  0  0
  7  8  2  0  0  0
  7 22  1  0  0  0
  8 10  1  0  0  0
  8 11  1  0  0  0
  9 13  1  0  0  0
  9 11  1  0  0  0
  9 12  2  0  0  0
 13 14  2  0  0  0
 13 18  1  0  0  0
 14 15  1  0  0  0
 15 16  2  0  0  0
 16 17  1  0  0  0
 16 19  1  0  0  0
 17 18  2  0  0  0
 22 23  1  0  0  0
 23 24  2  0  0  0
 23 25  1  0  0  0
 25 26  1  0  0  0
M  END
> <minimizedAffinity>
-6.48904

$$$$
3H1X_IMN_A_301


 26 28  0  0  0  0  0  0  0  0999 V2000
    1.2887  -12.1417    8.7665 C   0  0  0  0  0  0  0  0  0  0  0  0
    1.1869  -13.5687    8.3841 C   0  0  0  0  0  0  0  0  0  0  0  0
    2.3320  -14.3287    8.2381 C   0  0  0  0  0  0  0  0  0  0  0  0
    3.5948  -13.7723    8.4301 C   0  0  0  0  0  0  0  0  0  0  0  0
    3.6985  -12.4342    8.8043 C   0  0  0  0  0  0  0  0  0  0  0  0
    2.5654  -11.6321    8.9620 C   0  0  0  0  0  0  0  0  0  0  0  0
   -0.2420  -13.8920    8.2076 C   0  0  0  0  0  0  0  0  0  0  0  0
   -0.9273  -12.5995    8.5246 C   0  0  0  0  0  0  0  0  0  0  0  0
   -0.4479  -10.4413    9.1325 C   0  0  0  0  0  0  0  0  0  0  0  0
   -2.3909  -12.3213    8.5977 C   0  0  0  0  0  0  0  0  0  0  0  0
    0.0233  -11.6974    8.8209 N   0  0  0  0  0  0  0  0  0  0  0  0
   -1.6573  -10.3532    9.0923 O   0  0  0  0  0  0  0  0  0  0  0  0
    0.2501   -9.1541    9.5093 C   0  0  0  0  0  0  0  0  0  0  0  0
    0.5740   -9.0068   10.8571 C   0  0  0  0  0  0  0  0  0  0  0  0
    1.2145   -7.8671   11.3226 C   0  0  0  0  0  0  0  0  0  0  0  0
    1.5516   -6.8523   10.4520 C   0  0  0  0  0  0  0  0  0  0  0  0
    1.2319   -6.9802    9.1089 C   0  0  0  0  0  0  0  0  0  0  0  0
    0.5871   -8.1230    8.6439 C   0  0  0  0  0  0  0  0  0  0  0  0
    2.3944   -5.4118   11.1093 Cl  0  0  0  0  0  0  0  0  0  0  0  0
    6.0203  -13.9600    8.1204 C   0  0  0  0  0  0  0  0  0  0  0  0
    4.7013  -14.5252    8.2782 O   0  0  0  0  0  0  0  0  0  0  0  0
   -0.6913  -15.3084    7.9196 C   0  0  0  0  0  0  0  0  0  0  0  0
   -0.7872  -15.8888    6.5415 C   0  0  0  0  0  0  0  0  0  0  0  0
   -1.2479  -16.9967    6.2992 O   0  0  0  0  0  0  0  0  0  0  0  0
   -0.2560  -15.1714    5.5740 O   0  0  0  0  0  0  0  0  0  0  0  0
    0.0968  -14.3233    5.7592 H   0  0  0  0  0  0  0  0  0  0  0  0
  1  2  2  0  0  0
  1  6  1  0  0  0
  1 11  1  0  0  0
  2  3  1  0  0  0
  2  7  1  0  0  0
  3  4  2  0  0  0
  4  5  1  0  0  0
  4 21  1  0  0  0
  5  6  2  0  0  0
 20 21  1  0  0  0
  7  8  2  0  0  0
  7 22  1  0  0  0
  8 10  1  0  0  0
  8 11  1  0  0  0
  9 13  1  0  0  0
  9 11  1  0  0  0
  9 12  2  0  0  0
 13 14  2  0  0  0
 13 18  1  0  0  0
 14 15  1  0  0  0
 15 16  2  0  0  0
 16 17  1  0  0  0
 16 19  1  0  0  0
 17 18  2  0  0  0
 22 23  1  0  0  0
 23 24  2  0  0  0
 23 25  1  0  0  0
 25 26  1  0  0  0
M  END
> <minimizedAffinity>
-6.27822

$$$$
3H1X_IMN_A_301


 26 28  0  0  0  0  0  0  0  0999 V2000
    2.6133  -10.0471    8.5446 C   0  0  0  0  0  0  0  0  0  0  0  0
    1.3224   -9.3312    8.6627 C   0  0  0  0  0  0  0  0  0  0  0  0
    1.3009   -8.0029    9.0440 C   0  0  0  0  0  0  0  0  0  0  0  0
    2.4785   -7.3189    9.3376 C   0  0  0  0  0  0  0  0  0  0  0  0
    3.6983   -7.9812    9.2147 C   0  0  0  0  0  0  0  0  0  0  0  0
    3.7629   -9.3236    8.8323 C   0  0  0  0  0  0  0  0  0  0  0  0
    0.2425  -10.2827    8.3371 C   0  0  0  0  0  0  0  0  0  0  0  0
    0.9824  -11.5438    8.0162 C   0  0  0  0  0  0  0  0  0  0  0  0
    3.1197  -12.3673    7.9109 C   0  0  0  0  0  0  0  0  0  0  0  0
    0.4314  -12.8432    7.5337 C   0  0  0  0  0  0  0  0  0  0  0  0
    2.2943  -11.2946    8.1657 N   0  0  0  0  0  0  0  0  0  0  0  0
    2.5227  -13.3723    7.5859 O   0  0  0  0  0  0  0  0  0  0  0  0
    4.6216  -12.5340    7.9628 C   0  0  0  0  0  0  0  0  0  0  0  0
    5.3450  -11.8633    6.9778 C   0  0  0  0  0  0  0  0  0  0  0  0
    6.7293  -11.9426    6.9224 C   0  0  0  0  0  0  0  0  0  0  0  0
    7.4225  -12.6879    7.8528 C   0  0  0  0  0  0  0  0  0  0  0  0
    6.7182  -13.3657    8.8361 C   0  0  0  0  0  0  0  0  0  0  0  0
    5.3293  -13.2871    8.8888 C   0  0  0  0  0  0  0  0  0  0  0  0
    9.2121  -12.7379    7.7409 Cl  0  0  0  0  0  0  0  0  0  0  0  0
    3.6200   -5.1997    9.8067 C   0  0  0  0  0  0  0  0  0  0  0  0
    2.4400   -6.0261    9.7135 O   0  0  0  0  0  0  0  0  0  0  0  0
   -1.1995   -9.8293    8.2602 C   0  0  0  0  0  0  0  0  0  0  0  0
   -1.6480   -8.4260    8.5334 C   0  0  0  0  0  0  0  0  0  0  0  0
   -1.9951   -8.0239    9.6362 O   0  0  0  0  0  0  0  0  0  0  0  0
   -1.7426   -7.6351    7.4853 O   0  0  0  0  0  0  0  0  0  0  0  0
   -1.4770   -7.9425    6.6409 H   0  0  0  0  0  0  0  0  0  0  0  0
  1  2  2  0  0  0
  1  6  1  0  0  0
  1 11  1  0  0  0
  2  3  1  0  0  0
  2  7  1  0  0  0
  3  4  2  0  0  0
  4  5  1  0  0  0
  4 21  1  0  0  0
  5  6  2  0  0  0
 20 21  1  0  0  0
  7  8  2  0  0  0
  7 22  1  0  0  0
  8 10  1  0  0  0
  8 11  1  0  0  0
  9 13  1  0  0  0
  9 11  1  0  0  0
  9 12  2  0  0  0
 13 14  2  0  0  0
 13 18  1  0  0  0
 14 15  1  0  0  0
 15 16  2  0  0  0
 16 17  1  0  0  0
 16 19  1  0  0  0
 17 18  2  0  0  0
 22 23  1  0  0  0
 23 24  2  0  0  0
 23 25  1  0  0  0
 25 26  1  0  0  0
M  END
> <minimizedAffinity>
-6.01203

$$$$
3H1X_IMN_A_301


 26 28  0  0  0  0  0  0  0  0999 V2000
    1.3151  -12.6653    8.3095 C   0  0  0  0  0  0  0  0  0  0  0  0
   -0.1613  -12.7804    8.3206 C   0  0  0  0  0  0  0  0  0  0  0  0
   -0.7581  -14.0256    8.2606 C   0  0  0  0  0  0  0  0  0  0  0  0
    0.0064  -15.1870    8.1737 C   0  0  0  0  0  0  0  0  0  0  0  0
    1.3963  -15.0881    8.1774 C   0  0  0  0  0  0  0  0  0  0  0  0
    2.0380  -13.8484    8.2366 C   0  0  0  0  0  0  0  0  0  0  0  0
   -0.7239  -11.4175    8.3791 C   0  0  0  0  0  0  0  0  0  0  0  0
    0.4927  -10.5462    8.4195 C   0  0  0  0  0  0  0  0  0  0  0  0
    2.7806  -10.6941    8.3981 C   0  0  0  0  0  0  0  0  0  0  0  0
    0.5651   -9.0636    8.5661 C   0  0  0  0  0  0  0  0  0  0  0  0
    1.5692  -11.3490    8.3751 N   0  0  0  0  0  0  0  0  0  0  0  0
    2.6783   -9.4867    8.4592 O   0  0  0  0  0  0  0  0  0  0  0  0
    4.2088  -11.1888    8.3573 C   0  0  0  0  0  0  0  0  0  0  0  0
    4.8838  -11.2078    9.5769 C   0  0  0  0  0  0  0  0  0  0  0  0
    6.1996  -11.6398    9.6642 C   0  0  0  0  0  0  0  0  0  0  0  0
    6.8687  -12.0685    8.5372 C   0  0  0  0  0  0  0  0  0  0  0  0
    6.2139  -12.0511    7.3152 C   0  0  0  0  0  0  0  0  0  0  0  0
    4.8947  -11.6150    7.2288 C   0  0  0  0  0  0  0  0  0  0  0  0
    8.5621  -12.6325    8.7155 Cl  0  0  0  0  0  0  0  0  0  0  0  0
   -1.1727  -17.0427    9.2603 C   0  0  0  0  0  0  0  0  0  0  0  0
   -0.5908  -16.3926    8.1101 O   0  0  0  0  0  0  0  0  0  0  0  0
   -2.2149  -11.1944    8.5133 C   0  0  0  0  0  0  0  0  0  0  0  0
   -2.8864  -10.7938    9.7915 C   0  0  0  0  0  0  0  0  0  0  0  0
   -3.6474  -11.5196   10.4181 O   0  0  0  0  0  0  0  0  0  0  0  0
   -2.6888   -9.5529   10.1839 O   0  0  0  0  0  0  0  0  0  0  0  0
   -2.1064   -8.9971    9.7046 H   0  0  0  0  0  0  0  0  0  0  0  0
  1  2  2  0  0  0
  1  6  1  0  0  0
  1 11  1  0  0  0
  2  3  1  0  0  0
  2  7  1  0  0  0
  3  4  2  0  0  0
  4  5  1  0  0  0
  4 21  1  0  0  0
  5  6  2  0  0  0
 20 21  1  0  0  0
  7  8  2  0  0  0
  7 22  1  0  0  0
  8 10  1  0  0  0
  8 11  1  0  0  0
  9 13  1  0  0  0
  9 11  1  0  0  0
  9 12  2  0  0  0
 13 14  2  0  0  0
 13 18  1  0  0  0
 14 15  1  0  0  0
 15 16  2  0  0  0
 16 17  1  0  0  0
 16 19  1  0  0  0
 17 18  2  0  0  0
 22 23  1  0  0  0
 23 24  2  0  0  0
 23 25  1  0  0  0
 25 26  1  0  0  0
M  END
> <minimizedAffinity>
-5.82486

$$$$
3H1X_IMN_A_301


 26 28  0  0  0  0  0  0  0  0999 V2000
    1.4674  -10.1209    8.5072 C   0  0  0  0  0  0  0  0  0  0  0  0
    0.2117   -9.4155    8.8519 C   0  0  0  0  0  0  0  0  0  0  0  0
   -0.9988  -10.0769    8.7657 C   0  0  0  0  0  0  0  0  0  0  0  0
   -1.0664  -11.4026    8.3427 C   0  0  0  0  0  0  0  0  0  0  0  0
    0.1119  -12.0778    8.0306 C   0  0  0  0  0  0  0  0  0  0  0  0
    1.3554  -11.4449    8.1046 C   0  0  0  0  0  0  0  0  0  0  0  0
    0.5558   -8.0305    9.2273 C   0  0  0  0  0  0  0  0  0  0  0  0
    2.0467   -8.0005    9.0968 C   0  0  0  0  0  0  0  0  0  0  0  0
    3.8028   -9.3547    8.5142 C   0  0  0  0  0  0  0  0  0  0  0  0
    2.9822   -6.8855    9.4228 C   0  0  0  0  0  0  0  0  0  0  0  0
    2.4436   -9.2179    8.6897 N   0  0  0  0  0  0  0  0  0  0  0  0
    4.4279   -8.3447    8.7619 O   0  0  0  0  0  0  0  0  0  0  0  0
    4.6624  -10.5162    8.0693 C   0  0  0  0  0  0  0  0  0  0  0  0
    5.3540  -10.3409    6.8717 C   0  0  0  0  0  0  0  0  0  0  0  0
    6.1729  -11.3381    6.3613 C   0  0  0  0  0  0  0  0  0  0  0  0
    6.3247  -12.5299    7.0382 C   0  0  0  0  0  0  0  0  0  0  0  0
    5.6398  -12.7229    8.2281 C   0  0  0  0  0  0  0  0  0  0  0  0
    4.8167  -11.7225    8.7376 C   0  0  0  0  0  0  0  0  0  0  0  0
    7.4107  -13.7741    6.3382 Cl  0  0  0  0  0  0  0  0  0  0  0  0
   -3.3454  -11.7744    9.1687 C   0  0  0  0  0  0  0  0  0  0  0  0
   -2.2547  -12.0312    8.2585 O   0  0  0  0  0  0  0  0  0  0  0  0
   -0.5012   -7.0761    9.7399 C   0  0  0  0  0  0  0  0  0  0  0  0
   -0.8800   -6.9489   11.1840 C   0  0  0  0  0  0  0  0  0  0  0  0
   -0.2688   -6.2604   11.9908 O   0  0  0  0  0  0  0  0  0  0  0  0
   -1.8803   -7.7034   11.5878 O   0  0  0  0  0  0  0  0  0  0  0  0
   -2.3483   -8.2305   10.9705 H   0  0  0  0  0  0  0  0  0  0  0  0
  1  2  2  0  0  0
  1  6  1  0  0  0
  1 11  1  0  0  0
  2  3  1  0  0  0
  2  7  1  0  0  0
  3  4  2  0  0  0
  4  5  1  0  0  0
  4 21  1  0  0  0
  5  6  2  0  0  0
 20 21  1  0  0  0
  7  8  2  0  0  0
  7 22  1  0  0  0
  8 10  1  0  0  0
  8 11  1  0  0  0
  9 13  1  0  0  0
  9 11  1  0  0  0
  9 12  2  0  0  0
 13 14  2  0  0  0
 13 18  1  0  0  0
 14 15  1  0  0  0
 15 16  2  0  0  0
 16 17  1  0  0  0
 16 19  1  0  0  0
 17 18  2  0  0  0
 22 23  1  0  0  0
 23 24  2  0  0  0
 23 25  1  0  0  0
 25 26  1  0  0  0
M  END
> <minimizedAffinity>
-5.73440

$$$$
3H1X_IMN_A_301


 26 28  0  0  0  0  0  0  0  0999 V2000
    2.3389  -10.6405    8.5226 C   0  0  0  0  0  0  0  0  0  0  0  0
    2.2888  -11.9708    7.8738 C   0  0  0  0  0  0  0  0  0  0  0  0
    3.4613  -12.6387    7.5749 C   0  0  0  0  0  0  0  0  0  0  0  0
    4.7034  -12.0757    7.8599 C   0  0  0  0  0  0  0  0  0  0  0  0
    4.7588  -10.8310    8.4836 C   0  0  0  0  0  0  0  0  0  0  0  0
    3.5968  -10.1235    8.8020 C   0  0  0  0  0  0  0  0  0  0  0  0
    0.8715  -12.3153    7.6503 C   0  0  0  0  0  0  0  0  0  0  0  0
    0.1396  -11.1383    8.2155 C   0  0  0  0  0  0  0  0  0  0  0  0
    0.5408   -9.1181    9.2231 C   0  0  0  0  0  0  0  0  0  0  0  0
   -1.3328  -10.9424    8.3528 C   0  0  0  0  0  0  0  0  0  0  0  0
    1.0575  -10.2697    8.6719 N   0  0  0  0  0  0  0  0  0  0  0  0
   -0.6717   -9.0760    9.2106 O   0  0  0  0  0  0  0  0  0  0  0  0
    1.1921   -7.8983    9.8346 C   0  0  0  0  0  0  0  0  0  0  0  0
    1.0331   -7.7463   11.2112 C   0  0  0  0  0  0  0  0  0  0  0  0
    1.5840   -6.6648   11.8839 C   0  0  0  0  0  0  0  0  0  0  0  0
    2.3113   -5.7147   11.1985 C   0  0  0  0  0  0  0  0  0  0  0  0
    2.4747   -5.8477    9.8281 C   0  0  0  0  0  0  0  0  0  0  0  0
    1.9192   -6.9319    9.1543 C   0  0  0  0  0  0  0  0  0  0  0  0
    3.0143   -4.3491   12.1250 Cl  0  0  0  0  0  0  0  0  0  0  0  0
    6.0774  -14.1051    7.9510 C   0  0  0  0  0  0  0  0  0  0  0  0
    5.8369  -12.7372    7.5570 O   0  0  0  0  0  0  0  0  0  0  0  0
    0.4754  -13.6681    7.0989 C   0  0  0  0  0  0  0  0  0  0  0  0
   -0.6098  -14.5210    7.6821 C   0  0  0  0  0  0  0  0  0  0  0  0
   -0.9527  -14.4790    8.8564 O   0  0  0  0  0  0  0  0  0  0  0  0
   -1.1405  -15.4139    6.8734 O   0  0  0  0  0  0  0  0  0  0  0  0
   -0.8783  -15.4463    5.9745 H   0  0  0  0  0  0  0  0  0  0  0  0
  1  2  2  0  0  0
  1  6  1  0  0  0
  1 11  1  0  0  0
  2  3  1  0  0  0
  2  7  1  0  0  0
  3  4  2  0  0  0
  4  5  1  0  0  0
  4 21  1  0  0  0
  5  6  2  0  0  0
 20 21  1  0  0  0
  7  8  2  0  0  0
  7 22  1  0  0  0
  8 10  1  0  0  0
  8 11  1  0  0  0
  9 13  1  0  0  0
  9 11  1  0  0  0
  9 12  2  0  0  0
 13 14  2  0  0  0
 13 18  1  0  0  0
 14 15  1  0  0  0
 15 16  2  0  0  0
 16 17  1  0  0  0
 16 19  1  0  0  0
 17 18  2  0  0  0
 22 23  1  0  0  0
 23 24  2  0  0  0
 23 25  1  0  0  0
 25 26  1  0  0  0
M  END
> <minimizedAffinity>
-5.70808

$$$$
3H1X_IMN_A_301


 26 28  0  0  0  0  0  0  0  0999 V2000
   -1.1638  -13.4357    9.7814 C   0  0  0  0  0  0  0  0  0  0  0  0
   -1.0545  -14.8689    9.4249 C   0  0  0  0  0  0  0  0  0  0  0  0
   -1.7317  -15.8191   10.1657 C   0  0  0  0  0  0  0  0  0  0  0  0
   -2.5114  -15.4562   11.2617 C   0  0  0  0  0  0  0  0  0  0  0  0
   -2.6311  -14.1085   11.5947 C   0  0  0  0  0  0  0  0  0  0  0  0
   -1.9627  -13.1174   10.8714 C   0  0  0  0  0  0  0  0  0  0  0  0
   -0.1501  -14.9818    8.2644 C   0  0  0  0  0  0  0  0  0  0  0  0
    0.2213  -13.5599    7.9799 C   0  0  0  0  0  0  0  0  0  0  0  0
   -0.1546  -11.4385    8.7645 C   0  0  0  0  0  0  0  0  0  0  0  0
    1.0536  -13.0261    6.8632 C   0  0  0  0  0  0  0  0  0  0  0  0
   -0.4007  -12.7880    8.8870 N   0  0  0  0  0  0  0  0  0  0  0  0
    0.5882  -11.1623    7.8459 O   0  0  0  0  0  0  0  0  0  0  0  0
   -0.6270  -10.2393    9.5551 C   0  0  0  0  0  0  0  0  0  0  0  0
   -1.8120   -9.6485    9.1192 C   0  0  0  0  0  0  0  0  0  0  0  0
   -2.3432   -8.5407    9.7643 C   0  0  0  0  0  0  0  0  0  0  0  0
   -1.7067   -8.0019   10.8625 C   0  0  0  0  0  0  0  0  0  0  0  0
   -0.5241   -8.5739   11.3060 C   0  0  0  0  0  0  0  0  0  0  0  0
    0.0088   -9.6838   10.6563 C   0  0  0  0  0  0  0  0  0  0  0  0
   -2.4507   -6.5809   11.6654 Cl  0  0  0  0  0  0  0  0  0  0  0  0
   -2.8426  -16.6932   13.3533 C   0  0  0  0  0  0  0  0  0  0  0  0
   -3.1604  -16.3951   11.9770 O   0  0  0  0  0  0  0  0  0  0  0  0
    0.0854  -16.3142    7.5860 C   0  0  0  0  0  0  0  0  0  0  0  0
   -0.4602  -16.6709    6.2369 C   0  0  0  0  0  0  0  0  0  0  0  0
   -1.3981  -16.0906    5.7058 O   0  0  0  0  0  0  0  0  0  0  0  0
    0.0700  -17.7289    5.6604 O   0  0  0  0  0  0  0  0  0  0  0  0
    0.7879  -18.1734    6.0666 H   0  0  0  0  0  0  0  0  0  0  0  0
  1  2  2  0  0  0
  1  6  1  0  0  0
  1 11  1  0  0  0
  2  3  1  0  0  0
  2  7  1  0  0  0
  3  4  2  0  0  0
  4  5  1  0  0  0
  4 21  1  0  0  0
  5  6  2  0  0  0
 20 21  1  0  0  0
  7  8  2  0  0  0
  7 22  1  0  0  0
  8 10  1  0  0  0
  8 11  1  0  0  0
  9 13  1  0  0  0
  9 11  1  0  0  0
  9 12  2  0  0  0
 13 14  2  0  0  0
 13 18  1  0  0  0
 14 15  1  0  0  0
 15 16  2  0  0  0
 16 17  1  0  0  0
 16 19  1  0  0  0
 17 18  2  0  0  0
 22 23  1  0  0  0
 23 24  2  0  0  0
 23 25  1  0  0  0
 25 26  1  0  0  0
M  END
> <minimizedAffinity>
-5.64768

$$$$
