1HI4_A3P_A_301


 34 36  0  0  0  0  0  0  0  0999 V2000
   11.7152   16.4470   10.1762 C   0  0  0  0  0  0  0  0  0  0  0  0
   11.9808   17.8193   10.6586 O   0  0  0  0  0  0  0  0  0  0  0  0
   12.8427   15.5740   10.8196 C   0  0  0  0  0  0  0  0  0  0  0  0
   13.1467   16.3491   12.0774 C   0  0  0  0  0  0  0  0  0  0  0  0
   14.3213   15.9651   12.7882 O   0  0  0  0  0  0  0  0  0  0  0  0
   13.1522   17.7875   11.5159 C   0  0  0  0  0  0  0  0  0  0  0  0
   15.0939   16.0555   12.2087 H   0  0  0  0  0  0  0  0  0  0  0  0
   13.0910   18.8386   12.5899 N   0  0  0  0  0  0  0  0  0  0  0  0
   12.0787   19.7562   12.8589 C   0  0  0  0  0  0  0  0  0  0  0  0
   12.3045   20.5612   13.8796 N   0  0  0  0  0  0  0  0  0  0  0  0
   13.5513   20.1709   14.3446 C   0  0  0  0  0  0  0  0  0  0  0  0
   14.3789   20.6360   15.4336 C   0  0  0  0  0  0  0  0  0  0  0  0
   14.0121   21.6245   16.2357 N   0  0  0  0  0  0  0  0  0  0  0  0
   15.6183   20.0124   15.6459 N   0  0  0  0  0  0  0  0  0  0  0  0
   16.0242   18.9769   14.8210 C   0  0  0  0  0  0  0  0  0  0  0  0
   15.3212   18.4465   13.7463 N   0  0  0  0  0  0  0  0  0  0  0  0
   14.0818   19.0933   13.5628 C   0  0  0  0  0  0  0  0  0  0  0  0
   13.1460   22.0726   16.1005 H   0  0  0  0  0  0  0  0  0  0  0  0
   14.6058   21.9111   16.9669 H   0  0  0  0  0  0  0  0  0  0  0  0
   10.2499   16.0985   10.6089 C   0  0  0  0  0  0  0  0  0  0  0  0
   10.1418   14.7679   11.1778 O   0  0  0  0  0  0  0  0  0  0  0  0
    9.5514   13.4289   10.4143 P   0  0  0  0  0  0  0  0  0  0  0  0
    8.3935   14.0457    9.6988 O   0  0  0  0  0  0  0  0  0  0  0  0
   10.7449   13.1497    9.5647 O   0  0  0  0  0  0  0  0  0  0  0  0
    9.3222   12.5837   11.5853 O   0  0  0  0  0  0  0  0  0  0  0  0
   10.5784   12.3633    9.0217 H   0  0  0  0  0  0  0  0  0  0  0  0
    8.9628   11.7286   11.3015 H   0  0  0  0  0  0  0  0  0  0  0  0
   14.0092   15.4422    9.9224 O   0  0  0  0  0  0  0  0  0  0  0  0
   14.7894   14.1155    9.4323 P   0  0  0  0  0  0  0  0  0  0  0  0
   13.6163   13.2573    9.0719 O   0  0  0  0  0  0  0  0  0  0  0  0
   15.4452   13.7959   10.7437 O   0  0  0  0  0  0  0  0  0  0  0  0
   15.5640   14.7354    8.3379 O   0  0  0  0  0  0  0  0  0  0  0  0
   15.9829   12.9941   10.6495 H   0  0  0  0  0  0  0  0  0  0  0  0
   16.1147   14.0615    7.9096 H   0  0  0  0  0  0  0  0  0  0  0  0
 29 30  2  0  0  0
 29 31  1  0  0  0
 29 32  1  0  0  0
 29 28  1  0  0  0
 22 23  2  0  0  0
 22 24  1  0  0  0
 22 25  1  0  0  0
 22 21  1  0  0  0
 21 20  1  0  0  0
 20  1  1  0  0  0
  1  2  1  0  0  0
  1  3  1  0  0  0
  2  6  1  0  0  0
  3 28  1  0  0  0
  3  4  1  0  0  0
  4  5  1  0  0  0
  4  6  1  0  0  0
  6  8  1  0  0  0
  8  9  1  0  0  0
  8 17  1  0  0  0
  9 10  2  0  0  0
 10 11  1  0  0  0
 11 12  1  0  0  0
 11 17  2  0  0  0
 12 13  1  0  0  0
 12 14  2  0  0  0
 14 15  1  0  0  0
 15 16  2  0  0  0
 16 17  1  0  0  0
 31 33  1  0  0  0
 32 34  1  0  0  0
 24 26  1  0  0  0
 25 27  1  0  0  0
  5  7  1  0  0  0
 13 18  1  0  0  0
 13 19  1  0  0  0
M  END
> <minimizedAffinity>
-8.15910

$$$$
1HI4_A3P_A_301


 34 36  0  0  0  0  0  0  0  0999 V2000
   14.5430   21.1715   11.3466 C   0  0  0  0  0  0  0  0  0  0  0  0
   13.2156   20.5560   11.5603 O   0  0  0  0  0  0  0  0  0  0  0  0
   15.4903   20.4315   12.3479 C   0  0  0  0  0  0  0  0  0  0  0  0
   14.8134   19.0893   12.4713 C   0  0  0  0  0  0  0  0  0  0  0  0
   15.2790   18.2403   13.5175 O   0  0  0  0  0  0  0  0  0  0  0  0
   13.3402   19.5373   12.5874 C   0  0  0  0  0  0  0  0  0  0  0  0
   15.1708   18.6892   14.3705 H   0  0  0  0  0  0  0  0  0  0  0  0
   12.3648   18.4109   12.3827 N   0  0  0  0  0  0  0  0  0  0  0  0
   10.9799   18.4161   12.5279 C   0  0  0  0  0  0  0  0  0  0  0  0
   10.3822   17.2677   12.2728 N   0  0  0  0  0  0  0  0  0  0  0  0
   11.4226   16.4182   11.9273 C   0  0  0  0  0  0  0  0  0  0  0  0
   11.4615   15.0286   11.5343 C   0  0  0  0  0  0  0  0  0  0  0  0
   10.3700   14.2836   11.4404 N   0  0  0  0  0  0  0  0  0  0  0  0
   12.7064   14.4505   11.2412 N   0  0  0  0  0  0  0  0  0  0  0  0
   13.8618   15.2084   11.3322 C   0  0  0  0  0  0  0  0  0  0  0  0
   13.9515   16.5454   11.6996 N   0  0  0  0  0  0  0  0  0  0  0  0
   12.6847   17.0948   11.9846 C   0  0  0  0  0  0  0  0  0  0  0  0
    9.4889   14.6736   11.6425 H   0  0  0  0  0  0  0  0  0  0  0  0
   10.4400   13.3400   11.1685 H   0  0  0  0  0  0  0  0  0  0  0  0
   14.8787   20.9900    9.8267 C   0  0  0  0  0  0  0  0  0  0  0  0
   16.3065   21.0103    9.5684 O   0  0  0  0  0  0  0  0  0  0  0  0
   17.2281   22.3541    9.3054 P   0  0  0  0  0  0  0  0  0  0  0  0
   18.0404   21.8713    8.1477 O   0  0  0  0  0  0  0  0  0  0  0  0
   16.1165   23.2845    8.9549 O   0  0  0  0  0  0  0  0  0  0  0  0
   17.8383   22.4722   10.6290 O   0  0  0  0  0  0  0  0  0  0  0  0
   16.4792   24.1627    8.7599 H   0  0  0  0  0  0  0  0  0  0  0  0
   18.4304   23.2404   10.6448 H   0  0  0  0  0  0  0  0  0  0  0  0
   15.5929   21.1508   13.6344 O   0  0  0  0  0  0  0  0  0  0  0  0
   16.8505   21.2973   14.6375 P   0  0  0  0  0  0  0  0  0  0  0  0
   16.4488   22.5476   15.3571 O   0  0  0  0  0  0  0  0  0  0  0  0
   17.9043   21.4688   13.5830 O   0  0  0  0  0  0  0  0  0  0  0  0
   16.6945   20.0067   15.3388 O   0  0  0  0  0  0  0  0  0  0  0  0
   18.7705   21.5766   14.0060 H   0  0  0  0  0  0  0  0  0  0  0  0
   17.3918   19.9155   16.0069 H   0  0  0  0  0  0  0  0  0  0  0  0
 29 30  2  0  0  0
 29 31  1  0  0  0
 29 32  1  0  0  0
 29 28  1  0  0  0
 22 23  2  0  0  0
 22 24  1  0  0  0
 22 25  1  0  0  0
 22 21  1  0  0  0
 21 20  1  0  0  0
 20  1  1  0  0  0
  1  2  1  0  0  0
  1  3  1  0  0  0
  2  6  1  0  0  0
  3 28  1  0  0  0
  3  4  1  0  0  0
  4  5  1  0  0  0
  4  6  1  0  0  0
  6  8  1  0  0  0
  8  9  1  0  0  0
  8 17  1  0  0  0
  9 10  2  0  0  0
 10 11  1  0  0  0
 11 12  1  0  0  0
 11 17  2  0  0  0
 12 13  1  0  0  0
 12 14  2  0  0  0
 14 15  1  0  0  0
 15 16  2  0  0  0
 16 17  1  0  0  0
 31 33  1  0  0  0
 32 34  1  0  0  0
 24 26  1  0  0  0
 25 27  1  0  0  0
  5  7  1  0  0  0
 13 18  1  0  0  0
 13 19  1  0  0  0
M  END
> <minimizedAffinity>
-7.12809

$$$$
1HI4_A3P_A_301


 34 36  0  0  0  0  0  0  0  0999 V2000
   11.3619   16.3750    8.5142 C   0  0  0  0  0  0  0  0  0  0  0  0
   11.6233   17.7622    8.9546 O   0  0  0  0  0  0  0  0  0  0  0  0
   12.5072   15.5294    9.1627 C   0  0  0  0  0  0  0  0  0  0  0  0
   12.8245   16.3410   10.3938 C   0  0  0  0  0  0  0  0  0  0  0  0
   14.0136   15.9864   11.0956 O   0  0  0  0  0  0  0  0  0  0  0  0
   12.8085   17.7635    9.7934 C   0  0  0  0  0  0  0  0  0  0  0  0
   14.7760   16.0672   10.5014 H   0  0  0  0  0  0  0  0  0  0  0  0
   12.7553   18.8431   10.8392 N   0  0  0  0  0  0  0  0  0  0  0  0
   12.1228   18.8286   12.0797 C   0  0  0  0  0  0  0  0  0  0  0  0
   12.2541   19.9314   12.7922 N   0  0  0  0  0  0  0  0  0  0  0  0
   13.0291   20.7570   11.9915 C   0  0  0  0  0  0  0  0  0  0  0  0
   13.5400   22.0962   12.1725 C   0  0  0  0  0  0  0  0  0  0  0  0
   13.3061   22.8066   13.2660 N   0  0  0  0  0  0  0  0  0  0  0  0
   14.3140   22.6615   11.1472 N   0  0  0  0  0  0  0  0  0  0  0  0
   14.5724   21.9390    9.9944 C   0  0  0  0  0  0  0  0  0  0  0  0
   14.1365   20.6518    9.7054 N   0  0  0  0  0  0  0  0  0  0  0  0
   13.3649   20.1137   10.7557 C   0  0  0  0  0  0  0  0  0  0  0  0
   12.7650   22.4249   13.9946 H   0  0  0  0  0  0  0  0  0  0  0  0
   13.6733   23.7162   13.3500 H   0  0  0  0  0  0  0  0  0  0  0  0
    9.9068   16.0265    8.9800 C   0  0  0  0  0  0  0  0  0  0  0  0
    9.7842   14.6534    9.4333 O   0  0  0  0  0  0  0  0  0  0  0  0
    9.4424   14.1643   10.9722 P   0  0  0  0  0  0  0  0  0  0  0  0
    9.4193   15.4946   11.6525 O   0  0  0  0  0  0  0  0  0  0  0  0
    8.1023   13.5724   10.6931 O   0  0  0  0  0  0  0  0  0  0  0  0
   10.5709   13.2571   11.1769 O   0  0  0  0  0  0  0  0  0  0  0  0
    7.7278   13.2181   11.5147 H   0  0  0  0  0  0  0  0  0  0  0  0
   10.5184   12.8710   12.0651 H   0  0  0  0  0  0  0  0  0  0  0  0
   13.6602   15.3827    8.2506 O   0  0  0  0  0  0  0  0  0  0  0  0
   14.5850   14.0916    7.9557 P   0  0  0  0  0  0  0  0  0  0  0  0
   13.6481   13.0099    8.3967 O   0  0  0  0  0  0  0  0  0  0  0  0
   15.6821   14.4299    8.9221 O   0  0  0  0  0  0  0  0  0  0  0  0
   14.7693   14.3082    6.5062 O   0  0  0  0  0  0  0  0  0  0  0  0
   16.3646   13.7414    8.8904 H   0  0  0  0  0  0  0  0  0  0  0  0
   15.3226   13.6000    6.1413 H   0  0  0  0  0  0  0  0  0  0  0  0
 29 30  2  0  0  0
 29 31  1  0  0  0
 29 32  1  0  0  0
 29 28  1  0  0  0
 22 23  2  0  0  0
 22 24  1  0  0  0
 22 25  1  0  0  0
 22 21  1  0  0  0
 21 20  1  0  0  0
 20  1  1  0  0  0
  1  2  1  0  0  0
  1  3  1  0  0  0
  2  6  1  0  0  0
  3 28  1  0  0  0
  3  4  1  0  0  0
  4  5  1  0  0  0
  4  6  1  0  0  0
  6  8  1  0  0  0
  8  9  1  0  0  0
  8 17  1  0  0  0
  9 10  2  0  0  0
 10 11  1  0  0  0
 11 12  1  0  0  0
 11 17  2  0  0  0
 12 13  1  0  0  0
 12 14  2  0  0  0
 14 15  1  0  0  0
 15 16  2  0  0  0
 16 17  1  0  0  0
 31 33  1  0  0  0
 32 34  1  0  0  0
 24 26  1  0  0  0
 25 27  1  0  0  0
  5  7  1  0  0  0
 13 18  1  0  0  0
 13 19  1  0  0  0
M  END
> <minimizedAffinity>
-7.05266

$$$$
1HI4_A3P_A_301


 34 36  0  0  0  0  0  0  0  0999 V2000
   11.6287   16.6401    9.9747 C   0  0  0  0  0  0  0  0  0  0  0  0
   12.1092   17.9319   10.5104 O   0  0  0  0  0  0  0  0  0  0  0  0
   12.7653   15.6206   10.3156 C   0  0  0  0  0  0  0  0  0  0  0  0
   13.3675   16.2393   11.5524 C   0  0  0  0  0  0  0  0  0  0  0  0
   14.6096   15.6944   11.9911 O   0  0  0  0  0  0  0  0  0  0  0  0
   13.4090   17.7218   11.1225 C   0  0  0  0  0  0  0  0  0  0  0  0
   15.2683   15.7810   11.2843 H   0  0  0  0  0  0  0  0  0  0  0  0
   13.6469   18.6615   12.2724 N   0  0  0  0  0  0  0  0  0  0  0  0
   14.8429   18.9734   12.9139 C   0  0  0  0  0  0  0  0  0  0  0  0
   14.7432   19.8456   13.8989 N   0  0  0  0  0  0  0  0  0  0  0  0
   13.3920   20.1558   13.9361 C   0  0  0  0  0  0  0  0  0  0  0  0
   12.6144   21.0423   14.7707 C   0  0  0  0  0  0  0  0  0  0  0  0
   13.1560   21.7696   15.7366 N   0  0  0  0  0  0  0  0  0  0  0  0
   11.2321   21.1332   14.5449 N   0  0  0  0  0  0  0  0  0  0  0  0
   10.6424   20.3829   13.5414 C   0  0  0  0  0  0  0  0  0  0  0  0
   11.2812   19.4990   12.6805 N   0  0  0  0  0  0  0  0  0  0  0  0
   12.6668   19.4336   12.9329 C   0  0  0  0  0  0  0  0  0  0  0  0
   14.1240   21.7176   15.9081 H   0  0  0  0  0  0  0  0  0  0  0  0
   12.5904   22.3620   16.2828 H   0  0  0  0  0  0  0  0  0  0  0  0
   10.2406   16.3670   10.6487 C   0  0  0  0  0  0  0  0  0  0  0  0
    9.5631   15.2185   10.0761 O   0  0  0  0  0  0  0  0  0  0  0  0
    9.6114   13.6733   10.6542 P   0  0  0  0  0  0  0  0  0  0  0  0
   10.2560   13.9271   11.9782 O   0  0  0  0  0  0  0  0  0  0  0  0
    8.1392   13.4391   10.7011 O   0  0  0  0  0  0  0  0  0  0  0  0
   10.3771   13.0519    9.5745 O   0  0  0  0  0  0  0  0  0  0  0  0
    7.9646   12.5436   11.0305 H   0  0  0  0  0  0  0  0  0  0  0  0
   10.4986   12.1087    9.7655 H   0  0  0  0  0  0  0  0  0  0  0  0
   13.7298   15.4876    9.2043 O   0  0  0  0  0  0  0  0  0  0  0  0
   14.5053   14.1785    8.6621 P   0  0  0  0  0  0  0  0  0  0  0  0
   13.4362   13.1517    8.8746 O   0  0  0  0  0  0  0  0  0  0  0  0
   15.6067   14.1851    9.6814 O   0  0  0  0  0  0  0  0  0  0  0  0
   14.7546   14.6530    7.2857 O   0  0  0  0  0  0  0  0  0  0  0  0
   16.2047   13.4394    9.5162 H   0  0  0  0  0  0  0  0  0  0  0  0
   15.2314   13.9695    6.7894 H   0  0  0  0  0  0  0  0  0  0  0  0
 29 30  2  0  0  0
 29 31  1  0  0  0
 29 32  1  0  0  0
 29 28  1  0  0  0
 22 23  2  0  0  0
 22 24  1  0  0  0
 22 25  1  0  0  0
 22 21  1  0  0  0
 21 20  1  0  0  0
 20  1  1  0  0  0
  1  2  1  0  0  0
  1  3  1  0  0  0
  2  6  1  0  0  0
  3 28  1  0  0  0
  3  4  1  0  0  0
  4  5  1  0  0  0
  4  6  1  0  0  0
  6  8  1  0  0  0
  8  9  1  0  0  0
  8 17  1  0  0  0
  9 10  2  0  0  0
 10 11  1  0  0  0
 11 12  1  0  0  0
 11 17  2  0  0  0
 12 13  1  0  0  0
 12 14  2  0  0  0
 14 15  1  0  0  0
 15 16  2  0  0  0
 16 17  1  0  0  0
 31 33  1  0  0  0
 32 34  1  0  0  0
 24 26  1  0  0  0
 25 27  1  0  0  0
  5  7  1  0  0  0
 13 18  1  0  0  0
 13 19  1  0  0  0
M  END
> <minimizedAffinity>
-6.93747

$$$$
1HI4_A3P_A_301


 34 36  0  0  0  0  0  0  0  0999 V2000
   12.5470   15.4278   11.7137 C   0  0  0  0  0  0  0  0  0  0  0  0
   12.3999   16.6627   12.5138 O   0  0  0  0  0  0  0  0  0  0  0  0
   11.3928   15.4968   10.6599 C   0  0  0  0  0  0  0  0  0  0  0  0
   11.2021   16.9860   10.5150 C   0  0  0  0  0  0  0  0  0  0  0  0
   10.0381   17.4085    9.8088 O   0  0  0  0  0  0  0  0  0  0  0  0
   11.2703   17.4144   11.9970 C   0  0  0  0  0  0  0  0  0  0  0  0
    9.2475   17.0660   10.2543 H   0  0  0  0  0  0  0  0  0  0  0  0
   11.4541   18.8967   12.1731 N   0  0  0  0  0  0  0  0  0  0  0  0
   10.5350   19.8458   12.6131 C   0  0  0  0  0  0  0  0  0  0  0  0
   10.9874   21.0839   12.6711 N   0  0  0  0  0  0  0  0  0  0  0  0
   12.3034   20.9799   12.2460 C   0  0  0  0  0  0  0  0  0  0  0  0
   13.3573   21.9537   12.0788 C   0  0  0  0  0  0  0  0  0  0  0  0
   13.1865   23.2410   12.3410 N   0  0  0  0  0  0  0  0  0  0  0  0
   14.6089   21.5134   11.6210 N   0  0  0  0  0  0  0  0  0  0  0  0
   14.8124   20.1727   11.3399 C   0  0  0  0  0  0  0  0  0  0  0  0
   13.8811   19.1484   11.4583 N   0  0  0  0  0  0  0  0  0  0  0  0
   12.6375   19.6244   11.9219 C   0  0  0  0  0  0  0  0  0  0  0  0
   12.3148   23.5663   12.6628 H   0  0  0  0  0  0  0  0  0  0  0  0
   13.9312   23.8722   12.2140 H   0  0  0  0  0  0  0  0  0  0  0  0
   14.0032   15.4430   11.1348 C   0  0  0  0  0  0  0  0  0  0  0  0
   14.3038   14.2532   10.3603 O   0  0  0  0  0  0  0  0  0  0  0  0
   14.3709   14.1559    8.7139 P   0  0  0  0  0  0  0  0  0  0  0  0
   13.4224   13.0217    8.4968 O   0  0  0  0  0  0  0  0  0  0  0  0
   13.8181   15.5091    8.4184 O   0  0  0  0  0  0  0  0  0  0  0  0
   15.8097   13.9468    8.5584 O   0  0  0  0  0  0  0  0  0  0  0  0
   13.7799   15.6401    7.4580 H   0  0  0  0  0  0  0  0  0  0  0  0
   16.0248   13.8664    7.6160 H   0  0  0  0  0  0  0  0  0  0  0  0
   10.1795   14.7993   11.1337 O   0  0  0  0  0  0  0  0  0  0  0  0
    9.3418   13.6025   10.4445 P   0  0  0  0  0  0  0  0  0  0  0  0
   10.2027   13.3569    9.2441 O   0  0  0  0  0  0  0  0  0  0  0  0
    8.0858   14.3835   10.1901 O   0  0  0  0  0  0  0  0  0  0  0  0
    9.4135   12.6416   11.5641 O   0  0  0  0  0  0  0  0  0  0  0  0
    7.4305   13.8113    9.7611 H   0  0  0  0  0  0  0  0  0  0  0  0
    8.9446   11.8277   11.3221 H   0  0  0  0  0  0  0  0  0  0  0  0
 29 30  2  0  0  0
 29 31  1  0  0  0
 29 32  1  0  0  0
 29 28  1  0  0  0
 22 23  2  0  0  0
 22 24  1  0  0  0
 22 25  1  0  0  0
 22 21  1  0  0  0
 21 20  1  0  0  0
 20  1  1  0  0  0
  1  2  1  0  0  0
  1  3  1  0  0  0
  2  6  1  0  0  0
  3 28  1  0  0  0
  3  4  1  0  0  0
  4  5  1  0  0  0
  4  6  1  0  0  0
  6  8  1  0  0  0
  8  9  1  0  0  0
  8 17  1  0  0  0
  9 10  2  0  0  0
 10 11  1  0  0  0
 11 12  1  0  0  0
 11 17  2  0  0  0
 12 13  1  0  0  0
 12 14  2  0  0  0
 14 15  1  0  0  0
 15 16  2  0  0  0
 16 17  1  0  0  0
 31 33  1  0  0  0
 32 34  1  0  0  0
 24 26  1  0  0  0
 25 27  1  0  0  0
  5  7  1  0  0  0
 13 18  1  0  0  0
 13 19  1  0  0  0
M  END
> <minimizedAffinity>
-6.82194

$$$$
1HI4_A3P_A_301


 34 36  0  0  0  0  0  0  0  0999 V2000
   15.3212   20.6533   12.2144 C   0  0  0  0  0  0  0  0  0  0  0  0
   14.7045   19.3108   12.1496 O   0  0  0  0  0  0  0  0  0  0  0  0
   14.8029   21.3911   10.9359 C   0  0  0  0  0  0  0  0  0  0  0  0
   13.4792   20.7059   10.7052 C   0  0  0  0  0  0  0  0  0  0  0  0
   12.8439   20.9627    9.4551 O   0  0  0  0  0  0  0  0  0  0  0  0
   13.8864   19.2370   10.9523 C   0  0  0  0  0  0  0  0  0  0  0  0
   13.4308   20.6909    8.7322 H   0  0  0  0  0  0  0  0  0  0  0  0
   12.7068   18.3219   11.1335 N   0  0  0  0  0  0  0  0  0  0  0  0
   11.3510   18.6029   10.9850 C   0  0  0  0  0  0  0  0  0  0  0  0
   10.5375   17.5881   11.2075 N   0  0  0  0  0  0  0  0  0  0  0  0
   11.3883   16.5407   11.5273 C   0  0  0  0  0  0  0  0  0  0  0  0
   11.1510   15.1583   11.8732 C   0  0  0  0  0  0  0  0  0  0  0  0
    9.9340   14.6394   11.9414 N   0  0  0  0  0  0  0  0  0  0  0  0
   12.2563   14.3373   12.1460 N   0  0  0  0  0  0  0  0  0  0  0  0
   13.5386   14.8563   12.0814 C   0  0  0  0  0  0  0  0  0  0  0  0
   13.8912   16.1623   11.7643 N   0  0  0  0  0  0  0  0  0  0  0  0
   12.7590   16.9580   11.4942 C   0  0  0  0  0  0  0  0  0  0  0  0
    9.1480   15.2015   11.7531 H   0  0  0  0  0  0  0  0  0  0  0  0
    9.8156   13.6917   12.1805 H   0  0  0  0  0  0  0  0  0  0  0  0
   14.8890   21.2763   13.5858 C   0  0  0  0  0  0  0  0  0  0  0  0
   15.9359   21.1919   14.5871 O   0  0  0  0  0  0  0  0  0  0  0  0
   15.9368   20.2082   15.9125 P   0  0  0  0  0  0  0  0  0  0  0  0
   15.9433   18.8785   15.2305 O   0  0  0  0  0  0  0  0  0  0  0  0
   17.2504   20.6395   16.4716 O   0  0  0  0  0  0  0  0  0  0  0  0
   14.7172   20.6948   16.5559 O   0  0  0  0  0  0  0  0  0  0  0  0
   17.4308   20.1490   17.2887 H   0  0  0  0  0  0  0  0  0  0  0  0
   14.5673   20.2031   17.3785 H   0  0  0  0  0  0  0  0  0  0  0  0
   15.7394   21.2419    9.8030 O   0  0  0  0  0  0  0  0  0  0  0  0
   16.6761   22.3455    9.0861 P   0  0  0  0  0  0  0  0  0  0  0  0
   17.2391   21.5102    7.9780 O   0  0  0  0  0  0  0  0  0  0  0  0
   17.5964   22.5839   10.2472 O   0  0  0  0  0  0  0  0  0  0  0  0
   15.6160   23.3200    8.7571 O   0  0  0  0  0  0  0  0  0  0  0  0
   18.2607   23.2470   10.0024 H   0  0  0  0  0  0  0  0  0  0  0  0
   16.0074   24.0825    8.3030 H   0  0  0  0  0  0  0  0  0  0  0  0
 29 30  2  0  0  0
 29 31  1  0  0  0
 29 32  1  0  0  0
 29 28  1  0  0  0
 22 23  2  0  0  0
 22 24  1  0  0  0
 22 25  1  0  0  0
 22 21  1  0  0  0
 21 20  1  0  0  0
 20  1  1  0  0  0
  1  2  1  0  0  0
  1  3  1  0  0  0
  2  6  1  0  0  0
  3 28  1  0  0  0
  3  4  1  0  0  0
  4  5  1  0  0  0
  4  6  1  0  0  0
  6  8  1  0  0  0
  8  9  1  0  0  0
  8 17  1  0  0  0
  9 10  2  0  0  0
 10 11  1  0  0  0
 11 12  1  0  0  0
 11 17  2  0  0  0
 12 13  1  0  0  0
 12 14  2  0  0  0
 14 15  1  0  0  0
 15 16  2  0  0  0
 16 17  1  0  0  0
 31 33  1  0  0  0
 32 34  1  0  0  0
 24 26  1  0  0  0
 25 27  1  0  0  0
  5  7  1  0  0  0
 13 18  1  0  0  0
 13 19  1  0  0  0
M  END
> <minimizedAffinity>
-6.80645

$$$$
1HI4_A3P_A_301


 34 36  0  0  0  0  0  0  0  0999 V2000
   14.9948   19.0357   12.7538 C   0  0  0  0  0  0  0  0  0  0  0  0
   14.4283   17.7248   12.3699 O   0  0  0  0  0  0  0  0  0  0  0  0
   14.2805   20.0668   11.8190 C   0  0  0  0  0  0  0  0  0  0  0  0
   12.9657   19.3768   11.5539 C   0  0  0  0  0  0  0  0  0  0  0  0
   12.1582   19.9314   10.5183 O   0  0  0  0  0  0  0  0  0  0  0  0
   13.4599   17.9346   11.3085 C   0  0  0  0  0  0  0  0  0  0  0  0
   12.6526   19.9242    9.6838 H   0  0  0  0  0  0  0  0  0  0  0  0
   12.3523   16.9180   11.3497 N   0  0  0  0  0  0  0  0  0  0  0  0
   11.2301   16.8802   12.1733 C   0  0  0  0  0  0  0  0  0  0  0  0
   10.4202   15.8574   11.9757 N   0  0  0  0  0  0  0  0  0  0  0  0
   11.0226   15.1469   10.9483 C   0  0  0  0  0  0  0  0  0  0  0  0
   10.6585   13.9340   10.2531 C   0  0  0  0  0  0  0  0  0  0  0  0
    9.5614   13.2494   10.5409 N   0  0  0  0  0  0  0  0  0  0  0  0
   11.5030   13.4676    9.2336 N   0  0  0  0  0  0  0  0  0  0  0  0
   12.6557   14.1654    8.9142 C   0  0  0  0  0  0  0  0  0  0  0  0
   13.1104   15.3355    9.5098 N   0  0  0  0  0  0  0  0  0  0  0  0
   12.2388   15.7769   10.5263 C   0  0  0  0  0  0  0  0  0  0  0  0
    8.9583   13.5628   11.2532 H   0  0  0  0  0  0  0  0  0  0  0  0
    9.3492   12.4273   10.0426 H   0  0  0  0  0  0  0  0  0  0  0  0
   14.7271   19.2044   14.2886 C   0  0  0  0  0  0  0  0  0  0  0  0
   15.9104   19.6279   15.0141 O   0  0  0  0  0  0  0  0  0  0  0  0
   16.4068   21.1858   15.2399 P   0  0  0  0  0  0  0  0  0  0  0  0
   15.0787   21.8707   15.2240 O   0  0  0  0  0  0  0  0  0  0  0  0
   17.0084   21.0022   16.5922 O   0  0  0  0  0  0  0  0  0  0  0  0
   17.3056   21.3051   14.0927 O   0  0  0  0  0  0  0  0  0  0  0  0
   17.3681   21.8475   16.9035 H   0  0  0  0  0  0  0  0  0  0  0  0
   17.6948   22.1935   14.0779 H   0  0  0  0  0  0  0  0  0  0  0  0
   15.0610   20.3210   10.5905 O   0  0  0  0  0  0  0  0  0  0  0  0
   15.9201   21.6208   10.1642 P   0  0  0  0  0  0  0  0  0  0  0  0
   16.2098   21.2690    8.7377 O   0  0  0  0  0  0  0  0  0  0  0  0
   17.0541   21.4114   11.1245 O   0  0  0  0  0  0  0  0  0  0  0  0
   14.8853   22.6390   10.4364 O   0  0  0  0  0  0  0  0  0  0  0  0
   17.7044   22.1231   11.0171 H   0  0  0  0  0  0  0  0  0  0  0  0
   15.2358   23.5195   10.2297 H   0  0  0  0  0  0  0  0  0  0  0  0
 29 30  2  0  0  0
 29 31  1  0  0  0
 29 32  1  0  0  0
 29 28  1  0  0  0
 22 23  2  0  0  0
 22 24  1  0  0  0
 22 25  1  0  0  0
 22 21  1  0  0  0
 21 20  1  0  0  0
 20  1  1  0  0  0
  1  2  1  0  0  0
  1  3  1  0  0  0
  2  6  1  0  0  0
  3 28  1  0  0  0
  3  4  1  0  0  0
  4  5  1  0  0  0
  4  6  1  0  0  0
  6  8  1  0  0  0
  8  9  1  0  0  0
  8 17  1  0  0  0
  9 10  2  0  0  0
 10 11  1  0  0  0
 11 12  1  0  0  0
 11 17  2  0  0  0
 12 13  1  0  0  0
 12 14  2  0  0  0
 14 15  1  0  0  0
 15 16  2  0  0  0
 16 17  1  0  0  0
 31 33  1  0  0  0
 32 34  1  0  0  0
 24 26  1  0  0  0
 25 27  1  0  0  0
  5  7  1  0  0  0
 13 18  1  0  0  0
 13 19  1  0  0  0
M  END
> <minimizedAffinity>
-6.78613

$$$$
1HI4_A3P_A_301


 34 36  0  0  0  0  0  0  0  0999 V2000
   13.4340   20.0039   11.1108 C   0  0  0  0  0  0  0  0  0  0  0  0
   12.1690   19.2440   11.2049 O   0  0  0  0  0  0  0  0  0  0  0  0
   14.4475   19.1996   11.9904 C   0  0  0  0  0  0  0  0  0  0  0  0
   13.8965   17.7995   11.8856 C   0  0  0  0  0  0  0  0  0  0  0  0
   14.4404   16.8371   12.7857 O   0  0  0  0  0  0  0  0  0  0  0  0
   12.3888   18.0871   12.0543 C   0  0  0  0  0  0  0  0  0  0  0  0
   14.2935   17.1293   13.6989 H   0  0  0  0  0  0  0  0  0  0  0  0
   11.5201   16.9253   11.6571 N   0  0  0  0  0  0  0  0  0  0  0  0
   10.2197   16.6287   12.0572 C   0  0  0  0  0  0  0  0  0  0  0  0
    9.7054   15.5321   11.5337 N   0  0  0  0  0  0  0  0  0  0  0  0
   10.7159   15.0441   10.7189 C   0  0  0  0  0  0  0  0  0  0  0  0
   10.8077   13.8845    9.8622 C   0  0  0  0  0  0  0  0  0  0  0  0
    9.8130   13.0207    9.7229 N   0  0  0  0  0  0  0  0  0  0  0  0
   11.9990   13.6699    9.1517 N   0  0  0  0  0  0  0  0  0  0  0  0
   13.0532   14.5584    9.2805 C   0  0  0  0  0  0  0  0  0  0  0  0
   13.0849   15.7009   10.0707 N   0  0  0  0  0  0  0  0  0  0  0  0
   11.8736   15.8875   10.7678 C   0  0  0  0  0  0  0  0  0  0  0  0
    8.9706   13.1565   10.2141 H   0  0  0  0  0  0  0  0  0  0  0  0
    9.9161   12.2429    9.1282 H   0  0  0  0  0  0  0  0  0  0  0  0
   13.7813   20.1037    9.5859 C   0  0  0  0  0  0  0  0  0  0  0  0
   14.0416   21.4679    9.1652 O   0  0  0  0  0  0  0  0  0  0  0  0
   15.5170   22.2064    9.1188 P   0  0  0  0  0  0  0  0  0  0  0  0
   15.0963   23.5653    8.6610 O   0  0  0  0  0  0  0  0  0  0  0  0
   15.8327   22.0974   10.5723 O   0  0  0  0  0  0  0  0  0  0  0  0
   16.1946   21.2996    8.1932 O   0  0  0  0  0  0  0  0  0  0  0  0
   16.7003   22.4952   10.7454 H   0  0  0  0  0  0  0  0  0  0  0  0
   17.1055   21.6019    8.0531 H   0  0  0  0  0  0  0  0  0  0  0  0
   14.4867   19.7060   13.3779 O   0  0  0  0  0  0  0  0  0  0  0  0
   15.7560   20.0201   14.3263 P   0  0  0  0  0  0  0  0  0  0  0  0
   16.4692   21.0151   13.4639 O   0  0  0  0  0  0  0  0  0  0  0  0
   16.3310   18.6339   14.3245 O   0  0  0  0  0  0  0  0  0  0  0  0
   15.0078   20.5200   15.4976 O   0  0  0  0  0  0  0  0  0  0  0  0
   17.1361   18.6171   14.8652 H   0  0  0  0  0  0  0  0  0  0  0  0
   15.6315   20.7672   16.1982 H   0  0  0  0  0  0  0  0  0  0  0  0
 29 30  2  0  0  0
 29 31  1  0  0  0
 29 32  1  0  0  0
 29 28  1  0  0  0
 22 23  2  0  0  0
 22 24  1  0  0  0
 22 25  1  0  0  0
 22 21  1  0  0  0
 21 20  1  0  0  0
 20  1  1  0  0  0
  1  2  1  0  0  0
  1  3  1  0  0  0
  2  6  1  0  0  0
  3 28  1  0  0  0
  3  4  1  0  0  0
  4  5  1  0  0  0
  4  6  1  0  0  0
  6  8  1  0  0  0
  8  9  1  0  0  0
  8 17  1  0  0  0
  9 10  2  0  0  0
 10 11  1  0  0  0
 11 12  1  0  0  0
 11 17  2  0  0  0
 12 13  1  0  0  0
 12 14  2  0  0  0
 14 15  1  0  0  0
 15 16  2  0  0  0
 16 17  1  0  0  0
 31 33  1  0  0  0
 32 34  1  0  0  0
 24 26  1  0  0  0
 25 27  1  0  0  0
  5  7  1  0  0  0
 13 18  1  0  0  0
 13 19  1  0  0  0
M  END
> <minimizedAffinity>
-6.63797

$$$$
1HI4_A3P_A_301


 34 36  0  0  0  0  0  0  0  0999 V2000
   13.5836   14.6037   10.9915 C   0  0  0  0  0  0  0  0  0  0  0  0
   13.8350   15.6902   11.9626 O   0  0  0  0  0  0  0  0  0  0  0  0
   12.1804   14.9315   10.3823 C   0  0  0  0  0  0  0  0  0  0  0  0
   12.1336   16.4331   10.5177 C   0  0  0  0  0  0  0  0  0  0  0  0
   10.8689   17.0494   10.2873 O   0  0  0  0  0  0  0  0  0  0  0  0
   12.6997   16.5953   11.9452 C   0  0  0  0  0  0  0  0  0  0  0  0
   10.2164   16.6906   10.9088 H   0  0  0  0  0  0  0  0  0  0  0  0
   13.1036   18.0092   12.2608 N   0  0  0  0  0  0  0  0  0  0  0  0
   14.3780   18.5698   12.2860 C   0  0  0  0  0  0  0  0  0  0  0  0
   14.4238   19.8516   12.5957 N   0  0  0  0  0  0  0  0  0  0  0  0
   13.0952   20.1959   12.7940 C   0  0  0  0  0  0  0  0  0  0  0  0
   12.4491   21.4382   13.1497 C   0  0  0  0  0  0  0  0  0  0  0  0
   13.1249   22.5575   13.3628 N   0  0  0  0  0  0  0  0  0  0  0  0
   11.0510   21.4543   13.2724 N   0  0  0  0  0  0  0  0  0  0  0  0
   10.3222   20.2970   13.0548 C   0  0  0  0  0  0  0  0  0  0  0  0
   10.8277   19.0489   12.7123 N   0  0  0  0  0  0  0  0  0  0  0  0
   12.2326   19.0687   12.5953 C   0  0  0  0  0  0  0  0  0  0  0  0
   14.1059   22.5634   13.2808 H   0  0  0  0  0  0  0  0  0  0  0  0
   12.6460   23.3835   13.6030 H   0  0  0  0  0  0  0  0  0  0  0  0
   14.7856   14.6179    9.9862 C   0  0  0  0  0  0  0  0  0  0  0  0
   14.5983   13.6907    8.8857 O   0  0  0  0  0  0  0  0  0  0  0  0
   14.0994   14.0794    7.3611 P   0  0  0  0  0  0  0  0  0  0  0  0
   15.1022   13.3036    6.5700 O   0  0  0  0  0  0  0  0  0  0  0  0
   12.7427   13.4650    7.4399 O   0  0  0  0  0  0  0  0  0  0  0  0
   14.2067   15.5348    7.4524 O   0  0  0  0  0  0  0  0  0  0  0  0
   12.2782   13.5981    6.5988 H   0  0  0  0  0  0  0  0  0  0  0  0
   13.9401   15.9323    6.6086 H   0  0  0  0  0  0  0  0  0  0  0  0
   11.0947   14.2481   11.1152 O   0  0  0  0  0  0  0  0  0  0  0  0
    9.7103   13.6249   10.5636 P   0  0  0  0  0  0  0  0  0  0  0  0
    8.8527   14.8518   10.6048 O   0  0  0  0  0  0  0  0  0  0  0  0
    9.4937   12.6472   11.6812 O   0  0  0  0  0  0  0  0  0  0  0  0
   10.2099   13.1655    9.2517 O   0  0  0  0  0  0  0  0  0  0  0  0
    8.6735   12.1536   11.5246 H   0  0  0  0  0  0  0  0  0  0  0  0
    9.4868   12.7472    8.7587 H   0  0  0  0  0  0  0  0  0  0  0  0
 29 30  2  0  0  0
 29 31  1  0  0  0
 29 32  1  0  0  0
 29 28  1  0  0  0
 22 23  2  0  0  0
 22 24  1  0  0  0
 22 25  1  0  0  0
 22 21  1  0  0  0
 21 20  1  0  0  0
 20  1  1  0  0  0
  1  2  1  0  0  0
  1  3  1  0  0  0
  2  6  1  0  0  0
  3 28  1  0  0  0
  3  4  1  0  0  0
  4  5  1  0  0  0
  4  6  1  0  0  0
  6  8  1  0  0  0
  8  9  1  0  0  0
  8 17  1  0  0  0
  9 10  2  0  0  0
 10 11  1  0  0  0
 11 12  1  0  0  0
 11 17  2  0  0  0
 12 13  1  0  0  0
 12 14  2  0  0  0
 14 15  1  0  0  0
 15 16  2  0  0  0
 16 17  1  0  0  0
 31 33  1  0  0  0
 32 34  1  0  0  0
 24 26  1  0  0  0
 25 27  1  0  0  0
  5  7  1  0  0  0
 13 18  1  0  0  0
 13 19  1  0  0  0
M  END
> <minimizedAffinity>
-6.48130

$$$$
1HI4_A3P_A_301


 34 36  0  0  0  0  0  0  0  0999 V2000
   13.1247   19.8067   11.0592 C   0  0  0  0  0  0  0  0  0  0  0  0
   12.0846   18.7600   10.9632 O   0  0  0  0  0  0  0  0  0  0  0  0
   14.1516   19.2524   12.1012 C   0  0  0  0  0  0  0  0  0  0  0  0
   13.9822   17.7631   11.9323 C   0  0  0  0  0  0  0  0  0  0  0  0
   14.5952   16.9409   12.9224 O   0  0  0  0  0  0  0  0  0  0  0  0
   12.4427   17.6715   11.8548 C   0  0  0  0  0  0  0  0  0  0  0  0
   14.2392   17.1670   13.7960 H   0  0  0  0  0  0  0  0  0  0  0  0
   11.9574   16.3432   11.3430 N   0  0  0  0  0  0  0  0  0  0  0  0
   12.6694   15.1588   11.1719 C   0  0  0  0  0  0  0  0  0  0  0  0
   11.9693   14.1430   10.7038 N   0  0  0  0  0  0  0  0  0  0  0  0
   10.6927   14.6610   10.5449 C   0  0  0  0  0  0  0  0  0  0  0  0
    9.4537   14.0834   10.0778 C   0  0  0  0  0  0  0  0  0  0  0  0
    9.3583   12.8209    9.6876 N   0  0  0  0  0  0  0  0  0  0  0  0
    8.3095   14.8954   10.0386 N   0  0  0  0  0  0  0  0  0  0  0  0
    8.3836   16.2183   10.4411 C   0  0  0  0  0  0  0  0  0  0  0  0
    9.5120   16.8837   10.9043 N   0  0  0  0  0  0  0  0  0  0  0  0
   10.6410   16.0397   10.9331 C   0  0  0  0  0  0  0  0  0  0  0  0
   10.1513   12.2379    9.7089 H   0  0  0  0  0  0  0  0  0  0  0  0
    8.4944   12.4659    9.3763 H   0  0  0  0  0  0  0  0  0  0  0  0
   13.6734   20.0239    9.6075 C   0  0  0  0  0  0  0  0  0  0  0  0
   13.9194   21.4232    9.3119 O   0  0  0  0  0  0  0  0  0  0  0  0
   15.3910   22.1707    9.3014 P   0  0  0  0  0  0  0  0  0  0  0  0
   16.1038   21.2944    8.3231 O   0  0  0  0  0  0  0  0  0  0  0  0
   14.9360   23.4841    8.7608 O   0  0  0  0  0  0  0  0  0  0  0  0
   15.7011   22.0790   10.7274 O   0  0  0  0  0  0  0  0  0  0  0  0
   15.6960   24.0816    8.6809 H   0  0  0  0  0  0  0  0  0  0  0  0
   16.5646   22.4869   10.8974 H   0  0  0  0  0  0  0  0  0  0  0  0
   13.8468   19.7202   13.4691 O   0  0  0  0  0  0  0  0  0  0  0  0
   14.8327   20.3244   14.5969 P   0  0  0  0  0  0  0  0  0  0  0  0
   15.6124   21.2862   13.7545 O   0  0  0  0  0  0  0  0  0  0  0  0
   15.5351   19.0408   14.9302 O   0  0  0  0  0  0  0  0  0  0  0  0
   13.7942   20.8665   15.4966 O   0  0  0  0  0  0  0  0  0  0  0  0
   16.1967   19.2040   15.6205 H   0  0  0  0  0  0  0  0  0  0  0  0
   14.2167   21.2852   16.2628 H   0  0  0  0  0  0  0  0  0  0  0  0
 29 30  2  0  0  0
 29 31  1  0  0  0
 29 32  1  0  0  0
 29 28  1  0  0  0
 22 23  2  0  0  0
 22 24  1  0  0  0
 22 25  1  0  0  0
 22 21  1  0  0  0
 21 20  1  0  0  0
 20  1  1  0  0  0
  1  2  1  0  0  0
  1  3  1  0  0  0
  2  6  1  0  0  0
  3 28  1  0  0  0
  3  4  1  0  0  0
  4  5  1  0  0  0
  4  6  1  0  0  0
  6  8  1  0  0  0
  8  9  1  0  0  0
  8 17  1  0  0  0
  9 10  2  0  0  0
 10 11  1  0  0  0
 11 12  1  0  0  0
 11 17  2  0  0  0
 12 13  1  0  0  0
 12 14  2  0  0  0
 14 15  1  0  0  0
 15 16  2  0  0  0
 16 17  1  0  0  0
 31 33  1  0  0  0
 32 34  1  0  0  0
 24 26  1  0  0  0
 25 27  1  0  0  0
  5  7  1  0  0  0
 13 18  1  0  0  0
 13 19  1  0  0  0
M  END
> <minimizedAffinity>
-6.32369

$$$$
