1GX8_RTL_A_1163


 22 22  0  0  0  0  0  0  0  0999 V2000
   10.4562   -1.8324   57.1394 C   0  0  0  0  0  0  0  0  0  0  0  0
    9.4023   -1.0393   57.2328 C   0  0  0  0  0  0  0  0  0  0  0  0
   12.6539   -1.7571   58.4992 C   0  0  0  0  0  0  0  0  0  0  0  0
   14.1489   -2.0877   58.2604 C   0  0  0  0  0  0  0  0  0  0  0  0
   14.7678   -1.3350   57.1164 C   0  0  0  0  0  0  0  0  0  0  0  0
   14.0751   -1.7529   55.8352 C   0  0  0  0  0  0  0  0  0  0  0  0
   12.5773   -1.7042   55.9765 C   0  0  0  0  0  0  0  0  0  0  0  0
   11.9094   -1.5754   57.1585 C   0  0  0  0  0  0  0  0  0  0  0  0
   12.0856   -2.9782   59.2643 C   0  0  0  0  0  0  0  0  0  0  0  0
   12.5291   -0.5291   59.4085 C   0  0  0  0  0  0  0  0  0  0  0  0
   11.9093   -2.0906   54.6709 C   0  0  0  0  0  0  0  0  0  0  0  0
    7.9716   -1.2487   57.2322 C   0  0  0  0  0  0  0  0  0  0  0  0
    7.1901   -0.1605   57.3831 C   0  0  0  0  0  0  0  0  0  0  0  0
    7.4288   -2.6544   57.0187 C   0  0  0  0  0  0  0  0  0  0  0  0
    5.7441   -0.1290   57.4276 C   0  0  0  0  0  0  0  0  0  0  0  0
    4.9719   -0.5571   58.4401 C   0  0  0  0  0  0  0  0  0  0  0  0
    3.5128   -0.4870   58.4790 C   0  0  0  0  0  0  0  0  0  0  0  0
    2.9781    0.2326   59.4751 C   0  0  0  0  0  0  0  0  0  0  0  0
    2.7427   -1.2247   57.4322 C   0  0  0  0  0  0  0  0  0  0  0  0
    1.5443    0.5103   59.7489 C   0  0  0  0  0  0  0  0  0  0  0  0
    0.9584   -0.5317   60.3302 O   0  0  0  0  0  0  0  0  0  0  0  0
    1.0087   -1.3009   59.7414 H   0  0  0  0  0  0  0  0  0  0  0  0
  3  4  1  0  0  0
  3  8  1  0  0  0
  3  9  1  0  0  0
  3 10  1  0  0  0
  4  5  1  0  0  0
  5  6  1  0  0  0
  6  7  1  0  0  0
  7  8  2  0  0  0
  7 11  1  0  0  0
  8  1  1  0  0  0
  1  2  2  0  0  0
  2 12  1  0  0  0
 12 13  2  0  0  0
 12 14  1  0  0  0
 13 15  1  0  0  0
 15 16  2  0  0  0
 16 17  1  0  0  0
 17 18  2  0  0  0
 17 19  1  0  0  0
 18 20  1  0  0  0
 20 21  1  0  0  0
 21 22  1  0  0  0
M  END
> <minimizedAffinity>
-7.97099

$$$$
1GX8_RTL_A_1163


 22 22  0  0  0  0  0  0  0  0999 V2000
    8.9716   -1.1857   56.9478 C   0  0  0  0  0  0  0  0  0  0  0  0
    7.8120   -1.7647   57.2094 C   0  0  0  0  0  0  0  0  0  0  0  0
   10.7990   -1.9665   55.2938 C   0  0  0  0  0  0  0  0  0  0  0  0
   12.3430   -1.8872   55.1872 C   0  0  0  0  0  0  0  0  0  0  0  0
   13.0697   -2.4876   56.3575 C   0  0  0  0  0  0  0  0  0  0  0  0
   12.7311   -1.6847   57.5970 C   0  0  0  0  0  0  0  0  0  0  0  0
   11.2467   -1.4727   57.7287 C   0  0  0  0  0  0  0  0  0  0  0  0
   10.3341   -1.7158   56.7449 C   0  0  0  0  0  0  0  0  0  0  0  0
   10.2701   -0.8473   54.3628 C   0  0  0  0  0  0  0  0  0  0  0  0
   10.3058   -3.3105   54.7456 C   0  0  0  0  0  0  0  0  0  0  0  0
   10.9323   -0.6996   58.9950 C   0  0  0  0  0  0  0  0  0  0  0  0
    6.4604   -1.2883   57.4012 C   0  0  0  0  0  0  0  0  0  0  0  0
    6.3028    0.0225   57.6748 C   0  0  0  0  0  0  0  0  0  0  0  0
    5.3019   -2.2623   57.2418 C   0  0  0  0  0  0  0  0  0  0  0  0
    5.0557    0.7154   57.9172 C   0  0  0  0  0  0  0  0  0  0  0  0
    4.8492    1.6829   58.8260 C   0  0  0  0  0  0  0  0  0  0  0  0
    3.5891    2.3932   59.0336 C   0  0  0  0  0  0  0  0  0  0  0  0
    2.6516    1.7474   59.7406 C   0  0  0  0  0  0  0  0  0  0  0  0
    3.4403    3.7552   58.4371 C   0  0  0  0  0  0  0  0  0  0  0  0
    1.3014    2.2236   60.1380 C   0  0  0  0  0  0  0  0  0  0  0  0
    1.3375    2.8294   61.3206 O   0  0  0  0  0  0  0  0  0  0  0  0
    1.6464    2.2042   61.9948 H   0  0  0  0  0  0  0  0  0  0  0  0
  3  4  1  0  0  0
  3  8  1  0  0  0
  3  9  1  0  0  0
  3 10  1  0  0  0
  4  5  1  0  0  0
  5  6  1  0  0  0
  6  7  1  0  0  0
  7  8  2  0  0  0
  7 11  1  0  0  0
  8  1  1  0  0  0
  1  2  2  0  0  0
  2 12  1  0  0  0
 12 13  2  0  0  0
 12 14  1  0  0  0
 13 15  1  0  0  0
 15 16  2  0  0  0
 16 17  1  0  0  0
 17 18  2  0  0  0
 17 19  1  0  0  0
 18 20  1  0  0  0
 20 21  1  0  0  0
 21 22  1  0  0  0
M  END
> <minimizedAffinity>
-7.81263

$$$$
1GX8_RTL_A_1163


 22 22  0  0  0  0  0  0  0  0999 V2000
    9.8492   -1.6630   57.2887 C   0  0  0  0  0  0  0  0  0  0  0  0
    9.1165   -0.6144   56.9542 C   0  0  0  0  0  0  0  0  0  0  0  0
   12.0214   -2.3229   56.0512 C   0  0  0  0  0  0  0  0  0  0  0  0
   13.5143   -1.9084   56.0783 C   0  0  0  0  0  0  0  0  0  0  0  0
   14.1689   -2.0631   57.4221 C   0  0  0  0  0  0  0  0  0  0  0  0
   13.4935   -1.1205   58.3973 C   0  0  0  0  0  0  0  0  0  0  0  0
   11.9944   -1.2392   58.3311 C   0  0  0  0  0  0  0  0  0  0  0  0
   11.3064   -1.8898   57.3497 C   0  0  0  0  0  0  0  0  0  0  0  0
   11.4160   -1.5792   54.8348 C   0  0  0  0  0  0  0  0  0  0  0  0
   11.9019   -3.8291   55.7923 C   0  0  0  0  0  0  0  0  0  0  0  0
   11.3446   -0.3136   59.3416 C   0  0  0  0  0  0  0  0  0  0  0  0
    7.6969   -0.3463   56.8935 C   0  0  0  0  0  0  0  0  0  0  0  0
    6.8744   -1.2545   57.4559 C   0  0  0  0  0  0  0  0  0  0  0  0
    7.2139    0.9462   56.2512 C   0  0  0  0  0  0  0  0  0  0  0  0
    5.4289   -1.2053   57.5033 C   0  0  0  0  0  0  0  0  0  0  0  0
    4.6861   -0.6008   58.4453 C   0  0  0  0  0  0  0  0  0  0  0  0
    3.2262   -0.5351   58.4581 C   0  0  0  0  0  0  0  0  0  0  0  0
    2.6689    0.1142   59.4894 C   0  0  0  0  0  0  0  0  0  0  0  0
    2.4802   -1.2004   57.3473 C   0  0  0  0  0  0  0  0  0  0  0  0
    1.2290    0.3710   59.7511 C   0  0  0  0  0  0  0  0  0  0  0  0
    0.6866   -0.6200   60.4515 O   0  0  0  0  0  0  0  0  0  0  0  0
    0.7583   -1.4472   59.9500 H   0  0  0  0  0  0  0  0  0  0  0  0
  3  4  1  0  0  0
  3  8  1  0  0  0
  3  9  1  0  0  0
  3 10  1  0  0  0
  4  5  1  0  0  0
  5  6  1  0  0  0
  6  7  1  0  0  0
  7  8  2  0  0  0
  7 11  1  0  0  0
  8  1  1  0  0  0
  1  2  2  0  0  0
  2 12  1  0  0  0
 12 13  2  0  0  0
 12 14  1  0  0  0
 13 15  1  0  0  0
 15 16  2  0  0  0
 16 17  1  0  0  0
 17 18  2  0  0  0
 17 19  1  0  0  0
 18 20  1  0  0  0
 20 21  1  0  0  0
 21 22  1  0  0  0
M  END
> <minimizedAffinity>
-7.75749

$$$$
1GX8_RTL_A_1163


 22 22  0  0  0  0  0  0  0  0999 V2000
    6.9088    1.4648   56.9490 C   0  0  0  0  0  0  0  0  0  0  0  0
    7.0787    0.1564   56.8603 C   0  0  0  0  0  0  0  0  0  0  0  0
    4.6211    2.5368   57.4987 C   0  0  0  0  0  0  0  0  0  0  0  0
    3.9248    3.9033   57.2768 C   0  0  0  0  0  0  0  0  0  0  0  0
    3.8332    4.3175   55.8352 C   0  0  0  0  0  0  0  0  0  0  0  0
    5.2375    4.5137   55.3012 C   0  0  0  0  0  0  0  0  0  0  0  0
    6.1245    3.3453   55.6388 C   0  0  0  0  0  0  0  0  0  0  0  0
    5.8147    2.3643   56.5341 C   0  0  0  0  0  0  0  0  0  0  0  0
    5.1198    2.5689   58.9648 C   0  0  0  0  0  0  0  0  0  0  0  0
    3.5978    1.4023   57.3716 C   0  0  0  0  0  0  0  0  0  0  0  0
    7.5121    3.5495   55.0619 C   0  0  0  0  0  0  0  0  0  0  0  0
    8.1213   -0.7609   57.2628 C   0  0  0  0  0  0  0  0  0  0  0  0
    9.2245   -0.2297   57.8272 C   0  0  0  0  0  0  0  0  0  0  0  0
    7.9056   -2.2558   57.0755 C   0  0  0  0  0  0  0  0  0  0  0  0
   10.3933   -0.9456   58.2913 C   0  0  0  0  0  0  0  0  0  0  0  0
   11.4286   -1.3486   57.5361 C   0  0  0  0  0  0  0  0  0  0  0  0
   12.6159   -2.0430   58.0300 C   0  0  0  0  0  0  0  0  0  0  0  0
   13.7317   -1.3091   58.1397 C   0  0  0  0  0  0  0  0  0  0  0  0
   12.4994   -3.4973   58.3533 C   0  0  0  0  0  0  0  0  0  0  0  0
   15.0676   -1.7262   58.6392 C   0  0  0  0  0  0  0  0  0  0  0  0
   15.3646   -1.1112   59.7794 O   0  0  0  0  0  0  0  0  0  0  0  0
   15.3838   -0.1524   59.6341 H   0  0  0  0  0  0  0  0  0  0  0  0
  3  4  1  0  0  0
  3  8  1  0  0  0
  3  9  1  0  0  0
  3 10  1  0  0  0
  4  5  1  0  0  0
  5  6  1  0  0  0
  6  7  1  0  0  0
  7  8  2  0  0  0
  7 11  1  0  0  0
  8  1  1  0  0  0
  1  2  2  0  0  0
  2 12  1  0  0  0
 12 13  2  0  0  0
 12 14  1  0  0  0
 13 15  1  0  0  0
 15 16  2  0  0  0
 16 17  1  0  0  0
 17 18  2  0  0  0
 17 19  1  0  0  0
 18 20  1  0  0  0
 20 21  1  0  0  0
 21 22  1  0  0  0
M  END
> <minimizedAffinity>
-7.73633

$$$$
1GX8_RTL_A_1163


 22 22  0  0  0  0  0  0  0  0999 V2000
    9.8918   -0.7903   57.7191 C   0  0  0  0  0  0  0  0  0  0  0  0
    8.6332   -1.1842   57.6231 C   0  0  0  0  0  0  0  0  0  0  0  0
   11.8439   -2.2107   56.7936 C   0  0  0  0  0  0  0  0  0  0  0  0
   13.3672   -2.3469   57.0435 C   0  0  0  0  0  0  0  0  0  0  0  0
   13.7279   -2.6790   58.4640 C   0  0  0  0  0  0  0  0  0  0  0  0
   13.2971   -1.5285   59.3510 C   0  0  0  0  0  0  0  0  0  0  0  0
   11.8779   -1.1147   59.0675 C   0  0  0  0  0  0  0  0  0  0  0  0
   11.1512   -1.5128   57.9844 C   0  0  0  0  0  0  0  0  0  0  0  0
   11.7183   -1.3408   55.5182 C   0  0  0  0  0  0  0  0  0  0  0  0
   11.2393   -3.5863   56.4897 C   0  0  0  0  0  0  0  0  0  0  0  0
   11.4598    0.0119   59.9927 C   0  0  0  0  0  0  0  0  0  0  0  0
    7.3790   -0.5171   57.3532 C   0  0  0  0  0  0  0  0  0  0  0  0
    6.3073   -0.9069   58.0723 C   0  0  0  0  0  0  0  0  0  0  0  0
    7.3422    0.6026   56.3231 C   0  0  0  0  0  0  0  0  0  0  0  0
    4.9575   -0.3960   57.9661 C   0  0  0  0  0  0  0  0  0  0  0  0
    3.8288   -1.1236   58.0015 C   0  0  0  0  0  0  0  0  0  0  0  0
    2.4726   -0.5847   57.9245 C   0  0  0  0  0  0  0  0  0  0  0  0
    1.9212   -0.5335   56.7042 C   0  0  0  0  0  0  0  0  0  0  0  0
    1.8231   -0.1250   59.1894 C   0  0  0  0  0  0  0  0  0  0  0  0
    0.5607   -0.0735   56.3227 C   0  0  0  0  0  0  0  0  0  0  0  0
   -0.3260   -1.0568   56.4387 O   0  0  0  0  0  0  0  0  0  0  0  0
   -0.0788   -1.7863   55.8491 H   0  0  0  0  0  0  0  0  0  0  0  0
  3  4  1  0  0  0
  3  8  1  0  0  0
  3  9  1  0  0  0
  3 10  1  0  0  0
  4  5  1  0  0  0
  5  6  1  0  0  0
  6  7  1  0  0  0
  7  8  2  0  0  0
  7 11  1  0  0  0
  8  1  1  0  0  0
  1  2  2  0  0  0
  2 12  1  0  0  0
 12 13  2  0  0  0
 12 14  1  0  0  0
 13 15  1  0  0  0
 15 16  2  0  0  0
 16 17  1  0  0  0
 17 18  2  0  0  0
 17 19  1  0  0  0
 18 20  1  0  0  0
 20 21  1  0  0  0
 21 22  1  0  0  0
M  END
> <minimizedAffinity>
-7.57971

$$$$
1GX8_RTL_A_1163


 22 22  0  0  0  0  0  0  0  0999 V2000
   10.6407   -1.0322   57.7643 C   0  0  0  0  0  0  0  0  0  0  0  0
    9.5343   -1.7205   57.5391 C   0  0  0  0  0  0  0  0  0  0  0  0
   12.8871   -2.0657   57.0094 C   0  0  0  0  0  0  0  0  0  0  0  0
   14.3935   -1.8402   57.2945 C   0  0  0  0  0  0  0  0  0  0  0  0
   14.7665   -1.9551   58.7457 C   0  0  0  0  0  0  0  0  0  0  0  0
   14.0640   -0.8524   59.5114 C   0  0  0  0  0  0  0  0  0  0  0  0
   12.5999   -0.7884   59.1678 C   0  0  0  0  0  0  0  0  0  0  0  0
   12.0167   -1.4328   58.1169 C   0  0  0  0  0  0  0  0  0  0  0  0
   12.6212   -1.3637   55.6546 C   0  0  0  0  0  0  0  0  0  0  0  0
   12.6077   -3.5624   56.8297 C   0  0  0  0  0  0  0  0  0  0  0  0
   11.9136    0.2975   59.9741 C   0  0  0  0  0  0  0  0  0  0  0  0
    8.1777   -1.3719   57.1803 C   0  0  0  0  0  0  0  0  0  0  0  0
    7.9399   -0.0873   56.8474 C   0  0  0  0  0  0  0  0  0  0  0  0
    7.1157   -2.4616   57.1518 C   0  0  0  0  0  0  0  0  0  0  0  0
    6.6681    0.4911   56.4705 C   0  0  0  0  0  0  0  0  0  0  0  0
    6.4093    1.1717   55.3415 C   0  0  0  0  0  0  0  0  0  0  0  0
    5.1087    1.7209   54.9643 C   0  0  0  0  0  0  0  0  0  0  0  0
    5.1136    2.9520   54.4351 C   0  0  0  0  0  0  0  0  0  0  0  0
    3.8928    0.8873   55.2092 C   0  0  0  0  0  0  0  0  0  0  0  0
    3.9636    3.7465   53.9309 C   0  0  0  0  0  0  0  0  0  0  0  0
    3.4266    4.4786   54.9017 O   0  0  0  0  0  0  0  0  0  0  0  0
    3.1033    3.8950   55.6057 H   0  0  0  0  0  0  0  0  0  0  0  0
  3  4  1  0  0  0
  3  8  1  0  0  0
  3  9  1  0  0  0
  3 10  1  0  0  0
  4  5  1  0  0  0
  5  6  1  0  0  0
  6  7  1  0  0  0
  7  8  2  0  0  0
  7 11  1  0  0  0
  8  1  1  0  0  0
  1  2  2  0  0  0
  2 12  1  0  0  0
 12 13  2  0  0  0
 12 14  1  0  0  0
 13 15  1  0  0  0
 15 16  2  0  0  0
 16 17  1  0  0  0
 17 18  2  0  0  0
 17 19  1  0  0  0
 18 20  1  0  0  0
 20 21  1  0  0  0
 21 22  1  0  0  0
M  END
> <minimizedAffinity>
-7.36882

$$$$
1GX8_RTL_A_1163


 22 22  0  0  0  0  0  0  0  0999 V2000
    5.9652   -0.2894   57.3884 C   0  0  0  0  0  0  0  0  0  0  0  0
    7.1203   -0.4781   58.0037 C   0  0  0  0  0  0  0  0  0  0  0  0
    3.9012    1.2224   57.7617 C   0  0  0  0  0  0  0  0  0  0  0  0
    2.3601    1.0784   57.6880 C   0  0  0  0  0  0  0  0  0  0  0  0
    1.8016    0.0043   58.5783 C   0  0  0  0  0  0  0  0  0  0  0  0
    2.3328   -1.3344   58.1078 C   0  0  0  0  0  0  0  0  0  0  0  0
    3.8242   -1.2967   57.9072 C   0  0  0  0  0  0  0  0  0  0  0  0
    4.5783   -0.1608   57.8764 C   0  0  0  0  0  0  0  0  0  0  0  0
    4.3086    1.9077   56.4337 C   0  0  0  0  0  0  0  0  0  0  0  0
    4.2841    2.1582   58.9140 C   0  0  0  0  0  0  0  0  0  0  0  0
    4.3348   -2.6571   57.4728 C   0  0  0  0  0  0  0  0  0  0  0  0
    8.4943   -0.5958   57.5689 C   0  0  0  0  0  0  0  0  0  0  0  0
    9.4358   -0.7077   58.5274 C   0  0  0  0  0  0  0  0  0  0  0  0
    8.7989   -0.6336   56.0783 C   0  0  0  0  0  0  0  0  0  0  0  0
   10.8650   -0.8221   58.3319 C   0  0  0  0  0  0  0  0  0  0  0  0
   11.4988   -1.8006   57.6644 C   0  0  0  0  0  0  0  0  0  0  0  0
   12.9422   -1.8810   57.4506 C   0  0  0  0  0  0  0  0  0  0  0  0
   13.7153   -1.6683   58.5243 C   0  0  0  0  0  0  0  0  0  0  0  0
   13.4360   -2.1729   56.0707 C   0  0  0  0  0  0  0  0  0  0  0  0
   15.1972   -1.7181   58.6212 C   0  0  0  0  0  0  0  0  0  0  0  0
   15.6219   -1.1469   59.7437 O   0  0  0  0  0  0  0  0  0  0  0  0
   15.3509   -0.2156   59.7552 H   0  0  0  0  0  0  0  0  0  0  0  0
  3  4  1  0  0  0
  3  8  1  0  0  0
  3  9  1  0  0  0
  3 10  1  0  0  0
  4  5  1  0  0  0
  5  6  1  0  0  0
  6  7  1  0  0  0
  7  8  2  0  0  0
  7 11  1  0  0  0
  8  1  1  0  0  0
  1  2  2  0  0  0
  2 12  1  0  0  0
 12 13  2  0  0  0
 12 14  1  0  0  0
 13 15  1  0  0  0
 15 16  2  0  0  0
 16 17  1  0  0  0
 17 18  2  0  0  0
 17 19  1  0  0  0
 18 20  1  0  0  0
 20 21  1  0  0  0
 21 22  1  0  0  0
M  END
> <minimizedAffinity>
-7.35465

$$$$
1GX8_RTL_A_1163


 22 22  0  0  0  0  0  0  0  0999 V2000
   10.1082   -0.6664   57.7784 C   0  0  0  0  0  0  0  0  0  0  0  0
    8.8376   -1.0265   57.7141 C   0  0  0  0  0  0  0  0  0  0  0  0
   11.9863   -2.1901   56.8641 C   0  0  0  0  0  0  0  0  0  0  0  0
   13.5111   -2.3652   57.0772 C   0  0  0  0  0  0  0  0  0  0  0  0
   13.9029   -2.6454   58.5006 C   0  0  0  0  0  0  0  0  0  0  0  0
   13.5350   -1.4430   59.3460 C   0  0  0  0  0  0  0  0  0  0  0  0
   12.1219   -0.9957   59.0840 C   0  0  0  0  0  0  0  0  0  0  0  0
   11.3514   -1.4175   58.0408 C   0  0  0  0  0  0  0  0  0  0  0  0
   11.8507   -1.3742   55.5545 C   0  0  0  0  0  0  0  0  0  0  0  0
   11.3297   -3.5572   56.6401 C   0  0  0  0  0  0  0  0  0  0  0  0
   11.7672    0.1842   59.9683 C   0  0  0  0  0  0  0  0  0  0  0  0
    7.5980   -0.3311   57.4483 C   0  0  0  0  0  0  0  0  0  0  0  0
    6.6279   -0.4246   58.3799 C   0  0  0  0  0  0  0  0  0  0  0  0
    7.4697    0.4943   56.1761 C   0  0  0  0  0  0  0  0  0  0  0  0
    5.3099    0.1703   58.3240 C   0  0  0  0  0  0  0  0  0  0  0  0
    4.9702    1.3900   58.7732 C   0  0  0  0  0  0  0  0  0  0  0  0
    3.6391    1.9856   58.6785 C   0  0  0  0  0  0  0  0  0  0  0  0
    2.7140    1.5122   59.5245 C   0  0  0  0  0  0  0  0  0  0  0  0
    3.4125    3.0471   57.6513 C   0  0  0  0  0  0  0  0  0  0  0  0
    1.3004    1.9418   59.6839 C   0  0  0  0  0  0  0  0  0  0  0  0
    1.1784    2.8279   60.6670 O   0  0  0  0  0  0  0  0  0  0  0  0
    1.4667    2.4265   61.5017 H   0  0  0  0  0  0  0  0  0  0  0  0
  3  4  1  0  0  0
  3  8  1  0  0  0
  3  9  1  0  0  0
  3 10  1  0  0  0
  4  5  1  0  0  0
  5  6  1  0  0  0
  6  7  1  0  0  0
  7  8  2  0  0  0
  7 11  1  0  0  0
  8  1  1  0  0  0
  1  2  2  0  0  0
  2 12  1  0  0  0
 12 13  2  0  0  0
 12 14  1  0  0  0
 13 15  1  0  0  0
 15 16  2  0  0  0
 16 17  1  0  0  0
 17 18  2  0  0  0
 17 19  1  0  0  0
 18 20  1  0  0  0
 20 21  1  0  0  0
 21 22  1  0  0  0
M  END
> <minimizedAffinity>
-7.34077

$$$$
1GX8_RTL_A_1163


 22 22  0  0  0  0  0  0  0  0999 V2000
    7.1583    1.7665   56.7875 C   0  0  0  0  0  0  0  0  0  0  0  0
    7.1098    0.4484   56.8817 C   0  0  0  0  0  0  0  0  0  0  0  0
    5.9481    3.0231   54.8793 C   0  0  0  0  0  0  0  0  0  0  0  0
    4.5255    3.5727   54.6050 C   0  0  0  0  0  0  0  0  0  0  0  0
    4.0392    4.5550   55.6330 C   0  0  0  0  0  0  0  0  0  0  0  0
    3.9220    3.8398   56.9636 C   0  0  0  0  0  0  0  0  0  0  0  0
    5.1666    3.0545   57.2795 C   0  0  0  0  0  0  0  0  0  0  0  0
    6.1627    2.7807   56.3893 C   0  0  0  0  0  0  0  0  0  0  0  0
    6.0207    1.6820   54.1076 C   0  0  0  0  0  0  0  0  0  0  0  0
    6.9974    3.9690   54.2839 C   0  0  0  0  0  0  0  0  0  0  0  0
    5.0382    2.3795   58.6315 C   0  0  0  0  0  0  0  0  0  0  0  0
    8.0505   -0.5758   57.2776 C   0  0  0  0  0  0  0  0  0  0  0  0
    9.2448   -0.1654   57.7499 C   0  0  0  0  0  0  0  0  0  0  0  0
    7.6360   -2.0374   57.1869 C   0  0  0  0  0  0  0  0  0  0  0  0
   10.3397   -1.0035   58.1889 C   0  0  0  0  0  0  0  0  0  0  0  0
   11.4511   -1.2877   57.4897 C   0  0  0  0  0  0  0  0  0  0  0  0
   12.5611   -2.1113   57.9641 C   0  0  0  0  0  0  0  0  0  0  0  0
   13.6604   -1.4562   58.3617 C   0  0  0  0  0  0  0  0  0  0  0  0
   12.3930   -3.5961   57.9535 C   0  0  0  0  0  0  0  0  0  0  0  0
   14.9195   -2.0153   58.9186 C   0  0  0  0  0  0  0  0  0  0  0  0
   15.5265   -1.1334   59.7063 O   0  0  0  0  0  0  0  0  0  0  0  0
   15.7503   -0.3415   59.1928 H   0  0  0  0  0  0  0  0  0  0  0  0
  3  4  1  0  0  0
  3  8  1  0  0  0
  3  9  1  0  0  0
  3 10  1  0  0  0
  4  5  1  0  0  0
  5  6  1  0  0  0
  6  7  1  0  0  0
  7  8  2  0  0  0
  7 11  1  0  0  0
  8  1  1  0  0  0
  1  2  2  0  0  0
  2 12  1  0  0  0
 12 13  2  0  0  0
 12 14  1  0  0  0
 13 15  1  0  0  0
 15 16  2  0  0  0
 16 17  1  0  0  0
 17 18  2  0  0  0
 17 19  1  0  0  0
 18 20  1  0  0  0
 20 21  1  0  0  0
 21 22  1  0  0  0
M  END
> <minimizedAffinity>
-7.22687

$$$$
1GX8_RTL_A_1163


 22 22  0  0  0  0  0  0  0  0999 V2000
    6.2241   -0.2848   58.2778 C   0  0  0  0  0  0  0  0  0  0  0  0
    7.0832   -0.9873   57.5588 C   0  0  0  0  0  0  0  0  0  0  0  0
    4.2336    1.3105   57.8562 C   0  0  0  0  0  0  0  0  0  0  0  0
    2.8367    1.2317   57.1902 C   0  0  0  0  0  0  0  0  0  0  0  0
    1.9382    0.1778   57.7735 C   0  0  0  0  0  0  0  0  0  0  0  0
    2.5602   -1.1798   57.5172 C   0  0  0  0  0  0  0  0  0  0  0  0
    4.0134   -1.2038   57.9088 C   0  0  0  0  0  0  0  0  0  0  0  0
    4.7621   -0.1005   58.1950 C   0  0  0  0  0  0  0  0  0  0  0  0
    5.1478    1.9844   56.8029 C   0  0  0  0  0  0  0  0  0  0  0  0
    4.1754    2.2240   59.0860 C   0  0  0  0  0  0  0  0  0  0  0  0
    4.6017   -2.5823   57.6774 C   0  0  0  0  0  0  0  0  0  0  0  0
    8.5116   -1.2055   57.6126 C   0  0  0  0  0  0  0  0  0  0  0  0
    9.1856   -0.6224   58.6242 C   0  0  0  0  0  0  0  0  0  0  0  0
    9.1635   -2.1036   56.5712 C   0  0  0  0  0  0  0  0  0  0  0  0
   10.6101   -0.6882   58.8707 C   0  0  0  0  0  0  0  0  0  0  0  0
   11.2030   -1.1781   59.9721 C   0  0  0  0  0  0  0  0  0  0  0  0
   12.6456   -1.2650   60.1884 C   0  0  0  0  0  0  0  0  0  0  0  0
   13.3823   -1.6524   59.1381 C   0  0  0  0  0  0  0  0  0  0  0  0
   13.1767   -0.9365   61.5460 C   0  0  0  0  0  0  0  0  0  0  0  0
   14.8583   -1.7974   59.0470 C   0  0  0  0  0  0  0  0  0  0  0  0
   15.4725   -0.6838   59.4335 O   0  0  0  0  0  0  0  0  0  0  0  0
   15.2061    0.0492   58.8567 H   0  0  0  0  0  0  0  0  0  0  0  0
  3  4  1  0  0  0
  3  8  1  0  0  0
  3  9  1  0  0  0
  3 10  1  0  0  0
  4  5  1  0  0  0
  5  6  1  0  0  0
  6  7  1  0  0  0
  7  8  2  0  0  0
  7 11  1  0  0  0
  8  1  1  0  0  0
  1  2  2  0  0  0
  2 12  1  0  0  0
 12 13  2  0  0  0
 12 14  1  0  0  0
 13 15  1  0  0  0
 15 16  2  0  0  0
 16 17  1  0  0  0
 17 18  2  0  0  0
 17 19  1  0  0  0
 18 20  1  0  0  0
 20 21  1  0  0  0
 21 22  1  0  0  0
M  END
> <minimizedAffinity>
-7.07572

$$$$
