1ZOE_K25_A_501


 17 18  0  0  0  0  0  0  0  0999 V2000
   22.5245    8.0901   18.4685 C   0  0  0  0  0  0  0  0  0  0  0  0
   23.3464    7.0291   18.9079 C   0  0  0  0  0  0  0  0  0  0  0  0
   23.2498    6.5762   20.2305 C   0  0  0  0  0  0  0  0  0  0  0  0
   21.6355    8.7292   19.3450 C   0  0  0  0  0  0  0  0  0  0  0  0
   22.0295    6.9437   22.4091 N   0  0  0  0  0  0  0  0  0  0  0  0
   21.5028    8.2482   20.6771 C   0  0  0  0  0  0  0  0  0  0  0  0
   22.3306    7.2036   21.0806 C   0  0  0  0  0  0  0  0  0  0  0  0
   21.1197    7.8730   22.7839 C   0  0  0  0  0  0  0  0  0  0  0  0
   20.7121    8.5724   21.7073 N   0  0  0  0  0  0  0  0  0  0  0  0
   22.7794    8.7736   16.7133 Br  0  0  0  0  0  0  0  0  0  0  0  0
   24.6501    6.2283   17.7559 Br  0  0  0  0  0  0  0  0  0  0  0  0
   24.2039    5.0818   20.9368 Br  0  0  0  0  0  0  0  0  0  0  0  0
   20.3641    9.9982   18.7367 Br  0  0  0  0  0  0  0  0  0  0  0  0
   22.4036    6.2254   22.9689 H   0  0  0  0  0  0  0  0  0  0  0  0
   20.5839    7.8534   24.0732 N   0  0  0  0  0  0  0  0  0  0  0  0
   20.1013    6.6206   24.6286 C   0  0  0  0  0  0  0  0  0  0  0  0
   20.5648    9.0529   24.8647 C   0  0  0  0  0  0  0  0  0  0  0  0
  1  2  2  0  0  0
  1  4  1  0  0  0
  1 10  1  0  0  0
  2  3  1  0  0  0
  2 11  1  0  0  0
  3  7  2  0  0  0
  3 12  1  0  0  0
  4  6  2  0  0  0
  4 13  1  0  0  0
  5  7  1  0  0  0
  5  8  1  0  0  0
  6  7  1  0  0  0
  6  9  1  0  0  0
  8  9  2  0  0  0
  8 15  1  0  0  0
 15 16  1  0  0  0
 15 17  1  0  0  0
  5 14  1  0  0  0
M  END
> <minimizedAffinity>
-7.27204

$$$$
1ZOE_K25_A_501


 17 18  0  0  0  0  0  0  0  0999 V2000
   21.6849    8.5324   19.3993 C   0  0  0  0  0  0  0  0  0  0  0  0
   21.6745    7.9551   20.6881 C   0  0  0  0  0  0  0  0  0  0  0  0
   22.4946    6.8527   20.9632 C   0  0  0  0  0  0  0  0  0  0  0  0
   22.4756    7.9975   18.3719 C   0  0  0  0  0  0  0  0  0  0  0  0
   24.2050    5.3013   19.9442 N   0  0  0  0  0  0  0  0  0  0  0  0
   23.3408    6.9044   18.6549 C   0  0  0  0  0  0  0  0  0  0  0  0
   23.3037    6.3552   19.9340 C   0  0  0  0  0  0  0  0  0  0  0  0
   24.6785    5.1909   18.6811 C   0  0  0  0  0  0  0  0  0  0  0  0
   24.2543    6.2342   17.9421 N   0  0  0  0  0  0  0  0  0  0  0  0
   20.4591    9.9343   19.0188 Br  0  0  0  0  0  0  0  0  0  0  0  0
   20.5100    8.5998   22.0652 Br  0  0  0  0  0  0  0  0  0  0  0  0
   22.6785    6.0402   22.6802 Br  0  0  0  0  0  0  0  0  0  0  0  0
   22.6844    8.8765   16.7044 Br  0  0  0  0  0  0  0  0  0  0  0  0
   24.4516    4.7437   20.7172 H   0  0  0  0  0  0  0  0  0  0  0  0
   25.6458    4.2321   18.3734 N   0  0  0  0  0  0  0  0  0  0  0  0
   25.9093    3.1612   19.2927 C   0  0  0  0  0  0  0  0  0  0  0  0
   26.3387    4.2843   17.1153 C   0  0  0  0  0  0  0  0  0  0  0  0
  1  2  2  0  0  0
  1  4  1  0  0  0
  1 10  1  0  0  0
  2  3  1  0  0  0
  2 11  1  0  0  0
  3  7  2  0  0  0
  3 12  1  0  0  0
  4  6  2  0  0  0
  4 13  1  0  0  0
  5  7  1  0  0  0
  5  8  1  0  0  0
  6  7  1  0  0  0
  6  9  1  0  0  0
  8  9  2  0  0  0
  8 15  1  0  0  0
 15 16  1  0  0  0
 15 17  1  0  0  0
  5 14  1  0  0  0
M  END
> <minimizedAffinity>
-6.88507

$$$$
1ZOE_K25_A_501


 17 18  0  0  0  0  0  0  0  0999 V2000
   23.9020    6.9471   17.4809 C   0  0  0  0  0  0  0  0  0  0  0  0
   24.4694    5.7908   18.0598 C   0  0  0  0  0  0  0  0  0  0  0  0
   24.1895    5.4725   19.3955 C   0  0  0  0  0  0  0  0  0  0  0  0
   23.0898    7.8095   18.2315 C   0  0  0  0  0  0  0  0  0  0  0  0
   22.9041    6.2363   21.4289 N   0  0  0  0  0  0  0  0  0  0  0  0
   22.7684    7.4713   19.5754 C   0  0  0  0  0  0  0  0  0  0  0  0
   23.3475    6.3270   20.1180 C   0  0  0  0  0  0  0  0  0  0  0  0
   22.1647    7.3461   21.6600 C   0  0  0  0  0  0  0  0  0  0  0  0
   21.9804    8.0196   20.5081 N   0  0  0  0  0  0  0  0  0  0  0  0
   24.4134    7.4265   15.7141 Br  0  0  0  0  0  0  0  0  0  0  0  0
   25.6768    4.6704   17.0824 Br  0  0  0  0  0  0  0  0  0  0  0  0
   24.7831    3.8889   20.2797 Br  0  0  0  0  0  0  0  0  0  0  0  0
   22.1351    9.2395   17.4315 Br  0  0  0  0  0  0  0  0  0  0  0  0
   23.0903    5.5087   22.0654 H   0  0  0  0  0  0  0  0  0  0  0  0
   21.5407    7.5314   22.8954 N   0  0  0  0  0  0  0  0  0  0  0  0
   20.6881    8.6677   23.1030 C   0  0  0  0  0  0  0  0  0  0  0  0
   21.7068    6.5587   23.9404 C   0  0  0  0  0  0  0  0  0  0  0  0
  1  2  2  0  0  0
  1  4  1  0  0  0
  1 10  1  0  0  0
  2  3  1  0  0  0
  2 11  1  0  0  0
  3  7  2  0  0  0
  3 12  1  0  0  0
  4  6  2  0  0  0
  4 13  1  0  0  0
  5  7  1  0  0  0
  5  8  1  0  0  0
  6  7  1  0  0  0
  6  9  1  0  0  0
  8  9  2  0  0  0
  8 15  1  0  0  0
 15 16  1  0  0  0
 15 17  1  0  0  0
  5 14  1  0  0  0
M  END
> <minimizedAffinity>
-6.74131

$$$$
1ZOE_K25_A_501


 17 18  0  0  0  0  0  0  0  0999 V2000
   24.5031    5.7011   18.1321 C   0  0  0  0  0  0  0  0  0  0  0  0
   24.0336    6.7816   17.3533 C   0  0  0  0  0  0  0  0  0  0  0  0
   23.1454    7.7091   17.9141 C   0  0  0  0  0  0  0  0  0  0  0  0
   24.0658    5.5148   19.4515 C   0  0  0  0  0  0  0  0  0  0  0  0
   21.9043    8.2937   20.0327 N   0  0  0  0  0  0  0  0  0  0  0  0
   23.1965    6.4746   20.0403 C   0  0  0  0  0  0  0  0  0  0  0  0
   22.7482    7.5258   19.2446 C   0  0  0  0  0  0  0  0  0  0  0  0
   21.7991    7.6508   21.2191 C   0  0  0  0  0  0  0  0  0  0  0  0
   22.6757    6.6291   21.2636 N   0  0  0  0  0  0  0  0  0  0  0  0
   25.5930    4.3844   17.3007 Br  0  0  0  0  0  0  0  0  0  0  0  0
   24.5277    6.9797   15.5136 Br  0  0  0  0  0  0  0  0  0  0  0  0
   22.5178    9.2799   17.0306 Br  0  0  0  0  0  0  0  0  0  0  0  0
   24.8421    4.2137   20.5923 Br  0  0  0  0  0  0  0  0  0  0  0  0
   21.4680    9.1391   19.7794 H   0  0  0  0  0  0  0  0  0  0  0  0
   21.0376    8.2007   22.2524 N   0  0  0  0  0  0  0  0  0  0  0  0
   21.4260    7.9885   23.6182 C   0  0  0  0  0  0  0  0  0  0  0  0
   19.8984    9.0231   21.9500 C   0  0  0  0  0  0  0  0  0  0  0  0
  1  2  2  0  0  0
  1  4  1  0  0  0
  1 10  1  0  0  0
  2  3  1  0  0  0
  2 11  1  0  0  0
  3  7  2  0  0  0
  3 12  1  0  0  0
  4  6  2  0  0  0
  4 13  1  0  0  0
  5  7  1  0  0  0
  5  8  1  0  0  0
  6  7  1  0  0  0
  6  9  1  0  0  0
  8  9  2  0  0  0
  8 15  1  0  0  0
 15 16  1  0  0  0
 15 17  1  0  0  0
  5 14  1  0  0  0
M  END
> <minimizedAffinity>
-6.65216

$$$$
1ZOE_K25_A_501


 17 18  0  0  0  0  0  0  0  0999 V2000
   21.7396    7.9390   20.0866 C   0  0  0  0  0  0  0  0  0  0  0  0
   21.8751    8.4745   18.7869 C   0  0  0  0  0  0  0  0  0  0  0  0
   22.7825    7.8980   17.8881 C   0  0  0  0  0  0  0  0  0  0  0  0
   22.5274    6.8593   20.5114 C   0  0  0  0  0  0  0  0  0  0  0  0
   24.4757    6.0434   17.6355 N   0  0  0  0  0  0  0  0  0  0  0  0
   23.4208    6.2434   19.5916 C   0  0  0  0  0  0  0  0  0  0  0  0
   23.5344    6.7980   18.3193 C   0  0  0  0  0  0  0  0  0  0  0  0
   24.9556    5.1381   18.5198 C   0  0  0  0  0  0  0  0  0  0  0  0
   24.2291    5.1783   19.6534 N   0  0  0  0  0  0  0  0  0  0  0  0
   20.6060    8.8295   21.3255 Br  0  0  0  0  0  0  0  0  0  0  0  0
   20.8936   10.0235   18.2342 Br  0  0  0  0  0  0  0  0  0  0  0  0
   22.9926    8.4319   16.0679 Br  0  0  0  0  0  0  0  0  0  0  0  0
   22.2157    5.9767   22.1608 Br  0  0  0  0  0  0  0  0  0  0  0  0
   24.7422    6.1459   16.6933 H   0  0  0  0  0  0  0  0  0  0  0  0
   25.9046    4.1960   18.1176 N   0  0  0  0  0  0  0  0  0  0  0  0
   26.2808    3.1345   19.0080 C   0  0  0  0  0  0  0  0  0  0  0  0
   26.4644    4.2554   16.7952 C   0  0  0  0  0  0  0  0  0  0  0  0
  1  2  2  0  0  0
  1  4  1  0  0  0
  1 10  1  0  0  0
  2  3  1  0  0  0
  2 11  1  0  0  0
  3  7  2  0  0  0
  3 12  1  0  0  0
  4  6  2  0  0  0
  4 13  1  0  0  0
  5  7  1  0  0  0
  5  8  1  0  0  0
  6  7  1  0  0  0
  6  9  1  0  0  0
  8  9  2  0  0  0
  8 15  1  0  0  0
 15 16  1  0  0  0
 15 17  1  0  0  0
  5 14  1  0  0  0
M  END
> <minimizedAffinity>
-6.58762

$$$$
1ZOE_K25_A_501


 17 18  0  0  0  0  0  0  0  0999 V2000
   22.1002    8.4550   18.8936 C   0  0  0  0  0  0  0  0  0  0  0  0
   21.6038    8.2226   20.1950 C   0  0  0  0  0  0  0  0  0  0  0  0
   22.0493    7.1099   20.9211 C   0  0  0  0  0  0  0  0  0  0  0  0
   23.0066    7.5682   18.2944 C   0  0  0  0  0  0  0  0  0  0  0  0
   23.5875    5.1115   20.8163 N   0  0  0  0  0  0  0  0  0  0  0  0
   23.4941    6.4595   19.0405 C   0  0  0  0  0  0  0  0  0  0  0  0
   22.9817    6.2556   20.3191 C   0  0  0  0  0  0  0  0  0  0  0  0
   24.3572    4.6214   19.8166 C   0  0  0  0  0  0  0  0  0  0  0  0
   24.3977    5.5021   18.7983 N   0  0  0  0  0  0  0  0  0  0  0  0
   21.3713    9.8904   17.8831 Br  0  0  0  0  0  0  0  0  0  0  0  0
   20.2751    9.3581   20.9782 Br  0  0  0  0  0  0  0  0  0  0  0  0
   21.5632    6.7283   22.7267 Br  0  0  0  0  0  0  0  0  0  0  0  0
   23.8607    7.9654   16.6484 Br  0  0  0  0  0  0  0  0  0  0  0  0
   23.4793    4.7311   21.7178 H   0  0  0  0  0  0  0  0  0  0  0  0
   25.1343    3.4795   20.0220 N   0  0  0  0  0  0  0  0  0  0  0  0
   24.6939    2.4708   20.9439 C   0  0  0  0  0  0  0  0  0  0  0  0
   26.3454    3.2869   19.2726 C   0  0  0  0  0  0  0  0  0  0  0  0
  1  2  2  0  0  0
  1  4  1  0  0  0
  1 10  1  0  0  0
  2  3  1  0  0  0
  2 11  1  0  0  0
  3  7  2  0  0  0
  3 12  1  0  0  0
  4  6  2  0  0  0
  4 13  1  0  0  0
  5  7  1  0  0  0
  5  8  1  0  0  0
  6  7  1  0  0  0
  6  9  1  0  0  0
  8  9  2  0  0  0
  8 15  1  0  0  0
 15 16  1  0  0  0
 15 17  1  0  0  0
  5 14  1  0  0  0
M  END
> <minimizedAffinity>
-6.55306

$$$$
1ZOE_K25_A_501


 17 18  0  0  0  0  0  0  0  0999 V2000
   24.8328    5.3503   17.9973 C   0  0  0  0  0  0  0  0  0  0  0  0
   24.5816    4.8267   19.2845 C   0  0  0  0  0  0  0  0  0  0  0  0
   23.6327    5.4413   20.1125 C   0  0  0  0  0  0  0  0  0  0  0  0
   24.1757    6.5028   17.5426 C   0  0  0  0  0  0  0  0  0  0  0  0
   21.9800    7.3456   20.2261 N   0  0  0  0  0  0  0  0  0  0  0  0
   23.1820    7.1078   18.3612 C   0  0  0  0  0  0  0  0  0  0  0  0
   22.9611    6.5702   19.6266 C   0  0  0  0  0  0  0  0  0  0  0  0
   21.7107    8.3543   19.3649 C   0  0  0  0  0  0  0  0  0  0  0  0
   22.3409    8.1356   18.1946 N   0  0  0  0  0  0  0  0  0  0  0  0
   26.2242    4.5804   16.9560 Br  0  0  0  0  0  0  0  0  0  0  0  0
   25.5589    3.3263   19.9641 Br  0  0  0  0  0  0  0  0  0  0  0  0
   23.0999    4.7851   21.8235 Br  0  0  0  0  0  0  0  0  0  0  0  0
   24.3205    7.0993   15.7482 Br  0  0  0  0  0  0  0  0  0  0  0  0
   21.5620    7.1925   21.1042 H   0  0  0  0  0  0  0  0  0  0  0  0
   20.7249    9.2953   19.6693 N   0  0  0  0  0  0  0  0  0  0  0  0
   20.3110   10.2448   18.6752 C   0  0  0  0  0  0  0  0  0  0  0  0
   20.0861    9.2800   20.9566 C   0  0  0  0  0  0  0  0  0  0  0  0
  1  2  2  0  0  0
  1  4  1  0  0  0
  1 10  1  0  0  0
  2  3  1  0  0  0
  2 11  1  0  0  0
  3  7  2  0  0  0
  3 12  1  0  0  0
  4  6  2  0  0  0
  4 13  1  0  0  0
  5  7  1  0  0  0
  5  8  1  0  0  0
  6  7  1  0  0  0
  6  9  1  0  0  0
  8  9  2  0  0  0
  8 15  1  0  0  0
 15 16  1  0  0  0
 15 17  1  0  0  0
  5 14  1  0  0  0
M  END
> <minimizedAffinity>
-6.40524

$$$$
1ZOE_K25_A_501


 17 18  0  0  0  0  0  0  0  0999 V2000
   23.4454    7.3891   18.0577 C   0  0  0  0  0  0  0  0  0  0  0  0
   23.2289    7.0875   19.4203 C   0  0  0  0  0  0  0  0  0  0  0  0
   23.7140    5.8853   19.9523 C   0  0  0  0  0  0  0  0  0  0  0  0
   24.1067    6.4868   17.2119 C   0  0  0  0  0  0  0  0  0  0  0  0
   24.9900    3.7866   19.3710 N   0  0  0  0  0  0  0  0  0  0  0  0
   24.6373    5.2834   17.7541 C   0  0  0  0  0  0  0  0  0  0  0  0
   24.4029    5.0135   19.0999 C   0  0  0  0  0  0  0  0  0  0  0  0
   25.4684    3.3231   18.1928 C   0  0  0  0  0  0  0  0  0  0  0  0
   25.3680    4.2810   17.2511 N   0  0  0  0  0  0  0  0  0  0  0  0
   22.6537    8.9586   17.3348 Br  0  0  0  0  0  0  0  0  0  0  0  0
   22.2225    8.2550   20.5571 Br  0  0  0  0  0  0  0  0  0  0  0  0
   23.6043    5.3921   21.7926 Br  0  0  0  0  0  0  0  0  0  0  0  0
   24.6101    6.9526   15.4438 Br  0  0  0  0  0  0  0  0  0  0  0  0
   25.0474    3.3411   20.2470 H   0  0  0  0  0  0  0  0  0  0  0  0
   26.1574    2.1097   18.1416 N   0  0  0  0  0  0  0  0  0  0  0  0
   27.5320    2.0844   17.7279 C   0  0  0  0  0  0  0  0  0  0  0  0
   25.5099    0.8946   18.5539 C   0  0  0  0  0  0  0  0  0  0  0  0
  1  2  2  0  0  0
  1  4  1  0  0  0
  1 10  1  0  0  0
  2  3  1  0  0  0
  2 11  1  0  0  0
  3  7  2  0  0  0
  3 12  1  0  0  0
  4  6  2  0  0  0
  4 13  1  0  0  0
  5  7  1  0  0  0
  5  8  1  0  0  0
  6  7  1  0  0  0
  6  9  1  0  0  0
  8  9  2  0  0  0
  8 15  1  0  0  0
 15 16  1  0  0  0
 15 17  1  0  0  0
  5 14  1  0  0  0
M  END
> <minimizedAffinity>
-6.36412

$$$$
1ZOE_K25_A_501


 17 18  0  0  0  0  0  0  0  0999 V2000
   21.3109    8.3846   20.6191 C   0  0  0  0  0  0  0  0  0  0  0  0
   22.0150    7.3999   21.3463 C   0  0  0  0  0  0  0  0  0  0  0  0
   22.9571    6.5938   20.6934 C   0  0  0  0  0  0  0  0  0  0  0  0
   21.5087    8.5473   19.2402 C   0  0  0  0  0  0  0  0  0  0  0  0
   24.0376    6.1555   18.4549 N   0  0  0  0  0  0  0  0  0  0  0  0
   22.4925    7.7606   18.5793 C   0  0  0  0  0  0  0  0  0  0  0  0
   23.1663    6.7955   19.3234 C   0  0  0  0  0  0  0  0  0  0  0  0
   23.8049    6.6761   17.2274 C   0  0  0  0  0  0  0  0  0  0  0  0
   22.9687    7.7273   17.3288 N   0  0  0  0  0  0  0  0  0  0  0  0
   19.9410    9.3635   21.5013 Br  0  0  0  0  0  0  0  0  0  0  0  0
   21.6671    7.0857   23.2033 Br  0  0  0  0  0  0  0  0  0  0  0  0
   24.0680    5.3063   21.5597 Br  0  0  0  0  0  0  0  0  0  0  0  0
   20.7525    9.9984   18.2816 Br  0  0  0  0  0  0  0  0  0  0  0  0
   24.6951    5.4600   18.6855 H   0  0  0  0  0  0  0  0  0  0  0  0
   24.5611    6.2576   16.1306 N   0  0  0  0  0  0  0  0  0  0  0  0
   24.5789    7.0464   14.9312 C   0  0  0  0  0  0  0  0  0  0  0  0
   25.3636    5.0686   16.2193 C   0  0  0  0  0  0  0  0  0  0  0  0
  1  2  2  0  0  0
  1  4  1  0  0  0
  1 10  1  0  0  0
  2  3  1  0  0  0
  2 11  1  0  0  0
  3  7  2  0  0  0
  3 12  1  0  0  0
  4  6  2  0  0  0
  4 13  1  0  0  0
  5  7  1  0  0  0
  5  8  1  0  0  0
  6  7  1  0  0  0
  6  9  1  0  0  0
  8  9  2  0  0  0
  8 15  1  0  0  0
 15 16  1  0  0  0
 15 17  1  0  0  0
  5 14  1  0  0  0
M  END
> <minimizedAffinity>
-6.27082

$$$$
1ZOE_K25_A_501


 17 18  0  0  0  0  0  0  0  0999 V2000
   24.7537    5.1730   18.3709 C   0  0  0  0  0  0  0  0  0  0  0  0
   24.5477    4.1724   19.3460 C   0  0  0  0  0  0  0  0  0  0  0  0
   23.7260    4.4358   20.4502 C   0  0  0  0  0  0  0  0  0  0  0  0
   24.1799    6.4455   18.5058 C   0  0  0  0  0  0  0  0  0  0  0  0
   22.2786    6.2077   21.5159 N   0  0  0  0  0  0  0  0  0  0  0  0
   23.3122    6.7067   19.6023 C   0  0  0  0  0  0  0  0  0  0  0  0
   23.1334    5.7009   20.5486 C   0  0  0  0  0  0  0  0  0  0  0  0
   22.0462    7.4986   21.1821 C   0  0  0  0  0  0  0  0  0  0  0  0
   22.5648    7.7559   19.9659 N   0  0  0  0  0  0  0  0  0  0  0  0
   25.9839    4.8331   16.9624 Br  0  0  0  0  0  0  0  0  0  0  0  0
   25.4219    2.4718   19.2368 Br  0  0  0  0  0  0  0  0  0  0  0  0
   23.2586    3.1533   21.7839 Br  0  0  0  0  0  0  0  0  0  0  0  0
   24.2503    7.7313   17.1135 Br  0  0  0  0  0  0  0  0  0  0  0  0
   21.9131    5.7243   22.2917 H   0  0  0  0  0  0  0  0  0  0  0  0
   21.1812    8.2796   21.9514 N   0  0  0  0  0  0  0  0  0  0  0  0
   20.1332    9.0258   21.3141 C   0  0  0  0  0  0  0  0  0  0  0  0
   21.3040    8.2949   23.3833 C   0  0  0  0  0  0  0  0  0  0  0  0
  1  2  2  0  0  0
  1  4  1  0  0  0
  1 10  1  0  0  0
  2  3  1  0  0  0
  2 11  1  0  0  0
  3  7  2  0  0  0
  3 12  1  0  0  0
  4  6  2  0  0  0
  4 13  1  0  0  0
  5  7  1  0  0  0
  5  8  1  0  0  0
  6  7  1  0  0  0
  6  9  1  0  0  0
  8  9  2  0  0  0
  8 15  1  0  0  0
 15 16  1  0  0  0
 15 17  1  0  0  0
  5 14  1  0  0  0
M  END
> <minimizedAffinity>
-6.23643

$$$$
