4IDN_GNP_A_501


 42 44  0  0  0  0  0  0  0  0999 V2000
   26.2076    1.5189  -51.0476 C   0  0  0  0  0  0  0  0  0  0  0  0
   27.4156    0.8448  -50.6221 O   0  0  0  0  0  0  0  0  0  0  0  0
   26.5796    2.9994  -51.1501 C   0  0  0  0  0  0  0  0  0  0  0  0
   26.0645    3.6806  -49.9845 O   0  0  0  0  0  0  0  0  0  0  0  0
   28.1101    2.9759  -51.1453 C   0  0  0  0  0  0  0  0  0  0  0  0
   28.6474    4.1636  -50.5975 O   0  0  0  0  0  0  0  0  0  0  0  0
   28.3731    1.8133  -50.2026 C   0  0  0  0  0  0  0  0  0  0  0  0
   26.4016    3.2502  -49.1832 H   0  0  0  0  0  0  0  0  0  0  0  0
   28.2893    4.2995  -49.7064 H   0  0  0  0  0  0  0  0  0  0  0  0
   29.6528    1.1230  -50.3485 N   0  0  0  0  0  0  0  0  0  0  0  0
   30.2004    0.6289  -51.5104 C   0  0  0  0  0  0  0  0  0  0  0  0
   31.3349    0.0152  -51.3150 N   0  0  0  0  0  0  0  0  0  0  0  0
   31.5589    0.0912  -49.9506 C   0  0  0  0  0  0  0  0  0  0  0  0
   32.6316   -0.4149  -49.1758 C   0  0  0  0  0  0  0  0  0  0  0  0
   33.6381   -1.0518  -49.5503 O   0  0  0  0  0  0  0  0  0  0  0  0
   32.4596   -0.1213  -47.8228 N   0  0  0  0  0  0  0  0  0  0  0  0
   31.3826    0.5573  -47.2914 C   0  0  0  0  0  0  0  0  0  0  0  0
   31.3958    0.7423  -45.9520 N   0  0  0  0  0  0  0  0  0  0  0  0
   30.3742    1.0321  -48.0172 N   0  0  0  0  0  0  0  0  0  0  0  0
   30.5231    0.7633  -49.3368 C   0  0  0  0  0  0  0  0  0  0  0  0
   33.1604   -0.4212  -47.1998 H   0  0  0  0  0  0  0  0  0  0  0  0
   32.1418    0.3912  -45.4140 H   0  0  0  0  0  0  0  0  0  0  0  0
   30.6594    1.2280  -45.5149 H   0  0  0  0  0  0  0  0  0  0  0  0
   25.6491    0.8526  -52.3005 C   0  0  0  0  0  0  0  0  0  0  0  0
   24.3125    0.4161  -52.1054 O   0  0  0  0  0  0  0  0  0  0  0  0
   23.9957   -1.1160  -51.8689 P   0  0  0  0  0  0  0  0  0  0  0  0
   25.1598   -1.8945  -52.3748 O   0  0  0  0  0  0  0  0  0  0  0  0
   22.7020   -1.3537  -52.5735 O   0  0  0  0  0  0  0  0  0  0  0  0
   22.4433   -2.2828  -52.4697 H   0  0  0  0  0  0  0  0  0  0  0  0
   23.8724   -1.3728  -50.3473 O   0  0  0  0  0  0  0  0  0  0  0  0
   23.7222   -2.7647  -49.6675 P   0  0  0  0  0  0  0  0  0  0  0  0
   23.3685   -3.7576  -50.7011 O   0  0  0  0  0  0  0  0  0  0  0  0
   24.9807   -3.0068  -48.9163 O   0  0  0  0  0  0  0  0  0  0  0  0
   24.9322   -3.8685  -48.4735 H   0  0  0  0  0  0  0  0  0  0  0  0
   22.4844   -2.6543  -48.6623 N   0  0  0  0  0  0  0  0  0  0  0  0
   22.7035   -3.2860  -47.8921 H   0  0  0  0  0  0  0  0  0  0  0  0
   20.9573   -2.9582  -49.0413 P   0  0  0  0  0  0  0  0  0  0  0  0
   20.1031   -2.2898  -47.9860 O   0  0  0  0  0  0  0  0  0  0  0  0
   20.8175   -4.4563  -49.1634 O   0  0  0  0  0  0  0  0  0  0  0  0
   20.7402   -2.4066  -50.4304 O   0  0  0  0  0  0  0  0  0  0  0  0
   19.9015   -4.6779  -49.3930 H   0  0  0  0  0  0  0  0  0  0  0  0
   19.8236   -2.5689  -50.7031 H   0  0  0  0  0  0  0  0  0  0  0  0
 37 38  2  0  0  0
 37 39  1  0  0  0
 37 40  1  0  0  0
 37 35  1  0  0  0
 35 31  1  0  0  0
 31 32  2  0  0  0
 31 33  1  0  0  0
 31 30  1  0  0  0
 30 26  1  0  0  0
 26 27  2  0  0  0
 26 28  1  0  0  0
 26 25  1  0  0  0
 25 24  1  0  0  0
 24  1  1  0  0  0
  1  2  1  0  0  0
  1  3  1  0  0  0
  2  7  1  0  0  0
  3  4  1  0  0  0
  3  5  1  0  0  0
  5  6  1  0  0  0
  5  7  1  0  0  0
  7 10  1  0  0  0
 10 11  1  0  0  0
 10 20  1  0  0  0
 11 12  2  0  0  0
 12 13  1  0  0  0
 13 14  1  0  0  0
 13 20  2  0  0  0
 14 15  2  0  0  0
 14 16  1  0  0  0
 16 17  1  0  0  0
 17 18  1  0  0  0
 17 19  2  0  0  0
 19 20  1  0  0  0
 39 41  1  0  0  0
 40 42  1  0  0  0
 35 36  1  0  0  0
 33 34  1  0  0  0
 28 29  1  0  0  0
  4  8  1  0  0  0
  6  9  1  0  0  0
 16 21  1  0  0  0
 18 22  1  0  0  0
 18 23  1  0  0  0
M  END
> <minimizedAffinity>
-14.42954

$$$$
4IDN_GNP_A_501


 42 44  0  0  0  0  0  0  0  0999 V2000
   26.5412    2.0421  -51.3172 C   0  0  0  0  0  0  0  0  0  0  0  0
   27.0036    2.9570  -50.2955 O   0  0  0  0  0  0  0  0  0  0  0  0
   27.7825    1.2686  -51.7660 C   0  0  0  0  0  0  0  0  0  0  0  0
   28.2275    1.8134  -53.0282 O   0  0  0  0  0  0  0  0  0  0  0  0
   28.7936    1.5550  -50.6531 C   0  0  0  0  0  0  0  0  0  0  0  0
   30.1230    1.5076  -51.1324 O   0  0  0  0  0  0  0  0  0  0  0  0
   28.4283    2.9871  -50.2995 C   0  0  0  0  0  0  0  0  0  0  0  0
   28.3776    2.7671  -52.9338 H   0  0  0  0  0  0  0  0  0  0  0  0
   30.2220    2.1262  -51.8729 H   0  0  0  0  0  0  0  0  0  0  0  0
   28.7702    3.4413  -48.9533 N   0  0  0  0  0  0  0  0  0  0  0  0
   27.9952    4.2112  -48.1162 C   0  0  0  0  0  0  0  0  0  0  0  0
   28.5939    4.4992  -46.9935 N   0  0  0  0  0  0  0  0  0  0  0  0
   29.8396    3.9008  -47.0820 C   0  0  0  0  0  0  0  0  0  0  0  0
   30.9127    3.8940  -46.1570 C   0  0  0  0  0  0  0  0  0  0  0  0
   30.9821    4.4303  -45.0316 O   0  0  0  0  0  0  0  0  0  0  0  0
   31.9996    3.1717  -46.6501 N   0  0  0  0  0  0  0  0  0  0  0  0
   32.0450    2.5538  -47.8827 C   0  0  0  0  0  0  0  0  0  0  0  0
   33.1917    1.9026  -48.1817 N   0  0  0  0  0  0  0  0  0  0  0  0
   31.0390    2.5603  -48.7526 N   0  0  0  0  0  0  0  0  0  0  0  0
   29.9690    3.2520  -48.2918 C   0  0  0  0  0  0  0  0  0  0  0  0
   32.7949    3.0973  -46.0746 H   0  0  0  0  0  0  0  0  0  0  0  0
   33.9369    1.8973  -47.5383 H   0  0  0  0  0  0  0  0  0  0  0  0
   33.2814    1.4338  -49.0427 H   0  0  0  0  0  0  0  0  0  0  0  0
   25.3627    1.2265  -50.7960 C   0  0  0  0  0  0  0  0  0  0  0  0
   24.6754    0.5728  -51.8521 O   0  0  0  0  0  0  0  0  0  0  0  0
   24.3468   -0.9723  -51.7598 P   0  0  0  0  0  0  0  0  0  0  0  0
   25.3236   -1.6876  -52.6267 O   0  0  0  0  0  0  0  0  0  0  0  0
   22.9156   -1.0854  -52.1665 O   0  0  0  0  0  0  0  0  0  0  0  0
   22.6425   -2.0155  -52.1331 H   0  0  0  0  0  0  0  0  0  0  0  0
   24.5648   -1.4443  -50.3017 O   0  0  0  0  0  0  0  0  0  0  0  0
   23.9438   -2.7154  -49.6532 P   0  0  0  0  0  0  0  0  0  0  0  0
   23.4710   -3.6094  -50.7287 O   0  0  0  0  0  0  0  0  0  0  0  0
   24.9722   -3.2672  -48.7343 O   0  0  0  0  0  0  0  0  0  0  0  0
   24.6271   -4.0656  -48.3049 H   0  0  0  0  0  0  0  0  0  0  0  0
   22.6615   -2.2321  -48.8304 N   0  0  0  0  0  0  0  0  0  0  0  0
   22.8544   -2.4773  -47.8592 H   0  0  0  0  0  0  0  0  0  0  0  0
   21.1565   -2.7122  -49.1001 P   0  0  0  0  0  0  0  0  0  0  0  0
   20.2914   -2.0516  -48.0488 O   0  0  0  0  0  0  0  0  0  0  0  0
   21.1641   -4.2216  -49.1069 O   0  0  0  0  0  0  0  0  0  0  0  0
   20.8168   -2.2925  -50.5105 O   0  0  0  0  0  0  0  0  0  0  0  0
   20.2653   -4.5488  -49.2682 H   0  0  0  0  0  0  0  0  0  0  0  0
   19.9092   -2.5641  -50.7190 H   0  0  0  0  0  0  0  0  0  0  0  0
 37 38  2  0  0  0
 37 39  1  0  0  0
 37 40  1  0  0  0
 37 35  1  0  0  0
 35 31  1  0  0  0
 31 32  2  0  0  0
 31 33  1  0  0  0
 31 30  1  0  0  0
 30 26  1  0  0  0
 26 27  2  0  0  0
 26 28  1  0  0  0
 26 25  1  0  0  0
 25 24  1  0  0  0
 24  1  1  0  0  0
  1  2  1  0  0  0
  1  3  1  0  0  0
  2  7  1  0  0  0
  3  4  1  0  0  0
  3  5  1  0  0  0
  5  6  1  0  0  0
  5  7  1  0  0  0
  7 10  1  0  0  0
 10 11  1  0  0  0
 10 20  1  0  0  0
 11 12  2  0  0  0
 12 13  1  0  0  0
 13 14  1  0  0  0
 13 20  2  0  0  0
 14 15  2  0  0  0
 14 16  1  0  0  0
 16 17  1  0  0  0
 17 18  1  0  0  0
 17 19  2  0  0  0
 19 20  1  0  0  0
 39 41  1  0  0  0
 40 42  1  0  0  0
 35 36  1  0  0  0
 33 34  1  0  0  0
 28 29  1  0  0  0
  4  8  1  0  0  0
  6  9  1  0  0  0
 16 21  1  0  0  0
 18 22  1  0  0  0
 18 23  1  0  0  0
M  END
> <minimizedAffinity>
-12.70338

$$$$
4IDN_GNP_A_501


 42 44  0  0  0  0  0  0  0  0999 V2000
   30.1843    1.8528  -51.8702 C   0  0  0  0  0  0  0  0  0  0  0  0
   30.9242    2.5708  -50.8545 O   0  0  0  0  0  0  0  0  0  0  0  0
   30.2221    0.3843  -51.4426 C   0  0  0  0  0  0  0  0  0  0  0  0
   31.2050   -0.3006  -52.2506 O   0  0  0  0  0  0  0  0  0  0  0  0
   30.6640    0.4581  -49.9790 C   0  0  0  0  0  0  0  0  0  0  0  0
   31.3662   -0.7051  -49.5877 O   0  0  0  0  0  0  0  0  0  0  0  0
   31.6193    1.6391  -50.0302 C   0  0  0  0  0  0  0  0  0  0  0  0
   32.0605    0.1493  -52.1695 H   0  0  0  0  0  0  0  0  0  0  0  0
   32.1203   -0.8429  -50.1821 H   0  0  0  0  0  0  0  0  0  0  0  0
   31.8318    2.3695  -48.7825 N   0  0  0  0  0  0  0  0  0  0  0  0
   33.0377    2.6549  -48.1841 C   0  0  0  0  0  0  0  0  0  0  0  0
   32.9038    3.2786  -47.0461 N   0  0  0  0  0  0  0  0  0  0  0  0
   31.5376    3.4122  -46.8636 C   0  0  0  0  0  0  0  0  0  0  0  0
   30.8163    3.9994  -45.7948 C   0  0  0  0  0  0  0  0  0  0  0  0
   31.2524    4.5427  -44.7587 O   0  0  0  0  0  0  0  0  0  0  0  0
   29.4402    3.9130  -46.0070 N   0  0  0  0  0  0  0  0  0  0  0  0
   28.8442    3.3208  -47.1011 C   0  0  0  0  0  0  0  0  0  0  0  0
   27.4922    3.3350  -47.1245 N   0  0  0  0  0  0  0  0  0  0  0  0
   29.5198    2.7681  -48.1046 N   0  0  0  0  0  0  0  0  0  0  0  0
   30.8601    2.8457  -47.9226 C   0  0  0  0  0  0  0  0  0  0  0  0
   28.8493    4.3045  -45.3237 H   0  0  0  0  0  0  0  0  0  0  0  0
   26.9913    3.7439  -46.3822 H   0  0  0  0  0  0  0  0  0  0  0  0
   27.0089    2.9364  -47.8840 H   0  0  0  0  0  0  0  0  0  0  0  0
   28.8110    2.4866  -52.0649 C   0  0  0  0  0  0  0  0  0  0  0  0
   27.7693    1.5871  -51.7172 O   0  0  0  0  0  0  0  0  0  0  0  0
   26.7647    1.9376  -50.5461 P   0  0  0  0  0  0  0  0  0  0  0  0
   26.8370    3.4081  -50.3228 O   0  0  0  0  0  0  0  0  0  0  0  0
   27.1990    1.0864  -49.4001 O   0  0  0  0  0  0  0  0  0  0  0  0
   26.6214    1.2505  -48.6383 H   0  0  0  0  0  0  0  0  0  0  0  0
   25.3258    1.5922  -51.0005 O   0  0  0  0  0  0  0  0  0  0  0  0
   24.8355    0.1995  -51.4925 P   0  0  0  0  0  0  0  0  0  0  0  0
   23.4432    0.3308  -51.9656 O   0  0  0  0  0  0  0  0  0  0  0  0
   25.8332   -0.2737  -52.4861 O   0  0  0  0  0  0  0  0  0  0  0  0
   25.5672   -1.1439  -52.8222 H   0  0  0  0  0  0  0  0  0  0  0  0
   24.8213   -0.7607  -50.2148 N   0  0  0  0  0  0  0  0  0  0  0  0
   25.7994   -0.9875  -50.0352 H   0  0  0  0  0  0  0  0  0  0  0  0
   24.0358   -2.1541  -50.1156 P   0  0  0  0  0  0  0  0  0  0  0  0
   24.6831   -2.9428  -48.9981 O   0  0  0  0  0  0  0  0  0  0  0  0
   24.0719   -2.7852  -51.4864 O   0  0  0  0  0  0  0  0  0  0  0  0
   22.5878   -1.8145  -49.8531 O   0  0  0  0  0  0  0  0  0  0  0  0
   23.6036   -3.6344  -51.4638 H   0  0  0  0  0  0  0  0  0  0  0  0
   22.0710   -2.6326  -49.7852 H   0  0  0  0  0  0  0  0  0  0  0  0
 37 38  2  0  0  0
 37 39  1  0  0  0
 37 40  1  0  0  0
 37 35  1  0  0  0
 35 31  1  0  0  0
 31 32  2  0  0  0
 31 33  1  0  0  0
 31 30  1  0  0  0
 30 26  1  0  0  0
 26 27  2  0  0  0
 26 28  1  0  0  0
 26 25  1  0  0  0
 25 24  1  0  0  0
 24  1  1  0  0  0
  1  2  1  0  0  0
  1  3  1  0  0  0
  2  7  1  0  0  0
  3  4  1  0  0  0
  3  5  1  0  0  0
  5  6  1  0  0  0
  5  7  1  0  0  0
  7 10  1  0  0  0
 10 11  1  0  0  0
 10 20  1  0  0  0
 11 12  2  0  0  0
 12 13  1  0  0  0
 13 14  1  0  0  0
 13 20  2  0  0  0
 14 15  2  0  0  0
 14 16  1  0  0  0
 16 17  1  0  0  0
 17 18  1  0  0  0
 17 19  2  0  0  0
 19 20  1  0  0  0
 39 41  1  0  0  0
 40 42  1  0  0  0
 35 36  1  0  0  0
 33 34  1  0  0  0
 28 29  1  0  0  0
  4  8  1  0  0  0
  6  9  1  0  0  0
 16 21  1  0  0  0
 18 22  1  0  0  0
 18 23  1  0  0  0
M  END
> <minimizedAffinity>
-12.60310

$$$$
4IDN_GNP_A_501


 42 44  0  0  0  0  0  0  0  0999 V2000
   26.5496    1.9889  -50.0855 C   0  0  0  0  0  0  0  0  0  0  0  0
   27.5328    1.3084  -49.2700 O   0  0  0  0  0  0  0  0  0  0  0  0
   27.1783    3.3364  -50.4453 C   0  0  0  0  0  0  0  0  0  0  0  0
   26.5892    4.3533  -49.6044 O   0  0  0  0  0  0  0  0  0  0  0  0
   28.6579    3.1317  -50.1111 C   0  0  0  0  0  0  0  0  0  0  0  0
   29.2835    4.3475  -49.7508 O   0  0  0  0  0  0  0  0  0  0  0  0
   28.5515    2.2305  -48.8920 C   0  0  0  0  0  0  0  0  0  0  0  0
   26.7031    4.1083  -48.6727 H   0  0  0  0  0  0  0  0  0  0  0  0
   28.8028    4.7518  -49.0116 H   0  0  0  0  0  0  0  0  0  0  0  0
   29.7017    1.3777  -48.6004 N   0  0  0  0  0  0  0  0  0  0  0  0
   30.0886    0.9000  -47.3692 C   0  0  0  0  0  0  0  0  0  0  0  0
   31.1906    0.2036  -47.4191 N   0  0  0  0  0  0  0  0  0  0  0  0
   31.5711    0.2206  -48.7505 C   0  0  0  0  0  0  0  0  0  0  0  0
   32.6972   -0.3632  -49.3817 C   0  0  0  0  0  0  0  0  0  0  0  0
   33.6168   -1.0401  -48.8766 O   0  0  0  0  0  0  0  0  0  0  0  0
   32.7043   -0.0944  -50.7506 N   0  0  0  0  0  0  0  0  0  0  0  0
   31.7552    0.6549  -51.4145 C   0  0  0  0  0  0  0  0  0  0  0  0
   31.9382    0.8055  -52.7457 N   0  0  0  0  0  0  0  0  0  0  0  0
   30.6983    1.2046  -50.8233 N   0  0  0  0  0  0  0  0  0  0  0  0
   30.6675    0.9513  -49.4926 C   0  0  0  0  0  0  0  0  0  0  0  0
   33.4431   -0.4680  -51.2835 H   0  0  0  0  0  0  0  0  0  0  0  0
   32.7203    0.3990  -53.1842 H   0  0  0  0  0  0  0  0  0  0  0  0
   31.2893    1.3217  -53.2765 H   0  0  0  0  0  0  0  0  0  0  0  0
   26.1152    1.0923  -51.2401 C   0  0  0  0  0  0  0  0  0  0  0  0
   25.4195   -0.0543  -50.7747 O   0  0  0  0  0  0  0  0  0  0  0  0
   24.2397   -0.6767  -51.6257 P   0  0  0  0  0  0  0  0  0  0  0  0
   24.8423   -1.6544  -52.5735 O   0  0  0  0  0  0  0  0  0  0  0  0
   23.5573    0.4943  -52.2499 O   0  0  0  0  0  0  0  0  0  0  0  0
   22.8151    0.1847  -52.7923 H   0  0  0  0  0  0  0  0  0  0  0  0
   23.2922   -1.4505  -50.6771 O   0  0  0  0  0  0  0  0  0  0  0  0
   23.6490   -2.7445  -49.8896 P   0  0  0  0  0  0  0  0  0  0  0  0
   23.4911   -3.9028  -50.7910 O   0  0  0  0  0  0  0  0  0  0  0  0
   25.0013   -2.5300  -49.3135 O   0  0  0  0  0  0  0  0  0  0  0  0
   25.2669   -3.3159  -48.8107 H   0  0  0  0  0  0  0  0  0  0  0  0
   22.5629   -2.8886  -48.7257 N   0  0  0  0  0  0  0  0  0  0  0  0
   22.6517   -3.8474  -48.3892 H   0  0  0  0  0  0  0  0  0  0  0  0
   20.9887   -2.6411  -48.8961 P   0  0  0  0  0  0  0  0  0  0  0  0
   20.6369   -1.4501  -48.0314 O   0  0  0  0  0  0  0  0  0  0  0  0
   20.2941   -3.9387  -48.5604 O   0  0  0  0  0  0  0  0  0  0  0  0
   20.7460   -2.4094  -50.3686 O   0  0  0  0  0  0  0  0  0  0  0  0
   19.3352   -3.8255  -48.6532 H   0  0  0  0  0  0  0  0  0  0  0  0
   19.8005   -2.2542  -50.5199 H   0  0  0  0  0  0  0  0  0  0  0  0
 37 38  2  0  0  0
 37 39  1  0  0  0
 37 40  1  0  0  0
 37 35  1  0  0  0
 35 31  1  0  0  0
 31 32  2  0  0  0
 31 33  1  0  0  0
 31 30  1  0  0  0
 30 26  1  0  0  0
 26 27  2  0  0  0
 26 28  1  0  0  0
 26 25  1  0  0  0
 25 24  1  0  0  0
 24  1  1  0  0  0
  1  2  1  0  0  0
  1  3  1  0  0  0
  2  7  1  0  0  0
  3  4  1  0  0  0
  3  5  1  0  0  0
  5  6  1  0  0  0
  5  7  1  0  0  0
  7 10  1  0  0  0
 10 11  1  0  0  0
 10 20  1  0  0  0
 11 12  2  0  0  0
 12 13  1  0  0  0
 13 14  1  0  0  0
 13 20  2  0  0  0
 14 15  2  0  0  0
 14 16  1  0  0  0
 16 17  1  0  0  0
 17 18  1  0  0  0
 17 19  2  0  0  0
 19 20  1  0  0  0
 39 41  1  0  0  0
 40 42  1  0  0  0
 35 36  1  0  0  0
 33 34  1  0  0  0
 28 29  1  0  0  0
  4  8  1  0  0  0
  6  9  1  0  0  0
 16 21  1  0  0  0
 18 22  1  0  0  0
 18 23  1  0  0  0
M  END
> <minimizedAffinity>
-12.11516

$$$$
4IDN_GNP_A_501


 42 44  0  0  0  0  0  0  0  0999 V2000
   27.5121    2.9601  -51.2878 C   0  0  0  0  0  0  0  0  0  0  0  0
   28.2509    2.7864  -50.0554 O   0  0  0  0  0  0  0  0  0  0  0  0
   28.2859    2.1685  -52.3438 C   0  0  0  0  0  0  0  0  0  0  0  0
   29.0476    3.0998  -53.1442 O   0  0  0  0  0  0  0  0  0  0  0  0
   29.2067    1.2772  -51.5068 C   0  0  0  0  0  0  0  0  0  0  0  0
   30.3989    0.9640  -52.1995 O   0  0  0  0  0  0  0  0  0  0  0  0
   29.5193    2.2047  -50.3442 C   0  0  0  0  0  0  0  0  0  0  0  0
   29.6150    3.6339  -52.5665 H   0  0  0  0  0  0  0  0  0  0  0  0
   30.8423    1.7841  -52.4672 H   0  0  0  0  0  0  0  0  0  0  0  0
   29.9077    1.5744  -49.0843 N   0  0  0  0  0  0  0  0  0  0  0  0
   29.2805    1.7011  -47.8659 C   0  0  0  0  0  0  0  0  0  0  0  0
   29.8930    1.0571  -46.9110 N   0  0  0  0  0  0  0  0  0  0  0  0
   30.9946    0.4741  -47.5145 C   0  0  0  0  0  0  0  0  0  0  0  0
   32.0179   -0.3306  -46.9554 C   0  0  0  0  0  0  0  0  0  0  0  0
   32.1622   -0.7079  -45.7739 O   0  0  0  0  0  0  0  0  0  0  0  0
   32.9505   -0.7057  -47.9228 N   0  0  0  0  0  0  0  0  0  0  0  0
   32.9051   -0.3350  -49.2508 C   0  0  0  0  0  0  0  0  0  0  0  0
   33.9051   -0.7987  -50.0341 N   0  0  0  0  0  0  0  0  0  0  0  0
   31.9460    0.4212  -49.7770 N   0  0  0  0  0  0  0  0  0  0  0  0
   31.0247    0.7930  -48.8557 C   0  0  0  0  0  0  0  0  0  0  0  0
   33.6980   -1.2786  -47.6359 H   0  0  0  0  0  0  0  0  0  0  0  0
   34.6156   -1.3586  -49.6454 H   0  0  0  0  0  0  0  0  0  0  0  0
   33.9227   -0.5764  -50.9930 H   0  0  0  0  0  0  0  0  0  0  0  0
   26.0470    2.5929  -51.0768 C   0  0  0  0  0  0  0  0  0  0  0  0
   25.9098    1.2774  -50.5611 O   0  0  0  0  0  0  0  0  0  0  0  0
   25.0197    0.2090  -51.3159 P   0  0  0  0  0  0  0  0  0  0  0  0
   25.8957   -0.4850  -52.2999 O   0  0  0  0  0  0  0  0  0  0  0  0
   23.8887    0.9917  -51.8947 O   0  0  0  0  0  0  0  0  0  0  0  0
   23.2957    0.3945  -52.3771 H   0  0  0  0  0  0  0  0  0  0  0  0
   24.5225   -0.8410  -50.2929 O   0  0  0  0  0  0  0  0  0  0  0  0
   23.4605   -1.9458  -50.5644 P   0  0  0  0  0  0  0  0  0  0  0  0
   22.3782   -1.3668  -51.3846 O   0  0  0  0  0  0  0  0  0  0  0  0
   24.1907   -3.1008  -51.1470 O   0  0  0  0  0  0  0  0  0  0  0  0
   23.5650   -3.8181  -51.3336 H   0  0  0  0  0  0  0  0  0  0  0  0
   22.8334   -2.3388  -49.1477 N   0  0  0  0  0  0  0  0  0  0  0  0
   23.3047   -3.2004  -48.8723 H   0  0  0  0  0  0  0  0  0  0  0  0
   21.2768   -2.5962  -48.8664 P   0  0  0  0  0  0  0  0  0  0  0  0
   21.1744   -3.9314  -48.1618 O   0  0  0  0  0  0  0  0  0  0  0  0
   20.5595   -2.4825  -50.1898 O   0  0  0  0  0  0  0  0  0  0  0  0
   20.7925   -1.4352  -48.0308 O   0  0  0  0  0  0  0  0  0  0  0  0
   19.6105   -2.6332  -50.0571 H   0  0  0  0  0  0  0  0  0  0  0  0
   19.8493   -1.5490  -47.8350 H   0  0  0  0  0  0  0  0  0  0  0  0
 37 38  2  0  0  0
 37 39  1  0  0  0
 37 40  1  0  0  0
 37 35  1  0  0  0
 35 31  1  0  0  0
 31 32  2  0  0  0
 31 33  1  0  0  0
 31 30  1  0  0  0
 30 26  1  0  0  0
 26 27  2  0  0  0
 26 28  1  0  0  0
 26 25  1  0  0  0
 25 24  1  0  0  0
 24  1  1  0  0  0
  1  2  1  0  0  0
  1  3  1  0  0  0
  2  7  1  0  0  0
  3  4  1  0  0  0
  3  5  1  0  0  0
  5  6  1  0  0  0
  5  7  1  0  0  0
  7 10  1  0  0  0
 10 11  1  0  0  0
 10 20  1  0  0  0
 11 12  2  0  0  0
 12 13  1  0  0  0
 13 14  1  0  0  0
 13 20  2  0  0  0
 14 15  2  0  0  0
 14 16  1  0  0  0
 16 17  1  0  0  0
 17 18  1  0  0  0
 17 19  2  0  0  0
 19 20  1  0  0  0
 39 41  1  0  0  0
 40 42  1  0  0  0
 35 36  1  0  0  0
 33 34  1  0  0  0
 28 29  1  0  0  0
  4  8  1  0  0  0
  6  9  1  0  0  0
 16 21  1  0  0  0
 18 22  1  0  0  0
 18 23  1  0  0  0
M  END
> <minimizedAffinity>
-11.94021

$$$$
4IDN_GNP_A_501


 42 44  0  0  0  0  0  0  0  0999 V2000
   26.4746    1.7610  -50.7923 C   0  0  0  0  0  0  0  0  0  0  0  0
   27.7589    1.5703  -50.1529 O   0  0  0  0  0  0  0  0  0  0  0  0
   26.2193    3.2690  -50.7560 C   0  0  0  0  0  0  0  0  0  0  0  0
   25.2771    3.5464  -49.6961 O   0  0  0  0  0  0  0  0  0  0  0  0
   27.5990    3.8490  -50.4349 C   0  0  0  0  0  0  0  0  0  0  0  0
   27.4990    5.0766  -49.7404 O   0  0  0  0  0  0  0  0  0  0  0  0
   28.1473    2.7789  -49.5055 C   0  0  0  0  0  0  0  0  0  0  0  0
   25.6165    3.1900  -48.8602 H   0  0  0  0  0  0  0  0  0  0  0  0
   26.9683    4.9520  -48.9381 H   0  0  0  0  0  0  0  0  0  0  0  0
   29.6015    2.6706  -49.4105 N   0  0  0  0  0  0  0  0  0  0  0  0
   30.4582    2.1566  -50.3570 C   0  0  0  0  0  0  0  0  0  0  0  0
   31.7017    2.1462  -49.9629 N   0  0  0  0  0  0  0  0  0  0  0  0
   31.6812    2.6714  -48.6817 C   0  0  0  0  0  0  0  0  0  0  0  0
   32.7440    2.8844  -47.7693 C   0  0  0  0  0  0  0  0  0  0  0  0
   33.9614    2.6479  -47.9136 O   0  0  0  0  0  0  0  0  0  0  0  0
   32.2800    3.4314  -46.5727 N   0  0  0  0  0  0  0  0  0  0  0  0
   30.9597    3.7170  -46.2930 C   0  0  0  0  0  0  0  0  0  0  0  0
   30.7085    4.2426  -45.0728 N   0  0  0  0  0  0  0  0  0  0  0  0
   29.9607    3.5165  -47.1479 N   0  0  0  0  0  0  0  0  0  0  0  0
   30.3892    2.9905  -48.3207 C   0  0  0  0  0  0  0  0  0  0  0  0
   32.9456    3.6286  -45.8746 H   0  0  0  0  0  0  0  0  0  0  0  0
   31.4473    4.3913  -44.4393 H   0  0  0  0  0  0  0  0  0  0  0  0
   29.7868    4.4766  -44.8178 H   0  0  0  0  0  0  0  0  0  0  0  0
   26.4642    1.0854  -52.1595 C   0  0  0  0  0  0  0  0  0  0  0  0
   25.8738   -0.2041  -52.0977 O   0  0  0  0  0  0  0  0  0  0  0  0
   24.5412   -0.4374  -51.2771 P   0  0  0  0  0  0  0  0  0  0  0  0
   23.4537    0.3031  -51.9743 O   0  0  0  0  0  0  0  0  0  0  0  0
   24.8563    0.0251  -49.8938 O   0  0  0  0  0  0  0  0  0  0  0  0
   24.0761   -0.0897  -49.3289 H   0  0  0  0  0  0  0  0  0  0  0  0
   24.1911   -1.9450  -51.3089 O   0  0  0  0  0  0  0  0  0  0  0  0
   23.8265   -2.8217  -50.0758 P   0  0  0  0  0  0  0  0  0  0  0  0
   23.1944   -4.0671  -50.5541 O   0  0  0  0  0  0  0  0  0  0  0  0
   25.0718   -2.9716  -49.2800 O   0  0  0  0  0  0  0  0  0  0  0  0
   24.8915   -3.5143  -48.4965 H   0  0  0  0  0  0  0  0  0  0  0  0
   22.7271   -2.0121  -49.2448 N   0  0  0  0  0  0  0  0  0  0  0  0
   23.1006   -1.9410  -48.2984 H   0  0  0  0  0  0  0  0  0  0  0  0
   21.1961   -2.4511  -49.0666 P   0  0  0  0  0  0  0  0  0  0  0  0
   20.5443   -2.3275  -50.4267 O   0  0  0  0  0  0  0  0  0  0  0  0
   20.6126   -1.5984  -47.9662 O   0  0  0  0  0  0  0  0  0  0  0  0
   21.2126   -3.8637  -48.5325 O   0  0  0  0  0  0  0  0  0  0  0  0
   19.6825   -1.8379  -47.8303 H   0  0  0  0  0  0  0  0  0  0  0  0
   20.3016   -4.1730  -48.4083 H   0  0  0  0  0  0  0  0  0  0  0  0
 37 38  2  0  0  0
 37 39  1  0  0  0
 37 40  1  0  0  0
 37 35  1  0  0  0
 35 31  1  0  0  0
 31 32  2  0  0  0
 31 33  1  0  0  0
 31 30  1  0  0  0
 30 26  1  0  0  0
 26 27  2  0  0  0
 26 28  1  0  0  0
 26 25  1  0  0  0
 25 24  1  0  0  0
 24  1  1  0  0  0
  1  2  1  0  0  0
  1  3  1  0  0  0
  2  7  1  0  0  0
  3  4  1  0  0  0
  3  5  1  0  0  0
  5  6  1  0  0  0
  5  7  1  0  0  0
  7 10  1  0  0  0
 10 11  1  0  0  0
 10 20  1  0  0  0
 11 12  2  0  0  0
 12 13  1  0  0  0
 13 14  1  0  0  0
 13 20  2  0  0  0
 14 15  2  0  0  0
 14 16  1  0  0  0
 16 17  1  0  0  0
 17 18  1  0  0  0
 17 19  2  0  0  0
 19 20  1  0  0  0
 39 41  1  0  0  0
 40 42  1  0  0  0
 35 36  1  0  0  0
 33 34  1  0  0  0
 28 29  1  0  0  0
  4  8  1  0  0  0
  6  9  1  0  0  0
 16 21  1  0  0  0
 18 22  1  0  0  0
 18 23  1  0  0  0
M  END
> <minimizedAffinity>
-11.52739

$$$$
