6FUI_E7W_A_301


 34 37  0  0  0  0  0  0  0  0999 V2000
    3.1987    9.1246    1.9874 C   0  0  0  0  0  0  0  0  0  0  0  0
    5.7296    9.4313    1.2864 C   0  0  0  0  0  0  0  0  0  0  0  0
    5.1616    8.2182    1.2372 N   0  0  0  0  0  0  0  0  0  0  0  0
    3.9566    7.9324    1.5918 C   0  0  0  0  0  0  0  0  0  0  0  0
    1.8661    8.9942    2.3550 C   0  0  0  0  0  0  0  0  0  0  0  0
    1.1176   10.1806    2.6463 C   0  0  0  0  0  0  0  0  0  0  0  0
    1.6802   11.4515    2.5616 C   0  0  0  0  0  0  0  0  0  0  0  0
    2.9765   11.6013    2.1781 C   0  0  0  0  0  0  0  0  0  0  0  0
    3.7901   10.4166    1.9615 C   0  0  0  0  0  0  0  0  0  0  0  0
    5.0167   10.6073    1.5089 N   0  0  0  0  0  0  0  0  0  0  0  0
    6.9513    9.7081    0.8852 N   0  0  0  0  0  0  0  0  0  0  0  0
    7.2633   10.6392    0.9558 H   0  0  0  0  0  0  0  0  0  0  0  0
    8.9539    8.6157    1.3672 C   0  0  0  0  0  0  0  0  0  0  0  0
    9.7553    9.9172    1.4408 C   0  0  0  0  0  0  0  0  0  0  0  0
   10.4962   10.1775    0.1443 C   0  0  0  0  0  0  0  0  0  0  0  0
    9.4129   10.5297   -0.7558 C   0  0  0  0  0  0  0  0  0  0  0  0
    8.4571    9.4103   -0.9494 C   0  0  0  0  0  0  0  0  0  0  0  0
    7.8529    8.7328    0.3519 C   0  0  0  0  0  0  0  0  0  0  0  0
    8.2104    6.9166    2.7544 O   0  0  0  0  0  0  0  0  0  0  0  0
    8.4999    8.1897    2.7206 C   0  0  0  0  0  0  0  0  0  0  0  0
    8.5190    9.0132    3.6536 O   0  0  0  0  0  0  0  0  0  0  0  0
    8.7475    9.9063    3.4856 H   0  0  0  0  0  0  0  0  0  0  0  0
    3.4490    6.6489    1.6687 N   0  0  0  0  0  0  0  0  0  0  0  0
    2.4930    6.6176    1.9017 H   0  0  0  0  0  0  0  0  0  0  0  0
    3.9992    5.4319    1.4890 C   0  0  0  0  0  0  0  0  0  0  0  0
    5.3628    5.2006    1.5546 C   0  0  0  0  0  0  0  0  0  0  0  0
    5.9243    3.9141    1.3516 C   0  0  0  0  0  0  0  0  0  0  0  0
    5.1344    2.8565    1.0256 C   0  0  0  0  0  0  0  0  0  0  0  0
    3.8150    3.1041    0.8128 C   0  0  0  0  0  0  0  0  0  0  0  0
    3.3033    4.3646    1.1078 C   0  0  0  0  0  0  0  0  0  0  0  0
    2.9610    1.9342    0.3634 C   0  0  0  0  0  0  0  0  0  0  0  0
    1.7491    1.8878    1.0730 N   0  0  0  0  0  0  0  0  0  0  0  0
    1.9419    1.7723    2.0680 H   0  0  0  0  0  0  0  0  0  0  0  0
    1.1908    1.1012    0.7413 H   0  0  0  0  0  0  0  0  0  0  0  0
 17 16  1  0  0  0
 17 18  1  0  0  0
 16 15  1  0  0  0
 15 14  1  0  0  0
 18 11  1  0  0  0
 18 13  1  0  0  0
 31 29  1  0  0  0
 31 32  1  0  0  0
 29 30  2  0  0  0
 29 28  1  0  0  0
 11  2  1  0  0  0
 30 25  1  0  0  0
 28 27  2  0  0  0
 13 14  1  0  0  0
 13 20  1  0  0  0
  3  2  2  0  0  0
  3  4  1  0  0  0
  2 10  1  0  0  0
 10  9  2  0  0  0
 25 23  1  0  0  0
 25 26  2  0  0  0
  4 23  1  0  0  0
  4  1  2  0  0  0
 27 26  1  0  0  0
  9  1  1  0  0  0
  9  8  1  0  0  0
  1  5  1  0  0  0
  8  7  2  0  0  0
  5  6  2  0  0  0
  7  6  1  0  0  0
 19 20  2  0  0  0
 20 21  1  0  0  0
 11 12  1  0  0  0
 21 22  1  0  0  0
 23 24  1  0  0  0
 32 33  1  0  0  0
 32 34  1  0  0  0
M  END
> <minimizedAffinity>
-10.32302

$$$$
6FUI_E7W_A_301


 34 37  0  0  0  0  0  0  0  0999 V2000
    4.5110    6.0113    1.4728 C   0  0  0  0  0  0  0  0  0  0  0  0
    6.5533    7.6856    1.6031 C   0  0  0  0  0  0  0  0  0  0  0  0
    5.2997    8.1454    1.7197 N   0  0  0  0  0  0  0  0  0  0  0  0
    4.2246    7.4415    1.6306 C   0  0  0  0  0  0  0  0  0  0  0  0
    3.4581    5.1085    1.4072 C   0  0  0  0  0  0  0  0  0  0  0  0
    3.7596    3.7091    1.3484 C   0  0  0  0  0  0  0  0  0  0  0  0
    5.0674    3.2312    1.3661 C   0  0  0  0  0  0  0  0  0  0  0  0
    6.1112    4.0985    1.4563 C   0  0  0  0  0  0  0  0  0  0  0  0
    5.8464    5.5273    1.4278 C   0  0  0  0  0  0  0  0  0  0  0  0
    6.8802    6.3313    1.6028 N   0  0  0  0  0  0  0  0  0  0  0  0
    7.6392    8.4163    1.7333 N   0  0  0  0  0  0  0  0  0  0  0  0
    8.4414    7.9918    2.1147 H   0  0  0  0  0  0  0  0  0  0  0  0
    8.8885    9.8741    0.4103 C   0  0  0  0  0  0  0  0  0  0  0  0
   10.1946    9.5757    1.1496 C   0  0  0  0  0  0  0  0  0  0  0  0
   10.4968   10.6457    2.1798 C   0  0  0  0  0  0  0  0  0  0  0  0
    9.4956   10.3763    3.1961 C   0  0  0  0  0  0  0  0  0  0  0  0
    8.1136   10.5588    2.6854 C   0  0  0  0  0  0  0  0  0  0  0  0
    7.7208    9.7934    1.3522 C   0  0  0  0  0  0  0  0  0  0  0  0
    9.3843    7.8878   -0.6727 O   0  0  0  0  0  0  0  0  0  0  0  0
    8.7567    9.0253   -0.8069 C   0  0  0  0  0  0  0  0  0  0  0  0
    8.0370    9.4165   -1.7438 O   0  0  0  0  0  0  0  0  0  0  0  0
    7.6442   10.2665   -1.7095 H   0  0  0  0  0  0  0  0  0  0  0  0
    2.9464    7.9677    1.6077 N   0  0  0  0  0  0  0  0  0  0  0  0
    2.3596    7.5459    0.9391 H   0  0  0  0  0  0  0  0  0  0  0  0
    2.3419    8.9418    2.3161 C   0  0  0  0  0  0  0  0  0  0  0  0
    2.6515   10.2839    2.1744 C   0  0  0  0  0  0  0  0  0  0  0  0
    2.0119   11.2942    2.9373 C   0  0  0  0  0  0  0  0  0  0  0  0
    1.0967   10.9695    3.8889 C   0  0  0  0  0  0  0  0  0  0  0  0
    0.8960    9.6485    4.1381 C   0  0  0  0  0  0  0  0  0  0  0  0
    1.4852    8.7020    3.3045 C   0  0  0  0  0  0  0  0  0  0  0  0
   -0.0606    9.2997    5.2619 C   0  0  0  0  0  0  0  0  0  0  0  0
   -0.9819    8.3184    4.8586 N   0  0  0  0  0  0  0  0  0  0  0  0
   -1.5323    8.6702    4.0753 H   0  0  0  0  0  0  0  0  0  0  0  0
   -1.6024    8.0943    5.6366 H   0  0  0  0  0  0  0  0  0  0  0  0
 17 16  1  0  0  0
 17 18  1  0  0  0
 16 15  1  0  0  0
 15 14  1  0  0  0
 18 11  1  0  0  0
 18 13  1  0  0  0
 31 29  1  0  0  0
 31 32  1  0  0  0
 29 30  2  0  0  0
 29 28  1  0  0  0
 11  2  1  0  0  0
 30 25  1  0  0  0
 28 27  2  0  0  0
 13 14  1  0  0  0
 13 20  1  0  0  0
  3  2  2  0  0  0
  3  4  1  0  0  0
  2 10  1  0  0  0
 10  9  2  0  0  0
 25 23  1  0  0  0
 25 26  2  0  0  0
  4 23  1  0  0  0
  4  1  2  0  0  0
 27 26  1  0  0  0
  9  1  1  0  0  0
  9  8  1  0  0  0
  1  5  1  0  0  0
  8  7  2  0  0  0
  5  6  2  0  0  0
  7  6  1  0  0  0
 19 20  2  0  0  0
 20 21  1  0  0  0
 11 12  1  0  0  0
 21 22  1  0  0  0
 23 24  1  0  0  0
 32 33  1  0  0  0
 32 34  1  0  0  0
M  END
> <minimizedAffinity>
-9.59706

$$$$
6FUI_E7W_A_301


 34 37  0  0  0  0  0  0  0  0999 V2000
    4.4933    6.0408    1.4929 C   0  0  0  0  0  0  0  0  0  0  0  0
    6.5665    7.6808    1.5468 C   0  0  0  0  0  0  0  0  0  0  0  0
    5.3257    8.1617    1.7071 N   0  0  0  0  0  0  0  0  0  0  0  0
    4.2365    7.4757    1.6580 C   0  0  0  0  0  0  0  0  0  0  0  0
    3.4238    5.1556    1.4668 C   0  0  0  0  0  0  0  0  0  0  0  0
    3.6997    3.7513    1.4000 C   0  0  0  0  0  0  0  0  0  0  0  0
    4.9991    3.2516    1.3720 C   0  0  0  0  0  0  0  0  0  0  0  0
    6.0597    4.1015    1.4231 C   0  0  0  0  0  0  0  0  0  0  0  0
    5.8180    5.5344    1.4012 C   0  0  0  0  0  0  0  0  0  0  0  0
    6.8706    6.3213    1.5376 N   0  0  0  0  0  0  0  0  0  0  0  0
    7.6683    8.3935    1.6367 N   0  0  0  0  0  0  0  0  0  0  0  0
    8.4809    7.9515    1.9738 H   0  0  0  0  0  0  0  0  0  0  0  0
    8.9043    9.8598    0.3106 C   0  0  0  0  0  0  0  0  0  0  0  0
   10.2213    9.5423    1.0221 C   0  0  0  0  0  0  0  0  0  0  0  0
   10.5499   10.5963    2.0607 C   0  0  0  0  0  0  0  0  0  0  0  0
    9.5652   10.3205    3.0913 C   0  0  0  0  0  0  0  0  0  0  0  0
    8.1756   10.5197    2.6082 C   0  0  0  0  0  0  0  0  0  0  0  0
    7.7533    9.7750    1.2723 C   0  0  0  0  0  0  0  0  0  0  0  0
    9.3290    7.8670   -0.7904 O   0  0  0  0  0  0  0  0  0  0  0  0
    8.7445    9.0283   -0.9151 C   0  0  0  0  0  0  0  0  0  0  0  0
    8.0423    9.4550   -1.8499 O   0  0  0  0  0  0  0  0  0  0  0  0
    7.6813   10.3186   -1.8082 H   0  0  0  0  0  0  0  0  0  0  0  0
    2.9673    8.0232    1.6796 N   0  0  0  0  0  0  0  0  0  0  0  0
    2.3644    7.6448    0.9995 H   0  0  0  0  0  0  0  0  0  0  0  0
    2.3891    8.9705    2.4441 C   0  0  0  0  0  0  0  0  0  0  0  0
    1.6038    8.6782    3.5464 C   0  0  0  0  0  0  0  0  0  0  0  0
    0.9943    9.6891    4.3327 C   0  0  0  0  0  0  0  0  0  0  0  0
    1.1169   10.9999    3.9930 C   0  0  0  0  0  0  0  0  0  0  0  0
    1.7600   11.2867    2.8304 C   0  0  0  0  0  0  0  0  0  0  0  0
    2.4106   10.2657    2.1433 C   0  0  0  0  0  0  0  0  0  0  0  0
    1.8132   12.7448    2.4172 C   0  0  0  0  0  0  0  0  0  0  0  0
    3.0644   13.3115    2.7135 N   0  0  0  0  0  0  0  0  0  0  0  0
    3.2300   13.2635    3.7188 H   0  0  0  0  0  0  0  0  0  0  0  0
    3.0760   14.2862    2.4132 H   0  0  0  0  0  0  0  0  0  0  0  0
 17 16  1  0  0  0
 17 18  1  0  0  0
 16 15  1  0  0  0
 15 14  1  0  0  0
 18 11  1  0  0  0
 18 13  1  0  0  0
 31 29  1  0  0  0
 31 32  1  0  0  0
 29 30  2  0  0  0
 29 28  1  0  0  0
 11  2  1  0  0  0
 30 25  1  0  0  0
 28 27  2  0  0  0
 13 14  1  0  0  0
 13 20  1  0  0  0
  3  2  2  0  0  0
  3  4  1  0  0  0
  2 10  1  0  0  0
 10  9  2  0  0  0
 25 23  1  0  0  0
 25 26  2  0  0  0
  4 23  1  0  0  0
  4  1  2  0  0  0
 27 26  1  0  0  0
  9  1  1  0  0  0
  9  8  1  0  0  0
  1  5  1  0  0  0
  8  7  2  0  0  0
  5  6  2  0  0  0
  7  6  1  0  0  0
 19 20  2  0  0  0
 20 21  1  0  0  0
 11 12  1  0  0  0
 21 22  1  0  0  0
 23 24  1  0  0  0
 32 33  1  0  0  0
 32 34  1  0  0  0
M  END
> <minimizedAffinity>
-9.39532

$$$$
6FUI_E7W_A_301


 34 37  0  0  0  0  0  0  0  0999 V2000
    4.3887    6.1134    1.5221 C   0  0  0  0  0  0  0  0  0  0  0  0
    6.2693    7.9712    1.4647 C   0  0  0  0  0  0  0  0  0  0  0  0
    4.9922    8.3150    1.6829 N   0  0  0  0  0  0  0  0  0  0  0  0
    3.9840    7.5133    1.6912 C   0  0  0  0  0  0  0  0  0  0  0  0
    3.4231    5.1161    1.5536 C   0  0  0  0  0  0  0  0  0  0  0  0
    3.8482    3.7498    1.4817 C   0  0  0  0  0  0  0  0  0  0  0  0
    5.1918    3.3952    1.3928 C   0  0  0  0  0  0  0  0  0  0  0  0
    6.1538    4.3567    1.3869 C   0  0  0  0  0  0  0  0  0  0  0  0
    5.7552    5.7542    1.3686 C   0  0  0  0  0  0  0  0  0  0  0  0
    6.7202    6.6532    1.4485 N   0  0  0  0  0  0  0  0  0  0  0  0
    7.2890    8.8013    1.4962 N   0  0  0  0  0  0  0  0  0  0  0  0
    7.1535    9.6879    1.9021 H   0  0  0  0  0  0  0  0  0  0  0  0
    9.5583    9.0838    1.9514 C   0  0  0  0  0  0  0  0  0  0  0  0
    9.4676   10.6113    1.9355 C   0  0  0  0  0  0  0  0  0  0  0  0
    9.9185   11.1721    0.6014 C   0  0  0  0  0  0  0  0  0  0  0  0
    8.8249   10.7865   -0.2722 C   0  0  0  0  0  0  0  0  0  0  0  0
    8.6839    9.3124   -0.3785 C   0  0  0  0  0  0  0  0  0  0  0  0
    8.5845    8.4890    0.9741 C   0  0  0  0  0  0  0  0  0  0  0  0
    9.3977    7.2499    3.3567 O   0  0  0  0  0  0  0  0  0  0  0  0
    9.4376    8.5552    3.3389 C   0  0  0  0  0  0  0  0  0  0  0  0
    9.4702    9.3505    4.2957 O   0  0  0  0  0  0  0  0  0  0  0  0
    9.4971   10.2735    4.1369 H   0  0  0  0  0  0  0  0  0  0  0  0
    2.6648    7.9186    1.7718 N   0  0  0  0  0  0  0  0  0  0  0  0
    2.0563    7.3915    1.2052 H   0  0  0  0  0  0  0  0  0  0  0  0
    2.0440    8.8900    2.4698 C   0  0  0  0  0  0  0  0  0  0  0  0
    2.3366   10.2350    2.3195 C   0  0  0  0  0  0  0  0  0  0  0  0
    1.6799   11.2425    3.0715 C   0  0  0  0  0  0  0  0  0  0  0  0
    0.7643   10.9130    4.0210 C   0  0  0  0  0  0  0  0  0  0  0  0
    0.5799    9.5913    4.2793 C   0  0  0  0  0  0  0  0  0  0  0  0
    1.1856    8.6464    3.4559 C   0  0  0  0  0  0  0  0  0  0  0  0
   -0.3777    9.2385    5.4011 C   0  0  0  0  0  0  0  0  0  0  0  0
   -1.2448    8.2001    5.0211 N   0  0  0  0  0  0  0  0  0  0  0  0
   -1.7982    8.4963    4.2170 H   0  0  0  0  0  0  0  0  0  0  0  0
   -1.8668    7.9752    5.7976 H   0  0  0  0  0  0  0  0  0  0  0  0
 17 16  1  0  0  0
 17 18  1  0  0  0
 16 15  1  0  0  0
 15 14  1  0  0  0
 18 11  1  0  0  0
 18 13  1  0  0  0
 31 29  1  0  0  0
 31 32  1  0  0  0
 29 30  2  0  0  0
 29 28  1  0  0  0
 11  2  1  0  0  0
 30 25  1  0  0  0
 28 27  2  0  0  0
 13 14  1  0  0  0
 13 20  1  0  0  0
  3  2  2  0  0  0
  3  4  1  0  0  0
  2 10  1  0  0  0
 10  9  2  0  0  0
 25 23  1  0  0  0
 25 26  2  0  0  0
  4 23  1  0  0  0
  4  1  2  0  0  0
 27 26  1  0  0  0
  9  1  1  0  0  0
  9  8  1  0  0  0
  1  5  1  0  0  0
  8  7  2  0  0  0
  5  6  2  0  0  0
  7  6  1  0  0  0
 19 20  2  0  0  0
 20 21  1  0  0  0
 11 12  1  0  0  0
 21 22  1  0  0  0
 23 24  1  0  0  0
 32 33  1  0  0  0
 32 34  1  0  0  0
M  END
> <minimizedAffinity>
-9.01679

$$$$
6FUI_E7W_A_301


 34 37  0  0  0  0  0  0  0  0999 V2000
    4.3287    6.1504    1.5004 C   0  0  0  0  0  0  0  0  0  0  0  0
    6.2181    7.9823    1.2447 C   0  0  0  0  0  0  0  0  0  0  0  0
    4.9694    8.3463    1.5684 N   0  0  0  0  0  0  0  0  0  0  0  0
    3.9566    7.5581    1.6796 C   0  0  0  0  0  0  0  0  0  0  0  0
    3.3581    5.1665    1.6345 C   0  0  0  0  0  0  0  0  0  0  0  0
    3.7594    3.7938    1.5496 C   0  0  0  0  0  0  0  0  0  0  0  0
    5.0857    3.4202    1.3491 C   0  0  0  0  0  0  0  0  0  0  0  0
    6.0545    4.3688    1.2414 C   0  0  0  0  0  0  0  0  0  0  0  0
    5.6719    5.7709    1.2335 C   0  0  0  0  0  0  0  0  0  0  0  0
    6.6506    6.6584    1.2122 N   0  0  0  0  0  0  0  0  0  0  0  0
    7.2462    8.7993    1.1716 N   0  0  0  0  0  0  0  0  0  0  0  0
    7.1292    9.7225    1.4930 H   0  0  0  0  0  0  0  0  0  0  0  0
    9.5194    8.8703    1.6852 C   0  0  0  0  0  0  0  0  0  0  0  0
    9.5475   10.3976    1.7755 C   0  0  0  0  0  0  0  0  0  0  0  0
   10.0709   11.0119    0.4924 C   0  0  0  0  0  0  0  0  0  0  0  0
    8.9712   10.7748   -0.4252 C   0  0  0  0  0  0  0  0  0  0  0  0
    8.7191    9.3272   -0.6377 C   0  0  0  0  0  0  0  0  0  0  0  0
    8.5253    8.4228    0.6515 C   0  0  0  0  0  0  0  0  0  0  0  0
    9.2547    9.1649    3.9671 O   0  0  0  0  0  0  0  0  0  0  0  0
    9.3264    8.2583    3.0296 C   0  0  0  0  0  0  0  0  0  0  0  0
    9.1754    7.0262    3.1189 O   0  0  0  0  0  0  0  0  0  0  0  0
    9.2555    6.4879    2.3562 H   0  0  0  0  0  0  0  0  0  0  0  0
    2.6544    7.9820    1.8689 N   0  0  0  0  0  0  0  0  0  0  0  0
    1.9998    7.5015    1.3122 H   0  0  0  0  0  0  0  0  0  0  0  0
    2.1006    8.9203    2.6620 C   0  0  0  0  0  0  0  0  0  0  0  0
    1.4269    8.6194    3.8336 C   0  0  0  0  0  0  0  0  0  0  0  0
    0.8408    9.6204    4.6498 C   0  0  0  0  0  0  0  0  0  0  0  0
    0.8732   10.9270    4.2753 C   0  0  0  0  0  0  0  0  0  0  0  0
    1.4005   11.2148    3.0560 C   0  0  0  0  0  0  0  0  0  0  0  0
    2.0364   10.2078    2.3353 C   0  0  0  0  0  0  0  0  0  0  0  0
    1.3507   12.6638    2.6114 C   0  0  0  0  0  0  0  0  0  0  0  0
    2.5856   13.3015    2.8186 N   0  0  0  0  0  0  0  0  0  0  0  0
    2.8141   13.2854    3.8125 H   0  0  0  0  0  0  0  0  0  0  0  0
    2.5269   14.2683    2.4988 H   0  0  0  0  0  0  0  0  0  0  0  0
 17 16  1  0  0  0
 17 18  1  0  0  0
 16 15  1  0  0  0
 15 14  1  0  0  0
 18 11  1  0  0  0
 18 13  1  0  0  0
 31 29  1  0  0  0
 31 32  1  0  0  0
 29 30  2  0  0  0
 29 28  1  0  0  0
 11  2  1  0  0  0
 30 25  1  0  0  0
 28 27  2  0  0  0
 13 14  1  0  0  0
 13 20  1  0  0  0
  3  2  2  0  0  0
  3  4  1  0  0  0
  2 10  1  0  0  0
 10  9  2  0  0  0
 25 23  1  0  0  0
 25 26  2  0  0  0
  4 23  1  0  0  0
  4  1  2  0  0  0
 27 26  1  0  0  0
  9  1  1  0  0  0
  9  8  1  0  0  0
  1  5  1  0  0  0
  8  7  2  0  0  0
  5  6  2  0  0  0
  7  6  1  0  0  0
 19 20  2  0  0  0
 20 21  1  0  0  0
 11 12  1  0  0  0
 21 22  1  0  0  0
 23 24  1  0  0  0
 32 33  1  0  0  0
 32 34  1  0  0  0
M  END
> <minimizedAffinity>
-8.77939

$$$$
6FUI_E7W_A_301


 34 37  0  0  0  0  0  0  0  0999 V2000
    5.5278    5.9287    1.5526 C   0  0  0  0  0  0  0  0  0  0  0  0
    4.0576    8.1234    1.6648 C   0  0  0  0  0  0  0  0  0  0  0  0
    5.3946    8.2120    1.6300 N   0  0  0  0  0  0  0  0  0  0  0  0
    6.2181    7.2215    1.6184 C   0  0  0  0  0  0  0  0  0  0  0  0
    6.2746    4.7599    1.4871 C   0  0  0  0  0  0  0  0  0  0  0  0
    5.5837    3.5148    1.3281 C   0  0  0  0  0  0  0  0  0  0  0  0
    4.1968    3.4443    1.2270 C   0  0  0  0  0  0  0  0  0  0  0  0
    3.4499    4.5804    1.2628 C   0  0  0  0  0  0  0  0  0  0  0  0
    4.1093    5.8513    1.5123 C   0  0  0  0  0  0  0  0  0  0  0  0
    3.3584    6.9369    1.4547 N   0  0  0  0  0  0  0  0  0  0  0  0
    3.2336    9.1483    1.6397 N   0  0  0  0  0  0  0  0  0  0  0  0
    2.6378    9.2460    0.8621 H   0  0  0  0  0  0  0  0  0  0  0  0
    1.6897   10.2573    2.9899 C   0  0  0  0  0  0  0  0  0  0  0  0
    0.9395   10.8591    1.7997 C   0  0  0  0  0  0  0  0  0  0  0  0
    1.3731   12.2892    1.5462 C   0  0  0  0  0  0  0  0  0  0  0  0
    2.7105   12.1079    1.0113 C   0  0  0  0  0  0  0  0  0  0  0  0
    3.6286   11.4806    1.9951 C   0  0  0  0  0  0  0  0  0  0  0  0
    3.1539   10.1296    2.6785 C   0  0  0  0  0  0  0  0  0  0  0  0
    0.9710    8.9314    4.7475 O   0  0  0  0  0  0  0  0  0  0  0  0
    1.0452    8.9937    3.4451 C   0  0  0  0  0  0  0  0  0  0  0  0
    0.5897    8.2056    2.5964 O   0  0  0  0  0  0  0  0  0  0  0  0
    0.7178    8.3745    1.6837 H   0  0  0  0  0  0  0  0  0  0  0  0
    7.5902    7.3456    1.7319 N   0  0  0  0  0  0  0  0  0  0  0  0
    8.0681    6.4863    1.6818 H   0  0  0  0  0  0  0  0  0  0  0  0
    8.4055    8.4059    1.8974 C   0  0  0  0  0  0  0  0  0  0  0  0
    9.3830    8.7589    0.9824 C   0  0  0  0  0  0  0  0  0  0  0  0
   10.2392    9.8724    1.1794 C   0  0  0  0  0  0  0  0  0  0  0  0
   10.1651   10.6109    2.3186 C   0  0  0  0  0  0  0  0  0  0  0  0
    9.3121   10.1830    3.2864 C   0  0  0  0  0  0  0  0  0  0  0  0
    8.4367    9.1372    3.0076 C   0  0  0  0  0  0  0  0  0  0  0  0
    9.3028   10.9631    4.5869 C   0  0  0  0  0  0  0  0  0  0  0  0
    9.0369   10.1230    5.6814 N   0  0  0  0  0  0  0  0  0  0  0  0
    8.1187    9.6941    5.5656 H   0  0  0  0  0  0  0  0  0  0  0  0
    9.0503   10.6708    6.5416 H   0  0  0  0  0  0  0  0  0  0  0  0
 17 16  1  0  0  0
 17 18  1  0  0  0
 16 15  1  0  0  0
 15 14  1  0  0  0
 18 11  1  0  0  0
 18 13  1  0  0  0
 31 29  1  0  0  0
 31 32  1  0  0  0
 29 30  2  0  0  0
 29 28  1  0  0  0
 11  2  1  0  0  0
 30 25  1  0  0  0
 28 27  2  0  0  0
 13 14  1  0  0  0
 13 20  1  0  0  0
  3  2  2  0  0  0
  3  4  1  0  0  0
  2 10  1  0  0  0
 10  9  2  0  0  0
 25 23  1  0  0  0
 25 26  2  0  0  0
  4 23  1  0  0  0
  4  1  2  0  0  0
 27 26  1  0  0  0
  9  1  1  0  0  0
  9  8  1  0  0  0
  1  5  1  0  0  0
  8  7  2  0  0  0
  5  6  2  0  0  0
  7  6  1  0  0  0
 19 20  2  0  0  0
 20 21  1  0  0  0
 11 12  1  0  0  0
 21 22  1  0  0  0
 23 24  1  0  0  0
 32 33  1  0  0  0
 32 34  1  0  0  0
M  END
> <minimizedAffinity>
-8.18628

$$$$
6FUI_E7W_A_301


 34 37  0  0  0  0  0  0  0  0999 V2000
    5.1286    8.9397    1.0153 C   0  0  0  0  0  0  0  0  0  0  0  0
    2.9757    9.7265    2.3333 C   0  0  0  0  0  0  0  0  0  0  0  0
    3.0411    8.4839    1.8351 N   0  0  0  0  0  0  0  0  0  0  0  0
    4.0111    7.9975    1.1408 C   0  0  0  0  0  0  0  0  0  0  0  0
    6.2741    8.5514    0.3333 C   0  0  0  0  0  0  0  0  0  0  0  0
    7.3896    9.4499    0.3029 C   0  0  0  0  0  0  0  0  0  0  0  0
    7.3628   10.6868    0.9417 C   0  0  0  0  0  0  0  0  0  0  0  0
    6.2595   11.0738    1.6367 C   0  0  0  0  0  0  0  0  0  0  0  0
    5.0782   10.2275    1.6142 C   0  0  0  0  0  0  0  0  0  0  0  0
    4.0606   10.5998    2.3702 N   0  0  0  0  0  0  0  0  0  0  0  0
    1.9910   10.1918    3.0708 N   0  0  0  0  0  0  0  0  0  0  0  0
    1.9579   11.1605    3.2433 H   0  0  0  0  0  0  0  0  0  0  0  0
   -0.3269   10.0479    3.2780 C   0  0  0  0  0  0  0  0  0  0  0  0
   -0.4409   11.3960    3.9931 C   0  0  0  0  0  0  0  0  0  0  0  0
   -0.5431   11.2121    5.4942 C   0  0  0  0  0  0  0  0  0  0  0  0
    0.8030   10.7905    5.8380 C   0  0  0  0  0  0  0  0  0  0  0  0
    1.1653    9.4971    5.2056 C   0  0  0  0  0  0  0  0  0  0  0  0
    0.9650    9.3701    3.6367 C   0  0  0  0  0  0  0  0  0  0  0  0
   -1.2418   11.2759    1.5405 O   0  0  0  0  0  0  0  0  0  0  0  0
   -0.5570   10.1978    1.8139 C   0  0  0  0  0  0  0  0  0  0  0  0
   -0.0366    9.3817    1.0316 O   0  0  0  0  0  0  0  0  0  0  0  0
    0.4320    8.6434    1.3683 H   0  0  0  0  0  0  0  0  0  0  0  0
    3.9832    6.7640    0.5173 N   0  0  0  0  0  0  0  0  0  0  0  0
    3.5929    6.7890   -0.3863 H   0  0  0  0  0  0  0  0  0  0  0  0
    4.3825    5.5342    0.8971 C   0  0  0  0  0  0  0  0  0  0  0  0
    5.6302    5.2778    1.4400 C   0  0  0  0  0  0  0  0  0  0  0  0
    6.0368    3.9742    1.8237 C   0  0  0  0  0  0  0  0  0  0  0  0
    5.2225    2.9052    1.6172 C   0  0  0  0  0  0  0  0  0  0  0  0
    4.0591    3.1254    0.9497 C   0  0  0  0  0  0  0  0  0  0  0  0
    3.6714    4.4333    0.6722 C   0  0  0  0  0  0  0  0  0  0  0  0
    3.2012    1.9120    0.6472 C   0  0  0  0  0  0  0  0  0  0  0  0
    1.8905    2.0852    1.1230 N   0  0  0  0  0  0  0  0  0  0  0  0
    1.9101    2.2117    2.1350 H   0  0  0  0  0  0  0  0  0  0  0  0
    1.3341    1.2615    0.8942 H   0  0  0  0  0  0  0  0  0  0  0  0
 17 16  1  0  0  0
 17 18  1  0  0  0
 16 15  1  0  0  0
 15 14  1  0  0  0
 18 11  1  0  0  0
 18 13  1  0  0  0
 31 29  1  0  0  0
 31 32  1  0  0  0
 29 30  2  0  0  0
 29 28  1  0  0  0
 11  2  1  0  0  0
 30 25  1  0  0  0
 28 27  2  0  0  0
 13 14  1  0  0  0
 13 20  1  0  0  0
  3  2  2  0  0  0
  3  4  1  0  0  0
  2 10  1  0  0  0
 10  9  2  0  0  0
 25 23  1  0  0  0
 25 26  2  0  0  0
  4 23  1  0  0  0
  4  1  2  0  0  0
 27 26  1  0  0  0
  9  1  1  0  0  0
  9  8  1  0  0  0
  1  5  1  0  0  0
  8  7  2  0  0  0
  5  6  2  0  0  0
  7  6  1  0  0  0
 19 20  2  0  0  0
 20 21  1  0  0  0
 11 12  1  0  0  0
 21 22  1  0  0  0
 23 24  1  0  0  0
 32 33  1  0  0  0
 32 34  1  0  0  0
M  END
> <minimizedAffinity>
-7.47559

$$$$
6FUI_E7W_A_301


 34 37  0  0  0  0  0  0  0  0999 V2000
    4.5252    8.5755    1.6579 C   0  0  0  0  0  0  0  0  0  0  0  0
    6.4963   10.3378    1.6520 C   0  0  0  0  0  0  0  0  0  0  0  0
    5.2336   10.7434    1.8463 N   0  0  0  0  0  0  0  0  0  0  0  0
    4.1869    9.9928    1.8284 C   0  0  0  0  0  0  0  0  0  0  0  0
    3.5108    7.6273    1.6627 C   0  0  0  0  0  0  0  0  0  0  0  0
    3.8690    6.2420    1.5900 C   0  0  0  0  0  0  0  0  0  0  0  0
    5.1950    5.8216    1.5262 C   0  0  0  0  0  0  0  0  0  0  0  0
    6.2034    6.7341    1.5467 C   0  0  0  0  0  0  0  0  0  0  0  0
    5.8750    8.1497    1.5299 C   0  0  0  0  0  0  0  0  0  0  0  0
    6.8815    8.9991    1.6358 N   0  0  0  0  0  0  0  0  0  0  0  0
    7.5551   11.1159    1.7102 N   0  0  0  0  0  0  0  0  0  0  0  0
    7.4171   12.0754    1.8821 H   0  0  0  0  0  0  0  0  0  0  0  0
    9.6345   11.1023    2.7647 C   0  0  0  0  0  0  0  0  0  0  0  0
    9.7348   12.6290    2.7940 C   0  0  0  0  0  0  0  0  0  0  0  0
   10.5922   13.1428    1.6545 C   0  0  0  0  0  0  0  0  0  0  0  0
    9.7366   12.9092    0.5051 C   0  0  0  0  0  0  0  0  0  0  0  0
    9.4544   11.4663    0.2989 C   0  0  0  0  0  0  0  0  0  0  0  0
    8.8964   10.6472    1.5379 C   0  0  0  0  0  0  0  0  0  0  0  0
    8.8195   11.5404    4.8879 O   0  0  0  0  0  0  0  0  0  0  0  0
    9.0821   10.5779    4.0450 C   0  0  0  0  0  0  0  0  0  0  0  0
    8.8564    9.3588    4.1537 O   0  0  0  0  0  0  0  0  0  0  0  0
    9.1004    8.7738    3.4636 H   0  0  0  0  0  0  0  0  0  0  0  0
    2.8880   10.4627    1.8848 N   0  0  0  0  0  0  0  0  0  0  0  0
    2.7519   11.3024    1.3891 H   0  0  0  0  0  0  0  0  0  0  0  0
    1.7706   10.0029    2.4816 C   0  0  0  0  0  0  0  0  0  0  0  0
    1.7165    9.6539    3.8204 C   0  0  0  0  0  0  0  0  0  0  0  0
    0.5336    9.1612    4.4283 C   0  0  0  0  0  0  0  0  0  0  0  0
   -0.5917    8.9592    3.6925 C   0  0  0  0  0  0  0  0  0  0  0  0
   -0.5048    9.1572    2.3505 C   0  0  0  0  0  0  0  0  0  0  0  0
    0.6522    9.7206    1.8198 C   0  0  0  0  0  0  0  0  0  0  0  0
   -1.7404    8.8435    1.5291 C   0  0  0  0  0  0  0  0  0  0  0  0
   -1.4898    8.9981    0.1552 N   0  0  0  0  0  0  0  0  0  0  0  0
   -1.2227    9.9640   -0.0351 H   0  0  0  0  0  0  0  0  0  0  0  0
   -2.3321    8.7680   -0.3721 H   0  0  0  0  0  0  0  0  0  0  0  0
 17 16  1  0  0  0
 17 18  1  0  0  0
 16 15  1  0  0  0
 15 14  1  0  0  0
 18 11  1  0  0  0
 18 13  1  0  0  0
 31 29  1  0  0  0
 31 32  1  0  0  0
 29 30  2  0  0  0
 29 28  1  0  0  0
 11  2  1  0  0  0
 30 25  1  0  0  0
 28 27  2  0  0  0
 13 14  1  0  0  0
 13 20  1  0  0  0
  3  2  2  0  0  0
  3  4  1  0  0  0
  2 10  1  0  0  0
 10  9  2  0  0  0
 25 23  1  0  0  0
 25 26  2  0  0  0
  4 23  1  0  0  0
  4  1  2  0  0  0
 27 26  1  0  0  0
  9  1  1  0  0  0
  9  8  1  0  0  0
  1  5  1  0  0  0
  8  7  2  0  0  0
  5  6  2  0  0  0
  7  6  1  0  0  0
 19 20  2  0  0  0
 20 21  1  0  0  0
 11 12  1  0  0  0
 21 22  1  0  0  0
 23 24  1  0  0  0
 32 33  1  0  0  0
 32 34  1  0  0  0
M  END
> <minimizedAffinity>
-7.38778

$$$$
