4NGN_J96_A_819


 30 29  0  0  0  0  0  0  0  0999 V2000
  -18.8632  -19.6366  -43.2726 N   0  0  0  0  0  0  0  0  0  0  0  0
  -17.8203  -20.3563  -42.8303 C   0  0  0  0  0  0  0  0  0  0  0  0
  -17.5757  -21.4986  -43.2767 O   0  0  0  0  0  0  0  0  0  0  0  0
  -16.9637  -19.7735  -41.9673 N   0  0  0  0  0  0  0  0  0  0  0  0
  -19.0212  -18.7545  -42.8650 H   0  0  0  0  0  0  0  0  0  0  0  0
  -16.8843  -18.7951  -41.8914 H   0  0  0  0  0  0  0  0  0  0  0  0
  -19.7673  -20.0749  -44.3080 C   0  0  0  0  0  0  0  0  0  0  0  0
  -19.8270  -18.9826  -45.3558 C   0  0  0  0  0  0  0  0  0  0  0  0
  -19.2653  -17.8976  -45.1576 O   0  0  0  0  0  0  0  0  0  0  0  0
  -20.3836  -19.2340  -46.4841 O   0  0  0  0  0  0  0  0  0  0  0  0
  -18.8616  -17.7233  -44.3302 H   0  0  0  0  0  0  0  0  0  0  0  0
  -21.1420  -20.2108  -43.6238 C   0  0  0  0  0  0  0  0  0  0  0  0
  -21.4681  -19.3047  -42.4606 C   0  0  0  0  0  0  0  0  0  0  0  0
  -23.0118  -19.2369  -42.3085 C   0  0  0  0  0  0  0  0  0  0  0  0
  -23.5633  -19.7439  -40.9627 C   0  0  0  0  0  0  0  0  0  0  0  0
  -25.0267  -20.8154  -38.7893 O   0  0  0  0  0  0  0  0  0  0  0  0
  -25.4543  -20.8984  -39.9339 C   0  0  0  0  0  0  0  0  0  0  0  0
  -24.7072  -20.6765  -41.0146 N   0  0  0  0  0  0  0  0  0  0  0  0
  -24.9202  -21.1393  -41.8570 H   0  0  0  0  0  0  0  0  0  0  0  0
  -16.1570  -20.6854  -41.1479 C   0  0  0  0  0  0  0  0  0  0  0  0
  -16.6635  -20.6583  -39.7200 C   0  0  0  0  0  0  0  0  0  0  0  0
  -17.8573  -20.4900  -39.3571 O   0  0  0  0  0  0  0  0  0  0  0  0
  -15.7367  -20.8662  -38.7807 O   0  0  0  0  0  0  0  0  0  0  0  0
  -14.8415  -20.9941  -39.0260 H   0  0  0  0  0  0  0  0  0  0  0  0
  -14.6462  -20.3356  -41.1217 C   0  0  0  0  0  0  0  0  0  0  0  0
  -14.5084  -18.8260  -41.4684 C   0  0  0  0  0  0  0  0  0  0  0  0
  -14.0427  -17.9797  -40.3299 C   0  0  0  0  0  0  0  0  0  0  0  0
  -13.9616  -18.4224  -39.1620 O   0  0  0  0  0  0  0  0  0  0  0  0
  -13.6686  -16.7501  -40.5086 O   0  0  0  0  0  0  0  0  0  0  0  0
  -13.7085  -16.3677  -41.3631 H   0  0  0  0  0  0  0  0  0  0  0  0
 16 17  2  0  0  0
 17 18  1  0  0  0
 18 15  1  0  0  0
 15 14  1  0  0  0
 14 13  1  0  0  0
 13 12  1  0  0  0
 12  7  1  0  0  0
  7  1  1  0  0  0
  7  8  1  0  0  0
  1  2  1  0  0  0
  2  3  2  0  0  0
  2  4  1  0  0  0
  4 20  1  0  0  0
 20 21  1  0  0  0
 20 25  1  0  0  0
 21 22  2  0  0  0
 21 23  1  0  0  0
 25 26  1  0  0  0
 26 27  1  0  0  0
 27 28  2  0  0  0
 27 29  1  0  0  0
  8  9  1  0  0  0
  8 10  2  0  0  0
 18 19  1  0  0  0
  1  5  1  0  0  0
  4  6  1  0  0  0
 23 24  1  0  0  0
 29 30  1  0  0  0
  9 11  1  0  0  0
M  END
> <minimizedAffinity>
-9.29312

$$$$
4NGN_J96_A_819


 30 29  0  0  0  0  0  0  0  0999 V2000
  -18.7894  -19.5980  -43.2865 N   0  0  0  0  0  0  0  0  0  0  0  0
  -17.7536  -20.3222  -42.8351 C   0  0  0  0  0  0  0  0  0  0  0  0
  -17.5239  -21.4748  -43.2625 O   0  0  0  0  0  0  0  0  0  0  0  0
  -16.8874  -19.7349  -41.9849 N   0  0  0  0  0  0  0  0  0  0  0  0
  -18.9357  -18.7072  -42.8937 H   0  0  0  0  0  0  0  0  0  0  0  0
  -16.7962  -18.7564  -41.9261 H   0  0  0  0  0  0  0  0  0  0  0  0
  -19.7019  -20.0433  -44.3115 C   0  0  0  0  0  0  0  0  0  0  0  0
  -19.7680  -18.9594  -45.3676 C   0  0  0  0  0  0  0  0  0  0  0  0
  -19.1860  -17.8813  -45.1914 O   0  0  0  0  0  0  0  0  0  0  0  0
  -20.3526  -19.2122  -46.4813 O   0  0  0  0  0  0  0  0  0  0  0  0
  -18.7620  -17.7059  -44.3744 H   0  0  0  0  0  0  0  0  0  0  0  0
  -21.0716  -20.1716  -43.6159 C   0  0  0  0  0  0  0  0  0  0  0  0
  -21.5469  -19.0432  -42.7321 C   0  0  0  0  0  0  0  0  0  0  0  0
  -22.6958  -19.5741  -41.8328 C   0  0  0  0  0  0  0  0  0  0  0  0
  -24.1045  -19.4973  -42.4509 C   0  0  0  0  0  0  0  0  0  0  0  0
  -24.2851  -19.8673  -45.2517 O   0  0  0  0  0  0  0  0  0  0  0  0
  -24.3796  -20.8190  -44.4867 C   0  0  0  0  0  0  0  0  0  0  0  0
  -24.5851  -20.6904  -43.1765 N   0  0  0  0  0  0  0  0  0  0  0  0
  -25.0625  -21.3985  -42.6868 H   0  0  0  0  0  0  0  0  0  0  0  0
  -16.0888  -20.6421  -41.1523 C   0  0  0  0  0  0  0  0  0  0  0  0
  -16.6190  -20.6184  -39.7330 C   0  0  0  0  0  0  0  0  0  0  0  0
  -17.8144  -20.4248  -39.3885 O   0  0  0  0  0  0  0  0  0  0  0  0
  -15.7139  -20.8595  -38.7806 O   0  0  0  0  0  0  0  0  0  0  0  0
  -14.8180  -21.0067  -39.0122 H   0  0  0  0  0  0  0  0  0  0  0  0
  -14.5808  -20.2831  -41.1011 C   0  0  0  0  0  0  0  0  0  0  0  0
  -14.4463  -18.7730  -41.4472 C   0  0  0  0  0  0  0  0  0  0  0  0
  -13.9950  -17.9242  -40.3048 C   0  0  0  0  0  0  0  0  0  0  0  0
  -13.6587  -16.7283  -40.4573 O   0  0  0  0  0  0  0  0  0  0  0  0
  -13.9626  -18.3829  -39.0915 O   0  0  0  0  0  0  0  0  0  0  0  0
  -14.2045  -19.2718  -38.9200 H   0  0  0  0  0  0  0  0  0  0  0  0
 16 17  2  0  0  0
 17 18  1  0  0  0
 18 15  1  0  0  0
 15 14  1  0  0  0
 14 13  1  0  0  0
 13 12  1  0  0  0
 12  7  1  0  0  0
  7  1  1  0  0  0
  7  8  1  0  0  0
  1  2  1  0  0  0
  2  3  2  0  0  0
  2  4  1  0  0  0
  4 20  1  0  0  0
 20 21  1  0  0  0
 20 25  1  0  0  0
 21 22  2  0  0  0
 21 23  1  0  0  0
 25 26  1  0  0  0
 26 27  1  0  0  0
 27 28  2  0  0  0
 27 29  1  0  0  0
  8  9  1  0  0  0
  8 10  2  0  0  0
 18 19  1  0  0  0
  1  5  1  0  0  0
  4  6  1  0  0  0
 23 24  1  0  0  0
 29 30  1  0  0  0
  9 11  1  0  0  0
M  END
> <minimizedAffinity>
-9.26520

$$$$
4NGN_J96_A_819


 30 29  0  0  0  0  0  0  0  0999 V2000
  -18.9437  -19.6227  -43.2631 N   0  0  0  0  0  0  0  0  0  0  0  0
  -17.8944  -20.3432  -42.8380 C   0  0  0  0  0  0  0  0  0  0  0  0
  -17.6613  -21.4880  -43.2842 O   0  0  0  0  0  0  0  0  0  0  0  0
  -17.0199  -19.7592  -41.9939 N   0  0  0  0  0  0  0  0  0  0  0  0
  -19.0916  -18.7385  -42.8562 H   0  0  0  0  0  0  0  0  0  0  0  0
  -16.9365  -18.7807  -41.9237 H   0  0  0  0  0  0  0  0  0  0  0  0
  -19.8685  -20.0628  -44.2792 C   0  0  0  0  0  0  0  0  0  0  0  0
  -19.8000  -19.0701  -45.4214 C   0  0  0  0  0  0  0  0  0  0  0  0
  -19.2334  -17.9806  -45.2668 O   0  0  0  0  0  0  0  0  0  0  0  0
  -20.2510  -19.4149  -46.5719 O   0  0  0  0  0  0  0  0  0  0  0  0
  -18.9073  -17.7377  -44.4227 H   0  0  0  0  0  0  0  0  0  0  0  0
  -21.2620  -20.0000  -43.6227 C   0  0  0  0  0  0  0  0  0  0  0  0
  -21.5206  -18.9547  -42.5641 C   0  0  0  0  0  0  0  0  0  0  0  0
  -22.7858  -18.1500  -42.9671 C   0  0  0  0  0  0  0  0  0  0  0  0
  -22.5932  -17.1609  -44.1320 C   0  0  0  0  0  0  0  0  0  0  0  0
  -22.4930  -14.4311  -44.8748 O   0  0  0  0  0  0  0  0  0  0  0  0
  -21.6033  -14.9287  -44.1960 C   0  0  0  0  0  0  0  0  0  0  0  0
  -21.4395  -16.2428  -44.0492 N   0  0  0  0  0  0  0  0  0  0  0  0
  -20.5394  -16.6058  -43.8838 H   0  0  0  0  0  0  0  0  0  0  0  0
  -16.1999  -20.6699  -41.1864 C   0  0  0  0  0  0  0  0  0  0  0  0
  -16.6960  -20.6559  -39.7546 C   0  0  0  0  0  0  0  0  0  0  0  0
  -17.8875  -20.4933  -39.3816 O   0  0  0  0  0  0  0  0  0  0  0  0
  -15.7619  -20.8696  -38.8239 O   0  0  0  0  0  0  0  0  0  0  0  0
  -14.8682  -20.9934  -39.0768 H   0  0  0  0  0  0  0  0  0  0  0  0
  -14.6918  -20.3082  -41.1691 C   0  0  0  0  0  0  0  0  0  0  0  0
  -14.5706  -18.7880  -41.4728 C   0  0  0  0  0  0  0  0  0  0  0  0
  -14.0810  -17.9739  -40.3210 C   0  0  0  0  0  0  0  0  0  0  0  0
  -13.9936  -18.4436  -39.1642 O   0  0  0  0  0  0  0  0  0  0  0  0
  -13.6916  -16.7458  -40.4764 O   0  0  0  0  0  0  0  0  0  0  0  0
  -13.7353  -16.3439  -41.3217 H   0  0  0  0  0  0  0  0  0  0  0  0
 16 17  2  0  0  0
 17 18  1  0  0  0
 18 15  1  0  0  0
 15 14  1  0  0  0
 14 13  1  0  0  0
 13 12  1  0  0  0
 12  7  1  0  0  0
  7  1  1  0  0  0
  7  8  1  0  0  0
  1  2  1  0  0  0
  2  3  2  0  0  0
  2  4  1  0  0  0
  4 20  1  0  0  0
 20 21  1  0  0  0
 20 25  1  0  0  0
 21 22  2  0  0  0
 21 23  1  0  0  0
 25 26  1  0  0  0
 26 27  1  0  0  0
 27 28  2  0  0  0
 27 29  1  0  0  0
  8  9  1  0  0  0
  8 10  2  0  0  0
 18 19  1  0  0  0
  1  5  1  0  0  0
  4  6  1  0  0  0
 23 24  1  0  0  0
 29 30  1  0  0  0
  9 11  1  0  0  0
M  END
> <minimizedAffinity>
-9.21813

$$$$
4NGN_J96_A_819


 30 29  0  0  0  0  0  0  0  0999 V2000
  -18.7986  -19.8455  -43.9541 N   0  0  0  0  0  0  0  0  0  0  0  0
  -17.9918  -20.4458  -43.0654 C   0  0  0  0  0  0  0  0  0  0  0  0
  -18.2927  -21.5410  -42.5422 O   0  0  0  0  0  0  0  0  0  0  0  0
  -16.7833  -19.8964  -42.8288 N   0  0  0  0  0  0  0  0  0  0  0  0
  -18.5213  -18.9715  -44.3125 H   0  0  0  0  0  0  0  0  0  0  0  0
  -16.3514  -19.2887  -43.4717 H   0  0  0  0  0  0  0  0  0  0  0  0
  -20.0471  -20.4009  -44.4171 C   0  0  0  0  0  0  0  0  0  0  0  0
  -20.0442  -20.3346  -45.9304 C   0  0  0  0  0  0  0  0  0  0  0  0
  -19.9712  -21.3734  -46.5995 O   0  0  0  0  0  0  0  0  0  0  0  0
  -20.2150  -19.1992  -46.5027 O   0  0  0  0  0  0  0  0  0  0  0  0
  -19.8463  -22.1980  -46.1724 H   0  0  0  0  0  0  0  0  0  0  0  0
  -21.1431  -19.4702  -43.8610 C   0  0  0  0  0  0  0  0  0  0  0  0
  -22.3971  -20.0852  -43.2871 C   0  0  0  0  0  0  0  0  0  0  0  0
  -22.6718  -19.4391  -41.9022 C   0  0  0  0  0  0  0  0  0  0  0  0
  -23.8711  -20.0211  -41.1307 C   0  0  0  0  0  0  0  0  0  0  0  0
  -26.0946  -18.2735  -41.0070 O   0  0  0  0  0  0  0  0  0  0  0  0
  -25.5534  -18.6721  -39.9832 C   0  0  0  0  0  0  0  0  0  0  0  0
  -24.3552  -19.2545  -39.9650 N   0  0  0  0  0  0  0  0  0  0  0  0
  -23.7864  -19.1730  -39.1656 H   0  0  0  0  0  0  0  0  0  0  0  0
  -16.1506  -20.2591  -41.5552 C   0  0  0  0  0  0  0  0  0  0  0  0
  -16.9992  -19.7464  -40.4092 C   0  0  0  0  0  0  0  0  0  0  0  0
  -17.2702  -18.5414  -40.1652 O   0  0  0  0  0  0  0  0  0  0  0  0
  -17.5205  -20.6881  -39.6180 O   0  0  0  0  0  0  0  0  0  0  0  0
  -17.3333  -21.5919  -39.7795 H   0  0  0  0  0  0  0  0  0  0  0  0
  -14.7202  -19.6859  -41.3792 C   0  0  0  0  0  0  0  0  0  0  0  0
  -14.6134  -19.1280  -39.9317 C   0  0  0  0  0  0  0  0  0  0  0  0
  -13.8018  -17.8799  -39.8183 C   0  0  0  0  0  0  0  0  0  0  0  0
  -13.8826  -16.9556  -40.6584 O   0  0  0  0  0  0  0  0  0  0  0  0
  -12.9962  -17.6841  -38.8201 O   0  0  0  0  0  0  0  0  0  0  0  0
  -12.8972  -18.3434  -38.1617 H   0  0  0  0  0  0  0  0  0  0  0  0
 16 17  2  0  0  0
 17 18  1  0  0  0
 18 15  1  0  0  0
 15 14  1  0  0  0
 14 13  1  0  0  0
 13 12  1  0  0  0
 12  7  1  0  0  0
  7  1  1  0  0  0
  7  8  1  0  0  0
  1  2  1  0  0  0
  2  3  2  0  0  0
  2  4  1  0  0  0
  4 20  1  0  0  0
 20 21  1  0  0  0
 20 25  1  0  0  0
 21 22  2  0  0  0
 21 23  1  0  0  0
 25 26  1  0  0  0
 26 27  1  0  0  0
 27 28  2  0  0  0
 27 29  1  0  0  0
  8  9  1  0  0  0
  8 10  2  0  0  0
 18 19  1  0  0  0
  1  5  1  0  0  0
  4  6  1  0  0  0
 23 24  1  0  0  0
 29 30  1  0  0  0
  9 11  1  0  0  0
M  END
> <minimizedAffinity>
-8.05456

$$$$
4NGN_J96_A_819


 30 29  0  0  0  0  0  0  0  0999 V2000
  -18.8585  -20.0833  -44.0044 N   0  0  0  0  0  0  0  0  0  0  0  0
  -17.9572  -20.5527  -43.1277 C   0  0  0  0  0  0  0  0  0  0  0  0
  -18.0678  -21.6899  -42.6193 O   0  0  0  0  0  0  0  0  0  0  0  0
  -16.8558  -19.8127  -42.8879 N   0  0  0  0  0  0  0  0  0  0  0  0
  -18.7331  -19.1705  -44.3511 H   0  0  0  0  0  0  0  0  0  0  0  0
  -16.5354  -19.1326  -43.5235 H   0  0  0  0  0  0  0  0  0  0  0  0
  -19.9997  -20.8330  -44.4705 C   0  0  0  0  0  0  0  0  0  0  0  0
  -20.0939  -20.6380  -45.9697 C   0  0  0  0  0  0  0  0  0  0  0  0
  -19.8524  -19.5322  -46.4707 O   0  0  0  0  0  0  0  0  0  0  0  0
  -20.3321  -21.6551  -46.7145 O   0  0  0  0  0  0  0  0  0  0  0  0
  -19.6797  -18.7953  -45.9183 H   0  0  0  0  0  0  0  0  0  0  0  0
  -21.2224  -20.1886  -43.7875 C   0  0  0  0  0  0  0  0  0  0  0  0
  -22.5887  -20.7836  -44.0306 C   0  0  0  0  0  0  0  0  0  0  0  0
  -23.6450  -19.8953  -43.3194 C   0  0  0  0  0  0  0  0  0  0  0  0
  -23.9312  -18.5424  -43.9978 C   0  0  0  0  0  0  0  0  0  0  0  0
  -26.4655  -17.5308  -43.2443 O   0  0  0  0  0  0  0  0  0  0  0  0
  -26.1942  -17.7265  -44.4225 C   0  0  0  0  0  0  0  0  0  0  0  0
  -25.1511  -18.4511  -44.8251 N   0  0  0  0  0  0  0  0  0  0  0  0
  -25.1941  -18.9311  -45.6836 H   0  0  0  0  0  0  0  0  0  0  0  0
  -16.1635  -20.0821  -41.6222 C   0  0  0  0  0  0  0  0  0  0  0  0
  -17.0217  -19.6032  -40.4687 C   0  0  0  0  0  0  0  0  0  0  0  0
  -17.5345  -20.3246  -39.5734 O   0  0  0  0  0  0  0  0  0  0  0  0
  -17.2085  -18.2820  -40.4053 O   0  0  0  0  0  0  0  0  0  0  0  0
  -16.8368  -17.7243  -41.0601 H   0  0  0  0  0  0  0  0  0  0  0  0
  -14.7806  -19.3899  -41.5035 C   0  0  0  0  0  0  0  0  0  0  0  0
  -14.4533  -19.2527  -39.9895 C   0  0  0  0  0  0  0  0  0  0  0  0
  -13.9360  -17.9081  -39.5975 C   0  0  0  0  0  0  0  0  0  0  0  0
  -12.9191  -17.7698  -38.8811 O   0  0  0  0  0  0  0  0  0  0  0  0
  -14.5030  -16.8170  -40.0120 O   0  0  0  0  0  0  0  0  0  0  0  0
  -15.2677  -16.8622  -40.5516 H   0  0  0  0  0  0  0  0  0  0  0  0
 16 17  2  0  0  0
 17 18  1  0  0  0
 18 15  1  0  0  0
 15 14  1  0  0  0
 14 13  1  0  0  0
 13 12  1  0  0  0
 12  7  1  0  0  0
  7  1  1  0  0  0
  7  8  1  0  0  0
  1  2  1  0  0  0
  2  3  2  0  0  0
  2  4  1  0  0  0
  4 20  1  0  0  0
 20 21  1  0  0  0
 20 25  1  0  0  0
 21 22  2  0  0  0
 21 23  1  0  0  0
 25 26  1  0  0  0
 26 27  1  0  0  0
 27 28  2  0  0  0
 27 29  1  0  0  0
  8  9  1  0  0  0
  8 10  2  0  0  0
 18 19  1  0  0  0
  1  5  1  0  0  0
  4  6  1  0  0  0
 23 24  1  0  0  0
 29 30  1  0  0  0
  9 11  1  0  0  0
M  END
> <minimizedAffinity>
-7.71297

$$$$
4NGN_J96_A_819


 30 29  0  0  0  0  0  0  0  0999 V2000
  -22.2894  -17.4365  -44.3591 N   0  0  0  0  0  0  0  0  0  0  0  0
  -21.6241  -18.2716  -45.1723 C   0  0  0  0  0  0  0  0  0  0  0  0
  -21.3905  -17.9775  -46.3651 O   0  0  0  0  0  0  0  0  0  0  0  0
  -21.1063  -19.3986  -44.6433 N   0  0  0  0  0  0  0  0  0  0  0  0
  -22.4668  -17.7336  -43.4375 H   0  0  0  0  0  0  0  0  0  0  0  0
  -20.9228  -19.4867  -43.6801 H   0  0  0  0  0  0  0  0  0  0  0  0
  -22.7609  -16.1306  -44.7513 C   0  0  0  0  0  0  0  0  0  0  0  0
  -21.5805  -15.1827  -44.6971 C   0  0  0  0  0  0  0  0  0  0  0  0
  -20.4500  -15.6099  -44.4301 O   0  0  0  0  0  0  0  0  0  0  0  0
  -21.7546  -13.9547  -45.0252 O   0  0  0  0  0  0  0  0  0  0  0  0
  -20.3330  -16.5084  -44.1914 H   0  0  0  0  0  0  0  0  0  0  0  0
  -23.7963  -15.7286  -43.6822 C   0  0  0  0  0  0  0  0  0  0  0  0
  -23.7190  -16.3701  -42.3175 C   0  0  0  0  0  0  0  0  0  0  0  0
  -25.0554  -17.1130  -42.0475 C   0  0  0  0  0  0  0  0  0  0  0  0
  -24.9284  -18.4310  -41.2605 C   0  0  0  0  0  0  0  0  0  0  0  0
  -22.4718  -19.6133  -42.0226 O   0  0  0  0  0  0  0  0  0  0  0  0
  -23.5221  -20.2365  -42.1144 C   0  0  0  0  0  0  0  0  0  0  0  0
  -24.7235  -19.6647  -42.0459 N   0  0  0  0  0  0  0  0  0  0  0  0
  -25.4831  -20.0691  -42.5241 H   0  0  0  0  0  0  0  0  0  0  0  0
  -20.8327  -20.4862  -45.5900 C   0  0  0  0  0  0  0  0  0  0  0  0
  -21.9667  -21.4901  -45.5427 C   0  0  0  0  0  0  0  0  0  0  0  0
  -23.1944  -21.2312  -45.6464 O   0  0  0  0  0  0  0  0  0  0  0  0
  -21.5953  -22.7662  -45.4080 O   0  0  0  0  0  0  0  0  0  0  0  0
  -20.6874  -22.9840  -45.3290 H   0  0  0  0  0  0  0  0  0  0  0  0
  -19.5123  -21.2487  -45.3055 C   0  0  0  0  0  0  0  0  0  0  0  0
  -19.0316  -20.8398  -43.8843 C   0  0  0  0  0  0  0  0  0  0  0  0
  -17.5646  -21.0101  -43.6651 C   0  0  0  0  0  0  0  0  0  0  0  0
  -16.9193  -21.9488  -44.1839 O   0  0  0  0  0  0  0  0  0  0  0  0
  -16.8844  -20.1686  -42.9490 O   0  0  0  0  0  0  0  0  0  0  0  0
  -17.3173  -19.4466  -42.5373 H   0  0  0  0  0  0  0  0  0  0  0  0
 16 17  2  0  0  0
 17 18  1  0  0  0
 18 15  1  0  0  0
 15 14  1  0  0  0
 14 13  1  0  0  0
 13 12  1  0  0  0
 12  7  1  0  0  0
  7  1  1  0  0  0
  7  8  1  0  0  0
  1  2  1  0  0  0
  2  3  2  0  0  0
  2  4  1  0  0  0
  4 20  1  0  0  0
 20 21  1  0  0  0
 20 25  1  0  0  0
 21 22  2  0  0  0
 21 23  1  0  0  0
 25 26  1  0  0  0
 26 27  1  0  0  0
 27 28  2  0  0  0
 27 29  1  0  0  0
  8  9  1  0  0  0
  8 10  2  0  0  0
 18 19  1  0  0  0
  1  5  1  0  0  0
  4  6  1  0  0  0
 23 24  1  0  0  0
 29 30  1  0  0  0
  9 11  1  0  0  0
M  END
> <minimizedAffinity>
-7.66993

$$$$
4NGN_J96_A_819


 30 29  0  0  0  0  0  0  0  0999 V2000
  -23.9800  -19.8977  -42.2767 N   0  0  0  0  0  0  0  0  0  0  0  0
  -22.6945  -19.5987  -42.5196 C   0  0  0  0  0  0  0  0  0  0  0  0
  -21.8601  -19.4917  -41.5943 O   0  0  0  0  0  0  0  0  0  0  0  0
  -22.2883  -19.5264  -43.8034 N   0  0  0  0  0  0  0  0  0  0  0  0
  -24.5963  -19.9424  -43.0432 H   0  0  0  0  0  0  0  0  0  0  0  0
  -22.7801  -19.9697  -44.5321 H   0  0  0  0  0  0  0  0  0  0  0  0
  -24.5154  -20.1576  -40.9624 C   0  0  0  0  0  0  0  0  0  0  0  0
  -25.3041  -21.4488  -41.0367 C   0  0  0  0  0  0  0  0  0  0  0  0
  -25.9944  -21.8134  -40.0763 O   0  0  0  0  0  0  0  0  0  0  0  0
  -25.3207  -22.1038  -42.1397 O   0  0  0  0  0  0  0  0  0  0  0  0
  -25.9756  -21.3284  -39.2748 H   0  0  0  0  0  0  0  0  0  0  0  0
  -25.4711  -18.9843  -40.6678 C   0  0  0  0  0  0  0  0  0  0  0  0
  -24.8895  -17.6745  -40.1919 C   0  0  0  0  0  0  0  0  0  0  0  0
  -25.4537  -17.3716  -38.7775 C   0  0  0  0  0  0  0  0  0  0  0  0
  -25.5395  -18.5828  -37.8299 C   0  0  0  0  0  0  0  0  0  0  0  0
  -24.4505  -21.1852  -37.5942 O   0  0  0  0  0  0  0  0  0  0  0  0
  -23.7785  -20.1979  -37.3225 C   0  0  0  0  0  0  0  0  0  0  0  0
  -24.2972  -18.9843  -37.1397 N   0  0  0  0  0  0  0  0  0  0  0  0
  -23.8474  -18.3483  -36.5377 H   0  0  0  0  0  0  0  0  0  0  0  0
  -21.0691  -18.7472  -44.0490 C   0  0  0  0  0  0  0  0  0  0  0  0
  -21.3990  -17.5662  -44.9392 C   0  0  0  0  0  0  0  0  0  0  0  0
  -21.3853  -17.5567  -46.1982 O   0  0  0  0  0  0  0  0  0  0  0  0
  -21.7651  -16.4524  -44.2990 O   0  0  0  0  0  0  0  0  0  0  0  0
  -21.7832  -16.4349  -43.3623 H   0  0  0  0  0  0  0  0  0  0  0  0
  -19.9354  -19.5547  -44.7333 C   0  0  0  0  0  0  0  0  0  0  0  0
  -20.3887  -21.0409  -44.7935 C   0  0  0  0  0  0  0  0  0  0  0  0
  -20.8799  -21.4740  -46.1353 C   0  0  0  0  0  0  0  0  0  0  0  0
  -22.0907  -21.4239  -46.4482 O   0  0  0  0  0  0  0  0  0  0  0  0
  -20.0635  -21.8934  -47.0526 O   0  0  0  0  0  0  0  0  0  0  0  0
  -19.1458  -21.9508  -46.8723 H   0  0  0  0  0  0  0  0  0  0  0  0
 16 17  2  0  0  0
 17 18  1  0  0  0
 18 15  1  0  0  0
 15 14  1  0  0  0
 14 13  1  0  0  0
 13 12  1  0  0  0
 12  7  1  0  0  0
  7  1  1  0  0  0
  7  8  1  0  0  0
  1  2  1  0  0  0
  2  3  2  0  0  0
  2  4  1  0  0  0
  4 20  1  0  0  0
 20 21  1  0  0  0
 20 25  1  0  0  0
 21 22  2  0  0  0
 21 23  1  0  0  0
 25 26  1  0  0  0
 26 27  1  0  0  0
 27 28  2  0  0  0
 27 29  1  0  0  0
  8  9  1  0  0  0
  8 10  2  0  0  0
 18 19  1  0  0  0
  1  5  1  0  0  0
  4  6  1  0  0  0
 23 24  1  0  0  0
 29 30  1  0  0  0
  9 11  1  0  0  0
M  END
> <minimizedAffinity>
-7.62549

$$$$
4NGN_J96_A_819


 30 29  0  0  0  0  0  0  0  0999 V2000
  -24.7526  -19.4893  -40.7078 N   0  0  0  0  0  0  0  0  0  0  0  0
  -23.7114  -19.7105  -41.5251 C   0  0  0  0  0  0  0  0  0  0  0  0
  -22.5392  -19.7669  -41.0930 O   0  0  0  0  0  0  0  0  0  0  0  0
  -23.9651  -19.9873  -42.8202 N   0  0  0  0  0  0  0  0  0  0  0  0
  -25.6496  -19.4288  -41.1090 H   0  0  0  0  0  0  0  0  0  0  0  0
  -24.8374  -20.3326  -43.1189 H   0  0  0  0  0  0  0  0  0  0  0  0
  -24.6396  -19.3344  -39.2778 C   0  0  0  0  0  0  0  0  0  0  0  0
  -24.9572  -20.6740  -38.6460 C   0  0  0  0  0  0  0  0  0  0  0  0
  -25.7942  -21.4244  -39.1639 O   0  0  0  0  0  0  0  0  0  0  0  0
  -24.2788  -21.0562  -37.6264 O   0  0  0  0  0  0  0  0  0  0  0  0
  -26.2848  -21.1362  -39.9084 H   0  0  0  0  0  0  0  0  0  0  0  0
  -25.7227  -18.3090  -38.8879 C   0  0  0  0  0  0  0  0  0  0  0  0
  -25.2920  -16.9554  -38.3757 C   0  0  0  0  0  0  0  0  0  0  0  0
  -25.8507  -15.8676  -39.3324 C   0  0  0  0  0  0  0  0  0  0  0  0
  -25.1998  -15.8210  -40.7276 C   0  0  0  0  0  0  0  0  0  0  0  0
  -26.4042  -17.7773  -42.3817 O   0  0  0  0  0  0  0  0  0  0  0  0
  -26.7866  -16.6141  -42.4069 C   0  0  0  0  0  0  0  0  0  0  0  0
  -26.0971  -15.6030  -41.8801 N   0  0  0  0  0  0  0  0  0  0  0  0
  -26.1869  -14.7006  -42.2632 H   0  0  0  0  0  0  0  0  0  0  0  0
  -22.8627  -19.7429  -43.7577 C   0  0  0  0  0  0  0  0  0  0  0  0
  -23.2184  -18.5771  -44.6579 C   0  0  0  0  0  0  0  0  0  0  0  0
  -24.3117  -18.4076  -45.2588 O   0  0  0  0  0  0  0  0  0  0  0  0
  -22.2732  -17.6413  -44.7816 O   0  0  0  0  0  0  0  0  0  0  0  0
  -21.4512  -17.7449  -44.3439 H   0  0  0  0  0  0  0  0  0  0  0  0
  -22.5284  -20.9566  -44.6636 C   0  0  0  0  0  0  0  0  0  0  0  0
  -20.9799  -21.0484  -44.7721 C   0  0  0  0  0  0  0  0  0  0  0  0
  -20.4393  -20.6657  -46.1102 C   0  0  0  0  0  0  0  0  0  0  0  0
  -20.2858  -19.4705  -46.4483 O   0  0  0  0  0  0  0  0  0  0  0  0
  -20.0724  -21.5618  -46.9740 O   0  0  0  0  0  0  0  0  0  0  0  0
  -20.1651  -22.4723  -46.7727 H   0  0  0  0  0  0  0  0  0  0  0  0
 16 17  2  0  0  0
 17 18  1  0  0  0
 18 15  1  0  0  0
 15 14  1  0  0  0
 14 13  1  0  0  0
 13 12  1  0  0  0
 12  7  1  0  0  0
  7  1  1  0  0  0
  7  8  1  0  0  0
  1  2  1  0  0  0
  2  3  2  0  0  0
  2  4  1  0  0  0
  4 20  1  0  0  0
 20 21  1  0  0  0
 20 25  1  0  0  0
 21 22  2  0  0  0
 21 23  1  0  0  0
 25 26  1  0  0  0
 26 27  1  0  0  0
 27 28  2  0  0  0
 27 29  1  0  0  0
  8  9  1  0  0  0
  8 10  2  0  0  0
 18 19  1  0  0  0
  1  5  1  0  0  0
  4  6  1  0  0  0
 23 24  1  0  0  0
 29 30  1  0  0  0
  9 11  1  0  0  0
M  END
> <minimizedAffinity>
-7.58876

$$$$
4NGN_J96_A_819


 30 29  0  0  0  0  0  0  0  0999 V2000
  -23.7090  -19.6455  -42.4175 N   0  0  0  0  0  0  0  0  0  0  0  0
  -22.4003  -19.7840  -42.6806 C   0  0  0  0  0  0  0  0  0  0  0  0
  -21.5388  -19.7123  -41.7769 O   0  0  0  0  0  0  0  0  0  0  0  0
  -22.0340  -20.1192  -43.9343 N   0  0  0  0  0  0  0  0  0  0  0  0
  -24.3384  -19.6851  -43.1735 H   0  0  0  0  0  0  0  0  0  0  0  0
  -22.6552  -20.5571  -44.5600 H   0  0  0  0  0  0  0  0  0  0  0  0
  -24.2512  -19.4421  -41.0961 C   0  0  0  0  0  0  0  0  0  0  0  0
  -25.0316  -20.6863  -40.7251 C   0  0  0  0  0  0  0  0  0  0  0  0
  -25.1155  -21.6298  -41.5218 O   0  0  0  0  0  0  0  0  0  0  0  0
  -25.5190  -20.7841  -39.5424 O   0  0  0  0  0  0  0  0  0  0  0  0
  -24.7563  -21.5488  -42.3834 H   0  0  0  0  0  0  0  0  0  0  0  0
  -25.2157  -18.2465  -41.2264 C   0  0  0  0  0  0  0  0  0  0  0  0
  -25.0884  -17.0998  -40.2522 C   0  0  0  0  0  0  0  0  0  0  0  0
  -25.8983  -17.4486  -38.9744 C   0  0  0  0  0  0  0  0  0  0  0  0
  -25.0537  -17.7648  -37.7257 C   0  0  0  0  0  0  0  0  0  0  0  0
  -22.9052  -19.1622  -36.5237 O   0  0  0  0  0  0  0  0  0  0  0  0
  -24.0418  -19.6178  -36.4972 C   0  0  0  0  0  0  0  0  0  0  0  0
  -25.0309  -19.1690  -37.2688 N   0  0  0  0  0  0  0  0  0  0  0  0
  -25.7545  -19.7801  -37.5373 H   0  0  0  0  0  0  0  0  0  0  0  0
  -20.6536  -19.7917  -44.3098 C   0  0  0  0  0  0  0  0  0  0  0  0
  -20.6453  -19.1524  -45.6836 C   0  0  0  0  0  0  0  0  0  0  0  0
  -20.0604  -19.5953  -46.7068 O   0  0  0  0  0  0  0  0  0  0  0  0
  -21.3604  -18.0298  -45.7960 O   0  0  0  0  0  0  0  0  0  0  0  0
  -21.8048  -17.6805  -45.0487 H   0  0  0  0  0  0  0  0  0  0  0  0
  -19.7066  -21.0193  -44.3524 C   0  0  0  0  0  0  0  0  0  0  0  0
  -18.2503  -20.4934  -44.2082 C   0  0  0  0  0  0  0  0  0  0  0  0
  -17.6096  -20.8251  -42.9011 C   0  0  0  0  0  0  0  0  0  0  0  0
  -18.0902  -20.4453  -41.8096 O   0  0  0  0  0  0  0  0  0  0  0  0
  -16.5377  -21.5536  -42.8377 O   0  0  0  0  0  0  0  0  0  0  0  0
  -16.1358  -21.8652  -43.6246 H   0  0  0  0  0  0  0  0  0  0  0  0
 16 17  2  0  0  0
 17 18  1  0  0  0
 18 15  1  0  0  0
 15 14  1  0  0  0
 14 13  1  0  0  0
 13 12  1  0  0  0
 12  7  1  0  0  0
  7  1  1  0  0  0
  7  8  1  0  0  0
  1  2  1  0  0  0
  2  3  2  0  0  0
  2  4  1  0  0  0
  4 20  1  0  0  0
 20 21  1  0  0  0
 20 25  1  0  0  0
 21 22  2  0  0  0
 21 23  1  0  0  0
 25 26  1  0  0  0
 26 27  1  0  0  0
 27 28  2  0  0  0
 27 29  1  0  0  0
  8  9  1  0  0  0
  8 10  2  0  0  0
 18 19  1  0  0  0
  1  5  1  0  0  0
  4  6  1  0  0  0
 23 24  1  0  0  0
 29 30  1  0  0  0
  9 11  1  0  0  0
M  END
> <minimizedAffinity>
-7.58053

$$$$
4NGN_J96_A_819


 30 29  0  0  0  0  0  0  0  0999 V2000
  -23.8907  -18.3473  -41.5755 N   0  0  0  0  0  0  0  0  0  0  0  0
  -24.6431  -18.9300  -40.6293 C   0  0  0  0  0  0  0  0  0  0  0  0
  -25.7930  -19.3554  -40.8759 O   0  0  0  0  0  0  0  0  0  0  0  0
  -24.0876  -19.1541  -39.4212 N   0  0  0  0  0  0  0  0  0  0  0  0
  -23.0037  -18.0082  -41.3158 H   0  0  0  0  0  0  0  0  0  0  0  0
  -23.1122  -19.2020  -39.2961 H   0  0  0  0  0  0  0  0  0  0  0  0
  -24.3004  -18.1868  -42.9495 C   0  0  0  0  0  0  0  0  0  0  0  0
  -23.8220  -19.4035  -43.7147 C   0  0  0  0  0  0  0  0  0  0  0  0
  -22.9164  -20.1116  -43.2561 O   0  0  0  0  0  0  0  0  0  0  0  0
  -24.4330  -19.7398  -44.7915 O   0  0  0  0  0  0  0  0  0  0  0  0
  -22.4760  -19.8576  -42.4691 H   0  0  0  0  0  0  0  0  0  0  0  0
  -23.5598  -16.9332  -43.4562 C   0  0  0  0  0  0  0  0  0  0  0  0
  -22.0545  -16.8845  -43.3479 C   0  0  0  0  0  0  0  0  0  0  0  0
  -21.4536  -17.0714  -44.7673 C   0  0  0  0  0  0  0  0  0  0  0  0
  -20.1268  -17.8517  -44.8228 C   0  0  0  0  0  0  0  0  0  0  0  0
  -20.3836  -20.0881  -46.5392 O   0  0  0  0  0  0  0  0  0  0  0  0
  -20.0420  -20.2304  -45.3717 C   0  0  0  0  0  0  0  0  0  0  0  0
  -20.1715  -19.2793  -44.4477 N   0  0  0  0  0  0  0  0  0  0  0  0
  -20.2984  -19.5311  -43.5044 H   0  0  0  0  0  0  0  0  0  0  0  0
  -25.0244  -19.3223  -38.3041 C   0  0  0  0  0  0  0  0  0  0  0  0
  -25.5427  -17.9646  -37.8748 C   0  0  0  0  0  0  0  0  0  0  0  0
  -26.6398  -17.4467  -38.2111 O   0  0  0  0  0  0  0  0  0  0  0  0
  -24.7520  -17.2902  -37.0355 O   0  0  0  0  0  0  0  0  0  0  0  0
  -23.9305  -17.6550  -36.7706 H   0  0  0  0  0  0  0  0  0  0  0  0
  -24.4011  -20.0070  -37.0598 C   0  0  0  0  0  0  0  0  0  0  0  0
  -22.8743  -20.1492  -37.3185 C   0  0  0  0  0  0  0  0  0  0  0  0
  -22.0178  -19.5075  -36.2774 C   0  0  0  0  0  0  0  0  0  0  0  0
  -20.7684  -19.5079  -36.3515 O   0  0  0  0  0  0  0  0  0  0  0  0
  -22.5357  -18.8894  -35.2608 O   0  0  0  0  0  0  0  0  0  0  0  0
  -23.4663  -18.8580  -35.1560 H   0  0  0  0  0  0  0  0  0  0  0  0
 16 17  2  0  0  0
 17 18  1  0  0  0
 18 15  1  0  0  0
 15 14  1  0  0  0
 14 13  1  0  0  0
 13 12  1  0  0  0
 12  7  1  0  0  0
  7  1  1  0  0  0
  7  8  1  0  0  0
  1  2  1  0  0  0
  2  3  2  0  0  0
  2  4  1  0  0  0
  4 20  1  0  0  0
 20 21  1  0  0  0
 20 25  1  0  0  0
 21 22  2  0  0  0
 21 23  1  0  0  0
 25 26  1  0  0  0
 26 27  1  0  0  0
 27 28  2  0  0  0
 27 29  1  0  0  0
  8  9  1  0  0  0
  8 10  2  0  0  0
 18 19  1  0  0  0
  1  5  1  0  0  0
  4  6  1  0  0  0
 23 24  1  0  0  0
 29 30  1  0  0  0
  9 11  1  0  0  0
M  END
> <minimizedAffinity>
-7.57247

$$$$
