1ODI_ADN_A_1237


 24 26  0  0  0  0  0  0  0  0999 V2000
    1.7032  -79.6869 -146.9885 C   0  0  0  0  0  0  0  0  0  0  0  0
    1.8069  -78.4301 -146.2158 O   0  0  0  0  0  0  0  0  0  0  0  0
    3.0671  -80.3315 -146.8148 C   0  0  0  0  0  0  0  0  0  0  0  0
    3.8188  -79.9932 -147.9974 O   0  0  0  0  0  0  0  0  0  0  0  0
    3.6886  -79.7277 -145.5322 C   0  0  0  0  0  0  0  0  0  0  0  0
    4.9990  -79.1990 -145.7122 O   0  0  0  0  0  0  0  0  0  0  0  0
    2.6032  -78.7156 -145.0509 C   0  0  0  0  0  0  0  0  0  0  0  0
    3.8445  -79.0290 -148.0994 H   0  0  0  0  0  0  0  0  0  0  0  0
    4.9764  -78.5010 -146.3855 H   0  0  0  0  0  0  0  0  0  0  0  0
    1.7505  -79.1617 -143.8793 N   0  0  0  0  0  0  0  0  0  0  0  0
    0.6302  -78.4609 -143.3951 C   0  0  0  0  0  0  0  0  0  0  0  0
    0.0165  -79.0126 -142.3804 N   0  0  0  0  0  0  0  0  0  0  0  0
    0.7564  -80.1703 -142.1408 C   0  0  0  0  0  0  0  0  0  0  0  0
    0.6256  -81.2470 -141.1685 C   0  0  0  0  0  0  0  0  0  0  0  0
   -0.3439  -81.2794 -140.2490 N   0  0  0  0  0  0  0  0  0  0  0  0
    1.5541  -82.2654 -141.2172 N   0  0  0  0  0  0  0  0  0  0  0  0
    2.5444  -82.2417 -142.1528 C   0  0  0  0  0  0  0  0  0  0  0  0
    2.7629  -81.2950 -143.1077 N   0  0  0  0  0  0  0  0  0  0  0  0
    1.8335  -80.2875 -143.0508 C   0  0  0  0  0  0  0  0  0  0  0  0
   -1.0094  -80.5550 -140.2096 H   0  0  0  0  0  0  0  0  0  0  0  0
   -0.3925  -82.0276 -139.6110 H   0  0  0  0  0  0  0  0  0  0  0  0
   -0.6101  -79.8350 -146.6786 O   0  0  0  0  0  0  0  0  0  0  0  0
    0.5611  -80.6164 -146.5339 C   0  0  0  0  0  0  0  0  0  0  0  0
   -1.3821  -80.3566 -146.4089 H   0  0  0  0  0  0  0  0  0  0  0  0
 22 23  1  0  0  0
 23  1  1  0  0  0
  1  2  1  0  0  0
  1  3  1  0  0  0
  2  7  1  0  0  0
  3  4  1  0  0  0
  3  5  1  0  0  0
  5  6  1  0  0  0
  5  7  1  0  0  0
  7 10  1  0  0  0
 10 11  1  0  0  0
 10 19  1  0  0  0
 11 12  2  0  0  0
 12 13  1  0  0  0
 13 14  1  0  0  0
 13 19  2  0  0  0
 14 15  1  0  0  0
 14 16  2  0  0  0
 16 17  1  0  0  0
 17 18  2  0  0  0
 18 19  1  0  0  0
 22 24  1  0  0  0
  4  8  1  0  0  0
  6  9  1  0  0  0
 15 20  1  0  0  0
 15 21  1  0  0  0
M  END
> <minimizedAffinity>
-9.78114

$$$$
1ODI_ADN_A_1237


 24 26  0  0  0  0  0  0  0  0999 V2000
    1.9406  -79.7338 -147.5428 C   0  0  0  0  0  0  0  0  0  0  0  0
    1.1249  -79.0454 -146.5190 O   0  0  0  0  0  0  0  0  0  0  0  0
    3.2314  -78.9347 -147.5736 C   0  0  0  0  0  0  0  0  0  0  0  0
    3.1079  -78.0249 -148.6848 O   0  0  0  0  0  0  0  0  0  0  0  0
    3.3332  -78.1943 -146.2180 C   0  0  0  0  0  0  0  0  0  0  0  0
    3.5591  -76.7927 -146.3345 O   0  0  0  0  0  0  0  0  0  0  0  0
    2.0251  -78.6171 -145.4804 C   0  0  0  0  0  0  0  0  0  0  0  0
    2.3089  -77.4861 -148.5743 H   0  0  0  0  0  0  0  0  0  0  0  0
    2.8342  -76.3890 -146.8371 H   0  0  0  0  0  0  0  0  0  0  0  0
    2.1811  -79.6683 -144.3991 N   0  0  0  0  0  0  0  0  0  0  0  0
    3.2440  -80.5880 -144.3274 C   0  0  0  0  0  0  0  0  0  0  0  0
    3.2085  -81.4114 -143.3119 N   0  0  0  0  0  0  0  0  0  0  0  0
    2.0468  -81.0438 -142.6333 C   0  0  0  0  0  0  0  0  0  0  0  0
    1.4101  -81.5359 -141.4191 C   0  0  0  0  0  0  0  0  0  0  0  0
    1.9120  -82.5398 -140.6933 N   0  0  0  0  0  0  0  0  0  0  0  0
    0.2396  -80.9250 -141.0213 N   0  0  0  0  0  0  0  0  0  0  0  0
   -0.2779  -79.8992 -141.7539 C   0  0  0  0  0  0  0  0  0  0  0  0
    0.2276  -79.3565 -142.8965 N   0  0  0  0  0  0  0  0  0  0  0  0
    1.3919  -79.9708 -143.2827 C   0  0  0  0  0  0  0  0  0  0  0  0
    2.7474  -82.9795 -140.9727 H   0  0  0  0  0  0  0  0  0  0  0  0
    1.4463  -82.8395 -139.8794 H   0  0  0  0  0  0  0  0  0  0  0  0
    0.9295  -81.7242 -146.8463 O   0  0  0  0  0  0  0  0  0  0  0  0
    2.1904  -81.2268 -147.2538 C   0  0  0  0  0  0  0  0  0  0  0  0
    1.0050  -82.6699 -146.6441 H   0  0  0  0  0  0  0  0  0  0  0  0
 22 23  1  0  0  0
 23  1  1  0  0  0
  1  2  1  0  0  0
  1  3  1  0  0  0
  2  7  1  0  0  0
  3  4  1  0  0  0
  3  5  1  0  0  0
  5  6  1  0  0  0
  5  7  1  0  0  0
  7 10  1  0  0  0
 10 11  1  0  0  0
 10 19  1  0  0  0
 11 12  2  0  0  0
 12 13  1  0  0  0
 13 14  1  0  0  0
 13 19  2  0  0  0
 14 15  1  0  0  0
 14 16  2  0  0  0
 16 17  1  0  0  0
 17 18  2  0  0  0
 18 19  1  0  0  0
 22 24  1  0  0  0
  4  8  1  0  0  0
  6  9  1  0  0  0
 15 20  1  0  0  0
 15 21  1  0  0  0
M  END
> <minimizedAffinity>
-8.31479

$$$$
1ODI_ADN_A_1237


 24 26  0  0  0  0  0  0  0  0999 V2000
    1.9310  -80.1183 -142.8814 C   0  0  0  0  0  0  0  0  0  0  0  0
    2.2511  -78.7322 -143.2858 O   0  0  0  0  0  0  0  0  0  0  0  0
    0.4239  -80.2039 -143.0463 C   0  0  0  0  0  0  0  0  0  0  0  0
   -0.1313  -79.9889 -141.7335 O   0  0  0  0  0  0  0  0  0  0  0  0
    0.0179  -79.0923 -144.0440 C   0  0  0  0  0  0  0  0  0  0  0  0
   -1.0210  -78.2382 -143.5746 O   0  0  0  0  0  0  0  0  0  0  0  0
    1.3747  -78.3985 -144.3782 C   0  0  0  0  0  0  0  0  0  0  0  0
    0.1832  -79.1403 -141.3845 H   0  0  0  0  0  0  0  0  0  0  0  0
   -0.7389  -77.8077 -142.7524 H   0  0  0  0  0  0  0  0  0  0  0  0
    1.9873  -78.7468 -145.7205 N   0  0  0  0  0  0  0  0  0  0  0  0
    1.8299  -79.9840 -146.3728 C   0  0  0  0  0  0  0  0  0  0  0  0
    2.4280  -80.0899 -147.5310 N   0  0  0  0  0  0  0  0  0  0  0  0
    3.0426  -78.8489 -147.6964 C   0  0  0  0  0  0  0  0  0  0  0  0
    3.8610  -78.2817 -148.7595 C   0  0  0  0  0  0  0  0  0  0  0  0
    4.1823  -78.9586 -149.8664 N   0  0  0  0  0  0  0  0  0  0  0  0
    4.3133  -76.9895 -148.5945 N   0  0  0  0  0  0  0  0  0  0  0  0
    3.9887  -76.2912 -147.4703 C   0  0  0  0  0  0  0  0  0  0  0  0
    3.2334  -76.7143 -146.4186 N   0  0  0  0  0  0  0  0  0  0  0  0
    2.7881  -78.0001 -146.5934 C   0  0  0  0  0  0  0  0  0  0  0  0
    3.8621  -79.8814 -149.9894 H   0  0  0  0  0  0  0  0  0  0  0  0
    4.7391  -78.5343 -150.5586 H   0  0  0  0  0  0  0  0  0  0  0  0
    2.9816  -82.2035 -142.7490 O   0  0  0  0  0  0  0  0  0  0  0  0
    2.6652  -81.2007 -143.6964 C   0  0  0  0  0  0  0  0  0  0  0  0
    3.4511  -82.9286 -143.1902 H   0  0  0  0  0  0  0  0  0  0  0  0
 22 23  1  0  0  0
 23  1  1  0  0  0
  1  2  1  0  0  0
  1  3  1  0  0  0
  2  7  1  0  0  0
  3  4  1  0  0  0
  3  5  1  0  0  0
  5  6  1  0  0  0
  5  7  1  0  0  0
  7 10  1  0  0  0
 10 11  1  0  0  0
 10 19  1  0  0  0
 11 12  2  0  0  0
 12 13  1  0  0  0
 13 14  1  0  0  0
 13 19  2  0  0  0
 14 15  1  0  0  0
 14 16  2  0  0  0
 16 17  1  0  0  0
 17 18  2  0  0  0
 18 19  1  0  0  0
 22 24  1  0  0  0
  4  8  1  0  0  0
  6  9  1  0  0  0
 15 20  1  0  0  0
 15 21  1  0  0  0
M  END
> <minimizedAffinity>
-7.77232

$$$$
1ODI_ADN_A_1237


 24 26  0  0  0  0  0  0  0  0999 V2000
    3.6402  -77.9130 -147.0591 C   0  0  0  0  0  0  0  0  0  0  0  0
    4.3987  -78.6796 -146.0469 O   0  0  0  0  0  0  0  0  0  0  0  0
    3.1745  -78.9734 -148.0412 C   0  0  0  0  0  0  0  0  0  0  0  0
    4.1168  -78.9449 -149.1316 O   0  0  0  0  0  0  0  0  0  0  0  0
    3.1929  -80.3240 -147.2853 C   0  0  0  0  0  0  0  0  0  0  0  0
    3.9124  -81.3563 -147.9530 O   0  0  0  0  0  0  0  0  0  0  0  0
    3.7147  -79.9337 -145.8678 C   0  0  0  0  0  0  0  0  0  0  0  0
    5.0129  -79.0866 -148.7883 H   0  0  0  0  0  0  0  0  0  0  0  0
    4.8327  -81.0779 -148.0814 H   0  0  0  0  0  0  0  0  0  0  0  0
    2.6696  -79.8556 -144.7723 N   0  0  0  0  0  0  0  0  0  0  0  0
    1.6651  -78.8727 -144.6961 C   0  0  0  0  0  0  0  0  0  0  0  0
    0.8488  -78.9797 -143.6799 N   0  0  0  0  0  0  0  0  0  0  0  0
    1.3141  -80.1074 -143.0038 C   0  0  0  0  0  0  0  0  0  0  0  0
    0.8686  -80.7956 -141.7999 C   0  0  0  0  0  0  0  0  0  0  0  0
   -0.1812  -80.3893 -141.0791 N   0  0  0  0  0  0  0  0  0  0  0  0
    1.5763  -81.9114 -141.4052 N   0  0  0  0  0  0  0  0  0  0  0  0
    2.6464  -82.3341 -142.1353 C   0  0  0  0  0  0  0  0  0  0  0  0
    3.1497  -81.7761 -143.2715 N   0  0  0  0  0  0  0  0  0  0  0  0
    2.4380  -80.6679 -143.6555 C   0  0  0  0  0  0  0  0  0  0  0  0
   -0.6900  -79.5933 -141.3562 H   0  0  0  0  0  0  0  0  0  0  0  0
   -0.4455  -80.8859 -140.2712 H   0  0  0  0  0  0  0  0  0  0  0  0
    2.3362  -75.9957 -147.3632 O   0  0  0  0  0  0  0  0  0  0  0  0
    2.4644  -77.0985 -146.4854 C   0  0  0  0  0  0  0  0  0  0  0  0
    1.6076  -75.4286 -147.0656 H   0  0  0  0  0  0  0  0  0  0  0  0
 22 23  1  0  0  0
 23  1  1  0  0  0
  1  2  1  0  0  0
  1  3  1  0  0  0
  2  7  1  0  0  0
  3  4  1  0  0  0
  3  5  1  0  0  0
  5  6  1  0  0  0
  5  7  1  0  0  0
  7 10  1  0  0  0
 10 11  1  0  0  0
 10 19  1  0  0  0
 11 12  2  0  0  0
 12 13  1  0  0  0
 13 14  1  0  0  0
 13 19  2  0  0  0
 14 15  1  0  0  0
 14 16  2  0  0  0
 16 17  1  0  0  0
 17 18  2  0  0  0
 18 19  1  0  0  0
 22 24  1  0  0  0
  4  8  1  0  0  0
  6  9  1  0  0  0
 15 20  1  0  0  0
 15 21  1  0  0  0
M  END
> <minimizedAffinity>
-7.02245

$$$$
1ODI_ADN_A_1237


 24 26  0  0  0  0  0  0  0  0999 V2000
    2.6771  -79.6135 -147.8621 C   0  0  0  0  0  0  0  0  0  0  0  0
    1.4519  -79.0792 -147.2290 O   0  0  0  0  0  0  0  0  0  0  0  0
    3.6652  -78.4647 -147.7638 C   0  0  0  0  0  0  0  0  0  0  0  0
    3.6292  -77.8004 -149.0425 O   0  0  0  0  0  0  0  0  0  0  0  0
    3.1771  -77.5504 -146.6140 C   0  0  0  0  0  0  0  0  0  0  0  0
    3.0498  -76.1781 -146.9742 O   0  0  0  0  0  0  0  0  0  0  0  0
    1.8723  -78.2534 -146.1271 C   0  0  0  0  0  0  0  0  0  0  0  0
    2.7196  -77.5271 -149.2395 H   0  0  0  0  0  0  0  0  0  0  0  0
    2.4190  -76.0931 -147.7062 H   0  0  0  0  0  0  0  0  0  0  0  0
    1.9839  -79.0447 -144.8387 N   0  0  0  0  0  0  0  0  0  0  0  0
    3.1867  -79.5592 -144.3196 C   0  0  0  0  0  0  0  0  0  0  0  0
    3.0802  -80.2066 -143.1883 N   0  0  0  0  0  0  0  0  0  0  0  0
    1.7170  -80.1409 -142.9009 C   0  0  0  0  0  0  0  0  0  0  0  0
    0.9116  -80.6424 -141.7957 C   0  0  0  0  0  0  0  0  0  0  0  0
    1.4315  -81.3269 -140.7721 N   0  0  0  0  0  0  0  0  0  0  0  0
   -0.4435  -80.3890 -141.8288 N   0  0  0  0  0  0  0  0  0  0  0  0
   -0.9817  -79.6900 -142.8674 C   0  0  0  0  0  0  0  0  0  0  0  0
   -0.3311  -79.1731 -143.9468 N   0  0  0  0  0  0  0  0  0  0  0  0
    1.0158  -79.4302 -143.9034 C   0  0  0  0  0  0  0  0  0  0  0  0
    2.3983  -81.5107 -140.7432 H   0  0  0  0  0  0  0  0  0  0  0  0
    0.8477  -81.6472 -140.0470 H   0  0  0  0  0  0  0  0  0  0  0  0
    4.5259  -80.5609 -146.7882 O   0  0  0  0  0  0  0  0  0  0  0  0
    3.2176  -80.9000 -147.2081 C   0  0  0  0  0  0  0  0  0  0  0  0
    4.9377  -81.3285 -146.3615 H   0  0  0  0  0  0  0  0  0  0  0  0
 22 23  1  0  0  0
 23  1  1  0  0  0
  1  2  1  0  0  0
  1  3  1  0  0  0
  2  7  1  0  0  0
  3  4  1  0  0  0
  3  5  1  0  0  0
  5  6  1  0  0  0
  5  7  1  0  0  0
  7 10  1  0  0  0
 10 11  1  0  0  0
 10 19  1  0  0  0
 11 12  2  0  0  0
 12 13  1  0  0  0
 13 14  1  0  0  0
 13 19  2  0  0  0
 14 15  1  0  0  0
 14 16  2  0  0  0
 16 17  1  0  0  0
 17 18  2  0  0  0
 18 19  1  0  0  0
 22 24  1  0  0  0
  4  8  1  0  0  0
  6  9  1  0  0  0
 15 20  1  0  0  0
 15 21  1  0  0  0
M  END
> <minimizedAffinity>
-6.88813

$$$$
1ODI_ADN_A_1237


 24 26  0  0  0  0  0  0  0  0999 V2000
    1.8979  -78.9301 -144.4744 C   0  0  0  0  0  0  0  0  0  0  0  0
    0.9352  -77.8841 -144.0664 O   0  0  0  0  0  0  0  0  0  0  0  0
    1.5931  -80.0865 -143.5388 C   0  0  0  0  0  0  0  0  0  0  0  0
    2.5623  -80.0020 -142.4751 O   0  0  0  0  0  0  0  0  0  0  0  0
    0.1453  -79.8827 -143.0305 C   0  0  0  0  0  0  0  0  0  0  0  0
    0.0136  -79.9247 -141.6127 O   0  0  0  0  0  0  0  0  0  0  0  0
   -0.2915  -78.5525 -143.7186 C   0  0  0  0  0  0  0  0  0  0  0  0
    2.5090  -79.1279 -142.0579 H   0  0  0  0  0  0  0  0  0  0  0  0
    0.5654  -79.2326 -141.2161 H   0  0  0  0  0  0  0  0  0  0  0  0
   -1.2161  -78.6930 -144.9118 N   0  0  0  0  0  0  0  0  0  0  0  0
   -1.8059  -79.9017 -145.3265 C   0  0  0  0  0  0  0  0  0  0  0  0
   -2.5839  -79.8180 -146.3746 N   0  0  0  0  0  0  0  0  0  0  0  0
   -2.5322  -78.4660 -146.7131 C   0  0  0  0  0  0  0  0  0  0  0  0
   -3.1647  -77.6828 -147.7658 C   0  0  0  0  0  0  0  0  0  0  0  0
   -3.9861  -78.2187 -148.6739 N   0  0  0  0  0  0  0  0  0  0  0  0
   -2.8887  -76.3324 -147.8081 N   0  0  0  0  0  0  0  0  0  0  0  0
   -2.0543  -75.7772 -146.8849 C   0  0  0  0  0  0  0  0  0  0  0  0
   -1.4123  -76.4056 -145.8609 N   0  0  0  0  0  0  0  0  0  0  0  0
   -1.6945  -77.7478 -145.8275 C   0  0  0  0  0  0  0  0  0  0  0  0
   -4.1867  -79.1822 -148.6484 H   0  0  0  0  0  0  0  0  0  0  0  0
   -4.3905  -77.6499 -149.3683 H   0  0  0  0  0  0  0  0  0  0  0  0
    1.8664  -78.1199 -146.6680 O   0  0  0  0  0  0  0  0  0  0  0  0
    1.7951  -79.3412 -145.9561 C   0  0  0  0  0  0  0  0  0  0  0  0
    1.8077  -78.2967 -147.6199 H   0  0  0  0  0  0  0  0  0  0  0  0
 22 23  1  0  0  0
 23  1  1  0  0  0
  1  2  1  0  0  0
  1  3  1  0  0  0
  2  7  1  0  0  0
  3  4  1  0  0  0
  3  5  1  0  0  0
  5  6  1  0  0  0
  5  7  1  0  0  0
  7 10  1  0  0  0
 10 11  1  0  0  0
 10 19  1  0  0  0
 11 12  2  0  0  0
 12 13  1  0  0  0
 13 14  1  0  0  0
 13 19  2  0  0  0
 14 15  1  0  0  0
 14 16  2  0  0  0
 16 17  1  0  0  0
 17 18  2  0  0  0
 18 19  1  0  0  0
 22 24  1  0  0  0
  4  8  1  0  0  0
  6  9  1  0  0  0
 15 20  1  0  0  0
 15 21  1  0  0  0
M  END
> <minimizedAffinity>
-6.85864

$$$$
