4XTY_44L_A_301


 45 49  0  0  0  0  0  0  0  0999 V2000
   -4.2060   -3.6178    7.0538 N   0  0  0  0  0  0  0  0  0  0  0  0
   -4.7551   -3.0129    6.4431 H   0  0  0  0  0  0  0  0  0  0  0  0
   -4.0064   -5.0027    6.2725 S   0  0  0  0  0  0  0  0  0  0  0  0
   -5.2448   -5.3043    5.6028 O   0  0  0  0  0  0  0  0  0  0  0  0
   -2.9417   -4.8808    5.3191 O   0  0  0  0  0  0  0  0  0  0  0  0
   -4.4238   -6.3790    8.3813 C   0  0  0  0  0  0  0  0  0  0  0  0
   -5.3352   -5.6314    8.6586 O   0  0  0  0  0  0  0  0  0  0  0  0
   -3.6222   -6.1403    7.3460 N   0  0  0  0  0  0  0  0  0  0  0  0
   -2.7932   -6.6599    7.2362 H   0  0  0  0  0  0  0  0  0  0  0  0
   -4.1337   -7.6086    9.2348 C   0  0  0  0  0  0  0  0  0  0  0  0
   -3.8442   -7.1885   10.6700 C   0  0  0  0  0  0  0  0  0  0  0  0
   -3.8916   -8.3558   11.6542 C   0  0  0  0  0  0  0  0  0  0  0  0
   -3.5896   -7.9102   13.0761 C   0  0  0  0  0  0  0  0  0  0  0  0
   -2.2424  -10.0071   13.7438 C   0  0  0  0  0  0  0  0  0  0  0  0
   -1.0355   -9.2422   13.4733 N   0  0  0  0  0  0  0  0  0  0  0  0
   -0.0890   -9.4518   14.3948 C   0  0  0  0  0  0  0  0  0  0  0  0
    0.9891   -8.8597   14.4489 O   0  0  0  0  0  0  0  0  0  0  0  0
   -0.4968  -10.3749   15.2683 N   0  0  0  0  0  0  0  0  0  0  0  0
   -1.8748  -10.7542   15.0381 C   0  0  0  0  0  0  0  0  0  0  0  0
   -2.7398  -10.2771   16.2122 C   0  0  0  0  0  0  0  0  0  0  0  0
   -3.3125   -8.6895   15.7055 S   0  0  0  0  0  0  0  0  0  0  0  0
   -3.4656   -9.1190   13.9994 C   0  0  0  0  0  0  0  0  0  0  0  0
   -0.9277   -8.6402   12.7018 H   0  0  0  0  0  0  0  0  0  0  0  0
    0.0692  -10.7511   15.9806 H   0  0  0  0  0  0  0  0  0  0  0  0
   -3.0531   -2.8457    7.4792 C   0  0  0  0  0  0  0  0  0  0  0  0
   -3.4488   -1.3776    7.5706 C   0  0  0  0  0  0  0  0  0  0  0  0
   -4.5309   -1.1295    8.4730 O   0  0  0  0  0  0  0  0  0  0  0  0
   -2.3283   -0.4884    8.0740 C   0  0  0  0  0  0  0  0  0  0  0  0
   -1.4135   -0.1991    7.0070 O   0  0  0  0  0  0  0  0  0  0  0  0
   -3.0785    0.7353    8.5547 C   0  0  0  0  0  0  0  0  0  0  0  0
   -4.3978    0.1730    9.0696 C   0  0  0  0  0  0  0  0  0  0  0  0
   -3.4036    1.4605    7.4325 F   0  0  0  0  0  0  0  0  0  0  0  0
   -1.8967    0.1977    6.2655 H   0  0  0  0  0  0  0  0  0  0  0  0
   -5.5348   -0.2272   11.2148 C   0  0  0  0  0  0  0  0  0  0  0  0
   -5.9339   -0.8270   14.7747 N   0  0  0  0  0  0  0  0  0  0  0  0
   -5.1890   -0.4097   12.5361 C   0  0  0  0  0  0  0  0  0  0  0  0
   -4.4108   -0.0263   10.5257 N   0  0  0  0  0  0  0  0  0  0  0  0
   -3.3605   -0.1159   11.3667 C   0  0  0  0  0  0  0  0  0  0  0  0
   -3.8347   -0.3399   12.6169 N   0  0  0  0  0  0  0  0  0  0  0  0
   -6.8271   -0.2378   10.8226 N   0  0  0  0  0  0  0  0  0  0  0  0
   -7.7894   -0.4535   11.7366 C   0  0  0  0  0  0  0  0  0  0  0  0
   -7.4887   -0.6436   13.0285 N   0  0  0  0  0  0  0  0  0  0  0  0
   -6.2055   -0.6270   13.4610 C   0  0  0  0  0  0  0  0  0  0  0  0
   -6.6690   -0.9789   15.4118 H   0  0  0  0  0  0  0  0  0  0  0  0
   -5.0017   -0.8203   15.0912 H   0  0  0  0  0  0  0  0  0  0  0  0
 35 43  1  0  0  0
 43 42  2  0  0  0
 43 36  1  0  0  0
 20 21  1  0  0  0
 20 19  1  0  0  0
 21 22  1  0  0  0
 42 41  1  0  0  0
 39 36  1  0  0  0
 39 38  2  0  0  0
 36 34  2  0  0  0
 18 19  1  0  0  0
 18 16  1  0  0  0
 17 16  2  0  0  0
 19 14  1  0  0  0
 41 40  2  0  0  0
 38 37  1  0  0  0
 16 15  1  0  0  0
 34 40  1  0  0  0
 34 37  1  0  0  0
 22 14  1  0  0  0
 22 13  1  0  0  0
 37 31  1  0  0  0
 14 15  1  0  0  0
 13 12  1  0  0  0
 31 30  1  0  0  0
 31 27  1  0  0  0
 30 28  1  0  0  0
 30 32  1  0  0  0
 12 11  1  0  0  0
 11 10  1  0  0  0
 28 29  1  0  0  0
 28 26  1  0  0  0
 27 26  1  0  0  0
 26 25  1  0  0  0
 25  1  1  0  0  0
 10  6  1  0  0  0
  7  6  2  0  0  0
  6  8  1  0  0  0
  1  3  1  0  0  0
  8  3  1  0  0  0
  3  4  2  0  0  0
  3  5  2  0  0  0
 35 44  1  0  0  0
 35 45  1  0  0  0
 15 23  1  0  0  0
 18 24  1  0  0  0
  8  9  1  0  0  0
  1  2  1  0  0  0
 29 33  1  0  0  0
M  END
> <minimizedAffinity>
-13.45778

$$$$
4XTY_44L_A_301


 45 49  0  0  0  0  0  0  0  0999 V2000
   -4.4216   -3.6662    6.8345 N   0  0  0  0  0  0  0  0  0  0  0  0
   -4.4621   -3.0126    6.0525 H   0  0  0  0  0  0  0  0  0  0  0  0
   -4.0875   -5.1059    6.2150 S   0  0  0  0  0  0  0  0  0  0  0  0
   -5.3086   -5.6348    5.6653 O   0  0  0  0  0  0  0  0  0  0  0  0
   -3.0927   -4.9814    5.1891 O   0  0  0  0  0  0  0  0  0  0  0  0
   -4.3306   -6.5064    8.3351 C   0  0  0  0  0  0  0  0  0  0  0  0
   -5.4581   -6.0816    8.4563 O   0  0  0  0  0  0  0  0  0  0  0  0
   -3.5135   -6.0440    7.3918 N   0  0  0  0  0  0  0  0  0  0  0  0
   -2.5569   -6.2758    7.4132 H   0  0  0  0  0  0  0  0  0  0  0  0
   -3.7873   -7.5654    9.2879 C   0  0  0  0  0  0  0  0  0  0  0  0
   -4.0131   -7.1316   10.7305 C   0  0  0  0  0  0  0  0  0  0  0  0
   -4.0447   -8.3049   11.7081 C   0  0  0  0  0  0  0  0  0  0  0  0
   -3.6003   -7.8924   13.1024 C   0  0  0  0  0  0  0  0  0  0  0  0
   -2.2662  -10.0143   13.7150 C   0  0  0  0  0  0  0  0  0  0  0  0
   -1.0555   -9.2599   13.4325 N   0  0  0  0  0  0  0  0  0  0  0  0
   -0.0945   -9.4938   14.3330 C   0  0  0  0  0  0  0  0  0  0  0  0
    0.9914   -8.9152   14.3750 O   0  0  0  0  0  0  0  0  0  0  0  0
   -0.4970  -10.4244   15.2010 N   0  0  0  0  0  0  0  0  0  0  0  0
   -1.8835  -10.7841   14.9915 C   0  0  0  0  0  0  0  0  0  0  0  0
   -2.7206  -10.3137   16.1883 C   0  0  0  0  0  0  0  0  0  0  0  0
   -3.2836   -8.7123   15.7148 S   0  0  0  0  0  0  0  0  0  0  0  0
   -3.4737   -9.1156   14.0061 C   0  0  0  0  0  0  0  0  0  0  0  0
   -0.9549   -8.6483   12.6676 H   0  0  0  0  0  0  0  0  0  0  0  0
    0.0776  -10.8174   15.8971 H   0  0  0  0  0  0  0  0  0  0  0  0
   -3.5429   -3.0756    7.8270 C   0  0  0  0  0  0  0  0  0  0  0  0
   -3.8175   -1.5792    7.9014 C   0  0  0  0  0  0  0  0  0  0  0  0
   -3.0633   -0.9064    8.9140 O   0  0  0  0  0  0  0  0  0  0  0  0
   -3.4677   -0.8444    6.6219 C   0  0  0  0  0  0  0  0  0  0  0  0
   -4.5161   -1.0122    5.6566 O   0  0  0  0  0  0  0  0  0  0  0  0
   -3.3289    0.5856    7.0983 C   0  0  0  0  0  0  0  0  0  0  0  0
   -2.7774    0.4451    8.5118 C   0  0  0  0  0  0  0  0  0  0  0  0
   -4.6059    1.0725    7.2510 F   0  0  0  0  0  0  0  0  0  0  0  0
   -5.3569   -0.7137    6.0373 H   0  0  0  0  0  0  0  0  0  0  0  0
   -0.6652    0.7684    9.7319 C   0  0  0  0  0  0  0  0  0  0  0  0
    2.9082    1.1168   10.2809 N   0  0  0  0  0  0  0  0  0  0  0  0
    0.6793    0.8532    9.4424 C   0  0  0  0  0  0  0  0  0  0  0  0
   -1.3183    0.6064    8.5804 N   0  0  0  0  0  0  0  0  0  0  0  0
   -0.4223    0.5465    7.5744 C   0  0  0  0  0  0  0  0  0  0  0  0
    0.8171    0.7121    8.0983 N   0  0  0  0  0  0  0  0  0  0  0  0
   -1.1156    0.8810   11.0001 N   0  0  0  0  0  0  0  0  0  0  0  0
   -0.2318    1.0558   11.9982 C   0  0  0  0  0  0  0  0  0  0  0  0
    1.0835    1.1338   11.7541 N   0  0  0  0  0  0  0  0  0  0  0  0
    1.5711    1.0382   10.4944 C   0  0  0  0  0  0  0  0  0  0  0  0
    3.5210    1.2479   11.0402 H   0  0  0  0  0  0  0  0  0  0  0  0
    3.2659    1.0428    9.3667 H   0  0  0  0  0  0  0  0  0  0  0  0
 35 43  1  0  0  0
 43 42  2  0  0  0
 43 36  1  0  0  0
 20 21  1  0  0  0
 20 19  1  0  0  0
 21 22  1  0  0  0
 42 41  1  0  0  0
 39 36  1  0  0  0
 39 38  2  0  0  0
 36 34  2  0  0  0
 18 19  1  0  0  0
 18 16  1  0  0  0
 17 16  2  0  0  0
 19 14  1  0  0  0
 41 40  2  0  0  0
 38 37  1  0  0  0
 16 15  1  0  0  0
 34 40  1  0  0  0
 34 37  1  0  0  0
 22 14  1  0  0  0
 22 13  1  0  0  0
 37 31  1  0  0  0
 14 15  1  0  0  0
 13 12  1  0  0  0
 31 30  1  0  0  0
 31 27  1  0  0  0
 30 28  1  0  0  0
 30 32  1  0  0  0
 12 11  1  0  0  0
 11 10  1  0  0  0
 28 29  1  0  0  0
 28 26  1  0  0  0
 27 26  1  0  0  0
 26 25  1  0  0  0
 25  1  1  0  0  0
 10  6  1  0  0  0
  7  6  2  0  0  0
  6  8  1  0  0  0
  1  3  1  0  0  0
  8  3  1  0  0  0
  3  4  2  0  0  0
  3  5  2  0  0  0
 35 44  1  0  0  0
 35 45  1  0  0  0
 15 23  1  0  0  0
 18 24  1  0  0  0
  8  9  1  0  0  0
  1  2  1  0  0  0
 29 33  1  0  0  0
M  END
> <minimizedAffinity>
-11.71670

$$$$
4XTY_44L_A_301


 45 49  0  0  0  0  0  0  0  0999 V2000
   -4.8758   -3.6875    5.5341 N   0  0  0  0  0  0  0  0  0  0  0  0
   -4.4351   -3.9419    4.6501 H   0  0  0  0  0  0  0  0  0  0  0  0
   -3.8330   -4.0592    6.6928 S   0  0  0  0  0  0  0  0  0  0  0  0
   -2.5117   -3.9889    6.1250 O   0  0  0  0  0  0  0  0  0  0  0  0
   -3.9568   -3.1337    7.7817 O   0  0  0  0  0  0  0  0  0  0  0  0
   -3.8053   -5.9120    8.4482 C   0  0  0  0  0  0  0  0  0  0  0  0
   -3.0465   -5.2391    9.1100 O   0  0  0  0  0  0  0  0  0  0  0  0
   -4.1708   -5.5421    7.2231 N   0  0  0  0  0  0  0  0  0  0  0  0
   -4.6484   -6.1756    6.6403 H   0  0  0  0  0  0  0  0  0  0  0  0
   -4.3438   -7.2354    8.9802 C   0  0  0  0  0  0  0  0  0  0  0  0
   -4.5140   -7.1572   10.4919 C   0  0  0  0  0  0  0  0  0  0  0  0
   -3.7049   -8.2160   11.2388 C   0  0  0  0  0  0  0  0  0  0  0  0
   -3.3268   -7.7570   12.6381 C   0  0  0  0  0  0  0  0  0  0  0  0
   -2.1766   -9.8893   13.5258 C   0  0  0  0  0  0  0  0  0  0  0  0
   -0.9072   -9.1996   13.3589 N   0  0  0  0  0  0  0  0  0  0  0  0
   -0.0769   -9.4173   14.3847 C   0  0  0  0  0  0  0  0  0  0  0  0
    1.0206   -8.8794   14.5329 O   0  0  0  0  0  0  0  0  0  0  0  0
   -0.6257  -10.2797   15.2430 N   0  0  0  0  0  0  0  0  0  0  0  0
   -1.9904  -10.5975   14.8794 C   0  0  0  0  0  0  0  0  0  0  0  0
   -2.9472  -10.0264   15.9342 C   0  0  0  0  0  0  0  0  0  0  0  0
   -3.3739   -8.4349   15.3093 S   0  0  0  0  0  0  0  0  0  0  0  0
   -3.3687   -8.9294   13.6140 C   0  0  0  0  0  0  0  0  0  0  0  0
   -0.6849   -8.6379   12.5816 H   0  0  0  0  0  0  0  0  0  0  0  0
   -0.1602  -10.6532   16.0260 H   0  0  0  0  0  0  0  0  0  0  0  0
   -5.3497   -2.3236    5.3870 C   0  0  0  0  0  0  0  0  0  0  0  0
   -6.6333   -2.3329    4.5671 C   0  0  0  0  0  0  0  0  0  0  0  0
   -7.5517   -1.2963    4.9261 O   0  0  0  0  0  0  0  0  0  0  0  0
   -6.3949   -2.1264    3.0838 C   0  0  0  0  0  0  0  0  0  0  0  0
   -5.9721   -3.3565    2.4782 O   0  0  0  0  0  0  0  0  0  0  0  0
   -7.7536   -1.6677    2.5992 C   0  0  0  0  0  0  0  0  0  0  0  0
   -8.3123   -0.8801    3.7779 C   0  0  0  0  0  0  0  0  0  0  0  0
   -8.5370   -2.7942    2.5081 F   0  0  0  0  0  0  0  0  0  0  0  0
   -6.6301   -4.0469    2.6551 H   0  0  0  0  0  0  0  0  0  0  0  0
   -9.0778    1.3888    3.2116 C   0  0  0  0  0  0  0  0  0  0  0  0
   -8.9787    5.0000    2.8359 N   0  0  0  0  0  0  0  0  0  0  0  0
   -8.5792    2.6729    3.2428 C   0  0  0  0  0  0  0  0  0  0  0  0
   -8.1184    0.5707    3.6462 N   0  0  0  0  0  0  0  0  0  0  0  0
   -7.0403    1.3047    3.9892 C   0  0  0  0  0  0  0  0  0  0  0  0
   -7.3126    2.6072    3.7297 N   0  0  0  0  0  0  0  0  0  0  0  0
  -10.3260    1.1343    2.7629 N   0  0  0  0  0  0  0  0  0  0  0  0
  -11.1014    2.1571    2.3620 C   0  0  0  0  0  0  0  0  0  0  0  0
  -10.6521    3.4193    2.3874 N   0  0  0  0  0  0  0  0  0  0  0  0
   -9.4021    3.7116    2.8185 C   0  0  0  0  0  0  0  0  0  0  0  0
   -9.5779    5.7192    2.5310 H   0  0  0  0  0  0  0  0  0  0  0  0
   -8.0722    5.2160    3.1533 H   0  0  0  0  0  0  0  0  0  0  0  0
 35 43  1  0  0  0
 43 42  2  0  0  0
 43 36  1  0  0  0
 20 21  1  0  0  0
 20 19  1  0  0  0
 21 22  1  0  0  0
 42 41  1  0  0  0
 39 36  1  0  0  0
 39 38  2  0  0  0
 36 34  2  0  0  0
 18 19  1  0  0  0
 18 16  1  0  0  0
 17 16  2  0  0  0
 19 14  1  0  0  0
 41 40  2  0  0  0
 38 37  1  0  0  0
 16 15  1  0  0  0
 34 40  1  0  0  0
 34 37  1  0  0  0
 22 14  1  0  0  0
 22 13  1  0  0  0
 37 31  1  0  0  0
 14 15  1  0  0  0
 13 12  1  0  0  0
 31 30  1  0  0  0
 31 27  1  0  0  0
 30 28  1  0  0  0
 30 32  1  0  0  0
 12 11  1  0  0  0
 11 10  1  0  0  0
 28 29  1  0  0  0
 28 26  1  0  0  0
 27 26  1  0  0  0
 26 25  1  0  0  0
 25  1  1  0  0  0
 10  6  1  0  0  0
  7  6  2  0  0  0
  6  8  1  0  0  0
  1  3  1  0  0  0
  8  3  1  0  0  0
  3  4  2  0  0  0
  3  5  2  0  0  0
 35 44  1  0  0  0
 35 45  1  0  0  0
 15 23  1  0  0  0
 18 24  1  0  0  0
  8  9  1  0  0  0
  1  2  1  0  0  0
 29 33  1  0  0  0
M  END
> <minimizedAffinity>
-10.94775

$$$$
4XTY_44L_A_301


 45 49  0  0  0  0  0  0  0  0999 V2000
   -4.3228   -3.1536    5.7790 N   0  0  0  0  0  0  0  0  0  0  0  0
   -3.3908   -2.8855    5.4628 H   0  0  0  0  0  0  0  0  0  0  0  0
   -4.2765   -4.7295    6.0662 S   0  0  0  0  0  0  0  0  0  0  0  0
   -5.4838   -5.3028    5.5305 O   0  0  0  0  0  0  0  0  0  0  0  0
   -3.1268   -5.3111    5.4356 O   0  0  0  0  0  0  0  0  0  0  0  0
   -3.9117   -6.1630    8.1464 C   0  0  0  0  0  0  0  0  0  0  0  0
   -3.9509   -7.1483    7.4435 O   0  0  0  0  0  0  0  0  0  0  0  0
   -4.1714   -4.9525    7.6579 N   0  0  0  0  0  0  0  0  0  0  0  0
   -4.2994   -4.1924    8.2703 H   0  0  0  0  0  0  0  0  0  0  0  0
   -3.5996   -6.2758    9.6344 C   0  0  0  0  0  0  0  0  0  0  0  0
   -3.8654   -7.6965   10.1150 C   0  0  0  0  0  0  0  0  0  0  0  0
   -4.4123   -7.7515   11.5403 C   0  0  0  0  0  0  0  0  0  0  0  0
   -3.3038   -7.6541   12.5763 C   0  0  0  0  0  0  0  0  0  0  0  0
   -2.2996   -9.8584   13.4655 C   0  0  0  0  0  0  0  0  0  0  0  0
   -0.9852   -9.2785   13.2403 N   0  0  0  0  0  0  0  0  0  0  0  0
   -0.1383   -9.5463   14.2403 C   0  0  0  0  0  0  0  0  0  0  0  0
    1.0041   -9.0981   14.3390 O   0  0  0  0  0  0  0  0  0  0  0  0
   -0.7237  -10.3458   15.1344 N   0  0  0  0  0  0  0  0  0  0  0  0
   -2.1223  -10.5564   14.8256 C   0  0  0  0  0  0  0  0  0  0  0  0
   -2.9899   -9.8906   15.9018 C   0  0  0  0  0  0  0  0  0  0  0  0
   -3.3079   -8.2803   15.2606 S   0  0  0  0  0  0  0  0  0  0  0  0
   -3.4054   -8.8024   13.5764 C   0  0  0  0  0  0  0  0  0  0  0  0
   -0.7465   -8.7503   12.4445 H   0  0  0  0  0  0  0  0  0  0  0  0
   -0.2619  -10.7430   15.9079 H   0  0  0  0  0  0  0  0  0  0  0  0
   -4.6870   -2.2282    6.8361 C   0  0  0  0  0  0  0  0  0  0  0  0
   -5.8101   -1.3277    6.3384 C   0  0  0  0  0  0  0  0  0  0  0  0
   -5.4597    0.0588    6.2983 O   0  0  0  0  0  0  0  0  0  0  0  0
   -6.2461   -1.6460    4.9213 C   0  0  0  0  0  0  0  0  0  0  0  0
   -7.1245   -2.7806    4.9206 O   0  0  0  0  0  0  0  0  0  0  0  0
   -6.9364   -0.3663    4.5007 C   0  0  0  0  0  0  0  0  0  0  0  0
   -6.1584    0.7222    5.2298 C   0  0  0  0  0  0  0  0  0  0  0  0
   -8.1800   -0.3819    5.0874 F   0  0  0  0  0  0  0  0  0  0  0  0
   -7.8757   -2.6083    5.5095 H   0  0  0  0  0  0  0  0  0  0  0  0
   -4.3403    2.3333    4.8383 C   0  0  0  0  0  0  0  0  0  0  0  0
   -1.6778    4.0731    3.0843 N   0  0  0  0  0  0  0  0  0  0  0  0
   -3.4845    2.6795    3.8153 C   0  0  0  0  0  0  0  0  0  0  0  0
   -5.1360    1.3616    4.3897 N   0  0  0  0  0  0  0  0  0  0  0  0
   -4.7820    1.0556    3.1249 C   0  0  0  0  0  0  0  0  0  0  0  0
   -3.7681    1.8769    2.7566 N   0  0  0  0  0  0  0  0  0  0  0  0
   -4.3003    2.9699    6.0287 N   0  0  0  0  0  0  0  0  0  0  0  0
   -3.3926    3.9426    6.2235 C   0  0  0  0  0  0  0  0  0  0  0  0
   -2.5391    4.2989    5.2539 N   0  0  0  0  0  0  0  0  0  0  0  0
   -2.5579    3.6923    4.0434 C   0  0  0  0  0  0  0  0  0  0  0  0
   -1.0308    4.7922    3.2674 H   0  0  0  0  0  0  0  0  0  0  0  0
   -1.6860    3.6305    2.2049 H   0  0  0  0  0  0  0  0  0  0  0  0
 35 43  1  0  0  0
 43 42  2  0  0  0
 43 36  1  0  0  0
 20 21  1  0  0  0
 20 19  1  0  0  0
 21 22  1  0  0  0
 42 41  1  0  0  0
 39 36  1  0  0  0
 39 38  2  0  0  0
 36 34  2  0  0  0
 18 19  1  0  0  0
 18 16  1  0  0  0
 17 16  2  0  0  0
 19 14  1  0  0  0
 41 40  2  0  0  0
 38 37  1  0  0  0
 16 15  1  0  0  0
 34 40  1  0  0  0
 34 37  1  0  0  0
 22 14  1  0  0  0
 22 13  1  0  0  0
 37 31  1  0  0  0
 14 15  1  0  0  0
 13 12  1  0  0  0
 31 30  1  0  0  0
 31 27  1  0  0  0
 30 28  1  0  0  0
 30 32  1  0  0  0
 12 11  1  0  0  0
 11 10  1  0  0  0
 28 29  1  0  0  0
 28 26  1  0  0  0
 27 26  1  0  0  0
 26 25  1  0  0  0
 25  1  1  0  0  0
 10  6  1  0  0  0
  7  6  2  0  0  0
  6  8  1  0  0  0
  1  3  1  0  0  0
  8  3  1  0  0  0
  3  4  2  0  0  0
  3  5  2  0  0  0
 35 44  1  0  0  0
 35 45  1  0  0  0
 15 23  1  0  0  0
 18 24  1  0  0  0
  8  9  1  0  0  0
  1  2  1  0  0  0
 29 33  1  0  0  0
M  END
> <minimizedAffinity>
-10.68560

$$$$
