3CM2_X23_D_600


 42 45  0  0  0  0  0  0  0  0999 V2000
  -22.3613    9.8999   47.0929 C   0  0  0  0  0  0  0  0  0  0  0  0
  -23.6909    9.8266   47.8537 C   0  0  0  0  0  0  0  0  0  0  0  0
  -24.4542   10.7946   47.8378 O   0  0  0  0  0  0  0  0  0  0  0  0
  -24.0595    8.7498   48.5146 N   0  0  0  0  0  0  0  0  0  0  0  0
  -21.0831    9.6805   47.9574 C   0  0  0  0  0  0  0  0  0  0  0  0
  -21.4137    9.1293   49.3593 C   0  0  0  0  0  0  0  0  0  0  0  0
  -21.9686    7.6824   49.3705 C   0  0  0  0  0  0  0  0  0  0  0  0
  -23.3058    7.4832   48.6227 C   0  0  0  0  0  0  0  0  0  0  0  0
  -24.2327    6.5523   49.4015 C   0  0  0  0  0  0  0  0  0  0  0  0
  -25.6251    7.1735   49.1932 C   0  0  0  0  0  0  0  0  0  0  0  0
  -25.3538    8.6823   49.1980 C   0  0  0  0  0  0  0  0  0  0  0  0
  -21.9679   11.1769   45.0943 C   0  0  0  0  0  0  0  0  0  0  0  0
  -21.4059   10.2264   44.5622 O   0  0  0  0  0  0  0  0  0  0  0  0
  -22.4405   11.1382   46.3151 N   0  0  0  0  0  0  0  0  0  0  0  0
  -22.8492   11.9421   46.7101 H   0  0  0  0  0  0  0  0  0  0  0  0
  -22.1862   12.4981   44.3895 C   0  0  0  0  0  0  0  0  0  0  0  0
  -22.4966   12.2763   42.9751 N   0  0  0  0  0  0  0  0  0  0  0  0
  -23.3192   11.6782   42.8973 H   0  0  0  0  0  0  0  0  0  0  0  0
  -21.7035   11.8246   42.5197 H   0  0  0  0  0  0  0  0  0  0  0  0
  -24.3690   13.7219   44.1180 C   0  0  0  0  0  0  0  0  0  0  0  0
  -23.3903   13.1091   45.0968 C   0  0  0  0  0  0  0  0  0  0  0  0
  -20.2146   10.9455   48.0306 C   0  0  0  0  0  0  0  0  0  0  0  0
  -19.2090   10.9683   46.9631 N   0  0  0  0  0  0  0  0  0  0  0  0
  -18.5918   10.1621   47.0601 H   0  0  0  0  0  0  0  0  0  0  0  0
  -18.6611   11.8261   47.0304 H   0  0  0  0  0  0  0  0  0  0  0  0
  -25.3611    9.1600   50.6571 C   0  0  0  0  0  0  0  0  0  0  0  0
  -24.4122    9.7115   51.2037 O   0  0  0  0  0  0  0  0  0  0  0  0
  -26.5325    8.8796   51.1811 N   0  0  0  0  0  0  0  0  0  0  0  0
  -27.1654    8.5152   50.5209 H   0  0  0  0  0  0  0  0  0  0  0  0
  -27.1159    8.9845   52.5263 C   0  0  0  0  0  0  0  0  0  0  0  0
  -26.5242    8.0312   53.6439 C   0  0  0  0  0  0  0  0  0  0  0  0
  -26.0420    8.6042   54.8245 C   0  0  0  0  0  0  0  0  0  0  0  0
  -25.4811    7.7901   55.8133 C   0  0  0  0  0  0  0  0  0  0  0  0
  -25.3918    6.4145   55.6039 C   0  0  0  0  0  0  0  0  0  0  0  0
  -25.8543    5.8520   54.4093 C   0  0  0  0  0  0  0  0  0  0  0  0
  -26.4161    6.6600   53.4198 C   0  0  0  0  0  0  0  0  0  0  0  0
  -27.9918   10.1818   52.7954 C   0  0  0  0  0  0  0  0  0  0  0  0
  -29.2200   10.0314   53.4225 C   0  0  0  0  0  0  0  0  0  0  0  0
  -29.9523   11.1674   53.7544 C   0  0  0  0  0  0  0  0  0  0  0  0
  -29.4267   12.4284   53.4963 C   0  0  0  0  0  0  0  0  0  0  0  0
  -28.1707   12.5751   52.9075 C   0  0  0  0  0  0  0  0  0  0  0  0
  -27.4395   11.4417   52.5811 C   0  0  0  0  0  0  0  0  0  0  0  0
 20 21  1  0  0  0
 21 16  1  0  0  0
 16 17  1  0  0  0
 16 12  1  0  0  0
 12 13  2  0  0  0
 12 14  1  0  0  0
 14  1  1  0  0  0
  1  2  1  0  0  0
  1  5  1  0  0  0
  2  3  2  0  0  0
  2  4  1  0  0  0
  4  8  1  0  0  0
  4 11  1  0  0  0
  5 22  1  0  0  0
  5  6  1  0  0  0
 22 23  1  0  0  0
  6  7  1  0  0  0
  7  8  1  0  0  0
  8  9  1  0  0  0
  9 10  1  0  0  0
 10 11  1  0  0  0
 11 26  1  0  0  0
 26 27  2  0  0  0
 26 28  1  0  0  0
 28 30  1  0  0  0
 30 31  1  0  0  0
 30 37  1  0  0  0
 31 32  2  0  0  0
 31 36  1  0  0  0
 32 33  1  0  0  0
 33 34  2  0  0  0
 34 35  1  0  0  0
 35 36  2  0  0  0
 37 38  2  0  0  0
 37 42  1  0  0  0
 38 39  1  0  0  0
 39 40  2  0  0  0
 40 41  1  0  0  0
 41 42  2  0  0  0
 17 18  1  0  0  0
 17 19  1  0  0  0
 14 15  1  0  0  0
 23 24  1  0  0  0
 23 25  1  0  0  0
 28 29  1  0  0  0
M  END
> <minimizedAffinity>
-8.01110

$$$$
3CM2_X23_D_600


 42 45  0  0  0  0  0  0  0  0999 V2000
  -22.3499    9.8835   47.1053 C   0  0  0  0  0  0  0  0  0  0  0  0
  -23.6940    9.7814   47.8367 C   0  0  0  0  0  0  0  0  0  0  0  0
  -24.4731   10.7367   47.8122 O   0  0  0  0  0  0  0  0  0  0  0  0
  -24.0584    8.6931   48.4808 N   0  0  0  0  0  0  0  0  0  0  0  0
  -21.0869    9.6783   47.9954 C   0  0  0  0  0  0  0  0  0  0  0  0
  -21.4380    9.1098   49.3853 C   0  0  0  0  0  0  0  0  0  0  0  0
  -21.9685    7.6537   49.3729 C   0  0  0  0  0  0  0  0  0  0  0  0
  -23.2858    7.4384   48.5948 C   0  0  0  0  0  0  0  0  0  0  0  0
  -24.2133    6.4856   49.3459 C   0  0  0  0  0  0  0  0  0  0  0  0
  -25.6112    7.0852   49.1127 C   0  0  0  0  0  0  0  0  0  0  0  0
  -25.3657    8.5982   49.1355 C   0  0  0  0  0  0  0  0  0  0  0  0
  -21.9756   11.1710   45.1098 C   0  0  0  0  0  0  0  0  0  0  0  0
  -21.4241   10.2214   44.5651 O   0  0  0  0  0  0  0  0  0  0  0  0
  -22.4333   11.1268   46.3360 N   0  0  0  0  0  0  0  0  0  0  0  0
  -22.8338   11.9299   46.7409 H   0  0  0  0  0  0  0  0  0  0  0  0
  -22.1969   12.4974   44.4157 C   0  0  0  0  0  0  0  0  0  0  0  0
  -22.5206   12.2856   43.0027 N   0  0  0  0  0  0  0  0  0  0  0  0
  -23.3453   11.6901   42.9284 H   0  0  0  0  0  0  0  0  0  0  0  0
  -21.7327   11.8350   42.5373 H   0  0  0  0  0  0  0  0  0  0  0  0
  -24.4039   13.6825   44.1692 C   0  0  0  0  0  0  0  0  0  0  0  0
  -23.3932   13.1066   45.1377 C   0  0  0  0  0  0  0  0  0  0  0  0
  -20.2418   10.9570   48.0975 C   0  0  0  0  0  0  0  0  0  0  0  0
  -19.2538   11.0348   47.0161 N   0  0  0  0  0  0  0  0  0  0  0  0
  -18.6198   10.2381   47.0769 H   0  0  0  0  0  0  0  0  0  0  0  0
  -18.7214   11.9004   47.1036 H   0  0  0  0  0  0  0  0  0  0  0  0
  -25.4123    9.0634   50.5980 C   0  0  0  0  0  0  0  0  0  0  0  0
  -24.4901    9.6390   51.1650 O   0  0  0  0  0  0  0  0  0  0  0  0
  -26.5832    8.7430   51.0996 N   0  0  0  0  0  0  0  0  0  0  0  0
  -27.1935    8.3650   50.4258 H   0  0  0  0  0  0  0  0  0  0  0  0
  -27.1923    8.8190   52.4354 C   0  0  0  0  0  0  0  0  0  0  0  0
  -27.9903   10.1405   52.7885 C   0  0  0  0  0  0  0  0  0  0  0  0
  -27.3879   11.3750   52.5280 C   0  0  0  0  0  0  0  0  0  0  0  0
  -28.0543   12.5577   52.8628 C   0  0  0  0  0  0  0  0  0  0  0  0
  -29.3074   12.4937   53.4707 C   0  0  0  0  0  0  0  0  0  0  0  0
  -29.8926   11.2540   53.7504 C   0  0  0  0  0  0  0  0  0  0  0  0
  -29.2321   10.0706   53.4171 C   0  0  0  0  0  0  0  0  0  0  0  0
  -27.2686    7.5346   53.2212 C   0  0  0  0  0  0  0  0  0  0  0  0
  -26.6716    7.4340   54.4693 C   0  0  0  0  0  0  0  0  0  0  0  0
  -26.8551    6.2726   55.2139 C   0  0  0  0  0  0  0  0  0  0  0  0
  -27.6650    5.2559   54.7206 C   0  0  0  0  0  0  0  0  0  0  0  0
  -28.3006    5.3810   53.4853 C   0  0  0  0  0  0  0  0  0  0  0  0
  -28.1205    6.5413   52.7457 C   0  0  0  0  0  0  0  0  0  0  0  0
 20 21  1  0  0  0
 21 16  1  0  0  0
 16 17  1  0  0  0
 16 12  1  0  0  0
 12 13  2  0  0  0
 12 14  1  0  0  0
 14  1  1  0  0  0
  1  2  1  0  0  0
  1  5  1  0  0  0
  2  3  2  0  0  0
  2  4  1  0  0  0
  4  8  1  0  0  0
  4 11  1  0  0  0
  5 22  1  0  0  0
  5  6  1  0  0  0
 22 23  1  0  0  0
  6  7  1  0  0  0
  7  8  1  0  0  0
  8  9  1  0  0  0
  9 10  1  0  0  0
 10 11  1  0  0  0
 11 26  1  0  0  0
 26 27  2  0  0  0
 26 28  1  0  0  0
 28 30  1  0  0  0
 30 31  1  0  0  0
 30 37  1  0  0  0
 31 32  2  0  0  0
 31 36  1  0  0  0
 32 33  1  0  0  0
 33 34  2  0  0  0
 34 35  1  0  0  0
 35 36  2  0  0  0
 37 38  2  0  0  0
 37 42  1  0  0  0
 38 39  1  0  0  0
 39 40  2  0  0  0
 40 41  1  0  0  0
 41 42  2  0  0  0
 17 18  1  0  0  0
 17 19  1  0  0  0
 14 15  1  0  0  0
 23 24  1  0  0  0
 23 25  1  0  0  0
 28 29  1  0  0  0
M  END
> <minimizedAffinity>
-8.00026

$$$$
3CM2_X23_D_600


 42 45  0  0  0  0  0  0  0  0999 V2000
  -26.9402    9.0822   52.4419 C   0  0  0  0  0  0  0  0  0  0  0  0
  -25.7705    9.5412   51.5626 C   0  0  0  0  0  0  0  0  0  0  0  0
  -25.8208   10.6426   51.0108 O   0  0  0  0  0  0  0  0  0  0  0  0
  -24.6952    8.8027   51.3886 N   0  0  0  0  0  0  0  0  0  0  0  0
  -27.6154    7.7448   52.0120 C   0  0  0  0  0  0  0  0  0  0  0  0
  -26.7829    6.9813   50.9621 C   0  0  0  0  0  0  0  0  0  0  0  0
  -25.4380    6.4190   51.4881 C   0  0  0  0  0  0  0  0  0  0  0  0
  -24.4311    7.4783   51.9891 C   0  0  0  0  0  0  0  0  0  0  0  0
  -23.0111    7.1338   51.5452 C   0  0  0  0  0  0  0  0  0  0  0  0
  -22.3993    8.5031   51.2004 C   0  0  0  0  0  0  0  0  0  0  0  0
  -23.5685    9.2775   50.5813 C   0  0  0  0  0  0  0  0  0  0  0  0
  -27.6934   11.0453   53.6077 C   0  0  0  0  0  0  0  0  0  0  0  0
  -26.9230   10.8259   54.5355 O   0  0  0  0  0  0  0  0  0  0  0  0
  -27.8026   10.2594   52.5658 N   0  0  0  0  0  0  0  0  0  0  0  0
  -28.4648   10.4600   51.8654 H   0  0  0  0  0  0  0  0  0  0  0  0
  -28.5958   12.2592   53.5625 C   0  0  0  0  0  0  0  0  0  0  0  0
  -28.3615   13.0232   52.3347 N   0  0  0  0  0  0  0  0  0  0  0  0
  -28.5145   12.4215   51.5254 H   0  0  0  0  0  0  0  0  0  0  0  0
  -27.4012   13.3669   52.3261 H   0  0  0  0  0  0  0  0  0  0  0  0
  -30.4344   11.2181   54.9305 C   0  0  0  0  0  0  0  0  0  0  0  0
  -30.0062   11.6813   53.5544 C   0  0  0  0  0  0  0  0  0  0  0  0
  -29.0650    7.9556   51.5492 C   0  0  0  0  0  0  0  0  0  0  0  0
  -29.9721    8.1290   52.6886 N   0  0  0  0  0  0  0  0  0  0  0  0
  -29.9509    7.2917   53.2707 H   0  0  0  0  0  0  0  0  0  0  0  0
  -30.9211    8.2820   52.3475 H   0  0  0  0  0  0  0  0  0  0  0  0
  -23.6280    8.9300   49.0869 C   0  0  0  0  0  0  0  0  0  0  0  0
  -24.5157    8.2582   48.5732 O   0  0  0  0  0  0  0  0  0  0  0  0
  -22.5908    9.4732   48.4916 N   0  0  0  0  0  0  0  0  0  0  0  0
  -22.0625   10.0430   49.0960 H   0  0  0  0  0  0  0  0  0  0  0  0
  -22.0373    9.4262   47.1305 C   0  0  0  0  0  0  0  0  0  0  0  0
  -22.4227   10.6131   46.1553 C   0  0  0  0  0  0  0  0  0  0  0  0
  -21.4013   11.4281   45.6580 C   0  0  0  0  0  0  0  0  0  0  0  0
  -21.7160   12.5053   44.8239 C   0  0  0  0  0  0  0  0  0  0  0  0
  -23.0491   12.7671   44.5106 C   0  0  0  0  0  0  0  0  0  0  0  0
  -24.0671   11.9615   45.0322 C   0  0  0  0  0  0  0  0  0  0  0  0
  -23.7583   10.8844   45.8642 C   0  0  0  0  0  0  0  0  0  0  0  0
  -20.9244    8.4396   46.8834 C   0  0  0  0  0  0  0  0  0  0  0  0
  -20.2214    8.4533   45.6876 C   0  0  0  0  0  0  0  0  0  0  0  0
  -19.1298    7.6032   45.5364 C   0  0  0  0  0  0  0  0  0  0  0  0
  -18.7342    6.7914   46.5935 C   0  0  0  0  0  0  0  0  0  0  0  0
  -19.4164    6.8149   47.8099 C   0  0  0  0  0  0  0  0  0  0  0  0
  -20.5019    7.6661   47.9612 C   0  0  0  0  0  0  0  0  0  0  0  0
 20 21  1  0  0  0
 21 16  1  0  0  0
 16 17  1  0  0  0
 16 12  1  0  0  0
 12 13  2  0  0  0
 12 14  1  0  0  0
 14  1  1  0  0  0
  1  2  1  0  0  0
  1  5  1  0  0  0
  2  3  2  0  0  0
  2  4  1  0  0  0
  4  8  1  0  0  0
  4 11  1  0  0  0
  5 22  1  0  0  0
  5  6  1  0  0  0
 22 23  1  0  0  0
  6  7  1  0  0  0
  7  8  1  0  0  0
  8  9  1  0  0  0
  9 10  1  0  0  0
 10 11  1  0  0  0
 11 26  1  0  0  0
 26 27  2  0  0  0
 26 28  1  0  0  0
 28 30  1  0  0  0
 30 31  1  0  0  0
 30 37  1  0  0  0
 31 32  2  0  0  0
 31 36  1  0  0  0
 32 33  1  0  0  0
 33 34  2  0  0  0
 34 35  1  0  0  0
 35 36  2  0  0  0
 37 38  2  0  0  0
 37 42  1  0  0  0
 38 39  1  0  0  0
 39 40  2  0  0  0
 40 41  1  0  0  0
 41 42  2  0  0  0
 17 18  1  0  0  0
 17 19  1  0  0  0
 14 15  1  0  0  0
 23 24  1  0  0  0
 23 25  1  0  0  0
 28 29  1  0  0  0
M  END
> <minimizedAffinity>
-7.26730

$$$$
3CM2_X23_D_600


 42 45  0  0  0  0  0  0  0  0999 V2000
  -26.9048    9.0806   52.4609 C   0  0  0  0  0  0  0  0  0  0  0  0
  -25.7030    9.5684   51.6425 C   0  0  0  0  0  0  0  0  0  0  0  0
  -25.7395   10.6816   51.1138 O   0  0  0  0  0  0  0  0  0  0  0  0
  -24.6148    8.8424   51.4979 N   0  0  0  0  0  0  0  0  0  0  0  0
  -27.5495    7.7480   51.9730 C   0  0  0  0  0  0  0  0  0  0  0  0
  -26.6666    7.0149   50.9427 C   0  0  0  0  0  0  0  0  0  0  0  0
  -25.3404    6.4513   51.5127 C   0  0  0  0  0  0  0  0  0  0  0  0
  -24.3649    7.5069   52.0795 C   0  0  0  0  0  0  0  0  0  0  0  0
  -22.9243    7.1836   51.6888 C   0  0  0  0  0  0  0  0  0  0  0  0
  -22.3105    8.5650   51.4009 C   0  0  0  0  0  0  0  0  0  0  0  0
  -23.4591    9.3441   50.7500 C   0  0  0  0  0  0  0  0  0  0  0  0
  -27.7047   11.0263   53.6245 C   0  0  0  0  0  0  0  0  0  0  0  0
  -26.9537   10.8072   54.5681 O   0  0  0  0  0  0  0  0  0  0  0  0
  -27.7818   10.2479   52.5742 N   0  0  0  0  0  0  0  0  0  0  0  0
  -28.4298   10.4475   51.8604 H   0  0  0  0  0  0  0  0  0  0  0  0
  -28.6183   12.2314   53.5681 C   0  0  0  0  0  0  0  0  0  0  0  0
  -28.3872   12.9892   52.3360 N   0  0  0  0  0  0  0  0  0  0  0  0
  -28.5318   12.3807   51.5303 H   0  0  0  0  0  0  0  0  0  0  0  0
  -27.4301   13.3419   52.3282 H   0  0  0  0  0  0  0  0  0  0  0  0
  -30.4433   11.1624   54.9330 C   0  0  0  0  0  0  0  0  0  0  0  0
  -30.0233   11.6401   53.5594 C   0  0  0  0  0  0  0  0  0  0  0  0
  -28.9799    7.9579   51.4538 C   0  0  0  0  0  0  0  0  0  0  0  0
  -29.9335    8.1152   52.5571 N   0  0  0  0  0  0  0  0  0  0  0  0
  -29.9321    7.2717   53.1305 H   0  0  0  0  0  0  0  0  0  0  0  0
  -30.8685    8.2680   52.1793 H   0  0  0  0  0  0  0  0  0  0  0  0
  -23.4524    9.0301   49.2471 C   0  0  0  0  0  0  0  0  0  0  0  0
  -24.3155    8.3693   48.6799 O   0  0  0  0  0  0  0  0  0  0  0  0
  -22.3909    9.5871   48.7102 N   0  0  0  0  0  0  0  0  0  0  0  0
  -21.8906   10.1436   49.3499 H   0  0  0  0  0  0  0  0  0  0  0  0
  -21.7780    9.5709   47.3741 C   0  0  0  0  0  0  0  0  0  0  0  0
  -20.9941    8.2594   46.9576 C   0  0  0  0  0  0  0  0  0  0  0  0
  -20.2458    8.2746   45.7767 C   0  0  0  0  0  0  0  0  0  0  0  0
  -19.5728    7.1199   45.3658 C   0  0  0  0  0  0  0  0  0  0  0  0
  -19.6697    5.9576   46.1298 C   0  0  0  0  0  0  0  0  0  0  0  0
  -20.4406    5.9438   47.2973 C   0  0  0  0  0  0  0  0  0  0  0  0
  -21.1132    7.0940   47.7124 C   0  0  0  0  0  0  0  0  0  0  0  0
  -22.2042   10.6559   46.4180 C   0  0  0  0  0  0  0  0  0  0  0  0
  -21.2586   11.4328   45.7648 C   0  0  0  0  0  0  0  0  0  0  0  0
  -21.6826   12.3496   44.8074 C   0  0  0  0  0  0  0  0  0  0  0  0
  -23.0327   12.4415   44.4885 C   0  0  0  0  0  0  0  0  0  0  0  0
  -23.9747   11.6255   45.1151 C   0  0  0  0  0  0  0  0  0  0  0  0
  -23.5503   10.7087   46.0663 C   0  0  0  0  0  0  0  0  0  0  0  0
 20 21  1  0  0  0
 21 16  1  0  0  0
 16 17  1  0  0  0
 16 12  1  0  0  0
 12 13  2  0  0  0
 12 14  1  0  0  0
 14  1  1  0  0  0
  1  2  1  0  0  0
  1  5  1  0  0  0
  2  3  2  0  0  0
  2  4  1  0  0  0
  4  8  1  0  0  0
  4 11  1  0  0  0
  5 22  1  0  0  0
  5  6  1  0  0  0
 22 23  1  0  0  0
  6  7  1  0  0  0
  7  8  1  0  0  0
  8  9  1  0  0  0
  9 10  1  0  0  0
 10 11  1  0  0  0
 11 26  1  0  0  0
 26 27  2  0  0  0
 26 28  1  0  0  0
 28 30  1  0  0  0
 30 31  1  0  0  0
 30 37  1  0  0  0
 31 32  2  0  0  0
 31 36  1  0  0  0
 32 33  1  0  0  0
 33 34  2  0  0  0
 34 35  1  0  0  0
 35 36  2  0  0  0
 37 38  2  0  0  0
 37 42  1  0  0  0
 38 39  1  0  0  0
 39 40  2  0  0  0
 40 41  1  0  0  0
 41 42  2  0  0  0
 17 18  1  0  0  0
 17 19  1  0  0  0
 14 15  1  0  0  0
 23 24  1  0  0  0
 23 25  1  0  0  0
 28 29  1  0  0  0
M  END
> <minimizedAffinity>
-7.16159

$$$$
3CM2_X23_D_600


 42 45  0  0  0  0  0  0  0  0999 V2000
  -22.4445    9.7145   47.2654 C   0  0  0  0  0  0  0  0  0  0  0  0
  -23.6371    9.7241   48.2296 C   0  0  0  0  0  0  0  0  0  0  0  0
  -24.1872   10.7926   48.5049 O   0  0  0  0  0  0  0  0  0  0  0  0
  -24.1120    8.6197   48.7651 N   0  0  0  0  0  0  0  0  0  0  0  0
  -21.1234    9.1213   47.8418 C   0  0  0  0  0  0  0  0  0  0  0  0
  -21.3493    8.3777   49.1739 C   0  0  0  0  0  0  0  0  0  0  0  0
  -22.1726    7.0705   49.0527 C   0  0  0  0  0  0  0  0  0  0  0  0
  -23.6170    7.2465   48.5334 C   0  0  0  0  0  0  0  0  0  0  0  0
  -24.5869    6.3553   49.3063 C   0  0  0  0  0  0  0  0  0  0  0  0
  -25.8435    7.2317   49.4516 C   0  0  0  0  0  0  0  0  0  0  0  0
  -25.2804    8.6438   49.6487 C   0  0  0  0  0  0  0  0  0  0  0  0
  -22.0895   11.2633   45.4612 C   0  0  0  0  0  0  0  0  0  0  0  0
  -21.8003   10.3508   44.6955 O   0  0  0  0  0  0  0  0  0  0  0  0
  -22.3886   11.0732   46.7220 N   0  0  0  0  0  0  0  0  0  0  0  0
  -22.5761   11.8442   47.3048 H   0  0  0  0  0  0  0  0  0  0  0  0
  -22.1428   12.7116   45.0257 C   0  0  0  0  0  0  0  0  0  0  0  0
  -20.9019   13.0844   44.3422 N   0  0  0  0  0  0  0  0  0  0  0  0
  -20.7542   12.4661   43.5445 H   0  0  0  0  0  0  0  0  0  0  0  0
  -20.1181   12.9977   44.9892 H   0  0  0  0  0  0  0  0  0  0  0  0
  -24.4358   13.6425   44.5660 C   0  0  0  0  0  0  0  0  0  0  0  0
  -23.3121   12.7697   44.0496 C   0  0  0  0  0  0  0  0  0  0  0  0
  -20.0199   10.1835   47.9598 C   0  0  0  0  0  0  0  0  0  0  0  0
  -19.2335   10.2796   46.7254 N   0  0  0  0  0  0  0  0  0  0  0  0
  -18.7831    9.3837   46.5386 H   0  0  0  0  0  0  0  0  0  0  0  0
  -18.5217   11.0025   46.8312 H   0  0  0  0  0  0  0  0  0  0  0  0
  -24.9805    8.8296   51.1430 C   0  0  0  0  0  0  0  0  0  0  0  0
  -24.1060    8.2199   51.7486 O   0  0  0  0  0  0  0  0  0  0  0  0
  -25.8039    9.7331   51.6236 N   0  0  0  0  0  0  0  0  0  0  0  0
  -26.3596   10.1489   50.9254 H   0  0  0  0  0  0  0  0  0  0  0  0
  -26.0866   10.2663   52.9641 C   0  0  0  0  0  0  0  0  0  0  0  0
  -27.4989   10.9482   53.1843 C   0  0  0  0  0  0  0  0  0  0  0  0
  -28.5662   10.1523   53.6111 C   0  0  0  0  0  0  0  0  0  0  0  0
  -29.8328   10.7204   53.7791 C   0  0  0  0  0  0  0  0  0  0  0  0
  -30.0230   12.0734   53.5015 C   0  0  0  0  0  0  0  0  0  0  0  0
  -28.9552   12.8574   53.0513 C   0  0  0  0  0  0  0  0  0  0  0  0
  -27.6888   12.2955   52.8832 C   0  0  0  0  0  0  0  0  0  0  0  0
  -25.1531    9.8492   54.0720 C   0  0  0  0  0  0  0  0  0  0  0  0
  -23.9644   10.5309   54.2879 C   0  0  0  0  0  0  0  0  0  0  0  0
  -23.1805   10.1902   55.3862 C   0  0  0  0  0  0  0  0  0  0  0  0
  -23.6179    9.2105   56.2704 C   0  0  0  0  0  0  0  0  0  0  0  0
  -24.8361    8.5599   56.0744 C   0  0  0  0  0  0  0  0  0  0  0  0
  -25.6191    8.9036   54.9815 C   0  0  0  0  0  0  0  0  0  0  0  0
 20 21  1  0  0  0
 21 16  1  0  0  0
 16 17  1  0  0  0
 16 12  1  0  0  0
 12 13  2  0  0  0
 12 14  1  0  0  0
 14  1  1  0  0  0
  1  2  1  0  0  0
  1  5  1  0  0  0
  2  3  2  0  0  0
  2  4  1  0  0  0
  4  8  1  0  0  0
  4 11  1  0  0  0
  5 22  1  0  0  0
  5  6  1  0  0  0
 22 23  1  0  0  0
  6  7  1  0  0  0
  7  8  1  0  0  0
  8  9  1  0  0  0
  9 10  1  0  0  0
 10 11  1  0  0  0
 11 26  1  0  0  0
 26 27  2  0  0  0
 26 28  1  0  0  0
 28 30  1  0  0  0
 30 31  1  0  0  0
 30 37  1  0  0  0
 31 32  2  0  0  0
 31 36  1  0  0  0
 32 33  1  0  0  0
 33 34  2  0  0  0
 34 35  1  0  0  0
 35 36  2  0  0  0
 37 38  2  0  0  0
 37 42  1  0  0  0
 38 39  1  0  0  0
 39 40  2  0  0  0
 40 41  1  0  0  0
 41 42  2  0  0  0
 17 18  1  0  0  0
 17 19  1  0  0  0
 14 15  1  0  0  0
 23 24  1  0  0  0
 23 25  1  0  0  0
 28 29  1  0  0  0
M  END
> <minimizedAffinity>
-7.12703

$$$$
3CM2_X23_D_600


 42 45  0  0  0  0  0  0  0  0999 V2000
  -22.5447    9.3830   47.5955 C   0  0  0  0  0  0  0  0  0  0  0  0
  -23.9795    9.0820   48.0458 C   0  0  0  0  0  0  0  0  0  0  0  0
  -24.8434    9.9559   47.9463 O   0  0  0  0  0  0  0  0  0  0  0  0
  -24.3305    7.9065   48.5223 N   0  0  0  0  0  0  0  0  0  0  0  0
  -21.4503    9.2145   48.6925 C   0  0  0  0  0  0  0  0  0  0  0  0
  -21.9828    8.4830   49.9414 C   0  0  0  0  0  0  0  0  0  0  0  0
  -22.3350    6.9909   49.7153 C   0  0  0  0  0  0  0  0  0  0  0  0
  -23.4556    6.7266   48.6851 C   0  0  0  0  0  0  0  0  0  0  0  0
  -24.3914    5.6209   49.1689 C   0  0  0  0  0  0  0  0  0  0  0  0
  -25.7817    6.1034   48.7192 C   0  0  0  0  0  0  0  0  0  0  0  0
  -25.7161    7.6236   48.9052 C   0  0  0  0  0  0  0  0  0  0  0  0
  -22.0291   10.8610   45.7708 C   0  0  0  0  0  0  0  0  0  0  0  0
  -21.3489    9.9990   45.2260 O   0  0  0  0  0  0  0  0  0  0  0  0
  -22.6257   10.6812   46.9227 N   0  0  0  0  0  0  0  0  0  0  0  0
  -23.1289   11.4192   47.3366 H   0  0  0  0  0  0  0  0  0  0  0  0
  -22.2616   12.2266   45.1617 C   0  0  0  0  0  0  0  0  0  0  0  0
  -21.3535   12.4426   44.0327 N   0  0  0  0  0  0  0  0  0  0  0  0
  -21.4885   11.7044   43.3418 H   0  0  0  0  0  0  0  0  0  0  0  0
  -20.3890   12.4259   44.3641 H   0  0  0  0  0  0  0  0  0  0  0  0
  -24.3569   13.5443   44.7041 C   0  0  0  0  0  0  0  0  0  0  0  0
  -23.7031   12.1795   44.6683 C   0  0  0  0  0  0  0  0  0  0  0  0
  -20.7871   10.5525   49.0529 C   0  0  0  0  0  0  0  0  0  0  0  0
  -21.6132   11.3267   49.9854 N   0  0  0  0  0  0  0  0  0  0  0  0
  -22.5130   11.5332   49.5516 H   0  0  0  0  0  0  0  0  0  0  0  0
  -21.1386   12.1996   50.2160 H   0  0  0  0  0  0  0  0  0  0  0  0
  -26.0806    7.9383   50.3631 C   0  0  0  0  0  0  0  0  0  0  0  0
  -25.2583    8.1835   51.2388 O   0  0  0  0  0  0  0  0  0  0  0  0
  -27.3881    7.9002   50.4828 N   0  0  0  0  0  0  0  0  0  0  0  0
  -27.8440    7.7699   49.6200 H   0  0  0  0  0  0  0  0  0  0  0  0
  -28.3275    8.0072   51.6085 C   0  0  0  0  0  0  0  0  0  0  0  0
  -29.6112    7.0808   51.5655 C   0  0  0  0  0  0  0  0  0  0  0  0
  -29.5985    5.9594   50.7305 C   0  0  0  0  0  0  0  0  0  0  0  0
  -30.7311    5.1439   50.6453 C   0  0  0  0  0  0  0  0  0  0  0  0
  -31.8701    5.4679   51.3813 C   0  0  0  0  0  0  0  0  0  0  0  0
  -31.8829    6.6056   52.1956 C   0  0  0  0  0  0  0  0  0  0  0  0
  -30.7547    7.4221   52.2851 C   0  0  0  0  0  0  0  0  0  0  0  0
  -27.8420    8.7444   52.8307 C   0  0  0  0  0  0  0  0  0  0  0  0
  -27.9264   10.1273   52.9012 C   0  0  0  0  0  0  0  0  0  0  0  0
  -27.5720   10.7659   54.0859 C   0  0  0  0  0  0  0  0  0  0  0  0
  -27.1849   10.0124   55.1883 C   0  0  0  0  0  0  0  0  0  0  0  0
  -27.1459    8.6194   55.1269 C   0  0  0  0  0  0  0  0  0  0  0  0
  -27.5038    7.9835   53.9466 C   0  0  0  0  0  0  0  0  0  0  0  0
 20 21  1  0  0  0
 21 16  1  0  0  0
 16 17  1  0  0  0
 16 12  1  0  0  0
 12 13  2  0  0  0
 12 14  1  0  0  0
 14  1  1  0  0  0
  1  2  1  0  0  0
  1  5  1  0  0  0
  2  3  2  0  0  0
  2  4  1  0  0  0
  4  8  1  0  0  0
  4 11  1  0  0  0
  5 22  1  0  0  0
  5  6  1  0  0  0
 22 23  1  0  0  0
  6  7  1  0  0  0
  7  8  1  0  0  0
  8  9  1  0  0  0
  9 10  1  0  0  0
 10 11  1  0  0  0
 11 26  1  0  0  0
 26 27  2  0  0  0
 26 28  1  0  0  0
 28 30  1  0  0  0
 30 31  1  0  0  0
 30 37  1  0  0  0
 31 32  2  0  0  0
 31 36  1  0  0  0
 32 33  1  0  0  0
 33 34  2  0  0  0
 34 35  1  0  0  0
 35 36  2  0  0  0
 37 38  2  0  0  0
 37 42  1  0  0  0
 38 39  1  0  0  0
 39 40  2  0  0  0
 40 41  1  0  0  0
 41 42  2  0  0  0
 17 18  1  0  0  0
 17 19  1  0  0  0
 14 15  1  0  0  0
 23 24  1  0  0  0
 23 25  1  0  0  0
 28 29  1  0  0  0
M  END
> <minimizedAffinity>
-6.93576

$$$$
3CM2_X23_D_600


 42 45  0  0  0  0  0  0  0  0999 V2000
  -26.4654    8.5095   53.4732 C   0  0  0  0  0  0  0  0  0  0  0  0
  -25.0337    8.6640   52.9454 C   0  0  0  0  0  0  0  0  0  0  0  0
  -24.7461    9.6368   52.2447 O   0  0  0  0  0  0  0  0  0  0  0  0
  -24.0858    7.7970   53.2316 N   0  0  0  0  0  0  0  0  0  0  0  0
  -27.1910    7.1926   53.0624 C   0  0  0  0  0  0  0  0  0  0  0  0
  -26.2227    6.1570   52.4554 C   0  0  0  0  0  0  0  0  0  0  0  0
  -25.1951    5.5691   53.4554 C   0  0  0  0  0  0  0  0  0  0  0  0
  -24.2213    6.5937   54.0790 C   0  0  0  0  0  0  0  0  0  0  0  0
  -22.8072    6.0225   54.1602 C   0  0  0  0  0  0  0  0  0  0  0  0
  -21.9121    7.2271   53.8200 C   0  0  0  0  0  0  0  0  0  0  0  0
  -22.7131    7.9854   52.7555 C   0  0  0  0  0  0  0  0  0  0  0  0
  -27.2877   10.6913   54.0591 C   0  0  0  0  0  0  0  0  0  0  0  0
  -26.9481   10.5381   55.2269 O   0  0  0  0  0  0  0  0  0  0  0  0
  -27.1278    9.7723   53.1399 N   0  0  0  0  0  0  0  0  0  0  0  0
  -27.4532    9.9304   52.2242 H   0  0  0  0  0  0  0  0  0  0  0  0
  -27.9202   11.9688   53.5513 C   0  0  0  0  0  0  0  0  0  0  0  0
  -27.2591   12.4111   52.3211 N   0  0  0  0  0  0  0  0  0  0  0  0
  -27.3131   11.6711   51.6212 H   0  0  0  0  0  0  0  0  0  0  0  0
  -26.2808   12.6222   52.5179 H   0  0  0  0  0  0  0  0  0  0  0  0
  -30.3225   12.7204   53.5417 C   0  0  0  0  0  0  0  0  0  0  0  0
  -29.3651   11.5834   53.2558 C   0  0  0  0  0  0  0  0  0  0  0  0
  -28.3916    7.4609   52.1424 C   0  0  0  0  0  0  0  0  0  0  0  0
  -27.9601    7.9144   50.8159 N   0  0  0  0  0  0  0  0  0  0  0  0
  -27.4386    8.7862   50.9077 H   0  0  0  0  0  0  0  0  0  0  0  0
  -28.7782    8.0681   50.2264 H   0  0  0  0  0  0  0  0  0  0  0  0
  -22.3920    7.3634   51.3890 C   0  0  0  0  0  0  0  0  0  0  0  0
  -21.3215    6.8349   51.1098 O   0  0  0  0  0  0  0  0  0  0  0  0
  -23.4433    7.4977   50.6131 N   0  0  0  0  0  0  0  0  0  0  0  0
  -24.2183    7.8767   51.0873 H   0  0  0  0  0  0  0  0  0  0  0  0
  -23.7291    7.2123   49.1996 C   0  0  0  0  0  0  0  0  0  0  0  0
  -24.6641    5.9721   48.8904 C   0  0  0  0  0  0  0  0  0  0  0  0
  -24.0781    4.7095   48.7587 C   0  0  0  0  0  0  0  0  0  0  0  0
  -24.8748    3.6026   48.4503 C   0  0  0  0  0  0  0  0  0  0  0  0
  -26.2454    3.7724   48.2590 C   0  0  0  0  0  0  0  0  0  0  0  0
  -26.8201    5.0433   48.3684 C   0  0  0  0  0  0  0  0  0  0  0  0
  -26.0296    6.1511   48.6773 C   0  0  0  0  0  0  0  0  0  0  0  0
  -23.3708    8.2861   48.2038 C   0  0  0  0  0  0  0  0  0  0  0  0
  -24.3273    9.1904   47.7659 C   0  0  0  0  0  0  0  0  0  0  0  0
  -23.9376   10.2349   46.9327 C   0  0  0  0  0  0  0  0  0  0  0  0
  -22.5983   10.3831   46.5903 C   0  0  0  0  0  0  0  0  0  0  0  0
  -21.6331    9.4980   47.0706 C   0  0  0  0  0  0  0  0  0  0  0  0
  -22.0221    8.4596   47.9049 C   0  0  0  0  0  0  0  0  0  0  0  0
 20 21  1  0  0  0
 21 16  1  0  0  0
 16 17  1  0  0  0
 16 12  1  0  0  0
 12 13  2  0  0  0
 12 14  1  0  0  0
 14  1  1  0  0  0
  1  2  1  0  0  0
  1  5  1  0  0  0
  2  3  2  0  0  0
  2  4  1  0  0  0
  4  8  1  0  0  0
  4 11  1  0  0  0
  5 22  1  0  0  0
  5  6  1  0  0  0
 22 23  1  0  0  0
  6  7  1  0  0  0
  7  8  1  0  0  0
  8  9  1  0  0  0
  9 10  1  0  0  0
 10 11  1  0  0  0
 11 26  1  0  0  0
 26 27  2  0  0  0
 26 28  1  0  0  0
 28 30  1  0  0  0
 30 31  1  0  0  0
 30 37  1  0  0  0
 31 32  2  0  0  0
 31 36  1  0  0  0
 32 33  1  0  0  0
 33 34  2  0  0  0
 34 35  1  0  0  0
 35 36  2  0  0  0
 37 38  2  0  0  0
 37 42  1  0  0  0
 38 39  1  0  0  0
 39 40  2  0  0  0
 40 41  1  0  0  0
 41 42  2  0  0  0
 17 18  1  0  0  0
 17 19  1  0  0  0
 14 15  1  0  0  0
 23 24  1  0  0  0
 23 25  1  0  0  0
 28 29  1  0  0  0
M  END
> <minimizedAffinity>
-6.48994

$$$$
3CM2_X23_D_600


 42 45  0  0  0  0  0  0  0  0999 V2000
  -22.7524    9.3011   47.7533 C   0  0  0  0  0  0  0  0  0  0  0  0
  -24.1378    8.9037   48.2772 C   0  0  0  0  0  0  0  0  0  0  0  0
  -25.0320    9.7507   48.3337 O   0  0  0  0  0  0  0  0  0  0  0  0
  -24.4159    7.6741   48.6553 N   0  0  0  0  0  0  0  0  0  0  0  0
  -21.5704    9.0640   48.7413 C   0  0  0  0  0  0  0  0  0  0  0  0
  -21.9813    8.1917   49.9449 C   0  0  0  0  0  0  0  0  0  0  0  0
  -22.3067    6.7178   49.5936 C   0  0  0  0  0  0  0  0  0  0  0  0
  -23.4969    6.5170   48.6292 C   0  0  0  0  0  0  0  0  0  0  0  0
  -24.3591    5.3345   49.0659 C   0  0  0  0  0  0  0  0  0  0  0  0
  -25.7940    5.8079   48.7745 C   0  0  0  0  0  0  0  0  0  0  0  0
  -25.7582    7.3032   49.1105 C   0  0  0  0  0  0  0  0  0  0  0  0
  -22.3819   10.9876   46.0804 C   0  0  0  0  0  0  0  0  0  0  0  0
  -21.6812   10.2251   45.4246 O   0  0  0  0  0  0  0  0  0  0  0  0
  -22.9239   10.6564   47.2257 N   0  0  0  0  0  0  0  0  0  0  0  0
  -23.4470   11.3190   47.7323 H   0  0  0  0  0  0  0  0  0  0  0  0
  -22.7056   12.3950   45.6283 C   0  0  0  0  0  0  0  0  0  0  0  0
  -21.6950   12.8712   44.6808 N   0  0  0  0  0  0  0  0  0  0  0  0
  -21.6455   12.2327   43.8869 H   0  0  0  0  0  0  0  0  0  0  0  0
  -20.7866   12.9097   45.1432 H   0  0  0  0  0  0  0  0  0  0  0  0
  -24.4980   13.5761   44.3137 C   0  0  0  0  0  0  0  0  0  0  0  0
  -24.0542   12.2665   44.9296 C   0  0  0  0  0  0  0  0  0  0  0  0
  -20.9201   10.3826   49.1864 C   0  0  0  0  0  0  0  0  0  0  0  0
  -21.8571   11.2111   49.9527 N   0  0  0  0  0  0  0  0  0  0  0  0
  -22.6612   11.4429   49.3696 H   0  0  0  0  0  0  0  0  0  0  0  0
  -21.3907   12.0696   50.2457 H   0  0  0  0  0  0  0  0  0  0  0  0
  -26.0156    7.4563   50.6164 C   0  0  0  0  0  0  0  0  0  0  0  0
  -26.8910    6.8539   51.2279 O   0  0  0  0  0  0  0  0  0  0  0  0
  -25.1499    8.3169   51.1013 N   0  0  0  0  0  0  0  0  0  0  0  0
  -24.4853    8.6029   50.4336 H   0  0  0  0  0  0  0  0  0  0  0  0
  -24.9448    8.9513   52.4114 C   0  0  0  0  0  0  0  0  0  0  0  0
  -23.4713    8.9441   52.9920 C   0  0  0  0  0  0  0  0  0  0  0  0
  -22.8944    7.7179   53.3360 C   0  0  0  0  0  0  0  0  0  0  0  0
  -21.6086    7.6845   53.8844 C   0  0  0  0  0  0  0  0  0  0  0  0
  -20.9206    8.8779   54.0998 C   0  0  0  0  0  0  0  0  0  0  0  0
  -21.5148   10.1024   53.7756 C   0  0  0  0  0  0  0  0  0  0  0  0
  -22.7974   10.1410   53.2269 C   0  0  0  0  0  0  0  0  0  0  0  0
  -26.0687    9.8096   52.9340 C   0  0  0  0  0  0  0  0  0  0  0  0
  -26.5319    9.6529   54.2322 C   0  0  0  0  0  0  0  0  0  0  0  0
  -27.4935   10.5345   54.7170 C   0  0  0  0  0  0  0  0  0  0  0  0
  -27.9399   11.5794   53.9159 C   0  0  0  0  0  0  0  0  0  0  0  0
  -27.4372   11.7605   52.6274 C   0  0  0  0  0  0  0  0  0  0  0  0
  -26.4751   10.8836   52.1466 C   0  0  0  0  0  0  0  0  0  0  0  0
 20 21  1  0  0  0
 21 16  1  0  0  0
 16 17  1  0  0  0
 16 12  1  0  0  0
 12 13  2  0  0  0
 12 14  1  0  0  0
 14  1  1  0  0  0
  1  2  1  0  0  0
  1  5  1  0  0  0
  2  3  2  0  0  0
  2  4  1  0  0  0
  4  8  1  0  0  0
  4 11  1  0  0  0
  5 22  1  0  0  0
  5  6  1  0  0  0
 22 23  1  0  0  0
  6  7  1  0  0  0
  7  8  1  0  0  0
  8  9  1  0  0  0
  9 10  1  0  0  0
 10 11  1  0  0  0
 11 26  1  0  0  0
 26 27  2  0  0  0
 26 28  1  0  0  0
 28 30  1  0  0  0
 30 31  1  0  0  0
 30 37  1  0  0  0
 31 32  2  0  0  0
 31 36  1  0  0  0
 32 33  1  0  0  0
 33 34  2  0  0  0
 34 35  1  0  0  0
 35 36  2  0  0  0
 37 38  2  0  0  0
 37 42  1  0  0  0
 38 39  1  0  0  0
 39 40  2  0  0  0
 40 41  1  0  0  0
 41 42  2  0  0  0
 17 18  1  0  0  0
 17 19  1  0  0  0
 14 15  1  0  0  0
 23 24  1  0  0  0
 23 25  1  0  0  0
 28 29  1  0  0  0
M  END
> <minimizedAffinity>
-6.40621

$$$$
3CM2_X23_D_600


 42 45  0  0  0  0  0  0  0  0999 V2000
  -24.1249    8.6183   51.1637 C   0  0  0  0  0  0  0  0  0  0  0  0
  -23.2868    9.5013   50.2310 C   0  0  0  0  0  0  0  0  0  0  0  0
  -23.7510   10.5693   49.8260 O   0  0  0  0  0  0  0  0  0  0  0  0
  -22.0700    9.1665   49.8580 N   0  0  0  0  0  0  0  0  0  0  0  0
  -24.4044    7.1750   50.6457 C   0  0  0  0  0  0  0  0  0  0  0  0
  -23.5279    6.8107   49.4301 C   0  0  0  0  0  0  0  0  0  0  0  0
  -22.0164    6.6710   49.7420 C   0  0  0  0  0  0  0  0  0  0  0  0
  -21.3289    7.9532   50.2619 C   0  0  0  0  0  0  0  0  0  0  0  0
  -19.9467    8.1234   49.6351 C   0  0  0  0  0  0  0  0  0  0  0  0
  -19.8427    9.6404   49.3987 C   0  0  0  0  0  0  0  0  0  0  0  0
  -21.2675   10.0446   49.0028 C   0  0  0  0  0  0  0  0  0  0  0  0
  -25.7124    9.4693   52.7560 C   0  0  0  0  0  0  0  0  0  0  0  0
  -25.2169    8.7974   53.6535 O   0  0  0  0  0  0  0  0  0  0  0  0
  -25.2842    9.4396   51.5187 N   0  0  0  0  0  0  0  0  0  0  0  0
  -25.7420    9.9697   50.8268 H   0  0  0  0  0  0  0  0  0  0  0  0
  -26.8695   10.4170   52.9862 C   0  0  0  0  0  0  0  0  0  0  0  0
  -26.7446   11.5935   52.1223 N   0  0  0  0  0  0  0  0  0  0  0  0
  -26.7015   11.2964   51.1475 H   0  0  0  0  0  0  0  0  0  0  0  0
  -25.8929   12.1016   52.3609 H   0  0  0  0  0  0  0  0  0  0  0  0
  -29.1165    9.5468   53.7141 C   0  0  0  0  0  0  0  0  0  0  0  0
  -28.1019    9.6110   52.5925 C   0  0  0  0  0  0  0  0  0  0  0  0
  -25.8968    6.9443   50.3642 C   0  0  0  0  0  0  0  0  0  0  0  0
  -26.5967    6.4481   51.5538 N   0  0  0  0  0  0  0  0  0  0  0  0
  -26.1930    5.5556   51.8382 H   0  0  0  0  0  0  0  0  0  0  0  0
  -27.5855    6.3207   51.3381 H   0  0  0  0  0  0  0  0  0  0  0  0
  -21.4201    9.8216   47.4914 C   0  0  0  0  0  0  0  0  0  0  0  0
  -21.6009    8.7249   46.9741 O   0  0  0  0  0  0  0  0  0  0  0  0
  -21.3283   10.9846   46.8877 N   0  0  0  0  0  0  0  0  0  0  0  0
  -21.2723   11.7367   47.5205 H   0  0  0  0  0  0  0  0  0  0  0  0
  -21.2901   11.4217   45.4847 C   0  0  0  0  0  0  0  0  0  0  0  0
  -20.1385   10.8249   44.5759 C   0  0  0  0  0  0  0  0  0  0  0  0
  -18.9592   11.5602   44.4226 C   0  0  0  0  0  0  0  0  0  0  0  0
  -17.9402   11.0747   43.5974 C   0  0  0  0  0  0  0  0  0  0  0  0
  -18.1179    9.8689   42.9204 C   0  0  0  0  0  0  0  0  0  0  0  0
  -19.3109    9.1514   43.0600 C   0  0  0  0  0  0  0  0  0  0  0  0
  -20.3306    9.6310   43.8833 C   0  0  0  0  0  0  0  0  0  0  0  0
  -22.5083   12.1411   44.9637 C   0  0  0  0  0  0  0  0  0  0  0  0
  -23.6716   11.4424   44.6757 C   0  0  0  0  0  0  0  0  0  0  0  0
  -24.8099   12.1508   44.3024 C   0  0  0  0  0  0  0  0  0  0  0  0
  -24.7789   13.5403   44.2677 C   0  0  0  0  0  0  0  0  0  0  0  0
  -23.6198   14.2404   44.6029 C   0  0  0  0  0  0  0  0  0  0  0  0
  -22.4867   13.5332   44.9793 C   0  0  0  0  0  0  0  0  0  0  0  0
 20 21  1  0  0  0
 21 16  1  0  0  0
 16 17  1  0  0  0
 16 12  1  0  0  0
 12 13  2  0  0  0
 12 14  1  0  0  0
 14  1  1  0  0  0
  1  2  1  0  0  0
  1  5  1  0  0  0
  2  3  2  0  0  0
  2  4  1  0  0  0
  4  8  1  0  0  0
  4 11  1  0  0  0
  5 22  1  0  0  0
  5  6  1  0  0  0
 22 23  1  0  0  0
  6  7  1  0  0  0
  7  8  1  0  0  0
  8  9  1  0  0  0
  9 10  1  0  0  0
 10 11  1  0  0  0
 11 26  1  0  0  0
 26 27  2  0  0  0
 26 28  1  0  0  0
 28 30  1  0  0  0
 30 31  1  0  0  0
 30 37  1  0  0  0
 31 32  2  0  0  0
 31 36  1  0  0  0
 32 33  1  0  0  0
 33 34  2  0  0  0
 34 35  1  0  0  0
 35 36  2  0  0  0
 37 38  2  0  0  0
 37 42  1  0  0  0
 38 39  1  0  0  0
 39 40  2  0  0  0
 40 41  1  0  0  0
 41 42  2  0  0  0
 17 18  1  0  0  0
 17 19  1  0  0  0
 14 15  1  0  0  0
 23 24  1  0  0  0
 23 25  1  0  0  0
 28 29  1  0  0  0
M  END
> <minimizedAffinity>
-6.21906

$$$$
3CM2_X23_D_600


 42 45  0  0  0  0  0  0  0  0999 V2000
  -21.7278    9.5521   49.4104 C   0  0  0  0  0  0  0  0  0  0  0  0
  -23.2284    9.4923   49.7215 C   0  0  0  0  0  0  0  0  0  0  0  0
  -23.9620   10.4129   49.3550 O   0  0  0  0  0  0  0  0  0  0  0  0
  -23.7707    8.4747   50.3558 N   0  0  0  0  0  0  0  0  0  0  0  0
  -20.7849    9.4916   50.6500 C   0  0  0  0  0  0  0  0  0  0  0  0
  -21.5330    9.0766   51.9332 C   0  0  0  0  0  0  0  0  0  0  0  0
  -22.0414    7.6127   51.9402 C   0  0  0  0  0  0  0  0  0  0  0  0
  -23.0709    7.2669   50.8413 C   0  0  0  0  0  0  0  0  0  0  0  0
  -24.1823    6.3781   51.3954 C   0  0  0  0  0  0  0  0  0  0  0  0
  -25.4467    6.9017   50.6919 C   0  0  0  0  0  0  0  0  0  0  0  0
  -25.2134    8.4143   50.6043 C   0  0  0  0  0  0  0  0  0  0  0  0
  -21.1322   10.5128   47.2886 C   0  0  0  0  0  0  0  0  0  0  0  0
  -20.7829    9.4195   46.8582 O   0  0  0  0  0  0  0  0  0  0  0  0
  -21.5758   10.6948   48.5073 N   0  0  0  0  0  0  0  0  0  0  0  0
  -21.8072   11.6004   48.8165 H   0  0  0  0  0  0  0  0  0  0  0  0
  -21.0983   11.7717   46.4495 C   0  0  0  0  0  0  0  0  0  0  0  0
  -19.7140   12.1659   46.1773 N   0  0  0  0  0  0  0  0  0  0  0  0
  -19.2280   11.4002   45.7105 H   0  0  0  0  0  0  0  0  0  0  0  0
  -19.2430   12.3821   47.0559 H   0  0  0  0  0  0  0  0  0  0  0  0
  -23.2996   11.4434   45.2737 C   0  0  0  0  0  0  0  0  0  0  0  0
  -21.7923   11.3786   45.1505 C   0  0  0  0  0  0  0  0  0  0  0  0
  -20.0030   10.7999   50.8417 C   0  0  0  0  0  0  0  0  0  0  0  0
  -20.8275   11.8283   51.4851 N   0  0  0  0  0  0  0  0  0  0  0  0
  -21.6356   12.0330   50.8974 H   0  0  0  0  0  0  0  0  0  0  0  0
  -20.2755   12.6766   51.6117 H   0  0  0  0  0  0  0  0  0  0  0  0
  -25.6882    9.0437   51.9217 C   0  0  0  0  0  0  0  0  0  0  0  0
  -24.9609    9.6699   52.6848 O   0  0  0  0  0  0  0  0  0  0  0  0
  -26.9703    8.7957   52.0632 N   0  0  0  0  0  0  0  0  0  0  0  0
  -27.3592    8.3502   51.2762 H   0  0  0  0  0  0  0  0  0  0  0  0
  -27.9582    9.0302   53.1263 C   0  0  0  0  0  0  0  0  0  0  0  0
  -28.1627    7.8723   54.1871 C   0  0  0  0  0  0  0  0  0  0  0  0
  -29.2644    7.0231   54.0458 C   0  0  0  0  0  0  0  0  0  0  0  0
  -29.4898    6.0148   54.9879 C   0  0  0  0  0  0  0  0  0  0  0  0
  -28.6223    5.8776   56.0707 C   0  0  0  0  0  0  0  0  0  0  0  0
  -27.5362    6.7471   56.2182 C   0  0  0  0  0  0  0  0  0  0  0  0
  -27.3061    7.7544   55.2800 C   0  0  0  0  0  0  0  0  0  0  0  0
  -28.4536   10.4443   53.2934 C   0  0  0  0  0  0  0  0  0  0  0  0
  -27.7566   11.5070   52.7372 C   0  0  0  0  0  0  0  0  0  0  0  0
  -28.2998   12.7860   52.8163 C   0  0  0  0  0  0  0  0  0  0  0  0
  -29.5446   12.9731   53.4064 C   0  0  0  0  0  0  0  0  0  0  0  0
  -30.2626   11.8946   53.9232 C   0  0  0  0  0  0  0  0  0  0  0  0
  -29.7222   10.6192   53.8399 C   0  0  0  0  0  0  0  0  0  0  0  0
 20 21  1  0  0  0
 21 16  1  0  0  0
 16 17  1  0  0  0
 16 12  1  0  0  0
 12 13  2  0  0  0
 12 14  1  0  0  0
 14  1  1  0  0  0
  1  2  1  0  0  0
  1  5  1  0  0  0
  2  3  2  0  0  0
  2  4  1  0  0  0
  4  8  1  0  0  0
  4 11  1  0  0  0
  5 22  1  0  0  0
  5  6  1  0  0  0
 22 23  1  0  0  0
  6  7  1  0  0  0
  7  8  1  0  0  0
  8  9  1  0  0  0
  9 10  1  0  0  0
 10 11  1  0  0  0
 11 26  1  0  0  0
 26 27  2  0  0  0
 26 28  1  0  0  0
 28 30  1  0  0  0
 30 31  1  0  0  0
 30 37  1  0  0  0
 31 32  2  0  0  0
 31 36  1  0  0  0
 32 33  1  0  0  0
 33 34  2  0  0  0
 34 35  1  0  0  0
 35 36  2  0  0  0
 37 38  2  0  0  0
 37 42  1  0  0  0
 38 39  1  0  0  0
 39 40  2  0  0  0
 40 41  1  0  0  0
 41 42  2  0  0  0
 17 18  1  0  0  0
 17 19  1  0  0  0
 14 15  1  0  0  0
 23 24  1  0  0  0
 23 25  1  0  0  0
 28 29  1  0  0  0
M  END
> <minimizedAffinity>
-6.05136

$$$$
