1M0N_HCP_A_434


 30 31  0  0  0  0  0  0  0  0999 V2000
   16.1683   52.2261   15.5218 C   0  0  0  0  0  0  0  0  0  0  0  0
   16.4187   52.7845   14.3126 C   0  0  0  0  0  0  0  0  0  0  0  0
   17.4635   52.3177   13.4600 N   0  0  0  0  0  0  0  0  0  0  0  0
   18.1820   51.3137   13.8171 C   0  0  0  0  0  0  0  0  0  0  0  0
   16.9940   51.1181   15.9644 C   0  0  0  0  0  0  0  0  0  0  0  0
   15.1167   52.7635   16.3360 O   0  0  0  0  0  0  0  0  0  0  0  0
   15.5845   53.9707   13.8859 C   0  0  0  0  0  0  0  0  0  0  0  0
   17.9558   50.6810   15.1329 C   0  0  0  0  0  0  0  0  0  0  0  0
   14.6006   53.4797   16.0221 H   0  0  0  0  0  0  0  0  0  0  0  0
   16.8192   50.5683   17.3400 C   0  0  0  0  0  0  0  0  0  0  0  0
   15.8282   50.8680   18.1270 N   0  0  0  0  0  0  0  0  0  0  0  0
   15.9571   50.5830   19.5515 C   0  0  0  0  0  0  0  0  0  0  0  0
   16.5161   49.1511   19.8808 C   0  0  0  0  0  0  0  0  0  0  0  0
   16.7339   49.2898   21.3915 C   0  0  0  0  0  0  0  0  0  0  0  0
   17.1355   50.8446   21.5956 C   0  0  0  0  0  0  0  0  0  0  0  0
   17.1066   51.4451   20.1810 C   0  0  0  0  0  0  0  0  0  0  0  0
   14.3127   51.0576   20.1885 P   0  0  0  0  0  0  0  0  0  0  0  0
   14.1269   51.4134   21.7117 O   0  0  0  0  0  0  0  0  0  0  0  0
   13.8266   52.2950   19.3476 O   0  0  0  0  0  0  0  0  0  0  0  0
   13.3123   49.8769   19.9292 O   0  0  0  0  0  0  0  0  0  0  0  0
   14.7201   52.1437   21.9478 H   0  0  0  0  0  0  0  0  0  0  0  0
   13.5909   49.0995   20.4380 H   0  0  0  0  0  0  0  0  0  0  0  0
   18.8508   49.5593   15.4745 C   0  0  0  0  0  0  0  0  0  0  0  0
   20.1154   49.9482   15.8525 O   0  0  0  0  0  0  0  0  0  0  0  0
   20.6778   48.8028   16.6685 P   0  0  0  0  0  0  0  0  0  0  0  0
   21.9066   49.1753   17.5088 O   0  0  0  0  0  0  0  0  0  0  0  0
   19.6209   47.9882   17.4081 O   0  0  0  0  0  0  0  0  0  0  0  0
   21.2820   47.9166   15.5899 O   0  0  0  0  0  0  0  0  0  0  0  0
   19.2201   48.5336   18.1030 H   0  0  0  0  0  0  0  0  0  0  0  0
   21.9588   48.4139   15.1045 H   0  0  0  0  0  0  0  0  0  0  0  0
  1  2  2  0  0  0
  1  5  1  0  0  0
  1  6  1  0  0  0
  2  3  1  0  0  0
  2  7  1  0  0  0
  3  4  2  0  0  0
  4  8  1  0  0  0
  5 10  1  0  0  0
  5  8  2  0  0  0
 10 11  2  0  0  0
 11 12  1  0  0  0
 12 13  1  0  0  0
 12 16  1  0  0  0
 12 17  1  0  0  0
 13 14  1  0  0  0
 14 15  1  0  0  0
 15 16  1  0  0  0
 17 18  1  0  0  0
 17 19  2  0  0  0
 17 20  1  0  0  0
  8 23  1  0  0  0
 23 24  1  0  0  0
 24 25  1  0  0  0
 25 26  2  0  0  0
 25 27  1  0  0  0
 25 28  1  0  0  0
 18 21  1  0  0  0
 20 22  1  0  0  0
  6  9  1  0  0  0
 27 29  1  0  0  0
 28 30  1  0  0  0
M  END
> <minimizedAffinity>
-10.63903

$$$$
1M0N_HCP_A_434


 30 31  0  0  0  0  0  0  0  0999 V2000
   15.9415   52.4209   15.5970 C   0  0  0  0  0  0  0  0  0  0  0  0
   16.1449   52.8250   14.3195 C   0  0  0  0  0  0  0  0  0  0  0  0
   17.2411   52.3530   13.5370 N   0  0  0  0  0  0  0  0  0  0  0  0
   18.0560   51.4900   14.0298 C   0  0  0  0  0  0  0  0  0  0  0  0
   16.8729   51.4787   16.1888 C   0  0  0  0  0  0  0  0  0  0  0  0
   14.8318   52.9562   16.3315 O   0  0  0  0  0  0  0  0  0  0  0  0
   15.1969   53.8455   13.7325 C   0  0  0  0  0  0  0  0  0  0  0  0
   17.8831   51.0303   15.4233 C   0  0  0  0  0  0  0  0  0  0  0  0
   14.2475   53.5631   15.9214 H   0  0  0  0  0  0  0  0  0  0  0  0
   16.7421   51.1145   17.6294 C   0  0  0  0  0  0  0  0  0  0  0  0
   15.6668   51.3021   18.3365 N   0  0  0  0  0  0  0  0  0  0  0  0
   15.7727   51.2673   19.7906 C   0  0  0  0  0  0  0  0  0  0  0  0
   16.2899   52.6032   20.4377 C   0  0  0  0  0  0  0  0  0  0  0  0
   16.0525   52.2922   21.9196 C   0  0  0  0  0  0  0  0  0  0  0  0
   14.7346   51.3523   21.9238 C   0  0  0  0  0  0  0  0  0  0  0  0
   14.3469   51.2153   20.4428 C   0  0  0  0  0  0  0  0  0  0  0  0
   16.7142   49.7276   20.0703 P   0  0  0  0  0  0  0  0  0  0  0  0
   16.7444   49.0676   21.5003 O   0  0  0  0  0  0  0  0  0  0  0  0
   16.1621   48.6540   19.0618 O   0  0  0  0  0  0  0  0  0  0  0  0
   18.2210   49.9879   19.7186 O   0  0  0  0  0  0  0  0  0  0  0  0
   15.8378   48.8761   21.7872 H   0  0  0  0  0  0  0  0  0  0  0  0
   18.5859   50.6484   20.3282 H   0  0  0  0  0  0  0  0  0  0  0  0
   18.8860   50.0676   15.9167 C   0  0  0  0  0  0  0  0  0  0  0  0
   18.8442   48.8449   15.2870 O   0  0  0  0  0  0  0  0  0  0  0  0
   19.7469   47.9311   16.0897 P   0  0  0  0  0  0  0  0  0  0  0  0
   21.2181   47.9626   15.6549 O   0  0  0  0  0  0  0  0  0  0  0  0
   19.5242   48.0044   17.5973 O   0  0  0  0  0  0  0  0  0  0  0  0
   19.3010   46.5558   15.6168 O   0  0  0  0  0  0  0  0  0  0  0  0
   19.8020   48.8748   17.9232 H   0  0  0  0  0  0  0  0  0  0  0  0
   19.4332   46.4848   14.6585 H   0  0  0  0  0  0  0  0  0  0  0  0
  1  2  2  0  0  0
  1  5  1  0  0  0
  1  6  1  0  0  0
  2  3  1  0  0  0
  2  7  1  0  0  0
  3  4  2  0  0  0
  4  8  1  0  0  0
  5 10  1  0  0  0
  5  8  2  0  0  0
 10 11  2  0  0  0
 11 12  1  0  0  0
 12 13  1  0  0  0
 12 16  1  0  0  0
 12 17  1  0  0  0
 13 14  1  0  0  0
 14 15  1  0  0  0
 15 16  1  0  0  0
 17 18  1  0  0  0
 17 19  2  0  0  0
 17 20  1  0  0  0
  8 23  1  0  0  0
 23 24  1  0  0  0
 24 25  1  0  0  0
 25 26  2  0  0  0
 25 27  1  0  0  0
 25 28  1  0  0  0
 18 21  1  0  0  0
 20 22  1  0  0  0
  6  9  1  0  0  0
 27 29  1  0  0  0
 28 30  1  0  0  0
M  END
> <minimizedAffinity>
-9.04435

$$$$
1M0N_HCP_A_434


 30 31  0  0  0  0  0  0  0  0999 V2000
   18.5165   49.4359   17.0558 C   0  0  0  0  0  0  0  0  0  0  0  0
   18.9517   49.1864   15.7968 C   0  0  0  0  0  0  0  0  0  0  0  0
   18.4124   49.8566   14.6581 N   0  0  0  0  0  0  0  0  0  0  0  0
   17.5059   50.7545   14.8123 C   0  0  0  0  0  0  0  0  0  0  0  0
   17.4640   50.4156   17.2503 C   0  0  0  0  0  0  0  0  0  0  0  0
   19.0880   48.7063   18.1507 O   0  0  0  0  0  0  0  0  0  0  0  0
   20.0122   48.1270   15.6032 C   0  0  0  0  0  0  0  0  0  0  0  0
   16.9896   51.0508   16.1646 C   0  0  0  0  0  0  0  0  0  0  0  0
   19.7667   48.0799   17.9928 H   0  0  0  0  0  0  0  0  0  0  0  0
   16.8831   50.6177   18.6093 C   0  0  0  0  0  0  0  0  0  0  0  0
   16.3918   51.7443   19.0346 N   0  0  0  0  0  0  0  0  0  0  0  0
   16.2092   51.9287   20.4696 C   0  0  0  0  0  0  0  0  0  0  0  0
   17.3977   51.3974   21.3507 C   0  0  0  0  0  0  0  0  0  0  0  0
   16.9863   51.9535   22.7184 C   0  0  0  0  0  0  0  0  0  0  0  0
   16.2366   53.3461   22.3738 C   0  0  0  0  0  0  0  0  0  0  0  0
   16.2903   53.4506   20.8413 C   0  0  0  0  0  0  0  0  0  0  0  0
   14.5374   51.2434   20.7352 P   0  0  0  0  0  0  0  0  0  0  0  0
   13.9299   51.1799   22.1872 O   0  0  0  0  0  0  0  0  0  0  0  0
   13.5457   52.0740   19.8400 O   0  0  0  0  0  0  0  0  0  0  0  0
   14.5152   49.7589   20.2276 O   0  0  0  0  0  0  0  0  0  0  0  0
   13.9114   52.0713   22.5692 H   0  0  0  0  0  0  0  0  0  0  0  0
   15.1205   49.2244   20.7651 H   0  0  0  0  0  0  0  0  0  0  0  0
   15.9250   52.0689   16.2425 C   0  0  0  0  0  0  0  0  0  0  0  0
   15.0782   52.0763   15.1580 O   0  0  0  0  0  0  0  0  0  0  0  0
   14.7818   53.5335   14.8700 P   0  0  0  0  0  0  0  0  0  0  0  0
   13.4464   53.7722   14.1527 O   0  0  0  0  0  0  0  0  0  0  0  0
   15.0514   54.4673   16.0461 O   0  0  0  0  0  0  0  0  0  0  0  0
   15.7940   53.8496   13.7795 O   0  0  0  0  0  0  0  0  0  0  0  0
   14.4166   54.2844   16.7563 H   0  0  0  0  0  0  0  0  0  0  0  0
   15.6424   53.2670   13.0189 H   0  0  0  0  0  0  0  0  0  0  0  0
  1  2  2  0  0  0
  1  5  1  0  0  0
  1  6  1  0  0  0
  2  3  1  0  0  0
  2  7  1  0  0  0
  3  4  2  0  0  0
  4  8  1  0  0  0
  5 10  1  0  0  0
  5  8  2  0  0  0
 10 11  2  0  0  0
 11 12  1  0  0  0
 12 13  1  0  0  0
 12 16  1  0  0  0
 12 17  1  0  0  0
 13 14  1  0  0  0
 14 15  1  0  0  0
 15 16  1  0  0  0
 17 18  1  0  0  0
 17 19  2  0  0  0
 17 20  1  0  0  0
  8 23  1  0  0  0
 23 24  1  0  0  0
 24 25  1  0  0  0
 25 26  2  0  0  0
 25 27  1  0  0  0
 25 28  1  0  0  0
 18 21  1  0  0  0
 20 22  1  0  0  0
  6  9  1  0  0  0
 27 29  1  0  0  0
 28 30  1  0  0  0
M  END
> <minimizedAffinity>
-8.25908

$$$$
