5KVA_SAM_A_301


 33 35  0  0  0  0  0  0  0  0999 V2000
   43.6457   36.1193  -16.5047 C   0  0  0  0  0  0  0  0  0  0  0  0
   44.0833   34.8545  -16.0330 O   0  0  0  0  0  0  0  0  0  0  0  0
   44.0381   36.1783  -17.9785 C   0  0  0  0  0  0  0  0  0  0  0  0
   44.9125   37.2738  -18.1570 O   0  0  0  0  0  0  0  0  0  0  0  0
   44.7281   34.8517  -18.2756 C   0  0  0  0  0  0  0  0  0  0  0  0
   45.8949   35.0008  -19.0538 O   0  0  0  0  0  0  0  0  0  0  0  0
   45.0960   34.3728  -16.8845 C   0  0  0  0  0  0  0  0  0  0  0  0
   45.6783   37.1752  -17.5699 H   0  0  0  0  0  0  0  0  0  0  0  0
   46.5118   35.5966  -18.6006 H   0  0  0  0  0  0  0  0  0  0  0  0
   45.1632   32.9146  -16.7168 N   0  0  0  0  0  0  0  0  0  0  0  0
   44.3501   31.9371  -17.2293 C   0  0  0  0  0  0  0  0  0  0  0  0
   44.8042   30.7416  -16.7693 N   0  0  0  0  0  0  0  0  0  0  0  0
   45.8757   30.9594  -15.9730 C   0  0  0  0  0  0  0  0  0  0  0  0
   46.7130   30.1287  -15.2538 C   0  0  0  0  0  0  0  0  0  0  0  0
   46.5403   28.8064  -15.2537 N   0  0  0  0  0  0  0  0  0  0  0  0
   47.7440   30.6792  -14.5215 N   0  0  0  0  0  0  0  0  0  0  0  0
   47.9557   32.0434  -14.5072 C   0  0  0  0  0  0  0  0  0  0  0  0
   47.1174   32.8712  -15.2252 N   0  0  0  0  0  0  0  0  0  0  0  0
   46.1024   32.3301  -15.9368 C   0  0  0  0  0  0  0  0  0  0  0  0
   45.8067   28.4058  -15.7738 H   0  0  0  0  0  0  0  0  0  0  0  0
   47.1465   28.2309  -14.7336 H   0  0  0  0  0  0  0  0  0  0  0  0
   42.1456   36.2798  -16.3046 C   0  0  0  0  0  0  0  0  0  0  0  0
   41.6258   38.0217  -16.3746 S   0  0  0  0  0  0  0  0  0  0  0  0
   39.8946   37.8761  -15.8727 C   0  0  0  0  0  0  0  0  0  0  0  0
   42.3325   38.7330  -14.8689 C   0  0  0  0  0  0  0  0  0  0  0  0
   41.8740   40.1794  -14.7104 C   0  0  0  0  0  0  0  0  0  0  0  0
   42.3600   40.3923  -12.2817 N   0  0  0  0  0  0  0  0  0  0  0  0
   42.6062   40.9499  -13.6137 C   0  0  0  0  0  0  0  0  0  0  0  0
   42.8678   40.9380  -11.5855 H   0  0  0  0  0  0  0  0  0  0  0  0
   42.6795   39.4240  -12.2540 H   0  0  0  0  0  0  0  0  0  0  0  0
   42.2409   42.4183  -13.7384 C   0  0  0  0  0  0  0  0  0  0  0  0
   42.2532   43.1877  -12.7712 O   0  0  0  0  0  0  0  0  0  0  0  0
   41.9239   42.8715  -14.8395 O   0  0  0  0  0  0  0  0  0  0  0  0
 27 28  1  0  0  0
 28 31  1  0  0  0
 28 26  1  0  0  0
 31 32  2  0  0  0
 31 33  1  0  0  0
 26 25  1  0  0  0
 25 23  1  0  0  0
 23 24  1  0  0  0
 23 22  1  0  0  0
 22  1  1  0  0  0
  1  2  1  0  0  0
  1  3  1  0  0  0
  2  7  1  0  0  0
  3  4  1  0  0  0
  3  5  1  0  0  0
  5  6  1  0  0  0
  5  7  1  0  0  0
  7 10  1  0  0  0
 10 11  1  0  0  0
 10 19  1  0  0  0
 11 12  2  0  0  0
 12 13  1  0  0  0
 13 14  1  0  0  0
 13 19  2  0  0  0
 14 15  1  0  0  0
 14 16  2  0  0  0
 16 17  1  0  0  0
 17 18  2  0  0  0
 18 19  1  0  0  0
 27 29  1  0  0  0
 27 30  1  0  0  0
  4  8  1  0  0  0
  6  9  1  0  0  0
 15 20  1  0  0  0
 15 21  1  0  0  0
M  CHG 1  23   1
M  CHG 1  33  -1
M  END
> <minimizedAffinity>
-10.50746

$$$$
5KVA_SAM_A_301


 33 35  0  0  0  0  0  0  0  0999 V2000
   43.0910   35.8445  -16.7940 C   0  0  0  0  0  0  0  0  0  0  0  0
   43.5748   34.6282  -16.2461 O   0  0  0  0  0  0  0  0  0  0  0  0
   43.7573   35.9860  -18.1599 C   0  0  0  0  0  0  0  0  0  0  0  0
   44.5122   37.1804  -18.1591 O   0  0  0  0  0  0  0  0  0  0  0  0
   44.6462   34.7572  -18.3151 C   0  0  0  0  0  0  0  0  0  0  0  0
   45.9174   35.0613  -18.8448 O   0  0  0  0  0  0  0  0  0  0  0  0
   44.7862   34.2899  -16.8793 C   0  0  0  0  0  0  0  0  0  0  0  0
   45.1529   37.1575  -17.4311 H   0  0  0  0  0  0  0  0  0  0  0  0
   46.3567   35.7137  -18.2770 H   0  0  0  0  0  0  0  0  0  0  0  0
   44.9930   32.8458  -16.7033 N   0  0  0  0  0  0  0  0  0  0  0  0
   44.3324   31.7914  -17.2788 C   0  0  0  0  0  0  0  0  0  0  0  0
   44.8709   30.6474  -16.7804 N   0  0  0  0  0  0  0  0  0  0  0  0
   45.8443   30.9718  -15.8992 C   0  0  0  0  0  0  0  0  0  0  0  0
   46.7028   30.2292  -15.1116 C   0  0  0  0  0  0  0  0  0  0  0  0
   46.6712   28.8961  -15.1229 N   0  0  0  0  0  0  0  0  0  0  0  0
   47.6064   30.8805  -14.2982 N   0  0  0  0  0  0  0  0  0  0  0  0
   47.6710   32.2593  -14.2695 C   0  0  0  0  0  0  0  0  0  0  0  0
   46.8118   32.9988  -15.0559 N   0  0  0  0  0  0  0  0  0  0  0  0
   45.9214   32.3584  -15.8474 C   0  0  0  0  0  0  0  0  0  0  0  0
   46.0292   28.4238  -15.7007 H   0  0  0  0  0  0  0  0  0  0  0  0
   47.2900   28.3843  -14.5533 H   0  0  0  0  0  0  0  0  0  0  0  0
   41.5728   35.8233  -16.8968 C   0  0  0  0  0  0  0  0  0  0  0  0
   40.7991   37.1427  -15.9119 S   0  0  0  0  0  0  0  0  0  0  0  0
   41.7141   38.5853  -16.5052 C   0  0  0  0  0  0  0  0  0  0  0  0
   39.2135   37.4117  -16.7401 C   0  0  0  0  0  0  0  0  0  0  0  0
   38.0663   37.1192  -15.7779 C   0  0  0  0  0  0  0  0  0  0  0  0
   38.8253   34.9718  -14.7817 N   0  0  0  0  0  0  0  0  0  0  0  0
   37.7855   35.6318  -15.5748 C   0  0  0  0  0  0  0  0  0  0  0  0
   38.5948   33.9841  -14.6734 H   0  0  0  0  0  0  0  0  0  0  0  0
   38.8816   35.4105  -13.8626 H   0  0  0  0  0  0  0  0  0  0  0  0
   37.5622   34.9992  -16.9368 C   0  0  0  0  0  0  0  0  0  0  0  0
   38.3164   34.1346  -17.3965 O   0  0  0  0  0  0  0  0  0  0  0  0
   36.5948   35.3489  -17.6152 O   0  0  0  0  0  0  0  0  0  0  0  0
 27 28  1  0  0  0
 28 31  1  0  0  0
 28 26  1  0  0  0
 31 32  2  0  0  0
 31 33  1  0  0  0
 26 25  1  0  0  0
 25 23  1  0  0  0
 23 24  1  0  0  0
 23 22  1  0  0  0
 22  1  1  0  0  0
  1  2  1  0  0  0
  1  3  1  0  0  0
  2  7  1  0  0  0
  3  4  1  0  0  0
  3  5  1  0  0  0
  5  6  1  0  0  0
  5  7  1  0  0  0
  7 10  1  0  0  0
 10 11  1  0  0  0
 10 19  1  0  0  0
 11 12  2  0  0  0
 12 13  1  0  0  0
 13 14  1  0  0  0
 13 19  2  0  0  0
 14 15  1  0  0  0
 14 16  2  0  0  0
 16 17  1  0  0  0
 17 18  2  0  0  0
 18 19  1  0  0  0
 27 29  1  0  0  0
 27 30  1  0  0  0
  4  8  1  0  0  0
  6  9  1  0  0  0
 15 20  1  0  0  0
 15 21  1  0  0  0
M  CHG 1  23   1
M  CHG 1  33  -1
M  END
> <minimizedAffinity>
-8.66724

$$$$
5KVA_SAM_A_301


 33 35  0  0  0  0  0  0  0  0999 V2000
   43.6712   36.2126  -16.8448 C   0  0  0  0  0  0  0  0  0  0  0  0
   44.0284   34.9571  -16.2883 O   0  0  0  0  0  0  0  0  0  0  0  0
   44.2150   36.2116  -18.2710 C   0  0  0  0  0  0  0  0  0  0  0  0
   45.1282   37.2828  -18.3939 O   0  0  0  0  0  0  0  0  0  0  0  0
   44.9013   34.8621  -18.4502 C   0  0  0  0  0  0  0  0  0  0  0  0
   46.1453   34.9607  -19.1074 O   0  0  0  0  0  0  0  0  0  0  0  0
   45.1123   34.4258  -17.0133 C   0  0  0  0  0  0  0  0  0  0  0  0
   45.8268   37.1902  -17.7273 H   0  0  0  0  0  0  0  0  0  0  0  0
   46.7257   35.5601  -18.6126 H   0  0  0  0  0  0  0  0  0  0  0  0
   45.1282   32.9734  -16.7910 N   0  0  0  0  0  0  0  0  0  0  0  0
   44.2598   32.0110  -17.2372 C   0  0  0  0  0  0  0  0  0  0  0  0
   44.6826   30.8163  -16.7463 N   0  0  0  0  0  0  0  0  0  0  0  0
   45.7892   31.0205  -15.9958 C   0  0  0  0  0  0  0  0  0  0  0  0
   46.6181   30.1842  -15.2732 C   0  0  0  0  0  0  0  0  0  0  0  0
   46.3938   28.8710  -15.2156 N   0  0  0  0  0  0  0  0  0  0  0  0
   47.6951   30.7197  -14.5982 N   0  0  0  0  0  0  0  0  0  0  0  0
   47.9605   32.0737  -14.6444 C   0  0  0  0  0  0  0  0  0  0  0  0
   47.1305   32.9072  -15.3656 N   0  0  0  0  0  0  0  0  0  0  0  0
   46.0706   32.3812  -16.0208 C   0  0  0  0  0  0  0  0  0  0  0  0
   45.6272   28.4810  -15.6946 H   0  0  0  0  0  0  0  0  0  0  0  0
   46.9949   28.2914  -14.6940 H   0  0  0  0  0  0  0  0  0  0  0  0
   42.1626   36.4093  -16.8073 C   0  0  0  0  0  0  0  0  0  0  0  0
   41.2717   34.8432  -16.5566 S   0  0  0  0  0  0  0  0  0  0  0  0
   39.6010   35.4550  -16.2334 C   0  0  0  0  0  0  0  0  0  0  0  0
   41.0559   34.2078  -18.2366 C   0  0  0  0  0  0  0  0  0  0  0  0
   40.5744   32.7610  -18.1892 C   0  0  0  0  0  0  0  0  0  0  0  0
   38.6632   33.7515  -19.4325 N   0  0  0  0  0  0  0  0  0  0  0  0
   39.1847   32.5456  -18.7849 C   0  0  0  0  0  0  0  0  0  0  0  0
   37.7368   33.5592  -19.8136 H   0  0  0  0  0  0  0  0  0  0  0  0
   39.2901   34.0303  -20.1873 H   0  0  0  0  0  0  0  0  0  0  0  0
   38.2800   31.9968  -17.6961 C   0  0  0  0  0  0  0  0  0  0  0  0
   38.3274   30.8178  -17.3283 O   0  0  0  0  0  0  0  0  0  0  0  0
   37.4689   32.7457  -17.1489 O   0  0  0  0  0  0  0  0  0  0  0  0
 27 28  1  0  0  0
 28 31  1  0  0  0
 28 26  1  0  0  0
 31 32  2  0  0  0
 31 33  1  0  0  0
 26 25  1  0  0  0
 25 23  1  0  0  0
 23 24  1  0  0  0
 23 22  1  0  0  0
 22  1  1  0  0  0
  1  2  1  0  0  0
  1  3  1  0  0  0
  2  7  1  0  0  0
  3  4  1  0  0  0
  3  5  1  0  0  0
  5  6  1  0  0  0
  5  7  1  0  0  0
  7 10  1  0  0  0
 10 11  1  0  0  0
 10 19  1  0  0  0
 11 12  2  0  0  0
 12 13  1  0  0  0
 13 14  1  0  0  0
 13 19  2  0  0  0
 14 15  1  0  0  0
 14 16  2  0  0  0
 16 17  1  0  0  0
 17 18  2  0  0  0
 18 19  1  0  0  0
 27 29  1  0  0  0
 27 30  1  0  0  0
  4  8  1  0  0  0
  6  9  1  0  0  0
 15 20  1  0  0  0
 15 21  1  0  0  0
M  CHG 1  23   1
M  CHG 1  33  -1
M  END
> <minimizedAffinity>
-8.62947

$$$$
5KVA_SAM_A_301


 33 35  0  0  0  0  0  0  0  0999 V2000
   42.1248   34.1335  -17.6539 C   0  0  0  0  0  0  0  0  0  0  0  0
   42.6797   32.8889  -17.2577 O   0  0  0  0  0  0  0  0  0  0  0  0
   43.2844   34.9527  -18.2141 C   0  0  0  0  0  0  0  0  0  0  0  0
   43.4071   36.1278  -17.4390 O   0  0  0  0  0  0  0  0  0  0  0  0
   44.5164   34.0636  -18.0893 C   0  0  0  0  0  0  0  0  0  0  0  0
   45.6487   34.7564  -17.6128 O   0  0  0  0  0  0  0  0  0  0  0  0
   44.0647   33.0470  -17.0588 C   0  0  0  0  0  0  0  0  0  0  0  0
   43.5339   35.8889  -16.5075 H   0  0  0  0  0  0  0  0  0  0  0  0
   45.4449   35.1562  -16.7528 H   0  0  0  0  0  0  0  0  0  0  0  0
   44.6851   31.7194  -17.1683 N   0  0  0  0  0  0  0  0  0  0  0  0
   44.5311   30.7594  -18.1347 C   0  0  0  0  0  0  0  0  0  0  0  0
   45.2958   29.6932  -17.7806 N   0  0  0  0  0  0  0  0  0  0  0  0
   45.9118   29.9688  -16.6085 C   0  0  0  0  0  0  0  0  0  0  0  0
   46.7842   29.2640  -15.8017 C   0  0  0  0  0  0  0  0  0  0  0  0
   47.1866   28.0352  -16.1278 N   0  0  0  0  0  0  0  0  0  0  0  0
   47.2443   29.8429  -14.6374 N   0  0  0  0  0  0  0  0  0  0  0  0
   46.8542   31.1167  -14.2751 C   0  0  0  0  0  0  0  0  0  0  0  0
   45.9818   31.8181  -15.0817 N   0  0  0  0  0  0  0  0  0  0  0  0
   45.5260   31.2459  -16.2193 C   0  0  0  0  0  0  0  0  0  0  0  0
   46.8628   27.6151  -16.9572 H   0  0  0  0  0  0  0  0  0  0  0  0
   47.8075   27.5482  -15.5392 H   0  0  0  0  0  0  0  0  0  0  0  0
   41.0198   33.9287  -18.6801 C   0  0  0  0  0  0  0  0  0  0  0  0
   39.4434   34.6643  -18.1480 S   0  0  0  0  0  0  0  0  0  0  0  0
   38.5267   33.1820  -17.6656 C   0  0  0  0  0  0  0  0  0  0  0  0
   39.8256   35.3445  -16.5159 C   0  0  0  0  0  0  0  0  0  0  0  0
   38.5900   36.0214  -15.9305 C   0  0  0  0  0  0  0  0  0  0  0  0
   39.4760   38.2903  -15.4332 N   0  0  0  0  0  0  0  0  0  0  0  0
   38.5055   37.5197  -16.2142 C   0  0  0  0  0  0  0  0  0  0  0  0
   39.3817   39.2812  -15.6560 H   0  0  0  0  0  0  0  0  0  0  0  0
   40.4201   37.9788  -15.6614 H   0  0  0  0  0  0  0  0  0  0  0  0
   37.0676   37.9624  -16.0102 C   0  0  0  0  0  0  0  0  0  0  0  0
   36.1208   37.4273  -16.5976 O   0  0  0  0  0  0  0  0  0  0  0  0
   36.8231   38.8838  -15.2296 O   0  0  0  0  0  0  0  0  0  0  0  0
 27 28  1  0  0  0
 28 31  1  0  0  0
 28 26  1  0  0  0
 31 32  2  0  0  0
 31 33  1  0  0  0
 26 25  1  0  0  0
 25 23  1  0  0  0
 23 24  1  0  0  0
 23 22  1  0  0  0
 22  1  1  0  0  0
  1  2  1  0  0  0
  1  3  1  0  0  0
  2  7  1  0  0  0
  3  4  1  0  0  0
  3  5  1  0  0  0
  5  6  1  0  0  0
  5  7  1  0  0  0
  7 10  1  0  0  0
 10 11  1  0  0  0
 10 19  1  0  0  0
 11 12  2  0  0  0
 12 13  1  0  0  0
 13 14  1  0  0  0
 13 19  2  0  0  0
 14 15  1  0  0  0
 14 16  2  0  0  0
 16 17  1  0  0  0
 17 18  2  0  0  0
 18 19  1  0  0  0
 27 29  1  0  0  0
 27 30  1  0  0  0
  4  8  1  0  0  0
  6  9  1  0  0  0
 15 20  1  0  0  0
 15 21  1  0  0  0
M  CHG 1  23   1
M  CHG 1  33  -1
M  END
> <minimizedAffinity>
-8.34615

$$$$
5KVA_SAM_A_301


 33 35  0  0  0  0  0  0  0  0999 V2000
   44.0271   35.3352  -18.2645 C   0  0  0  0  0  0  0  0  0  0  0  0
   42.6435   35.0468  -18.3919 O   0  0  0  0  0  0  0  0  0  0  0  0
   44.1732   36.1386  -16.9750 C   0  0  0  0  0  0  0  0  0  0  0  0
   44.7267   37.3970  -17.3015 O   0  0  0  0  0  0  0  0  0  0  0  0
   42.7637   36.2720  -16.4096 C   0  0  0  0  0  0  0  0  0  0  0  0
   42.4821   37.5699  -15.9350 O   0  0  0  0  0  0  0  0  0  0  0  0
   41.9096   35.9734  -17.6265 C   0  0  0  0  0  0  0  0  0  0  0  0
   44.1624   37.8387  -17.9552 H   0  0  0  0  0  0  0  0  0  0  0  0
   42.6095   38.2110  -16.6517 H   0  0  0  0  0  0  0  0  0  0  0  0
   40.5963   35.3776  -17.3446 N   0  0  0  0  0  0  0  0  0  0  0  0
   40.1482   34.1019  -17.5705 C   0  0  0  0  0  0  0  0  0  0  0  0
   38.8533   34.0426  -17.1621 N   0  0  0  0  0  0  0  0  0  0  0  0
   38.4865   35.2590  -16.6980 C   0  0  0  0  0  0  0  0  0  0  0  0
   37.3133   35.7640  -16.1717 C   0  0  0  0  0  0  0  0  0  0  0  0
   36.2303   34.9975  -16.0379 N   0  0  0  0  0  0  0  0  0  0  0  0
   37.2628   37.0855  -15.7802 N   0  0  0  0  0  0  0  0  0  0  0  0
   38.3686   37.9038  -15.8971 C   0  0  0  0  0  0  0  0  0  0  0  0
   39.5389   37.3976  -16.4242 N   0  0  0  0  0  0  0  0  0  0  0  0
   39.5842   36.1033  -16.8144 C   0  0  0  0  0  0  0  0  0  0  0  0
   36.2583   34.0532  -16.3149 H   0  0  0  0  0  0  0  0  0  0  0  0
   35.4028   35.3759  -15.6620 H   0  0  0  0  0  0  0  0  0  0  0  0
   44.8447   34.0521  -18.2356 C   0  0  0  0  0  0  0  0  0  0  0  0
   44.6579   33.1536  -16.6649 S   0  0  0  0  0  0  0  0  0  0  0  0
   43.9254   31.6064  -17.2478 C   0  0  0  0  0  0  0  0  0  0  0  0
   46.3376   32.5901  -16.2996 C   0  0  0  0  0  0  0  0  0  0  0  0
   46.7662   33.0860  -14.9220 C   0  0  0  0  0  0  0  0  0  0  0  0
   48.9138   31.9189  -14.4691 N   0  0  0  0  0  0  0  0  0  0  0  0
   47.5057   32.0440  -14.0854 C   0  0  0  0  0  0  0  0  0  0  0  0
   49.3640   31.2141  -13.8850 H   0  0  0  0  0  0  0  0  0  0  0  0
   49.3821   32.8160  -14.3413 H   0  0  0  0  0  0  0  0  0  0  0  0
   46.7338   30.7387  -14.1599 C   0  0  0  0  0  0  0  0  0  0  0  0
   47.2063   29.7190  -14.6744 O   0  0  0  0  0  0  0  0  0  0  0  0
   45.5965   30.6806  -13.6895 O   0  0  0  0  0  0  0  0  0  0  0  0
 27 28  1  0  0  0
 28 31  1  0  0  0
 28 26  1  0  0  0
 31 32  2  0  0  0
 31 33  1  0  0  0
 26 25  1  0  0  0
 25 23  1  0  0  0
 23 24  1  0  0  0
 23 22  1  0  0  0
 22  1  1  0  0  0
  1  2  1  0  0  0
  1  3  1  0  0  0
  2  7  1  0  0  0
  3  4  1  0  0  0
  3  5  1  0  0  0
  5  6  1  0  0  0
  5  7  1  0  0  0
  7 10  1  0  0  0
 10 11  1  0  0  0
 10 19  1  0  0  0
 11 12  2  0  0  0
 12 13  1  0  0  0
 13 14  1  0  0  0
 13 19  2  0  0  0
 14 15  1  0  0  0
 14 16  2  0  0  0
 16 17  1  0  0  0
 17 18  2  0  0  0
 18 19  1  0  0  0
 27 29  1  0  0  0
 27 30  1  0  0  0
  4  8  1  0  0  0
  6  9  1  0  0  0
 15 20  1  0  0  0
 15 21  1  0  0  0
M  CHG 1  23   1
M  CHG 1  33  -1
M  END
> <minimizedAffinity>
-8.13835

$$$$
5KVA_SAM_A_301


 33 35  0  0  0  0  0  0  0  0999 V2000
   43.5493   36.0888  -16.5026 C   0  0  0  0  0  0  0  0  0  0  0  0
   43.9392   34.7379  -16.3102 O   0  0  0  0  0  0  0  0  0  0  0  0
   44.0244   36.4694  -17.9022 C   0  0  0  0  0  0  0  0  0  0  0  0
   44.9251   37.5514  -17.7815 O   0  0  0  0  0  0  0  0  0  0  0  0
   44.7083   35.2257  -18.4586 C   0  0  0  0  0  0  0  0  0  0  0  0
   45.9190   35.5141  -19.1221 O   0  0  0  0  0  0  0  0  0  0  0  0
   44.9900   34.4334  -17.1967 C   0  0  0  0  0  0  0  0  0  0  0  0
   45.6552   37.3003  -17.1943 H   0  0  0  0  0  0  0  0  0  0  0  0
   46.5192   35.9737  -18.5143 H   0  0  0  0  0  0  0  0  0  0  0  0
   45.0241   32.9737  -17.3628 N   0  0  0  0  0  0  0  0  0  0  0  0
   45.8657   32.0492  -16.8006 C   0  0  0  0  0  0  0  0  0  0  0  0
   45.5148   30.8275  -17.2817 N   0  0  0  0  0  0  0  0  0  0  0  0
   44.4797   30.9778  -18.1394 C   0  0  0  0  0  0  0  0  0  0  0  0
   43.7391   30.0962  -18.9028 C   0  0  0  0  0  0  0  0  0  0  0  0
   43.9940   28.7873  -18.8881 N   0  0  0  0  0  0  0  0  0  0  0  0
   42.7198   30.5809  -19.6954 N   0  0  0  0  0  0  0  0  0  0  0  0
   42.4243   31.9291  -19.7269 C   0  0  0  0  0  0  0  0  0  0  0  0
   43.1661   32.8079  -18.9646 N   0  0  0  0  0  0  0  0  0  0  0  0
   44.1701   32.3315  -18.1936 C   0  0  0  0  0  0  0  0  0  0  0  0
   44.7199   28.4335  -18.3250 H   0  0  0  0  0  0  0  0  0  0  0  0
   43.4562   28.1749  -19.4403 H   0  0  0  0  0  0  0  0  0  0  0  0
   42.0432   36.2424  -16.3475 C   0  0  0  0  0  0  0  0  0  0  0  0
   41.5194   37.9831  -16.4186 S   0  0  0  0  0  0  0  0  0  0  0  0
   39.7708   37.8258  -15.9848 C   0  0  0  0  0  0  0  0  0  0  0  0
   42.1652   38.6805  -14.8794 C   0  0  0  0  0  0  0  0  0  0  0  0
   42.1056   40.2040  -14.9317 C   0  0  0  0  0  0  0  0  0  0  0  0
   42.3648   40.1772  -12.4595 N   0  0  0  0  0  0  0  0  0  0  0  0
   42.6815   40.8941  -13.6970 C   0  0  0  0  0  0  0  0  0  0  0  0
   42.7689   40.6742  -11.6657 H   0  0  0  0  0  0  0  0  0  0  0  0
   42.7526   39.2348  -12.5037 H   0  0  0  0  0  0  0  0  0  0  0  0
   42.2191   42.3403  -13.7008 C   0  0  0  0  0  0  0  0  0  0  0  0
   42.2489   43.0471  -12.6873 O   0  0  0  0  0  0  0  0  0  0  0  0
   41.8019   42.8394  -14.7472 O   0  0  0  0  0  0  0  0  0  0  0  0
 27 28  1  0  0  0
 28 31  1  0  0  0
 28 26  1  0  0  0
 31 32  2  0  0  0
 31 33  1  0  0  0
 26 25  1  0  0  0
 25 23  1  0  0  0
 23 24  1  0  0  0
 23 22  1  0  0  0
 22  1  1  0  0  0
  1  2  1  0  0  0
  1  3  1  0  0  0
  2  7  1  0  0  0
  3  4  1  0  0  0
  3  5  1  0  0  0
  5  6  1  0  0  0
  5  7  1  0  0  0
  7 10  1  0  0  0
 10 11  1  0  0  0
 10 19  1  0  0  0
 11 12  2  0  0  0
 12 13  1  0  0  0
 13 14  1  0  0  0
 13 19  2  0  0  0
 14 15  1  0  0  0
 14 16  2  0  0  0
 16 17  1  0  0  0
 17 18  2  0  0  0
 18 19  1  0  0  0
 27 29  1  0  0  0
 27 30  1  0  0  0
  4  8  1  0  0  0
  6  9  1  0  0  0
 15 20  1  0  0  0
 15 21  1  0  0  0
M  CHG 1  23   1
M  CHG 1  33  -1
M  END
> <minimizedAffinity>
-8.12740

$$$$
5KVA_SAM_A_301


 33 35  0  0  0  0  0  0  0  0999 V2000
   45.4082   32.7604  -15.7929 C   0  0  0  0  0  0  0  0  0  0  0  0
   45.2633   31.4001  -16.1701 O   0  0  0  0  0  0  0  0  0  0  0  0
   46.8661   32.9285  -15.3736 C   0  0  0  0  0  0  0  0  0  0  0  0
   46.8897   33.3514  -14.0255 O   0  0  0  0  0  0  0  0  0  0  0  0
   47.5062   31.5555  -15.5451 C   0  0  0  0  0  0  0  0  0  0  0  0
   48.3439   31.2006  -14.4675 O   0  0  0  0  0  0  0  0  0  0  0  0
   46.2926   30.6467  -15.5735 C   0  0  0  0  0  0  0  0  0  0  0  0
   46.4146   32.7082  -13.4765 H   0  0  0  0  0  0  0  0  0  0  0  0
   47.8357   31.2242  -13.6416 H   0  0  0  0  0  0  0  0  0  0  0  0
   46.4486   29.4103  -16.3521 N   0  0  0  0  0  0  0  0  0  0  0  0
   46.1711   29.1676  -17.6725 C   0  0  0  0  0  0  0  0  0  0  0  0
   46.4596   27.8628  -17.9201 N   0  0  0  0  0  0  0  0  0  0  0  0
   46.8996   27.2891  -16.7770 C   0  0  0  0  0  0  0  0  0  0  0  0
   47.3218   26.0146  -16.4516 C   0  0  0  0  0  0  0  0  0  0  0  0
   47.3497   25.0424  -17.3639 N   0  0  0  0  0  0  0  0  0  0  0  0
   47.7192   25.7445  -15.1587 N   0  0  0  0  0  0  0  0  0  0  0  0
   47.7108   26.7304  -14.1924 C   0  0  0  0  0  0  0  0  0  0  0  0
   47.2875   28.0022  -14.5193 N   0  0  0  0  0  0  0  0  0  0  0  0
   46.8913   28.2633  -15.7859 C   0  0  0  0  0  0  0  0  0  0  0  0
   47.0676   25.2272  -18.2889 H   0  0  0  0  0  0  0  0  0  0  0  0
   47.6522   24.1399  -17.1125 H   0  0  0  0  0  0  0  0  0  0  0  0
   45.0336   33.6819  -16.9445 C   0  0  0  0  0  0  0  0  0  0  0  0
   44.0259   32.8363  -18.2011 S   0  0  0  0  0  0  0  0  0  0  0  0
   42.3658   33.1018  -17.5348 C   0  0  0  0  0  0  0  0  0  0  0  0
   44.0035   34.0066  -19.5804 C   0  0  0  0  0  0  0  0  0  0  0  0
   44.2337   35.4241  -19.0656 C   0  0  0  0  0  0  0  0  0  0  0  0
   46.3930   35.4818  -20.2960 N   0  0  0  0  0  0  0  0  0  0  0  0
   45.2038   36.2460  -19.9117 C   0  0  0  0  0  0  0  0  0  0  0  0
   47.0084   36.0703  -20.8575 H   0  0  0  0  0  0  0  0  0  0  0  0
   46.1119   34.6666  -20.8408 H   0  0  0  0  0  0  0  0  0  0  0  0
   45.5176   37.5297  -19.1643 C   0  0  0  0  0  0  0  0  0  0  0  0
   46.1700   38.4485  -19.6721 O   0  0  0  0  0  0  0  0  0  0  0  0
   45.1081   37.6741  -18.0112 O   0  0  0  0  0  0  0  0  0  0  0  0
 27 28  1  0  0  0
 28 31  1  0  0  0
 28 26  1  0  0  0
 31 32  2  0  0  0
 31 33  1  0  0  0
 26 25  1  0  0  0
 25 23  1  0  0  0
 23 24  1  0  0  0
 23 22  1  0  0  0
 22  1  1  0  0  0
  1  2  1  0  0  0
  1  3  1  0  0  0
  2  7  1  0  0  0
  3  4  1  0  0  0
  3  5  1  0  0  0
  5  6  1  0  0  0
  5  7  1  0  0  0
  7 10  1  0  0  0
 10 11  1  0  0  0
 10 19  1  0  0  0
 11 12  2  0  0  0
 12 13  1  0  0  0
 13 14  1  0  0  0
 13 19  2  0  0  0
 14 15  1  0  0  0
 14 16  2  0  0  0
 16 17  1  0  0  0
 17 18  2  0  0  0
 18 19  1  0  0  0
 27 29  1  0  0  0
 27 30  1  0  0  0
  4  8  1  0  0  0
  6  9  1  0  0  0
 15 20  1  0  0  0
 15 21  1  0  0  0
M  CHG 1  23   1
M  CHG 1  33  -1
M  END
> <minimizedAffinity>
-8.11325

$$$$
5KVA_SAM_A_301


 33 35  0  0  0  0  0  0  0  0999 V2000
   40.6172   37.0403  -16.1097 C   0  0  0  0  0  0  0  0  0  0  0  0
   41.1565   35.9892  -16.8960 O   0  0  0  0  0  0  0  0  0  0  0  0
   41.7374   38.0647  -15.9502 C   0  0  0  0  0  0  0  0  0  0  0  0
   42.0096   38.2070  -14.5710 O   0  0  0  0  0  0  0  0  0  0  0  0
   42.9318   37.4915  -16.7045 C   0  0  0  0  0  0  0  0  0  0  0  0
   44.1454   37.6298  -15.9995 O   0  0  0  0  0  0  0  0  0  0  0  0
   42.5614   36.0246  -16.8073 C   0  0  0  0  0  0  0  0  0  0  0  0
   42.2377   37.3422  -14.1955 H   0  0  0  0  0  0  0  0  0  0  0  0
   44.0674   37.1990  -15.1340 H   0  0  0  0  0  0  0  0  0  0  0  0
   43.0998   35.3186  -17.9781 N   0  0  0  0  0  0  0  0  0  0  0  0
   43.9625   35.7628  -18.9465 C   0  0  0  0  0  0  0  0  0  0  0  0
   44.1426   34.7487  -19.8332 N   0  0  0  0  0  0  0  0  0  0  0  0
   43.4001   33.6888  -19.4399 C   0  0  0  0  0  0  0  0  0  0  0  0
   43.2028   32.4210  -19.9520 C   0  0  0  0  0  0  0  0  0  0  0  0
   43.8117   32.0256  -21.0705 N   0  0  0  0  0  0  0  0  0  0  0  0
   42.3587   31.5509  -19.2940 N   0  0  0  0  0  0  0  0  0  0  0  0
   41.7198   31.9257  -18.1290 C   0  0  0  0  0  0  0  0  0  0  0  0
   41.9172   33.1929  -17.6202 N   0  0  0  0  0  0  0  0  0  0  0  0
   42.7396   34.0472  -18.2708 C   0  0  0  0  0  0  0  0  0  0  0  0
   44.4157   32.6407  -21.5460 H   0  0  0  0  0  0  0  0  0  0  0  0
   43.6573   31.1186  -21.4208 H   0  0  0  0  0  0  0  0  0  0  0  0
   39.3868   37.6365  -16.7778 C   0  0  0  0  0  0  0  0  0  0  0  0
   37.9077   37.5162  -15.7256 S   0  0  0  0  0  0  0  0  0  0  0  0
   36.6196   37.9975  -16.9001 C   0  0  0  0  0  0  0  0  0  0  0  0
   37.6009   35.7359  -15.6322 C   0  0  0  0  0  0  0  0  0  0  0  0
   36.9033   35.2595  -16.9026 C   0  0  0  0  0  0  0  0  0  0  0  0
   38.8855   33.7633  -17.0125 N   0  0  0  0  0  0  0  0  0  0  0  0
   37.7322   34.2920  -17.7448 C   0  0  0  0  0  0  0  0  0  0  0  0
   39.4062   33.1246  -17.6136 H   0  0  0  0  0  0  0  0  0  0  0  0
   38.5623   33.2633  -16.1843 H   0  0  0  0  0  0  0  0  0  0  0  0
   38.0994   34.9862  -19.0441 C   0  0  0  0  0  0  0  0  0  0  0  0
   37.3894   35.8625  -19.5498 O   0  0  0  0  0  0  0  0  0  0  0  0
   39.1429   34.6767  -19.6217 O   0  0  0  0  0  0  0  0  0  0  0  0
 27 28  1  0  0  0
 28 31  1  0  0  0
 28 26  1  0  0  0
 31 32  2  0  0  0
 31 33  1  0  0  0
 26 25  1  0  0  0
 25 23  1  0  0  0
 23 24  1  0  0  0
 23 22  1  0  0  0
 22  1  1  0  0  0
  1  2  1  0  0  0
  1  3  1  0  0  0
  2  7  1  0  0  0
  3  4  1  0  0  0
  3  5  1  0  0  0
  5  6  1  0  0  0
  5  7  1  0  0  0
  7 10  1  0  0  0
 10 11  1  0  0  0
 10 19  1  0  0  0
 11 12  2  0  0  0
 12 13  1  0  0  0
 13 14  1  0  0  0
 13 19  2  0  0  0
 14 15  1  0  0  0
 14 16  2  0  0  0
 16 17  1  0  0  0
 17 18  2  0  0  0
 18 19  1  0  0  0
 27 29  1  0  0  0
 27 30  1  0  0  0
  4  8  1  0  0  0
  6  9  1  0  0  0
 15 20  1  0  0  0
 15 21  1  0  0  0
M  CHG 1  23   1
M  CHG 1  33  -1
M  END
> <minimizedAffinity>
-7.75194

$$$$
5KVA_SAM_A_301


 33 35  0  0  0  0  0  0  0  0999 V2000
   40.6865   37.1581  -15.9563 C   0  0  0  0  0  0  0  0  0  0  0  0
   41.2775   36.1356  -16.7431 O   0  0  0  0  0  0  0  0  0  0  0  0
   41.7682   38.2168  -15.7594 C   0  0  0  0  0  0  0  0  0  0  0  0
   42.0054   38.3502  -14.3729 O   0  0  0  0  0  0  0  0  0  0  0  0
   42.9972   37.6931  -16.4940 C   0  0  0  0  0  0  0  0  0  0  0  0
   44.1899   37.8622  -15.7606 O   0  0  0  0  0  0  0  0  0  0  0  0
   42.6781   36.2162  -16.6228 C   0  0  0  0  0  0  0  0  0  0  0  0
   42.2539   37.4885  -14.0030 H   0  0  0  0  0  0  0  0  0  0  0  0
   44.1074   37.4179  -14.9023 H   0  0  0  0  0  0  0  0  0  0  0  0
   43.2652   35.5435  -17.7899 N   0  0  0  0  0  0  0  0  0  0  0  0
   43.0161   34.2941  -18.2959 C   0  0  0  0  0  0  0  0  0  0  0  0
   43.8265   34.1174  -19.3725 N   0  0  0  0  0  0  0  0  0  0  0  0
   44.5809   35.2279  -19.5370 C   0  0  0  0  0  0  0  0  0  0  0  0
   45.5535   35.5928  -20.4477 C   0  0  0  0  0  0  0  0  0  0  0  0
   45.9282   34.7674  -21.4258 N   0  0  0  0  0  0  0  0  0  0  0  0
   46.1481   36.8327  -20.3401 N   0  0  0  0  0  0  0  0  0  0  0  0
   45.7771   37.7143  -19.3446 C   0  0  0  0  0  0  0  0  0  0  0  0
   44.8064   37.3472  -18.4354 N   0  0  0  0  0  0  0  0  0  0  0  0
   44.2298   36.1281  -18.5381 C   0  0  0  0  0  0  0  0  0  0  0  0
   45.5086   33.8807  -21.5094 H   0  0  0  0  0  0  0  0  0  0  0  0
   46.6243   35.0448  -22.0644 H   0  0  0  0  0  0  0  0  0  0  0  0
   39.4517   37.7219  -16.6442 C   0  0  0  0  0  0  0  0  0  0  0  0
   37.9499   37.5133  -15.6391 S   0  0  0  0  0  0  0  0  0  0  0  0
   36.6776   37.9881  -16.8333 C   0  0  0  0  0  0  0  0  0  0  0  0
   37.7059   35.7210  -15.6134 C   0  0  0  0  0  0  0  0  0  0  0  0
   36.7319   35.3113  -16.7139 C   0  0  0  0  0  0  0  0  0  0  0  0
   37.8536   33.0973  -16.8548 N   0  0  0  0  0  0  0  0  0  0  0  0
   37.2444   34.1906  -17.6160 C   0  0  0  0  0  0  0  0  0  0  0  0
   38.1795   32.3757  -17.4978 H   0  0  0  0  0  0  0  0  0  0  0  0
   37.1624   32.6993  -16.2191 H   0  0  0  0  0  0  0  0  0  0  0  0
   38.1683   34.8007  -18.6549 C   0  0  0  0  0  0  0  0  0  0  0  0
   39.3895   34.6100  -18.6479 O   0  0  0  0  0  0  0  0  0  0  0  0
   37.6944   35.5091  -19.5447 O   0  0  0  0  0  0  0  0  0  0  0  0
 27 28  1  0  0  0
 28 31  1  0  0  0
 28 26  1  0  0  0
 31 32  2  0  0  0
 31 33  1  0  0  0
 26 25  1  0  0  0
 25 23  1  0  0  0
 23 24  1  0  0  0
 23 22  1  0  0  0
 22  1  1  0  0  0
  1  2  1  0  0  0
  1  3  1  0  0  0
  2  7  1  0  0  0
  3  4  1  0  0  0
  3  5  1  0  0  0
  5  6  1  0  0  0
  5  7  1  0  0  0
  7 10  1  0  0  0
 10 11  1  0  0  0
 10 19  1  0  0  0
 11 12  2  0  0  0
 12 13  1  0  0  0
 13 14  1  0  0  0
 13 19  2  0  0  0
 14 15  1  0  0  0
 14 16  2  0  0  0
 16 17  1  0  0  0
 17 18  2  0  0  0
 18 19  1  0  0  0
 27 29  1  0  0  0
 27 30  1  0  0  0
  4  8  1  0  0  0
  6  9  1  0  0  0
 15 20  1  0  0  0
 15 21  1  0  0  0
M  CHG 1  23   1
M  CHG 1  33  -1
M  END
> <minimizedAffinity>
-7.67168

$$$$
5KVA_SAM_A_301


 33 35  0  0  0  0  0  0  0  0999 V2000
   43.6650   32.8246  -16.9853 C   0  0  0  0  0  0  0  0  0  0  0  0
   44.1422   31.6327  -16.3810 O   0  0  0  0  0  0  0  0  0  0  0  0
   44.9045   33.6308  -17.3638 C   0  0  0  0  0  0  0  0  0  0  0  0
   44.8500   34.8670  -16.6815 O   0  0  0  0  0  0  0  0  0  0  0  0
   46.0957   32.7915  -16.9159 C   0  0  0  0  0  0  0  0  0  0  0  0
   47.0966   33.5534  -16.2782 O   0  0  0  0  0  0  0  0  0  0  0  0
   45.4545   31.8472  -15.9176 C   0  0  0  0  0  0  0  0  0  0  0  0
   44.7853   34.7069  -15.7270 H   0  0  0  0  0  0  0  0  0  0  0  0
   46.7150   34.0141  -15.5147 H   0  0  0  0  0  0  0  0  0  0  0  0
   46.1010   30.5341  -15.7863 N   0  0  0  0  0  0  0  0  0  0  0  0
   46.8292   30.0183  -14.7457 C   0  0  0  0  0  0  0  0  0  0  0  0
   47.2392   28.7742  -15.1077 N   0  0  0  0  0  0  0  0  0  0  0  0
   46.7891   28.5131  -16.3562 C   0  0  0  0  0  0  0  0  0  0  0  0
   46.9053   27.4281  -17.2035 C   0  0  0  0  0  0  0  0  0  0  0  0
   47.5814   26.3376  -16.8403 N   0  0  0  0  0  0  0  0  0  0  0  0
   46.3123   27.4766  -18.4478 N   0  0  0  0  0  0  0  0  0  0  0  0
   45.5977   28.5869  -18.8512 C   0  0  0  0  0  0  0  0  0  0  0  0
   45.4842   29.6698  -18.0039 N   0  0  0  0  0  0  0  0  0  0  0  0
   46.0726   29.6232  -16.7870 C   0  0  0  0  0  0  0  0  0  0  0  0
   48.0076   26.2951  -15.9538 H   0  0  0  0  0  0  0  0  0  0  0  0
   47.6545   25.5750  -17.4586 H   0  0  0  0  0  0  0  0  0  0  0  0
   42.7976   32.5061  -18.1945 C   0  0  0  0  0  0  0  0  0  0  0  0
   41.7809   33.9261  -18.7038 S   0  0  0  0  0  0  0  0  0  0  0  0
   40.2245   33.0979  -19.1061 C   0  0  0  0  0  0  0  0  0  0  0  0
   41.3282   34.7043  -17.1348 C   0  0  0  0  0  0  0  0  0  0  0  0
   39.8439   35.0566  -17.1364 C   0  0  0  0  0  0  0  0  0  0  0  0
   38.9815   35.0441  -14.8049 N   0  0  0  0  0  0  0  0  0  0  0  0
   39.3968   35.8825  -15.9320 C   0  0  0  0  0  0  0  0  0  0  0  0
   38.6928   35.6381  -14.0275 H   0  0  0  0  0  0  0  0  0  0  0  0
   39.7623   34.4566  -14.5122 H   0  0  0  0  0  0  0  0  0  0  0  0
   38.3292   36.8582  -16.3937 C   0  0  0  0  0  0  0  0  0  0  0  0
   37.6683   37.5394  -15.6018 O   0  0  0  0  0  0  0  0  0  0  0  0
   38.1083   36.9879  -17.5989 O   0  0  0  0  0  0  0  0  0  0  0  0
 27 28  1  0  0  0
 28 31  1  0  0  0
 28 26  1  0  0  0
 31 32  2  0  0  0
 31 33  1  0  0  0
 26 25  1  0  0  0
 25 23  1  0  0  0
 23 24  1  0  0  0
 23 22  1  0  0  0
 22  1  1  0  0  0
  1  2  1  0  0  0
  1  3  1  0  0  0
  2  7  1  0  0  0
  3  4  1  0  0  0
  3  5  1  0  0  0
  5  6  1  0  0  0
  5  7  1  0  0  0
  7 10  1  0  0  0
 10 11  1  0  0  0
 10 19  1  0  0  0
 11 12  2  0  0  0
 12 13  1  0  0  0
 13 14  1  0  0  0
 13 19  2  0  0  0
 14 15  1  0  0  0
 14 16  2  0  0  0
 16 17  1  0  0  0
 17 18  2  0  0  0
 18 19  1  0  0  0
 27 29  1  0  0  0
 27 30  1  0  0  0
  4  8  1  0  0  0
  6  9  1  0  0  0
 15 20  1  0  0  0
 15 21  1  0  0  0
M  CHG 1  23   1
M  CHG 1  33  -1
M  END
> <minimizedAffinity>
-7.65346

$$$$
