3IBI_BOW_A_300


 15 14  0  0  0  0  0  0  0  0999 V2000
   -3.4210    3.3400   10.9378 C   0  0  0  0  0  0  0  0  0  0  0  0
   -2.9515    3.5218   12.3743 C   0  0  0  0  0  0  0  0  0  0  0  0
   -4.0381    3.9376   13.3370 C   0  0  0  0  0  0  0  0  0  0  0  0
   -3.9462    3.2891   14.6981 C   0  0  0  0  0  0  0  0  0  0  0  0
   -4.9165    2.1542   14.8852 C   0  0  0  0  0  0  0  0  0  0  0  0
   -4.5675    1.2265   16.0244 C   0  0  0  0  0  0  0  0  0  0  0  0
   -5.6941    0.9868   17.0138 C   0  0  0  0  0  0  0  0  0  0  0  0
   -6.9407    1.8011   16.7739 C   0  0  0  0  0  0  0  0  0  0  0  0
   -3.2102    1.9284   10.5782 O   0  0  0  0  0  0  0  0  0  0  0  0
   -5.7105    1.7044   10.9734 N   0  0  0  0  0  0  0  0  0  0  0  0
   -4.0920    0.2171   12.0506 O   0  0  0  0  0  0  0  0  0  0  0  0
   -4.3702    0.8772   10.8290 S   0  0  0  0  0  0  0  0  0  0  0  0
   -4.4426    0.1021    9.6438 O   0  0  0  0  0  0  0  0  0  0  0  0
   -6.4885    1.0654   11.1369 H   0  0  0  0  0  0  0  0  0  0  0  0
   -5.8782    2.2322   10.1169 H   0  0  0  0  0  0  0  0  0  0  0  0
  1  2  1  0  0  0
  1  9  1  0  0  0
 10 12  1  0  0  0
 11 12  2  0  0  0
 12 13  2  0  0  0
 12  9  1  0  0  0
  2  3  1  0  0  0
  3  4  1  0  0  0
  4  5  1  0  0  0
  5  6  1  0  0  0
  6  7  1  0  0  0
  7  8  1  0  0  0
 10 14  1  0  0  0
 10 15  1  0  0  0
M  END
> <minimizedAffinity>
-5.31243

$$$$
3IBI_BOW_A_300


 15 14  0  0  0  0  0  0  0  0999 V2000
   -4.7985    1.6948   12.0642 C   0  0  0  0  0  0  0  0  0  0  0  0
   -4.3360    2.8564   12.9323 C   0  0  0  0  0  0  0  0  0  0  0  0
   -5.4385    3.8003   13.3491 C   0  0  0  0  0  0  0  0  0  0  0  0
   -5.5865    3.9644   14.8433 C   0  0  0  0  0  0  0  0  0  0  0  0
   -5.6519    2.6561   15.5838 C   0  0  0  0  0  0  0  0  0  0  0  0
   -6.7980    2.5582   16.5622 C   0  0  0  0  0  0  0  0  0  0  0  0
   -7.1224    1.1468   17.0186 C   0  0  0  0  0  0  0  0  0  0  0  0
   -5.9277    0.3015   17.3831 C   0  0  0  0  0  0  0  0  0  0  0  0
   -3.7077    0.7072   12.0277 O   0  0  0  0  0  0  0  0  0  0  0  0
   -4.6856    0.0790    9.7679 N   0  0  0  0  0  0  0  0  0  0  0  0
   -3.2113   -1.4334   11.0052 O   0  0  0  0  0  0  0  0  0  0  0  0
   -3.4015   -0.0684   10.6793 S   0  0  0  0  0  0  0  0  0  0  0  0
   -2.3317    0.6360   10.0709 O   0  0  0  0  0  0  0  0  0  0  0  0
   -4.5331   -0.4074    8.8844 H   0  0  0  0  0  0  0  0  0  0  0  0
   -4.8617    1.0671    9.5859 H   0  0  0  0  0  0  0  0  0  0  0  0
  1  2  1  0  0  0
  1  9  1  0  0  0
 10 12  1  0  0  0
 11 12  2  0  0  0
 12 13  2  0  0  0
 12  9  1  0  0  0
  2  3  1  0  0  0
  3  4  1  0  0  0
  4  5  1  0  0  0
  5  6  1  0  0  0
  6  7  1  0  0  0
  7  8  1  0  0  0
 10 14  1  0  0  0
 10 15  1  0  0  0
M  END
> <minimizedAffinity>
-5.25568

$$$$
3IBI_BOW_A_300


 15 14  0  0  0  0  0  0  0  0999 V2000
   -2.9223    4.3377   12.4309 C   0  0  0  0  0  0  0  0  0  0  0  0
   -3.4705    5.4898   13.2611 C   0  0  0  0  0  0  0  0  0  0  0  0
   -4.0833    5.0732   14.5769 C   0  0  0  0  0  0  0  0  0  0  0  0
   -5.5916    5.1452   14.6123 C   0  0  0  0  0  0  0  0  0  0  0  0
   -6.2562    3.7998   14.4995 C   0  0  0  0  0  0  0  0  0  0  0  0
   -5.7620    2.7825   15.5001 C   0  0  0  0  0  0  0  0  0  0  0  0
   -6.7582    2.4311   16.5908 C   0  0  0  0  0  0  0  0  0  0  0  0
   -6.7674    0.9813   17.0063 C   0  0  0  0  0  0  0  0  0  0  0  0
   -4.0590    3.7130   11.7351 O   0  0  0  0  0  0  0  0  0  0  0  0
   -5.5214    1.7427   11.0741 N   0  0  0  0  0  0  0  0  0  0  0  0
   -3.6769    1.5082   12.6661 O   0  0  0  0  0  0  0  0  0  0  0  0
   -4.0430    2.1519   11.4590 S   0  0  0  0  0  0  0  0  0  0  0  0
   -3.2144    1.9762   10.3217 O   0  0  0  0  0  0  0  0  0  0  0  0
   -5.5590    0.7407   10.8868 H   0  0  0  0  0  0  0  0  0  0  0  0
   -5.8101    2.2554   10.2409 H   0  0  0  0  0  0  0  0  0  0  0  0
  1  2  1  0  0  0
  1  9  1  0  0  0
 10 12  1  0  0  0
 11 12  2  0  0  0
 12 13  2  0  0  0
 12  9  1  0  0  0
  2  3  1  0  0  0
  3  4  1  0  0  0
  4  5  1  0  0  0
  5  6  1  0  0  0
  6  7  1  0  0  0
  7  8  1  0  0  0
 10 14  1  0  0  0
 10 15  1  0  0  0
M  END
> <minimizedAffinity>
-5.08724

$$$$
3IBI_BOW_A_300


 15 14  0  0  0  0  0  0  0  0999 V2000
   -4.4095    1.9702   12.6684 C   0  0  0  0  0  0  0  0  0  0  0  0
   -4.5066    1.6906   14.1615 C   0  0  0  0  0  0  0  0  0  0  0  0
   -4.6316    2.9266   15.0199 C   0  0  0  0  0  0  0  0  0  0  0  0
   -3.6278    4.0098   14.7025 C   0  0  0  0  0  0  0  0  0  0  0  0
   -4.2471    5.3736   14.5578 C   0  0  0  0  0  0  0  0  0  0  0  0
   -5.7464    5.3918   14.7364 C   0  0  0  0  0  0  0  0  0  0  0  0
   -6.5342    5.6076   13.4564 C   0  0  0  0  0  0  0  0  0  0  0  0
   -5.7881    6.3241   12.3588 C   0  0  0  0  0  0  0  0  0  0  0  0
   -3.3237    1.1343   12.1309 O   0  0  0  0  0  0  0  0  0  0  0  0
   -3.7685   -1.1783   11.1761 N   0  0  0  0  0  0  0  0  0  0  0  0
   -2.3637    0.4537   10.0121 O   0  0  0  0  0  0  0  0  0  0  0  0
   -3.5483    0.3368   10.7792 S   0  0  0  0  0  0  0  0  0  0  0  0
   -4.7569    0.8425   10.2366 O   0  0  0  0  0  0  0  0  0  0  0  0
   -3.9179   -1.7323   10.3328 H   0  0  0  0  0  0  0  0  0  0  0  0
   -4.5848   -1.2556   11.7827 H   0  0  0  0  0  0  0  0  0  0  0  0
  1  2  1  0  0  0
  1  9  1  0  0  0
 10 12  1  0  0  0
 11 12  2  0  0  0
 12 13  2  0  0  0
 12  9  1  0  0  0
  2  3  1  0  0  0
  3  4  1  0  0  0
  4  5  1  0  0  0
  5  6  1  0  0  0
  6  7  1  0  0  0
  7  8  1  0  0  0
 10 14  1  0  0  0
 10 15  1  0  0  0
M  END
> <minimizedAffinity>
-5.03360

$$$$
3IBI_BOW_A_300


 15 14  0  0  0  0  0  0  0  0999 V2000
   -6.2920    3.4764   15.6840 C   0  0  0  0  0  0  0  0  0  0  0  0
   -6.0764    3.8189   14.2166 C   0  0  0  0  0  0  0  0  0  0  0  0
   -6.0754    5.2988   13.9159 C   0  0  0  0  0  0  0  0  0  0  0  0
   -4.9262    5.7578   13.0498 C   0  0  0  0  0  0  0  0  0  0  0  0
   -5.3647    6.5423   11.8428 C   0  0  0  0  0  0  0  0  0  0  0  0
   -6.8049    6.9937   11.8910 C   0  0  0  0  0  0  0  0  0  0  0  0
   -7.1954    7.9823   10.8068 C   0  0  0  0  0  0  0  0  0  0  0  0
   -6.3739    9.2465   10.7672 C   0  0  0  0  0  0  0  0  0  0  0  0
   -5.7677    2.1187   15.9036 O   0  0  0  0  0  0  0  0  0  0  0  0
   -5.5422   -0.1176   17.0893 N   0  0  0  0  0  0  0  0  0  0  0  0
   -7.7223    0.9223   16.6925 O   0  0  0  0  0  0  0  0  0  0  0  0
   -6.3858    1.2197   17.0540 S   0  0  0  0  0  0  0  0  0  0  0  0
   -6.1544    1.9323   18.2580 O   0  0  0  0  0  0  0  0  0  0  0  0
   -5.9064   -0.7301   17.8191 H   0  0  0  0  0  0  0  0  0  0  0  0
   -4.5655    0.1016   17.2855 H   0  0  0  0  0  0  0  0  0  0  0  0
  1  2  1  0  0  0
  1  9  1  0  0  0
 10 12  1  0  0  0
 11 12  2  0  0  0
 12 13  2  0  0  0
 12  9  1  0  0  0
  2  3  1  0  0  0
  3  4  1  0  0  0
  4  5  1  0  0  0
  5  6  1  0  0  0
  6  7  1  0  0  0
  7  8  1  0  0  0
 10 14  1  0  0  0
 10 15  1  0  0  0
M  END
> <minimizedAffinity>
-4.99346

$$$$
3IBI_BOW_A_300


 15 14  0  0  0  0  0  0  0  0999 V2000
   -3.2707    3.1555   10.6535 C   0  0  0  0  0  0  0  0  0  0  0  0
   -2.6014    3.5142   11.9727 C   0  0  0  0  0  0  0  0  0  0  0  0
   -3.5499    3.6256   13.1425 C   0  0  0  0  0  0  0  0  0  0  0  0
   -3.2291    4.7487   14.1001 C   0  0  0  0  0  0  0  0  0  0  0  0
   -4.4447    5.5085   14.5577 C   0  0  0  0  0  0  0  0  0  0  0  0
   -5.7517    4.9350   14.0648 C   0  0  0  0  0  0  0  0  0  0  0  0
   -6.6101    5.9047   13.2722 C   0  0  0  0  0  0  0  0  0  0  0  0
   -5.9392    6.5162   12.0677 C   0  0  0  0  0  0  0  0  0  0  0  0
   -3.1555    1.6984   10.4801 O   0  0  0  0  0  0  0  0  0  0  0  0
   -5.6600    1.7381   10.9086 N   0  0  0  0  0  0  0  0  0  0  0  0
   -4.1861    0.1177   12.0011 O   0  0  0  0  0  0  0  0  0  0  0  0
   -4.4125    0.7761   10.7680 S   0  0  0  0  0  0  0  0  0  0  0  0
   -4.5791   -0.0131    9.6016 O   0  0  0  0  0  0  0  0  0  0  0  0
   -6.4965    1.1850   11.0954 H   0  0  0  0  0  0  0  0  0  0  0  0
   -5.7851    2.2616   10.0421 H   0  0  0  0  0  0  0  0  0  0  0  0
  1  2  1  0  0  0
  1  9  1  0  0  0
 10 12  1  0  0  0
 11 12  2  0  0  0
 12 13  2  0  0  0
 12  9  1  0  0  0
  2  3  1  0  0  0
  3  4  1  0  0  0
  4  5  1  0  0  0
  5  6  1  0  0  0
  6  7  1  0  0  0
  7  8  1  0  0  0
 10 14  1  0  0  0
 10 15  1  0  0  0
M  END
> <minimizedAffinity>
-4.99172

$$$$
3IBI_BOW_A_300


 15 14  0  0  0  0  0  0  0  0999 V2000
   -1.8300    1.2698   10.9247 C   0  0  0  0  0  0  0  0  0  0  0  0
   -1.1513    2.5562   11.3734 C   0  0  0  0  0  0  0  0  0  0  0  0
   -2.1044    3.6523   11.7865 C   0  0  0  0  0  0  0  0  0  0  0  0
   -1.4992    4.6933   12.6983 C   0  0  0  0  0  0  0  0  0  0  0  0
   -2.0215    4.6282   14.1080 C   0  0  0  0  0  0  0  0  0  0  0  0
   -3.5009    4.3409   14.2046 C   0  0  0  0  0  0  0  0  0  0  0  0
   -4.3540    5.5350   14.5941 C   0  0  0  0  0  0  0  0  0  0  0  0
   -5.8409    5.2826   14.6060 C   0  0  0  0  0  0  0  0  0  0  0  0
   -3.1517    1.6307   10.3869 O   0  0  0  0  0  0  0  0  0  0  0  0
   -5.6238    1.7926   10.9530 N   0  0  0  0  0  0  0  0  0  0  0  0
   -4.1475    0.1798   12.0534 O   0  0  0  0  0  0  0  0  0  0  0  0
   -4.4221    0.7761   10.7986 S   0  0  0  0  0  0  0  0  0  0  0  0
   -4.6850   -0.0704    9.6917 O   0  0  0  0  0  0  0  0  0  0  0  0
   -6.4672    1.2842   11.2188 H   0  0  0  0  0  0  0  0  0  0  0  0
   -5.7805    2.2710   10.0658 H   0  0  0  0  0  0  0  0  0  0  0  0
  1  2  1  0  0  0
  1  9  1  0  0  0
 10 12  1  0  0  0
 11 12  2  0  0  0
 12 13  2  0  0  0
 12  9  1  0  0  0
  2  3  1  0  0  0
  3  4  1  0  0  0
  4  5  1  0  0  0
  5  6  1  0  0  0
  6  7  1  0  0  0
  7  8  1  0  0  0
 10 14  1  0  0  0
 10 15  1  0  0  0
M  END
> <minimizedAffinity>
-4.93414

$$$$
3IBI_BOW_A_300


 15 14  0  0  0  0  0  0  0  0999 V2000
   -5.8073    3.2410   14.5424 C   0  0  0  0  0  0  0  0  0  0  0  0
   -5.7811    4.7078   14.9483 C   0  0  0  0  0  0  0  0  0  0  0  0
   -4.4599    5.3978   14.7057 C   0  0  0  0  0  0  0  0  0  0  0  0
   -4.2544    5.8685   13.2853 C   0  0  0  0  0  0  0  0  0  0  0  0
   -2.8343    6.2680   12.9884 C   0  0  0  0  0  0  0  0  0  0  0  0
   -2.5862    7.7561   13.0535 C   0  0  0  0  0  0  0  0  0  0  0  0
   -1.4891    8.1738   14.0165 C   0  0  0  0  0  0  0  0  0  0  0  0
   -1.9603    8.5521   15.3984 C   0  0  0  0  0  0  0  0  0  0  0  0
   -5.4550    2.4463   15.7302 O   0  0  0  0  0  0  0  0  0  0  0  0
   -5.0533    0.0167   16.3575 N   0  0  0  0  0  0  0  0  0  0  0  0
   -3.2257    1.6404   16.2349 O   0  0  0  0  0  0  0  0  0  0  0  0
   -4.4248    1.2492   15.5911 S   0  0  0  0  0  0  0  0  0  0  0  0
   -4.3801    0.9459   14.2066 O   0  0  0  0  0  0  0  0  0  0  0  0
   -4.4212   -0.7813   16.2942 H   0  0  0  0  0  0  0  0  0  0  0  0
   -5.9496   -0.2252   15.9350 H   0  0  0  0  0  0  0  0  0  0  0  0
  1  2  1  0  0  0
  1  9  1  0  0  0
 10 12  1  0  0  0
 11 12  2  0  0  0
 12 13  2  0  0  0
 12  9  1  0  0  0
  2  3  1  0  0  0
  3  4  1  0  0  0
  4  5  1  0  0  0
  5  6  1  0  0  0
  6  7  1  0  0  0
  7  8  1  0  0  0
 10 14  1  0  0  0
 10 15  1  0  0  0
M  END
> <minimizedAffinity>
-4.88115

$$$$
3IBI_BOW_A_300


 15 14  0  0  0  0  0  0  0  0999 V2000
   -2.3747    2.2745   11.3412 C   0  0  0  0  0  0  0  0  0  0  0  0
   -2.7100    3.7587   11.3850 C   0  0  0  0  0  0  0  0  0  0  0  0
   -2.1228    4.4956   12.5650 C   0  0  0  0  0  0  0  0  0  0  0  0
   -3.1445    4.9942   13.5594 C   0  0  0  0  0  0  0  0  0  0  0  0
   -3.3502    4.0616   14.7223 C   0  0  0  0  0  0  0  0  0  0  0  0
   -4.7033    3.3915   14.7431 C   0  0  0  0  0  0  0  0  0  0  0  0
   -4.6588    1.8777   14.8522 C   0  0  0  0  0  0  0  0  0  0  0  0
   -4.8466    1.3306   16.2451 C   0  0  0  0  0  0  0  0  0  0  0  0
   -3.2366    1.6556   10.3211 O   0  0  0  0  0  0  0  0  0  0  0  0
   -5.6559    1.7480   11.0932 N   0  0  0  0  0  0  0  0  0  0  0  0
   -4.0838    0.0841   11.9602 O   0  0  0  0  0  0  0  0  0  0  0  0
   -4.4632    0.7594   10.7747 S   0  0  0  0  0  0  0  0  0  0  0  0
   -4.8086   -0.0145    9.6377 O   0  0  0  0  0  0  0  0  0  0  0  0
   -6.4713    1.2123   11.3908 H   0  0  0  0  0  0  0  0  0  0  0  0
   -5.8873    2.2826   10.2559 H   0  0  0  0  0  0  0  0  0  0  0  0
  1  2  1  0  0  0
  1  9  1  0  0  0
 10 12  1  0  0  0
 11 12  2  0  0  0
 12 13  2  0  0  0
 12  9  1  0  0  0
  2  3  1  0  0  0
  3  4  1  0  0  0
  4  5  1  0  0  0
  5  6  1  0  0  0
  6  7  1  0  0  0
  7  8  1  0  0  0
 10 14  1  0  0  0
 10 15  1  0  0  0
M  END
> <minimizedAffinity>
-4.85856

$$$$
3IBI_BOW_A_300


 15 14  0  0  0  0  0  0  0  0999 V2000
   -4.7314    2.2657   11.7185 C   0  0  0  0  0  0  0  0  0  0  0  0
   -3.6804    3.2344   12.2419 C   0  0  0  0  0  0  0  0  0  0  0  0
   -3.9523    4.6839   11.9172 C   0  0  0  0  0  0  0  0  0  0  0  0
   -4.9196    5.3623   12.8582 C   0  0  0  0  0  0  0  0  0  0  0  0
   -4.6875    5.0165   14.3042 C   0  0  0  0  0  0  0  0  0  0  0  0
   -5.9244    4.5461   15.0316 C   0  0  0  0  0  0  0  0  0  0  0  0
   -6.0284    3.0403   15.1960 C   0  0  0  0  0  0  0  0  0  0  0  0
   -4.7464    2.3492   15.5881 C   0  0  0  0  0  0  0  0  0  0  0  0
   -4.2513    0.9014   11.9913 O   0  0  0  0  0  0  0  0  0  0  0  0
   -2.5578    0.3213   10.1876 N   0  0  0  0  0  0  0  0  0  0  0  0
   -4.9686    0.1394    9.8052 O   0  0  0  0  0  0  0  0  0  0  0  0
   -3.9669   -0.0827   10.7812 S   0  0  0  0  0  0  0  0  0  0  0  0
   -3.8611   -1.3736   11.3587 O   0  0  0  0  0  0  0  0  0  0  0  0
   -2.3321   -0.2889    9.4020 H   0  0  0  0  0  0  0  0  0  0  0  0
   -1.8440    0.2239   10.9097 H   0  0  0  0  0  0  0  0  0  0  0  0
  1  2  1  0  0  0
  1  9  1  0  0  0
 10 12  1  0  0  0
 11 12  2  0  0  0
 12 13  2  0  0  0
 12  9  1  0  0  0
  2  3  1  0  0  0
  3  4  1  0  0  0
  4  5  1  0  0  0
  5  6  1  0  0  0
  6  7  1  0  0  0
  7  8  1  0  0  0
 10 14  1  0  0  0
 10 15  1  0  0  0
M  END
> <minimizedAffinity>
-4.67742

$$$$
