3BGQ_VX2_A_314


 27 30  0  0  0  0  0  0  0  0999 V2000
  -19.7839   40.1207   -4.8087 N   0  0  0  0  0  0  0  0  0  0  0  0
  -20.0183   39.8069   -3.5344 C   0  0  0  0  0  0  0  0  0  0  0  0
  -20.8870   40.2348   -2.4888 C   0  0  0  0  0  0  0  0  0  0  0  0
  -19.8158   38.5409   -0.9155 C   0  0  0  0  0  0  0  0  0  0  0  0
  -20.7717   39.5945   -1.1942 C   0  0  0  0  0  0  0  0  0  0  0  0
  -18.8140   39.4465   -5.4015 N   0  0  0  0  0  0  0  0  0  0  0  0
  -18.3280   38.5950   -4.4597 C   0  0  0  0  0  0  0  0  0  0  0  0
  -19.0066   38.1925   -1.9900 N   0  0  0  0  0  0  0  0  0  0  0  0
  -19.0688   38.7867   -3.2755 N   0  0  0  0  0  0  0  0  0  0  0  0
  -14.7882   35.9757   -5.0463 C   0  0  0  0  0  0  0  0  0  0  0  0
  -15.2298   36.8396   -6.1340 C   0  0  0  0  0  0  0  0  0  0  0  0
  -16.4031   37.6897   -5.9636 C   0  0  0  0  0  0  0  0  0  0  0  0
  -15.5218   35.9384   -3.7527 C   0  0  0  0  0  0  0  0  0  0  0  0
  -16.6942   36.8092   -3.6322 C   0  0  0  0  0  0  0  0  0  0  0  0
  -17.1583   37.6900   -4.6983 C   0  0  0  0  0  0  0  0  0  0  0  0
  -15.0840   35.0313   -2.5806 C   0  0  0  0  0  0  0  0  0  0  0  0
  -16.1248   34.2134   -2.2782 F   0  0  0  0  0  0  0  0  0  0  0  0
  -14.8081   35.7317   -1.4480 F   0  0  0  0  0  0  0  0  0  0  0  0
  -13.9594   34.3669   -2.9611 F   0  0  0  0  0  0  0  0  0  0  0  0
  -19.7547   37.9271    0.3228 N   0  0  0  0  0  0  0  0  0  0  0  0
  -20.5883   37.6859    0.7878 H   0  0  0  0  0  0  0  0  0  0  0  0
  -18.4832   37.6362    0.9412 C   0  0  0  0  0  0  0  0  0  0  0  0
  -17.4175   37.2784    3.2061 C   0  0  0  0  0  0  0  0  0  0  0  0
  -18.6608   37.7293    2.4532 C   0  0  0  0  0  0  0  0  0  0  0  0
  -16.9473   35.9024    2.7545 C   0  0  0  0  0  0  0  0  0  0  0  0
  -16.7196   35.8369    1.2501 C   0  0  0  0  0  0  0  0  0  0  0  0
  -17.9557   36.2632    0.4709 C   0  0  0  0  0  0  0  0  0  0  0  0
 18 16  1  0  0  0
 19 16  1  0  0  0
 16 17  1  0  0  0
 16 13  1  0  0  0
  2  1  2  0  0  0
  1  6  1  0  0  0
 13 10  2  0  0  0
 10 11  1  0  0  0
 12 11  2  0  0  0
 15 12  1  0  0  0
  3  2  1  0  0  0
  9  2  1  0  0  0
  5  3  2  0  0  0
 20  4  1  0  0  0
  4  5  1  0  0  0
  4  8  2  0  0  0
 27 22  1  0  0  0
 22 24  1  0  0  0
 22 20  1  0  0  0
 14 13  1  0  0  0
 14 15  2  0  0  0
 25 23  1  0  0  0
 23 24  1  0  0  0
  7  6  2  0  0  0
  7 15  1  0  0  0
  9  7  1  0  0  0
 26 25  1  0  0  0
 26 27  1  0  0  0
  8  9  1  0  0  0
 20 21  1  0  0  0
M  END
> <minimizedAffinity>
-10.60249

$$$$
3BGQ_VX2_A_314


 27 30  0  0  0  0  0  0  0  0999 V2000
  -21.6066   40.4345   -2.8647 N   0  0  0  0  0  0  0  0  0  0  0  0
  -21.4414   40.0935   -1.5866 C   0  0  0  0  0  0  0  0  0  0  0  0
  -22.0479   40.3917   -0.3319 C   0  0  0  0  0  0  0  0  0  0  0  0
  -20.3612   38.8796    0.8346 C   0  0  0  0  0  0  0  0  0  0  0  0
  -21.4973   39.7796    0.8604 C   0  0  0  0  0  0  0  0  0  0  0  0
  -20.7464   39.9090   -3.7195 N   0  0  0  0  0  0  0  0  0  0  0  0
  -19.9079   39.1417   -2.9737 C   0  0  0  0  0  0  0  0  0  0  0  0
  -19.8305   38.6512   -0.4291 N   0  0  0  0  0  0  0  0  0  0  0  0
  -20.3214   39.2256   -1.6284 N   0  0  0  0  0  0  0  0  0  0  0  0
  -16.3371   37.0180   -4.5469 C   0  0  0  0  0  0  0  0  0  0  0  0
  -16.8406   38.1921   -5.2485 C   0  0  0  0  0  0  0  0  0  0  0  0
  -18.0248   38.8875   -4.7559 C   0  0  0  0  0  0  0  0  0  0  0  0
  -17.0176   36.5048   -3.3276 C   0  0  0  0  0  0  0  0  0  0  0  0
  -18.2033   37.2370   -2.8745 C   0  0  0  0  0  0  0  0  0  0  0  0
  -18.7288   38.4187   -3.5493 C   0  0  0  0  0  0  0  0  0  0  0  0
  -16.5134   35.2605   -2.5621 C   0  0  0  0  0  0  0  0  0  0  0  0
  -15.9404   35.6881   -1.4078 F   0  0  0  0  0  0  0  0  0  0  0  0
  -15.5480   34.5823   -3.2384 F   0  0  0  0  0  0  0  0  0  0  0  0
  -17.5719   34.4275   -2.3711 F   0  0  0  0  0  0  0  0  0  0  0  0
  -19.8813   38.2856    1.9882 N   0  0  0  0  0  0  0  0  0  0  0  0
  -20.3537   38.4261    2.8404 H   0  0  0  0  0  0  0  0  0  0  0  0
  -18.6961   37.4622    1.9569 C   0  0  0  0  0  0  0  0  0  0  0  0
  -16.7679   36.7095    3.4093 C   0  0  0  0  0  0  0  0  0  0  0  0
  -17.9488   37.6595    3.2718 C   0  0  0  0  0  0  0  0  0  0  0  0
  -17.1741   35.2605    3.1774 C   0  0  0  0  0  0  0  0  0  0  0  0
  -17.8697   35.0651    1.8367 C   0  0  0  0  0  0  0  0  0  0  0  0
  -19.0689   35.9894    1.6807 C   0  0  0  0  0  0  0  0  0  0  0  0
 18 16  1  0  0  0
 19 16  1  0  0  0
 16 17  1  0  0  0
 16 13  1  0  0  0
  2  1  2  0  0  0
  1  6  1  0  0  0
 13 10  2  0  0  0
 10 11  1  0  0  0
 12 11  2  0  0  0
 15 12  1  0  0  0
  3  2  1  0  0  0
  9  2  1  0  0  0
  5  3  2  0  0  0
 20  4  1  0  0  0
  4  5  1  0  0  0
  4  8  2  0  0  0
 27 22  1  0  0  0
 22 24  1  0  0  0
 22 20  1  0  0  0
 14 13  1  0  0  0
 14 15  2  0  0  0
 25 23  1  0  0  0
 23 24  1  0  0  0
  7  6  2  0  0  0
  7 15  1  0  0  0
  9  7  1  0  0  0
 26 25  1  0  0  0
 26 27  1  0  0  0
  8  9  1  0  0  0
 20 21  1  0  0  0
M  END
> <minimizedAffinity>
-10.40973

$$$$
3BGQ_VX2_A_314


 27 30  0  0  0  0  0  0  0  0999 V2000
  -16.2590   35.0044    1.7744 N   0  0  0  0  0  0  0  0  0  0  0  0
  -17.1634   35.9682    1.9481 C   0  0  0  0  0  0  0  0  0  0  0  0
  -17.8315   36.5994    3.0373 C   0  0  0  0  0  0  0  0  0  0  0  0
  -19.1188   38.0588    1.3926 C   0  0  0  0  0  0  0  0  0  0  0  0
  -18.8001   37.6357    2.7420 C   0  0  0  0  0  0  0  0  0  0  0  0
  -15.9481   34.7218    0.5213 N   0  0  0  0  0  0  0  0  0  0  0  0
  -16.7033   35.5550   -0.2426 C   0  0  0  0  0  0  0  0  0  0  0  0
  -18.4251   37.3857    0.3944 N   0  0  0  0  0  0  0  0  0  0  0  0
  -17.4726   36.3608    0.6216 N   0  0  0  0  0  0  0  0  0  0  0  0
  -16.8017   35.2973   -4.6765 C   0  0  0  0  0  0  0  0  0  0  0  0
  -15.5186   35.3908   -3.9915 C   0  0  0  0  0  0  0  0  0  0  0  0
  -15.4711   35.4974   -2.5372 C   0  0  0  0  0  0  0  0  0  0  0  0
  -18.0792   35.3144   -3.9143 C   0  0  0  0  0  0  0  0  0  0  0  0
  -17.9779   35.4246   -2.4566 C   0  0  0  0  0  0  0  0  0  0  0  0
  -16.7103   35.5130   -1.7401 C   0  0  0  0  0  0  0  0  0  0  0  0
  -19.4567   35.2216   -4.6087 C   0  0  0  0  0  0  0  0  0  0  0  0
  -19.2470   35.2432   -5.9501 F   0  0  0  0  0  0  0  0  0  0  0  0
  -20.2583   36.2844   -4.3312 F   0  0  0  0  0  0  0  0  0  0  0  0
  -20.0729   34.0908   -4.1699 F   0  0  0  0  0  0  0  0  0  0  0  0
  -20.0245   39.0753    1.1471 N   0  0  0  0  0  0  0  0  0  0  0  0
  -20.0859   39.8336    1.7720 H   0  0  0  0  0  0  0  0  0  0  0  0
  -20.8806   39.0372   -0.0146 C   0  0  0  0  0  0  0  0  0  0  0  0
  -22.6066   40.4119   -1.2494 C   0  0  0  0  0  0  0  0  0  0  0  0
  -21.7779   40.2701    0.0191 C   0  0  0  0  0  0  0  0  0  0  0  0
  -21.7437   40.3486   -2.5023 C   0  0  0  0  0  0  0  0  0  0  0  0
  -20.8933   39.0862   -2.5524 C   0  0  0  0  0  0  0  0  0  0  0  0
  -20.0372   38.9298   -1.3036 C   0  0  0  0  0  0  0  0  0  0  0  0
 18 16  1  0  0  0
 19 16  1  0  0  0
 16 17  1  0  0  0
 16 13  1  0  0  0
  2  1  2  0  0  0
  1  6  1  0  0  0
 13 10  2  0  0  0
 10 11  1  0  0  0
 12 11  2  0  0  0
 15 12  1  0  0  0
  3  2  1  0  0  0
  9  2  1  0  0  0
  5  3  2  0  0  0
 20  4  1  0  0  0
  4  5  1  0  0  0
  4  8  2  0  0  0
 27 22  1  0  0  0
 22 24  1  0  0  0
 22 20  1  0  0  0
 14 13  1  0  0  0
 14 15  2  0  0  0
 25 23  1  0  0  0
 23 24  1  0  0  0
  7  6  2  0  0  0
  7 15  1  0  0  0
  9  7  1  0  0  0
 26 25  1  0  0  0
 26 27  1  0  0  0
  8  9  1  0  0  0
 20 21  1  0  0  0
M  END
> <minimizedAffinity>
-10.28669

$$$$
3BGQ_VX2_A_314


 27 30  0  0  0  0  0  0  0  0999 V2000
  -16.2547   37.1853   -4.2313 N   0  0  0  0  0  0  0  0  0  0  0  0
  -16.3797   36.3525   -3.1978 C   0  0  0  0  0  0  0  0  0  0  0  0
  -15.6763   35.2390   -2.6536 C   0  0  0  0  0  0  0  0  0  0  0  0
  -17.4349   35.0325   -0.8215 C   0  0  0  0  0  0  0  0  0  0  0  0
  -16.2158   34.5956   -1.4728 C   0  0  0  0  0  0  0  0  0  0  0  0
  -17.2099   38.0889   -4.3650 N   0  0  0  0  0  0  0  0  0  0  0  0
  -18.0763   37.8634   -3.3419 C   0  0  0  0  0  0  0  0  0  0  0  0
  -18.0566   36.1197   -1.4233 N   0  0  0  0  0  0  0  0  0  0  0  0
  -17.5805   36.7849   -2.5810 N   0  0  0  0  0  0  0  0  0  0  0  0
  -21.9135   40.0166   -2.7295 C   0  0  0  0  0  0  0  0  0  0  0  0
  -21.4626   39.7251   -4.0845 C   0  0  0  0  0  0  0  0  0  0  0  0
  -20.1944   39.0374   -4.3021 C   0  0  0  0  0  0  0  0  0  0  0  0
  -21.0943   39.6278   -1.5501 C   0  0  0  0  0  0  0  0  0  0  0  0
  -19.8285   38.9412   -1.8217 C   0  0  0  0  0  0  0  0  0  0  0  0
  -19.3519   38.6286   -3.1644 C   0  0  0  0  0  0  0  0  0  0  0  0
  -21.5400   39.9253   -0.1005 C   0  0  0  0  0  0  0  0  0  0  0  0
  -21.6386   41.2727    0.0345 F   0  0  0  0  0  0  0  0  0  0  0  0
  -20.6309   39.5151    0.8240 F   0  0  0  0  0  0  0  0  0  0  0  0
  -22.7091   39.2665    0.1230 F   0  0  0  0  0  0  0  0  0  0  0  0
  -17.9046   34.4167    0.3248 N   0  0  0  0  0  0  0  0  0  0  0  0
  -18.0665   33.4456    0.3238 H   0  0  0  0  0  0  0  0  0  0  0  0
  -18.1601   35.1812    1.5223 C   0  0  0  0  0  0  0  0  0  0  0  0
  -17.0805   36.8724    3.0611 C   0  0  0  0  0  0  0  0  0  0  0  0
  -16.8737   35.9066    1.9034 C   0  0  0  0  0  0  0  0  0  0  0  0
  -18.2384   37.8274    2.8048 C   0  0  0  0  0  0  0  0  0  0  0  0
  -19.5312   37.0906    2.4800 C   0  0  0  0  0  0  0  0  0  0  0  0
  -19.3584   36.1318    1.3106 C   0  0  0  0  0  0  0  0  0  0  0  0
 18 16  1  0  0  0
 19 16  1  0  0  0
 16 17  1  0  0  0
 16 13  1  0  0  0
  2  1  2  0  0  0
  1  6  1  0  0  0
 13 10  2  0  0  0
 10 11  1  0  0  0
 12 11  2  0  0  0
 15 12  1  0  0  0
  3  2  1  0  0  0
  9  2  1  0  0  0
  5  3  2  0  0  0
 20  4  1  0  0  0
  4  5  1  0  0  0
  4  8  2  0  0  0
 27 22  1  0  0  0
 22 24  1  0  0  0
 22 20  1  0  0  0
 14 13  1  0  0  0
 14 15  2  0  0  0
 25 23  1  0  0  0
 23 24  1  0  0  0
  7  6  2  0  0  0
  7 15  1  0  0  0
  9  7  1  0  0  0
 26 25  1  0  0  0
 26 27  1  0  0  0
  8  9  1  0  0  0
 20 21  1  0  0  0
M  END
> <minimizedAffinity>
-10.17331

$$$$
3BGQ_VX2_A_314


 27 30  0  0  0  0  0  0  0  0999 V2000
  -18.8936   37.8678    2.8517 N   0  0  0  0  0  0  0  0  0  0  0  0
  -18.1816   37.0218    2.1072 C   0  0  0  0  0  0  0  0  0  0  0  0
  -17.1426   36.0663    2.3039 C   0  0  0  0  0  0  0  0  0  0  0  0
  -17.1286   35.5774   -0.1967 C   0  0  0  0  0  0  0  0  0  0  0  0
  -16.6317   35.3586    1.1475 C   0  0  0  0  0  0  0  0  0  0  0  0
  -19.7681   38.6156    2.2014 N   0  0  0  0  0  0  0  0  0  0  0  0
  -19.6518   38.2651    0.8931 C   0  0  0  0  0  0  0  0  0  0  0  0
  -18.1356   36.5297   -0.2950 N   0  0  0  0  0  0  0  0  0  0  0  0
  -18.6703   37.2574    0.7977 N   0  0  0  0  0  0  0  0  0  0  0  0
  -21.8167   40.3435   -2.3824 C   0  0  0  0  0  0  0  0  0  0  0  0
  -22.4426   40.2237   -1.0716 C   0  0  0  0  0  0  0  0  0  0  0  0
  -21.7529   39.5255    0.0080 C   0  0  0  0  0  0  0  0  0  0  0  0
  -20.4757   39.7562   -2.6467 C   0  0  0  0  0  0  0  0  0  0  0  0
  -19.8255   39.0638   -1.5308 C   0  0  0  0  0  0  0  0  0  0  0  0
  -20.4211   38.9323   -0.2057 C   0  0  0  0  0  0  0  0  0  0  0  0
  -19.7853   39.8608   -4.0254 C   0  0  0  0  0  0  0  0  0  0  0  0
  -18.5917   39.2189   -3.9410 F   0  0  0  0  0  0  0  0  0  0  0  0
  -19.5039   41.1440   -4.3768 F   0  0  0  0  0  0  0  0  0  0  0  0
  -20.6250   39.3332   -4.9567 F   0  0  0  0  0  0  0  0  0  0  0  0
  -16.6418   34.8600   -1.2747 N   0  0  0  0  0  0  0  0  0  0  0  0
  -16.5672   33.8803   -1.2133 H   0  0  0  0  0  0  0  0  0  0  0  0
  -16.2418   35.5311   -2.4886 C   0  0  0  0  0  0  0  0  0  0  0  0
  -14.4440   35.5051   -4.2664 C   0  0  0  0  0  0  0  0  0  0  0  0
  -14.8818   34.9814   -2.9063 C   0  0  0  0  0  0  0  0  0  0  0  0
  -15.5139   35.2926   -5.3288 C   0  0  0  0  0  0  0  0  0  0  0  0
  -16.8534   35.8945   -4.9252 C   0  0  0  0  0  0  0  0  0  0  0  0
  -17.3262   35.3714   -3.5763 C   0  0  0  0  0  0  0  0  0  0  0  0
 18 16  1  0  0  0
 19 16  1  0  0  0
 16 17  1  0  0  0
 16 13  1  0  0  0
  2  1  2  0  0  0
  1  6  1  0  0  0
 13 10  2  0  0  0
 10 11  1  0  0  0
 12 11  2  0  0  0
 15 12  1  0  0  0
  3  2  1  0  0  0
  9  2  1  0  0  0
  5  3  2  0  0  0
 20  4  1  0  0  0
  4  5  1  0  0  0
  4  8  2  0  0  0
 27 22  1  0  0  0
 22 24  1  0  0  0
 22 20  1  0  0  0
 14 13  1  0  0  0
 14 15  2  0  0  0
 25 23  1  0  0  0
 23 24  1  0  0  0
  7  6  2  0  0  0
  7 15  1  0  0  0
  9  7  1  0  0  0
 26 25  1  0  0  0
 26 27  1  0  0  0
  8  9  1  0  0  0
 20 21  1  0  0  0
M  END
> <minimizedAffinity>
-10.09152

$$$$
3BGQ_VX2_A_314


 27 30  0  0  0  0  0  0  0  0999 V2000
  -21.4603   40.0769   -2.2791 N   0  0  0  0  0  0  0  0  0  0  0  0
  -21.1235   39.0796   -3.0971 C   0  0  0  0  0  0  0  0  0  0  0  0
  -21.3829   38.6907   -4.4434 C   0  0  0  0  0  0  0  0  0  0  0  0
  -19.9603   36.6038   -4.1071 C   0  0  0  0  0  0  0  0  0  0  0  0
  -20.7968   37.4573   -4.9276 C   0  0  0  0  0  0  0  0  0  0  0  0
  -20.9861   40.0004   -1.0478 N   0  0  0  0  0  0  0  0  0  0  0  0
  -20.2625   38.8504   -1.0024 C   0  0  0  0  0  0  0  0  0  0  0  0
  -19.7664   37.0573   -2.8081 N   0  0  0  0  0  0  0  0  0  0  0  0
  -20.3182   38.2501   -2.2769 N   0  0  0  0  0  0  0  0  0  0  0  0
  -18.3657   37.2034    2.6617 C   0  0  0  0  0  0  0  0  0  0  0  0
  -19.3716   38.2511    2.7833 C   0  0  0  0  0  0  0  0  0  0  0  0
  -19.9881   38.8167    1.5880 C   0  0  0  0  0  0  0  0  0  0  0  0
  -17.9456   36.6971    1.3274 C   0  0  0  0  0  0  0  0  0  0  0  0
  -18.5929   37.2985    0.1583 C   0  0  0  0  0  0  0  0  0  0  0  0
  -19.6073   38.3430    0.2456 C   0  0  0  0  0  0  0  0  0  0  0  0
  -16.8792   35.5909    1.1619 C   0  0  0  0  0  0  0  0  0  0  0  0
  -16.3666   35.3223    2.3902 F   0  0  0  0  0  0  0  0  0  0  0  0
  -15.8310   35.9821    0.3888 F   0  0  0  0  0  0  0  0  0  0  0  0
  -17.4738   34.5192    0.5714 F   0  0  0  0  0  0  0  0  0  0  0  0
  -19.3885   35.4493   -4.6111 N   0  0  0  0  0  0  0  0  0  0  0  0
  -19.9460   34.8063   -5.1060 H   0  0  0  0  0  0  0  0  0  0  0  0
  -17.9840   35.1763   -4.4198 C   0  0  0  0  0  0  0  0  0  0  0  0
  -15.7012   36.2112   -4.7540 C   0  0  0  0  0  0  0  0  0  0  0  0
  -17.1909   36.3192   -5.0453 C   0  0  0  0  0  0  0  0  0  0  0  0
  -15.4232   36.0503   -3.2656 C   0  0  0  0  0  0  0  0  0  0  0  0
  -16.1770   34.8719   -2.6633 C   0  0  0  0  0  0  0  0  0  0  0  0
  -17.6740   34.9651   -2.9219 C   0  0  0  0  0  0  0  0  0  0  0  0
 18 16  1  0  0  0
 19 16  1  0  0  0
 16 17  1  0  0  0
 16 13  1  0  0  0
  2  1  2  0  0  0
  1  6  1  0  0  0
 13 10  2  0  0  0
 10 11  1  0  0  0
 12 11  2  0  0  0
 15 12  1  0  0  0
  3  2  1  0  0  0
  9  2  1  0  0  0
  5  3  2  0  0  0
 20  4  1  0  0  0
  4  5  1  0  0  0
  4  8  2  0  0  0
 27 22  1  0  0  0
 22 24  1  0  0  0
 22 20  1  0  0  0
 14 13  1  0  0  0
 14 15  2  0  0  0
 25 23  1  0  0  0
 23 24  1  0  0  0
  7  6  2  0  0  0
  7 15  1  0  0  0
  9  7  1  0  0  0
 26 25  1  0  0  0
 26 27  1  0  0  0
  8  9  1  0  0  0
 20 21  1  0  0  0
M  END
> <minimizedAffinity>
-10.00960

$$$$
3BGQ_VX2_A_314


 27 30  0  0  0  0  0  0  0  0999 V2000
  -21.3820   39.7944    1.2119 N   0  0  0  0  0  0  0  0  0  0  0  0
  -21.1820   39.8553   -0.1047 C   0  0  0  0  0  0  0  0  0  0  0  0
  -21.7951   40.4715   -1.2340 C   0  0  0  0  0  0  0  0  0  0  0  0
  -20.0559   39.3977   -2.7552 C   0  0  0  0  0  0  0  0  0  0  0  0
  -21.2219   40.2324   -2.5431 C   0  0  0  0  0  0  0  0  0  0  0  0
  -20.5371   39.0382    1.8910 N   0  0  0  0  0  0  0  0  0  0  0  0
  -19.6796   38.5247    0.9695 C   0  0  0  0  0  0  0  0  0  0  0  0
  -19.5284   38.8335   -1.6002 N   0  0  0  0  0  0  0  0  0  0  0  0
  -20.0487   39.0255   -0.2957 N   0  0  0  0  0  0  0  0  0  0  0  0
  -16.5606   35.5103    1.9290 C   0  0  0  0  0  0  0  0  0  0  0  0
  -17.0990   36.3492    2.9924 C   0  0  0  0  0  0  0  0  0  0  0  0
  -18.1084   37.3579    2.6891 C   0  0  0  0  0  0  0  0  0  0  0  0
  -17.0206   35.6676    0.5230 C   0  0  0  0  0  0  0  0  0  0  0  0
  -18.0340   36.6955    0.2701 C   0  0  0  0  0  0  0  0  0  0  0  0
  -18.5980   37.5464    1.3120 C   0  0  0  0  0  0  0  0  0  0  0  0
  -16.4678   34.7985   -0.6291 C   0  0  0  0  0  0  0  0  0  0  0  0
  -17.5161   34.1512   -1.1997 F   0  0  0  0  0  0  0  0  0  0  0  0
  -15.6135   33.8329   -0.1964 F   0  0  0  0  0  0  0  0  0  0  0  0
  -15.7972   35.6146   -1.4864 F   0  0  0  0  0  0  0  0  0  0  0  0
  -19.5137   39.2173   -4.0151 N   0  0  0  0  0  0  0  0  0  0  0  0
  -19.2938   40.0023   -4.5670 H   0  0  0  0  0  0  0  0  0  0  0  0
  -19.2665   37.8916   -4.5300 C   0  0  0  0  0  0  0  0  0  0  0  0
  -17.6203   35.9790   -4.3693 C   0  0  0  0  0  0  0  0  0  0  0  0
  -17.9051   37.4321   -4.0183 C   0  0  0  0  0  0  0  0  0  0  0  0
  -18.7516   35.0570   -3.9351 C   0  0  0  0  0  0  0  0  0  0  0  0
  -20.0979   35.4935   -4.4977 C   0  0  0  0  0  0  0  0  0  0  0  0
  -20.4184   36.9387   -4.1434 C   0  0  0  0  0  0  0  0  0  0  0  0
 18 16  1  0  0  0
 19 16  1  0  0  0
 16 17  1  0  0  0
 16 13  1  0  0  0
  2  1  2  0  0  0
  1  6  1  0  0  0
 13 10  2  0  0  0
 10 11  1  0  0  0
 12 11  2  0  0  0
 15 12  1  0  0  0
  3  2  1  0  0  0
  9  2  1  0  0  0
  5  3  2  0  0  0
 20  4  1  0  0  0
  4  5  1  0  0  0
  4  8  2  0  0  0
 27 22  1  0  0  0
 22 24  1  0  0  0
 22 20  1  0  0  0
 14 13  1  0  0  0
 14 15  2  0  0  0
 25 23  1  0  0  0
 23 24  1  0  0  0
  7  6  2  0  0  0
  7 15  1  0  0  0
  9  7  1  0  0  0
 26 25  1  0  0  0
 26 27  1  0  0  0
  8  9  1  0  0  0
 20 21  1  0  0  0
M  END
> <minimizedAffinity>
-9.97063

$$$$
3BGQ_VX2_A_314


 27 30  0  0  0  0  0  0  0  0999 V2000
  -15.8970   33.9985   -0.3576 N   0  0  0  0  0  0  0  0  0  0  0  0
  -15.8089   34.6451   -1.5201 C   0  0  0  0  0  0  0  0  0  0  0  0
  -15.1031   34.5053   -2.7503 C   0  0  0  0  0  0  0  0  0  0  0  0
  -16.2001   36.6368   -3.6137 C   0  0  0  0  0  0  0  0  0  0  0  0
  -15.3098   35.5047   -3.7787 C   0  0  0  0  0  0  0  0  0  0  0  0
  -16.6948   34.5398    0.5464 N   0  0  0  0  0  0  0  0  0  0  0  0
  -17.2010   35.6607   -0.0327 C   0  0  0  0  0  0  0  0  0  0  0  0
  -16.8408   36.6962   -2.3821 N   0  0  0  0  0  0  0  0  0  0  0  0
  -16.6736   35.7533   -1.3370 N   0  0  0  0  0  0  0  0  0  0  0  0
  -19.8376   38.6074    1.9923 C   0  0  0  0  0  0  0  0  0  0  0  0
  -18.7861   37.9438    2.7528 C   0  0  0  0  0  0  0  0  0  0  0  0
  -17.9260   36.9582    2.1068 C   0  0  0  0  0  0  0  0  0  0  0  0
  -20.0580   38.2922    0.5552 C   0  0  0  0  0  0  0  0  0  0  0  0
  -19.1692   37.2945   -0.0466 C   0  0  0  0  0  0  0  0  0  0  0  0
  -18.1037   36.6175    0.6842 C   0  0  0  0  0  0  0  0  0  0  0  0
  -21.1659   38.9734   -0.2795 C   0  0  0  0  0  0  0  0  0  0  0  0
  -21.7904   38.0100   -1.0044 F   0  0  0  0  0  0  0  0  0  0  0  0
  -20.6730   39.8672   -1.1782 F   0  0  0  0  0  0  0  0  0  0  0  0
  -21.9909   39.6340    0.5771 F   0  0  0  0  0  0  0  0  0  0  0  0
  -16.4004   37.5549   -4.6289 N   0  0  0  0  0  0  0  0  0  0  0  0
  -15.6240   37.9508   -5.0869 H   0  0  0  0  0  0  0  0  0  0  0  0
  -17.7343   37.9394   -5.0246 C   0  0  0  0  0  0  0  0  0  0  0  0
  -20.0868   37.0300   -5.2048 C   0  0  0  0  0  0  0  0  0  0  0  0
  -18.6208   36.6997   -4.9645 C   0  0  0  0  0  0  0  0  0  0  0  0
  -20.5755   38.1453   -4.2907 C   0  0  0  0  0  0  0  0  0  0  0  0
  -19.7159   39.3977   -4.4003 C   0  0  0  0  0  0  0  0  0  0  0  0
  -18.2455   39.0999   -4.1435 C   0  0  0  0  0  0  0  0  0  0  0  0
 18 16  1  0  0  0
 19 16  1  0  0  0
 16 17  1  0  0  0
 16 13  1  0  0  0
  2  1  2  0  0  0
  1  6  1  0  0  0
 13 10  2  0  0  0
 10 11  1  0  0  0
 12 11  2  0  0  0
 15 12  1  0  0  0
  3  2  1  0  0  0
  9  2  1  0  0  0
  5  3  2  0  0  0
 20  4  1  0  0  0
  4  5  1  0  0  0
  4  8  2  0  0  0
 27 22  1  0  0  0
 22 24  1  0  0  0
 22 20  1  0  0  0
 14 13  1  0  0  0
 14 15  2  0  0  0
 25 23  1  0  0  0
 23 24  1  0  0  0
  7  6  2  0  0  0
  7 15  1  0  0  0
  9  7  1  0  0  0
 26 25  1  0  0  0
 26 27  1  0  0  0
  8  9  1  0  0  0
 20 21  1  0  0  0
M  END
> <minimizedAffinity>
-9.83294

$$$$
3BGQ_VX2_A_314


 27 30  0  0  0  0  0  0  0  0999 V2000
  -15.7915   33.9664   -0.4719 N   0  0  0  0  0  0  0  0  0  0  0  0
  -15.7242   34.6361   -1.6225 C   0  0  0  0  0  0  0  0  0  0  0  0
  -15.0407   34.5210   -2.8678 C   0  0  0  0  0  0  0  0  0  0  0  0
  -16.1524   36.6694   -3.6683 C   0  0  0  0  0  0  0  0  0  0  0  0
  -15.2656   35.5409   -3.8721 C   0  0  0  0  0  0  0  0  0  0  0  0
  -16.5727   34.4893    0.4571 N   0  0  0  0  0  0  0  0  0  0  0  0
  -17.0890   35.6216   -0.0902 C   0  0  0  0  0  0  0  0  0  0  0  0
  -16.7708   36.7041   -2.4245 N   0  0  0  0  0  0  0  0  0  0  0  0
  -16.5851   35.7403   -1.4017 N   0  0  0  0  0  0  0  0  0  0  0  0
  -19.6876   38.5270    2.0408 C   0  0  0  0  0  0  0  0  0  0  0  0
  -18.6243   37.8465    2.7693 C   0  0  0  0  0  0  0  0  0  0  0  0
  -17.7764   36.8741    2.0882 C   0  0  0  0  0  0  0  0  0  0  0  0
  -19.9324   38.2425    0.6012 C   0  0  0  0  0  0  0  0  0  0  0  0
  -19.0551   37.2571   -0.0364 C   0  0  0  0  0  0  0  0  0  0  0  0
  -17.9783   36.5638    0.6619 C   0  0  0  0  0  0  0  0  0  0  0  0
  -21.0533   38.9423   -0.2001 C   0  0  0  0  0  0  0  0  0  0  0  0
  -21.7100   39.7759    0.6470 F   0  0  0  0  0  0  0  0  0  0  0  0
  -21.9835   38.0709   -0.6744 F   0  0  0  0  0  0  0  0  0  0  0  0
  -20.4798   39.5781   -1.2573 F   0  0  0  0  0  0  0  0  0  0  0  0
  -16.3706   37.6077   -4.6612 N   0  0  0  0  0  0  0  0  0  0  0  0
  -16.5087   38.5513   -4.4168 H   0  0  0  0  0  0  0  0  0  0  0  0
  -16.3983   37.2195   -6.0512 C   0  0  0  0  0  0  0  0  0  0  0  0
  -17.8994   37.2455   -8.0859 C   0  0  0  0  0  0  0  0  0  0  0  0
  -17.8059   37.4678   -6.5833 C   0  0  0  0  0  0  0  0  0  0  0  0
  -16.8386   38.0321   -8.8439 C   0  0  0  0  0  0  0  0  0  0  0  0
  -15.4322   37.7341   -8.3414 C   0  0  0  0  0  0  0  0  0  0  0  0
  -15.3044   37.9685   -6.8429 C   0  0  0  0  0  0  0  0  0  0  0  0
 18 16  1  0  0  0
 19 16  1  0  0  0
 16 17  1  0  0  0
 16 13  1  0  0  0
  2  1  2  0  0  0
  1  6  1  0  0  0
 13 10  2  0  0  0
 10 11  1  0  0  0
 12 11  2  0  0  0
 15 12  1  0  0  0
  3  2  1  0  0  0
  9  2  1  0  0  0
  5  3  2  0  0  0
 20  4  1  0  0  0
  4  5  1  0  0  0
  4  8  2  0  0  0
 27 22  1  0  0  0
 22 24  1  0  0  0
 22 20  1  0  0  0
 14 13  1  0  0  0
 14 15  2  0  0  0
 25 23  1  0  0  0
 23 24  1  0  0  0
  7  6  2  0  0  0
  7 15  1  0  0  0
  9  7  1  0  0  0
 26 25  1  0  0  0
 26 27  1  0  0  0
  8  9  1  0  0  0
 20 21  1  0  0  0
M  END
> <minimizedAffinity>
-9.79008

$$$$
3BGQ_VX2_A_314


 27 30  0  0  0  0  0  0  0  0999 V2000
  -22.0545   40.2567   -2.6992 N   0  0  0  0  0  0  0  0  0  0  0  0
  -21.7177   40.0502   -1.4260 C   0  0  0  0  0  0  0  0  0  0  0  0
  -21.9544   40.6658   -0.1626 C   0  0  0  0  0  0  0  0  0  0  0  0
  -20.4977   38.9030    0.9611 C   0  0  0  0  0  0  0  0  0  0  0  0
  -21.3396   40.0820    1.0123 C   0  0  0  0  0  0  0  0  0  0  0  0
  -21.5519   39.4049   -3.5759 N   0  0  0  0  0  0  0  0  0  0  0  0
  -20.7972   38.5350   -2.8537 C   0  0  0  0  0  0  0  0  0  0  0  0
  -20.3171   38.3739   -0.3110 N   0  0  0  0  0  0  0  0  0  0  0  0
  -20.8865   38.9042   -1.4959 N   0  0  0  0  0  0  0  0  0  0  0  0
  -18.3698   35.3807   -4.8269 C   0  0  0  0  0  0  0  0  0  0  0  0
  -19.7245   35.0730   -4.3862 C   0  0  0  0  0  0  0  0  0  0  0  0
  -20.5263   36.0923   -3.7177 C   0  0  0  0  0  0  0  0  0  0  0  0
  -17.7788   36.7271   -4.6010 C   0  0  0  0  0  0  0  0  0  0  0  0
  -18.6235   37.7148   -3.9241 C   0  0  0  0  0  0  0  0  0  0  0  0
  -19.9848   37.4414   -3.4769 C   0  0  0  0  0  0  0  0  0  0  0  0
  -16.3445   37.0857   -5.0512 C   0  0  0  0  0  0  0  0  0  0  0  0
  -15.5303   36.9719   -3.9706 F   0  0  0  0  0  0  0  0  0  0  0  0
  -16.2334   38.3721   -5.4783 F   0  0  0  0  0  0  0  0  0  0  0  0
  -16.0079   36.2600   -6.0786 F   0  0  0  0  0  0  0  0  0  0  0  0
  -19.9534   38.3512    2.1070 N   0  0  0  0  0  0  0  0  0  0  0  0
  -20.2804   38.6410    2.9892 H   0  0  0  0  0  0  0  0  0  0  0  0
  -18.9114   37.3555    2.0244 C   0  0  0  0  0  0  0  0  0  0  0  0
  -16.8163   36.5777    3.2072 C   0  0  0  0  0  0  0  0  0  0  0  0
  -17.8758   37.6649    3.1005 C   0  0  0  0  0  0  0  0  0  0  0  0
  -17.4343   35.1955    3.3681 C   0  0  0  0  0  0  0  0  0  0  0  0
  -18.4254   34.8751    2.2570 C   0  0  0  0  0  0  0  0  0  0  0  0
  -19.5098   35.9369    2.1415 C   0  0  0  0  0  0  0  0  0  0  0  0
 18 16  1  0  0  0
 19 16  1  0  0  0
 16 17  1  0  0  0
 16 13  1  0  0  0
  2  1  2  0  0  0
  1  6  1  0  0  0
 13 10  2  0  0  0
 10 11  1  0  0  0
 12 11  2  0  0  0
 15 12  1  0  0  0
  3  2  1  0  0  0
  9  2  1  0  0  0
  5  3  2  0  0  0
 20  4  1  0  0  0
  4  5  1  0  0  0
  4  8  2  0  0  0
 27 22  1  0  0  0
 22 24  1  0  0  0
 22 20  1  0  0  0
 14 13  1  0  0  0
 14 15  2  0  0  0
 25 23  1  0  0  0
 23 24  1  0  0  0
  7  6  2  0  0  0
  7 15  1  0  0  0
  9  7  1  0  0  0
 26 25  1  0  0  0
 26 27  1  0  0  0
  8  9  1  0  0  0
 20 21  1  0  0  0
M  END
> <minimizedAffinity>
-9.78897

$$$$
