5Y94_8QC_A_201


 27 29  0  0  0  0  0  0  0  0999 V2000
   -7.1458    7.6079    2.9620 N   0  0  0  0  0  0  0  0  0  0  0  0
   -6.5926    7.1211    2.3091 H   0  0  0  0  0  0  0  0  0  0  0  0
   -8.3905    7.0760    3.3383 C   0  0  0  0  0  0  0  0  0  0  0  0
   -8.5962    6.2620    4.4790 C   0  0  0  0  0  0  0  0  0  0  0  0
   -9.8250    5.8195    4.7790 C   0  0  0  0  0  0  0  0  0  0  0  0
  -10.3413    5.0383    5.7843 C   0  0  0  0  0  0  0  0  0  0  0  0
   -9.6243    4.3978    6.9211 C   0  0  0  0  0  0  0  0  0  0  0  0
  -11.6481    4.8394    5.6784 N   0  0  0  0  0  0  0  0  0  0  0  0
  -12.0334    5.6274    4.4600 O   0  0  0  0  0  0  0  0  0  0  0  0
  -10.8783    6.1722    3.9705 C   0  0  0  0  0  0  0  0  0  0  0  0
  -10.7513    6.9466    2.9031 C   0  0  0  0  0  0  0  0  0  0  0  0
   -9.5160    7.3980    2.5227 C   0  0  0  0  0  0  0  0  0  0  0  0
   -9.3497    8.1655    1.4217 N   0  0  0  0  0  0  0  0  0  0  0  0
   -9.8997    9.5561    1.3398 C   0  0  0  0  0  0  0  0  0  0  0  0
   -8.8537    7.8004    0.6536 H   0  0  0  0  0  0  0  0  0  0  0  0
   -6.5741    9.0685    3.6058 S   0  0  0  0  0  0  0  0  0  0  0  0
   -5.9688    8.8655    4.9560 O   0  0  0  0  0  0  0  0  0  0  0  0
   -7.7056    9.9763    3.7094 O   0  0  0  0  0  0  0  0  0  0  0  0
   -5.5448    9.7436    1.1570 C   0  0  0  0  0  0  0  0  0  0  0  0
   -4.4968   10.2982    0.3959 C   0  0  0  0  0  0  0  0  0  0  0  0
   -3.3934   10.8266    1.0074 C   0  0  0  0  0  0  0  0  0  0  0  0
   -3.2925   10.8084    2.3798 C   0  0  0  0  0  0  0  0  0  0  0  0
   -1.7857   11.5681    3.1599 Br  0  0  0  0  0  0  0  0  0  0  0  0
   -4.2897   10.2698    3.1524 C   0  0  0  0  0  0  0  0  0  0  0  0
   -5.4034    9.7240    2.5494 C   0  0  0  0  0  0  0  0  0  0  0  0
   -6.9420    9.5827   -0.7983 C   0  0  0  0  0  0  0  0  0  0  0  0
   -6.6705    9.2317    0.5828 O   0  0  0  0  0  0  0  0  0  0  0  0
 21 20  1  0  0  0
 21 22  2  0  0  0
 20 19  2  0  0  0
 26 27  1  0  0  0
 23 22  1  0  0  0
 14 13  1  0  0  0
 22 24  1  0  0  0
 19 27  1  0  0  0
 19 25  1  0  0  0
 24 25  2  0  0  0
 13 12  1  0  0  0
 25 16  1  0  0  0
 11 12  1  0  0  0
 11 10  2  0  0  0
 12  3  2  0  0  0
 10  9  1  0  0  0
 10  5  1  0  0  0
 16 18  2  0  0  0
 16  1  1  0  0  0
 16 17  2  0  0  0
  9  8  1  0  0  0
  3  1  1  0  0  0
  3  4  1  0  0  0
  5  4  2  0  0  0
  5  6  1  0  0  0
  8  6  2  0  0  0
  6  7  1  0  0  0
  1  2  1  0  0  0
 13 15  1  0  0  0
M  END
> <minimizedAffinity>
-7.88800

$$$$
5Y94_8QC_A_201


 27 29  0  0  0  0  0  0  0  0999 V2000
   -7.3362    7.7298    3.2972 N   0  0  0  0  0  0  0  0  0  0  0  0
   -6.7422    7.3608    2.6042 H   0  0  0  0  0  0  0  0  0  0  0  0
   -8.5460    7.0752    3.5833 C   0  0  0  0  0  0  0  0  0  0  0  0
   -8.7635    6.2690    4.7273 C   0  0  0  0  0  0  0  0  0  0  0  0
   -9.9603    5.7032    4.9359 C   0  0  0  0  0  0  0  0  0  0  0  0
  -10.4772    4.8931    5.9177 C   0  0  0  0  0  0  0  0  0  0  0  0
   -9.7988    4.3587    7.1305 C   0  0  0  0  0  0  0  0  0  0  0  0
  -11.7414    4.5521    5.7079 N   0  0  0  0  0  0  0  0  0  0  0  0
  -12.0997    5.2671    4.4373 O   0  0  0  0  0  0  0  0  0  0  0  0
  -10.9702    5.9225    4.0305 C   0  0  0  0  0  0  0  0  0  0  0  0
  -10.8328    6.6824    2.9542 C   0  0  0  0  0  0  0  0  0  0  0  0
   -9.6235    7.2560    2.6657 C   0  0  0  0  0  0  0  0  0  0  0  0
   -9.4434    8.0127    1.5594 N   0  0  0  0  0  0  0  0  0  0  0  0
   -9.8748    9.4459    1.5059 C   0  0  0  0  0  0  0  0  0  0  0  0
   -9.0174    7.6107    0.7682 H   0  0  0  0  0  0  0  0  0  0  0  0
   -6.8754    9.1402    4.1175 S   0  0  0  0  0  0  0  0  0  0  0  0
   -6.2292    8.8200    5.4253 O   0  0  0  0  0  0  0  0  0  0  0  0
   -8.0761    9.9283    4.3462 O   0  0  0  0  0  0  0  0  0  0  0  0
   -4.3943    9.9731    3.3036 C   0  0  0  0  0  0  0  0  0  0  0  0
   -3.6041   10.7628    2.4450 C   0  0  0  0  0  0  0  0  0  0  0  0
   -4.1827   11.5258    1.4683 C   0  0  0  0  0  0  0  0  0  0  0  0
   -5.5513   11.5376    1.3249 C   0  0  0  0  0  0  0  0  0  0  0  0
   -6.2826   12.5679   -0.0389 Br  0  0  0  0  0  0  0  0  0  0  0  0
   -6.3524   10.7874    2.1475 C   0  0  0  0  0  0  0  0  0  0  0  0
   -5.7840   10.0213    3.1434 C   0  0  0  0  0  0  0  0  0  0  0  0
   -2.9685    9.8066    5.2378 C   0  0  0  0  0  0  0  0  0  0  0  0
   -3.8506    9.1808    4.2709 O   0  0  0  0  0  0  0  0  0  0  0  0
 21 20  1  0  0  0
 21 22  2  0  0  0
 20 19  2  0  0  0
 26 27  1  0  0  0
 23 22  1  0  0  0
 14 13  1  0  0  0
 22 24  1  0  0  0
 19 27  1  0  0  0
 19 25  1  0  0  0
 24 25  2  0  0  0
 13 12  1  0  0  0
 25 16  1  0  0  0
 11 12  1  0  0  0
 11 10  2  0  0  0
 12  3  2  0  0  0
 10  9  1  0  0  0
 10  5  1  0  0  0
 16 18  2  0  0  0
 16  1  1  0  0  0
 16 17  2  0  0  0
  9  8  1  0  0  0
  3  1  1  0  0  0
  3  4  1  0  0  0
  5  4  2  0  0  0
  5  6  1  0  0  0
  8  6  2  0  0  0
  6  7  1  0  0  0
  1  2  1  0  0  0
 13 15  1  0  0  0
M  END
> <minimizedAffinity>
-7.51277

$$$$
5Y94_8QC_A_201


 27 29  0  0  0  0  0  0  0  0999 V2000
   -6.2887   10.9750    2.2911 N   0  0  0  0  0  0  0  0  0  0  0  0
   -6.4535   11.8831    2.6336 H   0  0  0  0  0  0  0  0  0  0  0  0
   -7.3641   10.0777    2.1810 C   0  0  0  0  0  0  0  0  0  0  0  0
   -7.5408    8.9418    3.0084 C   0  0  0  0  0  0  0  0  0  0  0  0
   -8.6130    8.1533    2.8514 C   0  0  0  0  0  0  0  0  0  0  0  0
   -9.0617    7.0138    3.4740 C   0  0  0  0  0  0  0  0  0  0  0  0
   -8.4303    6.2582    4.5907 C   0  0  0  0  0  0  0  0  0  0  0  0
  -10.1978    6.5510    2.9705 N   0  0  0  0  0  0  0  0  0  0  0  0
  -10.5481    7.5456    1.9019 O   0  0  0  0  0  0  0  0  0  0  0  0
   -9.5372    8.4668    1.8844 C   0  0  0  0  0  0  0  0  0  0  0  0
   -9.4367    9.5259    1.0950 C   0  0  0  0  0  0  0  0  0  0  0  0
   -8.3450   10.3477    1.1807 C   0  0  0  0  0  0  0  0  0  0  0  0
   -8.1989   11.4196    0.3692 N   0  0  0  0  0  0  0  0  0  0  0  0
   -8.8743   11.4959   -0.9654 C   0  0  0  0  0  0  0  0  0  0  0  0
   -7.6334   12.1698    0.6636 H   0  0  0  0  0  0  0  0  0  0  0  0
   -4.7136   10.5305    1.8479 S   0  0  0  0  0  0  0  0  0  0  0  0
   -4.2621    9.3185    2.5948 O   0  0  0  0  0  0  0  0  0  0  0  0
   -3.8374   11.6492    2.1572 O   0  0  0  0  0  0  0  0  0  0  0  0
   -5.0759   11.1387   -0.7998 C   0  0  0  0  0  0  0  0  0  0  0  0
   -5.0111   10.7465   -2.1516 C   0  0  0  0  0  0  0  0  0  0  0  0
   -4.5401    9.5101   -2.4982 C   0  0  0  0  0  0  0  0  0  0  0  0
   -4.1356    8.6293   -1.5212 C   0  0  0  0  0  0  0  0  0  0  0  0
   -3.4748    6.9740   -2.0499 Br  0  0  0  0  0  0  0  0  0  0  0  0
   -4.1918    8.9741   -0.1948 C   0  0  0  0  0  0  0  0  0  0  0  0
   -4.6741   10.2133    0.1704 C   0  0  0  0  0  0  0  0  0  0  0  0
   -5.5454   13.4169   -1.4252 C   0  0  0  0  0  0  0  0  0  0  0  0
   -5.5153   12.3721   -0.4193 O   0  0  0  0  0  0  0  0  0  0  0  0
 21 20  1  0  0  0
 21 22  2  0  0  0
 20 19  2  0  0  0
 26 27  1  0  0  0
 23 22  1  0  0  0
 14 13  1  0  0  0
 22 24  1  0  0  0
 19 27  1  0  0  0
 19 25  1  0  0  0
 24 25  2  0  0  0
 13 12  1  0  0  0
 25 16  1  0  0  0
 11 12  1  0  0  0
 11 10  2  0  0  0
 12  3  2  0  0  0
 10  9  1  0  0  0
 10  5  1  0  0  0
 16 18  2  0  0  0
 16  1  1  0  0  0
 16 17  2  0  0  0
  9  8  1  0  0  0
  3  1  1  0  0  0
  3  4  1  0  0  0
  5  4  2  0  0  0
  5  6  1  0  0  0
  8  6  2  0  0  0
  6  7  1  0  0  0
  1  2  1  0  0  0
 13 15  1  0  0  0
M  END
> <minimizedAffinity>
-6.60412

$$$$
5Y94_8QC_A_201


 27 29  0  0  0  0  0  0  0  0999 V2000
   -6.5446   10.4772    2.6734 N   0  0  0  0  0  0  0  0  0  0  0  0
   -6.5607   11.2436    3.2911 H   0  0  0  0  0  0  0  0  0  0  0  0
   -7.6871    9.6683    2.5538 C   0  0  0  0  0  0  0  0  0  0  0  0
   -7.9691    8.5606    3.3901 C   0  0  0  0  0  0  0  0  0  0  0  0
   -9.0987    7.8594    3.2225 C   0  0  0  0  0  0  0  0  0  0  0  0
   -9.6486    6.7674    3.8492 C   0  0  0  0  0  0  0  0  0  0  0  0
   -9.0994    5.9770    4.9851 C   0  0  0  0  0  0  0  0  0  0  0  0
  -10.8098    6.3918    3.3306 N   0  0  0  0  0  0  0  0  0  0  0  0
  -11.0604    7.3984    2.2452 O   0  0  0  0  0  0  0  0  0  0  0  0
   -9.9781    8.2347    2.2359 C   0  0  0  0  0  0  0  0  0  0  0  0
   -9.7789    9.2725    1.4371 C   0  0  0  0  0  0  0  0  0  0  0  0
   -8.6259   10.0045    1.5333 C   0  0  0  0  0  0  0  0  0  0  0  0
   -8.3798   11.0512    0.7131 N   0  0  0  0  0  0  0  0  0  0  0  0
   -8.5666   10.9517   -0.7695 C   0  0  0  0  0  0  0  0  0  0  0  0
   -8.0695   11.9012    1.1010 H   0  0  0  0  0  0  0  0  0  0  0  0
   -5.1386   10.1642    1.7789 S   0  0  0  0  0  0  0  0  0  0  0  0
   -5.4651    9.7764    0.3741 O   0  0  0  0  0  0  0  0  0  0  0  0
   -4.4334    9.0745    2.4349 O   0  0  0  0  0  0  0  0  0  0  0  0
   -4.6422   12.8419    1.4705 C   0  0  0  0  0  0  0  0  0  0  0  0
   -3.7256   13.9119    1.4810 C   0  0  0  0  0  0  0  0  0  0  0  0
   -2.4133   13.7041    1.8056 C   0  0  0  0  0  0  0  0  0  0  0  0
   -1.9730   12.4372    2.1136 C   0  0  0  0  0  0  0  0  0  0  0  0
   -0.1864   12.2168    2.5777 Br  0  0  0  0  0  0  0  0  0  0  0  0
   -2.8353   11.3705    2.1061 C   0  0  0  0  0  0  0  0  0  0  0  0
   -4.1591   11.5630    1.7707 C   0  0  0  0  0  0  0  0  0  0  0  0
   -6.2971   13.8943    0.0722 C   0  0  0  0  0  0  0  0  0  0  0  0
   -5.9623   13.0162    1.1773 O   0  0  0  0  0  0  0  0  0  0  0  0
 21 20  1  0  0  0
 21 22  2  0  0  0
 20 19  2  0  0  0
 26 27  1  0  0  0
 23 22  1  0  0  0
 14 13  1  0  0  0
 22 24  1  0  0  0
 19 27  1  0  0  0
 19 25  1  0  0  0
 24 25  2  0  0  0
 13 12  1  0  0  0
 25 16  1  0  0  0
 11 12  1  0  0  0
 11 10  2  0  0  0
 12  3  2  0  0  0
 10  9  1  0  0  0
 10  5  1  0  0  0
 16 18  2  0  0  0
 16  1  1  0  0  0
 16 17  2  0  0  0
  9  8  1  0  0  0
  3  1  1  0  0  0
  3  4  1  0  0  0
  5  4  2  0  0  0
  5  6  1  0  0  0
  8  6  2  0  0  0
  6  7  1  0  0  0
  1  2  1  0  0  0
 13 15  1  0  0  0
M  END
> <minimizedAffinity>
-6.59392

$$$$
5Y94_8QC_A_201


 27 29  0  0  0  0  0  0  0  0999 V2000
   -7.8433   10.7422    1.6397 N   0  0  0  0  0  0  0  0  0  0  0  0
   -7.9312   11.6454    2.0216 H   0  0  0  0  0  0  0  0  0  0  0  0
   -8.0020    9.6250    2.4766 C   0  0  0  0  0  0  0  0  0  0  0  0
   -9.1694    8.8244    2.5226 C   0  0  0  0  0  0  0  0  0  0  0  0
   -9.2245    7.7583    3.3327 C   0  0  0  0  0  0  0  0  0  0  0  0
  -10.1805    6.8085    3.6000 C   0  0  0  0  0  0  0  0  0  0  0  0
  -11.5481    6.6830    3.0251 C   0  0  0  0  0  0  0  0  0  0  0  0
   -9.8003    5.9192    4.5072 N   0  0  0  0  0  0  0  0  0  0  0  0
   -8.3964    6.3296    4.8456 O   0  0  0  0  0  0  0  0  0  0  0  0
   -8.1331    7.4515    4.1089 C   0  0  0  0  0  0  0  0  0  0  0  0
   -7.0076    8.1500    4.0938 C   0  0  0  0  0  0  0  0  0  0  0  0
   -6.9038    9.2722    3.3164 C   0  0  0  0  0  0  0  0  0  0  0  0
   -5.7790   10.0230    3.3015 N   0  0  0  0  0  0  0  0  0  0  0  0
   -4.4277    9.4233    3.5409 C   0  0  0  0  0  0  0  0  0  0  0  0
   -5.8504   10.9896    3.1286 H   0  0  0  0  0  0  0  0  0  0  0  0
   -7.5041   10.5715   -0.0128 S   0  0  0  0  0  0  0  0  0  0  0  0
   -7.9132   11.7869   -0.7784 O   0  0  0  0  0  0  0  0  0  0  0  0
   -8.2447    9.4173   -0.4969 O   0  0  0  0  0  0  0  0  0  0  0  0
   -4.8458   11.1572    0.3066 C   0  0  0  0  0  0  0  0  0  0  0  0
   -3.4972   10.8372    0.0537 C   0  0  0  0  0  0  0  0  0  0  0  0
   -3.1666    9.7139   -0.6531 C   0  0  0  0  0  0  0  0  0  0  0  0
   -4.1566    8.8894   -1.1370 C   0  0  0  0  0  0  0  0  0  0  0  0
   -3.6504    7.3597   -2.0642 Br  0  0  0  0  0  0  0  0  0  0  0  0
   -5.4803    9.1736   -0.9167 C   0  0  0  0  0  0  0  0  0  0  0  0
   -5.8290   10.3082   -0.2146 C   0  0  0  0  0  0  0  0  0  0  0  0
   -5.0613   13.5542    0.4033 C   0  0  0  0  0  0  0  0  0  0  0  0
   -5.2113   12.2541    1.0292 O   0  0  0  0  0  0  0  0  0  0  0  0
 21 20  1  0  0  0
 21 22  2  0  0  0
 20 19  2  0  0  0
 26 27  1  0  0  0
 23 22  1  0  0  0
 14 13  1  0  0  0
 22 24  1  0  0  0
 19 27  1  0  0  0
 19 25  1  0  0  0
 24 25  2  0  0  0
 13 12  1  0  0  0
 25 16  1  0  0  0
 11 12  1  0  0  0
 11 10  2  0  0  0
 12  3  2  0  0  0
 10  9  1  0  0  0
 10  5  1  0  0  0
 16 18  2  0  0  0
 16  1  1  0  0  0
 16 17  2  0  0  0
  9  8  1  0  0  0
  3  1  1  0  0  0
  3  4  1  0  0  0
  5  4  2  0  0  0
  5  6  1  0  0  0
  8  6  2  0  0  0
  6  7  1  0  0  0
  1  2  1  0  0  0
 13 15  1  0  0  0
M  END
> <minimizedAffinity>
-6.44039

$$$$
5Y94_8QC_A_201


 27 29  0  0  0  0  0  0  0  0999 V2000
   -8.2318    9.4836   -0.8383 N   0  0  0  0  0  0  0  0  0  0  0  0
   -8.8729    8.7404   -0.9158 H   0  0  0  0  0  0  0  0  0  0  0  0
   -7.3191    9.7139   -1.8812 C   0  0  0  0  0  0  0  0  0  0  0  0
   -5.9711    9.2797   -1.8695 C   0  0  0  0  0  0  0  0  0  0  0  0
   -5.1762    9.5194   -2.9215 C   0  0  0  0  0  0  0  0  0  0  0  0
   -3.8635    9.2370   -3.2125 C   0  0  0  0  0  0  0  0  0  0  0  0
   -2.8589    8.5312   -2.3703 C   0  0  0  0  0  0  0  0  0  0  0  0
   -3.4788    9.6859   -4.3994 N   0  0  0  0  0  0  0  0  0  0  0  0
   -4.7202   10.3119   -4.9659 O   0  0  0  0  0  0  0  0  0  0  0  0
   -5.6893   10.1835   -4.0093 C   0  0  0  0  0  0  0  0  0  0  0  0
   -6.9460   10.5954   -4.0865 C   0  0  0  0  0  0  0  0  0  0  0  0
   -7.7963   10.4147   -3.0288 C   0  0  0  0  0  0  0  0  0  0  0  0
   -9.0762   10.8500   -3.0654 N   0  0  0  0  0  0  0  0  0  0  0  0
   -9.7219   11.2931   -4.3420 C   0  0  0  0  0  0  0  0  0  0  0  0
   -9.5974   10.8763   -2.2306 H   0  0  0  0  0  0  0  0  0  0  0  0
   -8.2551   10.4554    0.5509 S   0  0  0  0  0  0  0  0  0  0  0  0
   -9.6226   10.9966    0.8109 O   0  0  0  0  0  0  0  0  0  0  0  0
   -7.3280   11.5548    0.3341 O   0  0  0  0  0  0  0  0  0  0  0  0
   -8.5073    8.4932    2.4477 C   0  0  0  0  0  0  0  0  0  0  0  0
   -7.9806    7.8147    3.5645 C   0  0  0  0  0  0  0  0  0  0  0  0
   -6.7496    8.1412    4.0633 C   0  0  0  0  0  0  0  0  0  0  0  0
   -6.0173    9.1508    3.4817 C   0  0  0  0  0  0  0  0  0  0  0  0
   -4.3374    9.5321    4.1806 Br  0  0  0  0  0  0  0  0  0  0  0  0
   -6.5017    9.8380    2.3980 C   0  0  0  0  0  0  0  0  0  0  0  0
   -7.7457    9.5269    1.8905 C   0  0  0  0  0  0  0  0  0  0  0  0
  -10.5509    7.2310    2.6268 C   0  0  0  0  0  0  0  0  0  0  0  0
   -9.7189    8.1772    1.9079 O   0  0  0  0  0  0  0  0  0  0  0  0
 21 20  1  0  0  0
 21 22  2  0  0  0
 20 19  2  0  0  0
 26 27  1  0  0  0
 23 22  1  0  0  0
 14 13  1  0  0  0
 22 24  1  0  0  0
 19 27  1  0  0  0
 19 25  1  0  0  0
 24 25  2  0  0  0
 13 12  1  0  0  0
 25 16  1  0  0  0
 11 12  1  0  0  0
 11 10  2  0  0  0
 12  3  2  0  0  0
 10  9  1  0  0  0
 10  5  1  0  0  0
 16 18  2  0  0  0
 16  1  1  0  0  0
 16 17  2  0  0  0
  9  8  1  0  0  0
  3  1  1  0  0  0
  3  4  1  0  0  0
  5  4  2  0  0  0
  5  6  1  0  0  0
  8  6  2  0  0  0
  6  7  1  0  0  0
  1  2  1  0  0  0
 13 15  1  0  0  0
M  END
> <minimizedAffinity>
-6.11747

$$$$
5Y94_8QC_A_201


 27 29  0  0  0  0  0  0  0  0999 V2000
   -6.3463    9.7506   -0.2958 N   0  0  0  0  0  0  0  0  0  0  0  0
   -5.4829    9.6991    0.1744 H   0  0  0  0  0  0  0  0  0  0  0  0
   -6.3786    9.5855   -1.6907 C   0  0  0  0  0  0  0  0  0  0  0  0
   -7.3813   10.1251   -2.5329 C   0  0  0  0  0  0  0  0  0  0  0  0
   -7.3190    9.9413   -3.8589 C   0  0  0  0  0  0  0  0  0  0  0  0
   -8.1085   10.3246   -4.9159 C   0  0  0  0  0  0  0  0  0  0  0  0
   -9.3707   11.1140   -4.8911 C   0  0  0  0  0  0  0  0  0  0  0  0
   -7.6611    9.8987   -6.0893 N   0  0  0  0  0  0  0  0  0  0  0  0
   -6.3926    9.1721   -5.7473 O   0  0  0  0  0  0  0  0  0  0  0  0
   -6.2682    9.2306   -4.3865 C   0  0  0  0  0  0  0  0  0  0  0  0
   -5.2910    8.7198   -3.6521 C   0  0  0  0  0  0  0  0  0  0  0  0
   -5.3188    8.8405   -2.2886 C   0  0  0  0  0  0  0  0  0  0  0  0
   -4.3519    8.3050   -1.5095 N   0  0  0  0  0  0  0  0  0  0  0  0
   -3.6453    7.0398   -1.8877 C   0  0  0  0  0  0  0  0  0  0  0  0
   -4.1058    8.7589   -0.6712 H   0  0  0  0  0  0  0  0  0  0  0  0
   -7.7593   10.0364    0.5965 S   0  0  0  0  0  0  0  0  0  0  0  0
   -8.9776    9.6681   -0.1849 O   0  0  0  0  0  0  0  0  0  0  0  0
   -7.7964   11.4540    0.9194 O   0  0  0  0  0  0  0  0  0  0  0  0
   -6.6728    9.2136    2.9744 C   0  0  0  0  0  0  0  0  0  0  0  0
   -6.7386    8.3868    4.1133 C   0  0  0  0  0  0  0  0  0  0  0  0
   -7.7979    7.5427    4.3032 C   0  0  0  0  0  0  0  0  0  0  0  0
   -8.8077    7.4852    3.3699 C   0  0  0  0  0  0  0  0  0  0  0  0
  -10.2387    6.3435    3.6934 Br  0  0  0  0  0  0  0  0  0  0  0  0
   -8.7732    8.2699    2.2455 C   0  0  0  0  0  0  0  0  0  0  0  0
   -7.7064    9.1182    2.0354 C   0  0  0  0  0  0  0  0  0  0  0  0
   -4.3704    9.7869    3.3894 C   0  0  0  0  0  0  0  0  0  0  0  0
   -5.6455   10.0855    2.7653 O   0  0  0  0  0  0  0  0  0  0  0  0
 21 20  1  0  0  0
 21 22  2  0  0  0
 20 19  2  0  0  0
 26 27  1  0  0  0
 23 22  1  0  0  0
 14 13  1  0  0  0
 22 24  1  0  0  0
 19 27  1  0  0  0
 19 25  1  0  0  0
 24 25  2  0  0  0
 13 12  1  0  0  0
 25 16  1  0  0  0
 11 12  1  0  0  0
 11 10  2  0  0  0
 12  3  2  0  0  0
 10  9  1  0  0  0
 10  5  1  0  0  0
 16 18  2  0  0  0
 16  1  1  0  0  0
 16 17  2  0  0  0
  9  8  1  0  0  0
  3  1  1  0  0  0
  3  4  1  0  0  0
  5  4  2  0  0  0
  5  6  1  0  0  0
  8  6  2  0  0  0
  6  7  1  0  0  0
  1  2  1  0  0  0
 13 15  1  0  0  0
M  END
> <minimizedAffinity>
-6.03526

$$$$
5Y94_8QC_A_201


 27 29  0  0  0  0  0  0  0  0999 V2000
   -7.9664   10.7890    0.8945 N   0  0  0  0  0  0  0  0  0  0  0  0
   -8.4599   11.6263    1.0518 H   0  0  0  0  0  0  0  0  0  0  0  0
   -8.0299    9.7647    1.8540 C   0  0  0  0  0  0  0  0  0  0  0  0
   -9.1580    8.9327    2.0564 C   0  0  0  0  0  0  0  0  0  0  0  0
   -9.1219    7.9598    2.9774 C   0  0  0  0  0  0  0  0  0  0  0  0
  -10.0203    7.0113    3.4025 C   0  0  0  0  0  0  0  0  0  0  0  0
  -11.4119    6.7751    2.9290 C   0  0  0  0  0  0  0  0  0  0  0  0
   -9.5519    6.2403    4.3744 N   0  0  0  0  0  0  0  0  0  0  0  0
   -8.1495    6.7350    4.5805 O   0  0  0  0  0  0  0  0  0  0  0  0
   -7.9762    7.7787    3.7136 C   0  0  0  0  0  0  0  0  0  0  0  0
   -6.8838    8.5112    3.5554 C   0  0  0  0  0  0  0  0  0  0  0  0
   -6.8717    9.5450    2.6578 C   0  0  0  0  0  0  0  0  0  0  0  0
   -5.7823   10.3293    2.4942 N   0  0  0  0  0  0  0  0  0  0  0  0
   -4.3957    9.7634    2.4978 C   0  0  0  0  0  0  0  0  0  0  0  0
   -5.9039   11.2983    2.3693 H   0  0  0  0  0  0  0  0  0  0  0  0
   -7.0596   10.6171   -0.5278 S   0  0  0  0  0  0  0  0  0  0  0  0
   -6.4713    9.2485   -0.6333 O   0  0  0  0  0  0  0  0  0  0  0  0
   -5.9933   11.6055   -0.4919 O   0  0  0  0  0  0  0  0  0  0  0  0
   -7.9473   10.2309   -3.0919 C   0  0  0  0  0  0  0  0  0  0  0  0
   -8.8339   10.5772   -4.1307 C   0  0  0  0  0  0  0  0  0  0  0  0
   -9.8017   11.5240   -3.9363 C   0  0  0  0  0  0  0  0  0  0  0  0
   -9.9085   12.1589   -2.7201 C   0  0  0  0  0  0  0  0  0  0  0  0
  -11.2614   13.4149   -2.5008 Br  0  0  0  0  0  0  0  0  0  0  0  0
   -9.0578   11.8529   -1.6885 C   0  0  0  0  0  0  0  0  0  0  0  0
   -8.0706   10.9079   -1.8730 C   0  0  0  0  0  0  0  0  0  0  0  0
   -6.4142    9.0953   -4.5621 C   0  0  0  0  0  0  0  0  0  0  0  0
   -6.9878    9.2739   -3.2416 O   0  0  0  0  0  0  0  0  0  0  0  0
 21 20  1  0  0  0
 21 22  2  0  0  0
 20 19  2  0  0  0
 26 27  1  0  0  0
 23 22  1  0  0  0
 14 13  1  0  0  0
 22 24  1  0  0  0
 19 27  1  0  0  0
 19 25  1  0  0  0
 24 25  2  0  0  0
 13 12  1  0  0  0
 25 16  1  0  0  0
 11 12  1  0  0  0
 11 10  2  0  0  0
 12  3  2  0  0  0
 10  9  1  0  0  0
 10  5  1  0  0  0
 16 18  2  0  0  0
 16  1  1  0  0  0
 16 17  2  0  0  0
  9  8  1  0  0  0
  3  1  1  0  0  0
  3  4  1  0  0  0
  5  4  2  0  0  0
  5  6  1  0  0  0
  8  6  2  0  0  0
  6  7  1  0  0  0
  1  2  1  0  0  0
 13 15  1  0  0  0
M  END
> <minimizedAffinity>
-6.00362

$$$$
5Y94_8QC_A_201


 27 29  0  0  0  0  0  0  0  0999 V2000
   -8.1676    9.9412   -1.6222 N   0  0  0  0  0  0  0  0  0  0  0  0
   -8.2284    9.2193   -2.2889 H   0  0  0  0  0  0  0  0  0  0  0  0
   -7.7232    9.6403   -0.3238 C   0  0  0  0  0  0  0  0  0  0  0  0
   -8.5607    9.1608    0.7129 C   0  0  0  0  0  0  0  0  0  0  0  0
   -8.0465    8.8726    1.9164 C   0  0  0  0  0  0  0  0  0  0  0  0
   -8.5745    8.4031    3.0946 C   0  0  0  0  0  0  0  0  0  0  0  0
   -9.9894    8.0574    3.4032 C   0  0  0  0  0  0  0  0  0  0  0  0
   -7.6751    8.2742    4.0605 N   0  0  0  0  0  0  0  0  0  0  0  0
   -6.3863    8.6822    3.4074 O   0  0  0  0  0  0  0  0  0  0  0  0
   -6.6992    9.0419    2.1254 C   0  0  0  0  0  0  0  0  0  0  0  0
   -5.8634    9.4670    1.1897 C   0  0  0  0  0  0  0  0  0  0  0  0
   -6.3343    9.8147   -0.0480 C   0  0  0  0  0  0  0  0  0  0  0  0
   -5.5111   10.2797   -1.0150 N   0  0  0  0  0  0  0  0  0  0  0  0
   -4.6134    9.3670   -1.7923 C   0  0  0  0  0  0  0  0  0  0  0  0
   -5.5016   11.2440   -1.2132 H   0  0  0  0  0  0  0  0  0  0  0  0
   -8.6016   11.5184   -2.0679 S   0  0  0  0  0  0  0  0  0  0  0  0
   -7.4793   12.4758   -1.8344 O   0  0  0  0  0  0  0  0  0  0  0  0
   -9.7481   11.9039   -1.2605 O   0  0  0  0  0  0  0  0  0  0  0  0
   -8.2392   10.9665   -4.7280 C   0  0  0  0  0  0  0  0  0  0  0  0
   -8.6967   11.0624   -6.0571 C   0  0  0  0  0  0  0  0  0  0  0  0
   -9.8907   11.6650   -6.3429 C   0  0  0  0  0  0  0  0  0  0  0  0
  -10.6529   12.1974   -5.3283 C   0  0  0  0  0  0  0  0  0  0  0  0
  -12.2817   12.9773   -5.7698 Br  0  0  0  0  0  0  0  0  0  0  0  0
  -10.2355   12.1293   -4.0235 C   0  0  0  0  0  0  0  0  0  0  0  0
   -9.0289   11.5339   -3.7212 C   0  0  0  0  0  0  0  0  0  0  0  0
   -6.8816    8.9803   -4.8433 C   0  0  0  0  0  0  0  0  0  0  0  0
   -7.0671   10.3501   -4.4034 O   0  0  0  0  0  0  0  0  0  0  0  0
 21 20  1  0  0  0
 21 22  2  0  0  0
 20 19  2  0  0  0
 26 27  1  0  0  0
 23 22  1  0  0  0
 14 13  1  0  0  0
 22 24  1  0  0  0
 19 27  1  0  0  0
 19 25  1  0  0  0
 24 25  2  0  0  0
 13 12  1  0  0  0
 25 16  1  0  0  0
 11 12  1  0  0  0
 11 10  2  0  0  0
 12  3  2  0  0  0
 10  9  1  0  0  0
 10  5  1  0  0  0
 16 18  2  0  0  0
 16  1  1  0  0  0
 16 17  2  0  0  0
  9  8  1  0  0  0
  3  1  1  0  0  0
  3  4  1  0  0  0
  5  4  2  0  0  0
  5  6  1  0  0  0
  8  6  2  0  0  0
  6  7  1  0  0  0
  1  2  1  0  0  0
 13 15  1  0  0  0
M  END
> <minimizedAffinity>
-5.87772

$$$$
5Y94_8QC_A_201


 27 29  0  0  0  0  0  0  0  0999 V2000
   -7.9509   10.8080    1.3705 N   0  0  0  0  0  0  0  0  0  0  0  0
   -8.2573   11.6892    1.6850 H   0  0  0  0  0  0  0  0  0  0  0  0
   -8.0446    9.7017    2.2314 C   0  0  0  0  0  0  0  0  0  0  0  0
   -9.1871    8.8716    2.3392 C   0  0  0  0  0  0  0  0  0  0  0  0
   -9.1798    7.8186    3.1681 C   0  0  0  0  0  0  0  0  0  0  0  0
  -10.0980    6.8488    3.4906 C   0  0  0  0  0  0  0  0  0  0  0  0
  -11.4844    6.6776    2.9757 C   0  0  0  0  0  0  0  0  0  0  0  0
   -9.6566    5.9856    4.3953 N   0  0  0  0  0  0  0  0  0  0  0  0
   -8.2514    6.4385    4.6678 O   0  0  0  0  0  0  0  0  0  0  0  0
   -8.0493    7.5540    3.9026 C   0  0  0  0  0  0  0  0  0  0  0  0
   -6.9446    8.2815    3.8291 C   0  0  0  0  0  0  0  0  0  0  0  0
   -6.9033    9.3924    3.0299 C   0  0  0  0  0  0  0  0  0  0  0  0
   -5.8008   10.1720    2.9557 N   0  0  0  0  0  0  0  0  0  0  0  0
   -4.4219    9.6014    3.0822 C   0  0  0  0  0  0  0  0  0  0  0  0
   -5.9075   11.1405    2.8147 H   0  0  0  0  0  0  0  0  0  0  0  0
   -7.3226   10.6612   -0.1974 S   0  0  0  0  0  0  0  0  0  0  0  0
   -8.2601    9.9154   -1.0893 O   0  0  0  0  0  0  0  0  0  0  0  0
   -6.0632    9.9403   -0.1009 O   0  0  0  0  0  0  0  0  0  0  0  0
   -6.4960   13.2724   -0.0960 C   0  0  0  0  0  0  0  0  0  0  0  0
   -6.3365   14.5171   -0.7367 C   0  0  0  0  0  0  0  0  0  0  0  0
   -6.6831   14.6759   -2.0502 C   0  0  0  0  0  0  0  0  0  0  0  0
   -7.2059   13.6169   -2.7566 C   0  0  0  0  0  0  0  0  0  0  0  0
   -7.6306   13.8797   -4.5474 Br  0  0  0  0  0  0  0  0  0  0  0  0
   -7.3824   12.3928   -2.1635 C   0  0  0  0  0  0  0  0  0  0  0  0
   -7.0472   12.2205   -0.8369 C   0  0  0  0  0  0  0  0  0  0  0  0
   -4.7500   13.2958    1.5631 C   0  0  0  0  0  0  0  0  0  0  0  0
   -6.1374   13.0707    1.2039 O   0  0  0  0  0  0  0  0  0  0  0  0
 21 20  1  0  0  0
 21 22  2  0  0  0
 20 19  2  0  0  0
 26 27  1  0  0  0
 23 22  1  0  0  0
 14 13  1  0  0  0
 22 24  1  0  0  0
 19 27  1  0  0  0
 19 25  1  0  0  0
 24 25  2  0  0  0
 13 12  1  0  0  0
 25 16  1  0  0  0
 11 12  1  0  0  0
 11 10  2  0  0  0
 12  3  2  0  0  0
 10  9  1  0  0  0
 10  5  1  0  0  0
 16 18  2  0  0  0
 16  1  1  0  0  0
 16 17  2  0  0  0
  9  8  1  0  0  0
  3  1  1  0  0  0
  3  4  1  0  0  0
  5  4  2  0  0  0
  5  6  1  0  0  0
  8  6  2  0  0  0
  6  7  1  0  0  0
  1  2  1  0  0  0
 13 15  1  0  0  0
M  END
> <minimizedAffinity>
-5.84514

$$$$
