2OXX_K22_A_501


 16 17  0  0  0  0  0  0  0  0999 V2000
   20.0816   10.0882   18.6427 Br  0  0  0  0  0  0  0  0  0  0  0  0
   20.9917    8.7485   19.6084 C   0  0  0  0  0  0  0  0  0  0  0  0
   21.8919    8.0417   18.8365 C   0  0  0  0  0  0  0  0  0  0  0  0
   22.1964    8.4611   16.9946 Br  0  0  0  0  0  0  0  0  0  0  0  0
   20.8138    8.4207   20.9739 C   0  0  0  0  0  0  0  0  0  0  0  0
   20.0501    8.8780   21.9851 N   0  0  0  0  0  0  0  0  0  0  0  0
   20.3231    8.1462   23.1035 C   0  0  0  0  0  0  0  0  0  0  0  0
   19.6756    8.2990   24.6174 S   0  0  0  0  0  0  0  0  0  0  0  0
   21.2470    7.2241   22.8177 N   0  0  0  0  0  0  0  0  0  0  0  0
   21.5579    7.3707   21.5350 C   0  0  0  0  0  0  0  0  0  0  0  0
   22.4476    6.6648   20.7642 C   0  0  0  0  0  0  0  0  0  0  0  0
   23.4728    5.2383   21.4962 Br  0  0  0  0  0  0  0  0  0  0  0  0
   22.5903    7.0241   19.4468 C   0  0  0  0  0  0  0  0  0  0  0  0
   23.7968    6.0543   18.4420 Br  0  0  0  0  0  0  0  0  0  0  0  0
   19.4027    9.6173   21.9266 H   0  0  0  0  0  0  0  0  0  0  0  0
   21.6255    6.5618   23.4401 H   0  0  0  0  0  0  0  0  0  0  0  0
  1  2  1  0  0  0
  2  3  2  0  0  0
  2  5  1  0  0  0
  3  4  1  0  0  0
  3 13  1  0  0  0
  5  6  1  0  0  0
  5 10  2  0  0  0
  6  7  1  0  0  0
  7  8  2  0  0  0
  7  9  1  0  0  0
  9 10  1  0  0  0
 10 11  1  0  0  0
 11 13  2  0  0  0
 11 12  1  0  0  0
 13 14  1  0  0  0
  6 15  1  0  0  0
  9 16  1  0  0  0
M  END
> <minimizedAffinity>
-6.93874

$$$$
2OXX_K22_A_501


 16 17  0  0  0  0  0  0  0  0999 V2000
   21.9384    9.3725   16.8574 Br  0  0  0  0  0  0  0  0  0  0  0  0
   22.5240    7.9884   17.9962 C   0  0  0  0  0  0  0  0  0  0  0  0
   23.3858    7.1057   17.3766 C   0  0  0  0  0  0  0  0  0  0  0  0
   23.9500    7.3436   15.5638 Br  0  0  0  0  0  0  0  0  0  0  0  0
   22.1502    7.7884   19.3468 C   0  0  0  0  0  0  0  0  0  0  0  0
   21.3585    8.4223   20.2335 N   0  0  0  0  0  0  0  0  0  0  0  0
   21.3935    7.7410   21.4148 C   0  0  0  0  0  0  0  0  0  0  0  0
   20.6149    8.0936   22.8303 S   0  0  0  0  0  0  0  0  0  0  0  0
   22.1928    6.6773   21.2917 N   0  0  0  0  0  0  0  0  0  0  0  0
   22.6607    6.6851   20.0490 C   0  0  0  0  0  0  0  0  0  0  0  0
   23.5123    5.8049   19.4291 C   0  0  0  0  0  0  0  0  0  0  0  0
   24.2234    4.3017   20.3547 Br  0  0  0  0  0  0  0  0  0  0  0  0
   23.8511    6.0445   18.1204 C   0  0  0  0  0  0  0  0  0  0  0  0
   24.9995    4.8414   17.3206 Br  0  0  0  0  0  0  0  0  0  0  0  0
   20.8408    9.2412   20.0581 H   0  0  0  0  0  0  0  0  0  0  0  0
   22.3962    6.0137   21.9899 H   0  0  0  0  0  0  0  0  0  0  0  0
  1  2  1  0  0  0
  2  3  2  0  0  0
  2  5  1  0  0  0
  3  4  1  0  0  0
  3 13  1  0  0  0
  5  6  1  0  0  0
  5 10  2  0  0  0
  6  7  1  0  0  0
  7  8  2  0  0  0
  7  9  1  0  0  0
  9 10  1  0  0  0
 10 11  1  0  0  0
 11 13  2  0  0  0
 11 12  1  0  0  0
 13 14  1  0  0  0
  6 15  1  0  0  0
  9 16  1  0  0  0
M  END
> <minimizedAffinity>
-6.56193

$$$$
2OXX_K22_A_501


 16 17  0  0  0  0  0  0  0  0999 V2000
   23.2096    7.9382   16.4303 Br  0  0  0  0  0  0  0  0  0  0  0  0
   22.6469    7.5532   18.1884 C   0  0  0  0  0  0  0  0  0  0  0  0
   21.6876    8.4299   18.6540 C   0  0  0  0  0  0  0  0  0  0  0  0
   20.9850    9.8365   17.5635 Br  0  0  0  0  0  0  0  0  0  0  0  0
   23.1229    6.5116   19.0203 C   0  0  0  0  0  0  0  0  0  0  0  0
   24.0214    5.5149   18.9012 N   0  0  0  0  0  0  0  0  0  0  0  0
   24.0495    4.8107   20.0692 C   0  0  0  0  0  0  0  0  0  0  0  0
   24.9644    3.4876   20.4523 S   0  0  0  0  0  0  0  0  0  0  0  0
   23.1844    5.3485   20.9342 N   0  0  0  0  0  0  0  0  0  0  0  0
   22.6134    6.3792   20.3218 C   0  0  0  0  0  0  0  0  0  0  0  0
   21.6642    7.2559   20.7852 C   0  0  0  0  0  0  0  0  0  0  0  0
   20.9520    7.1011   22.5432 Br  0  0  0  0  0  0  0  0  0  0  0  0
   21.2290    8.2457   19.9391 C   0  0  0  0  0  0  0  0  0  0  0  0
   19.9512    9.4043   20.5956 Br  0  0  0  0  0  0  0  0  0  0  0  0
   24.5671    5.3262   18.1039 H   0  0  0  0  0  0  0  0  0  0  0  0
   23.0046    5.0393   21.8514 H   0  0  0  0  0  0  0  0  0  0  0  0
  1  2  1  0  0  0
  2  3  2  0  0  0
  2  5  1  0  0  0
  3  4  1  0  0  0
  3 13  1  0  0  0
  5  6  1  0  0  0
  5 10  2  0  0  0
  6  7  1  0  0  0
  7  8  2  0  0  0
  7  9  1  0  0  0
  9 10  1  0  0  0
 10 11  1  0  0  0
 11 13  2  0  0  0
 11 12  1  0  0  0
 13 14  1  0  0  0
  6 15  1  0  0  0
  9 16  1  0  0  0
M  END
> <minimizedAffinity>
-6.55892

$$$$
2OXX_K22_A_501


 16 17  0  0  0  0  0  0  0  0999 V2000
   24.5377    4.0038   19.9423 Br  0  0  0  0  0  0  0  0  0  0  0  0
   23.7512    5.5436   19.1898 C   0  0  0  0  0  0  0  0  0  0  0  0
   24.1232    5.7551   17.8774 C   0  0  0  0  0  0  0  0  0  0  0  0
   25.2706    4.5435   16.9410 Br  0  0  0  0  0  0  0  0  0  0  0  0
   22.8813    6.4526   19.8384 C   0  0  0  0  0  0  0  0  0  0  0  0
   22.3335    6.5570   21.0646 N   0  0  0  0  0  0  0  0  0  0  0  0
   21.5569    7.6779   21.1017 C   0  0  0  0  0  0  0  0  0  0  0  0
   20.6553    8.2649   22.3575 S   0  0  0  0  0  0  0  0  0  0  0  0
   21.6066    8.2933   19.9166 N   0  0  0  0  0  0  0  0  0  0  0  0
   22.4026    7.5707   19.1371 C   0  0  0  0  0  0  0  0  0  0  0  0
   22.7787    7.7828   17.8342 C   0  0  0  0  0  0  0  0  0  0  0  0
   22.1447    9.2871   16.8561 Br  0  0  0  0  0  0  0  0  0  0  0  0
   23.6188    6.8699   17.2460 C   0  0  0  0  0  0  0  0  0  0  0  0
   24.1015    7.1866   15.4931 Br  0  0  0  0  0  0  0  0  0  0  0  0
   22.4708    5.9288   21.8101 H   0  0  0  0  0  0  0  0  0  0  0  0
   21.1413    9.1247   19.6685 H   0  0  0  0  0  0  0  0  0  0  0  0
  1  2  1  0  0  0
  2  3  2  0  0  0
  2  5  1  0  0  0
  3  4  1  0  0  0
  3 13  1  0  0  0
  5  6  1  0  0  0
  5 10  2  0  0  0
  6  7  1  0  0  0
  7  8  2  0  0  0
  7  9  1  0  0  0
  9 10  1  0  0  0
 10 11  1  0  0  0
 11 13  2  0  0  0
 11 12  1  0  0  0
 13 14  1  0  0  0
  6 15  1  0  0  0
  9 16  1  0  0  0
M  END
> <minimizedAffinity>
-6.55533

$$$$
2OXX_K22_A_501


 16 17  0  0  0  0  0  0  0  0999 V2000
   23.6991    5.0039   21.3571 Br  0  0  0  0  0  0  0  0  0  0  0  0
   22.5620    6.4342   20.8913 C   0  0  0  0  0  0  0  0  0  0  0  0
   22.6823    6.8131   19.5693 C   0  0  0  0  0  0  0  0  0  0  0  0
   23.8505    5.9044   18.3566 Br  0  0  0  0  0  0  0  0  0  0  0  0
   21.6682    7.1187   21.7494 C   0  0  0  0  0  0  0  0  0  0  0  0
   21.3112    7.0252   23.0450 N   0  0  0  0  0  0  0  0  0  0  0  0
   20.3770    7.9832   23.3105 C   0  0  0  0  0  0  0  0  0  0  0  0
   19.6010    8.2975   24.7364 S   0  0  0  0  0  0  0  0  0  0  0  0
   20.1374    8.6905   22.2024 N   0  0  0  0  0  0  0  0  0  0  0  0
   20.9079    8.1862   21.2457 C   0  0  0  0  0  0  0  0  0  0  0  0
   21.0338    8.5656   19.9326 C   0  0  0  0  0  0  0  0  0  0  0  0
   20.0152   10.0064   19.2195 Br  0  0  0  0  0  0  0  0  0  0  0  0
   21.9087    7.8671   19.1378 C   0  0  0  0  0  0  0  0  0  0  0  0
   22.0500    8.4042   17.3778 Br  0  0  0  0  0  0  0  0  0  0  0  0
   21.6656    6.3738   23.6925 H   0  0  0  0  0  0  0  0  0  0  0  0
   19.5087    9.4428   22.1124 H   0  0  0  0  0  0  0  0  0  0  0  0
  1  2  1  0  0  0
  2  3  2  0  0  0
  2  5  1  0  0  0
  3  4  1  0  0  0
  3 13  1  0  0  0
  5  6  1  0  0  0
  5 10  2  0  0  0
  6  7  1  0  0  0
  7  8  2  0  0  0
  7  9  1  0  0  0
  9 10  1  0  0  0
 10 11  1  0  0  0
 11 13  2  0  0  0
 11 12  1  0  0  0
 13 14  1  0  0  0
  6 15  1  0  0  0
  9 16  1  0  0  0
M  END
> <minimizedAffinity>
-6.42575

$$$$
2OXX_K22_A_501


 16 17  0  0  0  0  0  0  0  0999 V2000
   19.9973    8.9873   20.4946 Br  0  0  0  0  0  0  0  0  0  0  0  0
   21.3413    8.1208   19.4952 C   0  0  0  0  0  0  0  0  0  0  0  0
   21.5142    8.6620   18.2371 C   0  0  0  0  0  0  0  0  0  0  0  0
   20.5128   10.1791   17.6396 Br  0  0  0  0  0  0  0  0  0  0  0  0
   22.1197    7.0124   19.9063 C   0  0  0  0  0  0  0  0  0  0  0  0
   22.2118    6.2561   21.0173 N   0  0  0  0  0  0  0  0  0  0  0  0
   23.1703    5.3057   20.8201 C   0  0  0  0  0  0  0  0  0  0  0  0
   23.6880    4.1330   21.8647 S   0  0  0  0  0  0  0  0  0  0  0  0
   23.6872    5.4422   19.5955 N   0  0  0  0  0  0  0  0  0  0  0  0
   23.0662    6.4674   19.0241 C   0  0  0  0  0  0  0  0  0  0  0  0
   23.2321    7.0029   17.7711 C   0  0  0  0  0  0  0  0  0  0  0  0
   24.5084    6.2886   16.5535 Br  0  0  0  0  0  0  0  0  0  0  0  0
   22.4586    8.0816   17.4203 C   0  0  0  0  0  0  0  0  0  0  0  0
   22.7106    8.7760   15.7291 Br  0  0  0  0  0  0  0  0  0  0  0  0
   21.6764    6.3703   21.8356 H   0  0  0  0  0  0  0  0  0  0  0  0
   24.3943    4.8878   19.1931 H   0  0  0  0  0  0  0  0  0  0  0  0
  1  2  1  0  0  0
  2  3  2  0  0  0
  2  5  1  0  0  0
  3  4  1  0  0  0
  3 13  1  0  0  0
  5  6  1  0  0  0
  5 10  2  0  0  0
  6  7  1  0  0  0
  7  8  2  0  0  0
  7  9  1  0  0  0
  9 10  1  0  0  0
 10 11  1  0  0  0
 11 13  2  0  0  0
 11 12  1  0  0  0
 13 14  1  0  0  0
  6 15  1  0  0  0
  9 16  1  0  0  0
M  END
> <minimizedAffinity>
-6.39210

$$$$
2OXX_K22_A_501


 16 17  0  0  0  0  0  0  0  0999 V2000
   24.1662    7.1544   15.0287 Br  0  0  0  0  0  0  0  0  0  0  0  0
   23.9842    6.4733   16.7776 C   0  0  0  0  0  0  0  0  0  0  0  0
   23.2033    7.2704   17.5904 C   0  0  0  0  0  0  0  0  0  0  0  0
   22.3596    8.8608   16.9421 Br  0  0  0  0  0  0  0  0  0  0  0  0
   24.5711    5.2921   17.2912 C   0  0  0  0  0  0  0  0  0  0  0  0
   25.3623    4.3165   16.8043 N   0  0  0  0  0  0  0  0  0  0  0  0
   25.6067    3.4156   17.7990 C   0  0  0  0  0  0  0  0  0  0  0  0
   26.5059    2.0293   17.7347 S   0  0  0  0  0  0  0  0  0  0  0  0
   24.9863    3.8067   18.9161 N   0  0  0  0  0  0  0  0  0  0  0  0
   24.3546    4.9398   18.6329 C   0  0  0  0  0  0  0  0  0  0  0  0
   23.5833    5.7371   19.4412 C   0  0  0  0  0  0  0  0  0  0  0  0
   23.2688    5.2853   21.2630 Br  0  0  0  0  0  0  0  0  0  0  0  0
   23.0298    6.8692   18.8960 C   0  0  0  0  0  0  0  0  0  0  0  0
   21.9974    7.9154   20.0120 Br  0  0  0  0  0  0  0  0  0  0  0  0
   25.7068    4.2627   15.8836 H   0  0  0  0  0  0  0  0  0  0  0  0
   24.9958    3.3427   19.7843 H   0  0  0  0  0  0  0  0  0  0  0  0
  1  2  1  0  0  0
  2  3  2  0  0  0
  2  5  1  0  0  0
  3  4  1  0  0  0
  3 13  1  0  0  0
  5  6  1  0  0  0
  5 10  2  0  0  0
  6  7  1  0  0  0
  7  8  2  0  0  0
  7  9  1  0  0  0
  9 10  1  0  0  0
 10 11  1  0  0  0
 11 13  2  0  0  0
 11 12  1  0  0  0
 13 14  1  0  0  0
  6 15  1  0  0  0
  9 16  1  0  0  0
M  END
> <minimizedAffinity>
-6.24552

$$$$
2OXX_K22_A_501


 16 17  0  0  0  0  0  0  0  0999 V2000
   23.5011    5.3616   21.1337 Br  0  0  0  0  0  0  0  0  0  0  0  0
   22.6625    6.6923   20.0937 C   0  0  0  0  0  0  0  0  0  0  0  0
   21.6836    7.3804   20.7819 C   0  0  0  0  0  0  0  0  0  0  0  0
   21.2998    7.0269   22.6229 Br  0  0  0  0  0  0  0  0  0  0  0  0
   22.9307    7.0014   18.7386 C   0  0  0  0  0  0  0  0  0  0  0  0
   23.7786    6.5490   17.7946 N   0  0  0  0  0  0  0  0  0  0  0  0
   23.5686    7.2535   16.6455 C   0  0  0  0  0  0  0  0  0  0  0  0
   24.3445    7.1087   15.1924 S   0  0  0  0  0  0  0  0  0  0  0  0
   22.5938    8.1460   16.8424 N   0  0  0  0  0  0  0  0  0  0  0  0
   22.1921    8.0108   18.1009 C   0  0  0  0  0  0  0  0  0  0  0  0
   21.2147    8.6895   18.7851 C   0  0  0  0  0  0  0  0  0  0  0  0
   20.1984   10.0646   17.9496 Br  0  0  0  0  0  0  0  0  0  0  0  0
   20.9956    8.3586   20.0994 C   0  0  0  0  0  0  0  0  0  0  0  0
   19.6753    9.2933   20.9877 Br  0  0  0  0  0  0  0  0  0  0  0  0
   24.4399    5.8295   17.9141 H   0  0  0  0  0  0  0  0  0  0  0  0
   22.2403    8.7829   16.1801 H   0  0  0  0  0  0  0  0  0  0  0  0
  1  2  1  0  0  0
  2  3  2  0  0  0
  2  5  1  0  0  0
  3  4  1  0  0  0
  3 13  1  0  0  0
  5  6  1  0  0  0
  5 10  2  0  0  0
  6  7  1  0  0  0
  7  8  2  0  0  0
  7  9  1  0  0  0
  9 10  1  0  0  0
 10 11  1  0  0  0
 11 13  2  0  0  0
 11 12  1  0  0  0
 13 14  1  0  0  0
  6 15  1  0  0  0
  9 16  1  0  0  0
M  END
> <minimizedAffinity>
-6.19147

$$$$
2OXX_K22_A_501


 16 17  0  0  0  0  0  0  0  0999 V2000
   22.2972    6.0096   21.5541 Br  0  0  0  0  0  0  0  0  0  0  0  0
   22.9121    6.2432   19.7869 C   0  0  0  0  0  0  0  0  0  0  0  0
   22.3810    7.3592   19.1719 C   0  0  0  0  0  0  0  0  0  0  0  0
   21.1963    8.5526   20.0851 Br  0  0  0  0  0  0  0  0  0  0  0  0
   23.8036    5.3991   19.0825 C   0  0  0  0  0  0  0  0  0  0  0  0
   24.4833    4.2688   19.3570 N   0  0  0  0  0  0  0  0  0  0  0  0
   25.2009    3.9120   18.2530 C   0  0  0  0  0  0  0  0  0  0  0  0
   26.2104    2.6173   18.0551 S   0  0  0  0  0  0  0  0  0  0  0  0
   24.9836    4.7970   17.2757 N   0  0  0  0  0  0  0  0  0  0  0  0
   24.1408    5.7047   17.7543 C   0  0  0  0  0  0  0  0  0  0  0  0
   23.6064    6.8112   17.1425 C   0  0  0  0  0  0  0  0  0  0  0  0
   24.0459    7.2538   15.3445 Br  0  0  0  0  0  0  0  0  0  0  0  0
   22.7517    7.6032   17.8685 C   0  0  0  0  0  0  0  0  0  0  0  0
   22.0545    9.0829   17.0141 Br  0  0  0  0  0  0  0  0  0  0  0  0
   24.4652    3.7813   20.2121 H   0  0  0  0  0  0  0  0  0  0  0  0
   25.3742    4.7794   16.3722 H   0  0  0  0  0  0  0  0  0  0  0  0
  1  2  1  0  0  0
  2  3  2  0  0  0
  2  5  1  0  0  0
  3  4  1  0  0  0
  3 13  1  0  0  0
  5  6  1  0  0  0
  5 10  2  0  0  0
  6  7  1  0  0  0
  7  8  2  0  0  0
  7  9  1  0  0  0
  9 10  1  0  0  0
 10 11  1  0  0  0
 11 13  2  0  0  0
 11 12  1  0  0  0
 13 14  1  0  0  0
  6 15  1  0  0  0
  9 16  1  0  0  0
M  END
> <minimizedAffinity>
-6.06688

$$$$
2OXX_K22_A_501


 16 17  0  0  0  0  0  0  0  0999 V2000
   25.3648    4.7846   16.9179 Br  0  0  0  0  0  0  0  0  0  0  0  0
   24.0716    5.7921   17.8498 C   0  0  0  0  0  0  0  0  0  0  0  0
   23.6710    6.9228   17.1667 C   0  0  0  0  0  0  0  0  0  0  0  0
   24.3408    7.3455   15.4248 Br  0  0  0  0  0  0  0  0  0  0  0  0
   23.5335    5.5041   19.1269 C   0  0  0  0  0  0  0  0  0  0  0  0
   23.6920    4.5304   20.0443 N   0  0  0  0  0  0  0  0  0  0  0  0
   22.8822    4.7979   21.1090 C   0  0  0  0  0  0  0  0  0  0  0  0
   22.6826    3.9212   22.4968 S   0  0  0  0  0  0  0  0  0  0  0  0
   22.2131    5.9327   20.8853 N   0  0  0  0  0  0  0  0  0  0  0  0
   22.5919    6.3782   19.6931 C   0  0  0  0  0  0  0  0  0  0  0  0
   22.1996    7.5053   19.0151 C   0  0  0  0  0  0  0  0  0  0  0  0
   20.9233    8.7079   19.7544 Br  0  0  0  0  0  0  0  0  0  0  0  0
   22.7446    7.7386   17.7767 C   0  0  0  0  0  0  0  0  0  0  0  0
   22.1922    9.2623   16.8940 Br  0  0  0  0  0  0  0  0  0  0  0  0
   24.2924    3.7547   19.9603 H   0  0  0  0  0  0  0  0  0  0  0  0
   21.5627    6.3579   21.4898 H   0  0  0  0  0  0  0  0  0  0  0  0
  1  2  1  0  0  0
  2  3  2  0  0  0
  2  5  1  0  0  0
  3  4  1  0  0  0
  3 13  1  0  0  0
  5  6  1  0  0  0
  5 10  2  0  0  0
  6  7  1  0  0  0
  7  8  2  0  0  0
  7  9  1  0  0  0
  9 10  1  0  0  0
 10 11  1  0  0  0
 11 13  2  0  0  0
 11 12  1  0  0  0
 13 14  1  0  0  0
  6 15  1  0  0  0
  9 16  1  0  0  0
M  END
> <minimizedAffinity>
-5.69421

$$$$
