5E73_UO1_A_2001


 25 27  0  0  0  0  0  0  0  0999 V2000
  -30.9557  -10.6391    0.1222 N   0  0  0  0  0  0  0  0  0  0  0  0
  -32.0589  -10.4557    1.0450 C   0  0  0  0  0  0  0  0  0  0  0  0
  -33.3832  -11.1605    0.8297 C   0  0  0  0  0  0  0  0  0  0  0  0
  -31.9263   -9.7270    2.0101 O   0  0  0  0  0  0  0  0  0  0  0  0
  -25.6094  -11.2044    0.8626 C   0  0  0  0  0  0  0  0  0  0  0  0
  -26.1522   -9.7809    0.8485 C   0  0  0  0  0  0  0  0  0  0  0  0
  -25.3845   -8.8454    0.9749 O   0  0  0  0  0  0  0  0  0  0  0  0
  -27.5638   -9.5683    0.6683 N   0  0  0  0  0  0  0  0  0  0  0  0
  -28.4661  -10.5564    0.4966 C   0  0  0  0  0  0  0  0  0  0  0  0
  -29.7113   -9.9539    0.3368 C   0  0  0  0  0  0  0  0  0  0  0  0
  -29.5346   -8.5299    0.4359 C   0  0  0  0  0  0  0  0  0  0  0  0
  -28.1775   -8.3324    0.6377 C   0  0  0  0  0  0  0  0  0  0  0  0
  -27.6602   -7.0101    0.7776 C   0  0  0  0  0  0  0  0  0  0  0  0
  -28.5244   -5.9148    0.7113 C   0  0  0  0  0  0  0  0  0  0  0  0
  -29.9005   -6.1155    0.5075 C   0  0  0  0  0  0  0  0  0  0  0  0
  -30.4139   -7.4112    0.3680 C   0  0  0  0  0  0  0  0  0  0  0  0
  -31.0803  -11.4726   -1.0411 C   0  0  0  0  0  0  0  0  0  0  0  0
  -31.5286  -10.8983   -2.2396 C   0  0  0  0  0  0  0  0  0  0  0  0
  -31.8922   -9.4266   -2.3076 C   0  0  0  0  0  0  0  0  0  0  0  0
  -31.6517  -11.7022   -3.3807 C   0  0  0  0  0  0  0  0  0  0  0  0
  -31.3208  -13.0565   -3.3199 C   0  0  0  0  0  0  0  0  0  0  0  0
  -30.8671  -13.6159   -2.1235 C   0  0  0  0  0  0  0  0  0  0  0  0
  -30.7418  -12.8212   -0.9780 C   0  0  0  0  0  0  0  0  0  0  0  0
  -30.5339  -14.9880   -2.0718 O   0  0  0  0  0  0  0  0  0  0  0  0
  -30.6179  -15.5197   -2.8388 H   0  0  0  0  0  0  0  0  0  0  0  0
  3  2  1  0  0  0
  4  2  2  0  0  0
  2  1  1  0  0  0
 19 18  1  0  0  0
  1 17  1  0  0  0
  1 10  1  0  0  0
 18 20  2  0  0  0
 18 17  1  0  0  0
 20 21  1  0  0  0
 17 23  2  0  0  0
 10  9  2  0  0  0
 10 11  1  0  0  0
  9  8  1  0  0  0
 11 16  2  0  0  0
 11 12  1  0  0  0
 16 15  1  0  0  0
  8 12  1  0  0  0
  8  6  1  0  0  0
 21 22  2  0  0  0
 23 22  1  0  0  0
  5  6  1  0  0  0
 12 13  2  0  0  0
 15 14  2  0  0  0
  6  7  2  0  0  0
 22 24  1  0  0  0
 13 14  1  0  0  0
 24 25  1  0  0  0
M  END
> <minimizedAffinity>
-7.87828

$$$$
5E73_UO1_A_2001


 25 27  0  0  0  0  0  0  0  0999 V2000
  -30.7329   -9.8501   -0.8944 N   0  0  0  0  0  0  0  0  0  0  0  0
  -31.1460   -9.2928   -2.1676 C   0  0  0  0  0  0  0  0  0  0  0  0
  -32.4367   -9.7304   -2.8304 C   0  0  0  0  0  0  0  0  0  0  0  0
  -30.4512   -8.4594   -2.7178 O   0  0  0  0  0  0  0  0  0  0  0  0
  -25.7041  -11.3359    0.5032 C   0  0  0  0  0  0  0  0  0  0  0  0
  -26.1090   -9.9029    0.8245 C   0  0  0  0  0  0  0  0  0  0  0  0
  -25.3034   -9.1549    1.3460 O   0  0  0  0  0  0  0  0  0  0  0  0
  -27.4344   -9.4545    0.4887 N   0  0  0  0  0  0  0  0  0  0  0  0
  -28.3672  -10.2212   -0.1131 C   0  0  0  0  0  0  0  0  0  0  0  0
  -29.5005   -9.4309   -0.2868 C   0  0  0  0  0  0  0  0  0  0  0  0
  -29.2247   -8.1286    0.2581 C   0  0  0  0  0  0  0  0  0  0  0  0
  -27.9215   -8.1853    0.7272 C   0  0  0  0  0  0  0  0  0  0  0  0
  -27.3298   -7.0384    1.3356 C   0  0  0  0  0  0  0  0  0  0  0  0
  -28.0668   -5.8583    1.4581 C   0  0  0  0  0  0  0  0  0  0  0  0
  -29.3884   -5.8014    0.9831 C   0  0  0  0  0  0  0  0  0  0  0  0
  -29.9741   -6.9237    0.3835 C   0  0  0  0  0  0  0  0  0  0  0  0
  -31.5138  -10.8527   -0.2247 C   0  0  0  0  0  0  0  0  0  0  0  0
  -31.4239  -12.1827   -0.6606 C   0  0  0  0  0  0  0  0  0  0  0  0
  -30.5314  -12.5589   -1.8287 C   0  0  0  0  0  0  0  0  0  0  0  0
  -32.1800  -13.1687   -0.0127 C   0  0  0  0  0  0  0  0  0  0  0  0
  -33.0038  -12.8248    1.0599 C   0  0  0  0  0  0  0  0  0  0  0  0
  -33.0790  -11.4987    1.4910 C   0  0  0  0  0  0  0  0  0  0  0  0
  -32.3284  -10.5065    0.8496 C   0  0  0  0  0  0  0  0  0  0  0  0
  -33.9155  -11.1602    2.5783 O   0  0  0  0  0  0  0  0  0  0  0  0
  -34.4178  -11.8246    3.0074 H   0  0  0  0  0  0  0  0  0  0  0  0
  3  2  1  0  0  0
  4  2  2  0  0  0
  2  1  1  0  0  0
 19 18  1  0  0  0
  1 17  1  0  0  0
  1 10  1  0  0  0
 18 20  2  0  0  0
 18 17  1  0  0  0
 20 21  1  0  0  0
 17 23  2  0  0  0
 10  9  2  0  0  0
 10 11  1  0  0  0
  9  8  1  0  0  0
 11 16  2  0  0  0
 11 12  1  0  0  0
 16 15  1  0  0  0
  8 12  1  0  0  0
  8  6  1  0  0  0
 21 22  2  0  0  0
 23 22  1  0  0  0
  5  6  1  0  0  0
 12 13  2  0  0  0
 15 14  2  0  0  0
  6  7  2  0  0  0
 22 24  1  0  0  0
 13 14  1  0  0  0
 24 25  1  0  0  0
M  END
> <minimizedAffinity>
-7.74415

$$$$
5E73_UO1_A_2001


 25 27  0  0  0  0  0  0  0  0999 V2000
  -30.6175   -9.8094   -1.0233 N   0  0  0  0  0  0  0  0  0  0  0  0
  -31.0806   -9.1222   -2.2131 C   0  0  0  0  0  0  0  0  0  0  0  0
  -32.3626   -9.5376   -2.9065 C   0  0  0  0  0  0  0  0  0  0  0  0
  -30.4357   -8.1958   -2.6669 O   0  0  0  0  0  0  0  0  0  0  0  0
  -25.6211  -11.3476    0.4327 C   0  0  0  0  0  0  0  0  0  0  0  0
  -26.0250   -9.9191    0.7749 C   0  0  0  0  0  0  0  0  0  0  0  0
  -25.2251   -9.1855    1.3251 O   0  0  0  0  0  0  0  0  0  0  0  0
  -27.3421   -9.4576    0.4249 N   0  0  0  0  0  0  0  0  0  0  0  0
  -28.2677  -10.2077   -0.2081 C   0  0  0  0  0  0  0  0  0  0  0  0
  -29.3941   -9.4084   -0.3860 C   0  0  0  0  0  0  0  0  0  0  0  0
  -29.1219   -8.1185    0.1892 C   0  0  0  0  0  0  0  0  0  0  0  0
  -27.8274   -8.1909    0.6798 C   0  0  0  0  0  0  0  0  0  0  0  0
  -27.2412   -7.0591    1.3209 C   0  0  0  0  0  0  0  0  0  0  0  0
  -27.9747   -5.8779    1.4537 C   0  0  0  0  0  0  0  0  0  0  0  0
  -29.2875   -5.8051    0.9568 C   0  0  0  0  0  0  0  0  0  0  0  0
  -29.8677   -6.9124    0.3251 C   0  0  0  0  0  0  0  0  0  0  0  0
  -31.3383  -10.9222   -0.4704 C   0  0  0  0  0  0  0  0  0  0  0  0
  -32.1484  -10.7113    0.6550 C   0  0  0  0  0  0  0  0  0  0  0  0
  -32.2526   -9.3374    1.2908 C   0  0  0  0  0  0  0  0  0  0  0  0
  -32.8573  -11.7897    1.2008 C   0  0  0  0  0  0  0  0  0  0  0  0
  -32.7608  -13.0548    0.6197 C   0  0  0  0  0  0  0  0  0  0  0  0
  -31.9580  -13.2515   -0.5059 C   0  0  0  0  0  0  0  0  0  0  0  0
  -31.2452  -12.1807   -1.0578 C   0  0  0  0  0  0  0  0  0  0  0  0
  -31.8671  -14.5358   -1.0877 O   0  0  0  0  0  0  0  0  0  0  0  0
  -32.3444  -15.2525   -0.7181 H   0  0  0  0  0  0  0  0  0  0  0  0
  3  2  1  0  0  0
  4  2  2  0  0  0
  2  1  1  0  0  0
 19 18  1  0  0  0
  1 17  1  0  0  0
  1 10  1  0  0  0
 18 20  2  0  0  0
 18 17  1  0  0  0
 20 21  1  0  0  0
 17 23  2  0  0  0
 10  9  2  0  0  0
 10 11  1  0  0  0
  9  8  1  0  0  0
 11 16  2  0  0  0
 11 12  1  0  0  0
 16 15  1  0  0  0
  8 12  1  0  0  0
  8  6  1  0  0  0
 21 22  2  0  0  0
 23 22  1  0  0  0
  5  6  1  0  0  0
 12 13  2  0  0  0
 15 14  2  0  0  0
  6  7  2  0  0  0
 22 24  1  0  0  0
 13 14  1  0  0  0
 24 25  1  0  0  0
M  END
> <minimizedAffinity>
-7.71456

$$$$
5E73_UO1_A_2001


 25 27  0  0  0  0  0  0  0  0999 V2000
  -30.4837  -10.4242   -0.0528 N   0  0  0  0  0  0  0  0  0  0  0  0
  -31.0542  -11.3548    0.9016 C   0  0  0  0  0  0  0  0  0  0  0  0
  -32.3803  -12.0369    0.6310 C   0  0  0  0  0  0  0  0  0  0  0  0
  -30.4643  -11.5976    1.9374 O   0  0  0  0  0  0  0  0  0  0  0  0
  -25.1284  -11.1056    0.5010 C   0  0  0  0  0  0  0  0  0  0  0  0
  -25.6616   -9.6905    0.6861 C   0  0  0  0  0  0  0  0  0  0  0  0
  -24.8852   -8.7833    0.9201 O   0  0  0  0  0  0  0  0  0  0  0  0
  -27.0749   -9.4499    0.5635 N   0  0  0  0  0  0  0  0  0  0  0  0
  -27.9870  -10.4026    0.2802 C   0  0  0  0  0  0  0  0  0  0  0  0
  -29.2309   -9.7789    0.2261 C   0  0  0  0  0  0  0  0  0  0  0  0
  -29.0426   -8.3814    0.5094 C   0  0  0  0  0  0  0  0  0  0  0  0
  -27.6805   -8.2181    0.7088 C   0  0  0  0  0  0  0  0  0  0  0  0
  -27.1516   -6.9283    1.0124 C   0  0  0  0  0  0  0  0  0  0  0  0
  -28.0094   -5.8302    1.1088 C   0  0  0  0  0  0  0  0  0  0  0  0
  -29.3905   -5.9962    0.9072 C   0  0  0  0  0  0  0  0  0  0  0  0
  -29.9153   -7.2598    0.6075 C   0  0  0  0  0  0  0  0  0  0  0  0
  -31.1605  -10.0938   -1.2761 C   0  0  0  0  0  0  0  0  0  0  0  0
  -30.8518  -10.8182   -2.4367 C   0  0  0  0  0  0  0  0  0  0  0  0
  -29.8106  -11.9218   -2.4098 C   0  0  0  0  0  0  0  0  0  0  0  0
  -31.5079  -10.5052   -3.6346 C   0  0  0  0  0  0  0  0  0  0  0  0
  -32.4636   -9.4888   -3.6626 C   0  0  0  0  0  0  0  0  0  0  0  0
  -32.7693   -8.7797   -2.4990 C   0  0  0  0  0  0  0  0  0  0  0  0
  -32.1187   -9.0843   -1.2977 C   0  0  0  0  0  0  0  0  0  0  0  0
  -33.7389   -7.7526   -2.5370 O   0  0  0  0  0  0  0  0  0  0  0  0
  -34.1743   -7.5489   -3.3413 H   0  0  0  0  0  0  0  0  0  0  0  0
  3  2  1  0  0  0
  4  2  2  0  0  0
  2  1  1  0  0  0
 19 18  1  0  0  0
  1 17  1  0  0  0
  1 10  1  0  0  0
 18 20  2  0  0  0
 18 17  1  0  0  0
 20 21  1  0  0  0
 17 23  2  0  0  0
 10  9  2  0  0  0
 10 11  1  0  0  0
  9  8  1  0  0  0
 11 16  2  0  0  0
 11 12  1  0  0  0
 16 15  1  0  0  0
  8 12  1  0  0  0
  8  6  1  0  0  0
 21 22  2  0  0  0
 23 22  1  0  0  0
  5  6  1  0  0  0
 12 13  2  0  0  0
 15 14  2  0  0  0
  6  7  2  0  0  0
 22 24  1  0  0  0
 13 14  1  0  0  0
 24 25  1  0  0  0
M  END
> <minimizedAffinity>
-7.57262

$$$$
5E73_UO1_A_2001


 25 27  0  0  0  0  0  0  0  0999 V2000
  -31.3685  -10.5814    0.3428 N   0  0  0  0  0  0  0  0  0  0  0  0
  -32.3498  -10.8435    1.3776 C   0  0  0  0  0  0  0  0  0  0  0  0
  -33.3490  -11.9746    1.2386 C   0  0  0  0  0  0  0  0  0  0  0  0
  -32.3767  -10.1495    2.3763 O   0  0  0  0  0  0  0  0  0  0  0  0
  -30.7980   -5.2029    0.7851 C   0  0  0  0  0  0  0  0  0  0  0  0
  -29.5205   -6.0322    0.8190 C   0  0  0  0  0  0  0  0  0  0  0  0
  -28.4484   -5.4758    0.9658 O   0  0  0  0  0  0  0  0  0  0  0  0
  -29.6074   -7.4630    0.6938 N   0  0  0  0  0  0  0  0  0  0  0  0
  -30.7627   -8.1457    0.5551 C   0  0  0  0  0  0  0  0  0  0  0  0
  -30.4365   -9.4978    0.4873 C   0  0  0  0  0  0  0  0  0  0  0  0
  -29.0058   -9.6171    0.5753 C   0  0  0  0  0  0  0  0  0  0  0  0
  -28.5278   -8.3228    0.7087 C   0  0  0  0  0  0  0  0  0  0  0  0
  -27.1255   -8.0866    0.8244 C   0  0  0  0  0  0  0  0  0  0  0  0
  -26.2351   -9.1625    0.8025 C   0  0  0  0  0  0  0  0  0  0  0  0
  -26.7201  -10.4747    0.6665 C   0  0  0  0  0  0  0  0  0  0  0  0
  -28.0957  -10.7128    0.5540 C   0  0  0  0  0  0  0  0  0  0  0  0
  -31.3196  -11.3635   -0.8611 C   0  0  0  0  0  0  0  0  0  0  0  0
  -31.8894  -10.8403   -2.0310 C   0  0  0  0  0  0  0  0  0  0  0  0
  -32.5611   -9.4796   -2.0267 C   0  0  0  0  0  0  0  0  0  0  0  0
  -31.8451  -11.5943   -3.2113 C   0  0  0  0  0  0  0  0  0  0  0  0
  -31.2306  -12.8472   -3.2171 C   0  0  0  0  0  0  0  0  0  0  0  0
  -30.6588  -13.3546   -2.0484 C   0  0  0  0  0  0  0  0  0  0  0  0
  -30.6989  -12.6094   -0.8642 C   0  0  0  0  0  0  0  0  0  0  0  0
  -30.0382  -14.6239   -2.0642 O   0  0  0  0  0  0  0  0  0  0  0  0
  -30.0116  -15.1225   -2.8571 H   0  0  0  0  0  0  0  0  0  0  0  0
  3  2  1  0  0  0
  4  2  2  0  0  0
  2  1  1  0  0  0
 19 18  1  0  0  0
  1 17  1  0  0  0
  1 10  1  0  0  0
 18 20  2  0  0  0
 18 17  1  0  0  0
 20 21  1  0  0  0
 17 23  2  0  0  0
 10  9  2  0  0  0
 10 11  1  0  0  0
  9  8  1  0  0  0
 11 16  2  0  0  0
 11 12  1  0  0  0
 16 15  1  0  0  0
  8 12  1  0  0  0
  8  6  1  0  0  0
 21 22  2  0  0  0
 23 22  1  0  0  0
  5  6  1  0  0  0
 12 13  2  0  0  0
 15 14  2  0  0  0
  6  7  2  0  0  0
 22 24  1  0  0  0
 13 14  1  0  0  0
 24 25  1  0  0  0
M  END
> <minimizedAffinity>
-7.41378

$$$$
5E73_UO1_A_2001


 25 27  0  0  0  0  0  0  0  0999 V2000
  -30.9444  -10.3432   -0.2327 N   0  0  0  0  0  0  0  0  0  0  0  0
  -31.2428  -11.4210    0.6901 C   0  0  0  0  0  0  0  0  0  0  0  0
  -32.1977  -12.5344    0.3088 C   0  0  0  0  0  0  0  0  0  0  0  0
  -30.7213  -11.4390    1.7890 O   0  0  0  0  0  0  0  0  0  0  0  0
  -30.4841   -5.0712    0.9687 C   0  0  0  0  0  0  0  0  0  0  0  0
  -29.2081   -5.9013    1.0290 C   0  0  0  0  0  0  0  0  0  0  0  0
  -28.1638   -5.3720    1.3604 O   0  0  0  0  0  0  0  0  0  0  0  0
  -29.2652   -7.3029    0.7088 N   0  0  0  0  0  0  0  0  0  0  0  0
  -30.3917   -7.9583    0.3600 C   0  0  0  0  0  0  0  0  0  0  0  0
  -30.0450   -9.2906    0.1506 C   0  0  0  0  0  0  0  0  0  0  0  0
  -28.6304   -9.4245    0.3735 C   0  0  0  0  0  0  0  0  0  0  0  0
  -28.1836   -8.1602    0.7253 C   0  0  0  0  0  0  0  0  0  0  0  0
  -26.8042   -7.9452    1.0192 C   0  0  0  0  0  0  0  0  0  0  0  0
  -25.9044   -9.0113    0.9511 C   0  0  0  0  0  0  0  0  0  0  0  0
  -26.3576  -10.2929    0.5936 C   0  0  0  0  0  0  0  0  0  0  0  0
  -27.7109  -10.5103    0.3055 C   0  0  0  0  0  0  0  0  0  0  0  0
  -31.5574  -10.2740   -1.5300 C   0  0  0  0  0  0  0  0  0  0  0  0
  -30.9459  -10.9383   -2.6033 C   0  0  0  0  0  0  0  0  0  0  0  0
  -29.6511  -11.7046   -2.4065 C   0  0  0  0  0  0  0  0  0  0  0  0
  -31.5370  -10.8787   -3.8724 C   0  0  0  0  0  0  0  0  0  0  0  0
  -32.7262  -10.1721   -4.0565 C   0  0  0  0  0  0  0  0  0  0  0  0
  -33.3310   -9.5216   -2.9789 C   0  0  0  0  0  0  0  0  0  0  0  0
  -32.7477   -9.5745   -1.7076 C   0  0  0  0  0  0  0  0  0  0  0  0
  -34.5353   -8.8092   -3.1750 O   0  0  0  0  0  0  0  0  0  0  0  0
  -34.9255   -8.7740   -4.0261 H   0  0  0  0  0  0  0  0  0  0  0  0
  3  2  1  0  0  0
  4  2  2  0  0  0
  2  1  1  0  0  0
 19 18  1  0  0  0
  1 17  1  0  0  0
  1 10  1  0  0  0
 18 20  2  0  0  0
 18 17  1  0  0  0
 20 21  1  0  0  0
 17 23  2  0  0  0
 10  9  2  0  0  0
 10 11  1  0  0  0
  9  8  1  0  0  0
 11 16  2  0  0  0
 11 12  1  0  0  0
 16 15  1  0  0  0
  8 12  1  0  0  0
  8  6  1  0  0  0
 21 22  2  0  0  0
 23 22  1  0  0  0
  5  6  1  0  0  0
 12 13  2  0  0  0
 15 14  2  0  0  0
  6  7  2  0  0  0
 22 24  1  0  0  0
 13 14  1  0  0  0
 24 25  1  0  0  0
M  END
> <minimizedAffinity>
-7.10151

$$$$
5E73_UO1_A_2001


 25 27  0  0  0  0  0  0  0  0999 V2000
  -30.9705   -9.7559   -1.6224 N   0  0  0  0  0  0  0  0  0  0  0  0
  -31.4405   -9.2349   -2.8912 C   0  0  0  0  0  0  0  0  0  0  0  0
  -32.2673  -10.0910   -3.8295 C   0  0  0  0  0  0  0  0  0  0  0  0
  -31.1718   -8.0931   -3.2138 O   0  0  0  0  0  0  0  0  0  0  0  0
  -30.6339   -4.9806    0.9338 C   0  0  0  0  0  0  0  0  0  0  0  0
  -29.4796   -5.9525    1.1434 C   0  0  0  0  0  0  0  0  0  0  0  0
  -28.5601   -5.6418    1.8772 O   0  0  0  0  0  0  0  0  0  0  0  0
  -29.5068   -7.2299    0.4815 N   0  0  0  0  0  0  0  0  0  0  0  0
  -30.5054   -7.6486   -0.3231 C   0  0  0  0  0  0  0  0  0  0  0  0
  -30.1785   -8.9329   -0.7510 C   0  0  0  0  0  0  0  0  0  0  0  0
  -28.9069   -9.2845   -0.1781 C   0  0  0  0  0  0  0  0  0  0  0  0
  -28.5255   -8.1946    0.5889 C   0  0  0  0  0  0  0  0  0  0  0  0
  -27.2915   -8.2203    1.3045 C   0  0  0  0  0  0  0  0  0  0  0  0
  -26.4679   -9.3460    1.2300 C   0  0  0  0  0  0  0  0  0  0  0  0
  -26.8546  -10.4506    0.4516 C   0  0  0  0  0  0  0  0  0  0  0  0
  -28.0657  -10.4317   -0.2518 C   0  0  0  0  0  0  0  0  0  0  0  0
  -31.2470  -11.1057   -1.2160 C   0  0  0  0  0  0  0  0  0  0  0  0
  -32.2300  -11.3305   -0.2413 C   0  0  0  0  0  0  0  0  0  0  0  0
  -32.9799  -10.1710    0.3878 C   0  0  0  0  0  0  0  0  0  0  0  0
  -32.5088  -12.6437    0.1606 C   0  0  0  0  0  0  0  0  0  0  0  0
  -31.8185  -13.7115   -0.4143 C   0  0  0  0  0  0  0  0  0  0  0  0
  -30.8477  -13.4766   -1.3903 C   0  0  0  0  0  0  0  0  0  0  0  0
  -30.5614  -12.1683   -1.7976 C   0  0  0  0  0  0  0  0  0  0  0  0
  -30.1544  -14.5642   -1.9671 O   0  0  0  0  0  0  0  0  0  0  0  0
  -30.3463  -15.4398   -1.6943 H   0  0  0  0  0  0  0  0  0  0  0  0
  3  2  1  0  0  0
  4  2  2  0  0  0
  2  1  1  0  0  0
 19 18  1  0  0  0
  1 17  1  0  0  0
  1 10  1  0  0  0
 18 20  2  0  0  0
 18 17  1  0  0  0
 20 21  1  0  0  0
 17 23  2  0  0  0
 10  9  2  0  0  0
 10 11  1  0  0  0
  9  8  1  0  0  0
 11 16  2  0  0  0
 11 12  1  0  0  0
 16 15  1  0  0  0
  8 12  1  0  0  0
  8  6  1  0  0  0
 21 22  2  0  0  0
 23 22  1  0  0  0
  5  6  1  0  0  0
 12 13  2  0  0  0
 15 14  2  0  0  0
  6  7  2  0  0  0
 22 24  1  0  0  0
 13 14  1  0  0  0
 24 25  1  0  0  0
M  END
> <minimizedAffinity>
-6.97877

$$$$
5E73_UO1_A_2001


 25 27  0  0  0  0  0  0  0  0999 V2000
  -31.3439   -9.3734   -0.7110 N   0  0  0  0  0  0  0  0  0  0  0  0
  -31.4949   -9.3498   -2.1528 C   0  0  0  0  0  0  0  0  0  0  0  0
  -32.5401  -10.2030   -2.8432 C   0  0  0  0  0  0  0  0  0  0  0  0
  -30.7757   -8.6355   -2.8254 O   0  0  0  0  0  0  0  0  0  0  0  0
  -30.1750   -4.4886    1.3439 C   0  0  0  0  0  0  0  0  0  0  0  0
  -29.0737   -5.5393    1.4064 C   0  0  0  0  0  0  0  0  0  0  0  0
  -28.0083   -5.2609    1.9241 O   0  0  0  0  0  0  0  0  0  0  0  0
  -29.3206   -6.8499    0.8662 N   0  0  0  0  0  0  0  0  0  0  0  0
  -30.4849   -7.2336    0.3030 C   0  0  0  0  0  0  0  0  0  0  0  0
  -30.3400   -8.5659   -0.0753 C   0  0  0  0  0  0  0  0  0  0  0  0
  -29.0087   -8.9863    0.2706 C   0  0  0  0  0  0  0  0  0  0  0  0
  -28.4080   -7.8854    0.8611 C   0  0  0  0  0  0  0  0  0  0  0  0
  -27.0624   -7.9694    1.3278 C   0  0  0  0  0  0  0  0  0  0  0  0
  -26.3512   -9.1633    1.1879 C   0  0  0  0  0  0  0  0  0  0  0  0
  -26.9604  -10.2792    0.5884 C   0  0  0  0  0  0  0  0  0  0  0  0
  -28.2816  -10.2031    0.1298 C   0  0  0  0  0  0  0  0  0  0  0  0
  -32.1580  -10.2205    0.1156 C   0  0  0  0  0  0  0  0  0  0  0  0
  -31.8792  -11.5944    0.1574 C   0  0  0  0  0  0  0  0  0  0  0  0
  -30.7490  -12.1833   -0.6663 C   0  0  0  0  0  0  0  0  0  0  0  0
  -32.6661  -12.4290    0.9622 C   0  0  0  0  0  0  0  0  0  0  0  0
  -33.7079  -11.8903    1.7184 C   0  0  0  0  0  0  0  0  0  0  0  0
  -33.9710  -10.5195    1.6759 C   0  0  0  0  0  0  0  0  0  0  0  0
  -33.1912   -9.6778    0.8742 C   0  0  0  0  0  0  0  0  0  0  0  0
  -35.0276   -9.9832    2.4455 O   0  0  0  0  0  0  0  0  0  0  0  0
  -35.5494  -10.5469    2.9820 H   0  0  0  0  0  0  0  0  0  0  0  0
  3  2  1  0  0  0
  4  2  2  0  0  0
  2  1  1  0  0  0
 19 18  1  0  0  0
  1 17  1  0  0  0
  1 10  1  0  0  0
 18 20  2  0  0  0
 18 17  1  0  0  0
 20 21  1  0  0  0
 17 23  2  0  0  0
 10  9  2  0  0  0
 10 11  1  0  0  0
  9  8  1  0  0  0
 11 16  2  0  0  0
 11 12  1  0  0  0
 16 15  1  0  0  0
  8 12  1  0  0  0
  8  6  1  0  0  0
 21 22  2  0  0  0
 23 22  1  0  0  0
  5  6  1  0  0  0
 12 13  2  0  0  0
 15 14  2  0  0  0
  6  7  2  0  0  0
 22 24  1  0  0  0
 13 14  1  0  0  0
 24 25  1  0  0  0
M  END
> <minimizedAffinity>
-6.63707

$$$$
5E73_UO1_A_2001


 25 27  0  0  0  0  0  0  0  0999 V2000
  -33.1322  -12.0393   -1.8177 N   0  0  0  0  0  0  0  0  0  0  0  0
  -34.0404  -11.5610   -2.8417 C   0  0  0  0  0  0  0  0  0  0  0  0
  -33.6292  -10.4600   -3.7986 C   0  0  0  0  0  0  0  0  0  0  0  0
  -35.1511  -12.0472   -2.9411 O   0  0  0  0  0  0  0  0  0  0  0  0
  -35.3470  -13.1390    3.0130 C   0  0  0  0  0  0  0  0  0  0  0  0
  -34.9565  -14.3328    2.1509 C   0  0  0  0  0  0  0  0  0  0  0  0
  -35.1728  -15.4601    2.5546 O   0  0  0  0  0  0  0  0  0  0  0  0
  -34.3534  -14.1041    0.8646 N   0  0  0  0  0  0  0  0  0  0  0  0
  -34.1097  -12.8832    0.3451 C   0  0  0  0  0  0  0  0  0  0  0  0
  -33.5438  -13.0763   -0.9126 C   0  0  0  0  0  0  0  0  0  0  0  0
  -33.4335  -14.4922   -1.1402 C   0  0  0  0  0  0  0  0  0  0  0  0
  -33.9556  -15.0972   -0.0075 C   0  0  0  0  0  0  0  0  0  0  0  0
  -33.9972  -16.5200    0.0887 C   0  0  0  0  0  0  0  0  0  0  0  0
  -33.5102  -17.3024   -0.9609 C   0  0  0  0  0  0  0  0  0  0  0  0
  -32.9802  -16.6887   -2.1089 C   0  0  0  0  0  0  0  0  0  0  0  0
  -32.9381  -15.2923   -2.2096 C   0  0  0  0  0  0  0  0  0  0  0  0
  -31.8214  -11.4751   -1.6533 C   0  0  0  0  0  0  0  0  0  0  0  0
  -31.6852  -10.2799   -0.9322 C   0  0  0  0  0  0  0  0  0  0  0  0
  -32.8996   -9.5826   -0.3475 C   0  0  0  0  0  0  0  0  0  0  0  0
  -30.4107   -9.7224   -0.7643 C   0  0  0  0  0  0  0  0  0  0  0  0
  -29.2928  -10.3602   -1.3036 C   0  0  0  0  0  0  0  0  0  0  0  0
  -29.4391  -11.5544   -2.0124 C   0  0  0  0  0  0  0  0  0  0  0  0
  -30.7082  -12.1187   -2.1863 C   0  0  0  0  0  0  0  0  0  0  0  0
  -28.3012  -12.1932   -2.5543 O   0  0  0  0  0  0  0  0  0  0  0  0
  -27.4518  -11.8153   -2.4377 H   0  0  0  0  0  0  0  0  0  0  0  0
  3  2  1  0  0  0
  4  2  2  0  0  0
  2  1  1  0  0  0
 19 18  1  0  0  0
  1 17  1  0  0  0
  1 10  1  0  0  0
 18 20  2  0  0  0
 18 17  1  0  0  0
 20 21  1  0  0  0
 17 23  2  0  0  0
 10  9  2  0  0  0
 10 11  1  0  0  0
  9  8  1  0  0  0
 11 16  2  0  0  0
 11 12  1  0  0  0
 16 15  1  0  0  0
  8 12  1  0  0  0
  8  6  1  0  0  0
 21 22  2  0  0  0
 23 22  1  0  0  0
  5  6  1  0  0  0
 12 13  2  0  0  0
 15 14  2  0  0  0
  6  7  2  0  0  0
 22 24  1  0  0  0
 13 14  1  0  0  0
 24 25  1  0  0  0
M  END
> <minimizedAffinity>
-6.44199

$$$$
5E73_UO1_A_2001


 25 27  0  0  0  0  0  0  0  0999 V2000
  -32.0584   -8.4503    0.2844 N   0  0  0  0  0  0  0  0  0  0  0  0
  -32.5906   -9.2761    1.3508 C   0  0  0  0  0  0  0  0  0  0  0  0
  -33.6033  -10.3664    1.0637 C   0  0  0  0  0  0  0  0  0  0  0  0
  -32.2220   -9.0975    2.4963 O   0  0  0  0  0  0  0  0  0  0  0  0
  -31.4021   -3.2557    1.7111 C   0  0  0  0  0  0  0  0  0  0  0  0
  -30.1343   -4.0762    1.5099 C   0  0  0  0  0  0  0  0  0  0  0  0
  -29.0492   -3.5581    1.6961 O   0  0  0  0  0  0  0  0  0  0  0  0
  -30.2446   -5.4566    1.1191 N   0  0  0  0  0  0  0  0  0  0  0  0
  -31.4137   -6.1002    0.9215 C   0  0  0  0  0  0  0  0  0  0  0  0
  -31.1073   -7.4143    0.5774 C   0  0  0  0  0  0  0  0  0  0  0  0
  -29.6754   -7.5482    0.5557 C   0  0  0  0  0  0  0  0  0  0  0  0
  -29.1758   -6.3033    0.9052 C   0  0  0  0  0  0  0  0  0  0  0  0
  -27.7665   -6.0936    0.9802 C   0  0  0  0  0  0  0  0  0  0  0  0
  -26.8912   -7.1454    0.7003 C   0  0  0  0  0  0  0  0  0  0  0  0
  -27.3981   -8.4073    0.3453 C   0  0  0  0  0  0  0  0  0  0  0  0
  -28.7806   -8.6196    0.2714 C   0  0  0  0  0  0  0  0  0  0  0  0
  -32.4857   -8.6147   -1.0772 C   0  0  0  0  0  0  0  0  0  0  0  0
  -33.6616   -7.9768   -1.4987 C   0  0  0  0  0  0  0  0  0  0  0  0
  -34.4802   -7.1398   -0.5334 C   0  0  0  0  0  0  0  0  0  0  0  0
  -34.0860   -8.1291   -2.8254 C   0  0  0  0  0  0  0  0  0  0  0  0
  -33.3365   -8.9008   -3.7143 C   0  0  0  0  0  0  0  0  0  0  0  0
  -32.1626   -9.5244   -3.2861 C   0  0  0  0  0  0  0  0  0  0  0  0
  -31.7310   -9.3791   -1.9625 C   0  0  0  0  0  0  0  0  0  0  0  0
  -31.4101  -10.3033   -4.1935 O   0  0  0  0  0  0  0  0  0  0  0  0
  -31.6993  -10.4004   -5.0794 H   0  0  0  0  0  0  0  0  0  0  0  0
  3  2  1  0  0  0
  4  2  2  0  0  0
  2  1  1  0  0  0
 19 18  1  0  0  0
  1 17  1  0  0  0
  1 10  1  0  0  0
 18 20  2  0  0  0
 18 17  1  0  0  0
 20 21  1  0  0  0
 17 23  2  0  0  0
 10  9  2  0  0  0
 10 11  1  0  0  0
  9  8  1  0  0  0
 11 16  2  0  0  0
 11 12  1  0  0  0
 16 15  1  0  0  0
  8 12  1  0  0  0
  8  6  1  0  0  0
 21 22  2  0  0  0
 23 22  1  0  0  0
  5  6  1  0  0  0
 12 13  2  0  0  0
 15 14  2  0  0  0
  6  7  2  0  0  0
 22 24  1  0  0  0
 13 14  1  0  0  0
 24 25  1  0  0  0
M  END
> <minimizedAffinity>
-6.20647

$$$$
