2X09_X09_A_1900


 18 19  0  0  0  0  0  0  0  0999 V2000
   48.9309   42.2434   73.8789 O   0  0  0  0  0  0  0  0  0  0  0  0
   49.1491   42.0497   72.4725 C   0  0  0  0  0  0  0  0  0  0  0  0
   49.6268   43.3118   71.7622 C   0  0  0  0  0  0  0  0  0  0  0  0
   48.6132   44.2993   71.6877 O   0  0  0  0  0  0  0  0  0  0  0  0
   49.8544   42.6909   70.3660 C   0  0  0  0  0  0  0  0  0  0  0  0
   50.7990   43.4409   69.3995 C   0  0  0  0  0  0  0  0  0  0  0  0
   51.6385   44.3717   70.0913 O   0  0  0  0  0  0  0  0  0  0  0  0
   51.6499   42.3116   68.8501 C   0  0  0  0  0  0  0  0  0  0  0  0
   51.8721   41.4837   70.1131 C   0  0  0  0  0  0  0  0  0  0  0  0
   50.5221   41.3900   70.6710 N   0  0  0  0  0  0  0  0  0  0  0  0
   50.4392   41.2470   72.1551 C   0  0  0  0  0  0  0  0  0  0  0  0
   48.1139   42.7489   74.0128 H   0  0  0  0  0  0  0  0  0  0  0  0
   47.8210   43.9192   71.2768 H   0  0  0  0  0  0  0  0  0  0  0  0
   52.1444   43.9048   70.7747 H   0  0  0  0  0  0  0  0  0  0  0  0
   50.3739   39.7647   72.4699 C   0  0  0  0  0  0  0  0  0  0  0  0
   49.3018   39.4337   73.3927 N   0  0  0  0  0  0  0  0  0  0  0  0
   49.4566   39.9128   74.2797 H   0  0  0  0  0  0  0  0  0  0  0  0
   49.2865   38.4259   73.5487 H   0  0  0  0  0  0  0  0  0  0  0  0
  1  2  1  0  0  0
  2  3  1  0  0  0
  2 11  1  0  0  0
  3  4  1  0  0  0
  3  5  1  0  0  0
  5  6  1  0  0  0
  5 10  1  0  0  0
  6  7  1  0  0  0
  6  8  1  0  0  0
  8  9  1  0  0  0
  9 10  1  0  0  0
 10 11  1  0  0  0
 11 15  1  0  0  0
 15 16  1  0  0  0
  1 12  1  0  0  0
  4 13  1  0  0  0
  7 14  1  0  0  0
 16 17  1  0  0  0
 16 18  1  0  0  0
M  END
> <minimizedAffinity>
-6.25639

$$$$
2X09_X09_A_1900


 18 19  0  0  0  0  0  0  0  0999 V2000
   49.9438   39.5901   72.5073 O   0  0  0  0  0  0  0  0  0  0  0  0
   50.6465   40.7889   72.1435 C   0  0  0  0  0  0  0  0  0  0  0  0
   51.3625   40.6784   70.8016 C   0  0  0  0  0  0  0  0  0  0  0  0
   52.4663   39.7913   70.8562 O   0  0  0  0  0  0  0  0  0  0  0  0
   51.8677   42.1358   70.7150 C   0  0  0  0  0  0  0  0  0  0  0  0
   52.2409   42.6772   69.3163 C   0  0  0  0  0  0  0  0  0  0  0  0
   51.6707   41.8845   68.2693 O   0  0  0  0  0  0  0  0  0  0  0  0
   51.5853   44.0452   69.3223 C   0  0  0  0  0  0  0  0  0  0  0  0
   50.2617   43.7224   70.0107 C   0  0  0  0  0  0  0  0  0  0  0  0
   50.6914   42.9368   71.1687 N   0  0  0  0  0  0  0  0  0  0  0  0
   49.7084   41.9339   71.6763 C   0  0  0  0  0  0  0  0  0  0  0  0
   50.5807   38.9149   72.7890 H   0  0  0  0  0  0  0  0  0  0  0  0
   53.0614   40.0595   71.5737 H   0  0  0  0  0  0  0  0  0  0  0  0
   50.7076   41.8481   68.3792 H   0  0  0  0  0  0  0  0  0  0  0  0
   48.9009   42.5988   72.7747 C   0  0  0  0  0  0  0  0  0  0  0  0
   48.9289   41.8534   74.0214 N   0  0  0  0  0  0  0  0  0  0  0  0
   48.5177   40.9315   73.8756 H   0  0  0  0  0  0  0  0  0  0  0  0
   48.3945   42.3559   74.7301 H   0  0  0  0  0  0  0  0  0  0  0  0
  1  2  1  0  0  0
  2  3  1  0  0  0
  2 11  1  0  0  0
  3  4  1  0  0  0
  3  5  1  0  0  0
  5  6  1  0  0  0
  5 10  1  0  0  0
  6  7  1  0  0  0
  6  8  1  0  0  0
  8  9  1  0  0  0
  9 10  1  0  0  0
 10 11  1  0  0  0
 11 15  1  0  0  0
 15 16  1  0  0  0
  1 12  1  0  0  0
  4 13  1  0  0  0
  7 14  1  0  0  0
 16 17  1  0  0  0
 16 18  1  0  0  0
M  END
> <minimizedAffinity>
-5.99521

$$$$
2X09_X09_A_1900


 18 19  0  0  0  0  0  0  0  0999 V2000
   48.7182   44.0539   71.8450 O   0  0  0  0  0  0  0  0  0  0  0  0
   49.3903   42.9733   71.1789 C   0  0  0  0  0  0  0  0  0  0  0  0
   50.5910   43.4314   70.3581 C   0  0  0  0  0  0  0  0  0  0  0  0
   50.2051   44.1789   69.2177 O   0  0  0  0  0  0  0  0  0  0  0  0
   51.0901   42.0356   69.9230 C   0  0  0  0  0  0  0  0  0  0  0  0
   52.5637   41.9157   69.4725 C   0  0  0  0  0  0  0  0  0  0  0  0
   53.3490   43.0261   69.9199 O   0  0  0  0  0  0  0  0  0  0  0  0
   53.0136   40.6604   70.1959 C   0  0  0  0  0  0  0  0  0  0  0  0
   52.3361   40.8550   71.5498 C   0  0  0  0  0  0  0  0  0  0  0  0
   50.9709   41.2219   71.1700 N   0  0  0  0  0  0  0  0  0  0  0  0
   50.2378   42.0930   72.1361 C   0  0  0  0  0  0  0  0  0  0  0  0
   48.2077   44.5651   71.1977 H   0  0  0  0  0  0  0  0  0  0  0  0
   49.5712   43.6648   68.6935 H   0  0  0  0  0  0  0  0  0  0  0  0
   53.2883   43.0968   70.8855 H   0  0  0  0  0  0  0  0  0  0  0  0
   49.4433   41.1878   73.0579 C   0  0  0  0  0  0  0  0  0  0  0  0
   48.7729   41.9178   74.1202 N   0  0  0  0  0  0  0  0  0  0  0  0
   49.4677   42.3869   74.7013 H   0  0  0  0  0  0  0  0  0  0  0  0
   48.2344   41.2674   74.6924 H   0  0  0  0  0  0  0  0  0  0  0  0
  1  2  1  0  0  0
  2  3  1  0  0  0
  2 11  1  0  0  0
  3  4  1  0  0  0
  3  5  1  0  0  0
  5  6  1  0  0  0
  5 10  1  0  0  0
  6  7  1  0  0  0
  6  8  1  0  0  0
  8  9  1  0  0  0
  9 10  1  0  0  0
 10 11  1  0  0  0
 11 15  1  0  0  0
 15 16  1  0  0  0
  1 12  1  0  0  0
  4 13  1  0  0  0
  7 14  1  0  0  0
 16 17  1  0  0  0
 16 18  1  0  0  0
M  END
> <minimizedAffinity>
-5.86025

$$$$
2X09_X09_A_1900


 18 19  0  0  0  0  0  0  0  0999 V2000
   53.1662   39.1148   70.1869 O   0  0  0  0  0  0  0  0  0  0  0  0
   52.0569   39.9909   69.9318 C   0  0  0  0  0  0  0  0  0  0  0  0
   51.7488   40.9212   71.1001 C   0  0  0  0  0  0  0  0  0  0  0  0
   51.2187   40.2233   72.2137 O   0  0  0  0  0  0  0  0  0  0  0  0
   50.6324   41.7452   70.4208 C   0  0  0  0  0  0  0  0  0  0  0  0
   50.3156   43.1374   71.0125 C   0  0  0  0  0  0  0  0  0  0  0  0
   51.3816   43.6201   71.8374 O   0  0  0  0  0  0  0  0  0  0  0  0
   50.2193   43.9958   69.7655 C   0  0  0  0  0  0  0  0  0  0  0  0
   51.3789   43.4362   68.9457 C   0  0  0  0  0  0  0  0  0  0  0  0
   51.1703   41.9910   69.0492 N   0  0  0  0  0  0  0  0  0  0  0  0
   52.3986   41.1473   68.9544 C   0  0  0  0  0  0  0  0  0  0  0  0
   52.8918   38.4162   70.8014 H   0  0  0  0  0  0  0  0  0  0  0  0
   50.4452   39.7089   71.9346 H   0  0  0  0  0  0  0  0  0  0  0  0
   52.2035   43.6431   71.3229 H   0  0  0  0  0  0  0  0  0  0  0  0
   52.5648   40.7408   67.5026 C   0  0  0  0  0  0  0  0  0  0  0  0
   52.4833   39.3032   67.3095 N   0  0  0  0  0  0  0  0  0  0  0  0
   53.2351   38.8475   67.8269 H   0  0  0  0  0  0  0  0  0  0  0  0
   52.5747   39.0878   66.3167 H   0  0  0  0  0  0  0  0  0  0  0  0
  1  2  1  0  0  0
  2  3  1  0  0  0
  2 11  1  0  0  0
  3  4  1  0  0  0
  3  5  1  0  0  0
  5  6  1  0  0  0
  5 10  1  0  0  0
  6  7  1  0  0  0
  6  8  1  0  0  0
  8  9  1  0  0  0
  9 10  1  0  0  0
 10 11  1  0  0  0
 11 15  1  0  0  0
 15 16  1  0  0  0
  1 12  1  0  0  0
  4 13  1  0  0  0
  7 14  1  0  0  0
 16 17  1  0  0  0
 16 18  1  0  0  0
M  END
> <minimizedAffinity>
-5.57390

$$$$
2X09_X09_A_1900


 18 19  0  0  0  0  0  0  0  0999 V2000
   52.5346   43.5646   72.4369 O   0  0  0  0  0  0  0  0  0  0  0  0
   52.9496   43.0805   71.1498 C   0  0  0  0  0  0  0  0  0  0  0  0
   53.9075   41.8972   71.2366 C   0  0  0  0  0  0  0  0  0  0  0  0
   55.1764   42.2727   71.7435 O   0  0  0  0  0  0  0  0  0  0  0  0
   54.0153   41.6057   69.7232 C   0  0  0  0  0  0  0  0  0  0  0  0
   54.4868   40.1952   69.3024 C   0  0  0  0  0  0  0  0  0  0  0  0
   54.3538   39.2494   70.3689 O   0  0  0  0  0  0  0  0  0  0  0  0
   53.5029   39.8493   68.2008 C   0  0  0  0  0  0  0  0  0  0  0  0
   52.2076   40.3957   68.7954 C   0  0  0  0  0  0  0  0  0  0  0  0
   52.6053   41.7303   69.2461 N   0  0  0  0  0  0  0  0  0  0  0  0
   51.8463   42.2780   70.4096 C   0  0  0  0  0  0  0  0  0  0  0  0
   53.2631   44.0556   72.8480 H   0  0  0  0  0  0  0  0  0  0  0  0
   55.5338   43.0017   71.2127 H   0  0  0  0  0  0  0  0  0  0  0  0
   53.4319   39.2292   70.6700 H   0  0  0  0  0  0  0  0  0  0  0  0
   50.7005   43.1064   69.8606 C   0  0  0  0  0  0  0  0  0  0  0  0
   50.0308   43.8873   70.8864 N   0  0  0  0  0  0  0  0  0  0  0  0
   49.6285   43.2600   71.5828 H   0  0  0  0  0  0  0  0  0  0  0  0
   49.2891   44.4431   70.4605 H   0  0  0  0  0  0  0  0  0  0  0  0
  1  2  1  0  0  0
  2  3  1  0  0  0
  2 11  1  0  0  0
  3  4  1  0  0  0
  3  5  1  0  0  0
  5  6  1  0  0  0
  5 10  1  0  0  0
  6  7  1  0  0  0
  6  8  1  0  0  0
  8  9  1  0  0  0
  9 10  1  0  0  0
 10 11  1  0  0  0
 11 15  1  0  0  0
 15 16  1  0  0  0
  1 12  1  0  0  0
  4 13  1  0  0  0
  7 14  1  0  0  0
 16 17  1  0  0  0
 16 18  1  0  0  0
M  END
> <minimizedAffinity>
-5.38751

$$$$
2X09_X09_A_1900


 18 19  0  0  0  0  0  0  0  0999 V2000
   50.1331   40.9203   70.6141 O   0  0  0  0  0  0  0  0  0  0  0  0
   51.2585   41.6544   70.1062 C   0  0  0  0  0  0  0  0  0  0  0  0
   51.6211   42.8619   70.9641 C   0  0  0  0  0  0  0  0  0  0  0  0
   50.6445   43.8858   70.8858 O   0  0  0  0  0  0  0  0  0  0  0  0
   52.8899   43.2905   70.1939 C   0  0  0  0  0  0  0  0  0  0  0  0
   53.9096   44.1791   70.9418 C   0  0  0  0  0  0  0  0  0  0  0  0
   53.7227   44.1255   72.3602 O   0  0  0  0  0  0  0  0  0  0  0  0
   55.2268   43.5164   70.5850 C   0  0  0  0  0  0  0  0  0  0  0  0
   54.8388   42.0434   70.6825 C   0  0  0  0  0  0  0  0  0  0  0  0
   53.5859   41.9961   69.9272 N   0  0  0  0  0  0  0  0  0  0  0  0
   52.6159   40.9387   70.3402 C   0  0  0  0  0  0  0  0  0  0  0  0
   49.3180   41.4160   70.4388 H   0  0  0  0  0  0  0  0  0  0  0  0
   50.4968   44.1213   69.9565 H   0  0  0  0  0  0  0  0  0  0  0  0
   53.7827   43.2049   72.6597 H   0  0  0  0  0  0  0  0  0  0  0  0
   52.8655   39.7222   69.4694 C   0  0  0  0  0  0  0  0  0  0  0  0
   51.9223   39.6164   68.3694 N   0  0  0  0  0  0  0  0  0  0  0  0
   50.9770   39.5196   68.7401 H   0  0  0  0  0  0  0  0  0  0  0  0
   52.1508   38.7994   67.8031 H   0  0  0  0  0  0  0  0  0  0  0  0
  1  2  1  0  0  0
  2  3  1  0  0  0
  2 11  1  0  0  0
  3  4  1  0  0  0
  3  5  1  0  0  0
  5  6  1  0  0  0
  5 10  1  0  0  0
  6  7  1  0  0  0
  6  8  1  0  0  0
  8  9  1  0  0  0
  9 10  1  0  0  0
 10 11  1  0  0  0
 11 15  1  0  0  0
 15 16  1  0  0  0
  1 12  1  0  0  0
  4 13  1  0  0  0
  7 14  1  0  0  0
 16 17  1  0  0  0
 16 18  1  0  0  0
M  END
> <minimizedAffinity>
-5.21582

$$$$
2X09_X09_A_1900


 18 19  0  0  0  0  0  0  0  0999 V2000
   55.2398   42.6952   69.8839 O   0  0  0  0  0  0  0  0  0  0  0  0
   54.2226   42.2194   70.7797 C   0  0  0  0  0  0  0  0  0  0  0  0
   53.1919   43.2858   71.1343 C   0  0  0  0  0  0  0  0  0  0  0  0
   53.7380   44.3057   71.9527 O   0  0  0  0  0  0  0  0  0  0  0  0
   52.2492   42.3932   71.9718 C   0  0  0  0  0  0  0  0  0  0  0  0
   50.7939   42.8778   72.1621 C   0  0  0  0  0  0  0  0  0  0  0  0
   50.4311   43.8665   71.1923 O   0  0  0  0  0  0  0  0  0  0  0  0
   50.0028   41.6094   71.9041 C   0  0  0  0  0  0  0  0  0  0  0  0
   50.7759   41.0280   70.7234 C   0  0  0  0  0  0  0  0  0  0  0  0
   52.1651   41.1342   71.1725 N   0  0  0  0  0  0  0  0  0  0  0  0
   53.1880   41.2863   70.0954 C   0  0  0  0  0  0  0  0  0  0  0  0
   55.8532   43.2703   70.3675 H   0  0  0  0  0  0  0  0  0  0  0  0
   54.1451   43.9071   72.7377 H   0  0  0  0  0  0  0  0  0  0  0  0
   50.5612   43.5077   70.3005 H   0  0  0  0  0  0  0  0  0  0  0  0
   53.6963   39.9004   69.7468 C   0  0  0  0  0  0  0  0  0  0  0  0
   54.9244   39.5611   70.4450 N   0  0  0  0  0  0  0  0  0  0  0  0
   55.6593   40.2161   70.1780 H   0  0  0  0  0  0  0  0  0  0  0  0
   55.2066   38.6133   70.1955 H   0  0  0  0  0  0  0  0  0  0  0  0
  1  2  1  0  0  0
  2  3  1  0  0  0
  2 11  1  0  0  0
  3  4  1  0  0  0
  3  5  1  0  0  0
  5  6  1  0  0  0
  5 10  1  0  0  0
  6  7  1  0  0  0
  6  8  1  0  0  0
  8  9  1  0  0  0
  9 10  1  0  0  0
 10 11  1  0  0  0
 11 15  1  0  0  0
 15 16  1  0  0  0
  1 12  1  0  0  0
  4 13  1  0  0  0
  7 14  1  0  0  0
 16 17  1  0  0  0
 16 18  1  0  0  0
M  END
> <minimizedAffinity>
-5.17251

$$$$
2X09_X09_A_1900


 18 19  0  0  0  0  0  0  0  0999 V2000
   51.1041   43.5498   71.8762 O   0  0  0  0  0  0  0  0  0  0  0  0
   51.9063   42.3889   71.6078 C   0  0  0  0  0  0  0  0  0  0  0  0
   51.4941   41.6591   70.3338 C   0  0  0  0  0  0  0  0  0  0  0  0
   50.2345   41.0233   70.4657 O   0  0  0  0  0  0  0  0  0  0  0  0
   52.6168   40.5977   70.3299 C   0  0  0  0  0  0  0  0  0  0  0  0
   52.9389   39.9081   68.9848 C   0  0  0  0  0  0  0  0  0  0  0  0
   52.4335   40.6521   67.8709 O   0  0  0  0  0  0  0  0  0  0  0  0
   54.4553   39.9463   68.9658 C   0  0  0  0  0  0  0  0  0  0  0  0
   54.7108   41.3441   69.5233 C   0  0  0  0  0  0  0  0  0  0  0  0
   53.8346   41.3817   70.6953 N   0  0  0  0  0  0  0  0  0  0  0  0
   53.3278   42.7307   71.0866 C   0  0  0  0  0  0  0  0  0  0  0  0
   50.2317   43.2729   72.1973 H   0  0  0  0  0  0  0  0  0  0  0  0
   50.2464   40.4399   71.2406 H   0  0  0  0  0  0  0  0  0  0  0  0
   52.7951   41.5519   67.8923 H   0  0  0  0  0  0  0  0  0  0  0  0
   54.2799   43.2950   72.1237 C   0  0  0  0  0  0  0  0  0  0  0  0
   53.7037   44.3983   72.8729 N   0  0  0  0  0  0  0  0  0  0  0  0
   53.4817   45.1630   72.2354 H   0  0  0  0  0  0  0  0  0  0  0  0
   54.3732   44.7214   73.5713 H   0  0  0  0  0  0  0  0  0  0  0  0
  1  2  1  0  0  0
  2  3  1  0  0  0
  2 11  1  0  0  0
  3  4  1  0  0  0
  3  5  1  0  0  0
  5  6  1  0  0  0
  5 10  1  0  0  0
  6  7  1  0  0  0
  6  8  1  0  0  0
  8  9  1  0  0  0
  9 10  1  0  0  0
 10 11  1  0  0  0
 11 15  1  0  0  0
 15 16  1  0  0  0
  1 12  1  0  0  0
  4 13  1  0  0  0
  7 14  1  0  0  0
 16 17  1  0  0  0
 16 18  1  0  0  0
M  END
> <minimizedAffinity>
-5.13436

$$$$
2X09_X09_A_1900


 18 19  0  0  0  0  0  0  0  0999 V2000
   54.5514   40.7641   69.1131 O   0  0  0  0  0  0  0  0  0  0  0  0
   53.3696   41.4856   69.4954 C   0  0  0  0  0  0  0  0  0  0  0  0
   52.2211   40.5734   69.9126 C   0  0  0  0  0  0  0  0  0  0  0  0
   51.6862   39.8519   68.8165 O   0  0  0  0  0  0  0  0  0  0  0  0
   51.2284   41.6746   70.3470 C   0  0  0  0  0  0  0  0  0  0  0  0
   50.0869   41.2655   71.3053 C   0  0  0  0  0  0  0  0  0  0  0  0
   50.3666   40.0278   71.9683 O   0  0  0  0  0  0  0  0  0  0  0  0
   50.1074   42.3930   72.3200 C   0  0  0  0  0  0  0  0  0  0  0  0
   51.6110   42.5914   72.4931 C   0  0  0  0  0  0  0  0  0  0  0  0
   52.0857   42.6315   71.1090 N   0  0  0  0  0  0  0  0  0  0  0  0
   53.4861   42.1633   70.8869 C   0  0  0  0  0  0  0  0  0  0  0  0
   54.4180   40.3649   68.2391 H   0  0  0  0  0  0  0  0  0  0  0  0
   51.4323   40.4713   68.1146 H   0  0  0  0  0  0  0  0  0  0  0  0
   51.2082   40.0995   72.4454 H   0  0  0  0  0  0  0  0  0  0  0  0
   54.3903   43.3799   70.9414 C   0  0  0  0  0  0  0  0  0  0  0  0
   53.7620   44.5709   70.3961 N   0  0  0  0  0  0  0  0  0  0  0  0
   53.5394   44.4179   69.4125 H   0  0  0  0  0  0  0  0  0  0  0  0
   54.4007   45.3616   70.4812 H   0  0  0  0  0  0  0  0  0  0  0  0
  1  2  1  0  0  0
  2  3  1  0  0  0
  2 11  1  0  0  0
  3  4  1  0  0  0
  3  5  1  0  0  0
  5  6  1  0  0  0
  5 10  1  0  0  0
  6  7  1  0  0  0
  6  8  1  0  0  0
  8  9  1  0  0  0
  9 10  1  0  0  0
 10 11  1  0  0  0
 11 15  1  0  0  0
 15 16  1  0  0  0
  1 12  1  0  0  0
  4 13  1  0  0  0
  7 14  1  0  0  0
 16 17  1  0  0  0
 16 18  1  0  0  0
M  END
> <minimizedAffinity>
-5.04385

$$$$
2X09_X09_A_1900


 18 19  0  0  0  0  0  0  0  0999 V2000
   50.3199   40.2371   70.2569 O   0  0  0  0  0  0  0  0  0  0  0  0
   51.3725   40.7066   71.1142 C   0  0  0  0  0  0  0  0  0  0  0  0
   52.7171   40.8184   70.4037 C   0  0  0  0  0  0  0  0  0  0  0  0
   53.2566   39.5492   70.0777 O   0  0  0  0  0  0  0  0  0  0  0  0
   53.5168   41.4418   71.5693 C   0  0  0  0  0  0  0  0  0  0  0  0
   54.8166   42.1993   71.2151 C   0  0  0  0  0  0  0  0  0  0  0  0
   54.8614   42.5608   69.8306 O   0  0  0  0  0  0  0  0  0  0  0  0
   54.6894   43.4550   72.0567 C   0  0  0  0  0  0  0  0  0  0  0  0
   53.2052   43.7654   71.8805 C   0  0  0  0  0  0  0  0  0  0  0  0
   52.5796   42.4645   72.1233 N   0  0  0  0  0  0  0  0  0  0  0  0
   51.2823   42.2250   71.4237 C   0  0  0  0  0  0  0  0  0  0  0  0
   50.4300   39.2861   70.1009 H   0  0  0  0  0  0  0  0  0  0  0  0
   53.3035   39.0027   70.8777 H   0  0  0  0  0  0  0  0  0  0  0  0
   54.0811   43.0932   69.6100 H   0  0  0  0  0  0  0  0  0  0  0  0
   50.1690   42.6280   72.3717 C   0  0  0  0  0  0  0  0  0  0  0  0
   48.8816   42.0701   71.9948 N   0  0  0  0  0  0  0  0  0  0  0  0
   48.6178   42.4165   71.0724 H   0  0  0  0  0  0  0  0  0  0  0  0
   48.1770   42.3495   72.6773 H   0  0  0  0  0  0  0  0  0  0  0  0
  1  2  1  0  0  0
  2  3  1  0  0  0
  2 11  1  0  0  0
  3  4  1  0  0  0
  3  5  1  0  0  0
  5  6  1  0  0  0
  5 10  1  0  0  0
  6  7  1  0  0  0
  6  8  1  0  0  0
  8  9  1  0  0  0
  9 10  1  0  0  0
 10 11  1  0  0  0
 11 15  1  0  0  0
 15 16  1  0  0  0
  1 12  1  0  0  0
  4 13  1  0  0  0
  7 14  1  0  0  0
 16 17  1  0  0  0
 16 18  1  0  0  0
M  END
> <minimizedAffinity>
-5.03709

$$$$
