1BP0_UMP_A_317


 24 25  0  0  0  0  0  0  0  0999 V2000
   15.7686   49.1279  -54.8791 C   0  0  0  0  0  0  0  0  0  0  0  0
   15.1763   48.6749  -56.2127 C   0  0  0  0  0  0  0  0  0  0  0  0
   16.3575   48.8895  -57.1460 C   0  0  0  0  0  0  0  0  0  0  0  0
   16.9165   50.2773  -56.8072 C   0  0  0  0  0  0  0  0  0  0  0  0
   17.3454   47.9034  -56.7772 O   0  0  0  0  0  0  0  0  0  0  0  0
   16.5572   50.3255  -55.3353 O   0  0  0  0  0  0  0  0  0  0  0  0
   17.5595   47.9965  -55.8357 H   0  0  0  0  0  0  0  0  0  0  0  0
   14.8333   49.2793  -53.7737 N   0  0  0  0  0  0  0  0  0  0  0  0
   13.9659   48.2551  -53.3435 C   0  0  0  0  0  0  0  0  0  0  0  0
   13.1329   48.6299  -52.3025 N   0  0  0  0  0  0  0  0  0  0  0  0
   13.1091   49.8886  -51.6870 C   0  0  0  0  0  0  0  0  0  0  0  0
   14.0478   50.8621  -52.2104 C   0  0  0  0  0  0  0  0  0  0  0  0
   14.8828   50.4875  -53.2555 C   0  0  0  0  0  0  0  0  0  0  0  0
   13.8809   47.1038  -53.7769 O   0  0  0  0  0  0  0  0  0  0  0  0
   12.3349   50.1145  -50.7617 O   0  0  0  0  0  0  0  0  0  0  0  0
   12.5025   47.9529  -51.9654 H   0  0  0  0  0  0  0  0  0  0  0  0
   16.1607   51.3721  -57.5723 C   0  0  0  0  0  0  0  0  0  0  0  0
   16.7745   51.6136  -58.8997 O   0  0  0  0  0  0  0  0  0  0  0  0
   15.9212   52.2998  -60.0215 P   0  0  0  0  0  0  0  0  0  0  0  0
   14.9344   51.2767  -60.3390 O   0  0  0  0  0  0  0  0  0  0  0  0
   15.2586   53.5130  -59.4934 O   0  0  0  0  0  0  0  0  0  0  0  0
   16.5873   52.6837  -61.2725 O   0  0  0  0  0  0  0  0  0  0  0  0
   14.8053   53.2984  -58.6631 H   0  0  0  0  0  0  0  0  0  0  0  0
   17.0352   51.9108  -61.6506 H   0  0  0  0  0  0  0  0  0  0  0  0
  8  9  1  0  0  0
  8 13  1  0  0  0
  8  1  1  0  0  0
  9 10  1  0  0  0
  9 14  2  0  0  0
 10 11  1  0  0  0
 11 12  1  0  0  0
 11 15  2  0  0  0
 12 13  2  0  0  0
  1  2  1  0  0  0
  1  6  1  0  0  0
  2  3  1  0  0  0
  3  4  1  0  0  0
  3  5  1  0  0  0
  4  6  1  0  0  0
  4 17  1  0  0  0
 17 18  1  0  0  0
 18 19  1  0  0  0
 19 20  2  0  0  0
 19 21  1  0  0  0
 19 22  1  0  0  0
 10 16  1  0  0  0
  5  7  1  0  0  0
 21 23  1  0  0  0
 22 24  1  0  0  0
M  END
> <minimizedAffinity>
-7.96407

$$$$
1BP0_UMP_A_317


 24 25  0  0  0  0  0  0  0  0999 V2000
   17.6493   50.0862  -56.3132 C   0  0  0  0  0  0  0  0  0  0  0  0
   18.1472   50.8969  -55.1176 C   0  0  0  0  0  0  0  0  0  0  0  0
   18.5970   49.7884  -54.1789 C   0  0  0  0  0  0  0  0  0  0  0  0
   17.4703   48.7473  -54.1844 C   0  0  0  0  0  0  0  0  0  0  0  0
   19.7629   49.1939  -54.7884 O   0  0  0  0  0  0  0  0  0  0  0  0
   16.9596   48.9574  -55.5962 O   0  0  0  0  0  0  0  0  0  0  0  0
   19.5418   48.8927  -55.6835 H   0  0  0  0  0  0  0  0  0  0  0  0
   16.9194   50.8224  -57.3354 N   0  0  0  0  0  0  0  0  0  0  0  0
   15.6213   50.4787  -57.7633 C   0  0  0  0  0  0  0  0  0  0  0  0
   15.1337   51.2900  -58.7743 N   0  0  0  0  0  0  0  0  0  0  0  0
   15.8126   52.3694  -59.3554 C   0  0  0  0  0  0  0  0  0  0  0  0
   17.1397   52.6319  -58.8331 C   0  0  0  0  0  0  0  0  0  0  0  0
   17.6300   51.8179  -57.8200 C   0  0  0  0  0  0  0  0  0  0  0  0
   14.9014   49.5705  -57.3419 O   0  0  0  0  0  0  0  0  0  0  0  0
   15.2835   53.0327  -60.2423 O   0  0  0  0  0  0  0  0  0  0  0  0
   14.2315   51.0910  -59.1144 H   0  0  0  0  0  0  0  0  0  0  0  0
   16.3813   49.1157  -53.1678 C   0  0  0  0  0  0  0  0  0  0  0  0
   15.4658   47.9740  -52.9321 O   0  0  0  0  0  0  0  0  0  0  0  0
   14.0501   47.9797  -53.6054 P   0  0  0  0  0  0  0  0  0  0  0  0
   13.4425   49.1834  -53.0546 O   0  0  0  0  0  0  0  0  0  0  0  0
   14.1806   48.0909  -55.0753 O   0  0  0  0  0  0  0  0  0  0  0  0
   13.1426   46.8568  -53.3380 O   0  0  0  0  0  0  0  0  0  0  0  0
   14.7755   48.8256  -55.2924 H   0  0  0  0  0  0  0  0  0  0  0  0
   13.0316   46.7519  -52.3801 H   0  0  0  0  0  0  0  0  0  0  0  0
  8  9  1  0  0  0
  8 13  1  0  0  0
  8  1  1  0  0  0
  9 10  1  0  0  0
  9 14  2  0  0  0
 10 11  1  0  0  0
 11 12  1  0  0  0
 11 15  2  0  0  0
 12 13  2  0  0  0
  1  2  1  0  0  0
  1  6  1  0  0  0
  2  3  1  0  0  0
  3  4  1  0  0  0
  3  5  1  0  0  0
  4  6  1  0  0  0
  4 17  1  0  0  0
 17 18  1  0  0  0
 18 19  1  0  0  0
 19 20  2  0  0  0
 19 21  1  0  0  0
 19 22  1  0  0  0
 10 16  1  0  0  0
  5  7  1  0  0  0
 21 23  1  0  0  0
 22 24  1  0  0  0
M  END
> <minimizedAffinity>
-7.43377

$$$$
1BP0_UMP_A_317


 24 25  0  0  0  0  0  0  0  0999 V2000
   17.3576   50.8051  -55.5538 C   0  0  0  0  0  0  0  0  0  0  0  0
   18.5760   50.1977  -56.2473 C   0  0  0  0  0  0  0  0  0  0  0  0
   19.3900   51.4447  -56.5551 C   0  0  0  0  0  0  0  0  0  0  0  0
   18.4017   52.4591  -57.1447 C   0  0  0  0  0  0  0  0  0  0  0  0
   19.8487   51.9495  -55.2827 O   0  0  0  0  0  0  0  0  0  0  0  0
   17.1487   52.0245  -56.4104 O   0  0  0  0  0  0  0  0  0  0  0  0
   19.0868   52.1042  -54.7026 H   0  0  0  0  0  0  0  0  0  0  0  0
   16.2345   49.9095  -55.3168 N   0  0  0  0  0  0  0  0  0  0  0  0
   15.5581   49.2220  -56.3445 C   0  0  0  0  0  0  0  0  0  0  0  0
   14.4942   48.4563  -55.8974 N   0  0  0  0  0  0  0  0  0  0  0  0
   14.0815   48.3294  -54.5642 C   0  0  0  0  0  0  0  0  0  0  0  0
   14.8539   49.0798  -53.5930 C   0  0  0  0  0  0  0  0  0  0  0  0
   15.9204   49.8491  -54.0407 C   0  0  0  0  0  0  0  0  0  0  0  0
   15.8107   49.2266  -57.5514 O   0  0  0  0  0  0  0  0  0  0  0  0
   13.1275   47.6140  -54.2734 O   0  0  0  0  0  0  0  0  0  0  0  0
   13.9832   47.9578  -56.5753 H   0  0  0  0  0  0  0  0  0  0  0  0
   18.2320   52.2422  -58.6544 C   0  0  0  0  0  0  0  0  0  0  0  0
   16.9226   51.6175  -58.9580 O   0  0  0  0  0  0  0  0  0  0  0  0
   15.9637   52.3152  -59.9832 P   0  0  0  0  0  0  0  0  0  0  0  0
   16.8665   52.6709  -61.0695 O   0  0  0  0  0  0  0  0  0  0  0  0
   14.9348   51.3621  -60.4554 O   0  0  0  0  0  0  0  0  0  0  0  0
   15.2608   53.5353  -59.5669 O   0  0  0  0  0  0  0  0  0  0  0  0
   15.3626   50.5395  -60.7404 H   0  0  0  0  0  0  0  0  0  0  0  0
   15.9051   54.1872  -59.2495 H   0  0  0  0  0  0  0  0  0  0  0  0
  8  9  1  0  0  0
  8 13  1  0  0  0
  8  1  1  0  0  0
  9 10  1  0  0  0
  9 14  2  0  0  0
 10 11  1  0  0  0
 11 12  1  0  0  0
 11 15  2  0  0  0
 12 13  2  0  0  0
  1  2  1  0  0  0
  1  6  1  0  0  0
  2  3  1  0  0  0
  3  4  1  0  0  0
  3  5  1  0  0  0
  4  6  1  0  0  0
  4 17  1  0  0  0
 17 18  1  0  0  0
 18 19  1  0  0  0
 19 20  2  0  0  0
 19 21  1  0  0  0
 19 22  1  0  0  0
 10 16  1  0  0  0
  5  7  1  0  0  0
 21 23  1  0  0  0
 22 24  1  0  0  0
M  END
> <minimizedAffinity>
-7.20574

$$$$
1BP0_UMP_A_317


 24 25  0  0  0  0  0  0  0  0999 V2000
   13.4931   49.1290  -51.7445 C   0  0  0  0  0  0  0  0  0  0  0  0
   12.8456   49.2559  -53.1226 C   0  0  0  0  0  0  0  0  0  0  0  0
   13.6456   48.2357  -53.9174 C   0  0  0  0  0  0  0  0  0  0  0  0
   15.1172   48.4834  -53.5618 C   0  0  0  0  0  0  0  0  0  0  0  0
   13.2694   46.9405  -53.4025 O   0  0  0  0  0  0  0  0  0  0  0  0
   14.9370   48.9907  -52.1446 O   0  0  0  0  0  0  0  0  0  0  0  0
   13.4285   46.9140  -52.4460 H   0  0  0  0  0  0  0  0  0  0  0  0
   13.1276   50.1395  -50.7623 N   0  0  0  0  0  0  0  0  0  0  0  0
   13.1374   49.9113  -49.3716 C   0  0  0  0  0  0  0  0  0  0  0  0
   12.7141   50.9980  -48.6246 N   0  0  0  0  0  0  0  0  0  0  0  0
   12.3079   52.2361  -49.1402 C   0  0  0  0  0  0  0  0  0  0  0  0
   12.3420   52.3571  -50.5849 C   0  0  0  0  0  0  0  0  0  0  0  0
   12.7652   51.2671  -51.3350 C   0  0  0  0  0  0  0  0  0  0  0  0
   13.4771   48.8868  -48.7753 O   0  0  0  0  0  0  0  0  0  0  0  0
   11.9591   53.1400  -48.3867 O   0  0  0  0  0  0  0  0  0  0  0  0
   12.6971   50.8914  -47.6460 H   0  0  0  0  0  0  0  0  0  0  0  0
   15.7146   49.5860  -54.4463 C   0  0  0  0  0  0  0  0  0  0  0  0
   16.5940   49.0109  -55.4918 O   0  0  0  0  0  0  0  0  0  0  0  0
   16.0675   48.9179  -56.9654 P   0  0  0  0  0  0  0  0  0  0  0  0
   17.2878   48.6760  -57.7228 O   0  0  0  0  0  0  0  0  0  0  0  0
   15.1349   47.7776  -57.1069 O   0  0  0  0  0  0  0  0  0  0  0  0
   15.4037   50.0911  -57.5476 O   0  0  0  0  0  0  0  0  0  0  0  0
   15.5401   46.9801  -56.7318 H   0  0  0  0  0  0  0  0  0  0  0  0
   15.9869   50.8626  -57.4732 H   0  0  0  0  0  0  0  0  0  0  0  0
  8  9  1  0  0  0
  8 13  1  0  0  0
  8  1  1  0  0  0
  9 10  1  0  0  0
  9 14  2  0  0  0
 10 11  1  0  0  0
 11 12  1  0  0  0
 11 15  2  0  0  0
 12 13  2  0  0  0
  1  2  1  0  0  0
  1  6  1  0  0  0
  2  3  1  0  0  0
  3  4  1  0  0  0
  3  5  1  0  0  0
  4  6  1  0  0  0
  4 17  1  0  0  0
 17 18  1  0  0  0
 18 19  1  0  0  0
 19 20  2  0  0  0
 19 21  1  0  0  0
 19 22  1  0  0  0
 10 16  1  0  0  0
  5  7  1  0  0  0
 21 23  1  0  0  0
 22 24  1  0  0  0
M  END
> <minimizedAffinity>
-7.14440

$$$$
1BP0_UMP_A_317


 24 25  0  0  0  0  0  0  0  0999 V2000
   18.4091   50.2021  -56.4077 C   0  0  0  0  0  0  0  0  0  0  0  0
   18.1257   50.3362  -54.9123 C   0  0  0  0  0  0  0  0  0  0  0  0
   17.6587   48.9288  -54.5752 C   0  0  0  0  0  0  0  0  0  0  0  0
   16.6605   48.5408  -55.6735 C   0  0  0  0  0  0  0  0  0  0  0  0
   18.8194   48.0794  -54.7005 O   0  0  0  0  0  0  0  0  0  0  0  0
   17.2446   49.3428  -56.8196 O   0  0  0  0  0  0  0  0  0  0  0  0
   19.1937   48.1725  -55.5905 H   0  0  0  0  0  0  0  0  0  0  0  0
   18.6629   51.4394  -57.1317 N   0  0  0  0  0  0  0  0  0  0  0  0
   19.2434   51.4841  -58.4152 C   0  0  0  0  0  0  0  0  0  0  0  0
   19.4312   52.7683  -58.8984 N   0  0  0  0  0  0  0  0  0  0  0  0
   19.0926   53.9516  -58.2284 C   0  0  0  0  0  0  0  0  0  0  0  0
   18.4988   53.7831  -56.9162 C   0  0  0  0  0  0  0  0  0  0  0  0
   18.3113   52.4954  -56.4301 C   0  0  0  0  0  0  0  0  0  0  0  0
   19.5812   50.5350  -59.1262 O   0  0  0  0  0  0  0  0  0  0  0  0
   19.2933   55.0431  -58.7528 O   0  0  0  0  0  0  0  0  0  0  0  0
   19.8382   52.8577  -59.7904 H   0  0  0  0  0  0  0  0  0  0  0  0
   15.2524   49.0489  -55.3360 C   0  0  0  0  0  0  0  0  0  0  0  0
   14.3419   47.9224  -55.0210 O   0  0  0  0  0  0  0  0  0  0  0  0
   13.6376   47.8791  -53.6212 P   0  0  0  0  0  0  0  0  0  0  0  0
   12.5100   48.7823  -53.8062 O   0  0  0  0  0  0  0  0  0  0  0  0
   13.1615   46.5090  -53.3276 O   0  0  0  0  0  0  0  0  0  0  0  0
   14.3885   48.3348  -52.4446 O   0  0  0  0  0  0  0  0  0  0  0  0
   12.6585   46.1722  -54.0855 H   0  0  0  0  0  0  0  0  0  0  0  0
   14.7183   49.2337  -52.5997 H   0  0  0  0  0  0  0  0  0  0  0  0
  8  9  1  0  0  0
  8 13  1  0  0  0
  8  1  1  0  0  0
  9 10  1  0  0  0
  9 14  2  0  0  0
 10 11  1  0  0  0
 11 12  1  0  0  0
 11 15  2  0  0  0
 12 13  2  0  0  0
  1  2  1  0  0  0
  1  6  1  0  0  0
  2  3  1  0  0  0
  3  4  1  0  0  0
  3  5  1  0  0  0
  4  6  1  0  0  0
  4 17  1  0  0  0
 17 18  1  0  0  0
 18 19  1  0  0  0
 19 20  2  0  0  0
 19 21  1  0  0  0
 19 22  1  0  0  0
 10 16  1  0  0  0
  5  7  1  0  0  0
 21 23  1  0  0  0
 22 24  1  0  0  0
M  END
> <minimizedAffinity>
-7.03840

$$$$
1BP0_UMP_A_317


 24 25  0  0  0  0  0  0  0  0999 V2000
   14.5417   49.5095  -53.6828 C   0  0  0  0  0  0  0  0  0  0  0  0
   14.1203   48.5444  -52.5757 C   0  0  0  0  0  0  0  0  0  0  0  0
   12.8658   49.2272  -52.0536 C   0  0  0  0  0  0  0  0  0  0  0  0
   13.2258   50.7104  -51.8987 C   0  0  0  0  0  0  0  0  0  0  0  0
   11.8789   49.1100  -53.1008 O   0  0  0  0  0  0  0  0  0  0  0  0
   14.2500   50.8237  -53.0106 O   0  0  0  0  0  0  0  0  0  0  0  0
   12.2296   49.4932  -53.9200 H   0  0  0  0  0  0  0  0  0  0  0  0
   15.8587   49.2921  -54.2640 N   0  0  0  0  0  0  0  0  0  0  0  0
   16.0864   48.4760  -55.3902 C   0  0  0  0  0  0  0  0  0  0  0  0
   17.4207   48.3780  -55.7479 N   0  0  0  0  0  0  0  0  0  0  0  0
   18.4898   49.0094  -55.0982 C   0  0  0  0  0  0  0  0  0  0  0  0
   18.1356   49.8267  -53.9539 C   0  0  0  0  0  0  0  0  0  0  0  0
   16.7976   49.9245  -53.5936 C   0  0  0  0  0  0  0  0  0  0  0  0
   15.2521   47.8702  -56.0667 O   0  0  0  0  0  0  0  0  0  0  0  0
   19.6388   48.8633  -55.5044 O   0  0  0  0  0  0  0  0  0  0  0  0
   17.6371   47.8156  -56.5265 H   0  0  0  0  0  0  0  0  0  0  0  0
   13.8892   50.9723  -50.5399 C   0  0  0  0  0  0  0  0  0  0  0  0
   13.2069   52.0729  -49.8185 O   0  0  0  0  0  0  0  0  0  0  0  0
   12.4587   51.7578  -48.4775 P   0  0  0  0  0  0  0  0  0  0  0  0
   11.9154   50.4288  -48.7230 O   0  0  0  0  0  0  0  0  0  0  0  0
   13.4163   51.7261  -47.3498 O   0  0  0  0  0  0  0  0  0  0  0  0
   11.3475   52.6286  -48.0738 O   0  0  0  0  0  0  0  0  0  0  0  0
   14.1681   51.1579  -47.5798 H   0  0  0  0  0  0  0  0  0  0  0  0
   10.6959   52.6747  -48.7908 H   0  0  0  0  0  0  0  0  0  0  0  0
  8  9  1  0  0  0
  8 13  1  0  0  0
  8  1  1  0  0  0
  9 10  1  0  0  0
  9 14  2  0  0  0
 10 11  1  0  0  0
 11 12  1  0  0  0
 11 15  2  0  0  0
 12 13  2  0  0  0
  1  2  1  0  0  0
  1  6  1  0  0  0
  2  3  1  0  0  0
  3  4  1  0  0  0
  3  5  1  0  0  0
  4  6  1  0  0  0
  4 17  1  0  0  0
 17 18  1  0  0  0
 18 19  1  0  0  0
 19 20  2  0  0  0
 19 21  1  0  0  0
 19 22  1  0  0  0
 10 16  1  0  0  0
  5  7  1  0  0  0
 21 23  1  0  0  0
 22 24  1  0  0  0
M  END
> <minimizedAffinity>
-6.80719

$$$$
1BP0_UMP_A_317


 24 25  0  0  0  0  0  0  0  0999 V2000
   14.3546   50.6078  -49.5425 C   0  0  0  0  0  0  0  0  0  0  0  0
   14.3546   49.1513  -50.0044 C   0  0  0  0  0  0  0  0  0  0  0  0
   15.7238   49.0513  -50.6585 C   0  0  0  0  0  0  0  0  0  0  0  0
   15.8631   50.2997  -51.5391 C   0  0  0  0  0  0  0  0  0  0  0  0
   16.6883   49.1447  -49.5883 O   0  0  0  0  0  0  0  0  0  0  0  0
   15.0151   51.2589  -50.7274 O   0  0  0  0  0  0  0  0  0  0  0  0
   16.5426   49.9655  -49.0924 H   0  0  0  0  0  0  0  0  0  0  0  0
   13.0843   51.1354  -49.0656 N   0  0  0  0  0  0  0  0  0  0  0  0
   12.4204   50.6482  -47.9219 C   0  0  0  0  0  0  0  0  0  0  0  0
   11.2063   51.2673  -47.6750 N   0  0  0  0  0  0  0  0  0  0  0  0
   10.6389   52.2908  -48.4460 C   0  0  0  0  0  0  0  0  0  0  0  0
   11.4131   52.7137  -49.5969 C   0  0  0  0  0  0  0  0  0  0  0  0
   12.6303   52.0923  -49.8460 C   0  0  0  0  0  0  0  0  0  0  0  0
   12.7976   49.7673  -47.1457 O   0  0  0  0  0  0  0  0  0  0  0  0
    9.5575   52.7795  -48.1326 O   0  0  0  0  0  0  0  0  0  0  0  0
   10.6976   50.9617  -46.8895 H   0  0  0  0  0  0  0  0  0  0  0  0
   15.2288   50.0694  -52.9173 C   0  0  0  0  0  0  0  0  0  0  0  0
   15.0740   48.6219  -53.1963 O   0  0  0  0  0  0  0  0  0  0  0  0
   13.6946   48.0881  -53.7156 P   0  0  0  0  0  0  0  0  0  0  0  0
   12.7511   49.0367  -53.1398 O   0  0  0  0  0  0  0  0  0  0  0  0
   13.6464   48.1413  -55.1937 O   0  0  0  0  0  0  0  0  0  0  0  0
   13.2714   46.7389  -53.3199 O   0  0  0  0  0  0  0  0  0  0  0  0
   13.9207   49.0218  -55.4946 H   0  0  0  0  0  0  0  0  0  0  0  0
   13.2901   46.6648  -52.3529 H   0  0  0  0  0  0  0  0  0  0  0  0
  8  9  1  0  0  0
  8 13  1  0  0  0
  8  1  1  0  0  0
  9 10  1  0  0  0
  9 14  2  0  0  0
 10 11  1  0  0  0
 11 12  1  0  0  0
 11 15  2  0  0  0
 12 13  2  0  0  0
  1  2  1  0  0  0
  1  6  1  0  0  0
  2  3  1  0  0  0
  3  4  1  0  0  0
  3  5  1  0  0  0
  4  6  1  0  0  0
  4 17  1  0  0  0
 17 18  1  0  0  0
 18 19  1  0  0  0
 19 20  2  0  0  0
 19 21  1  0  0  0
 19 22  1  0  0  0
 10 16  1  0  0  0
  5  7  1  0  0  0
 21 23  1  0  0  0
 22 24  1  0  0  0
M  END
> <minimizedAffinity>
-6.72893

$$$$
1BP0_UMP_A_317


 24 25  0  0  0  0  0  0  0  0999 V2000
   17.4969   49.1412  -55.4734 C   0  0  0  0  0  0  0  0  0  0  0  0
   16.9894   47.8967  -56.2003 C   0  0  0  0  0  0  0  0  0  0  0  0
   15.7648   48.4513  -56.9110 C   0  0  0  0  0  0  0  0  0  0  0  0
   15.0103   49.2825  -55.8654 C   0  0  0  0  0  0  0  0  0  0  0  0
   16.2616   49.3486  -57.9270 O   0  0  0  0  0  0  0  0  0  0  0  0
   16.1889   49.7359  -55.0267 O   0  0  0  0  0  0  0  0  0  0  0  0
   16.8234   50.0239  -57.5155 H   0  0  0  0  0  0  0  0  0  0  0  0
   18.5487   48.9318  -54.4889 N   0  0  0  0  0  0  0  0  0  0  0  0
   19.9221   49.0537  -54.7807 C   0  0  0  0  0  0  0  0  0  0  0  0
   20.7484   48.7703  -53.7060 N   0  0  0  0  0  0  0  0  0  0  0  0
   20.3230   48.3985  -52.4235 C   0  0  0  0  0  0  0  0  0  0  0  0
   18.8875   48.3085  -52.2388 C   0  0  0  0  0  0  0  0  0  0  0  0
   18.0581   48.5913  -53.3166 C   0  0  0  0  0  0  0  0  0  0  0  0
   20.4424   49.3804  -55.8499 O   0  0  0  0  0  0  0  0  0  0  0  0
   21.1416   48.1781  -51.5358 O   0  0  0  0  0  0  0  0  0  0  0  0
   21.7192   48.8357  -53.8560 H   0  0  0  0  0  0  0  0  0  0  0  0
   14.0778   48.3942  -55.0309 C   0  0  0  0  0  0  0  0  0  0  0  0
   14.3644   48.5347  -53.5834 O   0  0  0  0  0  0  0  0  0  0  0  0
   13.2656   49.1399  -52.6432 P   0  0  0  0  0  0  0  0  0  0  0  0
   13.6217   50.5518  -52.6081 O   0  0  0  0  0  0  0  0  0  0  0  0
   11.9231   48.9586  -53.2387 O   0  0  0  0  0  0  0  0  0  0  0  0
   13.1891   48.6622  -51.2569 O   0  0  0  0  0  0  0  0  0  0  0  0
   11.9337   49.2644  -54.1592 H   0  0  0  0  0  0  0  0  0  0  0  0
   14.0546   48.7654  -50.8311 H   0  0  0  0  0  0  0  0  0  0  0  0
  8  9  1  0  0  0
  8 13  1  0  0  0
  8  1  1  0  0  0
  9 10  1  0  0  0
  9 14  2  0  0  0
 10 11  1  0  0  0
 11 12  1  0  0  0
 11 15  2  0  0  0
 12 13  2  0  0  0
  1  2  1  0  0  0
  1  6  1  0  0  0
  2  3  1  0  0  0
  3  4  1  0  0  0
  3  5  1  0  0  0
  4  6  1  0  0  0
  4 17  1  0  0  0
 17 18  1  0  0  0
 18 19  1  0  0  0
 19 20  2  0  0  0
 19 21  1  0  0  0
 19 22  1  0  0  0
 10 16  1  0  0  0
  5  7  1  0  0  0
 21 23  1  0  0  0
 22 24  1  0  0  0
M  END
> <minimizedAffinity>
-6.72516

$$$$
1BP0_UMP_A_317


 24 25  0  0  0  0  0  0  0  0999 V2000
   13.8821   48.9783  -51.9437 C   0  0  0  0  0  0  0  0  0  0  0  0
   12.8541   49.0732  -53.0701 C   0  0  0  0  0  0  0  0  0  0  0  0
   13.3876   48.0325  -54.0421 C   0  0  0  0  0  0  0  0  0  0  0  0
   14.8971   48.2858  -54.1452 C   0  0  0  0  0  0  0  0  0  0  0  0
   13.1879   46.7508  -53.4083 O   0  0  0  0  0  0  0  0  0  0  0  0
   15.1430   48.8275  -52.7509 O   0  0  0  0  0  0  0  0  0  0  0  0
   13.6238   46.7472  -52.5418 H   0  0  0  0  0  0  0  0  0  0  0  0
   13.8193   50.0129  -50.9214 N   0  0  0  0  0  0  0  0  0  0  0  0
   13.8663   51.3922  -51.2073 C   0  0  0  0  0  0  0  0  0  0  0  0
   13.8332   52.1972  -50.0808 N   0  0  0  0  0  0  0  0  0  0  0  0
   13.7545   51.7468  -48.7562 C   0  0  0  0  0  0  0  0  0  0  0  0
   13.7082   50.3077  -48.5833 C   0  0  0  0  0  0  0  0  0  0  0  0
   13.7427   49.4995  -49.7125 C   0  0  0  0  0  0  0  0  0  0  0  0
   13.9245   51.9341  -52.3134 O   0  0  0  0  0  0  0  0  0  0  0  0
   13.7211   52.5483  -47.8271 O   0  0  0  0  0  0  0  0  0  0  0  0
   13.8682   53.1707  -50.2230 H   0  0  0  0  0  0  0  0  0  0  0  0
   15.1994   49.3655  -55.1930 C   0  0  0  0  0  0  0  0  0  0  0  0
   15.5976   48.7565  -56.4844 O   0  0  0  0  0  0  0  0  0  0  0  0
   16.4958   49.5792  -57.4712 P   0  0  0  0  0  0  0  0  0  0  0  0
   17.0786   50.5907  -56.6002 O   0  0  0  0  0  0  0  0  0  0  0  0
   17.5532   48.7168  -58.0442 O   0  0  0  0  0  0  0  0  0  0  0  0
   15.8508   50.2721  -58.5937 O   0  0  0  0  0  0  0  0  0  0  0  0
   18.0042   48.2403  -57.3297 H   0  0  0  0  0  0  0  0  0  0  0  0
   15.1485   50.8498  -58.2564 H   0  0  0  0  0  0  0  0  0  0  0  0
  8  9  1  0  0  0
  8 13  1  0  0  0
  8  1  1  0  0  0
  9 10  1  0  0  0
  9 14  2  0  0  0
 10 11  1  0  0  0
 11 12  1  0  0  0
 11 15  2  0  0  0
 12 13  2  0  0  0
  1  2  1  0  0  0
  1  6  1  0  0  0
  2  3  1  0  0  0
  3  4  1  0  0  0
  3  5  1  0  0  0
  4  6  1  0  0  0
  4 17  1  0  0  0
 17 18  1  0  0  0
 18 19  1  0  0  0
 19 20  2  0  0  0
 19 21  1  0  0  0
 19 22  1  0  0  0
 10 16  1  0  0  0
  5  7  1  0  0  0
 21 23  1  0  0  0
 22 24  1  0  0  0
M  END
> <minimizedAffinity>
-6.66305

$$$$
1BP0_UMP_A_317


 24 25  0  0  0  0  0  0  0  0999 V2000
   15.8338   48.9924  -54.7824 C   0  0  0  0  0  0  0  0  0  0  0  0
   15.2419   48.6990  -56.1602 C   0  0  0  0  0  0  0  0  0  0  0  0
   16.4748   48.8239  -57.0414 C   0  0  0  0  0  0  0  0  0  0  0  0
   17.1842   50.1088  -56.5953 C   0  0  0  0  0  0  0  0  0  0  0  0
   17.3216   47.7029  -56.7091 O   0  0  0  0  0  0  0  0  0  0  0  0
   16.7779   50.1097  -55.1348 O   0  0  0  0  0  0  0  0  0  0  0  0
   17.5096   47.7106  -55.7576 H   0  0  0  0  0  0  0  0  0  0  0  0
   14.8825   49.1890  -53.6980 N   0  0  0  0  0  0  0  0  0  0  0  0
   13.9647   48.2042  -53.2808 C   0  0  0  0  0  0  0  0  0  0  0  0
   13.1262   48.6195  -52.2598 N   0  0  0  0  0  0  0  0  0  0  0  0
   13.1416   49.8819  -51.6516 C   0  0  0  0  0  0  0  0  0  0  0  0
   14.1306   50.8125  -52.1601 C   0  0  0  0  0  0  0  0  0  0  0  0
   14.9711   50.3973  -53.1852 C   0  0  0  0  0  0  0  0  0  0  0  0
   13.8412   47.0548  -53.7099 O   0  0  0  0  0  0  0  0  0  0  0  0
   12.3582   50.1452  -50.7441 O   0  0  0  0  0  0  0  0  0  0  0  0
   12.4613   47.9712  -51.9326 H   0  0  0  0  0  0  0  0  0  0  0  0
   16.5957   51.3334  -57.3088 C   0  0  0  0  0  0  0  0  0  0  0  0
   17.4756   52.5155  -57.1493 O   0  0  0  0  0  0  0  0  0  0  0  0
   18.4252   52.9244  -58.3276 P   0  0  0  0  0  0  0  0  0  0  0  0
   19.7338   52.5148  -57.8362 O   0  0  0  0  0  0  0  0  0  0  0  0
   18.0742   52.1748  -59.5543 O   0  0  0  0  0  0  0  0  0  0  0  0
   18.5098   54.3423  -58.6996 O   0  0  0  0  0  0  0  0  0  0  0  0
   18.0089   51.2293  -59.3478 H   0  0  0  0  0  0  0  0  0  0  0  0
   18.7392   54.8686  -57.9177 H   0  0  0  0  0  0  0  0  0  0  0  0
  8  9  1  0  0  0
  8 13  1  0  0  0
  8  1  1  0  0  0
  9 10  1  0  0  0
  9 14  2  0  0  0
 10 11  1  0  0  0
 11 12  1  0  0  0
 11 15  2  0  0  0
 12 13  2  0  0  0
  1  2  1  0  0  0
  1  6  1  0  0  0
  2  3  1  0  0  0
  3  4  1  0  0  0
  3  5  1  0  0  0
  4  6  1  0  0  0
  4 17  1  0  0  0
 17 18  1  0  0  0
 18 19  1  0  0  0
 19 20  2  0  0  0
 19 21  1  0  0  0
 19 22  1  0  0  0
 10 16  1  0  0  0
  5  7  1  0  0  0
 21 23  1  0  0  0
 22 24  1  0  0  0
M  END
> <minimizedAffinity>
-6.56789

$$$$
