3L3M_A92_A_351


 29 32  0  0  0  0  0  0  0  0999 V2000
   23.2471    7.1691   24.4150 C   0  0  0  0  0  0  0  0  0  0  0  0
   23.0029    8.2306   23.5725 C   0  0  0  0  0  0  0  0  0  0  0  0
   24.0454    7.2865   25.5302 C   0  0  0  0  0  0  0  0  0  0  0  0
   23.5703    9.4627   23.7955 C   0  0  0  0  0  0  0  0  0  0  0  0
   24.3794    9.5773   24.9008 C   0  0  0  0  0  0  0  0  0  0  0  0
   24.6091    8.5272   25.7616 C   0  0  0  0  0  0  0  0  0  0  0  0
   25.7380   10.1805   26.5511 C   0  0  0  0  0  0  0  0  0  0  0  0
   25.0948   10.6146   25.4257 N   0  0  0  0  0  0  0  0  0  0  0  0
   25.4429    8.9164   26.7722 N   0  0  0  0  0  0  0  0  0  0  0  0
   25.1401   11.5254   25.0548 H   0  0  0  0  0  0  0  0  0  0  0  0
   28.2527    9.3304   27.5772 F   0  0  0  0  0  0  0  0  0  0  0  0
   26.2183   12.3151   27.6420 C   0  0  0  0  0  0  0  0  0  0  0  0
   27.0204   13.1237   28.4188 C   0  0  0  0  0  0  0  0  0  0  0  0
   28.6111   11.3717   28.6074 C   0  0  0  0  0  0  0  0  0  0  0  0
   26.5999   11.0249   27.3478 C   0  0  0  0  0  0  0  0  0  0  0  0
   28.2188   12.6532   28.9044 C   0  0  0  0  0  0  0  0  0  0  0  0
   27.8074   10.5690   27.8347 C   0  0  0  0  0  0  0  0  0  0  0  0
   30.9834   13.4065   31.3255 C   0  0  0  0  0  0  0  0  0  0  0  0
   30.2890   14.4103   32.2131 C   0  0  0  0  0  0  0  0  0  0  0  0
   29.9586   12.5739   30.5973 C   0  0  0  0  0  0  0  0  0  0  0  0
   29.3286   15.2530   31.4091 C   0  0  0  0  0  0  0  0  0  0  0  0
   29.0985   13.4869   29.7632 C   0  0  0  0  0  0  0  0  0  0  0  0
   28.3800   14.3385   30.7320 N   0  0  0  0  0  0  0  0  0  0  0  0
   27.6750   14.8877   30.2403 H   0  0  0  0  0  0  0  0  0  0  0  0
   23.2786   10.5705   22.8862 C   0  0  0  0  0  0  0  0  0  0  0  0
   22.7957   10.1588   21.6704 N   0  0  0  0  0  0  0  0  0  0  0  0
   23.4881   11.7228   23.2448 O   0  0  0  0  0  0  0  0  0  0  0  0
   22.6661    9.1994   21.4915 H   0  0  0  0  0  0  0  0  0  0  0  0
   22.5786   10.8226   20.9765 H   0  0  0  0  0  0  0  0  0  0  0  0
 11 17  1  0  0  0
  1  2  2  0  0  0
  1  3  1  0  0  0
 12 13  2  0  0  0
 12 15  1  0  0  0
  2  4  1  0  0  0
 13 16  1  0  0  0
  3  6  2  0  0  0
 14 16  2  0  0  0
 14 17  1  0  0  0
 15 17  2  0  0  0
 15  7  1  0  0  0
  4  5  2  0  0  0
  4 25  1  0  0  0
 16 22  1  0  0  0
  5  6  1  0  0  0
  5  8  1  0  0  0
  6  9  1  0  0  0
  7  8  1  0  0  0
  7  9  2  0  0  0
 25 26  1  0  0  0
 25 27  2  0  0  0
 18 19  1  0  0  0
 18 20  1  0  0  0
 19 21  1  0  0  0
 20 22  1  0  0  0
 21 23  1  0  0  0
 22 23  1  0  0  0
  8 10  1  0  0  0
 23 24  1  0  0  0
 26 28  1  0  0  0
 26 29  1  0  0  0
M  END
> <minimizedAffinity>
-10.39807

$$$$
3L3M_A92_A_351


 29 32  0  0  0  0  0  0  0  0999 V2000
   22.9435   10.6477   22.7985 C   0  0  0  0  0  0  0  0  0  0  0  0
   22.9527    9.3803   23.3369 C   0  0  0  0  0  0  0  0  0  0  0  0
   23.7090   11.6690   23.3140 C   0  0  0  0  0  0  0  0  0  0  0  0
   23.7163    9.0799   24.4398 C   0  0  0  0  0  0  0  0  0  0  0  0
   24.4700   10.1028   24.9642 C   0  0  0  0  0  0  0  0  0  0  0  0
   24.4850   11.3664   24.4171 C   0  0  0  0  0  0  0  0  0  0  0  0
   25.8125   11.4522   26.1087 C   0  0  0  0  0  0  0  0  0  0  0  0
   25.3245   10.1780   26.0260 N   0  0  0  0  0  0  0  0  0  0  0  0
   25.3182   12.1819   25.1304 N   0  0  0  0  0  0  0  0  0  0  0  0
   25.5519    9.4366   26.6325 H   0  0  0  0  0  0  0  0  0  0  0  0
   28.2576   10.1128   26.6806 F   0  0  0  0  0  0  0  0  0  0  0  0
   26.4521   12.9982   27.8916 C   0  0  0  0  0  0  0  0  0  0  0  0
   27.3131   13.4072   28.8874 C   0  0  0  0  0  0  0  0  0  0  0  0
   28.7685   11.6029   28.3762 C   0  0  0  0  0  0  0  0  0  0  0  0
   26.7359   11.8832   27.1346 C   0  0  0  0  0  0  0  0  0  0  0  0
   28.4734   12.7096   29.1328 C   0  0  0  0  0  0  0  0  0  0  0  0
   27.9064   11.1978   27.3863 C   0  0  0  0  0  0  0  0  0  0  0  0
   29.5751   13.6101   32.6038 C   0  0  0  0  0  0  0  0  0  0  0  0
   30.4887   14.7714   32.2964 C   0  0  0  0  0  0  0  0  0  0  0  0
   28.6184   13.3961   31.4582 C   0  0  0  0  0  0  0  0  0  0  0  0
   31.2020   14.5511   30.9843 C   0  0  0  0  0  0  0  0  0  0  0  0
   29.4138   13.1065   30.2121 C   0  0  0  0  0  0  0  0  0  0  0  0
   30.1736   14.3425   29.9385 N   0  0  0  0  0  0  0  0  0  0  0  0
   30.6287   14.2643   29.0291 H   0  0  0  0  0  0  0  0  0  0  0  0
   23.7106    7.7195   24.9770 C   0  0  0  0  0  0  0  0  0  0  0  0
   23.3240    6.7774   24.0583 N   0  0  0  0  0  0  0  0  0  0  0  0
   24.0177    7.5265   26.1469 O   0  0  0  0  0  0  0  0  0  0  0  0
   23.0987    7.0494   23.1393 H   0  0  0  0  0  0  0  0  0  0  0  0
   23.2718    5.8292   24.3178 H   0  0  0  0  0  0  0  0  0  0  0  0
 11 17  1  0  0  0
  1  2  2  0  0  0
  1  3  1  0  0  0
 12 13  2  0  0  0
 12 15  1  0  0  0
  2  4  1  0  0  0
 13 16  1  0  0  0
  3  6  2  0  0  0
 14 16  2  0  0  0
 14 17  1  0  0  0
 15 17  2  0  0  0
 15  7  1  0  0  0
  4  5  2  0  0  0
  4 25  1  0  0  0
 16 22  1  0  0  0
  5  6  1  0  0  0
  5  8  1  0  0  0
  6  9  1  0  0  0
  7  8  1  0  0  0
  7  9  2  0  0  0
 25 26  1  0  0  0
 25 27  2  0  0  0
 18 19  1  0  0  0
 18 20  1  0  0  0
 19 21  1  0  0  0
 20 22  1  0  0  0
 21 23  1  0  0  0
 22 23  1  0  0  0
  8 10  1  0  0  0
 23 24  1  0  0  0
 26 28  1  0  0  0
 26 29  1  0  0  0
M  END
> <minimizedAffinity>
-10.05468

$$$$
3L3M_A92_A_351


 29 32  0  0  0  0  0  0  0  0999 V2000
   31.3823   17.3451   24.8848 C   0  0  0  0  0  0  0  0  0  0  0  0
   30.6384   18.1161   24.0197 C   0  0  0  0  0  0  0  0  0  0  0  0
   30.9741   16.0941   25.2882 C   0  0  0  0  0  0  0  0  0  0  0  0
   29.4299   17.6772   23.5332 C   0  0  0  0  0  0  0  0  0  0  0  0
   29.0143   16.4340   23.9469 C   0  0  0  0  0  0  0  0  0  0  0  0
   29.7637   15.6468   24.7925 C   0  0  0  0  0  0  0  0  0  0  0  0
   27.9875   14.5095   24.3653 C   0  0  0  0  0  0  0  0  0  0  0  0
   27.9008   15.6902   23.6819 N   0  0  0  0  0  0  0  0  0  0  0  0
   29.1198   14.4661   25.0359 N   0  0  0  0  0  0  0  0  0  0  0  0
   27.1576   15.9597   23.0952 H   0  0  0  0  0  0  0  0  0  0  0  0
   28.4926   11.8093   23.6215 F   0  0  0  0  0  0  0  0  0  0  0  0
   25.6640   13.8054   24.6540 C   0  0  0  0  0  0  0  0  0  0  0  0
   24.6733   12.8486   24.5952 C   0  0  0  0  0  0  0  0  0  0  0  0
   26.2658   11.2370   23.8866 C   0  0  0  0  0  0  0  0  0  0  0  0
   26.9628   13.4903   24.3213 C   0  0  0  0  0  0  0  0  0  0  0  0
   24.9719   11.5618   24.2102 C   0  0  0  0  0  0  0  0  0  0  0  0
   27.2493   12.1945   23.9445 C   0  0  0  0  0  0  0  0  0  0  0  0
   23.2505    8.3151   24.9640 C   0  0  0  0  0  0  0  0  0  0  0  0
   22.8546    7.8976   23.5688 C   0  0  0  0  0  0  0  0  0  0  0  0
   24.3835    9.3078   24.8977 C   0  0  0  0  0  0  0  0  0  0  0  0
   22.5129    9.1062   22.7312 C   0  0  0  0  0  0  0  0  0  0  0  0
   23.9274   10.5100   24.1130 C   0  0  0  0  0  0  0  0  0  0  0  0
   23.6843   10.0129   22.7441 N   0  0  0  0  0  0  0  0  0  0  0  0
   23.5056   10.8035   22.1250 H   0  0  0  0  0  0  0  0  0  0  0  0
   28.6728   18.5181   22.6064 C   0  0  0  0  0  0  0  0  0  0  0  0
   29.4450   19.0503   21.6057 N   0  0  0  0  0  0  0  0  0  0  0  0
   27.4737   18.6932   22.7852 O   0  0  0  0  0  0  0  0  0  0  0  0
   30.4054   18.8390   21.5599 H   0  0  0  0  0  0  0  0  0  0  0  0
   29.0388   19.6435   20.9331 H   0  0  0  0  0  0  0  0  0  0  0  0
 11 17  1  0  0  0
  1  2  2  0  0  0
  1  3  1  0  0  0
 12 13  2  0  0  0
 12 15  1  0  0  0
  2  4  1  0  0  0
 13 16  1  0  0  0
  3  6  2  0  0  0
 14 16  2  0  0  0
 14 17  1  0  0  0
 15 17  2  0  0  0
 15  7  1  0  0  0
  4  5  2  0  0  0
  4 25  1  0  0  0
 16 22  1  0  0  0
  5  6  1  0  0  0
  5  8  1  0  0  0
  6  9  1  0  0  0
  7  8  1  0  0  0
  7  9  2  0  0  0
 25 26  1  0  0  0
 25 27  2  0  0  0
 18 19  1  0  0  0
 18 20  1  0  0  0
 19 21  1  0  0  0
 20 22  1  0  0  0
 21 23  1  0  0  0
 22 23  1  0  0  0
  8 10  1  0  0  0
 23 24  1  0  0  0
 26 28  1  0  0  0
 26 29  1  0  0  0
M  END
> <minimizedAffinity>
-9.69730

$$$$
3L3M_A92_A_351


 29 32  0  0  0  0  0  0  0  0999 V2000
   29.5198   14.3839   21.0408 C   0  0  0  0  0  0  0  0  0  0  0  0
   28.9117   15.4429   21.6774 C   0  0  0  0  0  0  0  0  0  0  0  0
   29.5046   13.1094   21.5603 C   0  0  0  0  0  0  0  0  0  0  0  0
   28.2758   15.2787   22.8850 C   0  0  0  0  0  0  0  0  0  0  0  0
   28.2727   14.0091   23.4118 C   0  0  0  0  0  0  0  0  0  0  0  0
   28.8573   12.9403   22.7699 C   0  0  0  0  0  0  0  0  0  0  0  0
   28.0446   12.1443   24.5966 C   0  0  0  0  0  0  0  0  0  0  0  0
   27.7563   13.4800   24.5593 N   0  0  0  0  0  0  0  0  0  0  0  0
   28.7044   11.8014   23.5099 N   0  0  0  0  0  0  0  0  0  0  0  0
   27.2583   13.9784   25.2469 H   0  0  0  0  0  0  0  0  0  0  0  0
   25.3652   11.2990   25.0502 F   0  0  0  0  0  0  0  0  0  0  0  0
   28.6062   10.8171   26.5716 C   0  0  0  0  0  0  0  0  0  0  0  0
   28.2463   10.0094   27.6292 C   0  0  0  0  0  0  0  0  0  0  0  0
   25.9797   10.0952   26.9289 C   0  0  0  0  0  0  0  0  0  0  0  0
   27.6561   11.2790   25.6880 C   0  0  0  0  0  0  0  0  0  0  0  0
   26.9314    9.6472   27.8109 C   0  0  0  0  0  0  0  0  0  0  0  0
   26.3428   10.9017   25.8778 C   0  0  0  0  0  0  0  0  0  0  0  0
   25.6429    6.5832   29.5500 C   0  0  0  0  0  0  0  0  0  0  0  0
   24.6909    7.2198   30.5328 C   0  0  0  0  0  0  0  0  0  0  0  0
   25.9019    7.5288   28.4045 C   0  0  0  0  0  0  0  0  0  0  0  0
   25.2227    8.5542   30.9969 C   0  0  0  0  0  0  0  0  0  0  0  0
   26.5024    8.7975   28.9513 C   0  0  0  0  0  0  0  0  0  0  0  0
   25.4498    9.3939   29.7977 N   0  0  0  0  0  0  0  0  0  0  0  0
   25.7402   10.3271   30.0895 H   0  0  0  0  0  0  0  0  0  0  0  0
   27.6303   16.4239   23.5261 C   0  0  0  0  0  0  0  0  0  0  0  0
   26.9406   17.2180   22.6460 N   0  0  0  0  0  0  0  0  0  0  0  0
   27.7552   16.5955   24.7325 O   0  0  0  0  0  0  0  0  0  0  0  0
   26.9076   16.9810   21.6910 H   0  0  0  0  0  0  0  0  0  0  0  0
   26.4785   18.0250   22.9691 H   0  0  0  0  0  0  0  0  0  0  0  0
 11 17  1  0  0  0
  1  2  2  0  0  0
  1  3  1  0  0  0
 12 13  2  0  0  0
 12 15  1  0  0  0
  2  4  1  0  0  0
 13 16  1  0  0  0
  3  6  2  0  0  0
 14 16  2  0  0  0
 14 17  1  0  0  0
 15 17  2  0  0  0
 15  7  1  0  0  0
  4  5  2  0  0  0
  4 25  1  0  0  0
 16 22  1  0  0  0
  5  6  1  0  0  0
  5  8  1  0  0  0
  6  9  1  0  0  0
  7  8  1  0  0  0
  7  9  2  0  0  0
 25 26  1  0  0  0
 25 27  2  0  0  0
 18 19  1  0  0  0
 18 20  1  0  0  0
 19 21  1  0  0  0
 20 22  1  0  0  0
 21 23  1  0  0  0
 22 23  1  0  0  0
  8 10  1  0  0  0
 23 24  1  0  0  0
 26 28  1  0  0  0
 26 29  1  0  0  0
M  END
> <minimizedAffinity>
-9.63091

$$$$
3L3M_A92_A_351


 29 32  0  0  0  0  0  0  0  0999 V2000
   22.2472    8.8169   23.2201 C   0  0  0  0  0  0  0  0  0  0  0  0
   22.8757    8.1890   24.2723 C   0  0  0  0  0  0  0  0  0  0  0  0
   22.6117   10.0734   22.7925 C   0  0  0  0  0  0  0  0  0  0  0  0
   23.8902    8.8043   24.9664 C   0  0  0  0  0  0  0  0  0  0  0  0
   24.2452   10.0651   24.5494 C   0  0  0  0  0  0  0  0  0  0  0  0
   23.6382   10.6900   23.4830 C   0  0  0  0  0  0  0  0  0  0  0  0
   25.1107   12.0819   24.2079 C   0  0  0  0  0  0  0  0  0  0  0  0
   25.1797   10.9596   24.9853 N   0  0  0  0  0  0  0  0  0  0  0  0
   24.1849   11.9268   23.2844 N   0  0  0  0  0  0  0  0  0  0  0  0
   25.8011   10.8195   25.7359 H   0  0  0  0  0  0  0  0  0  0  0  0
   27.9169   12.0769   23.7340 F   0  0  0  0  0  0  0  0  0  0  0  0
   25.4055   14.4234   24.8468 C   0  0  0  0  0  0  0  0  0  0  0  0
   26.2018   15.5277   25.0628 C   0  0  0  0  0  0  0  0  0  0  0  0
   28.1109   14.2884   24.3881 C   0  0  0  0  0  0  0  0  0  0  0  0
   25.9545   13.2389   24.4082 C   0  0  0  0  0  0  0  0  0  0  0  0
   27.5572   15.4625   24.8347 C   0  0  0  0  0  0  0  0  0  0  0  0
   27.3135   13.1899   24.1763 C   0  0  0  0  0  0  0  0  0  0  0  0
   28.5844   19.0678   24.9712 C   0  0  0  0  0  0  0  0  0  0  0  0
   29.9792   18.9652   24.4040 C   0  0  0  0  0  0  0  0  0  0  0  0
   27.7748   17.8655   24.5561 C   0  0  0  0  0  0  0  0  0  0  0  0
   30.6251   17.6652   24.8184 C   0  0  0  0  0  0  0  0  0  0  0  0
   28.4502   16.6243   25.0780 C   0  0  0  0  0  0  0  0  0  0  0  0
   29.7457   16.5595   24.3727 N   0  0  0  0  0  0  0  0  0  0  0  0
   30.1963   15.6674   24.5763 H   0  0  0  0  0  0  0  0  0  0  0  0
   24.5431    8.1020   26.0708 C   0  0  0  0  0  0  0  0  0  0  0  0
   24.3101    6.7505   26.0646 N   0  0  0  0  0  0  0  0  0  0  0  0
   25.2019    8.7332   26.8880 O   0  0  0  0  0  0  0  0  0  0  0  0
   23.7613    6.3488   25.3528 H   0  0  0  0  0  0  0  0  0  0  0  0
   24.6916    6.1820   26.7721 H   0  0  0  0  0  0  0  0  0  0  0  0
 11 17  1  0  0  0
  1  2  2  0  0  0
  1  3  1  0  0  0
 12 13  2  0  0  0
 12 15  1  0  0  0
  2  4  1  0  0  0
 13 16  1  0  0  0
  3  6  2  0  0  0
 14 16  2  0  0  0
 14 17  1  0  0  0
 15 17  2  0  0  0
 15  7  1  0  0  0
  4  5  2  0  0  0
  4 25  1  0  0  0
 16 22  1  0  0  0
  5  6  1  0  0  0
  5  8  1  0  0  0
  6  9  1  0  0  0
  7  8  1  0  0  0
  7  9  2  0  0  0
 25 26  1  0  0  0
 25 27  2  0  0  0
 18 19  1  0  0  0
 18 20  1  0  0  0
 19 21  1  0  0  0
 20 22  1  0  0  0
 21 23  1  0  0  0
 22 23  1  0  0  0
  8 10  1  0  0  0
 23 24  1  0  0  0
 26 28  1  0  0  0
 26 29  1  0  0  0
M  END
> <minimizedAffinity>
-9.57811

$$$$
3L3M_A92_A_351


 29 32  0  0  0  0  0  0  0  0999 V2000
   28.4740   13.0495   33.6510 C   0  0  0  0  0  0  0  0  0  0  0  0
   29.5454   13.5945   32.9793 C   0  0  0  0  0  0  0  0  0  0  0  0
   27.4528   12.3981   32.9972 C   0  0  0  0  0  0  0  0  0  0  0  0
   29.6333   13.5334   31.6087 C   0  0  0  0  0  0  0  0  0  0  0  0
   28.6067   12.8959   30.9536 C   0  0  0  0  0  0  0  0  0  0  0  0
   27.5441   12.3271   31.6198 C   0  0  0  0  0  0  0  0  0  0  0  0
   27.1748   11.9709   29.5299 C   0  0  0  0  0  0  0  0  0  0  0  0
   28.3570   12.6492   29.6345 N   0  0  0  0  0  0  0  0  0  0  0  0
   26.6757   11.7596   30.7299 N   0  0  0  0  0  0  0  0  0  0  0  0
   28.9334   12.9159   28.8823 H   0  0  0  0  0  0  0  0  0  0  0  0
   26.4719   13.8006   27.4664 F   0  0  0  0  0  0  0  0  0  0  0  0
   26.3754   10.2304   28.0102 C   0  0  0  0  0  0  0  0  0  0  0  0
   25.8102    9.8311   26.8179 C   0  0  0  0  0  0  0  0  0  0  0  0
   25.7048   12.0931   26.1054 C   0  0  0  0  0  0  0  0  0  0  0  0
   26.6025   11.5645   28.2657 C   0  0  0  0  0  0  0  0  0  0  0  0
   25.4725   10.7621   25.8627 C   0  0  0  0  0  0  0  0  0  0  0  0
   26.2663   12.4863   27.2960 C   0  0  0  0  0  0  0  0  0  0  0  0
   23.4870   11.1998   22.7102 C   0  0  0  0  0  0  0  0  0  0  0  0
   22.6894    9.9187   22.7221 C   0  0  0  0  0  0  0  0  0  0  0  0
   23.9752   11.5102   24.1026 C   0  0  0  0  0  0  0  0  0  0  0  0
   23.5048    8.7927   23.3105 C   0  0  0  0  0  0  0  0  0  0  0  0
   24.8409   10.3719   24.5761 C   0  0  0  0  0  0  0  0  0  0  0  0
   23.9386    9.2067   24.6651 N   0  0  0  0  0  0  0  0  0  0  0  0
   24.4300    8.4331   25.1129 H   0  0  0  0  0  0  0  0  0  0  0  0
   30.7921   14.1126   30.9299 C   0  0  0  0  0  0  0  0  0  0  0  0
   31.9449   14.0367   31.6690 N   0  0  0  0  0  0  0  0  0  0  0  0
   30.6595   14.6116   29.8192 O   0  0  0  0  0  0  0  0  0  0  0  0
   31.9337   13.6099   32.5561 H   0  0  0  0  0  0  0  0  0  0  0  0
   32.7836   14.4089   31.3124 H   0  0  0  0  0  0  0  0  0  0  0  0
 11 17  1  0  0  0
  1  2  2  0  0  0
  1  3  1  0  0  0
 12 13  2  0  0  0
 12 15  1  0  0  0
  2  4  1  0  0  0
 13 16  1  0  0  0
  3  6  2  0  0  0
 14 16  2  0  0  0
 14 17  1  0  0  0
 15 17  2  0  0  0
 15  7  1  0  0  0
  4  5  2  0  0  0
  4 25  1  0  0  0
 16 22  1  0  0  0
  5  6  1  0  0  0
  5  8  1  0  0  0
  6  9  1  0  0  0
  7  8  1  0  0  0
  7  9  2  0  0  0
 25 26  1  0  0  0
 25 27  2  0  0  0
 18 19  1  0  0  0
 18 20  1  0  0  0
 19 21  1  0  0  0
 20 22  1  0  0  0
 21 23  1  0  0  0
 22 23  1  0  0  0
  8 10  1  0  0  0
 23 24  1  0  0  0
 26 28  1  0  0  0
 26 29  1  0  0  0
M  END
> <minimizedAffinity>
-9.29495

$$$$
3L3M_A92_A_351


 29 32  0  0  0  0  0  0  0  0999 V2000
   30.3964   13.5057   32.2980 C   0  0  0  0  0  0  0  0  0  0  0  0
   29.2255   13.5955   33.0172 C   0  0  0  0  0  0  0  0  0  0  0  0
   30.4185   13.1129   30.9789 C   0  0  0  0  0  0  0  0  0  0  0  0
   28.0152   13.2704   32.4521 C   0  0  0  0  0  0  0  0  0  0  0  0
   28.0378   12.8640   31.1391 C   0  0  0  0  0  0  0  0  0  0  0  0
   29.2014   12.7949   30.4060 C   0  0  0  0  0  0  0  0  0  0  0  0
   27.6370   12.1645   29.0696 C   0  0  0  0  0  0  0  0  0  0  0  0
   27.0608   12.4709   30.2707 N   0  0  0  0  0  0  0  0  0  0  0  0
   28.9363   12.3671   29.1353 N   0  0  0  0  0  0  0  0  0  0  0  0
   26.0994   12.4170   30.4757 H   0  0  0  0  0  0  0  0  0  0  0  0
   26.9033    9.4418   28.6847 F   0  0  0  0  0  0  0  0  0  0  0  0
   26.4848   12.5856   26.9547 C   0  0  0  0  0  0  0  0  0  0  0  0
   25.7875   12.1487   25.8487 C   0  0  0  0  0  0  0  0  0  0  0  0
   25.8637    9.9242   26.6740 C   0  0  0  0  0  0  0  0  0  0  0  0
   26.8862   11.6957   27.9262 C   0  0  0  0  0  0  0  0  0  0  0  0
   25.4760   10.8161   25.7052 C   0  0  0  0  0  0  0  0  0  0  0  0
   26.5604   10.3639   27.7733 C   0  0  0  0  0  0  0  0  0  0  0  0
   23.1789   10.9319   22.7417 C   0  0  0  0  0  0  0  0  0  0  0  0
   22.4549    9.6196   22.9191 C   0  0  0  0  0  0  0  0  0  0  0  0
   23.7805   11.3647   24.0548 C   0  0  0  0  0  0  0  0  0  0  0  0
   23.3809    8.5781   23.4993 C   0  0  0  0  0  0  0  0  0  0  0  0
   24.7463   10.3049   24.5167 C   0  0  0  0  0  0  0  0  0  0  0  0
   23.9193    9.1089   24.7732 N   0  0  0  0  0  0  0  0  0  0  0  0
   24.4913    8.3933   25.2218 H   0  0  0  0  0  0  0  0  0  0  0  0
   26.7905   13.3896   33.2427 C   0  0  0  0  0  0  0  0  0  0  0  0
   26.9194   14.2356   34.3144 N   0  0  0  0  0  0  0  0  0  0  0  0
   25.7956   12.7508   32.9227 O   0  0  0  0  0  0  0  0  0  0  0  0
   27.7726   14.6995   34.4755 H   0  0  0  0  0  0  0  0  0  0  0  0
   26.1586   14.3791   34.9226 H   0  0  0  0  0  0  0  0  0  0  0  0
 11 17  1  0  0  0
  1  2  2  0  0  0
  1  3  1  0  0  0
 12 13  2  0  0  0
 12 15  1  0  0  0
  2  4  1  0  0  0
 13 16  1  0  0  0
  3  6  2  0  0  0
 14 16  2  0  0  0
 14 17  1  0  0  0
 15 17  2  0  0  0
 15  7  1  0  0  0
  4  5  2  0  0  0
  4 25  1  0  0  0
 16 22  1  0  0  0
  5  6  1  0  0  0
  5  8  1  0  0  0
  6  9  1  0  0  0
  7  8  1  0  0  0
  7  9  2  0  0  0
 25 26  1  0  0  0
 25 27  2  0  0  0
 18 19  1  0  0  0
 18 20  1  0  0  0
 19 21  1  0  0  0
 20 22  1  0  0  0
 21 23  1  0  0  0
 22 23  1  0  0  0
  8 10  1  0  0  0
 23 24  1  0  0  0
 26 28  1  0  0  0
 26 29  1  0  0  0
M  END
> <minimizedAffinity>
-9.29359

$$$$
3L3M_A92_A_351


 29 32  0  0  0  0  0  0  0  0999 V2000
   24.4213    8.1742   26.1203 C   0  0  0  0  0  0  0  0  0  0  0  0
   23.5859    8.3056   25.0336 C   0  0  0  0  0  0  0  0  0  0  0  0
   25.3701    9.1205   26.4347 C   0  0  0  0  0  0  0  0  0  0  0  0
   23.6782    9.3873   24.1903 C   0  0  0  0  0  0  0  0  0  0  0  0
   24.6353   10.3258   24.4949 C   0  0  0  0  0  0  0  0  0  0  0  0
   25.4581   10.2138   25.5934 C   0  0  0  0  0  0  0  0  0  0  0  0
   26.0336   12.0466   24.6236 C   0  0  0  0  0  0  0  0  0  0  0  0
   25.0102   11.4972   23.9029 N   0  0  0  0  0  0  0  0  0  0  0  0
   26.3085   11.2818   25.6596 N   0  0  0  0  0  0  0  0  0  0  0  0
   24.6095   11.8829   23.0905 H   0  0  0  0  0  0  0  0  0  0  0  0
   28.7410   12.2095   23.7615 F   0  0  0  0  0  0  0  0  0  0  0  0
   25.9813   14.4724   24.3227 C   0  0  0  0  0  0  0  0  0  0  0  0
   26.5930   15.6655   24.0020 C   0  0  0  0  0  0  0  0  0  0  0  0
   28.6135   14.5094   23.5367 C   0  0  0  0  0  0  0  0  0  0  0  0
   26.6813   13.2879   24.2623 C   0  0  0  0  0  0  0  0  0  0  0  0
   27.9115   15.6869   23.6090 C   0  0  0  0  0  0  0  0  0  0  0  0
   28.0002   13.3232   23.8593 C   0  0  0  0  0  0  0  0  0  0  0  0
   29.1236   18.5092   21.4556 C   0  0  0  0  0  0  0  0  0  0  0  0
   30.5361   18.6439   21.9696 C   0  0  0  0  0  0  0  0  0  0  0  0
   28.5898   17.1375   21.7829 C   0  0  0  0  0  0  0  0  0  0  0  0
   30.5929   18.3417   23.4476 C   0  0  0  0  0  0  0  0  0  0  0  0
   28.6107   16.9550   23.2781 C   0  0  0  0  0  0  0  0  0  0  0  0
   30.0381   16.9838   23.6545 N   0  0  0  0  0  0  0  0  0  0  0  0
   30.1329   16.7269   24.6370 H   0  0  0  0  0  0  0  0  0  0  0  0
   22.7660    9.4997   23.0526 C   0  0  0  0  0  0  0  0  0  0  0  0
   21.6724    8.6783   23.1537 N   0  0  0  0  0  0  0  0  0  0  0  0
   23.0326   10.2631   22.1326 O   0  0  0  0  0  0  0  0  0  0  0  0
   21.5603    8.1031   23.9448 H   0  0  0  0  0  0  0  0  0  0  0  0
   20.9995    8.6639   22.4353 H   0  0  0  0  0  0  0  0  0  0  0  0
 11 17  1  0  0  0
  1  2  2  0  0  0
  1  3  1  0  0  0
 12 13  2  0  0  0
 12 15  1  0  0  0
  2  4  1  0  0  0
 13 16  1  0  0  0
  3  6  2  0  0  0
 14 16  2  0  0  0
 14 17  1  0  0  0
 15 17  2  0  0  0
 15  7  1  0  0  0
  4  5  2  0  0  0
  4 25  1  0  0  0
 16 22  1  0  0  0
  5  6  1  0  0  0
  5  8  1  0  0  0
  6  9  1  0  0  0
  7  8  1  0  0  0
  7  9  2  0  0  0
 25 26  1  0  0  0
 25 27  2  0  0  0
 18 19  1  0  0  0
 18 20  1  0  0  0
 19 21  1  0  0  0
 20 22  1  0  0  0
 21 23  1  0  0  0
 22 23  1  0  0  0
  8 10  1  0  0  0
 23 24  1  0  0  0
 26 28  1  0  0  0
 26 29  1  0  0  0
M  END
> <minimizedAffinity>
-9.25220

$$$$
3L3M_A92_A_351


 29 32  0  0  0  0  0  0  0  0999 V2000
   30.0698   18.5718   20.2855 C   0  0  0  0  0  0  0  0  0  0  0  0
   31.1237   18.8310   21.1330 C   0  0  0  0  0  0  0  0  0  0  0  0
   29.1925   17.5336   20.5024 C   0  0  0  0  0  0  0  0  0  0  0  0
   31.3646   18.0423   22.2329 C   0  0  0  0  0  0  0  0  0  0  0  0
   30.4976   16.9964   22.4424 C   0  0  0  0  0  0  0  0  0  0  0  0
   29.4272   16.7451   21.6132 C   0  0  0  0  0  0  0  0  0  0  0  0
   29.3529   15.2224   23.1320 C   0  0  0  0  0  0  0  0  0  0  0  0
   30.4243   16.0275   23.4011 N   0  0  0  0  0  0  0  0  0  0  0  0
   28.7322   15.6539   22.0539 N   0  0  0  0  0  0  0  0  0  0  0  0
   31.0416   15.9253   24.1613 H   0  0  0  0  0  0  0  0  0  0  0  0
   29.5220   12.5322   22.2188 F   0  0  0  0  0  0  0  0  0  0  0  0
   28.5470   14.2677   25.2337 C   0  0  0  0  0  0  0  0  0  0  0  0
   28.1810   13.1900   26.0115 C   0  0  0  0  0  0  0  0  0  0  0  0
   28.7197   11.7159   24.2305 C   0  0  0  0  0  0  0  0  0  0  0  0
   28.9941   14.0812   23.9444 C   0  0  0  0  0  0  0  0  0  0  0  0
   28.2656   11.9111   25.5111 C   0  0  0  0  0  0  0  0  0  0  0  0
   29.0812   12.7931   23.4583 C   0  0  0  0  0  0  0  0  0  0  0  0
   25.9234    9.4878   27.1586 C   0  0  0  0  0  0  0  0  0  0  0  0
   26.6198    9.3103   28.4857 C   0  0  0  0  0  0  0  0  0  0  0  0
   26.3674   10.7784   26.5177 C   0  0  0  0  0  0  0  0  0  0  0  0
   28.1177    9.3811   28.3114 C   0  0  0  0  0  0  0  0  0  0  0  0
   27.8587   10.7274   26.3111 C   0  0  0  0  0  0  0  0  0  0  0  0
   28.4387   10.6762   27.6679 N   0  0  0  0  0  0  0  0  0  0  0  0
   29.4515   10.7800   27.6058 H   0  0  0  0  0  0  0  0  0  0  0  0
   32.4862   18.3551   23.1179 C   0  0  0  0  0  0  0  0  0  0  0  0
   32.0918   18.7697   24.3642 N   0  0  0  0  0  0  0  0  0  0  0  0
   33.6345   18.2476   22.7054 O   0  0  0  0  0  0  0  0  0  0  0  0
   31.1339   18.8178   24.5867 H   0  0  0  0  0  0  0  0  0  0  0  0
   32.7664   19.0192   25.0364 H   0  0  0  0  0  0  0  0  0  0  0  0
 11 17  1  0  0  0
  1  2  2  0  0  0
  1  3  1  0  0  0
 12 13  2  0  0  0
 12 15  1  0  0  0
  2  4  1  0  0  0
 13 16  1  0  0  0
  3  6  2  0  0  0
 14 16  2  0  0  0
 14 17  1  0  0  0
 15 17  2  0  0  0
 15  7  1  0  0  0
  4  5  2  0  0  0
  4 25  1  0  0  0
 16 22  1  0  0  0
  5  6  1  0  0  0
  5  8  1  0  0  0
  6  9  1  0  0  0
  7  8  1  0  0  0
  7  9  2  0  0  0
 25 26  1  0  0  0
 25 27  2  0  0  0
 18 19  1  0  0  0
 18 20  1  0  0  0
 19 21  1  0  0  0
 20 22  1  0  0  0
 21 23  1  0  0  0
 22 23  1  0  0  0
  8 10  1  0  0  0
 23 24  1  0  0  0
 26 28  1  0  0  0
 26 29  1  0  0  0
M  END
> <minimizedAffinity>
-9.04110

$$$$
3L3M_A92_A_351


 29 32  0  0  0  0  0  0  0  0999 V2000
   29.2635   16.8798   21.7432 C   0  0  0  0  0  0  0  0  0  0  0  0
   30.4662   16.8631   22.4137 C   0  0  0  0  0  0  0  0  0  0  0  0
   28.2244   16.0423   22.0802 C   0  0  0  0  0  0  0  0  0  0  0  0
   30.6950   15.9838   23.4453 C   0  0  0  0  0  0  0  0  0  0  0  0
   29.6631   15.1370   23.7731 C   0  0  0  0  0  0  0  0  0  0  0  0
   28.4491   15.1640   23.1236 C   0  0  0  0  0  0  0  0  0  0  0  0
   28.2781   13.6135   24.6061 C   0  0  0  0  0  0  0  0  0  0  0  0
   29.5281   14.1564   24.7130 N   0  0  0  0  0  0  0  0  0  0  0  0
   27.6085   14.2240   23.6507 N   0  0  0  0  0  0  0  0  0  0  0  0
   30.2175   13.8848   25.3612 H   0  0  0  0  0  0  0  0  0  0  0  0
   25.5276   13.1522   25.1732 F   0  0  0  0  0  0  0  0  0  0  0  0
   28.7092   11.6604   26.0123 C   0  0  0  0  0  0  0  0  0  0  0  0
   28.2760   10.6397   26.8313 C   0  0  0  0  0  0  0  0  0  0  0  0
   26.0282   11.3350   26.5162 C   0  0  0  0  0  0  0  0  0  0  0  0
   27.8078   12.5335   25.4447 C   0  0  0  0  0  0  0  0  0  0  0  0
   26.9338   10.4751   27.0861 C   0  0  0  0  0  0  0  0  0  0  0  0
   26.4648   12.3520   25.7024 C   0  0  0  0  0  0  0  0  0  0  0  0
   27.1197    7.7027   29.6063 C   0  0  0  0  0  0  0  0  0  0  0  0
   26.1497    6.7235   28.9915 C   0  0  0  0  0  0  0  0  0  0  0  0
   27.6129    8.6622   28.5529 C   0  0  0  0  0  0  0  0  0  0  0  0
   25.0214    7.4554   28.3059 C   0  0  0  0  0  0  0  0  0  0  0  0
   26.4314    9.4015   27.9814 C   0  0  0  0  0  0  0  0  0  0  0  0
   25.6168    8.3719   27.3059 N   0  0  0  0  0  0  0  0  0  0  0  0
   24.8711    8.8250   26.7776 H   0  0  0  0  0  0  0  0  0  0  0  0
   31.9805   16.0030   24.1428 C   0  0  0  0  0  0  0  0  0  0  0  0
   32.9889   16.5644   23.4018 N   0  0  0  0  0  0  0  0  0  0  0  0
   32.0683   15.5297   25.2690 O   0  0  0  0  0  0  0  0  0  0  0  0
   32.8013   16.9153   22.5013 H   0  0  0  0  0  0  0  0  0  0  0  0
   33.9003   16.6164   23.7705 H   0  0  0  0  0  0  0  0  0  0  0  0
 11 17  1  0  0  0
  1  2  2  0  0  0
  1  3  1  0  0  0
 12 13  2  0  0  0
 12 15  1  0  0  0
  2  4  1  0  0  0
 13 16  1  0  0  0
  3  6  2  0  0  0
 14 16  2  0  0  0
 14 17  1  0  0  0
 15 17  2  0  0  0
 15  7  1  0  0  0
  4  5  2  0  0  0
  4 25  1  0  0  0
 16 22  1  0  0  0
  5  6  1  0  0  0
  5  8  1  0  0  0
  6  9  1  0  0  0
  7  8  1  0  0  0
  7  9  2  0  0  0
 25 26  1  0  0  0
 25 27  2  0  0  0
 18 19  1  0  0  0
 18 20  1  0  0  0
 19 21  1  0  0  0
 20 22  1  0  0  0
 21 23  1  0  0  0
 22 23  1  0  0  0
  8 10  1  0  0  0
 23 24  1  0  0  0
 26 28  1  0  0  0
 26 29  1  0  0  0
M  END
> <minimizedAffinity>
-8.66936

$$$$
