1CTU_ZEB_A_295


 22 23  0  0  0  0  0  0  0  0999 V2000
   35.8629   50.2951    9.6538 C   0  0  0  0  0  0  0  0  0  0  0  0
   36.0056   51.5866    8.8880 C   0  0  0  0  0  0  0  0  0  0  0  0
   37.2253   51.5114    8.0862 O   0  0  0  0  0  0  0  0  0  0  0  0
   36.0874   52.5160   10.0371 C   0  0  0  0  0  0  0  0  0  0  0  0
   37.4039   52.8721   10.3515 O   0  0  0  0  0  0  0  0  0  0  0  0
   35.4511   51.7712   11.2005 C   0  0  0  0  0  0  0  0  0  0  0  0
   35.8167   50.4045   11.0660 O   0  0  0  0  0  0  0  0  0  0  0  0
   37.9725   51.2708    8.6560 H   0  0  0  0  0  0  0  0  0  0  0  0
   37.9115   52.0746   10.5689 H   0  0  0  0  0  0  0  0  0  0  0  0
   35.5217   48.7043    9.5113 N   0  0  0  0  0  0  0  0  0  0  0  0
   36.2929   48.0556    8.6545 C   0  0  0  0  0  0  0  0  0  0  0  0
   37.3652   48.5448    8.3354 O   0  0  0  0  0  0  0  0  0  0  0  0
   35.8973   46.8698    8.1651 N   0  0  0  0  0  0  0  0  0  0  0  0
   34.6731   46.2519    8.6100 C   0  0  0  0  0  0  0  0  0  0  0  0
   33.5571   45.9249    7.3914 O   0  0  0  0  0  0  0  0  0  0  0  0
   33.8826   47.0775    9.5589 C   0  0  0  0  0  0  0  0  0  0  0  0
   34.3396   48.2690    9.9501 C   0  0  0  0  0  0  0  0  0  0  0  0
   36.4523   46.4147    7.4913 H   0  0  0  0  0  0  0  0  0  0  0  0
   33.2313   46.7592    7.0189 H   0  0  0  0  0  0  0  0  0  0  0  0
   34.0196   52.0094   11.3994 C   0  0  0  0  0  0  0  0  0  0  0  0
   33.6211   50.9740   12.2885 O   0  0  0  0  0  0  0  0  0  0  0  0
   33.8286   50.1121   11.8948 H   0  0  0  0  0  0  0  0  0  0  0  0
 10 11  1  0  0  0
 10 17  1  0  0  0
 10  1  1  0  0  0
 11 12  2  0  0  0
 11 13  1  0  0  0
 13 14  1  0  0  0
 14 15  1  0  0  0
 14 16  1  0  0  0
 16 17  2  0  0  0
  1  2  1  0  0  0
  1  7  1  0  0  0
  2  3  1  0  0  0
  2  4  1  0  0  0
  4  5  1  0  0  0
  4  6  1  0  0  0
  6  7  1  0  0  0
  6 20  1  0  0  0
 20 21  1  0  0  0
 13 18  1  0  0  0
 15 19  1  0  0  0
  3  8  1  0  0  0
  5  9  1  0  0  0
 21 22  1  0  0  0
M  END
> <minimizedAffinity>
-10.36017

$$$$
1CTU_ZEB_A_295


 22 23  0  0  0  0  0  0  0  0999 V2000
   35.2346   50.2045   10.5034 C   0  0  0  0  0  0  0  0  0  0  0  0
   36.0741   51.1844   11.2842 C   0  0  0  0  0  0  0  0  0  0  0  0
   36.2055   50.6870   12.6523 O   0  0  0  0  0  0  0  0  0  0  0  0
   35.2053   52.3752   11.1491 C   0  0  0  0  0  0  0  0  0  0  0  0
   34.3986   52.5860   12.2731 O   0  0  0  0  0  0  0  0  0  0  0  0
   34.3436   52.1052    9.9254 C   0  0  0  0  0  0  0  0  0  0  0  0
   34.0444   50.7160    9.9288 O   0  0  0  0  0  0  0  0  0  0  0  0
   35.3253   50.4992   13.0140 H   0  0  0  0  0  0  0  0  0  0  0  0
   33.8324   51.8112   12.4147 H   0  0  0  0  0  0  0  0  0  0  0  0
   35.2224   48.7166    9.8302 N   0  0  0  0  0  0  0  0  0  0  0  0
   36.0865   48.5583    8.8413 C   0  0  0  0  0  0  0  0  0  0  0  0
   37.0270   49.3314    8.7475 O   0  0  0  0  0  0  0  0  0  0  0  0
   35.9289   47.5476    7.9720 N   0  0  0  0  0  0  0  0  0  0  0  0
   34.8696   46.5834    8.1355 C   0  0  0  0  0  0  0  0  0  0  0  0
   33.8116   46.4603    6.8305 O   0  0  0  0  0  0  0  0  0  0  0  0
   33.9528   46.8705    9.2686 C   0  0  0  0  0  0  0  0  0  0  0  0
   34.1667   47.9313   10.0499 C   0  0  0  0  0  0  0  0  0  0  0  0
   36.5469   47.4633    7.2103 H   0  0  0  0  0  0  0  0  0  0  0  0
   33.3120   47.2869    6.7402 H   0  0  0  0  0  0  0  0  0  0  0  0
   34.8639   52.6204    8.6569 C   0  0  0  0  0  0  0  0  0  0  0  0
   36.1614   52.0468    8.5614 O   0  0  0  0  0  0  0  0  0  0  0  0
   36.6851   52.3010    9.3373 H   0  0  0  0  0  0  0  0  0  0  0  0
 10 11  1  0  0  0
 10 17  1  0  0  0
 10  1  1  0  0  0
 11 12  2  0  0  0
 11 13  1  0  0  0
 13 14  1  0  0  0
 14 15  1  0  0  0
 14 16  1  0  0  0
 16 17  2  0  0  0
  1  2  1  0  0  0
  1  7  1  0  0  0
  2  3  1  0  0  0
  2  4  1  0  0  0
  4  5  1  0  0  0
  4  6  1  0  0  0
  6  7  1  0  0  0
  6 20  1  0  0  0
 20 21  1  0  0  0
 13 18  1  0  0  0
 15 19  1  0  0  0
  3  8  1  0  0  0
  5  9  1  0  0  0
 21 22  1  0  0  0
M  END
> <minimizedAffinity>
-7.59387

$$$$
