4PNU_2VD_A_405


 35 38  0  0  0  0  0  0  0  0999 V2000
   10.7044   -4.9264   -8.5988 C   0  0  0  0  0  0  0  0  0  0  0  0
   11.3142   -6.2736   -8.2956 C   0  0  0  0  0  0  0  0  0  0  0  0
   12.2986   -6.6567   -9.3711 C   0  0  0  0  0  0  0  0  0  0  0  0
   11.5683   -6.8520  -10.6670 C   0  0  0  0  0  0  0  0  0  0  0  0
   10.5415   -5.8715  -10.8298 C   0  0  0  0  0  0  0  0  0  0  0  0
   10.1384   -4.9792   -9.8938 C   0  0  0  0  0  0  0  0  0  0  0  0
    9.1570   -4.2165  -10.4349 C   0  0  0  0  0  0  0  0  0  0  0  0
    8.4056   -3.2049   -9.9362 C   0  0  0  0  0  0  0  0  0  0  0  0
    7.4372   -2.5722  -10.7249 C   0  0  0  0  0  0  0  0  0  0  0  0
    6.3305   -1.1768  -10.1189 Br  0  0  0  0  0  0  0  0  0  0  0  0
    7.2569   -3.0109  -12.0301 C   0  0  0  0  0  0  0  0  0  0  0  0
    8.0406   -4.0553  -12.5013 C   0  0  0  0  0  0  0  0  0  0  0  0
    8.9665   -4.6296  -11.7047 C   0  0  0  0  0  0  0  0  0  0  0  0
    9.8096   -5.6353  -11.9289 N   0  0  0  0  0  0  0  0  0  0  0  0
   13.0903   -7.9390   -8.9464 C   0  0  0  0  0  0  0  0  0  0  0  0
   14.2709   -8.0127   -9.3565 O   0  0  0  0  0  0  0  0  0  0  0  0
   12.5277   -8.8302   -8.2539 O   0  0  0  0  0  0  0  0  0  0  0  0
   14.6334   -7.3165   -9.8682 H   0  0  0  0  0  0  0  0  0  0  0  0
    9.9330   -6.3822  -13.2132 C   0  0  0  0  0  0  0  0  0  0  0  0
   11.2434   -6.0845  -13.9851 C   0  0  0  0  0  0  0  0  0  0  0  0
   11.7683   -6.9840  -14.6301 O   0  0  0  0  0  0  0  0  0  0  0  0
   11.7953   -4.8562  -13.9167 N   0  0  0  0  0  0  0  0  0  0  0  0
   11.3612   -4.1524  -13.3824 H   0  0  0  0  0  0  0  0  0  0  0  0
   13.0530   -4.5617  -14.6429 C   0  0  0  0  0  0  0  0  0  0  0  0
   12.7887   -3.8305  -15.9726 C   0  0  0  0  0  0  0  0  0  0  0  0
   11.8392   -3.0196  -16.0279 O   0  0  0  0  0  0  0  0  0  0  0  0
   13.5667   -4.0960  -16.9117 O   0  0  0  0  0  0  0  0  0  0  0  0
   11.3003   -2.8772  -15.2748 H   0  0  0  0  0  0  0  0  0  0  0  0
   13.9659   -3.6985  -13.7610 C   0  0  0  0  0  0  0  0  0  0  0  0
   15.0311   -4.5531  -13.4151 C   0  0  0  0  0  0  0  0  0  0  0  0
   16.3321   -4.2198  -13.8044 C   0  0  0  0  0  0  0  0  0  0  0  0
   17.4009   -5.0567  -13.4872 C   0  0  0  0  0  0  0  0  0  0  0  0
   17.1789   -6.2330  -12.7733 C   0  0  0  0  0  0  0  0  0  0  0  0
   15.8866   -6.5728  -12.3863 C   0  0  0  0  0  0  0  0  0  0  0  0
   14.8078   -5.7346  -12.7007 C   0  0  0  0  0  0  0  0  0  0  0  0
 33 32  2  0  0  0
 33 34  1  0  0  0
 32 31  1  0  0  0
 34 35  2  0  0  0
 21 20  2  0  0  0
 31 30  2  0  0  0
 19 20  1  0  0  0
 19 14  1  0  0  0
 35 30  1  0  0  0
 20 22  1  0  0  0
 12 11  2  0  0  0
 12 13  1  0  0  0
 30 29  1  0  0  0
 14 13  1  0  0  0
 14  5  1  0  0  0
 11  9  1  0  0  0
 13  7  2  0  0  0
 22 24  1  0  0  0
  5  4  1  0  0  0
  5  6  2  0  0  0
  4  3  1  0  0  0
 24 29  1  0  0  0
 24 25  1  0  0  0
  9  8  2  0  0  0
  9 10  1  0  0  0
  7  6  1  0  0  0
  7  8  1  0  0  0
  6  1  1  0  0  0
  3 15  1  0  0  0
  3  2  1  0  0  0
 17 15  2  0  0  0
 15 16  1  0  0  0
 25 27  2  0  0  0
 25 26  1  0  0  0
  1  2  1  0  0  0
 16 18  1  0  0  0
 22 23  1  0  0  0
 26 28  1  0  0  0
M  END
> <minimizedAffinity>
-7.51588

$$$$
4PNU_2VD_A_405


 35 38  0  0  0  0  0  0  0  0999 V2000
   10.8155   -4.8010   -8.7160 C   0  0  0  0  0  0  0  0  0  0  0  0
   11.4344   -6.1159   -8.3077 C   0  0  0  0  0  0  0  0  0  0  0  0
   12.2462   -6.6871   -9.4423 C   0  0  0  0  0  0  0  0  0  0  0  0
   11.3335   -7.0331  -10.5817 C   0  0  0  0  0  0  0  0  0  0  0  0
   10.3146   -6.0439  -10.7411 C   0  0  0  0  0  0  0  0  0  0  0  0
   10.0686   -5.0126   -9.8980 C   0  0  0  0  0  0  0  0  0  0  0  0
    9.0358   -4.2941  -10.4026 C   0  0  0  0  0  0  0  0  0  0  0  0
    8.3848   -3.1922   -9.9568 C   0  0  0  0  0  0  0  0  0  0  0  0
    7.3266   -2.6378  -10.6868 C   0  0  0  0  0  0  0  0  0  0  0  0
    6.3475   -1.1263  -10.1424 Br  0  0  0  0  0  0  0  0  0  0  0  0
    6.9517   -3.2484  -11.8764 C   0  0  0  0  0  0  0  0  0  0  0  0
    7.6378   -4.3802  -12.2949 C   0  0  0  0  0  0  0  0  0  0  0  0
    8.6564   -4.8741  -11.5598 C   0  0  0  0  0  0  0  0  0  0  0  0
    9.4375   -5.9352  -11.7503 N   0  0  0  0  0  0  0  0  0  0  0  0
   13.0639   -7.9282   -8.9498 C   0  0  0  0  0  0  0  0  0  0  0  0
   14.2482   -7.9955   -9.3498 O   0  0  0  0  0  0  0  0  0  0  0  0
   12.5172   -8.7962   -8.2161 O   0  0  0  0  0  0  0  0  0  0  0  0
   14.5982   -7.3178   -9.8940 H   0  0  0  0  0  0  0  0  0  0  0  0
    9.3598   -6.8602  -12.9168 C   0  0  0  0  0  0  0  0  0  0  0  0
   10.3377   -6.5017  -14.0642 C   0  0  0  0  0  0  0  0  0  0  0  0
   11.3398   -7.1878  -14.2246 O   0  0  0  0  0  0  0  0  0  0  0  0
   10.0860   -5.4338  -14.8480 N   0  0  0  0  0  0  0  0  0  0  0  0
    9.2800   -4.8903  -14.6924 H   0  0  0  0  0  0  0  0  0  0  0  0
   11.0181   -5.0752  -15.9427 C   0  0  0  0  0  0  0  0  0  0  0  0
   10.3165   -5.0705  -17.3139 C   0  0  0  0  0  0  0  0  0  0  0  0
    9.3001   -5.7820  -17.4652 O   0  0  0  0  0  0  0  0  0  0  0  0
   10.8161   -4.3308  -18.1861 O   0  0  0  0  0  0  0  0  0  0  0  0
    8.9887   -6.3108  -16.7572 H   0  0  0  0  0  0  0  0  0  0  0  0
   11.6176   -3.6879  -15.6738 C   0  0  0  0  0  0  0  0  0  0  0  0
   12.8624   -3.9537  -15.0699 C   0  0  0  0  0  0  0  0  0  0  0  0
   13.0538   -3.6316  -13.7227 C   0  0  0  0  0  0  0  0  0  0  0  0
   14.2812   -3.8710  -13.1065 C   0  0  0  0  0  0  0  0  0  0  0  0
   15.3275   -4.4393  -13.8312 C   0  0  0  0  0  0  0  0  0  0  0  0
   15.1451   -4.7583  -15.1729 C   0  0  0  0  0  0  0  0  0  0  0  0
   13.9128   -4.5217  -15.7979 C   0  0  0  0  0  0  0  0  0  0  0  0
 33 32  2  0  0  0
 33 34  1  0  0  0
 32 31  1  0  0  0
 34 35  2  0  0  0
 21 20  2  0  0  0
 31 30  2  0  0  0
 19 20  1  0  0  0
 19 14  1  0  0  0
 35 30  1  0  0  0
 20 22  1  0  0  0
 12 11  2  0  0  0
 12 13  1  0  0  0
 30 29  1  0  0  0
 14 13  1  0  0  0
 14  5  1  0  0  0
 11  9  1  0  0  0
 13  7  2  0  0  0
 22 24  1  0  0  0
  5  4  1  0  0  0
  5  6  2  0  0  0
  4  3  1  0  0  0
 24 29  1  0  0  0
 24 25  1  0  0  0
  9  8  2  0  0  0
  9 10  1  0  0  0
  7  6  1  0  0  0
  7  8  1  0  0  0
  6  1  1  0  0  0
  3 15  1  0  0  0
  3  2  1  0  0  0
 17 15  2  0  0  0
 15 16  1  0  0  0
 25 27  2  0  0  0
 25 26  1  0  0  0
  1  2  1  0  0  0
 16 18  1  0  0  0
 22 23  1  0  0  0
 26 28  1  0  0  0
M  END
> <minimizedAffinity>
-7.31553

$$$$
4PNU_2VD_A_405


 35 38  0  0  0  0  0  0  0  0999 V2000
   10.8848   -4.7868   -8.8136 C   0  0  0  0  0  0  0  0  0  0  0  0
   11.5050   -6.0856   -8.3586 C   0  0  0  0  0  0  0  0  0  0  0  0
   12.1777   -6.7785   -9.5162 C   0  0  0  0  0  0  0  0  0  0  0  0
   11.1419   -7.1831  -10.5234 C   0  0  0  0  0  0  0  0  0  0  0  0
   10.1406   -6.1732  -10.6633 C   0  0  0  0  0  0  0  0  0  0  0  0
   10.0132   -5.0673   -9.8914 C   0  0  0  0  0  0  0  0  0  0  0  0
    8.9544   -4.3550  -10.3488 C   0  0  0  0  0  0  0  0  0  0  0  0
    8.3851   -3.1965   -9.9358 C   0  0  0  0  0  0  0  0  0  0  0  0
    7.2729   -2.6653  -10.5998 C   0  0  0  0  0  0  0  0  0  0  0  0
    6.3993   -1.0787  -10.0911 Br  0  0  0  0  0  0  0  0  0  0  0  0
    6.7591   -3.3577  -11.6884 C   0  0  0  0  0  0  0  0  0  0  0  0
    7.3653   -4.5450  -12.0754 C   0  0  0  0  0  0  0  0  0  0  0  0
    8.4403   -5.0140  -11.4074 C   0  0  0  0  0  0  0  0  0  0  0  0
    9.1668   -6.1156  -11.5841 N   0  0  0  0  0  0  0  0  0  0  0  0
   13.0064   -8.0042   -9.0041 C   0  0  0  0  0  0  0  0  0  0  0  0
   14.1851   -8.0781   -9.4192 O   0  0  0  0  0  0  0  0  0  0  0  0
   12.4731   -8.8549   -8.2410 O   0  0  0  0  0  0  0  0  0  0  0  0
   14.5250   -7.4134   -9.9854 H   0  0  0  0  0  0  0  0  0  0  0  0
    8.9418   -7.1303  -12.6529 C   0  0  0  0  0  0  0  0  0  0  0  0
    8.0589   -8.3228  -12.2057 C   0  0  0  0  0  0  0  0  0  0  0  0
    8.2688   -9.4290  -12.6884 O   0  0  0  0  0  0  0  0  0  0  0  0
    7.0648   -8.1224  -11.3170 N   0  0  0  0  0  0  0  0  0  0  0  0
    6.9078   -7.2219  -10.9515 H   0  0  0  0  0  0  0  0  0  0  0  0
    6.2080   -9.2528  -10.8883 C   0  0  0  0  0  0  0  0  0  0  0  0
    6.8680  -10.0794   -9.7687 C   0  0  0  0  0  0  0  0  0  0  0  0
    7.5152  -11.1008  -10.0849 O   0  0  0  0  0  0  0  0  0  0  0  0
    6.7171   -9.6519   -8.6059 O   0  0  0  0  0  0  0  0  0  0  0  0
    7.5802  -11.3543  -10.9846 H   0  0  0  0  0  0  0  0  0  0  0  0
    4.8573   -8.7158  -10.3949 C   0  0  0  0  0  0  0  0  0  0  0  0
    4.0925   -8.5565  -11.5672 C   0  0  0  0  0  0  0  0  0  0  0  0
    4.0388   -9.5986  -12.4980 C   0  0  0  0  0  0  0  0  0  0  0  0
    3.3012   -9.4595  -13.6727 C   0  0  0  0  0  0  0  0  0  0  0  0
    2.6063   -8.2779  -13.9253 C   0  0  0  0  0  0  0  0  0  0  0  0
    2.6588   -7.2356  -13.0055 C   0  0  0  0  0  0  0  0  0  0  0  0
    3.3973   -7.3698  -11.8215 C   0  0  0  0  0  0  0  0  0  0  0  0
 33 32  2  0  0  0
 33 34  1  0  0  0
 32 31  1  0  0  0
 34 35  2  0  0  0
 21 20  2  0  0  0
 31 30  2  0  0  0
 19 20  1  0  0  0
 19 14  1  0  0  0
 35 30  1  0  0  0
 20 22  1  0  0  0
 12 11  2  0  0  0
 12 13  1  0  0  0
 30 29  1  0  0  0
 14 13  1  0  0  0
 14  5  1  0  0  0
 11  9  1  0  0  0
 13  7  2  0  0  0
 22 24  1  0  0  0
  5  4  1  0  0  0
  5  6  2  0  0  0
  4  3  1  0  0  0
 24 29  1  0  0  0
 24 25  1  0  0  0
  9  8  2  0  0  0
  9 10  1  0  0  0
  7  6  1  0  0  0
  7  8  1  0  0  0
  6  1  1  0  0  0
  3 15  1  0  0  0
  3  2  1  0  0  0
 17 15  2  0  0  0
 15 16  1  0  0  0
 25 27  2  0  0  0
 25 26  1  0  0  0
  1  2  1  0  0  0
 16 18  1  0  0  0
 22 23  1  0  0  0
 26 28  1  0  0  0
M  END
> <minimizedAffinity>
-7.17389

$$$$
4PNU_2VD_A_405


 35 38  0  0  0  0  0  0  0  0999 V2000
    8.9496   -3.4695   -9.2408 C   0  0  0  0  0  0  0  0  0  0  0  0
    8.2767   -2.2409   -9.8031 C   0  0  0  0  0  0  0  0  0  0  0  0
    6.9732   -2.6133  -10.4626 C   0  0  0  0  0  0  0  0  0  0  0  0
    7.2496   -3.4770  -11.6577 C   0  0  0  0  0  0  0  0  0  0  0  0
    8.3071   -4.4000  -11.3898 C   0  0  0  0  0  0  0  0  0  0  0  0
    9.0909   -4.4127  -10.2851 C   0  0  0  0  0  0  0  0  0  0  0  0
    9.9625   -5.4445  -10.3996 C   0  0  0  0  0  0  0  0  0  0  0  0
   10.9615   -5.8903   -9.5996 C   0  0  0  0  0  0  0  0  0  0  0  0
   11.7290   -7.0041   -9.9607 C   0  0  0  0  0  0  0  0  0  0  0  0
   13.1489   -7.6852   -8.9313 Br  0  0  0  0  0  0  0  0  0  0  0  0
   11.4494   -7.6385  -11.1639 C   0  0  0  0  0  0  0  0  0  0  0  0
   10.4236   -7.1466  -11.9593 C   0  0  0  0  0  0  0  0  0  0  0  0
    9.7067   -6.0731  -11.5653 C   0  0  0  0  0  0  0  0  0  0  0  0
    8.7037   -5.4271  -12.1563 N   0  0  0  0  0  0  0  0  0  0  0  0
    6.1737   -1.3227  -10.8454 C   0  0  0  0  0  0  0  0  0  0  0  0
    5.4015   -0.8778   -9.9662 O   0  0  0  0  0  0  0  0  0  0  0  0
    6.3104   -0.8090  -11.9890 O   0  0  0  0  0  0  0  0  0  0  0  0
    5.3439   -1.3043   -9.1339 H   0  0  0  0  0  0  0  0  0  0  0  0
    8.1006   -5.7950  -13.4691 C   0  0  0  0  0  0  0  0  0  0  0  0
    9.0200   -5.5040  -14.6820 C   0  0  0  0  0  0  0  0  0  0  0  0
    9.2263   -6.3956  -15.4964 O   0  0  0  0  0  0  0  0  0  0  0  0
    9.5944   -4.2908  -14.8097 N   0  0  0  0  0  0  0  0  0  0  0  0
    9.4230   -3.5936  -14.1361 H   0  0  0  0  0  0  0  0  0  0  0  0
   10.4828   -4.0031  -15.9603 C   0  0  0  0  0  0  0  0  0  0  0  0
    9.7789   -3.1424  -17.0262 C   0  0  0  0  0  0  0  0  0  0  0  0
    9.8485   -1.8983  -16.9282 O   0  0  0  0  0  0  0  0  0  0  0  0
    9.1912   -3.7629  -17.9356 O   0  0  0  0  0  0  0  0  0  0  0  0
   10.3110   -1.5099  -16.2118 H   0  0  0  0  0  0  0  0  0  0  0  0
   11.7412   -3.2745  -15.4686 C   0  0  0  0  0  0  0  0  0  0  0  0
   12.4625   -4.2564  -14.7613 C   0  0  0  0  0  0  0  0  0  0  0  0
   12.7742   -4.0419  -13.4152 C   0  0  0  0  0  0  0  0  0  0  0  0
   13.4999   -4.9917  -12.6978 C   0  0  0  0  0  0  0  0  0  0  0  0
   13.9167   -6.1677  -13.3193 C   0  0  0  0  0  0  0  0  0  0  0  0
   13.6135   -6.3857  -14.6593 C   0  0  0  0  0  0  0  0  0  0  0  0
   12.8826   -5.4352  -15.3858 C   0  0  0  0  0  0  0  0  0  0  0  0
 33 32  2  0  0  0
 33 34  1  0  0  0
 32 31  1  0  0  0
 34 35  2  0  0  0
 21 20  2  0  0  0
 31 30  2  0  0  0
 19 20  1  0  0  0
 19 14  1  0  0  0
 35 30  1  0  0  0
 20 22  1  0  0  0
 12 11  2  0  0  0
 12 13  1  0  0  0
 30 29  1  0  0  0
 14 13  1  0  0  0
 14  5  1  0  0  0
 11  9  1  0  0  0
 13  7  2  0  0  0
 22 24  1  0  0  0
  5  4  1  0  0  0
  5  6  2  0  0  0
  4  3  1  0  0  0
 24 29  1  0  0  0
 24 25  1  0  0  0
  9  8  2  0  0  0
  9 10  1  0  0  0
  7  6  1  0  0  0
  7  8  1  0  0  0
  6  1  1  0  0  0
  3 15  1  0  0  0
  3  2  1  0  0  0
 17 15  2  0  0  0
 15 16  1  0  0  0
 25 27  2  0  0  0
 25 26  1  0  0  0
  1  2  1  0  0  0
 16 18  1  0  0  0
 22 23  1  0  0  0
 26 28  1  0  0  0
M  END
> <minimizedAffinity>
-7.01988

$$$$
4PNU_2VD_A_405


 35 38  0  0  0  0  0  0  0  0999 V2000
    9.2540   -2.9974  -13.3995 C   0  0  0  0  0  0  0  0  0  0  0  0
    8.0469   -2.7045  -12.5418 C   0  0  0  0  0  0  0  0  0  0  0  0
    8.1242   -3.4749  -11.2484 C   0  0  0  0  0  0  0  0  0  0  0  0
    8.0377   -4.9443  -11.5389 C   0  0  0  0  0  0  0  0  0  0  0  0
    8.7727   -5.2779  -12.7181 C   0  0  0  0  0  0  0  0  0  0  0  0
    9.3403   -4.3977  -13.5772 C   0  0  0  0  0  0  0  0  0  0  0  0
    9.9554   -5.1037  -14.5574 C   0  0  0  0  0  0  0  0  0  0  0  0
   10.6471   -4.7257  -15.6598 C   0  0  0  0  0  0  0  0  0  0  0  0
   11.1918   -5.6788  -16.5287 C   0  0  0  0  0  0  0  0  0  0  0  0
   12.1470   -5.2557  -18.0933 Br  0  0  0  0  0  0  0  0  0  0  0  0
   10.9998   -7.0235  -16.2403 C   0  0  0  0  0  0  0  0  0  0  0  0
   10.2786   -7.3702  -15.1060 C   0  0  0  0  0  0  0  0  0  0  0  0
    9.7781   -6.4148  -14.2946 C   0  0  0  0  0  0  0  0  0  0  0  0
    9.0567   -6.5053  -13.1793 N   0  0  0  0  0  0  0  0  0  0  0  0
    6.9951   -3.0041  -10.2711 C   0  0  0  0  0  0  0  0  0  0  0  0
    5.8383   -3.3976  -10.5433 O   0  0  0  0  0  0  0  0  0  0  0  0
    7.2736   -2.2546   -9.2959 O   0  0  0  0  0  0  0  0  0  0  0  0
    5.6947   -3.9545  -11.2830 H   0  0  0  0  0  0  0  0  0  0  0  0
    8.6356   -7.7795  -12.5300 C   0  0  0  0  0  0  0  0  0  0  0  0
    9.5355   -8.2016  -11.3412 C   0  0  0  0  0  0  0  0  0  0  0  0
    9.0555   -8.2259  -10.2143 O   0  0  0  0  0  0  0  0  0  0  0  0
   10.8298   -8.5104  -11.5591 N   0  0  0  0  0  0  0  0  0  0  0  0
   11.1962   -8.4723  -12.4721 H   0  0  0  0  0  0  0  0  0  0  0  0
   11.7029   -8.9067  -10.4293 C   0  0  0  0  0  0  0  0  0  0  0  0
   12.2453  -10.3383  -10.5995 C   0  0  0  0  0  0  0  0  0  0  0  0
   11.4266  -11.2740  -10.7278 O   0  0  0  0  0  0  0  0  0  0  0  0
   13.4874  -10.4593  -10.6114 O   0  0  0  0  0  0  0  0  0  0  0  0
   10.5066  -11.0976  -10.7074 H   0  0  0  0  0  0  0  0  0  0  0  0
   12.8796   -7.9270  -10.3206 C   0  0  0  0  0  0  0  0  0  0  0  0
   12.2801   -6.6901  -10.0117 C   0  0  0  0  0  0  0  0  0  0  0  0
   11.7209   -6.4964   -8.7448 C   0  0  0  0  0  0  0  0  0  0  0  0
   11.1087   -5.2867   -8.4201 C   0  0  0  0  0  0  0  0  0  0  0  0
   11.0543   -4.2575   -9.3585 C   0  0  0  0  0  0  0  0  0  0  0  0
   11.6050   -4.4450  -10.6221 C   0  0  0  0  0  0  0  0  0  0  0  0
   12.2235   -5.6584  -10.9542 C   0  0  0  0  0  0  0  0  0  0  0  0
 33 32  2  0  0  0
 33 34  1  0  0  0
 32 31  1  0  0  0
 34 35  2  0  0  0
 21 20  2  0  0  0
 31 30  2  0  0  0
 19 20  1  0  0  0
 19 14  1  0  0  0
 35 30  1  0  0  0
 20 22  1  0  0  0
 12 11  2  0  0  0
 12 13  1  0  0  0
 30 29  1  0  0  0
 14 13  1  0  0  0
 14  5  1  0  0  0
 11  9  1  0  0  0
 13  7  2  0  0  0
 22 24  1  0  0  0
  5  4  1  0  0  0
  5  6  2  0  0  0
  4  3  1  0  0  0
 24 29  1  0  0  0
 24 25  1  0  0  0
  9  8  2  0  0  0
  9 10  1  0  0  0
  7  6  1  0  0  0
  7  8  1  0  0  0
  6  1  1  0  0  0
  3 15  1  0  0  0
  3  2  1  0  0  0
 17 15  2  0  0  0
 15 16  1  0  0  0
 25 27  2  0  0  0
 25 26  1  0  0  0
  1  2  1  0  0  0
 16 18  1  0  0  0
 22 23  1  0  0  0
 26 28  1  0  0  0
M  END
> <minimizedAffinity>
-6.78967

$$$$
4PNU_2VD_A_405


 35 38  0  0  0  0  0  0  0  0999 V2000
    9.1115   -2.5553  -13.3859 C   0  0  0  0  0  0  0  0  0  0  0  0
    7.6927   -2.5568  -12.8705 C   0  0  0  0  0  0  0  0  0  0  0  0
    7.6830   -2.5180  -11.3636 C   0  0  0  0  0  0  0  0  0  0  0  0
    8.2836   -3.7849  -10.8297 C   0  0  0  0  0  0  0  0  0  0  0  0
    9.4056   -4.1915  -11.6158 C   0  0  0  0  0  0  0  0  0  0  0  0
    9.8005   -3.6347  -12.7858 C   0  0  0  0  0  0  0  0  0  0  0  0
   10.9085   -4.2900  -13.2106 C   0  0  0  0  0  0  0  0  0  0  0  0
   11.6847   -4.1537  -14.3131 C   0  0  0  0  0  0  0  0  0  0  0  0
   12.7976   -4.9787  -14.5153 C   0  0  0  0  0  0  0  0  0  0  0  0
   13.9219   -4.8831  -16.0207 Br  0  0  0  0  0  0  0  0  0  0  0  0
   13.0844   -5.9482  -13.5633 C   0  0  0  0  0  0  0  0  0  0  0  0
   12.2605   -6.0618  -12.4519 C   0  0  0  0  0  0  0  0  0  0  0  0
   11.2021   -5.2385  -12.2976 C   0  0  0  0  0  0  0  0  0  0  0  0
   10.2810   -5.1695  -11.3388 N   0  0  0  0  0  0  0  0  0  0  0  0
    6.2248   -2.2949  -10.8386 C   0  0  0  0  0  0  0  0  0  0  0  0
    5.6177   -3.3222  -10.4599 O   0  0  0  0  0  0  0  0  0  0  0  0
    5.7221   -1.1383  -10.8375 O   0  0  0  0  0  0  0  0  0  0  0  0
    6.0459   -4.1552  -10.4845 H   0  0  0  0  0  0  0  0  0  0  0  0
   10.2334   -6.0402  -10.1296 C   0  0  0  0  0  0  0  0  0  0  0  0
    9.6073   -7.4339  -10.3882 C   0  0  0  0  0  0  0  0  0  0  0  0
   10.2859   -8.4343  -10.1892 O   0  0  0  0  0  0  0  0  0  0  0  0
    8.3428   -7.5241  -10.8477 N   0  0  0  0  0  0  0  0  0  0  0  0
    7.8209   -6.7055  -11.0112 H   0  0  0  0  0  0  0  0  0  0  0  0
    7.7360   -8.8507  -11.1074 C   0  0  0  0  0  0  0  0  0  0  0  0
    6.7466   -9.2551   -9.9983 C   0  0  0  0  0  0  0  0  0  0  0  0
    5.6057   -8.7447  -10.0029 O   0  0  0  0  0  0  0  0  0  0  0  0
    7.1603  -10.0903   -9.1683 O   0  0  0  0  0  0  0  0  0  0  0  0
    5.3734   -8.1226  -10.6640 H   0  0  0  0  0  0  0  0  0  0  0  0
    7.0046   -8.8263  -12.4567 C   0  0  0  0  0  0  0  0  0  0  0  0
    7.9502   -8.3022  -13.3600 C   0  0  0  0  0  0  0  0  0  0  0  0
    7.7097   -7.0636  -13.9628 C   0  0  0  0  0  0  0  0  0  0  0  0
    8.6230   -6.5308  -14.8714 C   0  0  0  0  0  0  0  0  0  0  0  0
    9.7880   -7.2301  -15.1820 C   0  0  0  0  0  0  0  0  0  0  0  0
   10.0316   -8.4647  -14.5890 C   0  0  0  0  0  0  0  0  0  0  0  0
    9.1180   -9.0051  -13.6733 C   0  0  0  0  0  0  0  0  0  0  0  0
 33 32  2  0  0  0
 33 34  1  0  0  0
 32 31  1  0  0  0
 34 35  2  0  0  0
 21 20  2  0  0  0
 31 30  2  0  0  0
 19 20  1  0  0  0
 19 14  1  0  0  0
 35 30  1  0  0  0
 20 22  1  0  0  0
 12 11  2  0  0  0
 12 13  1  0  0  0
 30 29  1  0  0  0
 14 13  1  0  0  0
 14  5  1  0  0  0
 11  9  1  0  0  0
 13  7  2  0  0  0
 22 24  1  0  0  0
  5  4  1  0  0  0
  5  6  2  0  0  0
  4  3  1  0  0  0
 24 29  1  0  0  0
 24 25  1  0  0  0
  9  8  2  0  0  0
  9 10  1  0  0  0
  7  6  1  0  0  0
  7  8  1  0  0  0
  6  1  1  0  0  0
  3 15  1  0  0  0
  3  2  1  0  0  0
 17 15  2  0  0  0
 15 16  1  0  0  0
 25 27  2  0  0  0
 25 26  1  0  0  0
  1  2  1  0  0  0
 16 18  1  0  0  0
 22 23  1  0  0  0
 26 28  1  0  0  0
M  END
> <minimizedAffinity>
-6.74242

$$$$
4PNU_2VD_A_405


 35 38  0  0  0  0  0  0  0  0999 V2000
    8.5980   -2.2286  -13.4582 C   0  0  0  0  0  0  0  0  0  0  0  0
    7.5658   -2.4142  -12.3725 C   0  0  0  0  0  0  0  0  0  0  0  0
    8.2330   -2.7927  -11.0748 C   0  0  0  0  0  0  0  0  0  0  0  0
    8.8780   -4.1393  -11.2216 C   0  0  0  0  0  0  0  0  0  0  0  0
    9.4844   -4.2800  -12.5079 C   0  0  0  0  0  0  0  0  0  0  0  0
    9.3699   -3.4107  -13.5404 C   0  0  0  0  0  0  0  0  0  0  0  0
   10.1001   -3.8904  -14.5769 C   0  0  0  0  0  0  0  0  0  0  0  0
   10.3126   -3.4325  -15.8346 C   0  0  0  0  0  0  0  0  0  0  0  0
   11.1293   -4.1364  -16.7277 C   0  0  0  0  0  0  0  0  0  0  0  0
   11.4675   -3.5962  -18.4977 Br  0  0  0  0  0  0  0  0  0  0  0  0
   11.7114   -5.3219  -16.2983 C   0  0  0  0  0  0  0  0  0  0  0  0
   11.4627   -5.7618  -15.0054 C   0  0  0  0  0  0  0  0  0  0  0  0
   10.6730   -5.0447  -14.1785 C   0  0  0  0  0  0  0  0  0  0  0  0
   10.2882   -5.2701  -12.9240 N   0  0  0  0  0  0  0  0  0  0  0  0
    7.1927   -2.7663   -9.9050 C   0  0  0  0  0  0  0  0  0  0  0  0
    6.0040   -2.5548  -10.2360 O   0  0  0  0  0  0  0  0  0  0  0  0
    7.5746   -2.9283   -8.7141 O   0  0  0  0  0  0  0  0  0  0  0  0
    5.7822   -2.4424  -11.1394 H   0  0  0  0  0  0  0  0  0  0  0  0
   10.6975   -6.4414  -12.0976 C   0  0  0  0  0  0  0  0  0  0  0  0
   12.1385   -6.3371  -11.5372 C   0  0  0  0  0  0  0  0  0  0  0  0
   12.4144   -5.4139  -10.7805 O   0  0  0  0  0  0  0  0  0  0  0  0
   13.0667   -7.2427  -11.9065 N   0  0  0  0  0  0  0  0  0  0  0  0
   12.8243   -7.9692  -12.5251 H   0  0  0  0  0  0  0  0  0  0  0  0
   14.4504   -7.1484  -11.3846 C   0  0  0  0  0  0  0  0  0  0  0  0
   14.6337   -7.9716  -10.0957 C   0  0  0  0  0  0  0  0  0  0  0  0
   13.8706   -7.7465   -9.1317 O   0  0  0  0  0  0  0  0  0  0  0  0
   15.5395   -8.8299  -10.1140 O   0  0  0  0  0  0  0  0  0  0  0  0
   13.2139   -7.0816   -9.1993 H   0  0  0  0  0  0  0  0  0  0  0  0
   15.4368   -7.6461  -12.4501 C   0  0  0  0  0  0  0  0  0  0  0  0
   15.4634   -6.6177  -13.4126 C   0  0  0  0  0  0  0  0  0  0  0  0
   15.6535   -5.2957  -12.9988 C   0  0  0  0  0  0  0  0  0  0  0  0
   15.6687   -4.2588  -13.9305 C   0  0  0  0  0  0  0  0  0  0  0  0
   15.4984   -4.5354  -15.2860 C   0  0  0  0  0  0  0  0  0  0  0  0
   15.3047   -5.8479  -15.7042 C   0  0  0  0  0  0  0  0  0  0  0  0
   15.2902   -6.8952  -14.7724 C   0  0  0  0  0  0  0  0  0  0  0  0
 33 32  2  0  0  0
 33 34  1  0  0  0
 32 31  1  0  0  0
 34 35  2  0  0  0
 21 20  2  0  0  0
 31 30  2  0  0  0
 19 20  1  0  0  0
 19 14  1  0  0  0
 35 30  1  0  0  0
 20 22  1  0  0  0
 12 11  2  0  0  0
 12 13  1  0  0  0
 30 29  1  0  0  0
 14 13  1  0  0  0
 14  5  1  0  0  0
 11  9  1  0  0  0
 13  7  2  0  0  0
 22 24  1  0  0  0
  5  4  1  0  0  0
  5  6  2  0  0  0
  4  3  1  0  0  0
 24 29  1  0  0  0
 24 25  1  0  0  0
  9  8  2  0  0  0
  9 10  1  0  0  0
  7  6  1  0  0  0
  7  8  1  0  0  0
  6  1  1  0  0  0
  3 15  1  0  0  0
  3  2  1  0  0  0
 17 15  2  0  0  0
 15 16  1  0  0  0
 25 27  2  0  0  0
 25 26  1  0  0  0
  1  2  1  0  0  0
 16 18  1  0  0  0
 22 23  1  0  0  0
 26 28  1  0  0  0
M  END
> <minimizedAffinity>
-6.57842

$$$$
4PNU_2VD_A_405


 35 38  0  0  0  0  0  0  0  0999 V2000
   10.9496   -4.7673   -8.9589 C   0  0  0  0  0  0  0  0  0  0  0  0
   11.6090   -6.0291   -8.4573 C   0  0  0  0  0  0  0  0  0  0  0  0
   12.2651   -6.7658   -9.5972 C   0  0  0  0  0  0  0  0  0  0  0  0
   11.2116   -7.2408  -10.5541 C   0  0  0  0  0  0  0  0  0  0  0  0
   10.1859   -6.2591  -10.7162 C   0  0  0  0  0  0  0  0  0  0  0  0
   10.0558   -5.1186   -9.9969 C   0  0  0  0  0  0  0  0  0  0  0  0
    8.9704   -4.4511  -10.4596 C   0  0  0  0  0  0  0  0  0  0  0  0
    8.3880   -3.2849  -10.0890 C   0  0  0  0  0  0  0  0  0  0  0  0
    7.2477   -2.8097  -10.7476 C   0  0  0  0  0  0  0  0  0  0  0  0
    6.3547   -1.2170  -10.2943 Br  0  0  0  0  0  0  0  0  0  0  0  0
    6.7197   -3.5658  -11.7859 C   0  0  0  0  0  0  0  0  0  0  0  0
    7.3404   -4.7588  -12.1301 C   0  0  0  0  0  0  0  0  0  0  0  0
    8.4423   -5.1725  -11.4696 C   0  0  0  0  0  0  0  0  0  0  0  0
    9.1869   -6.2670  -11.6115 N   0  0  0  0  0  0  0  0  0  0  0  0
   13.1328   -7.9477   -9.0480 C   0  0  0  0  0  0  0  0  0  0  0  0
   12.5268   -8.7911   -8.3490 O   0  0  0  0  0  0  0  0  0  0  0  0
   14.3680   -7.9959   -9.2978 O   0  0  0  0  0  0  0  0  0  0  0  0
   11.6063   -8.7009   -8.1990 H   0  0  0  0  0  0  0  0  0  0  0  0
    8.9550   -7.3383  -12.6219 C   0  0  0  0  0  0  0  0  0  0  0  0
    9.6168   -7.0558  -13.9944 C   0  0  0  0  0  0  0  0  0  0  0  0
   10.8240   -7.2254  -14.1160 O   0  0  0  0  0  0  0  0  0  0  0  0
    8.8646   -6.6080  -15.0199 N   0  0  0  0  0  0  0  0  0  0  0  0
    7.8981   -6.4682  -14.8948 H   0  0  0  0  0  0  0  0  0  0  0  0
    9.4873   -6.3256  -16.3346 C   0  0  0  0  0  0  0  0  0  0  0  0
    9.4178   -7.5438  -17.2747 C   0  0  0  0  0  0  0  0  0  0  0  0
   10.4878   -8.0266  -17.7039 O   0  0  0  0  0  0  0  0  0  0  0  0
    8.2760   -7.9767  -17.5324 O   0  0  0  0  0  0  0  0  0  0  0  0
   11.3065   -7.6403  -17.4619 H   0  0  0  0  0  0  0  0  0  0  0  0
    8.7789   -5.1340  -16.9936 C   0  0  0  0  0  0  0  0  0  0  0  0
    8.9029   -4.0891  -16.0569 C   0  0  0  0  0  0  0  0  0  0  0  0
   10.1334   -3.8733  -15.4289 C   0  0  0  0  0  0  0  0  0  0  0  0
   10.2773   -2.8554  -14.4873 C   0  0  0  0  0  0  0  0  0  0  0  0
    9.1924   -2.0405  -14.1684 C   0  0  0  0  0  0  0  0  0  0  0  0
    7.9642   -2.2523  -14.7864 C   0  0  0  0  0  0  0  0  0  0  0  0
    7.8134   -3.2730  -15.7353 C   0  0  0  0  0  0  0  0  0  0  0  0
 33 32  2  0  0  0
 33 34  1  0  0  0
 32 31  1  0  0  0
 34 35  2  0  0  0
 21 20  2  0  0  0
 31 30  2  0  0  0
 19 20  1  0  0  0
 19 14  1  0  0  0
 35 30  1  0  0  0
 20 22  1  0  0  0
 12 11  2  0  0  0
 12 13  1  0  0  0
 30 29  1  0  0  0
 14 13  1  0  0  0
 14  5  1  0  0  0
 11  9  1  0  0  0
 13  7  2  0  0  0
 22 24  1  0  0  0
  5  4  1  0  0  0
  5  6  2  0  0  0
  4  3  1  0  0  0
 24 29  1  0  0  0
 24 25  1  0  0  0
  9  8  2  0  0  0
  9 10  1  0  0  0
  7  6  1  0  0  0
  7  8  1  0  0  0
  6  1  1  0  0  0
  3 15  1  0  0  0
  3  2  1  0  0  0
 17 15  2  0  0  0
 15 16  1  0  0  0
 25 27  2  0  0  0
 25 26  1  0  0  0
  1  2  1  0  0  0
 16 18  1  0  0  0
 22 23  1  0  0  0
 26 28  1  0  0  0
M  END
> <minimizedAffinity>
-6.57251

$$$$
4PNU_2VD_A_405


 35 38  0  0  0  0  0  0  0  0999 V2000
   11.2810   -4.7508   -9.3125 C   0  0  0  0  0  0  0  0  0  0  0  0
   10.3368   -3.5870   -9.4934 C   0  0  0  0  0  0  0  0  0  0  0  0
    8.9408   -4.0837   -9.7712 C   0  0  0  0  0  0  0  0  0  0  0  0
    8.9208   -4.7990  -11.0898 C   0  0  0  0  0  0  0  0  0  0  0  0
   10.1025   -5.5831  -11.2658 C   0  0  0  0  0  0  0  0  0  0  0  0
   11.1894   -5.5759  -10.4574 C   0  0  0  0  0  0  0  0  0  0  0  0
   12.0877   -6.4622  -10.9526 C   0  0  0  0  0  0  0  0  0  0  0  0
   13.3291   -6.8271  -10.5497 C   0  0  0  0  0  0  0  0  0  0  0  0
   14.0608   -7.7886  -11.2570 C   0  0  0  0  0  0  0  0  0  0  0  0
   15.7966   -8.3455  -10.7920 Br  0  0  0  0  0  0  0  0  0  0  0  0
   13.4888   -8.3553  -12.3884 C   0  0  0  0  0  0  0  0  0  0  0  0
   12.2185   -7.9489  -12.7733 C   0  0  0  0  0  0  0  0  0  0  0  0
   11.5493   -7.0227  -12.0550 C   0  0  0  0  0  0  0  0  0  0  0  0
   10.3479   -6.4779  -12.2347 N   0  0  0  0  0  0  0  0  0  0  0  0
    7.9267   -2.8912   -9.7367 C   0  0  0  0  0  0  0  0  0  0  0  0
    7.6095   -2.4769   -8.5988 O   0  0  0  0  0  0  0  0  0  0  0  0
    7.4633   -2.4227  -10.8120 O   0  0  0  0  0  0  0  0  0  0  0  0
    7.9890   -2.8664   -7.8358 H   0  0  0  0  0  0  0  0  0  0  0  0
    9.4074   -6.8180  -13.3403 C   0  0  0  0  0  0  0  0  0  0  0  0
    9.7408   -6.1168  -14.6814 C   0  0  0  0  0  0  0  0  0  0  0  0
   10.1479   -6.7931  -15.6183 O   0  0  0  0  0  0  0  0  0  0  0  0
    9.6022   -4.7799  -14.7895 N   0  0  0  0  0  0  0  0  0  0  0  0
    9.2844   -4.2559  -14.0190 H   0  0  0  0  0  0  0  0  0  0  0  0
    9.9264   -4.0966  -16.0637 C   0  0  0  0  0  0  0  0  0  0  0  0
    8.6711   -3.5046  -16.7317 C   0  0  0  0  0  0  0  0  0  0  0  0
    8.8026   -2.9040  -17.8199 O   0  0  0  0  0  0  0  0  0  0  0  0
    7.5912   -3.6841  -16.1324 O   0  0  0  0  0  0  0  0  0  0  0  0
    9.6520   -2.8121  -18.2046 H   0  0  0  0  0  0  0  0  0  0  0  0
   10.9400   -2.9740  -15.8017 C   0  0  0  0  0  0  0  0  0  0  0  0
   12.0371   -3.6235  -15.2022 C   0  0  0  0  0  0  0  0  0  0  0  0
   12.3070   -3.4052  -13.8477 C   0  0  0  0  0  0  0  0  0  0  0  0
   13.3955   -4.0245  -13.2354 C   0  0  0  0  0  0  0  0  0  0  0  0
   14.2218   -4.8720  -13.9714 C   0  0  0  0  0  0  0  0  0  0  0  0
   13.9615   -5.0904  -15.3204 C   0  0  0  0  0  0  0  0  0  0  0  0
   12.8675   -4.4720  -15.9416 C   0  0  0  0  0  0  0  0  0  0  0  0
 33 32  2  0  0  0
 33 34  1  0  0  0
 32 31  1  0  0  0
 34 35  2  0  0  0
 21 20  2  0  0  0
 31 30  2  0  0  0
 19 20  1  0  0  0
 19 14  1  0  0  0
 35 30  1  0  0  0
 20 22  1  0  0  0
 12 11  2  0  0  0
 12 13  1  0  0  0
 30 29  1  0  0  0
 14 13  1  0  0  0
 14  5  1  0  0  0
 11  9  1  0  0  0
 13  7  2  0  0  0
 22 24  1  0  0  0
  5  4  1  0  0  0
  5  6  2  0  0  0
  4  3  1  0  0  0
 24 29  1  0  0  0
 24 25  1  0  0  0
  9  8  2  0  0  0
  9 10  1  0  0  0
  7  6  1  0  0  0
  7  8  1  0  0  0
  6  1  1  0  0  0
  3 15  1  0  0  0
  3  2  1  0  0  0
 17 15  2  0  0  0
 15 16  1  0  0  0
 25 27  2  0  0  0
 25 26  1  0  0  0
  1  2  1  0  0  0
 16 18  1  0  0  0
 22 23  1  0  0  0
 26 28  1  0  0  0
M  END
> <minimizedAffinity>
-6.35761

$$$$
4PNU_2VD_A_405


 35 38  0  0  0  0  0  0  0  0999 V2000
   14.8337   -4.4171  -15.1449 C   0  0  0  0  0  0  0  0  0  0  0  0
   15.8154   -4.6450  -14.0212 C   0  0  0  0  0  0  0  0  0  0  0  0
   15.9275   -6.1167  -13.7142 C   0  0  0  0  0  0  0  0  0  0  0  0
   14.6163   -6.6148  -13.1816 C   0  0  0  0  0  0  0  0  0  0  0  0
   13.5202   -6.0208  -13.8801 C   0  0  0  0  0  0  0  0  0  0  0  0
   13.6045   -5.0173  -14.7861 C   0  0  0  0  0  0  0  0  0  0  0  0
   12.3530   -4.7457  -15.2305 C   0  0  0  0  0  0  0  0  0  0  0  0
   11.8738   -3.8358  -16.1132 C   0  0  0  0  0  0  0  0  0  0  0  0
   10.5053   -3.7636  -16.3997 C   0  0  0  0  0  0  0  0  0  0  0  0
    9.7410   -2.5237  -17.5904 Br  0  0  0  0  0  0  0  0  0  0  0  0
    9.6463   -4.6412  -15.7514 C   0  0  0  0  0  0  0  0  0  0  0  0
   10.1748   -5.5530  -14.8480 C   0  0  0  0  0  0  0  0  0  0  0  0
   11.5028   -5.5889  -14.6095 C   0  0  0  0  0  0  0  0  0  0  0  0
   12.2236   -6.3531  -13.7916 N   0  0  0  0  0  0  0  0  0  0  0  0
   17.1017   -6.3710  -12.7102 C   0  0  0  0  0  0  0  0  0  0  0  0
   17.8341   -5.3856  -12.4656 O   0  0  0  0  0  0  0  0  0  0  0  0
   17.2781   -7.5194  -12.2199 O   0  0  0  0  0  0  0  0  0  0  0  0
   17.6512   -4.5562  -12.8614 H   0  0  0  0  0  0  0  0  0  0  0  0
   11.6758   -7.4276  -12.9153 C   0  0  0  0  0  0  0  0  0  0  0  0
   10.8857   -6.8945  -11.6934 C   0  0  0  0  0  0  0  0  0  0  0  0
    9.7390   -7.2861  -11.5128 O   0  0  0  0  0  0  0  0  0  0  0  0
   11.4585   -5.9961  -10.8670 N   0  0  0  0  0  0  0  0  0  0  0  0
   12.3773   -5.6874  -11.0392 H   0  0  0  0  0  0  0  0  0  0  0  0
   10.7101   -5.4720   -9.7004 C   0  0  0  0  0  0  0  0  0  0  0  0
   11.2856   -5.9924   -8.3698 C   0  0  0  0  0  0  0  0  0  0  0  0
   10.8005   -5.5608   -7.3018 O   0  0  0  0  0  0  0  0  0  0  0  0
   12.2027   -6.8343   -8.4577 O   0  0  0  0  0  0  0  0  0  0  0  0
   10.1111   -4.9266   -7.3229 H   0  0  0  0  0  0  0  0  0  0  0  0
   10.7548   -3.9377   -9.7080 C   0  0  0  0  0  0  0  0  0  0  0  0
    9.4945   -3.5515  -10.2053 C   0  0  0  0  0  0  0  0  0  0  0  0
    9.2568   -3.5981  -11.5825 C   0  0  0  0  0  0  0  0  0  0  0  0
    8.0230   -3.2068  -12.1002 C   0  0  0  0  0  0  0  0  0  0  0  0
    7.0134   -2.7696  -11.2445 C   0  0  0  0  0  0  0  0  0  0  0  0
    7.2444   -2.7169   -9.8737 C   0  0  0  0  0  0  0  0  0  0  0  0
    8.4824   -3.1106   -9.3466 C   0  0  0  0  0  0  0  0  0  0  0  0
 33 32  2  0  0  0
 33 34  1  0  0  0
 32 31  1  0  0  0
 34 35  2  0  0  0
 21 20  2  0  0  0
 31 30  2  0  0  0
 19 20  1  0  0  0
 19 14  1  0  0  0
 35 30  1  0  0  0
 20 22  1  0  0  0
 12 11  2  0  0  0
 12 13  1  0  0  0
 30 29  1  0  0  0
 14 13  1  0  0  0
 14  5  1  0  0  0
 11  9  1  0  0  0
 13  7  2  0  0  0
 22 24  1  0  0  0
  5  4  1  0  0  0
  5  6  2  0  0  0
  4  3  1  0  0  0
 24 29  1  0  0  0
 24 25  1  0  0  0
  9  8  2  0  0  0
  9 10  1  0  0  0
  7  6  1  0  0  0
  7  8  1  0  0  0
  6  1  1  0  0  0
  3 15  1  0  0  0
  3  2  1  0  0  0
 17 15  2  0  0  0
 15 16  1  0  0  0
 25 27  2  0  0  0
 25 26  1  0  0  0
  1  2  1  0  0  0
 16 18  1  0  0  0
 22 23  1  0  0  0
 26 28  1  0  0  0
M  END
> <minimizedAffinity>
-6.17669

$$$$
