5MO8_C98_A_404


 38 40  0  0  0  0  0  0  0  0999 V2000
    6.4088  131.9963  358.1169 C   0  0  0  0  0  0  0  0  0  0  0  0
    7.1660  130.8563  358.6121 N   0  0  0  0  0  0  0  0  0  0  0  0
    6.7547  130.1250  359.6416 C   0  0  0  0  0  0  0  0  0  0  0  0
    5.6258  130.2188  360.1132 O   0  0  0  0  0  0  0  0  0  0  0  0
    8.0124  130.6190  358.1686 H   0  0  0  0  0  0  0  0  0  0  0  0
    7.7786  129.1865  360.2431 C   0  0  0  0  0  0  0  0  0  0  0  0
    8.8702  129.9284  360.9820 C   0  0  0  0  0  0  0  0  0  0  0  0
    9.8798  130.3107  360.4002 O   0  0  0  0  0  0  0  0  0  0  0  0
    8.6319  130.1381  362.2949 N   0  0  0  0  0  0  0  0  0  0  0  0
    7.7610  129.8305  362.6355 H   0  0  0  0  0  0  0  0  0  0  0  0
    9.4926  130.7496  363.2345 C   0  0  0  0  0  0  0  0  0  0  0  0
    8.9579  131.3454  364.3688 C   0  0  0  0  0  0  0  0  0  0  0  0
    9.7777  132.0561  365.2278 C   0  0  0  0  0  0  0  0  0  0  0  0
   11.1308  132.1698  364.9657 C   0  0  0  0  0  0  0  0  0  0  0  0
   10.8583  130.8356  362.9907 C   0  0  0  0  0  0  0  0  0  0  0  0
   11.6829  131.5550  363.8501 C   0  0  0  0  0  0  0  0  0  0  0  0
   13.1162  131.7532  363.5109 C   0  0  0  0  0  0  0  0  0  0  0  0
   13.8636  132.3779  364.2349 O   0  0  0  0  0  0  0  0  0  0  0  0
   13.4679  131.2796  362.3652 O   0  0  0  0  0  0  0  0  0  0  0  0
   13.5563  132.7004  365.0593 H   0  0  0  0  0  0  0  0  0  0  0  0
    6.0680  131.8925  356.6499 C   0  0  0  0  0  0  0  0  0  0  0  0
    6.1819  133.2353  355.9674 C   0  0  0  0  0  0  0  0  0  0  0  0
    4.9234  133.9761  355.9837 N   0  0  0  0  0  0  0  0  0  0  0  0
    4.1903  133.3651  356.3436 H   0  0  0  0  0  0  0  0  0  0  0  0
    4.5277  134.4498  354.6597 C   0  0  0  0  0  0  0  0  0  0  0  0
    5.4843  138.7708  351.9534 Cl  0  0  0  0  0  0  0  0  0  0  0  0
    4.7823  137.9888  353.3338 C   0  0  0  0  0  0  0  0  0  0  0  0
    4.1546  138.7399  354.3158 C   0  0  0  0  0  0  0  0  0  0  0  0
    3.7171  138.0703  355.4551 C   0  0  0  0  0  0  0  0  0  0  0  0
    3.8589  136.6999  355.5707 C   0  0  0  0  0  0  0  0  0  0  0  0
    4.9110  136.6185  353.4408 C   0  0  0  0  0  0  0  0  0  0  0  0
    4.4391  135.9527  354.5632 C   0  0  0  0  0  0  0  0  0  0  0  0
    3.8237  140.1845  354.1657 C   0  0  0  0  0  0  0  0  0  0  0  0
    2.8001  140.5979  353.3161 C   0  0  0  0  0  0  0  0  0  0  0  0
    2.4926  141.9402  353.1769 C   0  0  0  0  0  0  0  0  0  0  0  0
    3.1979  142.8894  353.8784 C   0  0  0  0  0  0  0  0  0  0  0  0
    4.2171  142.5014  354.7192 C   0  0  0  0  0  0  0  0  0  0  0  0
    4.5319  141.1606  354.8626 C   0  0  0  0  0  0  0  0  0  0  0  0
 26 27  1  0  0  0
 37 38  2  0  0  0
 37 36  1  0  0  0
 27 31  2  0  0  0
 27 28  1  0  0  0
 38 33  1  0  0  0
 31 32  1  0  0  0
 36 35  2  0  0  0
 33 28  1  0  0  0
 33 34  2  0  0  0
 35 34  1  0  0  0
 28 29  2  0  0  0
 32 25  1  0  0  0
 32 30  2  0  0  0
 25 23  1  0  0  0
 29 30  1  0  0  0
 22 23  1  0  0  0
 22 21  1  0  0  0
  1 21  1  0  0  0
  1  2  1  0  0  0
  2  3  1  0  0  0
  4  3  2  0  0  0
  3  6  1  0  0  0
  6  7  1  0  0  0
  7  9  1  0  0  0
  7  8  2  0  0  0
  9 11  1  0  0  0
 11 15  2  0  0  0
 11 12  1  0  0  0
 15 16  1  0  0  0
 19 17  2  0  0  0
 12 13  2  0  0  0
 16 17  1  0  0  0
 16 14  2  0  0  0
 17 18  1  0  0  0
 13 14  1  0  0  0
 23 24  1  0  0  0
  2  5  1  0  0  0
  9 10  1  0  0  0
 18 20  1  0  0  0
M  END
> <minimizedAffinity>
-11.43543

$$$$
5MO8_C98_A_404


 38 40  0  0  0  0  0  0  0  0999 V2000
    6.0700  131.3976  357.5458 C   0  0  0  0  0  0  0  0  0  0  0  0
    7.1874  130.8212  358.2790 N   0  0  0  0  0  0  0  0  0  0  0  0
    7.9514  129.8624  357.7684 C   0  0  0  0  0  0  0  0  0  0  0  0
    7.9101  129.5405  356.5850 O   0  0  0  0  0  0  0  0  0  0  0  0
    7.3836  131.1536  359.1847 H   0  0  0  0  0  0  0  0  0  0  0  0
    8.8588  129.1437  358.7437 C   0  0  0  0  0  0  0  0  0  0  0  0
    9.8716  130.0734  359.3742 C   0  0  0  0  0  0  0  0  0  0  0  0
   10.3869  130.9789  358.7273 O   0  0  0  0  0  0  0  0  0  0  0  0
   10.1364  129.8326  360.6767 N   0  0  0  0  0  0  0  0  0  0  0  0
    9.6195  129.1103  361.1014 H   0  0  0  0  0  0  0  0  0  0  0  0
   11.0721  130.5012  361.4983 C   0  0  0  0  0  0  0  0  0  0  0  0
   12.4192  130.4781  361.1635 C   0  0  0  0  0  0  0  0  0  0  0  0
   13.3553  131.0192  362.0271 C   0  0  0  0  0  0  0  0  0  0  0  0
   12.9544  131.5908  363.2209 C   0  0  0  0  0  0  0  0  0  0  0  0
   10.6674  131.1068  362.6821 C   0  0  0  0  0  0  0  0  0  0  0  0
   11.6079  131.6459  363.5544 C   0  0  0  0  0  0  0  0  0  0  0  0
   11.1788  132.1711  364.8768 C   0  0  0  0  0  0  0  0  0  0  0  0
   10.2576  131.6760  365.4926 O   0  0  0  0  0  0  0  0  0  0  0  0
   11.8083  133.2261  365.2661 O   0  0  0  0  0  0  0  0  0  0  0  0
    9.8340  130.9074  365.1643 H   0  0  0  0  0  0  0  0  0  0  0  0
    6.3735  132.7612  356.9737 C   0  0  0  0  0  0  0  0  0  0  0  0
    5.6039  133.0000  355.6959 C   0  0  0  0  0  0  0  0  0  0  0  0
    5.7828  134.3560  355.1839 N   0  0  0  0  0  0  0  0  0  0  0  0
    5.8808  134.9926  355.9749 H   0  0  0  0  0  0  0  0  0  0  0  0
    4.6619  134.8033  354.3610 C   0  0  0  0  0  0  0  0  0  0  0  0
    5.5848  139.2595  351.8708 Cl  0  0  0  0  0  0  0  0  0  0  0  0
    4.8404  138.3978  353.1796 C   0  0  0  0  0  0  0  0  0  0  0  0
    4.1275  139.0850  354.1503 C   0  0  0  0  0  0  0  0  0  0  0  0
    3.6556  138.3553  355.2377 C   0  0  0  0  0  0  0  0  0  0  0  0
    3.8486  136.9883  355.3121 C   0  0  0  0  0  0  0  0  0  0  0  0
    5.0208  137.0307  353.2447 C   0  0  0  0  0  0  0  0  0  0  0  0
    4.5153  136.3040  354.3135 C   0  0  0  0  0  0  0  0  0  0  0  0
    3.7447  140.5198  354.0333 C   0  0  0  0  0  0  0  0  0  0  0  0
    2.5716  140.8949  353.3823 C   0  0  0  0  0  0  0  0  0  0  0  0
    2.2160  142.2281  353.2739 C   0  0  0  0  0  0  0  0  0  0  0  0
    3.0207  143.2061  353.8092 C   0  0  0  0  0  0  0  0  0  0  0  0
    4.1872  142.8560  354.4517 C   0  0  0  0  0  0  0  0  0  0  0  0
    4.5509  141.5246  354.5628 C   0  0  0  0  0  0  0  0  0  0  0  0
 26 27  1  0  0  0
 37 38  2  0  0  0
 37 36  1  0  0  0
 27 31  2  0  0  0
 27 28  1  0  0  0
 38 33  1  0  0  0
 31 32  1  0  0  0
 36 35  2  0  0  0
 33 28  1  0  0  0
 33 34  2  0  0  0
 35 34  1  0  0  0
 28 29  2  0  0  0
 32 25  1  0  0  0
 32 30  2  0  0  0
 25 23  1  0  0  0
 29 30  1  0  0  0
 22 23  1  0  0  0
 22 21  1  0  0  0
  1 21  1  0  0  0
  1  2  1  0  0  0
  2  3  1  0  0  0
  4  3  2  0  0  0
  3  6  1  0  0  0
  6  7  1  0  0  0
  7  9  1  0  0  0
  7  8  2  0  0  0
  9 11  1  0  0  0
 11 15  2  0  0  0
 11 12  1  0  0  0
 15 16  1  0  0  0
 19 17  2  0  0  0
 12 13  2  0  0  0
 16 17  1  0  0  0
 16 14  2  0  0  0
 17 18  1  0  0  0
 13 14  1  0  0  0
 23 24  1  0  0  0
  2  5  1  0  0  0
  9 10  1  0  0  0
 18 20  1  0  0  0
M  END
> <minimizedAffinity>
-10.89203

$$$$
5MO8_C98_A_404


 38 40  0  0  0  0  0  0  0  0999 V2000
    5.6321  129.9727  357.2188 C   0  0  0  0  0  0  0  0  0  0  0  0
    5.4143  130.7818  356.0287 N   0  0  0  0  0  0  0  0  0  0  0  0
    6.1923  130.6893  354.9563 C   0  0  0  0  0  0  0  0  0  0  0  0
    7.0086  129.7859  354.8046 O   0  0  0  0  0  0  0  0  0  0  0  0
    4.6645  131.4197  356.0183 H   0  0  0  0  0  0  0  0  0  0  0  0
    6.0515  131.7967  353.9340 C   0  0  0  0  0  0  0  0  0  0  0  0
    5.8815  133.1536  354.5803 C   0  0  0  0  0  0  0  0  0  0  0  0
    6.5510  133.4775  355.5553 O   0  0  0  0  0  0  0  0  0  0  0  0
    4.9657  133.9555  353.9949 N   0  0  0  0  0  0  0  0  0  0  0  0
    4.5301  133.6031  353.1854 H   0  0  0  0  0  0  0  0  0  0  0  0
    4.5625  135.2437  354.4140 C   0  0  0  0  0  0  0  0  0  0  0  0
    3.6004  135.3726  355.4065 C   0  0  0  0  0  0  0  0  0  0  0  0
    3.1076  136.6239  355.7329 C   0  0  0  0  0  0  0  0  0  0  0  0
    3.5749  137.7496  355.0794 C   0  0  0  0  0  0  0  0  0  0  0  0
    5.0563  136.3791  353.7824 C   0  0  0  0  0  0  0  0  0  0  0  0
    4.5574  137.6373  354.1050 C   0  0  0  0  0  0  0  0  0  0  0  0
    4.9941  138.8296  353.3327 C   0  0  0  0  0  0  0  0  0  0  0  0
    5.3013  138.7545  352.1610 O   0  0  0  0  0  0  0  0  0  0  0  0
    5.0907  139.9124  354.0247 O   0  0  0  0  0  0  0  0  0  0  0  0
    5.2112  137.9414  351.7042 H   0  0  0  0  0  0  0  0  0  0  0  0
    4.4926  129.0270  357.5122 C   0  0  0  0  0  0  0  0  0  0  0  0
    4.9343  127.9080  358.4258 C   0  0  0  0  0  0  0  0  0  0  0  0
    6.1519  128.2384  359.1615 N   0  0  0  0  0  0  0  0  0  0  0  0
    6.7003  127.3870  359.2831 H   0  0  0  0  0  0  0  0  0  0  0  0
    5.8807  128.8107  360.4778 C   0  0  0  0  0  0  0  0  0  0  0  0
   10.8404  130.3028  360.1850 Cl  0  0  0  0  0  0  0  0  0  0  0  0
    9.3944  130.0735  361.1157 C   0  0  0  0  0  0  0  0  0  0  0  0
    9.3918  130.3408  362.4763 C   0  0  0  0  0  0  0  0  0  0  0  0
    8.2396  130.0247  363.1906 C   0  0  0  0  0  0  0  0  0  0  0  0
    7.1258  129.5140  362.5503 C   0  0  0  0  0  0  0  0  0  0  0  0
    8.2781  129.5779  360.4723 C   0  0  0  0  0  0  0  0  0  0  0  0
    7.1203  129.2998  361.1850 C   0  0  0  0  0  0  0  0  0  0  0  0
   10.4976  131.0470  363.1815 C   0  0  0  0  0  0  0  0  0  0  0  0
   11.8217  130.8769  362.7836 C   0  0  0  0  0  0  0  0  0  0  0  0
   12.8490  131.5333  363.4389 C   0  0  0  0  0  0  0  0  0  0  0  0
   12.5753  132.3661  364.4982 C   0  0  0  0  0  0  0  0  0  0  0  0
   11.2734  132.5432  364.9103 C   0  0  0  0  0  0  0  0  0  0  0  0
   10.2402  131.8887  364.2611 C   0  0  0  0  0  0  0  0  0  0  0  0
 26 27  1  0  0  0
 37 38  2  0  0  0
 37 36  1  0  0  0
 27 31  2  0  0  0
 27 28  1  0  0  0
 38 33  1  0  0  0
 31 32  1  0  0  0
 36 35  2  0  0  0
 33 28  1  0  0  0
 33 34  2  0  0  0
 35 34  1  0  0  0
 28 29  2  0  0  0
 32 25  1  0  0  0
 32 30  2  0  0  0
 25 23  1  0  0  0
 29 30  1  0  0  0
 22 23  1  0  0  0
 22 21  1  0  0  0
  1 21  1  0  0  0
  1  2  1  0  0  0
  2  3  1  0  0  0
  4  3  2  0  0  0
  3  6  1  0  0  0
  6  7  1  0  0  0
  7  9  1  0  0  0
  7  8  2  0  0  0
  9 11  1  0  0  0
 11 15  2  0  0  0
 11 12  1  0  0  0
 15 16  1  0  0  0
 19 17  2  0  0  0
 12 13  2  0  0  0
 16 17  1  0  0  0
 16 14  2  0  0  0
 17 18  1  0  0  0
 13 14  1  0  0  0
 23 24  1  0  0  0
  2  5  1  0  0  0
  9 10  1  0  0  0
 18 20  1  0  0  0
M  END
> <minimizedAffinity>
-10.75842

$$$$
5MO8_C98_A_404


 38 40  0  0  0  0  0  0  0  0999 V2000
    2.4150  128.3073  358.0943 C   0  0  0  0  0  0  0  0  0  0  0  0
    3.2165  128.9928  357.0914 N   0  0  0  0  0  0  0  0  0  0  0  0
    3.0243  128.8174  355.7890 C   0  0  0  0  0  0  0  0  0  0  0  0
    2.0409  128.2407  355.3351 O   0  0  0  0  0  0  0  0  0  0  0  0
    3.9256  129.6077  357.3887 H   0  0  0  0  0  0  0  0  0  0  0  0
    4.1183  129.3333  354.8791 C   0  0  0  0  0  0  0  0  0  0  0  0
    3.8172  130.7182  354.3506 C   0  0  0  0  0  0  0  0  0  0  0  0
    2.8224  130.9307  353.6656 O   0  0  0  0  0  0  0  0  0  0  0  0
    4.7067  131.6713  354.7036 N   0  0  0  0  0  0  0  0  0  0  0  0
    5.4363  131.3884  355.3010 H   0  0  0  0  0  0  0  0  0  0  0  0
    4.7076  133.0293  354.3118 C   0  0  0  0  0  0  0  0  0  0  0  0
    5.4263  133.4193  353.1899 C   0  0  0  0  0  0  0  0  0  0  0  0
    5.5376  134.7618  352.8728 C   0  0  0  0  0  0  0  0  0  0  0  0
    4.9292  135.7182  353.6649 C   0  0  0  0  0  0  0  0  0  0  0  0
    4.0679  133.9891  355.0874 C   0  0  0  0  0  0  0  0  0  0  0  0
    4.1840  135.3397  354.7734 C   0  0  0  0  0  0  0  0  0  0  0  0
    3.6088  136.3653  355.6822 C   0  0  0  0  0  0  0  0  0  0  0  0
    3.3772  136.1269  356.8495 O   0  0  0  0  0  0  0  0  0  0  0  0
    3.3112  137.4822  355.1124 O   0  0  0  0  0  0  0  0  0  0  0  0
    3.6147  135.2972  357.2143 H   0  0  0  0  0  0  0  0  0  0  0  0
    3.2355  127.7474  359.2312 C   0  0  0  0  0  0  0  0  0  0  0  0
    4.6763  127.5544  358.8202 C   0  0  0  0  0  0  0  0  0  0  0  0
    5.4994  128.7252  359.1113 N   0  0  0  0  0  0  0  0  0  0  0  0
    5.1931  129.4949  358.5162 H   0  0  0  0  0  0  0  0  0  0  0  0
    6.9217  128.4905  358.8756 C   0  0  0  0  0  0  0  0  0  0  0  0
   11.5595  130.3155  360.3144 Cl  0  0  0  0  0  0  0  0  0  0  0  0
    9.9052  129.9550  360.6925 C   0  0  0  0  0  0  0  0  0  0  0  0
    9.4213  130.1673  361.9745 C   0  0  0  0  0  0  0  0  0  0  0  0
    8.1224  129.7480  362.2482 C   0  0  0  0  0  0  0  0  0  0  0  0
    7.3336  129.1911  361.2588 C   0  0  0  0  0  0  0  0  0  0  0  0
    9.1139  129.4131  359.6996 C   0  0  0  0  0  0  0  0  0  0  0  0
    7.8074  129.0314  359.9704 C   0  0  0  0  0  0  0  0  0  0  0  0
   10.1659  130.9160  363.0251 C   0  0  0  0  0  0  0  0  0  0  0  0
   11.5575  130.9779  363.0069 C   0  0  0  0  0  0  0  0  0  0  0  0
   12.2492  131.6738  363.9831 C   0  0  0  0  0  0  0  0  0  0  0  0
   11.5686  132.3162  364.9904 C   0  0  0  0  0  0  0  0  0  0  0  0
   10.1931  132.2622  365.0290 C   0  0  0  0  0  0  0  0  0  0  0  0
    9.4940  131.5666  364.0571 C   0  0  0  0  0  0  0  0  0  0  0  0
 26 27  1  0  0  0
 37 38  2  0  0  0
 37 36  1  0  0  0
 27 31  2  0  0  0
 27 28  1  0  0  0
 38 33  1  0  0  0
 31 32  1  0  0  0
 36 35  2  0  0  0
 33 28  1  0  0  0
 33 34  2  0  0  0
 35 34  1  0  0  0
 28 29  2  0  0  0
 32 25  1  0  0  0
 32 30  2  0  0  0
 25 23  1  0  0  0
 29 30  1  0  0  0
 22 23  1  0  0  0
 22 21  1  0  0  0
  1 21  1  0  0  0
  1  2  1  0  0  0
  2  3  1  0  0  0
  4  3  2  0  0  0
  3  6  1  0  0  0
  6  7  1  0  0  0
  7  9  1  0  0  0
  7  8  2  0  0  0
  9 11  1  0  0  0
 11 15  2  0  0  0
 11 12  1  0  0  0
 15 16  1  0  0  0
 19 17  2  0  0  0
 12 13  2  0  0  0
 16 17  1  0  0  0
 16 14  2  0  0  0
 17 18  1  0  0  0
 13 14  1  0  0  0
 23 24  1  0  0  0
  2  5  1  0  0  0
  9 10  1  0  0  0
 18 20  1  0  0  0
M  END
> <minimizedAffinity>
-10.66457

$$$$
5MO8_C98_A_404


 38 40  0  0  0  0  0  0  0  0999 V2000
    7.3718  131.6768  357.7669 C   0  0  0  0  0  0  0  0  0  0  0  0
    7.0149  131.2215  359.1024 N   0  0  0  0  0  0  0  0  0  0  0  0
    7.5351  130.1242  359.6400 C   0  0  0  0  0  0  0  0  0  0  0  0
    8.4942  129.5359  359.1505 O   0  0  0  0  0  0  0  0  0  0  0  0
    6.3655  131.7451  359.6253 H   0  0  0  0  0  0  0  0  0  0  0  0
    6.8469  129.6007  360.8824 C   0  0  0  0  0  0  0  0  0  0  0  0
    7.7320  129.6872  362.1059 C   0  0  0  0  0  0  0  0  0  0  0  0
    7.6624  128.8474  362.9969 O   0  0  0  0  0  0  0  0  0  0  0  0
    8.5889  130.7312  362.1196 N   0  0  0  0  0  0  0  0  0  0  0  0
    8.5882  131.3076  361.3215 H   0  0  0  0  0  0  0  0  0  0  0  0
    9.4865  131.0891  363.1512 C   0  0  0  0  0  0  0  0  0  0  0  0
    8.9901  131.5024  364.3800 C   0  0  0  0  0  0  0  0  0  0  0  0
    9.8552  131.9756  365.3510 C   0  0  0  0  0  0  0  0  0  0  0  0
   11.2150  132.0319  365.1059 C   0  0  0  0  0  0  0  0  0  0  0  0
   10.8566  131.1137  362.9187 C   0  0  0  0  0  0  0  0  0  0  0  0
   11.7271  131.5949  363.8917 C   0  0  0  0  0  0  0  0  0  0  0  0
   13.1741  131.7421  363.5861 C   0  0  0  0  0  0  0  0  0  0  0  0
   13.8992  132.4505  364.2534 O   0  0  0  0  0  0  0  0  0  0  0  0
   13.5647  131.1250  362.5244 O   0  0  0  0  0  0  0  0  0  0  0  0
   13.5638  132.8767  365.0175 H   0  0  0  0  0  0  0  0  0  0  0  0
    6.3622  131.2854  356.7150 C   0  0  0  0  0  0  0  0  0  0  0  0
    7.0449  130.7921  355.4609 C   0  0  0  0  0  0  0  0  0  0  0  0
    6.6636  131.5627  354.2803 N   0  0  0  0  0  0  0  0  0  0  0  0
    7.2274  132.4122  354.2496 H   0  0  0  0  0  0  0  0  0  0  0  0
    5.2522  131.9392  354.2811 C   0  0  0  0  0  0  0  0  0  0  0  0
    3.1662  136.3275  356.0981 Cl  0  0  0  0  0  0  0  0  0  0  0  0
    4.1545  135.5053  354.9332 C   0  0  0  0  0  0  0  0  0  0  0  0
    4.7211  136.2077  353.8806 C   0  0  0  0  0  0  0  0  0  0  0  0
    5.4035  135.4753  352.9133 C   0  0  0  0  0  0  0  0  0  0  0  0
    5.5517  134.1060  353.0340 C   0  0  0  0  0  0  0  0  0  0  0  0
    4.3145  134.1403  355.0632 C   0  0  0  0  0  0  0  0  0  0  0  0
    5.0278  133.4216  354.1143 C   0  0  0  0  0  0  0  0  0  0  0  0
    4.7386  137.6947  353.7941 C   0  0  0  0  0  0  0  0  0  0  0  0
    4.3960  138.4778  354.8940 C   0  0  0  0  0  0  0  0  0  0  0  0
    4.4125  139.8595  354.8135 C   0  0  0  0  0  0  0  0  0  0  0  0
    4.7682  140.4814  353.6400 C   0  0  0  0  0  0  0  0  0  0  0  0
    5.1049  139.7248  352.5397 C   0  0  0  0  0  0  0  0  0  0  0  0
    5.0892  138.3421  352.6117 C   0  0  0  0  0  0  0  0  0  0  0  0
 26 27  1  0  0  0
 37 38  2  0  0  0
 37 36  1  0  0  0
 27 31  2  0  0  0
 27 28  1  0  0  0
 38 33  1  0  0  0
 31 32  1  0  0  0
 36 35  2  0  0  0
 33 28  1  0  0  0
 33 34  2  0  0  0
 35 34  1  0  0  0
 28 29  2  0  0  0
 32 25  1  0  0  0
 32 30  2  0  0  0
 25 23  1  0  0  0
 29 30  1  0  0  0
 22 23  1  0  0  0
 22 21  1  0  0  0
  1 21  1  0  0  0
  1  2  1  0  0  0
  2  3  1  0  0  0
  4  3  2  0  0  0
  3  6  1  0  0  0
  6  7  1  0  0  0
  7  9  1  0  0  0
  7  8  2  0  0  0
  9 11  1  0  0  0
 11 15  2  0  0  0
 11 12  1  0  0  0
 15 16  1  0  0  0
 19 17  2  0  0  0
 12 13  2  0  0  0
 16 17  1  0  0  0
 16 14  2  0  0  0
 17 18  1  0  0  0
 13 14  1  0  0  0
 23 24  1  0  0  0
  2  5  1  0  0  0
  9 10  1  0  0  0
 18 20  1  0  0  0
M  END
> <minimizedAffinity>
-10.43177

$$$$
5MO8_C98_A_404


 38 40  0  0  0  0  0  0  0  0999 V2000
    6.1630  131.1967  357.5810 C   0  0  0  0  0  0  0  0  0  0  0  0
    5.3797  131.5740  356.4139 N   0  0  0  0  0  0  0  0  0  0  0  0
    5.6037  132.6979  355.7427 C   0  0  0  0  0  0  0  0  0  0  0  0
    6.6021  133.3889  355.9200 O   0  0  0  0  0  0  0  0  0  0  0  0
    4.6589  130.9755  356.1115 H   0  0  0  0  0  0  0  0  0  0  0  0
    4.5271  133.1149  354.7638 C   0  0  0  0  0  0  0  0  0  0  0  0
    4.1315  134.5650  354.9321 C   0  0  0  0  0  0  0  0  0  0  0  0
    3.1481  134.8790  355.5942 O   0  0  0  0  0  0  0  0  0  0  0  0
    4.9428  135.4543  354.3194 N   0  0  0  0  0  0  0  0  0  0  0  0
    5.7315  135.0832  353.8618 H   0  0  0  0  0  0  0  0  0  0  0  0
    4.7865  136.8579  354.2615 C   0  0  0  0  0  0  0  0  0  0  0  0
    4.1306  137.5184  355.2914 C   0  0  0  0  0  0  0  0  0  0  0  0
    3.8607  138.8714  355.1833 C   0  0  0  0  0  0  0  0  0  0  0  0
    4.2483  139.5718  354.0556 C   0  0  0  0  0  0  0  0  0  0  0  0
    5.2061  137.5701  353.1441 C   0  0  0  0  0  0  0  0  0  0  0  0
    4.9300  138.9292  353.0311 C   0  0  0  0  0  0  0  0  0  0  0  0
    5.2638  139.6528  351.7766 C   0  0  0  0  0  0  0  0  0  0  0  0
    5.4499  139.0660  350.7307 O   0  0  0  0  0  0  0  0  0  0  0  0
    5.4123  140.9256  351.9136 O   0  0  0  0  0  0  0  0  0  0  0  0
    5.3274  138.1382  350.6859 H   0  0  0  0  0  0  0  0  0  0  0  0
    7.4720  130.5317  357.2298 C   0  0  0  0  0  0  0  0  0  0  0  0
    7.3148  129.0319  357.1401 C   0  0  0  0  0  0  0  0  0  0  0  0
    7.5391  128.3715  358.4233 N   0  0  0  0  0  0  0  0  0  0  0  0
    7.1349  128.9479  359.1615 H   0  0  0  0  0  0  0  0  0  0  0  0
    8.9556  128.1661  358.7146 C   0  0  0  0  0  0  0  0  0  0  0  0
    8.2980  130.3188  363.3884 Cl  0  0  0  0  0  0  0  0  0  0  0  0
    9.2813  130.0498  361.9846 C   0  0  0  0  0  0  0  0  0  0  0  0
   10.5216  130.6600  361.8754 C   0  0  0  0  0  0  0  0  0  0  0  0
   11.2113  130.5029  360.6765 C   0  0  0  0  0  0  0  0  0  0  0  0
   10.6958  129.7219  359.6588 C   0  0  0  0  0  0  0  0  0  0  0  0
    8.7721  129.2574  360.9755 C   0  0  0  0  0  0  0  0  0  0  0  0
    9.4823  129.0752  359.7972 C   0  0  0  0  0  0  0  0  0  0  0  0
   11.1967  131.3660  363.0000 C   0  0  0  0  0  0  0  0  0  0  0  0
   10.4572  131.9137  364.0458 C   0  0  0  0  0  0  0  0  0  0  0  0
   11.0847  132.5695  365.0907 C   0  0  0  0  0  0  0  0  0  0  0  0
   12.4542  132.6911  365.1103 C   0  0  0  0  0  0  0  0  0  0  0  0
   13.2026  132.1613  364.0830 C   0  0  0  0  0  0  0  0  0  0  0  0
   12.5822  131.5053  363.0332 C   0  0  0  0  0  0  0  0  0  0  0  0
 26 27  1  0  0  0
 37 38  2  0  0  0
 37 36  1  0  0  0
 27 31  2  0  0  0
 27 28  1  0  0  0
 38 33  1  0  0  0
 31 32  1  0  0  0
 36 35  2  0  0  0
 33 28  1  0  0  0
 33 34  2  0  0  0
 35 34  1  0  0  0
 28 29  2  0  0  0
 32 25  1  0  0  0
 32 30  2  0  0  0
 25 23  1  0  0  0
 29 30  1  0  0  0
 22 23  1  0  0  0
 22 21  1  0  0  0
  1 21  1  0  0  0
  1  2  1  0  0  0
  2  3  1  0  0  0
  4  3  2  0  0  0
  3  6  1  0  0  0
  6  7  1  0  0  0
  7  9  1  0  0  0
  7  8  2  0  0  0
  9 11  1  0  0  0
 11 15  2  0  0  0
 11 12  1  0  0  0
 15 16  1  0  0  0
 19 17  2  0  0  0
 12 13  2  0  0  0
 16 17  1  0  0  0
 16 14  2  0  0  0
 17 18  1  0  0  0
 13 14  1  0  0  0
 23 24  1  0  0  0
  2  5  1  0  0  0
  9 10  1  0  0  0
 18 20  1  0  0  0
M  END
> <minimizedAffinity>
-10.01060

$$$$
5MO8_C98_A_404


 38 40  0  0  0  0  0  0  0  0999 V2000
    6.9680  132.4008  355.7374 C   0  0  0  0  0  0  0  0  0  0  0  0
    5.9716  133.4290  355.9987 N   0  0  0  0  0  0  0  0  0  0  0  0
    4.8423  133.5145  355.3050 C   0  0  0  0  0  0  0  0  0  0  0  0
    4.4596  132.6278  354.5482 O   0  0  0  0  0  0  0  0  0  0  0  0
    6.1407  134.0837  356.7142 H   0  0  0  0  0  0  0  0  0  0  0  0
    4.0598  134.8007  355.4626 C   0  0  0  0  0  0  0  0  0  0  0  0
    4.4952  135.8598  354.4744 C   0  0  0  0  0  0  0  0  0  0  0  0
    5.2143  135.5779  353.5219 O   0  0  0  0  0  0  0  0  0  0  0  0
    4.0222  137.1008  354.7202 N   0  0  0  0  0  0  0  0  0  0  0  0
    3.4100  137.1914  355.4860 H   0  0  0  0  0  0  0  0  0  0  0  0
    4.3073  138.2840  354.0017 C   0  0  0  0  0  0  0  0  0  0  0  0
    4.9862  138.2063  352.7932 C   0  0  0  0  0  0  0  0  0  0  0  0
    5.3816  139.3644  352.1470 C   0  0  0  0  0  0  0  0  0  0  0  0
    5.0968  140.6013  352.6959 C   0  0  0  0  0  0  0  0  0  0  0  0
    3.9914  139.5282  354.5349 C   0  0  0  0  0  0  0  0  0  0  0  0
    4.3937  140.6934  353.8895 C   0  0  0  0  0  0  0  0  0  0  0  0
    4.1687  142.0140  354.5329 C   0  0  0  0  0  0  0  0  0  0  0  0
    4.1475  142.1415  355.7396 O   0  0  0  0  0  0  0  0  0  0  0  0
    3.9249  142.9772  353.7121 O   0  0  0  0  0  0  0  0  0  0  0  0
    4.3327  141.4074  356.2916 H   0  0  0  0  0  0  0  0  0  0  0  0
    7.2144  131.4963  356.9207 C   0  0  0  0  0  0  0  0  0  0  0  0
    7.2966  130.0497  356.4935 C   0  0  0  0  0  0  0  0  0  0  0  0
    8.3762  129.3317  357.1657 N   0  0  0  0  0  0  0  0  0  0  0  0
    8.7212  128.6029  356.5410 H   0  0  0  0  0  0  0  0  0  0  0  0
    7.9502  128.7105  358.4172 C   0  0  0  0  0  0  0  0  0  0  0  0
   12.3437  130.4785  360.5341 Cl  0  0  0  0  0  0  0  0  0  0  0  0
   10.6443  130.1518  360.6559 C   0  0  0  0  0  0  0  0  0  0  0  0
    9.9720  130.3919  361.8446 C   0  0  0  0  0  0  0  0  0  0  0  0
    8.6387  129.9990  361.9191 C   0  0  0  0  0  0  0  0  0  0  0  0
    8.0019  129.4404  360.8265 C   0  0  0  0  0  0  0  0  0  0  0  0
   10.0058  129.6083  359.5593 C   0  0  0  0  0  0  0  0  0  0  0  0
    8.6661  129.2531  359.6292 C   0  0  0  0  0  0  0  0  0  0  0  0
   10.5595  131.1439  362.9885 C   0  0  0  0  0  0  0  0  0  0  0  0
    9.7715  131.5259  364.0718 C   0  0  0  0  0  0  0  0  0  0  0  0
   10.3176  132.2244  365.1346 C   0  0  0  0  0  0  0  0  0  0  0  0
   11.6526  132.5536  365.1352 C   0  0  0  0  0  0  0  0  0  0  0  0
   12.4472  132.1899  364.0709 C   0  0  0  0  0  0  0  0  0  0  0  0
   11.9079  131.4925  363.0031 C   0  0  0  0  0  0  0  0  0  0  0  0
 26 27  1  0  0  0
 37 38  2  0  0  0
 37 36  1  0  0  0
 27 31  2  0  0  0
 27 28  1  0  0  0
 38 33  1  0  0  0
 31 32  1  0  0  0
 36 35  2  0  0  0
 33 28  1  0  0  0
 33 34  2  0  0  0
 35 34  1  0  0  0
 28 29  2  0  0  0
 32 25  1  0  0  0
 32 30  2  0  0  0
 25 23  1  0  0  0
 29 30  1  0  0  0
 22 23  1  0  0  0
 22 21  1  0  0  0
  1 21  1  0  0  0
  1  2  1  0  0  0
  2  3  1  0  0  0
  4  3  2  0  0  0
  3  6  1  0  0  0
  6  7  1  0  0  0
  7  9  1  0  0  0
  7  8  2  0  0  0
  9 11  1  0  0  0
 11 15  2  0  0  0
 11 12  1  0  0  0
 15 16  1  0  0  0
 19 17  2  0  0  0
 12 13  2  0  0  0
 16 17  1  0  0  0
 16 14  2  0  0  0
 17 18  1  0  0  0
 13 14  1  0  0  0
 23 24  1  0  0  0
  2  5  1  0  0  0
  9 10  1  0  0  0
 18 20  1  0  0  0
M  END
> <minimizedAffinity>
-9.84578

$$$$
5MO8_C98_A_404


 38 40  0  0  0  0  0  0  0  0999 V2000
    4.6334  131.5738  354.0627 C   0  0  0  0  0  0  0  0  0  0  0  0
    4.6117  131.6007  352.6077 N   0  0  0  0  0  0  0  0  0  0  0  0
    3.6547  131.0093  351.9018 C   0  0  0  0  0  0  0  0  0  0  0  0
    2.6221  130.5835  352.4098 O   0  0  0  0  0  0  0  0  0  0  0  0
    5.3311  132.0737  352.1302 H   0  0  0  0  0  0  0  0  0  0  0  0
    3.9249  130.8434  350.4217 C   0  0  0  0  0  0  0  0  0  0  0  0
    5.2322  131.4793  350.0040 C   0  0  0  0  0  0  0  0  0  0  0  0
    6.2654  130.8212  349.9474 O   0  0  0  0  0  0  0  0  0  0  0  0
    5.1567  132.7919  349.6943 N   0  0  0  0  0  0  0  0  0  0  0  0
    4.2604  133.1978  349.7270 H   0  0  0  0  0  0  0  0  0  0  0  0
    6.2202  133.6481  349.3287 C   0  0  0  0  0  0  0  0  0  0  0  0
    6.0384  134.5704  348.3072 C   0  0  0  0  0  0  0  0  0  0  0  0
    7.1091  135.3228  347.8569 C   0  0  0  0  0  0  0  0  0  0  0  0
    8.3599  135.1657  348.4253 C   0  0  0  0  0  0  0  0  0  0  0  0
    7.4699  133.5160  349.9225 C   0  0  0  0  0  0  0  0  0  0  0  0
    8.5488  134.2672  349.4667 C   0  0  0  0  0  0  0  0  0  0  0  0
    9.9080  134.0240  350.0164 C   0  0  0  0  0  0  0  0  0  0  0  0
   10.4278  134.7927  350.7986 O   0  0  0  0  0  0  0  0  0  0  0  0
   10.5038  132.9865  349.5374 O   0  0  0  0  0  0  0  0  0  0  0  0
    9.9490  135.5328  351.1164 H   0  0  0  0  0  0  0  0  0  0  0  0
    5.5967  132.5697  354.6621 C   0  0  0  0  0  0  0  0  0  0  0  0
    6.2964  133.3668  353.5865 C   0  0  0  0  0  0  0  0  0  0  0  0
    5.5671  134.5811  353.2308 N   0  0  0  0  0  0  0  0  0  0  0  0
    6.2356  135.2785  352.9034 H   0  0  0  0  0  0  0  0  0  0  0  0
    4.8197  135.1422  354.3534 C   0  0  0  0  0  0  0  0  0  0  0  0
    5.5170  139.5286  351.6730 Cl  0  0  0  0  0  0  0  0  0  0  0  0
    4.8524  138.6957  353.0421 C   0  0  0  0  0  0  0  0  0  0  0  0
    4.1641  139.3991  354.0188 C   0  0  0  0  0  0  0  0  0  0  0  0
    3.7587  138.6970  355.1504 C   0  0  0  0  0  0  0  0  0  0  0  0
    3.9906  137.3388  355.2633 C   0  0  0  0  0  0  0  0  0  0  0  0
    5.0714  137.3367  353.1463 C   0  0  0  0  0  0  0  0  0  0  0  0
    4.6317  136.6362  354.2607 C   0  0  0  0  0  0  0  0  0  0  0  0
    3.7388  140.8189  353.8693 C   0  0  0  0  0  0  0  0  0  0  0  0
    2.5651  141.1453  353.1938 C   0  0  0  0  0  0  0  0  0  0  0  0
    2.1701  142.4645  353.0552 C   0  0  0  0  0  0  0  0  0  0  0  0
    2.9356  143.4767  353.5843 C   0  0  0  0  0  0  0  0  0  0  0  0
    4.1022  143.1750  354.2509 C   0  0  0  0  0  0  0  0  0  0  0  0
    4.5051  141.8578  354.3922 C   0  0  0  0  0  0  0  0  0  0  0  0
 26 27  1  0  0  0
 37 38  2  0  0  0
 37 36  1  0  0  0
 27 31  2  0  0  0
 27 28  1  0  0  0
 38 33  1  0  0  0
 31 32  1  0  0  0
 36 35  2  0  0  0
 33 28  1  0  0  0
 33 34  2  0  0  0
 35 34  1  0  0  0
 28 29  2  0  0  0
 32 25  1  0  0  0
 32 30  2  0  0  0
 25 23  1  0  0  0
 29 30  1  0  0  0
 22 23  1  0  0  0
 22 21  1  0  0  0
  1 21  1  0  0  0
  1  2  1  0  0  0
  2  3  1  0  0  0
  4  3  2  0  0  0
  3  6  1  0  0  0
  6  7  1  0  0  0
  7  9  1  0  0  0
  7  8  2  0  0  0
  9 11  1  0  0  0
 11 15  2  0  0  0
 11 12  1  0  0  0
 15 16  1  0  0  0
 19 17  2  0  0  0
 12 13  2  0  0  0
 16 17  1  0  0  0
 16 14  2  0  0  0
 17 18  1  0  0  0
 13 14  1  0  0  0
 23 24  1  0  0  0
  2  5  1  0  0  0
  9 10  1  0  0  0
 18 20  1  0  0  0
M  END
> <minimizedAffinity>
-9.65704

$$$$
5MO8_C98_A_404


 38 40  0  0  0  0  0  0  0  0999 V2000
    4.7910  128.8554  357.5750 C   0  0  0  0  0  0  0  0  0  0  0  0
    5.7892  129.9034  357.7280 N   0  0  0  0  0  0  0  0  0  0  0  0
    6.7050  130.1515  356.7987 C   0  0  0  0  0  0  0  0  0  0  0  0
    6.6533  129.6705  355.6710 O   0  0  0  0  0  0  0  0  0  0  0  0
    5.7855  130.4472  358.5487 H   0  0  0  0  0  0  0  0  0  0  0  0
    7.8588  131.0359  357.2201 C   0  0  0  0  0  0  0  0  0  0  0  0
    8.9498  130.2575  357.9213 C   0  0  0  0  0  0  0  0  0  0  0  0
    8.7753  129.0927  358.2629 O   0  0  0  0  0  0  0  0  0  0  0  0
   10.1015  130.9356  358.1165 N   0  0  0  0  0  0  0  0  0  0  0  0
   10.1386  131.8486  357.7500 H   0  0  0  0  0  0  0  0  0  0  0  0
   11.2594  130.4817  358.7879 C   0  0  0  0  0  0  0  0  0  0  0  0
   11.9261  131.3331  359.6585 C   0  0  0  0  0  0  0  0  0  0  0  0
   13.1290  130.9431  360.2208 C   0  0  0  0  0  0  0  0  0  0  0  0
   13.6677  129.7042  359.9253 C   0  0  0  0  0  0  0  0  0  0  0  0
   11.7846  129.2232  358.5189 C   0  0  0  0  0  0  0  0  0  0  0  0
   12.9970  128.8320  359.0786 C   0  0  0  0  0  0  0  0  0  0  0  0
   13.6157  127.5404  358.6815 C   0  0  0  0  0  0  0  0  0  0  0  0
   14.3102  126.9029  359.4458 O   0  0  0  0  0  0  0  0  0  0  0  0
   13.4173  127.2046  357.4533 O   0  0  0  0  0  0  0  0  0  0  0  0
   14.4211  127.1921  360.3302 H   0  0  0  0  0  0  0  0  0  0  0  0
    3.8720  128.7302  358.7662 C   0  0  0  0  0  0  0  0  0  0  0  0
    4.5475  127.9970  359.9012 C   0  0  0  0  0  0  0  0  0  0  0  0
    5.7670  128.6654  360.3475 N   0  0  0  0  0  0  0  0  0  0  0  0
    6.5701  128.1148  360.0439 H   0  0  0  0  0  0  0  0  0  0  0  0
    5.8292  128.8206  361.7986 C   0  0  0  0  0  0  0  0  0  0  0  0
    8.1179  131.6463  365.4983 Cl  0  0  0  0  0  0  0  0  0  0  0  0
    8.1934  130.8348  363.9667 C   0  0  0  0  0  0  0  0  0  0  0  0
    9.3499  130.8924  363.2040 C   0  0  0  0  0  0  0  0  0  0  0  0
    9.3104  130.3241  361.9339 C   0  0  0  0  0  0  0  0  0  0  0  0
    8.1737  129.6816  361.4793 C   0  0  0  0  0  0  0  0  0  0  0  0
    7.0627  130.1805  363.5206 C   0  0  0  0  0  0  0  0  0  0  0  0
    7.0429  129.5840  362.2677 C   0  0  0  0  0  0  0  0  0  0  0  0
   10.6482  131.4182  363.7106 C   0  0  0  0  0  0  0  0  0  0  0  0
   10.6859  132.4838  364.6071 C   0  0  0  0  0  0  0  0  0  0  0  0
   11.8924  132.9721  365.0778 C   0  0  0  0  0  0  0  0  0  0  0  0
   13.0769  132.4098  364.6639 C   0  0  0  0  0  0  0  0  0  0  0  0
   13.0610  131.3592  363.7738 C   0  0  0  0  0  0  0  0  0  0  0  0
   11.8582  130.8661  363.2969 C   0  0  0  0  0  0  0  0  0  0  0  0
 26 27  1  0  0  0
 37 38  2  0  0  0
 37 36  1  0  0  0
 27 31  2  0  0  0
 27 28  1  0  0  0
 38 33  1  0  0  0
 31 32  1  0  0  0
 36 35  2  0  0  0
 33 28  1  0  0  0
 33 34  2  0  0  0
 35 34  1  0  0  0
 28 29  2  0  0  0
 32 25  1  0  0  0
 32 30  2  0  0  0
 25 23  1  0  0  0
 29 30  1  0  0  0
 22 23  1  0  0  0
 22 21  1  0  0  0
  1 21  1  0  0  0
  1  2  1  0  0  0
  2  3  1  0  0  0
  4  3  2  0  0  0
  3  6  1  0  0  0
  6  7  1  0  0  0
  7  9  1  0  0  0
  7  8  2  0  0  0
  9 11  1  0  0  0
 11 15  2  0  0  0
 11 12  1  0  0  0
 15 16  1  0  0  0
 19 17  2  0  0  0
 12 13  2  0  0  0
 16 17  1  0  0  0
 16 14  2  0  0  0
 17 18  1  0  0  0
 13 14  1  0  0  0
 23 24  1  0  0  0
  2  5  1  0  0  0
  9 10  1  0  0  0
 18 20  1  0  0  0
M  END
> <minimizedAffinity>
-9.61219

$$$$
5MO8_C98_A_404


 38 40  0  0  0  0  0  0  0  0999 V2000
    4.6551  128.3834  357.2960 C   0  0  0  0  0  0  0  0  0  0  0  0
    4.8065  129.8141  357.0758 N   0  0  0  0  0  0  0  0  0  0  0  0
    5.9825  130.3695  356.8064 C   0  0  0  0  0  0  0  0  0  0  0  0
    6.9771  129.7110  356.5188 O   0  0  0  0  0  0  0  0  0  0  0  0
    4.0098  130.3900  357.1284 H   0  0  0  0  0  0  0  0  0  0  0  0
    6.0476  131.8777  356.9173 C   0  0  0  0  0  0  0  0  0  0  0  0
    5.7180  132.5621  355.6093 C   0  0  0  0  0  0  0  0  0  0  0  0
    5.0071  133.5609  355.5802 O   0  0  0  0  0  0  0  0  0  0  0  0
    6.2729  131.9999  354.5136 N   0  0  0  0  0  0  0  0  0  0  0  0
    6.8684  131.2319  354.6706 H   0  0  0  0  0  0  0  0  0  0  0  0
    6.0945  132.3906  353.1670 C   0  0  0  0  0  0  0  0  0  0  0  0
    6.7395  133.5236  352.6900 C   0  0  0  0  0  0  0  0  0  0  0  0
    6.4714  133.9854  351.4133 C   0  0  0  0  0  0  0  0  0  0  0  0
    5.5682  133.3185  350.6058 C   0  0  0  0  0  0  0  0  0  0  0  0
    5.2131  131.7016  352.3422 C   0  0  0  0  0  0  0  0  0  0  0  0
    4.9378  132.1681  351.0605 C   0  0  0  0  0  0  0  0  0  0  0  0
    3.8960  131.5023  350.2358 C   0  0  0  0  0  0  0  0  0  0  0  0
    3.0344  132.1354  349.6617 O   0  0  0  0  0  0  0  0  0  0  0  0
    3.9419  130.2145  350.2490 O   0  0  0  0  0  0  0  0  0  0  0  0
    3.0479  133.0721  349.6839 H   0  0  0  0  0  0  0  0  0  0  0  0
    3.4862  128.0387  358.1870 C   0  0  0  0  0  0  0  0  0  0  0  0
    3.9547  127.5796  359.5478 C   0  0  0  0  0  0  0  0  0  0  0  0
    5.2670  128.1183  359.8951 N   0  0  0  0  0  0  0  0  0  0  0  0
    5.8530  127.3554  360.2344 H   0  0  0  0  0  0  0  0  0  0  0  0
    5.2008  129.1501  360.9269 C   0  0  0  0  0  0  0  0  0  0  0  0
   10.2016  130.2426  360.0849 Cl  0  0  0  0  0  0  0  0  0  0  0  0
    8.8577  130.1062  361.1735 C   0  0  0  0  0  0  0  0  0  0  0  0
    9.0333  130.3360  362.5296 C   0  0  0  0  0  0  0  0  0  0  0  0
    7.9482  130.0951  363.3675 C   0  0  0  0  0  0  0  0  0  0  0  0
    6.7296  129.6939  362.8524 C   0  0  0  0  0  0  0  0  0  0  0  0
    7.6375  129.7204  360.6558 C   0  0  0  0  0  0  0  0  0  0  0  0
    6.5498  129.5178  361.4935 C   0  0  0  0  0  0  0  0  0  0  0  0
   10.2678  130.9309  363.1135 C   0  0  0  0  0  0  0  0  0  0  0  0
   11.5126  130.7089  362.5291 C   0  0  0  0  0  0  0  0  0  0  0  0
   12.6595  131.2620  363.0717 C   0  0  0  0  0  0  0  0  0  0  0  0
   12.5856  132.0415  364.2019 C   0  0  0  0  0  0  0  0  0  0  0  0
   11.3650  132.2684  364.7977 C   0  0  0  0  0  0  0  0  0  0  0  0
   10.2133  131.7172  364.2619 C   0  0  0  0  0  0  0  0  0  0  0  0
 26 27  1  0  0  0
 37 38  2  0  0  0
 37 36  1  0  0  0
 27 31  2  0  0  0
 27 28  1  0  0  0
 38 33  1  0  0  0
 31 32  1  0  0  0
 36 35  2  0  0  0
 33 28  1  0  0  0
 33 34  2  0  0  0
 35 34  1  0  0  0
 28 29  2  0  0  0
 32 25  1  0  0  0
 32 30  2  0  0  0
 25 23  1  0  0  0
 29 30  1  0  0  0
 22 23  1  0  0  0
 22 21  1  0  0  0
  1 21  1  0  0  0
  1  2  1  0  0  0
  2  3  1  0  0  0
  4  3  2  0  0  0
  3  6  1  0  0  0
  6  7  1  0  0  0
  7  9  1  0  0  0
  7  8  2  0  0  0
  9 11  1  0  0  0
 11 15  2  0  0  0
 11 12  1  0  0  0
 15 16  1  0  0  0
 19 17  2  0  0  0
 12 13  2  0  0  0
 16 17  1  0  0  0
 16 14  2  0  0  0
 17 18  1  0  0  0
 13 14  1  0  0  0
 23 24  1  0  0  0
  2  5  1  0  0  0
  9 10  1  0  0  0
 18 20  1  0  0  0
M  END
> <minimizedAffinity>
-9.44240

$$$$
