4QL1_35Q_A_401


 39 42  0  0  0  0  0  0  0  0999 V2000
  -12.4016  -26.1552    1.8050 C   0  0  0  0  0  0  0  0  0  0  0  0
  -12.7318  -26.3841    0.4665 C   0  0  0  0  0  0  0  0  0  0  0  0
  -13.2811  -25.4168    2.6273 C   0  0  0  0  0  0  0  0  0  0  0  0
  -14.4725  -24.9061    2.0463 C   0  0  0  0  0  0  0  0  0  0  0  0
  -14.7521  -25.1242    0.6983 C   0  0  0  0  0  0  0  0  0  0  0  0
  -13.8959  -25.8589   -0.1161 C   0  0  0  0  0  0  0  0  0  0  0  0
  -13.0212  -25.1196    3.9236 N   0  0  0  0  0  0  0  0  0  0  0  0
  -14.0955  -24.9139    4.8950 C   0  0  0  0  0  0  0  0  0  0  0  0
  -13.5768  -24.8093    6.3045 C   0  0  0  0  0  0  0  0  0  0  0  0
  -12.4814  -23.8678    6.5067 N   0  0  0  0  0  0  0  0  0  0  0  0
  -12.0382  -23.8670    7.9197 C   0  0  0  0  0  0  0  0  0  0  0  0
  -11.3508  -24.2481    5.6782 C   0  0  0  0  0  0  0  0  0  0  0  0
  -11.7968  -24.3483    4.2163 C   0  0  0  0  0  0  0  0  0  0  0  0
  -14.1513  -26.0561   -1.4986 C   0  0  0  0  0  0  0  0  0  0  0  0
  -13.1017  -25.8124   -2.4163 C   0  0  0  0  0  0  0  0  0  0  0  0
  -15.3998  -26.4110   -1.9934 C   0  0  0  0  0  0  0  0  0  0  0  0
  -15.5756  -26.5681   -3.3707 C   0  0  0  0  0  0  0  0  0  0  0  0
  -14.5368  -26.3504   -4.2555 C   0  0  0  0  0  0  0  0  0  0  0  0
  -13.2865  -25.9840   -3.7931 C   0  0  0  0  0  0  0  0  0  0  0  0
  -12.2746  -25.7410   -4.7103 C   0  0  0  0  0  0  0  0  0  0  0  0
  -12.2146  -24.3124   -5.0328 N   0  0  0  0  0  0  0  0  0  0  0  0
  -12.5536  -24.0706   -6.4492 C   0  0  0  0  0  0  0  0  0  0  0  0
  -12.8767  -23.8097   -4.4417 H   0  0  0  0  0  0  0  0  0  0  0  0
  -10.2429  -27.1328    1.5718 C   0  0  0  0  0  0  0  0  0  0  0  0
  -10.1204  -26.7721    0.3950 O   0  0  0  0  0  0  0  0  0  0  0  0
  -11.2935  -26.7751    2.3224 N   0  0  0  0  0  0  0  0  0  0  0  0
  -11.2687  -26.9657    3.2880 H   0  0  0  0  0  0  0  0  0  0  0  0
   -8.0667  -27.5959    2.7934 C   0  0  0  0  0  0  0  0  0  0  0  0
   -7.2336  -28.5859    3.3263 C   0  0  0  0  0  0  0  0  0  0  0  0
   -7.5412  -29.9392    3.2301 C   0  0  0  0  0  0  0  0  0  0  0  0
   -6.7980  -30.8168    3.6857 O   0  0  0  0  0  0  0  0  0  0  0  0
   -8.7337  -30.3029    2.5956 N   0  0  0  0  0  0  0  0  0  0  0  0
   -9.5497  -29.3667    2.1164 C   0  0  0  0  0  0  0  0  0  0  0  0
   -9.2896  -27.9950    2.1871 C   0  0  0  0  0  0  0  0  0  0  0  0
   -8.9701  -31.2541    2.5031 H   0  0  0  0  0  0  0  0  0  0  0  0
   -6.4735  -26.0995    3.5214 F   0  0  0  0  0  0  0  0  0  0  0  0
   -7.6929  -26.2499    2.9335 C   0  0  0  0  0  0  0  0  0  0  0  0
   -7.5768  -25.6628    1.6638 F   0  0  0  0  0  0  0  0  0  0  0  0
   -8.5253  -25.6494    3.6392 F   0  0  0  0  0  0  0  0  0  0  0  0
 22 21  1  0  0  0
 20 21  1  0  0  0
 20 19  1  0  0  0
 18 19  2  0  0  0
 18 17  1  0  0  0
 19 15  1  0  0  0
 17 16  2  0  0  0
 15 14  2  0  0  0
 16 14  1  0  0  0
 14  6  1  0  0  0
  6  2  2  0  0  0
  6  5  1  0  0  0
  2  1  1  0  0  0
  5  4  2  0  0  0
 25 24  2  0  0  0
 38 37  1  0  0  0
  1 26  1  0  0  0
  1  3  2  0  0  0
 24 34  1  0  0  0
 24 26  1  0  0  0
  4  3  1  0  0  0
 33 34  2  0  0  0
 33 32  1  0  0  0
 34 28  1  0  0  0
 32 30  1  0  0  0
  3  7  1  0  0  0
 28 37  1  0  0  0
 28 29  2  0  0  0
 37 36  1  0  0  0
 37 39  1  0  0  0
 30 29  1  0  0  0
 30 31  2  0  0  0
  7 13  1  0  0  0
  7  8  1  0  0  0
 13 12  1  0  0  0
  8  9  1  0  0  0
 12 10  1  0  0  0
  9 10  1  0  0  0
 10 11  1  0  0  0
 32 35  1  0  0  0
 26 27  1  0  0  0
 21 23  1  0  0  0
M  END
> <minimizedAffinity>
-10.99423

$$$$
4QL1_35Q_A_401


 39 42  0  0  0  0  0  0  0  0999 V2000
  -12.2779  -25.8812    1.8745 C   0  0  0  0  0  0  0  0  0  0  0  0
  -12.6222  -26.1342    0.5440 C   0  0  0  0  0  0  0  0  0  0  0  0
  -13.2366  -25.3311    2.7539 C   0  0  0  0  0  0  0  0  0  0  0  0
  -14.5247  -25.0282    2.2373 C   0  0  0  0  0  0  0  0  0  0  0  0
  -14.8216  -25.2614    0.8955 C   0  0  0  0  0  0  0  0  0  0  0  0
  -13.8860  -25.8121    0.0251 C   0  0  0  0  0  0  0  0  0  0  0  0
  -12.9755  -25.0224    4.0473 N   0  0  0  0  0  0  0  0  0  0  0  0
  -14.0472  -24.8590    5.0296 C   0  0  0  0  0  0  0  0  0  0  0  0
  -13.5186  -24.7324    6.4336 C   0  0  0  0  0  0  0  0  0  0  0  0
  -12.4598  -23.7475    6.6239 N   0  0  0  0  0  0  0  0  0  0  0  0
  -12.0025  -23.7275    8.0323 C   0  0  0  0  0  0  0  0  0  0  0  0
  -11.3235  -24.0830    5.7841 C   0  0  0  0  0  0  0  0  0  0  0  0
  -11.7801  -24.2024    4.3269 C   0  0  0  0  0  0  0  0  0  0  0  0
  -14.1643  -26.0196   -1.3514 C   0  0  0  0  0  0  0  0  0  0  0  0
  -13.1231  -25.8066   -2.2861 C   0  0  0  0  0  0  0  0  0  0  0  0
  -15.4262  -26.3556   -1.8251 C   0  0  0  0  0  0  0  0  0  0  0  0
  -15.6241  -26.5245   -3.1981 C   0  0  0  0  0  0  0  0  0  0  0  0
  -14.5936  -26.3369   -4.0994 C   0  0  0  0  0  0  0  0  0  0  0  0
  -13.3302  -25.9898   -3.6583 C   0  0  0  0  0  0  0  0  0  0  0  0
  -12.3266  -25.7767   -4.5918 C   0  0  0  0  0  0  0  0  0  0  0  0
  -11.8913  -24.3774   -4.5582 N   0  0  0  0  0  0  0  0  0  0  0  0
  -10.4349  -24.2770   -4.3386 C   0  0  0  0  0  0  0  0  0  0  0  0
  -12.1251  -23.9347   -5.4468 H   0  0  0  0  0  0  0  0  0  0  0  0
   -9.9177  -26.1020    1.6493 C   0  0  0  0  0  0  0  0  0  0  0  0
   -9.8647  -25.3659    0.6567 O   0  0  0  0  0  0  0  0  0  0  0  0
  -11.0552  -26.3049    2.3277 N   0  0  0  0  0  0  0  0  0  0  0  0
  -11.0111  -26.7789    3.1894 H   0  0  0  0  0  0  0  0  0  0  0  0
   -8.5600  -28.2202    1.9846 C   0  0  0  0  0  0  0  0  0  0  0  0
   -7.3844  -28.7623    2.5160 C   0  0  0  0  0  0  0  0  0  0  0  0
   -6.4556  -27.9833    3.1985 C   0  0  0  0  0  0  0  0  0  0  0  0
   -5.4240  -28.4634    3.6835 O   0  0  0  0  0  0  0  0  0  0  0  0
   -6.7109  -26.6143    3.3313 N   0  0  0  0  0  0  0  0  0  0  0  0
   -7.8094  -26.0833    2.7990 C   0  0  0  0  0  0  0  0  0  0  0  0
   -8.7733  -26.8192    2.1037 C   0  0  0  0  0  0  0  0  0  0  0  0
   -6.0762  -26.0419    3.8199 H   0  0  0  0  0  0  0  0  0  0  0  0
   -9.9261  -28.5170    0.1534 F   0  0  0  0  0  0  0  0  0  0  0  0
   -9.4482  -29.0679    1.3038 C   0  0  0  0  0  0  0  0  0  0  0  0
   -8.7735  -30.2353    0.9137 F   0  0  0  0  0  0  0  0  0  0  0  0
  -10.4271  -29.3277    2.0290 F   0  0  0  0  0  0  0  0  0  0  0  0
 22 21  1  0  0  0
 20 21  1  0  0  0
 20 19  1  0  0  0
 18 19  2  0  0  0
 18 17  1  0  0  0
 19 15  1  0  0  0
 17 16  2  0  0  0
 15 14  2  0  0  0
 16 14  1  0  0  0
 14  6  1  0  0  0
  6  2  2  0  0  0
  6  5  1  0  0  0
  2  1  1  0  0  0
  5  4  2  0  0  0
 25 24  2  0  0  0
 38 37  1  0  0  0
  1 26  1  0  0  0
  1  3  2  0  0  0
 24 34  1  0  0  0
 24 26  1  0  0  0
  4  3  1  0  0  0
 33 34  2  0  0  0
 33 32  1  0  0  0
 34 28  1  0  0  0
 32 30  1  0  0  0
  3  7  1  0  0  0
 28 37  1  0  0  0
 28 29  2  0  0  0
 37 36  1  0  0  0
 37 39  1  0  0  0
 30 29  1  0  0  0
 30 31  2  0  0  0
  7 13  1  0  0  0
  7  8  1  0  0  0
 13 12  1  0  0  0
  8  9  1  0  0  0
 12 10  1  0  0  0
  9 10  1  0  0  0
 10 11  1  0  0  0
 32 35  1  0  0  0
 26 27  1  0  0  0
 21 23  1  0  0  0
M  END
> <minimizedAffinity>
-10.48073

$$$$
4QL1_35Q_A_401


 39 42  0  0  0  0  0  0  0  0999 V2000
  -11.9745  -25.6500    1.3609 C   0  0  0  0  0  0  0  0  0  0  0  0
  -12.3458  -25.9179    0.0406 C   0  0  0  0  0  0  0  0  0  0  0  0
  -12.9668  -25.3534    2.3213 C   0  0  0  0  0  0  0  0  0  0  0  0
  -14.3214  -25.3132    1.8956 C   0  0  0  0  0  0  0  0  0  0  0  0
  -14.6514  -25.5511    0.5624 C   0  0  0  0  0  0  0  0  0  0  0  0
  -13.6809  -25.8537   -0.3878 C   0  0  0  0  0  0  0  0  0  0  0  0
  -12.6909  -25.0476    3.6124 N   0  0  0  0  0  0  0  0  0  0  0  0
  -13.7530  -24.8443    4.5976 C   0  0  0  0  0  0  0  0  0  0  0  0
  -13.2153  -24.7287    5.9991 C   0  0  0  0  0  0  0  0  0  0  0  0
  -12.1240  -23.7784    6.1810 N   0  0  0  0  0  0  0  0  0  0  0  0
  -11.6610  -23.7670    7.5877 C   0  0  0  0  0  0  0  0  0  0  0  0
  -11.0024  -24.1551    5.3388 C   0  0  0  0  0  0  0  0  0  0  0  0
  -11.4681  -24.2661    3.8839 C   0  0  0  0  0  0  0  0  0  0  0  0
  -14.0005  -26.0612   -1.7553 C   0  0  0  0  0  0  0  0  0  0  0  0
  -12.9596  -25.9665   -2.7095 C   0  0  0  0  0  0  0  0  0  0  0  0
  -15.2962  -26.2855   -2.2030 C   0  0  0  0  0  0  0  0  0  0  0  0
  -15.5320  -26.4621   -3.5690 C   0  0  0  0  0  0  0  0  0  0  0  0
  -14.5037  -26.3910   -4.4892 C   0  0  0  0  0  0  0  0  0  0  0  0
  -13.2059  -26.1565   -4.0743 C   0  0  0  0  0  0  0  0  0  0  0  0
  -12.2024  -26.0580   -5.0269 C   0  0  0  0  0  0  0  0  0  0  0  0
  -12.0949  -27.3098   -5.7817 N   0  0  0  0  0  0  0  0  0  0  0  0
  -11.8619  -27.0496   -7.2161 C   0  0  0  0  0  0  0  0  0  0  0  0
  -11.3167  -27.8557   -5.4118 H   0  0  0  0  0  0  0  0  0  0  0  0
   -9.9133  -26.8396    1.2805 C   0  0  0  0  0  0  0  0  0  0  0  0
  -10.2962  -27.5988    0.3822 O   0  0  0  0  0  0  0  0  0  0  0  0
  -10.6624  -25.8196    1.7206 N   0  0  0  0  0  0  0  0  0  0  0  0
  -10.2526  -25.1631    2.3291 H   0  0  0  0  0  0  0  0  0  0  0  0
   -7.4245  -26.4384    1.5760 C   0  0  0  0  0  0  0  0  0  0  0  0
   -6.2851  -26.7690    2.3181 C   0  0  0  0  0  0  0  0  0  0  0  0
   -6.3224  -27.6988    3.3521 C   0  0  0  0  0  0  0  0  0  0  0  0
   -5.3130  -28.0050    3.9983 O   0  0  0  0  0  0  0  0  0  0  0  0
   -7.5488  -28.2975    3.6593 N   0  0  0  0  0  0  0  0  0  0  0  0
   -8.6451  -27.9636    2.9821 C   0  0  0  0  0  0  0  0  0  0  0  0
   -8.6636  -27.0362    1.9363 C   0  0  0  0  0  0  0  0  0  0  0  0
   -7.6013  -28.9677    4.3785 H   0  0  0  0  0  0  0  0  0  0  0  0
   -8.2348  -24.4909    0.6494 F   0  0  0  0  0  0  0  0  0  0  0  0
   -7.3109  -25.4869    0.5500 C   0  0  0  0  0  0  0  0  0  0  0  0
   -6.0607  -24.8545    0.6357 F   0  0  0  0  0  0  0  0  0  0  0  0
   -7.4696  -26.0354   -0.5570 F   0  0  0  0  0  0  0  0  0  0  0  0
 22 21  1  0  0  0
 20 21  1  0  0  0
 20 19  1  0  0  0
 18 19  2  0  0  0
 18 17  1  0  0  0
 19 15  1  0  0  0
 17 16  2  0  0  0
 15 14  2  0  0  0
 16 14  1  0  0  0
 14  6  1  0  0  0
  6  2  2  0  0  0
  6  5  1  0  0  0
  2  1  1  0  0  0
  5  4  2  0  0  0
 25 24  2  0  0  0
 38 37  1  0  0  0
  1 26  1  0  0  0
  1  3  2  0  0  0
 24 34  1  0  0  0
 24 26  1  0  0  0
  4  3  1  0  0  0
 33 34  2  0  0  0
 33 32  1  0  0  0
 34 28  1  0  0  0
 32 30  1  0  0  0
  3  7  1  0  0  0
 28 37  1  0  0  0
 28 29  2  0  0  0
 37 36  1  0  0  0
 37 39  1  0  0  0
 30 29  1  0  0  0
 30 31  2  0  0  0
  7 13  1  0  0  0
  7  8  1  0  0  0
 13 12  1  0  0  0
  8  9  1  0  0  0
 12 10  1  0  0  0
  9 10  1  0  0  0
 10 11  1  0  0  0
 32 35  1  0  0  0
 26 27  1  0  0  0
 21 23  1  0  0  0
M  END
> <minimizedAffinity>
-10.12618

$$$$
4QL1_35Q_A_401


 39 42  0  0  0  0  0  0  0  0999 V2000
  -11.8878  -26.6883    0.9537 C   0  0  0  0  0  0  0  0  0  0  0  0
  -12.1318  -27.0270   -0.3800 C   0  0  0  0  0  0  0  0  0  0  0  0
  -12.7283  -25.7590    1.6057 C   0  0  0  0  0  0  0  0  0  0  0  0
  -13.7890  -25.1770    0.8614 C   0  0  0  0  0  0  0  0  0  0  0  0
  -13.9808  -25.5124   -0.4778 C   0  0  0  0  0  0  0  0  0  0  0  0
  -13.1635  -26.4343   -1.1246 C   0  0  0  0  0  0  0  0  0  0  0  0
  -12.5412  -25.3492    2.8837 N   0  0  0  0  0  0  0  0  0  0  0  0
  -13.6660  -25.1346    3.7941 C   0  0  0  0  0  0  0  0  0  0  0  0
  -13.2148  -24.8925    5.2099 C   0  0  0  0  0  0  0  0  0  0  0  0
  -12.1839  -23.8748    5.3795 N   0  0  0  0  0  0  0  0  0  0  0  0
  -11.8023  -23.7403    6.8041 C   0  0  0  0  0  0  0  0  0  0  0  0
  -10.9993  -24.2490    4.6273 C   0  0  0  0  0  0  0  0  0  0  0  0
  -11.3760  -24.4864    3.1618 C   0  0  0  0  0  0  0  0  0  0  0  0
  -13.3257  -26.7559   -2.4977 C   0  0  0  0  0  0  0  0  0  0  0  0
  -14.5753  -26.4889   -3.1064 C   0  0  0  0  0  0  0  0  0  0  0  0
  -12.3386  -27.3805   -3.2495 C   0  0  0  0  0  0  0  0  0  0  0  0
  -12.5822  -27.6814   -4.5921 C   0  0  0  0  0  0  0  0  0  0  0  0
  -13.7982  -27.3941   -5.1820 C   0  0  0  0  0  0  0  0  0  0  0  0
  -14.8039  -26.7844   -4.4553 C   0  0  0  0  0  0  0  0  0  0  0  0
  -16.0239  -26.5402   -5.0686 C   0  0  0  0  0  0  0  0  0  0  0  0
  -15.8812  -26.6057   -6.5259 N   0  0  0  0  0  0  0  0  0  0  0  0
  -17.1845  -26.4338   -7.1978 C   0  0  0  0  0  0  0  0  0  0  0  0
  -15.2490  -25.8661   -6.8320 H   0  0  0  0  0  0  0  0  0  0  0  0
   -9.6087  -27.1521    1.4642 C   0  0  0  0  0  0  0  0  0  0  0  0
   -9.1849  -26.1928    0.8083 O   0  0  0  0  0  0  0  0  0  0  0  0
  -10.9183  -27.3751    1.6381 N   0  0  0  0  0  0  0  0  0  0  0  0
  -11.1968  -28.0623    2.2858 H   0  0  0  0  0  0  0  0  0  0  0  0
   -8.2654  -29.3052    1.4183 C   0  0  0  0  0  0  0  0  0  0  0  0
   -7.4152  -30.1475    2.1435 C   0  0  0  0  0  0  0  0  0  0  0  0
   -7.0537  -29.8757    3.4590 C   0  0  0  0  0  0  0  0  0  0  0  0
   -6.3158  -30.6275    4.1073 O   0  0  0  0  0  0  0  0  0  0  0  0
   -7.5484  -28.7099    4.0533 N   0  0  0  0  0  0  0  0  0  0  0  0
   -8.3296  -27.8845    3.3602 C   0  0  0  0  0  0  0  0  0  0  0  0
   -8.7221  -28.1091    2.0374 C   0  0  0  0  0  0  0  0  0  0  0  0
   -7.3181  -28.4993    4.9871 H   0  0  0  0  0  0  0  0  0  0  0  0
   -7.8930  -30.7289   -0.3542 F   0  0  0  0  0  0  0  0  0  0  0  0
   -8.5819  -29.6422    0.0927 C   0  0  0  0  0  0  0  0  0  0  0  0
   -9.9385  -29.9933    0.0112 F   0  0  0  0  0  0  0  0  0  0  0  0
   -8.3110  -28.6903   -0.6636 F   0  0  0  0  0  0  0  0  0  0  0  0
 22 21  1  0  0  0
 20 21  1  0  0  0
 20 19  1  0  0  0
 18 19  2  0  0  0
 18 17  1  0  0  0
 19 15  1  0  0  0
 17 16  2  0  0  0
 15 14  2  0  0  0
 16 14  1  0  0  0
 14  6  1  0  0  0
  6  2  2  0  0  0
  6  5  1  0  0  0
  2  1  1  0  0  0
  5  4  2  0  0  0
 25 24  2  0  0  0
 38 37  1  0  0  0
  1 26  1  0  0  0
  1  3  2  0  0  0
 24 34  1  0  0  0
 24 26  1  0  0  0
  4  3  1  0  0  0
 33 34  2  0  0  0
 33 32  1  0  0  0
 34 28  1  0  0  0
 32 30  1  0  0  0
  3  7  1  0  0  0
 28 37  1  0  0  0
 28 29  2  0  0  0
 37 36  1  0  0  0
 37 39  1  0  0  0
 30 29  1  0  0  0
 30 31  2  0  0  0
  7 13  1  0  0  0
  7  8  1  0  0  0
 13 12  1  0  0  0
  8  9  1  0  0  0
 12 10  1  0  0  0
  9 10  1  0  0  0
 10 11  1  0  0  0
 32 35  1  0  0  0
 26 27  1  0  0  0
 21 23  1  0  0  0
M  END
> <minimizedAffinity>
-9.80415

$$$$
4QL1_35Q_A_401


 39 42  0  0  0  0  0  0  0  0999 V2000
  -11.4277  -25.9379    0.7541 C   0  0  0  0  0  0  0  0  0  0  0  0
  -11.6704  -26.3062   -0.5719 C   0  0  0  0  0  0  0  0  0  0  0  0
  -12.5104  -25.6089    1.5994 C   0  0  0  0  0  0  0  0  0  0  0  0
  -13.8213  -25.6407    1.0532 C   0  0  0  0  0  0  0  0  0  0  0  0
  -14.0226  -25.9786   -0.2840 C   0  0  0  0  0  0  0  0  0  0  0  0
  -12.9624  -26.3137   -1.1206 C   0  0  0  0  0  0  0  0  0  0  0  0
  -12.3608  -25.2078    2.8852 N   0  0  0  0  0  0  0  0  0  0  0  0
  -13.5130  -24.9672    3.7538 C   0  0  0  0  0  0  0  0  0  0  0  0
  -13.1089  -24.7410    5.1864 C   0  0  0  0  0  0  0  0  0  0  0  0
  -12.0596  -23.7505    5.3983 N   0  0  0  0  0  0  0  0  0  0  0  0
  -11.7281  -23.6300    6.8366 C   0  0  0  0  0  0  0  0  0  0  0  0
  -10.8576  -24.1526    4.6892 C   0  0  0  0  0  0  0  0  0  0  0  0
  -11.1852  -24.3759    3.2098 C   0  0  0  0  0  0  0  0  0  0  0  0
  -13.1510  -26.6232   -2.4932 C   0  0  0  0  0  0  0  0  0  0  0  0
  -14.4395  -26.4435   -3.0506 C   0  0  0  0  0  0  0  0  0  0  0  0
  -12.1478  -27.1563   -3.2926 C   0  0  0  0  0  0  0  0  0  0  0  0
  -12.4180  -27.4520   -4.6313 C   0  0  0  0  0  0  0  0  0  0  0  0
  -13.6739  -27.2499   -5.1709 C   0  0  0  0  0  0  0  0  0  0  0  0
  -14.6954  -26.7326   -4.3961 C   0  0  0  0  0  0  0  0  0  0  0  0
  -15.9529  -26.5733   -4.9597 C   0  0  0  0  0  0  0  0  0  0  0  0
  -15.8534  -26.5439   -6.4218 N   0  0  0  0  0  0  0  0  0  0  0  0
  -17.1859  -26.4184   -7.0447 C   0  0  0  0  0  0  0  0  0  0  0  0
  -15.2795  -25.7480   -6.7003 H   0  0  0  0  0  0  0  0  0  0  0  0
   -9.3509  -27.0824    0.9712 C   0  0  0  0  0  0  0  0  0  0  0  0
   -9.6432  -27.9361    0.1252 O   0  0  0  0  0  0  0  0  0  0  0  0
  -10.1497  -26.0409    1.2400 N   0  0  0  0  0  0  0  0  0  0  0  0
   -9.8038  -25.3177    1.8116 H   0  0  0  0  0  0  0  0  0  0  0  0
   -6.9403  -26.4948    1.5064 C   0  0  0  0  0  0  0  0  0  0  0  0
   -5.8579  -26.7385    2.3592 C   0  0  0  0  0  0  0  0  0  0  0  0
   -5.9270  -27.6681    3.3918 C   0  0  0  0  0  0  0  0  0  0  0  0
   -4.9660  -27.8971    4.1363 O   0  0  0  0  0  0  0  0  0  0  0  0
   -7.1294  -28.3573    3.5818 N   0  0  0  0  0  0  0  0  0  0  0  0
   -8.1757  -28.1072    2.7977 C   0  0  0  0  0  0  0  0  0  0  0  0
   -8.1605  -27.1842    1.7479 C   0  0  0  0  0  0  0  0  0  0  0  0
   -7.2021  -29.0293    4.2975 H   0  0  0  0  0  0  0  0  0  0  0  0
   -5.5257  -25.0618    0.3870 F   0  0  0  0  0  0  0  0  0  0  0  0
   -6.7979  -25.5378    0.4891 C   0  0  0  0  0  0  0  0  0  0  0  0
   -7.0823  -26.1292   -0.7518 F   0  0  0  0  0  0  0  0  0  0  0  0
   -7.5443  -24.5661    0.7130 F   0  0  0  0  0  0  0  0  0  0  0  0
 22 21  1  0  0  0
 20 21  1  0  0  0
 20 19  1  0  0  0
 18 19  2  0  0  0
 18 17  1  0  0  0
 19 15  1  0  0  0
 17 16  2  0  0  0
 15 14  2  0  0  0
 16 14  1  0  0  0
 14  6  1  0  0  0
  6  2  2  0  0  0
  6  5  1  0  0  0
  2  1  1  0  0  0
  5  4  2  0  0  0
 25 24  2  0  0  0
 38 37  1  0  0  0
  1 26  1  0  0  0
  1  3  2  0  0  0
 24 34  1  0  0  0
 24 26  1  0  0  0
  4  3  1  0  0  0
 33 34  2  0  0  0
 33 32  1  0  0  0
 34 28  1  0  0  0
 32 30  1  0  0  0
  3  7  1  0  0  0
 28 37  1  0  0  0
 28 29  2  0  0  0
 37 36  1  0  0  0
 37 39  1  0  0  0
 30 29  1  0  0  0
 30 31  2  0  0  0
  7 13  1  0  0  0
  7  8  1  0  0  0
 13 12  1  0  0  0
  8  9  1  0  0  0
 12 10  1  0  0  0
  9 10  1  0  0  0
 10 11  1  0  0  0
 32 35  1  0  0  0
 26 27  1  0  0  0
 21 23  1  0  0  0
M  END
> <minimizedAffinity>
-9.68247

$$$$
4QL1_35Q_A_401


 39 42  0  0  0  0  0  0  0  0999 V2000
  -10.5482  -25.5309    1.3313 C   0  0  0  0  0  0  0  0  0  0  0  0
  -10.7952  -25.0254    2.6105 C   0  0  0  0  0  0  0  0  0  0  0  0
  -11.6311  -25.8903    0.4987 C   0  0  0  0  0  0  0  0  0  0  0  0
  -12.9479  -25.7459    1.0115 C   0  0  0  0  0  0  0  0  0  0  0  0
  -13.1551  -25.2714    2.3056 C   0  0  0  0  0  0  0  0  0  0  0  0
  -12.0943  -24.9058    3.1285 C   0  0  0  0  0  0  0  0  0  0  0  0
  -11.4793  -26.4203   -0.7392 N   0  0  0  0  0  0  0  0  0  0  0  0
  -12.2280  -25.9130   -1.8891 C   0  0  0  0  0  0  0  0  0  0  0  0
  -11.7450  -26.5016   -3.1879 C   0  0  0  0  0  0  0  0  0  0  0  0
  -11.6308  -27.9553   -3.2194 N   0  0  0  0  0  0  0  0  0  0  0  0
  -11.1255  -28.4182   -4.5322 C   0  0  0  0  0  0  0  0  0  0  0  0
  -10.6990  -28.3946   -2.1956 C   0  0  0  0  0  0  0  0  0  0  0  0
  -11.1425  -27.8547   -0.8326 C   0  0  0  0  0  0  0  0  0  0  0  0
  -12.2908  -24.4566    4.4608 C   0  0  0  0  0  0  0  0  0  0  0  0
  -13.5332  -23.8657    4.7932 C   0  0  0  0  0  0  0  0  0  0  0  0
  -11.2978  -24.5099    5.4306 C   0  0  0  0  0  0  0  0  0  0  0  0
  -11.5637  -24.0298    6.7157 C   0  0  0  0  0  0  0  0  0  0  0  0
  -12.7889  -23.4766    7.0352 C   0  0  0  0  0  0  0  0  0  0  0  0
  -13.7921  -23.3985    6.0871 C   0  0  0  0  0  0  0  0  0  0  0  0
  -14.9987  -22.8072    6.4314 C   0  0  0  0  0  0  0  0  0  0  0  0
  -15.3382  -21.7518    5.4726 N   0  0  0  0  0  0  0  0  0  0  0  0
  -14.3414  -20.6633    5.5021 C   0  0  0  0  0  0  0  0  0  0  0  0
  -15.3671  -22.1512    4.5345 H   0  0  0  0  0  0  0  0  0  0  0  0
   -8.4096  -26.5475    1.0807 C   0  0  0  0  0  0  0  0  0  0  0  0
   -8.7789  -27.6260    1.5608 O   0  0  0  0  0  0  0  0  0  0  0  0
   -9.2588  -25.5340    0.8649 N   0  0  0  0  0  0  0  0  0  0  0  0
   -8.9432  -24.7573    0.3488 H   0  0  0  0  0  0  0  0  0  0  0  0
   -5.9872  -26.1248    1.7098 C   0  0  0  0  0  0  0  0  0  0  0  0
   -4.7006  -25.8633    1.2255 C   0  0  0  0  0  0  0  0  0  0  0  0
   -4.4388  -25.7200   -0.1332 C   0  0  0  0  0  0  0  0  0  0  0  0
   -3.3054  -25.4722   -0.5623 O   0  0  0  0  0  0  0  0  0  0  0  0
   -5.5023  -25.8644   -1.0304 N   0  0  0  0  0  0  0  0  0  0  0  0
   -6.7232  -26.1478   -0.5817 C   0  0  0  0  0  0  0  0  0  0  0  0
   -7.0404  -26.3029    0.7709 C   0  0  0  0  0  0  0  0  0  0  0  0
   -5.3475  -25.7562   -1.9966 H   0  0  0  0  0  0  0  0  0  0  0  0
   -6.4165  -27.5487    3.4694 F   0  0  0  0  0  0  0  0  0  0  0  0
   -6.1738  -26.2619    3.0945 C   0  0  0  0  0  0  0  0  0  0  0  0
   -4.9981  -25.8872    3.7636 F   0  0  0  0  0  0  0  0  0  0  0  0
   -7.1461  -25.5754    3.4618 F   0  0  0  0  0  0  0  0  0  0  0  0
 22 21  1  0  0  0
 20 21  1  0  0  0
 20 19  1  0  0  0
 18 19  2  0  0  0
 18 17  1  0  0  0
 19 15  1  0  0  0
 17 16  2  0  0  0
 15 14  2  0  0  0
 16 14  1  0  0  0
 14  6  1  0  0  0
  6  2  2  0  0  0
  6  5  1  0  0  0
  2  1  1  0  0  0
  5  4  2  0  0  0
 25 24  2  0  0  0
 38 37  1  0  0  0
  1 26  1  0  0  0
  1  3  2  0  0  0
 24 34  1  0  0  0
 24 26  1  0  0  0
  4  3  1  0  0  0
 33 34  2  0  0  0
 33 32  1  0  0  0
 34 28  1  0  0  0
 32 30  1  0  0  0
  3  7  1  0  0  0
 28 37  1  0  0  0
 28 29  2  0  0  0
 37 36  1  0  0  0
 37 39  1  0  0  0
 30 29  1  0  0  0
 30 31  2  0  0  0
  7 13  1  0  0  0
  7  8  1  0  0  0
 13 12  1  0  0  0
  8  9  1  0  0  0
 12 10  1  0  0  0
  9 10  1  0  0  0
 10 11  1  0  0  0
 32 35  1  0  0  0
 26 27  1  0  0  0
 21 23  1  0  0  0
M  END
> <minimizedAffinity>
-9.60306

$$$$
4QL1_35Q_A_401


 39 42  0  0  0  0  0  0  0  0999 V2000
  -10.1404  -25.6553    1.7298 C   0  0  0  0  0  0  0  0  0  0  0  0
  -10.8594  -25.0718    2.7764 C   0  0  0  0  0  0  0  0  0  0  0  0
   -8.8423  -26.1590    1.9669 C   0  0  0  0  0  0  0  0  0  0  0  0
   -8.3002  -26.0276    3.2733 C   0  0  0  0  0  0  0  0  0  0  0  0
   -9.0329  -25.4079    4.2842 C   0  0  0  0  0  0  0  0  0  0  0  0
  -10.3161  -24.9180    4.0614 C   0  0  0  0  0  0  0  0  0  0  0  0
   -8.0644  -26.7068    1.0018 N   0  0  0  0  0  0  0  0  0  0  0  0
   -7.5135  -28.0557    1.1328 C   0  0  0  0  0  0  0  0  0  0  0  0
   -6.8664  -28.5328   -0.1401 C   0  0  0  0  0  0  0  0  0  0  0  0
   -5.9059  -27.6158   -0.7431 N   0  0  0  0  0  0  0  0  0  0  0  0
   -5.3542  -28.1769   -1.9977 C   0  0  0  0  0  0  0  0  0  0  0  0
   -6.5621  -26.3594   -1.0597 C   0  0  0  0  0  0  0  0  0  0  0  0
   -7.2244  -25.7947    0.2006 C   0  0  0  0  0  0  0  0  0  0  0  0
  -11.0573  -24.2520    5.0726 C   0  0  0  0  0  0  0  0  0  0  0  0
  -12.3703  -24.7023    5.3488 C   0  0  0  0  0  0  0  0  0  0  0  0
  -10.5775  -23.1400    5.7530 C   0  0  0  0  0  0  0  0  0  0  0  0
  -11.3763  -22.5284    6.7228 C   0  0  0  0  0  0  0  0  0  0  0  0
  -12.6480  -22.9918    7.0007 C   0  0  0  0  0  0  0  0  0  0  0  0
  -13.1570  -24.0888    6.3306 C   0  0  0  0  0  0  0  0  0  0  0  0
  -14.4495  -24.5077    6.6100 C   0  0  0  0  0  0  0  0  0  0  0  0
  -14.8641  -24.0271    7.9313 N   0  0  0  0  0  0  0  0  0  0  0  0
  -16.2492  -23.5171    7.9030 C   0  0  0  0  0  0  0  0  0  0  0  0
  -14.8063  -24.7965    8.5984 H   0  0  0  0  0  0  0  0  0  0  0  0
  -11.1204  -24.8404   -0.2815 C   0  0  0  0  0  0  0  0  0  0  0  0
  -10.7411  -23.6791   -0.0884 O   0  0  0  0  0  0  0  0  0  0  0  0
  -10.7718  -25.8493    0.5283 N   0  0  0  0  0  0  0  0  0  0  0  0
  -10.9781  -26.7703    0.2483 H   0  0  0  0  0  0  0  0  0  0  0  0
  -13.3307  -25.6404   -1.2391 C   0  0  0  0  0  0  0  0  0  0  0  0
  -14.0379  -25.9391   -2.4092 C   0  0  0  0  0  0  0  0  0  0  0  0
  -13.4563  -25.8380   -3.6688 C   0  0  0  0  0  0  0  0  0  0  0  0
  -14.0743  -26.1177   -4.7032 O   0  0  0  0  0  0  0  0  0  0  0  0
  -12.1290  -25.4039   -3.7515 N   0  0  0  0  0  0  0  0  0  0  0  0
  -11.4591  -25.0839   -2.6465 C   0  0  0  0  0  0  0  0  0  0  0  0
  -11.9952  -25.1663   -1.3582 C   0  0  0  0  0  0  0  0  0  0  0  0
  -11.6891  -25.3347   -4.6295 H   0  0  0  0  0  0  0  0  0  0  0  0
  -13.8262  -24.6637    0.7877 F   0  0  0  0  0  0  0  0  0  0  0  0
  -13.9859  -25.7609   -0.0034 C   0  0  0  0  0  0  0  0  0  0  0  0
  -15.3685  -25.8765   -0.2170 F   0  0  0  0  0  0  0  0  0  0  0  0
  -13.5374  -26.7410    0.6210 F   0  0  0  0  0  0  0  0  0  0  0  0
 22 21  1  0  0  0
 20 21  1  0  0  0
 20 19  1  0  0  0
 18 19  2  0  0  0
 18 17  1  0  0  0
 19 15  1  0  0  0
 17 16  2  0  0  0
 15 14  2  0  0  0
 16 14  1  0  0  0
 14  6  1  0  0  0
  6  2  2  0  0  0
  6  5  1  0  0  0
  2  1  1  0  0  0
  5  4  2  0  0  0
 25 24  2  0  0  0
 38 37  1  0  0  0
  1 26  1  0  0  0
  1  3  2  0  0  0
 24 34  1  0  0  0
 24 26  1  0  0  0
  4  3  1  0  0  0
 33 34  2  0  0  0
 33 32  1  0  0  0
 34 28  1  0  0  0
 32 30  1  0  0  0
  3  7  1  0  0  0
 28 37  1  0  0  0
 28 29  2  0  0  0
 37 36  1  0  0  0
 37 39  1  0  0  0
 30 29  1  0  0  0
 30 31  2  0  0  0
  7 13  1  0  0  0
  7  8  1  0  0  0
 13 12  1  0  0  0
  8  9  1  0  0  0
 12 10  1  0  0  0
  9 10  1  0  0  0
 10 11  1  0  0  0
 32 35  1  0  0  0
 26 27  1  0  0  0
 21 23  1  0  0  0
M  END
> <minimizedAffinity>
-9.58672

$$$$
4QL1_35Q_A_401


 39 42  0  0  0  0  0  0  0  0999 V2000
  -10.6168  -26.1787    1.8394 C   0  0  0  0  0  0  0  0  0  0  0  0
  -11.2696  -25.4960    2.8693 C   0  0  0  0  0  0  0  0  0  0  0  0
   -9.2794  -26.5981    2.0144 C   0  0  0  0  0  0  0  0  0  0  0  0
   -8.6323  -26.2822    3.2388 C   0  0  0  0  0  0  0  0  0  0  0  0
   -9.3036  -25.5688    4.2303 C   0  0  0  0  0  0  0  0  0  0  0  0
  -10.6242  -25.1607    4.0698 C   0  0  0  0  0  0  0  0  0  0  0  0
   -8.5627  -27.2327    1.0552 N   0  0  0  0  0  0  0  0  0  0  0  0
   -8.0755  -28.5999    1.2385 C   0  0  0  0  0  0  0  0  0  0  0  0
   -7.4961  -29.1727   -0.0276 C   0  0  0  0  0  0  0  0  0  0  0  0
   -6.5120  -28.3375   -0.7067 N   0  0  0  0  0  0  0  0  0  0  0  0
   -6.0314  -28.9883   -1.9472 C   0  0  0  0  0  0  0  0  0  0  0  0
   -7.1151  -27.0665   -1.0672 C   0  0  0  0  0  0  0  0  0  0  0  0
   -7.7057  -26.4062    0.1823 C   0  0  0  0  0  0  0  0  0  0  0  0
  -11.3063  -24.4017    5.0568 C   0  0  0  0  0  0  0  0  0  0  0  0
  -12.6145  -24.7986    5.4231 C   0  0  0  0  0  0  0  0  0  0  0  0
  -10.7747  -23.2522    5.6273 C   0  0  0  0  0  0  0  0  0  0  0  0
  -11.5171  -22.5492    6.5798 C   0  0  0  0  0  0  0  0  0  0  0  0
  -12.7843  -22.9600    6.9470 C   0  0  0  0  0  0  0  0  0  0  0  0
  -13.3444  -24.0930    6.3868 C   0  0  0  0  0  0  0  0  0  0  0  0
  -14.6314  -24.4588    6.7529 C   0  0  0  0  0  0  0  0  0  0  0  0
  -14.9616  -23.9036    8.0686 N   0  0  0  0  0  0  0  0  0  0  0  0
  -16.3606  -23.4344    8.1138 C   0  0  0  0  0  0  0  0  0  0  0  0
  -14.8297  -24.6255    8.7771 H   0  0  0  0  0  0  0  0  0  0  0  0
  -11.4915  -25.7523   -0.3338 C   0  0  0  0  0  0  0  0  0  0  0  0
  -10.8455  -24.7069   -0.4744 O   0  0  0  0  0  0  0  0  0  0  0  0
  -11.3405  -26.5466    0.7345 N   0  0  0  0  0  0  0  0  0  0  0  0
  -11.7679  -27.4335    0.7258 H   0  0  0  0  0  0  0  0  0  0  0  0
  -12.2472  -26.9369   -2.4477 C   0  0  0  0  0  0  0  0  0  0  0  0
  -13.3310  -27.2098   -3.2898 C   0  0  0  0  0  0  0  0  0  0  0  0
  -14.5998  -26.6919   -3.0507 C   0  0  0  0  0  0  0  0  0  0  0  0
  -15.5553  -26.9182   -3.8029 O   0  0  0  0  0  0  0  0  0  0  0  0
  -14.7848  -25.8917   -1.9182 N   0  0  0  0  0  0  0  0  0  0  0  0
  -13.7681  -25.6550   -1.0922 C   0  0  0  0  0  0  0  0  0  0  0  0
  -12.4753  -26.1507   -1.2847 C   0  0  0  0  0  0  0  0  0  0  0  0
  -15.6696  -25.5025   -1.7316 H   0  0  0  0  0  0  0  0  0  0  0  0
  -10.5108  -28.2772   -1.7435 F   0  0  0  0  0  0  0  0  0  0  0  0
  -10.9971  -27.4993   -2.7504 C   0  0  0  0  0  0  0  0  0  0  0  0
  -11.1237  -28.3500   -3.8597 F   0  0  0  0  0  0  0  0  0  0  0  0
  -10.1652  -26.5964   -2.9608 F   0  0  0  0  0  0  0  0  0  0  0  0
 22 21  1  0  0  0
 20 21  1  0  0  0
 20 19  1  0  0  0
 18 19  2  0  0  0
 18 17  1  0  0  0
 19 15  1  0  0  0
 17 16  2  0  0  0
 15 14  2  0  0  0
 16 14  1  0  0  0
 14  6  1  0  0  0
  6  2  2  0  0  0
  6  5  1  0  0  0
  2  1  1  0  0  0
  5  4  2  0  0  0
 25 24  2  0  0  0
 38 37  1  0  0  0
  1 26  1  0  0  0
  1  3  2  0  0  0
 24 34  1  0  0  0
 24 26  1  0  0  0
  4  3  1  0  0  0
 33 34  2  0  0  0
 33 32  1  0  0  0
 34 28  1  0  0  0
 32 30  1  0  0  0
  3  7  1  0  0  0
 28 37  1  0  0  0
 28 29  2  0  0  0
 37 36  1  0  0  0
 37 39  1  0  0  0
 30 29  1  0  0  0
 30 31  2  0  0  0
  7 13  1  0  0  0
  7  8  1  0  0  0
 13 12  1  0  0  0
  8  9  1  0  0  0
 12 10  1  0  0  0
  9 10  1  0  0  0
 10 11  1  0  0  0
 32 35  1  0  0  0
 26 27  1  0  0  0
 21 23  1  0  0  0
M  END
> <minimizedAffinity>
-9.33668

$$$$
4QL1_35Q_A_401


 39 42  0  0  0  0  0  0  0  0999 V2000
  -11.5393  -26.7820    0.6601 C   0  0  0  0  0  0  0  0  0  0  0  0
  -12.4724  -26.5805   -0.3606 C   0  0  0  0  0  0  0  0  0  0  0  0
  -10.2839  -27.3547    0.3587 C   0  0  0  0  0  0  0  0  0  0  0  0
  -10.0247  -27.7328   -0.9858 C   0  0  0  0  0  0  0  0  0  0  0  0
  -10.9928  -27.5491   -1.9716 C   0  0  0  0  0  0  0  0  0  0  0  0
  -12.2282  -26.9766   -1.6848 C   0  0  0  0  0  0  0  0  0  0  0  0
   -9.3374  -27.6168    1.2925 N   0  0  0  0  0  0  0  0  0  0  0  0
   -8.1698  -26.7527    1.4664 C   0  0  0  0  0  0  0  0  0  0  0  0
   -7.3727  -27.1122    2.6920 C   0  0  0  0  0  0  0  0  0  0  0  0
   -7.0236  -28.5217    2.8280 N   0  0  0  0  0  0  0  0  0  0  0  0
   -6.2648  -28.7610    4.0770 C   0  0  0  0  0  0  0  0  0  0  0  0
   -8.2342  -29.3228    2.8737 C   0  0  0  0  0  0  0  0  0  0  0  0
   -9.0896  -29.0307    1.6372 C   0  0  0  0  0  0  0  0  0  0  0  0
  -13.2358  -26.8185   -2.6724 C   0  0  0  0  0  0  0  0  0  0  0  0
  -12.8546  -26.8715   -4.0344 C   0  0  0  0  0  0  0  0  0  0  0  0
  -14.5625  -26.5481   -2.3620 C   0  0  0  0  0  0  0  0  0  0  0  0
  -15.4920  -26.3871   -3.3929 C   0  0  0  0  0  0  0  0  0  0  0  0
  -15.1122  -26.4646   -4.7193 C   0  0  0  0  0  0  0  0  0  0  0  0
  -13.7966  -26.7200   -5.0586 C   0  0  0  0  0  0  0  0  0  0  0  0
  -13.4428  -26.7584   -6.3993 C   0  0  0  0  0  0  0  0  0  0  0  0
  -14.0900  -27.8941   -7.0624 N   0  0  0  0  0  0  0  0  0  0  0  0
  -13.1699  -29.0434   -7.1713 C   0  0  0  0  0  0  0  0  0  0  0  0
  -14.9084  -28.1731   -6.5213 H   0  0  0  0  0  0  0  0  0  0  0  0
  -11.4333  -25.0685    2.3102 C   0  0  0  0  0  0  0  0  0  0  0  0
  -10.9598  -24.2357    1.5277 O   0  0  0  0  0  0  0  0  0  0  0  0
  -11.8162  -26.2881    1.9088 N   0  0  0  0  0  0  0  0  0  0  0  0
  -12.3185  -26.8545    2.5382 H   0  0  0  0  0  0  0  0  0  0  0  0
  -12.7581  -24.4730    4.3917 C   0  0  0  0  0  0  0  0  0  0  0  0
  -12.6880  -24.2022    5.7628 C   0  0  0  0  0  0  0  0  0  0  0  0
  -11.4788  -24.1840    6.4503 C   0  0  0  0  0  0  0  0  0  0  0  0
  -11.4128  -23.9283    7.6588 O   0  0  0  0  0  0  0  0  0  0  0  0
  -10.3087  -24.4669    5.7378 N   0  0  0  0  0  0  0  0  0  0  0  0
  -10.3689  -24.7600    4.4407 C   0  0  0  0  0  0  0  0  0  0  0  0
  -11.5558  -24.7930    3.7029 C   0  0  0  0  0  0  0  0  0  0  0  0
   -9.4380  -24.4491    6.1970 H   0  0  0  0  0  0  0  0  0  0  0  0
  -13.9298  -24.5711    2.4105 F   0  0  0  0  0  0  0  0  0  0  0  0
  -14.0152  -24.4788    3.7668 C   0  0  0  0  0  0  0  0  0  0  0  0
  -14.7368  -25.6100    4.1792 F   0  0  0  0  0  0  0  0  0  0  0  0
  -14.6262  -23.4263    4.0325 F   0  0  0  0  0  0  0  0  0  0  0  0
 22 21  1  0  0  0
 20 21  1  0  0  0
 20 19  1  0  0  0
 18 19  2  0  0  0
 18 17  1  0  0  0
 19 15  1  0  0  0
 17 16  2  0  0  0
 15 14  2  0  0  0
 16 14  1  0  0  0
 14  6  1  0  0  0
  6  2  2  0  0  0
  6  5  1  0  0  0
  2  1  1  0  0  0
  5  4  2  0  0  0
 25 24  2  0  0  0
 38 37  1  0  0  0
  1 26  1  0  0  0
  1  3  2  0  0  0
 24 34  1  0  0  0
 24 26  1  0  0  0
  4  3  1  0  0  0
 33 34  2  0  0  0
 33 32  1  0  0  0
 34 28  1  0  0  0
 32 30  1  0  0  0
  3  7  1  0  0  0
 28 37  1  0  0  0
 28 29  2  0  0  0
 37 36  1  0  0  0
 37 39  1  0  0  0
 30 29  1  0  0  0
 30 31  2  0  0  0
  7 13  1  0  0  0
  7  8  1  0  0  0
 13 12  1  0  0  0
  8  9  1  0  0  0
 12 10  1  0  0  0
  9 10  1  0  0  0
 10 11  1  0  0  0
 32 35  1  0  0  0
 26 27  1  0  0  0
 21 23  1  0  0  0
M  END
> <minimizedAffinity>
-9.29472

$$$$
4QL1_35Q_A_401


 39 42  0  0  0  0  0  0  0  0999 V2000
  -10.2866  -26.7105    0.1717 C   0  0  0  0  0  0  0  0  0  0  0  0
  -10.7691  -26.1468    1.3559 C   0  0  0  0  0  0  0  0  0  0  0  0
  -11.1497  -26.8577   -0.9367 C   0  0  0  0  0  0  0  0  0  0  0  0
  -12.5012  -26.4446   -0.7938 C   0  0  0  0  0  0  0  0  0  0  0  0
  -12.9563  -25.9189    0.4142 C   0  0  0  0  0  0  0  0  0  0  0  0
  -12.1102  -25.7614    1.5076 C   0  0  0  0  0  0  0  0  0  0  0  0
  -10.7730  -27.4257   -2.1080 N   0  0  0  0  0  0  0  0  0  0  0  0
  -10.7887  -26.6772   -3.3648 C   0  0  0  0  0  0  0  0  0  0  0  0
  -10.1322  -27.4355   -4.4877 C   0  0  0  0  0  0  0  0  0  0  0  0
  -10.5870  -28.8087   -4.6738 N   0  0  0  0  0  0  0  0  0  0  0  0
   -9.8578  -29.4617   -5.7851 C   0  0  0  0  0  0  0  0  0  0  0  0
  -10.3438  -29.5725   -3.4627 C   0  0  0  0  0  0  0  0  0  0  0  0
  -11.0092  -28.8736   -2.2732 C   0  0  0  0  0  0  0  0  0  0  0  0
  -12.5707  -25.2621    2.7542 C   0  0  0  0  0  0  0  0  0  0  0  0
  -11.6216  -24.7130    3.6491 C   0  0  0  0  0  0  0  0  0  0  0  0
  -13.8962  -25.3499    3.1605 C   0  0  0  0  0  0  0  0  0  0  0  0
  -14.2675  -24.8513    4.4119 C   0  0  0  0  0  0  0  0  0  0  0  0
  -13.3356  -24.2956    5.2676 C   0  0  0  0  0  0  0  0  0  0  0  0
  -12.0071  -24.2063    4.8957 C   0  0  0  0  0  0  0  0  0  0  0  0
  -11.0919  -23.6732    5.7915 C   0  0  0  0  0  0  0  0  0  0  0  0
  -11.3950  -24.1220    7.1536 N   0  0  0  0  0  0  0  0  0  0  0  0
  -11.5136  -22.9775    8.0784 C   0  0  0  0  0  0  0  0  0  0  0  0
  -12.2757  -24.6366    7.1462 H   0  0  0  0  0  0  0  0  0  0  0  0
   -8.3788  -28.0648    0.6145 C   0  0  0  0  0  0  0  0  0  0  0  0
   -9.0483  -28.9898    1.0902 O   0  0  0  0  0  0  0  0  0  0  0  0
   -8.9458  -26.9790    0.0717 N   0  0  0  0  0  0  0  0  0  0  0  0
   -8.3745  -26.3461   -0.4206 H   0  0  0  0  0  0  0  0  0  0  0  0
   -6.1398  -27.4405    1.6341 C   0  0  0  0  0  0  0  0  0  0  0  0
   -4.7496  -27.5365    1.5063 C   0  0  0  0  0  0  0  0  0  0  0  0
   -4.1507  -28.1870    0.4323 C   0  0  0  0  0  0  0  0  0  0  0  0
   -2.9220  -28.2585    0.3086 O   0  0  0  0  0  0  0  0  0  0  0  0
   -4.9786  -28.7747   -0.5300 N   0  0  0  0  0  0  0  0  0  0  0  0
   -6.3021  -28.7188   -0.3988 C   0  0  0  0  0  0  0  0  0  0  0  0
   -6.9546  -28.0797    0.6595 C   0  0  0  0  0  0  0  0  0  0  0  0
   -4.5812  -29.2310   -1.3066 H   0  0  0  0  0  0  0  0  0  0  0  0
   -5.7140  -26.3660    3.6270 F   0  0  0  0  0  0  0  0  0  0  0  0
   -6.6721  -26.7726    2.7484 C   0  0  0  0  0  0  0  0  0  0  0  0
   -7.3204  -25.6017    2.3254 F   0  0  0  0  0  0  0  0  0  0  0  0
   -7.4488  -27.5269    3.3642 F   0  0  0  0  0  0  0  0  0  0  0  0
 22 21  1  0  0  0
 20 21  1  0  0  0
 20 19  1  0  0  0
 18 19  2  0  0  0
 18 17  1  0  0  0
 19 15  1  0  0  0
 17 16  2  0  0  0
 15 14  2  0  0  0
 16 14  1  0  0  0
 14  6  1  0  0  0
  6  2  2  0  0  0
  6  5  1  0  0  0
  2  1  1  0  0  0
  5  4  2  0  0  0
 25 24  2  0  0  0
 38 37  1  0  0  0
  1 26  1  0  0  0
  1  3  2  0  0  0
 24 34  1  0  0  0
 24 26  1  0  0  0
  4  3  1  0  0  0
 33 34  2  0  0  0
 33 32  1  0  0  0
 34 28  1  0  0  0
 32 30  1  0  0  0
  3  7  1  0  0  0
 28 37  1  0  0  0
 28 29  2  0  0  0
 37 36  1  0  0  0
 37 39  1  0  0  0
 30 29  1  0  0  0
 30 31  2  0  0  0
  7 13  1  0  0  0
  7  8  1  0  0  0
 13 12  1  0  0  0
  8  9  1  0  0  0
 12 10  1  0  0  0
  9 10  1  0  0  0
 10 11  1  0  0  0
 32 35  1  0  0  0
 26 27  1  0  0  0
 21 23  1  0  0  0
M  END
> <minimizedAffinity>
-9.13857

$$$$
