4ZW7_4SZ_A_1102


 31 32  0  0  0  0  0  0  0  0999 V2000
   88.9629  119.9270  130.8018 C   0  0  0  0  0  0  0  0  0  0  0  0
   88.0258  120.7929  129.9607 C   0  0  0  0  0  0  0  0  0  0  0  0
   88.4385  121.3631  128.9572 O   0  0  0  0  0  0  0  0  0  0  0  0
   86.7852  120.8879  130.4584 N   0  0  0  0  0  0  0  0  0  0  0  0
   85.7898  121.6584  129.7503 O   0  0  0  0  0  0  0  0  0  0  0  0
   86.5537  120.4352  131.3015 H   0  0  0  0  0  0  0  0  0  0  0  0
   86.1827  122.0334  128.9466 H   0  0  0  0  0  0  0  0  0  0  0  0
   88.7903  120.1099  132.1738 C   0  0  0  0  0  0  0  0  0  0  0  0
   88.6042  121.4132  132.6127 C   0  0  0  0  0  0  0  0  0  0  0  0
   88.3922  121.6860  133.9552 C   0  0  0  0  0  0  0  0  0  0  0  0
   88.7379  119.0441  133.0831 C   0  0  0  0  0  0  0  0  0  0  0  0
   88.5165  119.3155  134.4425 C   0  0  0  0  0  0  0  0  0  0  0  0
   88.3713  120.6422  134.8716 C   0  0  0  0  0  0  0  0  0  0  0  0
   88.0837  120.9761  136.1933 C   0  0  0  0  0  0  0  0  0  0  0  0
   86.9342  120.3867  136.7450 C   0  0  0  0  0  0  0  0  0  0  0  0
   86.5418  120.6973  138.0431 C   0  0  0  0  0  0  0  0  0  0  0  0
   85.4070  120.1280  138.6145 F   0  0  0  0  0  0  0  0  0  0  0  0
   87.2914  121.5933  138.7854 C   0  0  0  0  0  0  0  0  0  0  0  0
   86.9336  121.8890  140.0571 F   0  0  0  0  0  0  0  0  0  0  0  0
   88.4197  122.1875  138.2402 C   0  0  0  0  0  0  0  0  0  0  0  0
   89.0843  123.0235  138.9787 F   0  0  0  0  0  0  0  0  0  0  0  0
   88.8221  121.8942  136.9349 C   0  0  0  0  0  0  0  0  0  0  0  0
   91.2151  119.4081  129.9250 C   0  0  0  0  0  0  0  0  0  0  0  0
   92.3532  119.7846  129.6602 O   0  0  0  0  0  0  0  0  0  0  0  0
   90.3516  120.2799  130.4767 N   0  0  0  0  0  0  0  0  0  0  0  0
   90.6636  121.1932  130.6709 H   0  0  0  0  0  0  0  0  0  0  0  0
   90.7956  118.1198  129.6924 O   0  0  0  0  0  0  0  0  0  0  0  0
   90.2266  116.3516  131.2903 C   0  0  0  0  0  0  0  0  0  0  0  0
   91.3304  116.9894  130.4190 C   0  0  0  0  0  0  0  0  0  0  0  0
   91.7869  115.9924  129.3464 C   0  0  0  0  0  0  0  0  0  0  0  0
   92.5458  117.3690  131.2876 C   0  0  0  0  0  0  0  0  0  0  0  0
 31 29  1  0  0  0
 30 29  1  0  0  0
 29 28  1  0  0  0
 29 27  1  0  0  0
  5  4  1  0  0  0
 27 23  1  0  0  0
  4  2  1  0  0  0
  3  2  2  0  0  0
 24 23  2  0  0  0
 23 25  1  0  0  0
  2  1  1  0  0  0
 25  1  1  0  0  0
  1  8  1  0  0  0
  8 11  2  0  0  0
  8  9  1  0  0  0
 11 12  1  0  0  0
  9 10  2  0  0  0
 12 13  2  0  0  0
 10 13  1  0  0  0
 13 14  1  0  0  0
 14 22  2  0  0  0
 14 15  1  0  0  0
 22 20  1  0  0  0
 15 16  2  0  0  0
 20 21  1  0  0  0
 20 18  2  0  0  0
 16 18  1  0  0  0
 16 17  1  0  0  0
 18 19  1  0  0  0
 25 26  1  0  0  0
  4  6  1  0  0  0
  5  7  1  0  0  0
M  END
> <minimizedAffinity>
-11.84261

$$$$
4ZW7_4SZ_A_1102


 31 32  0  0  0  0  0  0  0  0999 V2000
   89.0004  119.9040  130.8080 C   0  0  0  0  0  0  0  0  0  0  0  0
   88.0836  120.7576  129.9329 C   0  0  0  0  0  0  0  0  0  0  0  0
   88.5119  121.2873  128.9140 O   0  0  0  0  0  0  0  0  0  0  0  0
   86.8419  120.8903  130.4193 N   0  0  0  0  0  0  0  0  0  0  0  0
   85.8642  121.6541  129.6799 O   0  0  0  0  0  0  0  0  0  0  0  0
   86.5976  120.4697  131.2753 H   0  0  0  0  0  0  0  0  0  0  0  0
   86.2683  121.9956  128.8669 H   0  0  0  0  0  0  0  0  0  0  0  0
   88.7784  120.0875  132.1727 C   0  0  0  0  0  0  0  0  0  0  0  0
   88.5683  121.3902  132.6027 C   0  0  0  0  0  0  0  0  0  0  0  0
   88.3073  121.6633  133.9365 C   0  0  0  0  0  0  0  0  0  0  0  0
   88.7010  119.0227  133.0814 C   0  0  0  0  0  0  0  0  0  0  0  0
   88.4301  119.2944  134.4317 C   0  0  0  0  0  0  0  0  0  0  0  0
   88.2610  120.6207  134.8533 C   0  0  0  0  0  0  0  0  0  0  0  0
   87.9247  120.9544  136.1635 C   0  0  0  0  0  0  0  0  0  0  0  0
   88.8099  121.8183  136.8292 C   0  0  0  0  0  0  0  0  0  0  0  0
   88.5809  122.1700  138.1557 C   0  0  0  0  0  0  0  0  0  0  0  0
   89.4420  123.0240  138.8394 F   0  0  0  0  0  0  0  0  0  0  0  0
   87.4757  121.6600  138.8146 C   0  0  0  0  0  0  0  0  0  0  0  0
   87.2285  122.0101  140.0987 F   0  0  0  0  0  0  0  0  0  0  0  0
   86.6062  120.7965  138.1652 C   0  0  0  0  0  0  0  0  0  0  0  0
   85.5872  120.3445  138.8309 F   0  0  0  0  0  0  0  0  0  0  0  0
   86.8268  120.4254  136.8365 C   0  0  0  0  0  0  0  0  0  0  0  0
   91.2761  119.4216  129.9718 C   0  0  0  0  0  0  0  0  0  0  0  0
   92.4191  119.8102  129.7488 O   0  0  0  0  0  0  0  0  0  0  0  0
   90.3956  120.2717  130.5304 N   0  0  0  0  0  0  0  0  0  0  0  0
   90.6991  121.1788  130.7631 H   0  0  0  0  0  0  0  0  0  0  0  0
   90.8675  118.1406  129.6853 O   0  0  0  0  0  0  0  0  0  0  0  0
   90.2585  116.3906  131.2886 C   0  0  0  0  0  0  0  0  0  0  0  0
   91.3716  116.9899  130.4019 C   0  0  0  0  0  0  0  0  0  0  0  0
   91.7754  115.9793  129.3207 C   0  0  0  0  0  0  0  0  0  0  0  0
   92.6129  117.3230  131.2528 C   0  0  0  0  0  0  0  0  0  0  0  0
 31 29  1  0  0  0
 30 29  1  0  0  0
 29 28  1  0  0  0
 29 27  1  0  0  0
  5  4  1  0  0  0
 27 23  1  0  0  0
  4  2  1  0  0  0
  3  2  2  0  0  0
 24 23  2  0  0  0
 23 25  1  0  0  0
  2  1  1  0  0  0
 25  1  1  0  0  0
  1  8  1  0  0  0
  8 11  2  0  0  0
  8  9  1  0  0  0
 11 12  1  0  0  0
  9 10  2  0  0  0
 12 13  2  0  0  0
 10 13  1  0  0  0
 13 14  1  0  0  0
 14 22  2  0  0  0
 14 15  1  0  0  0
 22 20  1  0  0  0
 15 16  2  0  0  0
 20 21  1  0  0  0
 20 18  2  0  0  0
 16 18  1  0  0  0
 16 17  1  0  0  0
 18 19  1  0  0  0
 25 26  1  0  0  0
  4  6  1  0  0  0
  5  7  1  0  0  0
M  END
> <minimizedAffinity>
-11.82306

$$$$
4ZW7_4SZ_A_1102


 31 32  0  0  0  0  0  0  0  0999 V2000
   90.0085  119.1954  129.2914 C   0  0  0  0  0  0  0  0  0  0  0  0
   88.8807  120.2260  129.3218 C   0  0  0  0  0  0  0  0  0  0  0  0
   87.7152  119.8695  129.4518 O   0  0  0  0  0  0  0  0  0  0  0  0
   89.2963  121.4877  129.1448 N   0  0  0  0  0  0  0  0  0  0  0  0
   88.3355  122.5657  129.1735 O   0  0  0  0  0  0  0  0  0  0  0  0
   90.2506  121.6786  128.9961 H   0  0  0  0  0  0  0  0  0  0  0  0
   87.4488  122.2045  129.3291 H   0  0  0  0  0  0  0  0  0  0  0  0
   90.0773  118.4272  130.4536 C   0  0  0  0  0  0  0  0  0  0  0  0
   90.7844  117.2357  130.3751 C   0  0  0  0  0  0  0  0  0  0  0  0
   90.9325  116.4242  131.4892 C   0  0  0  0  0  0  0  0  0  0  0  0
   89.5248  118.8416  131.6737 C   0  0  0  0  0  0  0  0  0  0  0  0
   89.6785  118.0260  132.8059 C   0  0  0  0  0  0  0  0  0  0  0  0
   90.3616  116.8067  132.6965 C   0  0  0  0  0  0  0  0  0  0  0  0
   90.6069  115.9830  133.7930 C   0  0  0  0  0  0  0  0  0  0  0  0
   91.3585  114.8235  133.5408 C   0  0  0  0  0  0  0  0  0  0  0  0
   91.6139  113.9174  134.5652 C   0  0  0  0  0  0  0  0  0  0  0  0
   92.3558  112.7605  134.3430 F   0  0  0  0  0  0  0  0  0  0  0  0
   91.1193  114.1662  135.8337 C   0  0  0  0  0  0  0  0  0  0  0  0
   91.3775  113.3042  136.8451 F   0  0  0  0  0  0  0  0  0  0  0  0
   90.3657  115.3032  136.0843 C   0  0  0  0  0  0  0  0  0  0  0  0
   89.9230  115.4861  137.2911 F   0  0  0  0  0  0  0  0  0  0  0  0
   90.0917  116.2183  135.0648 C   0  0  0  0  0  0  0  0  0  0  0  0
   92.0285  119.8473  128.0243 C   0  0  0  0  0  0  0  0  0  0  0  0
   93.0771  120.4834  127.9713 O   0  0  0  0  0  0  0  0  0  0  0  0
   91.2895  119.9006  129.1473 N   0  0  0  0  0  0  0  0  0  0  0  0
   91.6211  120.4349  129.9047 H   0  0  0  0  0  0  0  0  0  0  0  0
   91.5895  119.0676  126.9806 O   0  0  0  0  0  0  0  0  0  0  0  0
   91.1029  116.6934  126.6202 C   0  0  0  0  0  0  0  0  0  0  0  0
   92.1891  117.7900  126.6646 C   0  0  0  0  0  0  0  0  0  0  0  0
   92.8105  117.9627  125.2728 C   0  0  0  0  0  0  0  0  0  0  0  0
   93.3030  117.4004  127.6562 C   0  0  0  0  0  0  0  0  0  0  0  0
 31 29  1  0  0  0
 30 29  1  0  0  0
 29 28  1  0  0  0
 29 27  1  0  0  0
  5  4  1  0  0  0
 27 23  1  0  0  0
  4  2  1  0  0  0
  3  2  2  0  0  0
 24 23  2  0  0  0
 23 25  1  0  0  0
  2  1  1  0  0  0
 25  1  1  0  0  0
  1  8  1  0  0  0
  8 11  2  0  0  0
  8  9  1  0  0  0
 11 12  1  0  0  0
  9 10  2  0  0  0
 12 13  2  0  0  0
 10 13  1  0  0  0
 13 14  1  0  0  0
 14 22  2  0  0  0
 14 15  1  0  0  0
 22 20  1  0  0  0
 15 16  2  0  0  0
 20 21  1  0  0  0
 20 18  2  0  0  0
 16 18  1  0  0  0
 16 17  1  0  0  0
 18 19  1  0  0  0
 25 26  1  0  0  0
  4  6  1  0  0  0
  5  7  1  0  0  0
M  END
> <minimizedAffinity>
-10.57422

$$$$
4ZW7_4SZ_A_1102


 31 32  0  0  0  0  0  0  0  0999 V2000
   89.9264  118.7851  130.5769 C   0  0  0  0  0  0  0  0  0  0  0  0
   91.1722  119.5325  130.1034 C   0  0  0  0  0  0  0  0  0  0  0  0
   92.1862  119.5507  130.7917 O   0  0  0  0  0  0  0  0  0  0  0  0
   91.0085  120.1718  128.9369 N   0  0  0  0  0  0  0  0  0  0  0  0
   92.1149  120.9005  128.3617 O   0  0  0  0  0  0  0  0  0  0  0  0
   90.1395  120.1448  128.4750 H   0  0  0  0  0  0  0  0  0  0  0  0
   92.8888  120.8240  128.9415 H   0  0  0  0  0  0  0  0  0  0  0  0
   89.3963  119.3018  131.7591 C   0  0  0  0  0  0  0  0  0  0  0  0
   89.3493  118.4458  132.8504 C   0  0  0  0  0  0  0  0  0  0  0  0
   88.8687  118.8834  134.0748 C   0  0  0  0  0  0  0  0  0  0  0  0
   88.9825  120.6351  131.8889 C   0  0  0  0  0  0  0  0  0  0  0  0
   88.5017  121.0840  133.1290 C   0  0  0  0  0  0  0  0  0  0  0  0
   88.4243  120.1928  134.2083 C   0  0  0  0  0  0  0  0  0  0  0  0
   88.0202  120.5892  135.4813 C   0  0  0  0  0  0  0  0  0  0  0  0
   88.8676  121.4894  136.1479 C   0  0  0  0  0  0  0  0  0  0  0  0
   88.5697  121.9051  137.4418 C   0  0  0  0  0  0  0  0  0  0  0  0
   89.3922  122.7963  138.1256 F   0  0  0  0  0  0  0  0  0  0  0  0
   87.4333  121.4227  138.0675 C   0  0  0  0  0  0  0  0  0  0  0  0
   87.1194  121.8345  139.3183 F   0  0  0  0  0  0  0  0  0  0  0  0
   86.6007  120.5237  137.4181 C   0  0  0  0  0  0  0  0  0  0  0  0
   85.5499  120.0999  138.0522 F   0  0  0  0  0  0  0  0  0  0  0  0
   86.8904  120.0885  136.1225 C   0  0  0  0  0  0  0  0  0  0  0  0
   90.6872  116.5487  129.8486 C   0  0  0  0  0  0  0  0  0  0  0  0
   90.9910  115.3950  130.1384 O   0  0  0  0  0  0  0  0  0  0  0  0
   90.2829  117.3814  130.8248 N   0  0  0  0  0  0  0  0  0  0  0  0
   90.2233  117.0355  131.7446 H   0  0  0  0  0  0  0  0  0  0  0  0
   90.7303  117.0164  128.5566 O   0  0  0  0  0  0  0  0  0  0  0  0
   93.1774  116.9076  128.5003 C   0  0  0  0  0  0  0  0  0  0  0  0
   91.8673  116.7933  127.6911 C   0  0  0  0  0  0  0  0  0  0  0  0
   91.7053  115.3620  127.1637 C   0  0  0  0  0  0  0  0  0  0  0  0
   91.8930  117.7603  126.4911 C   0  0  0  0  0  0  0  0  0  0  0  0
 31 29  1  0  0  0
 30 29  1  0  0  0
 29 28  1  0  0  0
 29 27  1  0  0  0
  5  4  1  0  0  0
 27 23  1  0  0  0
  4  2  1  0  0  0
  3  2  2  0  0  0
 24 23  2  0  0  0
 23 25  1  0  0  0
  2  1  1  0  0  0
 25  1  1  0  0  0
  1  8  1  0  0  0
  8 11  2  0  0  0
  8  9  1  0  0  0
 11 12  1  0  0  0
  9 10  2  0  0  0
 12 13  2  0  0  0
 10 13  1  0  0  0
 13 14  1  0  0  0
 14 22  2  0  0  0
 14 15  1  0  0  0
 22 20  1  0  0  0
 15 16  2  0  0  0
 20 21  1  0  0  0
 20 18  2  0  0  0
 16 18  1  0  0  0
 16 17  1  0  0  0
 18 19  1  0  0  0
 25 26  1  0  0  0
  4  6  1  0  0  0
  5  7  1  0  0  0
M  END
> <minimizedAffinity>
-10.37894

$$$$
4ZW7_4SZ_A_1102


 31 32  0  0  0  0  0  0  0  0999 V2000
   90.2994  119.2982  129.7922 C   0  0  0  0  0  0  0  0  0  0  0  0
   89.1051  120.1262  129.3198 C   0  0  0  0  0  0  0  0  0  0  0  0
   88.0916  119.5760  128.9047 O   0  0  0  0  0  0  0  0  0  0  0  0
   89.3135  121.4493  129.3632 N   0  0  0  0  0  0  0  0  0  0  0  0
   88.2577  122.3510  128.9653 O   0  0  0  0  0  0  0  0  0  0  0  0
   90.1809  121.8045  129.6644 H   0  0  0  0  0  0  0  0  0  0  0  0
   87.4782  121.8386  128.6992 H   0  0  0  0  0  0  0  0  0  0  0  0
   90.9201  118.5966  128.7587 C   0  0  0  0  0  0  0  0  0  0  0  0
   90.9873  117.2168  128.8914 C   0  0  0  0  0  0  0  0  0  0  0  0
   91.5572  116.4357  127.8980 C   0  0  0  0  0  0  0  0  0  0  0  0
   91.4047  119.2191  127.5998 C   0  0  0  0  0  0  0  0  0  0  0  0
   91.9763  118.4311  126.5884 C   0  0  0  0  0  0  0  0  0  0  0  0
   92.0714  117.0429  126.7593 C   0  0  0  0  0  0  0  0  0  0  0  0
   92.5659  116.1971  125.7687 C   0  0  0  0  0  0  0  0  0  0  0  0
   93.9527  116.2425  125.5511 C   0  0  0  0  0  0  0  0  0  0  0  0
   94.5308  115.4674  124.5507 C   0  0  0  0  0  0  0  0  0  0  0  0
   95.9024  115.4933  124.3134 F   0  0  0  0  0  0  0  0  0  0  0  0
   93.7282  114.6535  123.7702 C   0  0  0  0  0  0  0  0  0  0  0  0
   94.2791  113.8780  122.8071 F   0  0  0  0  0  0  0  0  0  0  0  0
   92.3568  114.6154  123.9729 C   0  0  0  0  0  0  0  0  0  0  0  0
   91.6503  113.8375  123.2103 F   0  0  0  0  0  0  0  0  0  0  0  0
   91.7591  115.3947  124.9666 C   0  0  0  0  0  0  0  0  0  0  0  0
   89.4290  118.6601  132.0162 C   0  0  0  0  0  0  0  0  0  0  0  0
   89.0295  117.7838  132.7775 O   0  0  0  0  0  0  0  0  0  0  0  0
   89.8324  118.3156  130.7798 N   0  0  0  0  0  0  0  0  0  0  0  0
   89.8138  117.3646  130.5260 H   0  0  0  0  0  0  0  0  0  0  0  0
   89.4944  119.9819  132.3884 O   0  0  0  0  0  0  0  0  0  0  0  0
   88.1235  120.0993  134.4158 C   0  0  0  0  0  0  0  0  0  0  0  0
   88.3794  120.6679  133.0032 C   0  0  0  0  0  0  0  0  0  0  0  0
   88.8084  122.1372  133.1042 C   0  0  0  0  0  0  0  0  0  0  0  0
   87.0964  120.5868  132.1528 C   0  0  0  0  0  0  0  0  0  0  0  0
 31 29  1  0  0  0
 30 29  1  0  0  0
 29 28  1  0  0  0
 29 27  1  0  0  0
  5  4  1  0  0  0
 27 23  1  0  0  0
  4  2  1  0  0  0
  3  2  2  0  0  0
 24 23  2  0  0  0
 23 25  1  0  0  0
  2  1  1  0  0  0
 25  1  1  0  0  0
  1  8  1  0  0  0
  8 11  2  0  0  0
  8  9  1  0  0  0
 11 12  1  0  0  0
  9 10  2  0  0  0
 12 13  2  0  0  0
 10 13  1  0  0  0
 13 14  1  0  0  0
 14 22  2  0  0  0
 14 15  1  0  0  0
 22 20  1  0  0  0
 15 16  2  0  0  0
 20 21  1  0  0  0
 20 18  2  0  0  0
 16 18  1  0  0  0
 16 17  1  0  0  0
 18 19  1  0  0  0
 25 26  1  0  0  0
  4  6  1  0  0  0
  5  7  1  0  0  0
M  END
> <minimizedAffinity>
-9.92481

$$$$
4ZW7_4SZ_A_1102


 31 32  0  0  0  0  0  0  0  0999 V2000
   89.7619  119.2938  130.2594 C   0  0  0  0  0  0  0  0  0  0  0  0
   88.6963  120.2910  130.7124 C   0  0  0  0  0  0  0  0  0  0  0  0
   88.8469  120.9376  131.7426 O   0  0  0  0  0  0  0  0  0  0  0  0
   87.6175  120.3274  129.9181 N   0  0  0  0  0  0  0  0  0  0  0  0
   86.5420  121.2436  130.2178 O   0  0  0  0  0  0  0  0  0  0  0  0
   87.5586  119.7335  129.1352 H   0  0  0  0  0  0  0  0  0  0  0  0
   86.7611  121.7494  131.0160 H   0  0  0  0  0  0  0  0  0  0  0  0
   90.1317  118.3972  131.2619 C   0  0  0  0  0  0  0  0  0  0  0  0
   89.2328  118.2184  132.3040 C   0  0  0  0  0  0  0  0  0  0  0  0
   89.5022  117.3227  133.3271 C   0  0  0  0  0  0  0  0  0  0  0  0
   91.3169  117.6498  131.2154 C   0  0  0  0  0  0  0  0  0  0  0  0
   91.5902  116.7366  132.2460 C   0  0  0  0  0  0  0  0  0  0  0  0
   90.6885  116.6001  133.3107 C   0  0  0  0  0  0  0  0  0  0  0  0
   90.8661  115.6663  134.3294 C   0  0  0  0  0  0  0  0  0  0  0  0
   90.1198  115.8777  135.5004 C   0  0  0  0  0  0  0  0  0  0  0  0
   90.2665  115.0233  136.5886 C   0  0  0  0  0  0  0  0  0  0  0  0
   89.5396  115.2097  137.7612 F   0  0  0  0  0  0  0  0  0  0  0  0
   91.1553  113.9653  136.5089 C   0  0  0  0  0  0  0  0  0  0  0  0
   91.2931  113.1134  137.5520 F   0  0  0  0  0  0  0  0  0  0  0  0
   91.9037  113.7604  135.3595 C   0  0  0  0  0  0  0  0  0  0  0  0
   92.7252  112.7552  135.3393 F   0  0  0  0  0  0  0  0  0  0  0  0
   91.7758  114.6147  134.2614 C   0  0  0  0  0  0  0  0  0  0  0  0
   91.5520  119.8822  128.6594 C   0  0  0  0  0  0  0  0  0  0  0  0
   92.5419  120.5566  128.3898 O   0  0  0  0  0  0  0  0  0  0  0  0
   90.9652  120.0365  129.8602 N   0  0  0  0  0  0  0  0  0  0  0  0
   91.3588  120.6741  130.4986 H   0  0  0  0  0  0  0  0  0  0  0  0
   91.0302  118.9613  127.7822 O   0  0  0  0  0  0  0  0  0  0  0  0
   92.9587  117.5030  128.1790 C   0  0  0  0  0  0  0  0  0  0  0  0
   91.8306  117.9045  127.2041 C   0  0  0  0  0  0  0  0  0  0  0  0
   90.8699  116.7250  127.0069 C   0  0  0  0  0  0  0  0  0  0  0  0
   92.4200  118.2938  125.8342 C   0  0  0  0  0  0  0  0  0  0  0  0
 31 29  1  0  0  0
 30 29  1  0  0  0
 29 28  1  0  0  0
 29 27  1  0  0  0
  5  4  1  0  0  0
 27 23  1  0  0  0
  4  2  1  0  0  0
  3  2  2  0  0  0
 24 23  2  0  0  0
 23 25  1  0  0  0
  2  1  1  0  0  0
 25  1  1  0  0  0
  1  8  1  0  0  0
  8 11  2  0  0  0
  8  9  1  0  0  0
 11 12  1  0  0  0
  9 10  2  0  0  0
 12 13  2  0  0  0
 10 13  1  0  0  0
 13 14  1  0  0  0
 14 22  2  0  0  0
 14 15  1  0  0  0
 22 20  1  0  0  0
 15 16  2  0  0  0
 20 21  1  0  0  0
 20 18  2  0  0  0
 16 18  1  0  0  0
 16 17  1  0  0  0
 18 19  1  0  0  0
 25 26  1  0  0  0
  4  6  1  0  0  0
  5  7  1  0  0  0
M  END
> <minimizedAffinity>
-9.90984

$$$$
4ZW7_4SZ_A_1102


 31 32  0  0  0  0  0  0  0  0999 V2000
   91.7887  117.0111  128.7925 C   0  0  0  0  0  0  0  0  0  0  0  0
   93.3023  116.9851  129.0011 C   0  0  0  0  0  0  0  0  0  0  0  0
   94.0133  117.8542  128.5097 O   0  0  0  0  0  0  0  0  0  0  0  0
   93.7334  115.9266  129.7010 N   0  0  0  0  0  0  0  0  0  0  0  0
   95.1416  115.7891  129.9910 O   0  0  0  0  0  0  0  0  0  0  0  0
   93.0942  115.2471  130.0155 H   0  0  0  0  0  0  0  0  0  0  0  0
   95.6248  116.5394  129.6109 H   0  0  0  0  0  0  0  0  0  0  0  0
   91.0950  117.5172  129.8917 C   0  0  0  0  0  0  0  0  0  0  0  0
   90.8803  118.8880  129.9190 C   0  0  0  0  0  0  0  0  0  0  0  0
   90.1719  119.4743  130.9564 C   0  0  0  0  0  0  0  0  0  0  0  0
   90.5712  116.7000  130.9033 C   0  0  0  0  0  0  0  0  0  0  0  0
   89.8473  117.2890  131.9519 C   0  0  0  0  0  0  0  0  0  0  0  0
   89.6760  118.6801  131.9826 C   0  0  0  0  0  0  0  0  0  0  0  0
   88.9135  119.3209  132.9566 C   0  0  0  0  0  0  0  0  0  0  0  0
   88.4696  120.6161  132.6429 C   0  0  0  0  0  0  0  0  0  0  0  0
   87.7413  121.3515  133.5726 C   0  0  0  0  0  0  0  0  0  0  0  0
   87.2893  122.6373  133.2880 F   0  0  0  0  0  0  0  0  0  0  0  0
   87.4598  120.7979  134.8095 C   0  0  0  0  0  0  0  0  0  0  0  0
   86.7341  121.4935  135.7163 F   0  0  0  0  0  0  0  0  0  0  0  0
   87.9072  119.5245  135.1283 C   0  0  0  0  0  0  0  0  0  0  0  0
   87.6184  119.0546  136.3038 F   0  0  0  0  0  0  0  0  0  0  0  0
   88.6481  118.7764  134.2101 C   0  0  0  0  0  0  0  0  0  0  0  0
   91.0184  115.1649  127.3404 C   0  0  0  0  0  0  0  0  0  0  0  0
   90.6549  113.9978  127.2266 O   0  0  0  0  0  0  0  0  0  0  0  0
   91.3193  115.6378  128.5634 N   0  0  0  0  0  0  0  0  0  0  0  0
   91.2209  115.0381  129.3380 H   0  0  0  0  0  0  0  0  0  0  0  0
   91.1136  116.0124  126.2622 O   0  0  0  0  0  0  0  0  0  0  0  0
   91.6731  115.2849  123.9904 C   0  0  0  0  0  0  0  0  0  0  0  0
   92.1890  115.9208  125.2995 C   0  0  0  0  0  0  0  0  0  0  0  0
   92.6275  117.3671  125.0372 C   0  0  0  0  0  0  0  0  0  0  0  0
   93.3970  115.1301  125.8390 C   0  0  0  0  0  0  0  0  0  0  0  0
 31 29  1  0  0  0
 30 29  1  0  0  0
 29 28  1  0  0  0
 29 27  1  0  0  0
  5  4  1  0  0  0
 27 23  1  0  0  0
  4  2  1  0  0  0
  3  2  2  0  0  0
 24 23  2  0  0  0
 23 25  1  0  0  0
  2  1  1  0  0  0
 25  1  1  0  0  0
  1  8  1  0  0  0
  8 11  2  0  0  0
  8  9  1  0  0  0
 11 12  1  0  0  0
  9 10  2  0  0  0
 12 13  2  0  0  0
 10 13  1  0  0  0
 13 14  1  0  0  0
 14 22  2  0  0  0
 14 15  1  0  0  0
 22 20  1  0  0  0
 15 16  2  0  0  0
 20 21  1  0  0  0
 20 18  2  0  0  0
 16 18  1  0  0  0
 16 17  1  0  0  0
 18 19  1  0  0  0
 25 26  1  0  0  0
  4  6  1  0  0  0
  5  7  1  0  0  0
M  END
> <minimizedAffinity>
-9.74903

$$$$
4ZW7_4SZ_A_1102


 31 32  0  0  0  0  0  0  0  0999 V2000
   92.1003  115.1812  130.0804 C   0  0  0  0  0  0  0  0  0  0  0  0
   92.5219  113.9194  130.8322 C   0  0  0  0  0  0  0  0  0  0  0  0
   92.0398  112.8309  130.5406 O   0  0  0  0  0  0  0  0  0  0  0  0
   93.3917  114.1473  131.8258 N   0  0  0  0  0  0  0  0  0  0  0  0
   93.8912  113.0383  132.6048 O   0  0  0  0  0  0  0  0  0  0  0  0
   93.6884  115.0650  132.0236 H   0  0  0  0  0  0  0  0  0  0  0  0
   93.5000  112.2125  132.2794 H   0  0  0  0  0  0  0  0  0  0  0  0
   91.3038  116.0323  130.8464 C   0  0  0  0  0  0  0  0  0  0  0  0
   91.6130  117.3846  130.8046 C   0  0  0  0  0  0  0  0  0  0  0  0
   90.8550  118.3074  131.5085 C   0  0  0  0  0  0  0  0  0  0  0  0
   90.1980  115.5830  131.5819 C   0  0  0  0  0  0  0  0  0  0  0  0
   89.4237  116.5152  132.2905 C   0  0  0  0  0  0  0  0  0  0  0  0
   89.7766  117.8718  132.2682 C   0  0  0  0  0  0  0  0  0  0  0  0
   89.0142  118.8559  132.8937 C   0  0  0  0  0  0  0  0  0  0  0  0
   88.6631  119.9628  132.1037 C   0  0  0  0  0  0  0  0  0  0  0  0
   87.9422  121.0171  132.6556 C   0  0  0  0  0  0  0  0  0  0  0  0
   87.5812  122.1263  131.8955 F   0  0  0  0  0  0  0  0  0  0  0  0
   87.5763  120.9676  133.9894 C   0  0  0  0  0  0  0  0  0  0  0  0
   86.8567  121.9763  134.5348 F   0  0  0  0  0  0  0  0  0  0  0  0
   87.9320  119.8826  134.7765 C   0  0  0  0  0  0  0  0  0  0  0  0
   87.5664  119.8886  136.0224 F   0  0  0  0  0  0  0  0  0  0  0  0
   88.6641  118.8202  134.2407 C   0  0  0  0  0  0  0  0  0  0  0  0
   91.5883  115.2549  127.6631 C   0  0  0  0  0  0  0  0  0  0  0  0
   90.9084  114.8618  126.7195 O   0  0  0  0  0  0  0  0  0  0  0  0
   91.3228  114.7889  128.8970 N   0  0  0  0  0  0  0  0  0  0  0  0
   90.5757  114.1581  129.0118 H   0  0  0  0  0  0  0  0  0  0  0  0
   92.6032  116.1688  127.5060 O   0  0  0  0  0  0  0  0  0  0  0  0
   90.9345  117.9613  127.4290 C   0  0  0  0  0  0  0  0  0  0  0  0
   92.3634  117.5189  127.0461 C   0  0  0  0  0  0  0  0  0  0  0  0
   93.3913  118.3896  127.7797 C   0  0  0  0  0  0  0  0  0  0  0  0
   92.5825  117.6718  125.5280 C   0  0  0  0  0  0  0  0  0  0  0  0
 31 29  1  0  0  0
 30 29  1  0  0  0
 29 28  1  0  0  0
 29 27  1  0  0  0
  5  4  1  0  0  0
 27 23  1  0  0  0
  4  2  1  0  0  0
  3  2  2  0  0  0
 24 23  2  0  0  0
 23 25  1  0  0  0
  2  1  1  0  0  0
 25  1  1  0  0  0
  1  8  1  0  0  0
  8 11  2  0  0  0
  8  9  1  0  0  0
 11 12  1  0  0  0
  9 10  2  0  0  0
 12 13  2  0  0  0
 10 13  1  0  0  0
 13 14  1  0  0  0
 14 22  2  0  0  0
 14 15  1  0  0  0
 22 20  1  0  0  0
 15 16  2  0  0  0
 20 21  1  0  0  0
 20 18  2  0  0  0
 16 18  1  0  0  0
 16 17  1  0  0  0
 18 19  1  0  0  0
 25 26  1  0  0  0
  4  6  1  0  0  0
  5  7  1  0  0  0
M  END
> <minimizedAffinity>
-9.63569

$$$$
4ZW7_4SZ_A_1102


 31 32  0  0  0  0  0  0  0  0999 V2000
   91.9308  114.5428  130.3452 C   0  0  0  0  0  0  0  0  0  0  0  0
   91.1724  113.7574  129.2761 C   0  0  0  0  0  0  0  0  0  0  0  0
   90.5351  112.7542  129.5757 O   0  0  0  0  0  0  0  0  0  0  0  0
   91.3268  114.2435  128.0368 N   0  0  0  0  0  0  0  0  0  0  0  0
   90.6458  113.6094  126.9322 O   0  0  0  0  0  0  0  0  0  0  0  0
   91.9008  115.0278  127.8803 H   0  0  0  0  0  0  0  0  0  0  0  0
   90.1274  112.8581  127.2603 H   0  0  0  0  0  0  0  0  0  0  0  0
   91.2403  115.6718  130.7858 C   0  0  0  0  0  0  0  0  0  0  0  0
   90.3131  115.4816  131.8008 C   0  0  0  0  0  0  0  0  0  0  0  0
   89.6040  116.5520  132.3233 C   0  0  0  0  0  0  0  0  0  0  0  0
   91.4935  116.9596  130.2928 C   0  0  0  0  0  0  0  0  0  0  0  0
   90.7826  118.0472  130.8241 C   0  0  0  0  0  0  0  0  0  0  0  0
   89.8211  117.8287  131.8207 C   0  0  0  0  0  0  0  0  0  0  0  0
   89.1291  118.8693  132.4367 C   0  0  0  0  0  0  0  0  0  0  0  0
   88.9074  120.0144  131.6541 C   0  0  0  0  0  0  0  0  0  0  0  0
   88.2658  121.1221  132.1991 C   0  0  0  0  0  0  0  0  0  0  0  0
   88.0334  122.2699  131.4461 F   0  0  0  0  0  0  0  0  0  0  0  0
   87.8500  121.0876  133.5187 C   0  0  0  0  0  0  0  0  0  0  0  0
   87.2057  122.1498  134.0564 F   0  0  0  0  0  0  0  0  0  0  0  0
   88.0784  119.9640  134.2989 C   0  0  0  0  0  0  0  0  0  0  0  0
   87.6711  119.9860  135.5316 F   0  0  0  0  0  0  0  0  0  0  0  0
   88.7300  118.8469  133.7702 C   0  0  0  0  0  0  0  0  0  0  0  0
   94.3797  114.8679  130.4334 C   0  0  0  0  0  0  0  0  0  0  0  0
   95.4106  115.2486  129.8861 O   0  0  0  0  0  0  0  0  0  0  0  0
   93.2099  114.9951  129.7812 N   0  0  0  0  0  0  0  0  0  0  0  0
   93.2110  115.4090  128.8879 H   0  0  0  0  0  0  0  0  0  0  0  0
   94.3761  114.3300  131.6985 O   0  0  0  0  0  0  0  0  0  0  0  0
   93.3611  114.7664  133.8855 C   0  0  0  0  0  0  0  0  0  0  0  0
   94.4752  115.1483  132.8868 C   0  0  0  0  0  0  0  0  0  0  0  0
   95.8478  114.8269  133.4916 C   0  0  0  0  0  0  0  0  0  0  0  0
   94.4172  116.6558  132.5707 C   0  0  0  0  0  0  0  0  0  0  0  0
 31 29  1  0  0  0
 30 29  1  0  0  0
 29 28  1  0  0  0
 29 27  1  0  0  0
  5  4  1  0  0  0
 27 23  1  0  0  0
  4  2  1  0  0  0
  3  2  2  0  0  0
 24 23  2  0  0  0
 23 25  1  0  0  0
  2  1  1  0  0  0
 25  1  1  0  0  0
  1  8  1  0  0  0
  8 11  2  0  0  0
  8  9  1  0  0  0
 11 12  1  0  0  0
  9 10  2  0  0  0
 12 13  2  0  0  0
 10 13  1  0  0  0
 13 14  1  0  0  0
 14 22  2  0  0  0
 14 15  1  0  0  0
 22 20  1  0  0  0
 15 16  2  0  0  0
 20 21  1  0  0  0
 20 18  2  0  0  0
 16 18  1  0  0  0
 16 17  1  0  0  0
 18 19  1  0  0  0
 25 26  1  0  0  0
  4  6  1  0  0  0
  5  7  1  0  0  0
M  END
> <minimizedAffinity>
-9.46028

$$$$
4ZW7_4SZ_A_1102


 31 32  0  0  0  0  0  0  0  0999 V2000
   92.6455  115.7147  128.6222 C   0  0  0  0  0  0  0  0  0  0  0  0
   93.8211  115.0309  129.3191 C   0  0  0  0  0  0  0  0  0  0  0  0
   94.7955  115.6817  129.6786 O   0  0  0  0  0  0  0  0  0  0  0  0
   93.6842  113.7025  129.4320 N   0  0  0  0  0  0  0  0  0  0  0  0
   94.7134  112.9331  130.0914 O   0  0  0  0  0  0  0  0  0  0  0  0
   92.8871  113.2540  129.0678 H   0  0  0  0  0  0  0  0  0  0  0  0
   95.4212  113.5267  130.3874 H   0  0  0  0  0  0  0  0  0  0  0  0
   91.8636  116.4756  129.4913 C   0  0  0  0  0  0  0  0  0  0  0  0
   91.8304  117.8447  129.2667 C   0  0  0  0  0  0  0  0  0  0  0  0
   91.0543  118.6749  130.0605 C   0  0  0  0  0  0  0  0  0  0  0  0
   91.0868  115.9081  130.5111 C   0  0  0  0  0  0  0  0  0  0  0  0
   90.2941  116.7446  131.3127 C   0  0  0  0  0  0  0  0  0  0  0  0
   90.3056  118.1295  131.0958 C   0  0  0  0  0  0  0  0  0  0  0  0
   89.4934  119.0077  131.8101 C   0  0  0  0  0  0  0  0  0  0  0  0
   89.2028  118.6436  133.1352 C   0  0  0  0  0  0  0  0  0  0  0  0
   88.3619  119.4353  133.9110 C   0  0  0  0  0  0  0  0  0  0  0  0
   88.0570  119.0979  135.2269 F   0  0  0  0  0  0  0  0  0  0  0  0
   87.8121  120.5826  133.3660 C   0  0  0  0  0  0  0  0  0  0  0  0
   87.0090  121.3738  134.1154 F   0  0  0  0  0  0  0  0  0  0  0  0
   88.0859  120.9389  132.0540 C   0  0  0  0  0  0  0  0  0  0  0  0
   87.5412  122.0230  131.5915 F   0  0  0  0  0  0  0  0  0  0  0  0
   88.9203  120.1501  131.2581 C   0  0  0  0  0  0  0  0  0  0  0  0
   91.1544  114.8450  126.8528 C   0  0  0  0  0  0  0  0  0  0  0  0
   90.4669  113.9276  126.4136 O   0  0  0  0  0  0  0  0  0  0  0  0
   91.7808  114.6835  128.0324 N   0  0  0  0  0  0  0  0  0  0  0  0
   91.6545  113.8384  128.5213 H   0  0  0  0  0  0  0  0  0  0  0  0
   91.2941  116.0404  126.1885 O   0  0  0  0  0  0  0  0  0  0  0  0
   91.2221  115.9225  123.7422 C   0  0  0  0  0  0  0  0  0  0  0  0
   92.0952  116.1705  124.9913 C   0  0  0  0  0  0  0  0  0  0  0  0
   92.6009  117.6187  124.9928 C   0  0  0  0  0  0  0  0  0  0  0  0
   93.3118  115.2241  124.9908 C   0  0  0  0  0  0  0  0  0  0  0  0
 31 29  1  0  0  0
 30 29  1  0  0  0
 29 28  1  0  0  0
 29 27  1  0  0  0
  5  4  1  0  0  0
 27 23  1  0  0  0
  4  2  1  0  0  0
  3  2  2  0  0  0
 24 23  2  0  0  0
 23 25  1  0  0  0
  2  1  1  0  0  0
 25  1  1  0  0  0
  1  8  1  0  0  0
  8 11  2  0  0  0
  8  9  1  0  0  0
 11 12  1  0  0  0
  9 10  2  0  0  0
 12 13  2  0  0  0
 10 13  1  0  0  0
 13 14  1  0  0  0
 14 22  2  0  0  0
 14 15  1  0  0  0
 22 20  1  0  0  0
 15 16  2  0  0  0
 20 21  1  0  0  0
 20 18  2  0  0  0
 16 18  1  0  0  0
 16 17  1  0  0  0
 18 19  1  0  0  0
 25 26  1  0  0  0
  4  6  1  0  0  0
  5  7  1  0  0  0
M  END
> <minimizedAffinity>
-9.40085

$$$$
