4OVG_2VF_A_401


 24 26  0  0  0  0  0  0  0  0999 V2000
    8.4686   -3.7935  -11.5238 N   0  0  0  0  0  0  0  0  0  0  0  0
    9.5113   -4.5710  -11.1805 C   0  0  0  0  0  0  0  0  0  0  0  0
    9.7548   -5.3762  -10.0797 C   0  0  0  0  0  0  0  0  0  0  0  0
   10.9483   -6.0802  -10.0079 C   0  0  0  0  0  0  0  0  0  0  0  0
    8.6789   -3.2114  -12.7168 C   0  0  0  0  0  0  0  0  0  0  0  0
    7.7577   -2.2720  -13.4461 C   0  0  0  0  0  0  0  0  0  0  0  0
    8.4858   -1.6886  -14.6717 C   0  0  0  0  0  0  0  0  0  0  0  0
    9.3792   -2.6981  -15.3960 C   0  0  0  0  0  0  0  0  0  0  0  0
   10.5568   -3.1682  -14.5529 C   0  0  0  0  0  0  0  0  0  0  0  0
    9.9981   -3.6180  -13.2442 C   0  0  0  0  0  0  0  0  0  0  0  0
   10.5514   -4.5298  -12.2370 C   0  0  0  0  0  0  0  0  0  0  0  0
   11.7309   -5.2556  -12.1426 C   0  0  0  0  0  0  0  0  0  0  0  0
   11.9052   -6.0320  -11.0039 C   0  0  0  0  0  0  0  0  0  0  0  0
   13.3566   -7.0234  -10.6902 Cl  0  0  0  0  0  0  0  0  0  0  0  0
    7.5336   -1.1423  -15.7024 C   0  0  0  0  0  0  0  0  0  0  0  0
    6.7063   -1.8203  -16.3212 O   0  0  0  0  0  0  0  0  0  0  0  0
    7.6119    0.1534  -15.9247 O   0  0  0  0  0  0  0  0  0  0  0  0
    8.2376    0.6718  -15.4581 H   0  0  0  0  0  0  0  0  0  0  0  0
    7.2733   -3.5908  -10.6871 C   0  0  0  0  0  0  0  0  0  0  0  0
    8.1848   -2.1517   -9.0879 O   0  0  0  0  0  0  0  0  0  0  0  0
    7.2821   -2.3172   -9.8945 C   0  0  0  0  0  0  0  0  0  0  0  0
    6.3236   -1.4092  -10.1053 N   0  0  0  0  0  0  0  0  0  0  0  0
    6.3191   -0.5697   -9.5911 H   0  0  0  0  0  0  0  0  0  0  0  0
    5.6223   -1.5801  -10.7748 H   0  0  0  0  0  0  0  0  0  0  0  0
 20 21  2  0  0  0
 19 21  1  0  0  0
 19  1  1  0  0  0
 21 22  1  0  0  0
  3  2  2  0  0  0
  3  4  1  0  0  0
  1  2  1  0  0  0
  1  5  1  0  0  0
  2 11  1  0  0  0
  4 13  2  0  0  0
  6  5  1  0  0  0
  6  7  1  0  0  0
  5 10  2  0  0  0
 13 14  1  0  0  0
 13 12  1  0  0  0
 11 10  1  0  0  0
 11 12  2  0  0  0
  7 15  1  0  0  0
  7  8  1  0  0  0
 10  9  1  0  0  0
 16 15  2  0  0  0
 15 17  1  0  0  0
  9  8  1  0  0  0
 22 23  1  0  0  0
 22 24  1  0  0  0
 17 18  1  0  0  0
M  END
> <minimizedAffinity>
-6.88929

$$$$
4OVG_2VF_A_401


 24 26  0  0  0  0  0  0  0  0999 V2000
    8.7988   -6.2783  -11.3456 N   0  0  0  0  0  0  0  0  0  0  0  0
    8.1535   -5.1124  -11.1612 C   0  0  0  0  0  0  0  0  0  0  0  0
    6.9795   -4.5998  -11.6887 C   0  0  0  0  0  0  0  0  0  0  0  0
    6.5540   -3.3398  -11.2929 C   0  0  0  0  0  0  0  0  0  0  0  0
    9.9064   -6.3367  -10.5865 C   0  0  0  0  0  0  0  0  0  0  0  0
   10.8968   -7.4662  -10.5074 C   0  0  0  0  0  0  0  0  0  0  0  0
   12.1141   -7.0231   -9.6741 C   0  0  0  0  0  0  0  0  0  0  0  0
   11.7516   -6.1558   -8.4665 C   0  0  0  0  0  0  0  0  0  0  0  0
   11.1567   -4.8088   -8.8540 C   0  0  0  0  0  0  0  0  0  0  0  0
   10.0451   -5.0871   -9.8101 C   0  0  0  0  0  0  0  0  0  0  0  0
    8.8797   -4.2746  -10.1760 C   0  0  0  0  0  0  0  0  0  0  0  0
    8.4223   -3.0222   -9.7901 C   0  0  0  0  0  0  0  0  0  0  0  0
    7.2425   -2.5742  -10.3710 C   0  0  0  0  0  0  0  0  0  0  0  0
    6.5008   -0.9890  -10.0178 Cl  0  0  0  0  0  0  0  0  0  0  0  0
   12.9046   -8.1891   -9.1422 C   0  0  0  0  0  0  0  0  0  0  0  0
   12.5086   -8.9610   -8.2622 O   0  0  0  0  0  0  0  0  0  0  0  0
   14.0908   -8.3718   -9.6842 O   0  0  0  0  0  0  0  0  0  0  0  0
   14.3956   -7.7893  -10.3518 H   0  0  0  0  0  0  0  0  0  0  0  0
    8.3593   -7.3321  -12.2762 C   0  0  0  0  0  0  0  0  0  0  0  0
    8.0278   -9.3660  -11.1750 O   0  0  0  0  0  0  0  0  0  0  0  0
    7.4859   -8.3814  -11.6543 C   0  0  0  0  0  0  0  0  0  0  0  0
    6.1615   -8.1997  -11.6304 N   0  0  0  0  0  0  0  0  0  0  0  0
    5.5784   -8.8815  -11.2250 H   0  0  0  0  0  0  0  0  0  0  0  0
    5.7695   -7.3842  -12.0183 H   0  0  0  0  0  0  0  0  0  0  0  0
 20 21  2  0  0  0
 19 21  1  0  0  0
 19  1  1  0  0  0
 21 22  1  0  0  0
  3  2  2  0  0  0
  3  4  1  0  0  0
  1  2  1  0  0  0
  1  5  1  0  0  0
  2 11  1  0  0  0
  4 13  2  0  0  0
  6  5  1  0  0  0
  6  7  1  0  0  0
  5 10  2  0  0  0
 13 14  1  0  0  0
 13 12  1  0  0  0
 11 10  1  0  0  0
 11 12  2  0  0  0
  7 15  1  0  0  0
  7  8  1  0  0  0
 10  9  1  0  0  0
 16 15  2  0  0  0
 15 17  1  0  0  0
  9  8  1  0  0  0
 22 23  1  0  0  0
 22 24  1  0  0  0
 17 18  1  0  0  0
M  END
> <minimizedAffinity>
-6.80608

$$$$
4OVG_2VF_A_401


 24 26  0  0  0  0  0  0  0  0999 V2000
   10.4977   -4.9986  -12.3098 N   0  0  0  0  0  0  0  0  0  0  0  0
    9.5229   -4.1286  -11.9893 C   0  0  0  0  0  0  0  0  0  0  0  0
    8.6902   -3.3323  -12.7586 C   0  0  0  0  0  0  0  0  0  0  0  0
    7.7548   -2.5248  -12.1276 C   0  0  0  0  0  0  0  0  0  0  0  0
   11.0177   -5.5616  -11.2058 C   0  0  0  0  0  0  0  0  0  0  0  0
   12.1238   -6.5790  -11.1378 C   0  0  0  0  0  0  0  0  0  0  0  0
   12.5378   -6.7886   -9.6691 C   0  0  0  0  0  0  0  0  0  0  0  0
   11.3616   -6.7799   -8.6900 C   0  0  0  0  0  0  0  0  0  0  0  0
   10.6622   -5.4300   -8.6066 C   0  0  0  0  0  0  0  0  0  0  0  0
   10.3442   -5.0217  -10.0064 C   0  0  0  0  0  0  0  0  0  0  0  0
    9.3427   -4.0797  -10.5179 C   0  0  0  0  0  0  0  0  0  0  0  0
    8.3890   -3.2705   -9.9159 C   0  0  0  0  0  0  0  0  0  0  0  0
    7.5990   -2.4944  -10.7547 C   0  0  0  0  0  0  0  0  0  0  0  0
    6.3303   -1.3804  -10.1740 Cl  0  0  0  0  0  0  0  0  0  0  0  0
   13.2641   -8.0901   -9.4545 C   0  0  0  0  0  0  0  0  0  0  0  0
   14.4030   -8.3334   -9.8678 O   0  0  0  0  0  0  0  0  0  0  0  0
   12.6115   -9.0035   -8.7660 O   0  0  0  0  0  0  0  0  0  0  0  0
   11.7477   -8.8238   -8.4503 H   0  0  0  0  0  0  0  0  0  0  0  0
   10.9475   -5.2712  -13.6857 C   0  0  0  0  0  0  0  0  0  0  0  0
   13.1715   -4.6188  -13.9813 O   0  0  0  0  0  0  0  0  0  0  0  0
   12.0024   -4.3310  -14.1892 C   0  0  0  0  0  0  0  0  0  0  0  0
   11.6343   -3.2313  -14.8548 N   0  0  0  0  0  0  0  0  0  0  0  0
   12.3178   -2.6069  -15.1899 H   0  0  0  0  0  0  0  0  0  0  0  0
   10.6799   -3.0459  -15.0097 H   0  0  0  0  0  0  0  0  0  0  0  0
 20 21  2  0  0  0
 19 21  1  0  0  0
 19  1  1  0  0  0
 21 22  1  0  0  0
  3  2  2  0  0  0
  3  4  1  0  0  0
  1  2  1  0  0  0
  1  5  1  0  0  0
  2 11  1  0  0  0
  4 13  2  0  0  0
  6  5  1  0  0  0
  6  7  1  0  0  0
  5 10  2  0  0  0
 13 14  1  0  0  0
 13 12  1  0  0  0
 11 10  1  0  0  0
 11 12  2  0  0  0
  7 15  1  0  0  0
  7  8  1  0  0  0
 10  9  1  0  0  0
 16 15  2  0  0  0
 15 17  1  0  0  0
  9  8  1  0  0  0
 22 23  1  0  0  0
 22 24  1  0  0  0
 17 18  1  0  0  0
M  END
> <minimizedAffinity>
-6.60237

$$$$
4OVG_2VF_A_401


 24 26  0  0  0  0  0  0  0  0999 V2000
   12.5194   -5.0987  -13.1660 N   0  0  0  0  0  0  0  0  0  0  0  0
   11.5091   -4.2880  -13.5288 C   0  0  0  0  0  0  0  0  0  0  0  0
   11.3098   -3.4807  -14.6370 C   0  0  0  0  0  0  0  0  0  0  0  0
   10.1351   -2.7491  -14.7380 C   0  0  0  0  0  0  0  0  0  0  0  0
   12.2493   -5.7052  -11.9974 C   0  0  0  0  0  0  0  0  0  0  0  0
   13.1215   -6.6808  -11.2555 C   0  0  0  0  0  0  0  0  0  0  0  0
   12.5129   -6.9605   -9.8685 C   0  0  0  0  0  0  0  0  0  0  0  0
   10.9855   -7.0557   -9.8735 C   0  0  0  0  0  0  0  0  0  0  0  0
   10.3051   -5.7415  -10.2316 C   0  0  0  0  0  0  0  0  0  0  0  0
   10.9297   -5.2638  -11.5001 C   0  0  0  0  0  0  0  0  0  0  0  0
   10.4263   -4.3332  -12.5162 C   0  0  0  0  0  0  0  0  0  0  0  0
    9.2561   -3.5988  -12.6511 C   0  0  0  0  0  0  0  0  0  0  0  0
    9.1353   -2.8060  -13.7855 C   0  0  0  0  0  0  0  0  0  0  0  0
    7.7170   -1.7787  -14.1329 Cl  0  0  0  0  0  0  0  0  0  0  0  0
   13.0200   -8.2430   -9.2639 C   0  0  0  0  0  0  0  0  0  0  0  0
   12.4370   -8.8794   -8.3796 O   0  0  0  0  0  0  0  0  0  0  0  0
   14.1620   -8.6901   -9.7438 O   0  0  0  0  0  0  0  0  0  0  0  0
   14.6080   -8.2112  -10.4144 H   0  0  0  0  0  0  0  0  0  0  0  0
   13.7626   -5.2718  -13.9368 C   0  0  0  0  0  0  0  0  0  0  0  0
   14.8068   -3.3249  -13.1761 O   0  0  0  0  0  0  0  0  0  0  0  0
   14.9398   -4.5208  -13.3886 C   0  0  0  0  0  0  0  0  0  0  0  0
   16.0763   -5.1790  -13.1380 N   0  0  0  0  0  0  0  0  0  0  0  0
   16.8554   -4.6967  -12.7781 H   0  0  0  0  0  0  0  0  0  0  0  0
   16.1340   -6.1460  -13.3134 H   0  0  0  0  0  0  0  0  0  0  0  0
 20 21  2  0  0  0
 19 21  1  0  0  0
 19  1  1  0  0  0
 21 22  1  0  0  0
  3  2  2  0  0  0
  3  4  1  0  0  0
  1  2  1  0  0  0
  1  5  1  0  0  0
  2 11  1  0  0  0
  4 13  2  0  0  0
  6  5  1  0  0  0
  6  7  1  0  0  0
  5 10  2  0  0  0
 13 14  1  0  0  0
 13 12  1  0  0  0
 11 10  1  0  0  0
 11 12  2  0  0  0
  7 15  1  0  0  0
  7  8  1  0  0  0
 10  9  1  0  0  0
 16 15  2  0  0  0
 15 17  1  0  0  0
  9  8  1  0  0  0
 22 23  1  0  0  0
 22 24  1  0  0  0
 17 18  1  0  0  0
M  END
> <minimizedAffinity>
-6.06347

$$$$
4OVG_2VF_A_401


 24 26  0  0  0  0  0  0  0  0999 V2000
   11.4396   -5.3755  -12.5642 N   0  0  0  0  0  0  0  0  0  0  0  0
   10.4332   -4.6374  -12.0620 C   0  0  0  0  0  0  0  0  0  0  0  0
    9.4963   -3.8070  -12.6553 C   0  0  0  0  0  0  0  0  0  0  0  0
    8.5552   -3.1713  -11.8581 C   0  0  0  0  0  0  0  0  0  0  0  0
   12.0732   -6.0470  -11.5874 C   0  0  0  0  0  0  0  0  0  0  0  0
   13.2476   -6.9754  -11.7353 C   0  0  0  0  0  0  0  0  0  0  0  0
   13.7775   -7.3578  -10.3405 C   0  0  0  0  0  0  0  0  0  0  0  0
   12.6755   -7.5782   -9.3018 C   0  0  0  0  0  0  0  0  0  0  0  0
   11.8939   -6.3117   -8.9803 C   0  0  0  0  0  0  0  0  0  0  0  0
   11.4510   -5.7355  -10.2838 C   0  0  0  0  0  0  0  0  0  0  0  0
   10.3544   -4.8108  -10.5911 C   0  0  0  0  0  0  0  0  0  0  0  0
    9.3930   -4.1708   -9.8212 C   0  0  0  0  0  0  0  0  0  0  0  0
    8.4950   -3.3473  -10.4886 C   0  0  0  0  0  0  0  0  0  0  0  0
    7.1980   -2.4277   -9.6763 Cl  0  0  0  0  0  0  0  0  0  0  0  0
   14.6036   -8.6165  -10.3623 C   0  0  0  0  0  0  0  0  0  0  0  0
   14.1793   -9.7275  -10.6982 O   0  0  0  0  0  0  0  0  0  0  0  0
   15.8628   -8.4815  -10.0012 O   0  0  0  0  0  0  0  0  0  0  0  0
   16.1894   -7.6412   -9.7457 H   0  0  0  0  0  0  0  0  0  0  0  0
   11.8085   -5.4156  -13.9896 C   0  0  0  0  0  0  0  0  0  0  0  0
   12.9741   -3.3925  -13.8998 O   0  0  0  0  0  0  0  0  0  0  0  0
   12.9597   -4.5260  -14.3556 C   0  0  0  0  0  0  0  0  0  0  0  0
   13.9283   -5.0017  -15.1451 N   0  0  0  0  0  0  0  0  0  0  0  0
   14.6887   -4.4271  -15.3920 H   0  0  0  0  0  0  0  0  0  0  0  0
   13.8811   -5.9264  -15.4796 H   0  0  0  0  0  0  0  0  0  0  0  0
 20 21  2  0  0  0
 19 21  1  0  0  0
 19  1  1  0  0  0
 21 22  1  0  0  0
  3  2  2  0  0  0
  3  4  1  0  0  0
  1  2  1  0  0  0
  1  5  1  0  0  0
  2 11  1  0  0  0
  4 13  2  0  0  0
  6  5  1  0  0  0
  6  7  1  0  0  0
  5 10  2  0  0  0
 13 14  1  0  0  0
 13 12  1  0  0  0
 11 10  1  0  0  0
 11 12  2  0  0  0
  7 15  1  0  0  0
  7  8  1  0  0  0
 10  9  1  0  0  0
 16 15  2  0  0  0
 15 17  1  0  0  0
  9  8  1  0  0  0
 22 23  1  0  0  0
 22 24  1  0  0  0
 17 18  1  0  0  0
M  END
> <minimizedAffinity>
-5.77460

$$$$
4OVG_2VF_A_401


 24 26  0  0  0  0  0  0  0  0999 V2000
   11.8798   -5.8195  -11.1220 N   0  0  0  0  0  0  0  0  0  0  0  0
   12.5490   -5.9013  -12.2861 C   0  0  0  0  0  0  0  0  0  0  0  0
   13.6752   -6.6114  -12.6694 C   0  0  0  0  0  0  0  0  0  0  0  0
   14.1361   -6.4958  -13.9730 C   0  0  0  0  0  0  0  0  0  0  0  0
   10.8154   -5.0072  -11.2388 C   0  0  0  0  0  0  0  0  0  0  0  0
    9.8194   -4.6528  -10.1686 C   0  0  0  0  0  0  0  0  0  0  0  0
    8.8924   -3.5346  -10.6812 C   0  0  0  0  0  0  0  0  0  0  0  0
    8.5052   -3.6820  -12.1544 C   0  0  0  0  0  0  0  0  0  0  0  0
    9.6885   -3.5378  -13.1016 C   0  0  0  0  0  0  0  0  0  0  0  0
   10.7482   -4.4681  -12.6130 C   0  0  0  0  0  0  0  0  0  0  0  0
   11.8874   -5.0661  -13.3178 C   0  0  0  0  0  0  0  0  0  0  0  0
   12.3652   -4.9802  -14.6182 C   0  0  0  0  0  0  0  0  0  0  0  0
   13.5046   -5.7146  -14.9221 C   0  0  0  0  0  0  0  0  0  0  0  0
   14.2802   -5.7248  -16.5303 Cl  0  0  0  0  0  0  0  0  0  0  0  0
    7.6042   -3.4524   -9.9058 C   0  0  0  0  0  0  0  0  0  0  0  0
    7.4973   -2.9685   -8.7738 O   0  0  0  0  0  0  0  0  0  0  0  0
    6.5383   -3.9307  -10.5136 O   0  0  0  0  0  0  0  0  0  0  0  0
    6.6141   -4.2987  -11.3720 H   0  0  0  0  0  0  0  0  0  0  0  0
   12.2813   -6.5085   -9.8835 C   0  0  0  0  0  0  0  0  0  0  0  0
   10.9041   -8.3486  -10.3038 O   0  0  0  0  0  0  0  0  0  0  0  0
   11.9849   -7.9790   -9.8700 C   0  0  0  0  0  0  0  0  0  0  0  0
   12.9074   -8.8277   -9.4049 N   0  0  0  0  0  0  0  0  0  0  0  0
   12.7241   -9.7949   -9.3912 H   0  0  0  0  0  0  0  0  0  0  0  0
   13.7701   -8.4854   -9.0763 H   0  0  0  0  0  0  0  0  0  0  0  0
 20 21  2  0  0  0
 19 21  1  0  0  0
 19  1  1  0  0  0
 21 22  1  0  0  0
  3  2  2  0  0  0
  3  4  1  0  0  0
  1  2  1  0  0  0
  1  5  1  0  0  0
  2 11  1  0  0  0
  4 13  2  0  0  0
  6  5  1  0  0  0
  6  7  1  0  0  0
  5 10  2  0  0  0
 13 14  1  0  0  0
 13 12  1  0  0  0
 11 10  1  0  0  0
 11 12  2  0  0  0
  7 15  1  0  0  0
  7  8  1  0  0  0
 10  9  1  0  0  0
 16 15  2  0  0  0
 15 17  1  0  0  0
  9  8  1  0  0  0
 22 23  1  0  0  0
 22 24  1  0  0  0
 17 18  1  0  0  0
M  END
> <minimizedAffinity>
-5.71708

$$$$
4OVG_2VF_A_401


 24 26  0  0  0  0  0  0  0  0999 V2000
   10.4331   -4.7754  -11.8553 N   0  0  0  0  0  0  0  0  0  0  0  0
    9.6206   -3.9337  -12.5194 C   0  0  0  0  0  0  0  0  0  0  0  0
    8.3460   -3.4602  -12.2539 C   0  0  0  0  0  0  0  0  0  0  0  0
    7.7550   -2.5743  -13.1433 C   0  0  0  0  0  0  0  0  0  0  0  0
   11.6037   -4.9179  -12.5002 C   0  0  0  0  0  0  0  0  0  0  0  0
   12.7726   -5.7698  -12.0868 C   0  0  0  0  0  0  0  0  0  0  0  0
   13.8151   -5.7945  -13.2204 C   0  0  0  0  0  0  0  0  0  0  0  0
   13.9831   -4.4505  -13.9327 C   0  0  0  0  0  0  0  0  0  0  0  0
   12.7367   -4.0153  -14.6913 C   0  0  0  0  0  0  0  0  0  0  0  0
   11.5957   -4.1039  -13.7335 C   0  0  0  0  0  0  0  0  0  0  0  0
   10.2886   -3.4380  -13.7474 C   0  0  0  0  0  0  0  0  0  0  0  0
    9.6761   -2.5416  -14.6122 C   0  0  0  0  0  0  0  0  0  0  0  0
    8.3941   -2.1208  -14.2818 C   0  0  0  0  0  0  0  0  0  0  0  0
    7.4355   -0.9849  -15.2710 Cl  0  0  0  0  0  0  0  0  0  0  0  0
   15.1833   -6.1972  -12.7373 C   0  0  0  0  0  0  0  0  0  0  0  0
   16.2442   -5.7418  -13.1778 O   0  0  0  0  0  0  0  0  0  0  0  0
   15.2092   -7.0917  -11.7710 O   0  0  0  0  0  0  0  0  0  0  0  0
   14.4075   -7.4401  -11.4336 H   0  0  0  0  0  0  0  0  0  0  0  0
   10.0711   -5.4653  -10.6053 C   0  0  0  0  0  0  0  0  0  0  0  0
   10.4987   -3.6241   -9.2317 O   0  0  0  0  0  0  0  0  0  0  0  0
   10.6291   -4.8316   -9.3653 C   0  0  0  0  0  0  0  0  0  0  0  0
   11.2286   -5.6010   -8.4509 N   0  0  0  0  0  0  0  0  0  0  0  0
   11.5986   -5.1963   -7.6332 H   0  0  0  0  0  0  0  0  0  0  0  0
   11.3001   -6.5723   -8.5952 H   0  0  0  0  0  0  0  0  0  0  0  0
 20 21  2  0  0  0
 19 21  1  0  0  0
 19  1  1  0  0  0
 21 22  1  0  0  0
  3  2  2  0  0  0
  3  4  1  0  0  0
  1  2  1  0  0  0
  1  5  1  0  0  0
  2 11  1  0  0  0
  4 13  2  0  0  0
  6  5  1  0  0  0
  6  7  1  0  0  0
  5 10  2  0  0  0
 13 14  1  0  0  0
 13 12  1  0  0  0
 11 10  1  0  0  0
 11 12  2  0  0  0
  7 15  1  0  0  0
  7  8  1  0  0  0
 10  9  1  0  0  0
 16 15  2  0  0  0
 15 17  1  0  0  0
  9  8  1  0  0  0
 22 23  1  0  0  0
 22 24  1  0  0  0
 17 18  1  0  0  0
M  END
> <minimizedAffinity>
-5.59821

$$$$
4OVG_2VF_A_401


 24 26  0  0  0  0  0  0  0  0999 V2000
   10.9515   -5.4952  -11.2784 N   0  0  0  0  0  0  0  0  0  0  0  0
   12.0278   -6.2075  -10.8991 C   0  0  0  0  0  0  0  0  0  0  0  0
   12.2973   -6.9659   -9.7715 C   0  0  0  0  0  0  0  0  0  0  0  0
   13.5240   -7.6053   -9.6641 C   0  0  0  0  0  0  0  0  0  0  0  0
   11.1479   -4.9390  -12.4861 C   0  0  0  0  0  0  0  0  0  0  0  0
   10.1898   -4.0704  -13.2546 C   0  0  0  0  0  0  0  0  0  0  0  0
   10.9036   -3.4873  -14.4887 C   0  0  0  0  0  0  0  0  0  0  0  0
   11.8570   -4.4708  -15.1712 C   0  0  0  0  0  0  0  0  0  0  0  0
   13.0455   -4.8544  -14.3003 C   0  0  0  0  0  0  0  0  0  0  0  0
   12.4930   -5.2929  -12.9851 C   0  0  0  0  0  0  0  0  0  0  0  0
   13.0786   -6.1446  -11.9440 C   0  0  0  0  0  0  0  0  0  0  0  0
   14.2921   -6.8057  -11.8135 C   0  0  0  0  0  0  0  0  0  0  0  0
   14.4905   -7.5378  -10.6496 C   0  0  0  0  0  0  0  0  0  0  0  0
   15.9862   -8.4435  -10.2886 Cl  0  0  0  0  0  0  0  0  0  0  0  0
    9.9388   -3.0216  -15.5469 C   0  0  0  0  0  0  0  0  0  0  0  0
    9.6977   -3.6331  -16.5933 O   0  0  0  0  0  0  0  0  0  0  0  0
    9.3216   -1.8850  -15.2990 O   0  0  0  0  0  0  0  0  0  0  0  0
    9.5009   -1.4175  -14.5069 H   0  0  0  0  0  0  0  0  0  0  0  0
    9.7364   -5.3292  -10.4626 C   0  0  0  0  0  0  0  0  0  0  0  0
   10.7174   -3.5480   -9.3118 O   0  0  0  0  0  0  0  0  0  0  0  0
    9.6691   -4.0333   -9.7099 C   0  0  0  0  0  0  0  0  0  0  0  0
    8.4814   -3.4506   -9.5161 N   0  0  0  0  0  0  0  0  0  0  0  0
    8.4249   -2.6000   -9.0236 H   0  0  0  0  0  0  0  0  0  0  0  0
    7.6634   -3.8722   -9.8658 H   0  0  0  0  0  0  0  0  0  0  0  0
 20 21  2  0  0  0
 19 21  1  0  0  0
 19  1  1  0  0  0
 21 22  1  0  0  0
  3  2  2  0  0  0
  3  4  1  0  0  0
  1  2  1  0  0  0
  1  5  1  0  0  0
  2 11  1  0  0  0
  4 13  2  0  0  0
  6  5  1  0  0  0
  6  7  1  0  0  0
  5 10  2  0  0  0
 13 14  1  0  0  0
 13 12  1  0  0  0
 11 10  1  0  0  0
 11 12  2  0  0  0
  7 15  1  0  0  0
  7  8  1  0  0  0
 10  9  1  0  0  0
 16 15  2  0  0  0
 15 17  1  0  0  0
  9  8  1  0  0  0
 22 23  1  0  0  0
 22 24  1  0  0  0
 17 18  1  0  0  0
M  END
> <minimizedAffinity>
-5.56875

$$$$
4OVG_2VF_A_401


 24 26  0  0  0  0  0  0  0  0999 V2000
   12.4842   -6.8238  -11.5403 N   0  0  0  0  0  0  0  0  0  0  0  0
   11.2585   -6.2788  -11.4386 C   0  0  0  0  0  0  0  0  0  0  0  0
   10.1024   -6.6907  -10.7959 C   0  0  0  0  0  0  0  0  0  0  0  0
    8.9692   -5.8930  -10.8658 C   0  0  0  0  0  0  0  0  0  0  0  0
   13.3005   -6.0337  -12.2585 C   0  0  0  0  0  0  0  0  0  0  0  0
   14.7434   -6.2870  -12.6001 C   0  0  0  0  0  0  0  0  0  0  0  0
   15.2250   -5.2272  -13.6087 C   0  0  0  0  0  0  0  0  0  0  0  0
   14.6730   -3.8253  -13.3404 C   0  0  0  0  0  0  0  0  0  0  0  0
   13.1636   -3.7323  -13.5171 C   0  0  0  0  0  0  0  0  0  0  0  0
   12.5655   -4.8317  -12.7042 C   0  0  0  0  0  0  0  0  0  0  0  0
   11.2137   -4.9804  -12.1541 C   0  0  0  0  0  0  0  0  0  0  0  0
   10.0679   -4.1979  -12.1959 C   0  0  0  0  0  0  0  0  0  0  0  0
    8.9468   -4.6840  -11.5350 C   0  0  0  0  0  0  0  0  0  0  0  0
    7.3771   -3.8347  -11.4853 Cl  0  0  0  0  0  0  0  0  0  0  0  0
   16.7250   -5.0985  -13.6385 C   0  0  0  0  0  0  0  0  0  0  0  0
   17.3511   -4.1068  -13.2495 O   0  0  0  0  0  0  0  0  0  0  0  0
   17.3798   -6.1395  -14.1095 O   0  0  0  0  0  0  0  0  0  0  0  0
   16.9097   -6.8939  -14.4058 H   0  0  0  0  0  0  0  0  0  0  0  0
   12.8648   -8.1244  -10.9630 C   0  0  0  0  0  0  0  0  0  0  0  0
   14.6718   -7.7988   -9.5179 O   0  0  0  0  0  0  0  0  0  0  0  0
   13.4763   -8.0390   -9.5958 C   0  0  0  0  0  0  0  0  0  0  0  0
   12.7002   -8.2099   -8.5205 N   0  0  0  0  0  0  0  0  0  0  0  0
   13.0904   -8.1561   -7.6183 H   0  0  0  0  0  0  0  0  0  0  0  0
   11.7386   -8.3897   -8.6311 H   0  0  0  0  0  0  0  0  0  0  0  0
 20 21  2  0  0  0
 19 21  1  0  0  0
 19  1  1  0  0  0
 21 22  1  0  0  0
  3  2  2  0  0  0
  3  4  1  0  0  0
  1  2  1  0  0  0
  1  5  1  0  0  0
  2 11  1  0  0  0
  4 13  2  0  0  0
  6  5  1  0  0  0
  6  7  1  0  0  0
  5 10  2  0  0  0
 13 14  1  0  0  0
 13 12  1  0  0  0
 11 10  1  0  0  0
 11 12  2  0  0  0
  7 15  1  0  0  0
  7  8  1  0  0  0
 10  9  1  0  0  0
 16 15  2  0  0  0
 15 17  1  0  0  0
  9  8  1  0  0  0
 22 23  1  0  0  0
 22 24  1  0  0  0
 17 18  1  0  0  0
M  END
> <minimizedAffinity>
-5.48786

$$$$
4OVG_2VF_A_401


 24 26  0  0  0  0  0  0  0  0999 V2000
   10.8535   -4.7571  -13.8509 N   0  0  0  0  0  0  0  0  0  0  0  0
   11.1067   -5.1508  -12.5897 C   0  0  0  0  0  0  0  0  0  0  0  0
   12.0914   -5.9567  -12.0416 C   0  0  0  0  0  0  0  0  0  0  0  0
   12.0980   -6.1794  -10.6721 C   0  0  0  0  0  0  0  0  0  0  0  0
    9.7847   -3.9432  -13.8919 C   0  0  0  0  0  0  0  0  0  0  0  0
    9.1807   -3.2948  -15.1075 C   0  0  0  0  0  0  0  0  0  0  0  0
    7.8524   -2.6178  -14.7207 C   0  0  0  0  0  0  0  0  0  0  0  0
    7.8838   -1.9369  -13.3506 C   0  0  0  0  0  0  0  0  0  0  0  0
    8.0583   -2.9173  -12.1988 C   0  0  0  0  0  0  0  0  0  0  0  0
    9.2412   -3.7651  -12.5293 C   0  0  0  0  0  0  0  0  0  0  0  0
   10.1200   -4.5527  -11.6579 C   0  0  0  0  0  0  0  0  0  0  0  0
   10.1597   -4.7842  -10.2898 C   0  0  0  0  0  0  0  0  0  0  0  0
   11.1716   -5.6110   -9.8184 C   0  0  0  0  0  0  0  0  0  0  0  0
   11.3825   -6.0412   -8.0984 Cl  0  0  0  0  0  0  0  0  0  0  0  0
    7.4307   -1.5659  -15.7123 C   0  0  0  0  0  0  0  0  0  0  0  0
    7.0658   -1.7998  -16.8694 O   0  0  0  0  0  0  0  0  0  0  0  0
    7.4569   -0.3238  -15.2755 O   0  0  0  0  0  0  0  0  0  0  0  0
    7.7329   -0.1411  -14.3988 H   0  0  0  0  0  0  0  0  0  0  0  0
   11.6304   -5.1864  -15.0264 C   0  0  0  0  0  0  0  0  0  0  0  0
   12.4664   -3.4708  -16.3745 O   0  0  0  0  0  0  0  0  0  0  0  0
   12.7040   -4.2249  -15.4428 C   0  0  0  0  0  0  0  0  0  0  0  0
   13.8646   -4.2130  -14.7792 N   0  0  0  0  0  0  0  0  0  0  0  0
   14.5764   -3.5864  -15.0435 H   0  0  0  0  0  0  0  0  0  0  0  0
   14.0073   -4.8310  -14.0262 H   0  0  0  0  0  0  0  0  0  0  0  0
 20 21  2  0  0  0
 19 21  1  0  0  0
 19  1  1  0  0  0
 21 22  1  0  0  0
  3  2  2  0  0  0
  3  4  1  0  0  0
  1  2  1  0  0  0
  1  5  1  0  0  0
  2 11  1  0  0  0
  4 13  2  0  0  0
  6  5  1  0  0  0
  6  7  1  0  0  0
  5 10  2  0  0  0
 13 14  1  0  0  0
 13 12  1  0  0  0
 11 10  1  0  0  0
 11 12  2  0  0  0
  7 15  1  0  0  0
  7  8  1  0  0  0
 10  9  1  0  0  0
 16 15  2  0  0  0
 15 17  1  0  0  0
  9  8  1  0  0  0
 22 23  1  0  0  0
 22 24  1  0  0  0
 17 18  1  0  0  0
M  END
> <minimizedAffinity>
-5.44381

$$$$
