4DJU_0KK_A_501


 22 24  0  0  0  0  0  0  0  0999 V2000
   22.2521   13.4711   22.2898 O   0  0  0  0  0  0  0  0  0  0  0  0
   22.2833   12.2706   22.4843 C   0  0  0  0  0  0  0  0  0  0  0  0
   21.8733   11.1444   21.4924 C   0  0  0  0  0  0  0  0  0  0  0  0
   22.1102    9.8962   22.2638 N   0  0  0  0  0  0  0  0  0  0  0  0
   22.5569   10.2486   23.4900 C   0  0  0  0  0  0  0  0  0  0  0  0
   22.6858   11.6609   23.6508 N   0  0  0  0  0  0  0  0  0  0  0  0
   22.8620    9.3995   24.4694 N   0  0  0  0  0  0  0  0  0  0  0  0
   23.1379   12.4018   24.8341 C   0  0  0  0  0  0  0  0  0  0  0  0
   21.9674    8.9776   21.9397 H   0  0  0  0  0  0  0  0  0  0  0  0
   22.7629    8.4301   24.3291 H   0  0  0  0  0  0  0  0  0  0  0  0
   20.3735   11.1570   21.1404 C   0  0  0  0  0  0  0  0  0  0  0  0
   19.4262   11.5915   22.0627 C   0  0  0  0  0  0  0  0  0  0  0  0
   18.0720   11.5933   21.7473 C   0  0  0  0  0  0  0  0  0  0  0  0
   17.6461   11.1611   20.5065 C   0  0  0  0  0  0  0  0  0  0  0  0
   18.5726   10.7408   19.5772 C   0  0  0  0  0  0  0  0  0  0  0  0
   19.9277   10.7408   19.8891 C   0  0  0  0  0  0  0  0  0  0  0  0
   22.7394   11.2749   20.2267 C   0  0  0  0  0  0  0  0  0  0  0  0
   22.8180   12.4768   19.5241 C   0  0  0  0  0  0  0  0  0  0  0  0
   23.6262   12.5924   18.3951 C   0  0  0  0  0  0  0  0  0  0  0  0
   24.3710   11.5143   17.9589 C   0  0  0  0  0  0  0  0  0  0  0  0
   24.3036   10.3161   18.6434 C   0  0  0  0  0  0  0  0  0  0  0  0
   23.4892   10.1943   19.7679 C   0  0  0  0  0  0  0  0  0  0  0  0
 20 19  2  0  0  0
 20 21  1  0  0  0
 19 18  1  0  0  0
 21 22  2  0  0  0
 18 17  2  0  0  0
 13 12  2  0  0  0
 13 14  1  0  0  0
 22 17  1  0  0  0
 12 11  1  0  0  0
 17  3  1  0  0  0
 14 15  2  0  0  0
 11  3  1  0  0  0
 11 16  2  0  0  0
 15 16  1  0  0  0
  3  4  1  0  0  0
  3  2  1  0  0  0
  4  5  1  0  0  0
  1  2  2  0  0  0
  2  6  1  0  0  0
  5  6  1  0  0  0
  5  7  2  0  0  0
  6  8  1  0  0  0
  4  9  1  0  0  0
  7 10  1  0  0  0
M  END
> <minimizedAffinity>
-8.99894

$$$$
4DJU_0KK_A_501


 22 24  0  0  0  0  0  0  0  0999 V2000
   22.3994   10.1091   22.8218 O   0  0  0  0  0  0  0  0  0  0  0  0
   22.3763   11.3092   22.6242 C   0  0  0  0  0  0  0  0  0  0  0  0
   21.9334   12.0420   21.3253 C   0  0  0  0  0  0  0  0  0  0  0  0
   22.1198   13.4794   21.6542 N   0  0  0  0  0  0  0  0  0  0  0  0
   22.6052   13.5540   22.9137 C   0  0  0  0  0  0  0  0  0  0  0  0
   22.7571   12.2747   23.5283 N   0  0  0  0  0  0  0  0  0  0  0  0
   22.9149   14.6809   23.5518 N   0  0  0  0  0  0  0  0  0  0  0  0
   23.2511   11.9685   24.8758 C   0  0  0  0  0  0  0  0  0  0  0  0
   21.9248   14.2407   21.0612 H   0  0  0  0  0  0  0  0  0  0  0  0
   22.7995   15.5490   23.1020 H   0  0  0  0  0  0  0  0  0  0  0  0
   22.8471   11.7524   20.1192 C   0  0  0  0  0  0  0  0  0  0  0  0
   23.2777   12.7801   19.2854 C   0  0  0  0  0  0  0  0  0  0  0  0
   24.0944   12.5161   18.1914 C   0  0  0  0  0  0  0  0  0  0  0  0
   24.4917   11.2223   17.9159 C   0  0  0  0  0  0  0  0  0  0  0  0
   24.0853   10.1954   18.7398 C   0  0  0  0  0  0  0  0  0  0  0  0
   23.2709   10.4570   19.8362 C   0  0  0  0  0  0  0  0  0  0  0  0
   20.4760   11.6507   21.0216 C   0  0  0  0  0  0  0  0  0  0  0  0
   20.1152   11.1022   19.7913 C   0  0  0  0  0  0  0  0  0  0  0  0
   18.7981   10.7261   19.5361 C   0  0  0  0  0  0  0  0  0  0  0  0
   17.8283   10.8850   20.5064 C   0  0  0  0  0  0  0  0  0  0  0  0
   18.1693   11.4278   21.7302 C   0  0  0  0  0  0  0  0  0  0  0  0
   19.4841   11.8134   21.9859 C   0  0  0  0  0  0  0  0  0  0  0  0
 20 19  2  0  0  0
 20 21  1  0  0  0
 19 18  1  0  0  0
 21 22  2  0  0  0
 18 17  2  0  0  0
 13 12  2  0  0  0
 13 14  1  0  0  0
 22 17  1  0  0  0
 12 11  1  0  0  0
 17  3  1  0  0  0
 14 15  2  0  0  0
 11  3  1  0  0  0
 11 16  2  0  0  0
 15 16  1  0  0  0
  3  4  1  0  0  0
  3  2  1  0  0  0
  4  5  1  0  0  0
  1  2  2  0  0  0
  2  6  1  0  0  0
  5  6  1  0  0  0
  5  7  2  0  0  0
  6  8  1  0  0  0
  4  9  1  0  0  0
  7 10  1  0  0  0
M  END
> <minimizedAffinity>
-8.13393

$$$$
4DJU_0KK_A_501


 22 24  0  0  0  0  0  0  0  0999 V2000
   20.3533   11.9787   21.2967 O   0  0  0  0  0  0  0  0  0  0  0  0
   21.2890   11.6647   22.0078 C   0  0  0  0  0  0  0  0  0  0  0  0
   22.7203   12.2743   22.0055 C   0  0  0  0  0  0  0  0  0  0  0  0
   23.4288   11.5065   23.0627 N   0  0  0  0  0  0  0  0  0  0  0  0
   22.5602   10.6012   23.5661 C   0  0  0  0  0  0  0  0  0  0  0  0
   21.2667   10.6783   22.9675 N   0  0  0  0  0  0  0  0  0  0  0  0
   22.8396    9.7188   24.5234 N   0  0  0  0  0  0  0  0  0  0  0  0
   20.0823    9.8623   23.2586 C   0  0  0  0  0  0  0  0  0  0  0  0
   24.3631   11.6343   23.3455 H   0  0  0  0  0  0  0  0  0  0  0  0
   23.7413    9.6891   24.9176 H   0  0  0  0  0  0  0  0  0  0  0  0
   23.4905   12.0190   20.6960 C   0  0  0  0  0  0  0  0  0  0  0  0
   24.7281   11.3825   20.7068 C   0  0  0  0  0  0  0  0  0  0  0  0
   25.4267   11.1614   19.5251 C   0  0  0  0  0  0  0  0  0  0  0  0
   24.8985   11.5731   18.3171 C   0  0  0  0  0  0  0  0  0  0  0  0
   23.6680   12.1924   18.2879 C   0  0  0  0  0  0  0  0  0  0  0  0
   22.9659   12.4121   19.4679 C   0  0  0  0  0  0  0  0  0  0  0  0
   22.6049   13.7818   22.2943 C   0  0  0  0  0  0  0  0  0  0  0  0
   21.6191   14.2829   23.1438 C   0  0  0  0  0  0  0  0  0  0  0  0
   21.5402   15.6462   23.4202 C   0  0  0  0  0  0  0  0  0  0  0  0
   22.4474   16.5237   22.8596 C   0  0  0  0  0  0  0  0  0  0  0  0
   23.4295   16.0435   22.0150 C   0  0  0  0  0  0  0  0  0  0  0  0
   23.5060   14.6814   21.7293 C   0  0  0  0  0  0  0  0  0  0  0  0
 20 19  2  0  0  0
 20 21  1  0  0  0
 19 18  1  0  0  0
 21 22  2  0  0  0
 18 17  2  0  0  0
 13 12  2  0  0  0
 13 14  1  0  0  0
 22 17  1  0  0  0
 12 11  1  0  0  0
 17  3  1  0  0  0
 14 15  2  0  0  0
 11  3  1  0  0  0
 11 16  2  0  0  0
 15 16  1  0  0  0
  3  4  1  0  0  0
  3  2  1  0  0  0
  4  5  1  0  0  0
  1  2  2  0  0  0
  2  6  1  0  0  0
  5  6  1  0  0  0
  5  7  2  0  0  0
  6  8  1  0  0  0
  4  9  1  0  0  0
  7 10  1  0  0  0
M  END
> <minimizedAffinity>
-7.83845

$$$$
4DJU_0KK_A_501


 22 24  0  0  0  0  0  0  0  0999 V2000
   17.0812    9.6483   24.0729 O   0  0  0  0  0  0  0  0  0  0  0  0
   16.6618   10.5138   23.3279 C   0  0  0  0  0  0  0  0  0  0  0  0
   17.2263   10.9118   21.9339 C   0  0  0  0  0  0  0  0  0  0  0  0
   16.3330   12.0166   21.4977 N   0  0  0  0  0  0  0  0  0  0  0  0
   15.4292   12.2277   22.4805 C   0  0  0  0  0  0  0  0  0  0  0  0
   15.5883   11.3363   23.5839 N   0  0  0  0  0  0  0  0  0  0  0  0
   14.4722   13.1533   22.4578 N   0  0  0  0  0  0  0  0  0  0  0  0
   14.7973   11.2701   24.8181 C   0  0  0  0  0  0  0  0  0  0  0  0
   16.3894   12.5068   20.6457 H   0  0  0  0  0  0  0  0  0  0  0  0
   14.3869   13.7543   21.6827 H   0  0  0  0  0  0  0  0  0  0  0  0
   18.6472   11.5039   21.9971 C   0  0  0  0  0  0  0  0  0  0  0  0
   19.1286   12.0844   23.1668 C   0  0  0  0  0  0  0  0  0  0  0  0
   20.4076   12.6272   23.2195 C   0  0  0  0  0  0  0  0  0  0  0  0
   21.2227   12.5974   22.1049 C   0  0  0  0  0  0  0  0  0  0  0  0
   20.7660   12.0140   20.9431 C   0  0  0  0  0  0  0  0  0  0  0  0
   19.4884   11.4677   20.8885 C   0  0  0  0  0  0  0  0  0  0  0  0
   17.1839    9.6722   21.0224 C   0  0  0  0  0  0  0  0  0  0  0  0
   16.0568    8.8531   20.9664 C   0  0  0  0  0  0  0  0  0  0  0  0
   16.0181    7.7488   20.1176 C   0  0  0  0  0  0  0  0  0  0  0  0
   17.0987    7.4535   19.3100 C   0  0  0  0  0  0  0  0  0  0  0  0
   18.2234    8.2545   19.3543 C   0  0  0  0  0  0  0  0  0  0  0  0
   18.2691    9.3549   20.2087 C   0  0  0  0  0  0  0  0  0  0  0  0
 20 19  2  0  0  0
 20 21  1  0  0  0
 19 18  1  0  0  0
 21 22  2  0  0  0
 18 17  2  0  0  0
 13 12  2  0  0  0
 13 14  1  0  0  0
 22 17  1  0  0  0
 12 11  1  0  0  0
 17  3  1  0  0  0
 14 15  2  0  0  0
 11  3  1  0  0  0
 11 16  2  0  0  0
 15 16  1  0  0  0
  3  4  1  0  0  0
  3  2  1  0  0  0
  4  5  1  0  0  0
  1  2  2  0  0  0
  2  6  1  0  0  0
  5  6  1  0  0  0
  5  7  2  0  0  0
  6  8  1  0  0  0
  4  9  1  0  0  0
  7 10  1  0  0  0
M  END
> <minimizedAffinity>
-7.51595

$$$$
4DJU_0KK_A_501


 22 24  0  0  0  0  0  0  0  0999 V2000
   21.3606   14.6206   22.7358 O   0  0  0  0  0  0  0  0  0  0  0  0
   21.8459   13.5193   22.9137 C   0  0  0  0  0  0  0  0  0  0  0  0
   22.0593   12.4012   21.8534 C   0  0  0  0  0  0  0  0  0  0  0  0
   22.6735   11.2940   22.6319 N   0  0  0  0  0  0  0  0  0  0  0  0
   22.7734   11.7006   23.9172 C   0  0  0  0  0  0  0  0  0  0  0  0
   22.3007   13.0323   24.1181 N   0  0  0  0  0  0  0  0  0  0  0  0
   23.2611   10.9700   24.9180 N   0  0  0  0  0  0  0  0  0  0  0  0
   22.2549   13.7999   25.3680 C   0  0  0  0  0  0  0  0  0  0  0  0
   22.9567   10.4211   22.2754 H   0  0  0  0  0  0  0  0  0  0  0  0
   23.5799   10.0540   24.7489 H   0  0  0  0  0  0  0  0  0  0  0  0
   20.7425   11.8463   21.2776 C   0  0  0  0  0  0  0  0  0  0  0  0
   20.6971   11.2928   20.0015 C   0  0  0  0  0  0  0  0  0  0  0  0
   19.5059   10.8013   19.4793 C   0  0  0  0  0  0  0  0  0  0  0  0
   18.3444   10.8560   20.2246 C   0  0  0  0  0  0  0  0  0  0  0  0
   18.3754   11.3884   21.4951 C   0  0  0  0  0  0  0  0  0  0  0  0
   19.5659   11.8780   22.0210 C   0  0  0  0  0  0  0  0  0  0  0  0
   22.9597   12.9587   20.7363 C   0  0  0  0  0  0  0  0  0  0  0  0
   22.9885   12.3746   19.4704 C   0  0  0  0  0  0  0  0  0  0  0  0
   23.7864   12.9034   18.4580 C   0  0  0  0  0  0  0  0  0  0  0  0
   24.5578   14.0244   18.6936 C   0  0  0  0  0  0  0  0  0  0  0  0
   24.5413   14.6145   19.9426 C   0  0  0  0  0  0  0  0  0  0  0  0
   23.7511   14.0829   20.9604 C   0  0  0  0  0  0  0  0  0  0  0  0
 20 19  2  0  0  0
 20 21  1  0  0  0
 19 18  1  0  0  0
 21 22  2  0  0  0
 18 17  2  0  0  0
 13 12  2  0  0  0
 13 14  1  0  0  0
 22 17  1  0  0  0
 12 11  1  0  0  0
 17  3  1  0  0  0
 14 15  2  0  0  0
 11  3  1  0  0  0
 11 16  2  0  0  0
 15 16  1  0  0  0
  3  4  1  0  0  0
  3  2  1  0  0  0
  4  5  1  0  0  0
  1  2  2  0  0  0
  2  6  1  0  0  0
  5  6  1  0  0  0
  5  7  2  0  0  0
  6  8  1  0  0  0
  4  9  1  0  0  0
  7 10  1  0  0  0
M  END
> <minimizedAffinity>
-7.46978

$$$$
4DJU_0KK_A_501


 22 24  0  0  0  0  0  0  0  0999 V2000
   18.8373   13.8825   23.9147 O   0  0  0  0  0  0  0  0  0  0  0  0
   19.1204   12.7553   24.2741 C   0  0  0  0  0  0  0  0  0  0  0  0
   18.8736   11.4293   23.4987 C   0  0  0  0  0  0  0  0  0  0  0  0
   19.4080   10.3858   24.4122 N   0  0  0  0  0  0  0  0  0  0  0  0
   19.8613   11.0055   25.5248 C   0  0  0  0  0  0  0  0  0  0  0  0
   19.7177   12.4245   25.4692 N   0  0  0  0  0  0  0  0  0  0  0  0
   20.3978   10.3947   26.5795 N   0  0  0  0  0  0  0  0  0  0  0  0
   20.0959   13.4151   26.4836 C   0  0  0  0  0  0  0  0  0  0  0  0
   19.4283    9.4170   24.2382 H   0  0  0  0  0  0  0  0  0  0  0  0
   20.4838    9.4140   26.5892 H   0  0  0  0  0  0  0  0  0  0  0  0
   17.3802   11.1069   23.3007 C   0  0  0  0  0  0  0  0  0  0  0  0
   16.8457    9.8981   23.7367 C   0  0  0  0  0  0  0  0  0  0  0  0
   15.4997    9.6042   23.5486 C   0  0  0  0  0  0  0  0  0  0  0  0
   14.6699   10.5137   22.9225 C   0  0  0  0  0  0  0  0  0  0  0  0
   15.1806   11.7207   22.4972 C   0  0  0  0  0  0  0  0  0  0  0  0
   16.5257   12.0184   22.6868 C   0  0  0  0  0  0  0  0  0  0  0  0
   19.6047   11.5155   22.1470 C   0  0  0  0  0  0  0  0  0  0  0  0
   20.7983   12.2239   22.0134 C   0  0  0  0  0  0  0  0  0  0  0  0
   21.4665   12.2732   20.7918 C   0  0  0  0  0  0  0  0  0  0  0  0
   20.9569   11.6106   19.6925 C   0  0  0  0  0  0  0  0  0  0  0  0
   19.7748   10.9050   19.8079 C   0  0  0  0  0  0  0  0  0  0  0  0
   19.0990   10.8609   21.0261 C   0  0  0  0  0  0  0  0  0  0  0  0
 20 19  2  0  0  0
 20 21  1  0  0  0
 19 18  1  0  0  0
 21 22  2  0  0  0
 18 17  2  0  0  0
 13 12  2  0  0  0
 13 14  1  0  0  0
 22 17  1  0  0  0
 12 11  1  0  0  0
 17  3  1  0  0  0
 14 15  2  0  0  0
 11  3  1  0  0  0
 11 16  2  0  0  0
 15 16  1  0  0  0
  3  4  1  0  0  0
  3  2  1  0  0  0
  4  5  1  0  0  0
  1  2  2  0  0  0
  2  6  1  0  0  0
  5  6  1  0  0  0
  5  7  2  0  0  0
  6  8  1  0  0  0
  4  9  1  0  0  0
  7 10  1  0  0  0
M  END
> <minimizedAffinity>
-7.42308

$$$$
4DJU_0KK_A_501


 22 24  0  0  0  0  0  0  0  0999 V2000
   22.2222   11.2088   24.1831 O   0  0  0  0  0  0  0  0  0  0  0  0
   21.2417   11.9185   24.3056 C   0  0  0  0  0  0  0  0  0  0  0  0
   20.7166   12.9818   23.2987 C   0  0  0  0  0  0  0  0  0  0  0  0
   19.5110   13.5336   23.9704 N   0  0  0  0  0  0  0  0  0  0  0  0
   19.3823   12.9098   25.1628 C   0  0  0  0  0  0  0  0  0  0  0  0
   20.3927   11.9273   25.3889 N   0  0  0  0  0  0  0  0  0  0  0  0
   18.4254   13.1516   26.0566 N   0  0  0  0  0  0  0  0  0  0  0  0
   20.5697   11.0608   26.5599 C   0  0  0  0  0  0  0  0  0  0  0  0
   18.9134   14.2287   23.6114 H   0  0  0  0  0  0  0  0  0  0  0  0
   17.7416   13.8357   25.8728 H   0  0  0  0  0  0  0  0  0  0  0  0
   21.6822   14.1660   23.1024 C   0  0  0  0  0  0  0  0  0  0  0  0
   21.2430   15.4785   23.2478 C   0  0  0  0  0  0  0  0  0  0  0  0
   22.1132   16.5467   23.0608 C   0  0  0  0  0  0  0  0  0  0  0  0
   23.4336   16.3181   22.7260 C   0  0  0  0  0  0  0  0  0  0  0  0
   23.8875   15.0241   22.5917 C   0  0  0  0  0  0  0  0  0  0  0  0
   23.0200   13.9539   22.7812 C   0  0  0  0  0  0  0  0  0  0  0  0
   20.4242   12.2790   21.9608 C   0  0  0  0  0  0  0  0  0  0  0  0
   21.3704   12.2491   20.9369 C   0  0  0  0  0  0  0  0  0  0  0  0
   21.1063   11.5869   19.7399 C   0  0  0  0  0  0  0  0  0  0  0  0
   19.9001   10.9407   19.5532 C   0  0  0  0  0  0  0  0  0  0  0  0
   18.9517   10.9618   20.5575 C   0  0  0  0  0  0  0  0  0  0  0  0
   19.2089   11.6308   21.7529 C   0  0  0  0  0  0  0  0  0  0  0  0
 20 19  2  0  0  0
 20 21  1  0  0  0
 19 18  1  0  0  0
 21 22  2  0  0  0
 18 17  2  0  0  0
 13 12  2  0  0  0
 13 14  1  0  0  0
 22 17  1  0  0  0
 12 11  1  0  0  0
 17  3  1  0  0  0
 14 15  2  0  0  0
 11  3  1  0  0  0
 11 16  2  0  0  0
 15 16  1  0  0  0
  3  4  1  0  0  0
  3  2  1  0  0  0
  4  5  1  0  0  0
  1  2  2  0  0  0
  2  6  1  0  0  0
  5  6  1  0  0  0
  5  7  2  0  0  0
  6  8  1  0  0  0
  4  9  1  0  0  0
  7 10  1  0  0  0
M  END
> <minimizedAffinity>
-7.05925

$$$$
4DJU_0KK_A_501


 22 24  0  0  0  0  0  0  0  0999 V2000
   20.6892   15.2946   23.5768 O   0  0  0  0  0  0  0  0  0  0  0  0
   21.3397   14.3437   23.9676 C   0  0  0  0  0  0  0  0  0  0  0  0
   22.4051   13.5390   23.1692 C   0  0  0  0  0  0  0  0  0  0  0  0
   22.8566   12.5033   24.1349 N   0  0  0  0  0  0  0  0  0  0  0  0
   22.1557   12.6730   25.2782 C   0  0  0  0  0  0  0  0  0  0  0  0
   21.2497   13.7742   25.2174 N   0  0  0  0  0  0  0  0  0  0  0  0
   22.2731   11.9195   26.3699 N   0  0  0  0  0  0  0  0  0  0  0  0
   20.3347   14.2548   26.2592 C   0  0  0  0  0  0  0  0  0  0  0  0
   23.5430   11.8168   23.9712 H   0  0  0  0  0  0  0  0  0  0  0  0
   22.9068   11.1662   26.3823 H   0  0  0  0  0  0  0  0  0  0  0  0
   21.8195   12.7799   21.9633 C   0  0  0  0  0  0  0  0  0  0  0  0
   22.5707   12.5839   20.8083 C   0  0  0  0  0  0  0  0  0  0  0  0
   22.0376   11.9071   19.7170 C   0  0  0  0  0  0  0  0  0  0  0  0
   20.7471   11.4170   19.7649 C   0  0  0  0  0  0  0  0  0  0  0  0
   19.9950   11.5907   20.9062 C   0  0  0  0  0  0  0  0  0  0  0  0
   20.5268   12.2646   22.0002 C   0  0  0  0  0  0  0  0  0  0  0  0
   23.5136   14.5105   22.7257 C   0  0  0  0  0  0  0  0  0  0  0  0
   23.2325   15.6055   21.9093 C   0  0  0  0  0  0  0  0  0  0  0  0
   24.2383   16.4944   21.5357 C   0  0  0  0  0  0  0  0  0  0  0  0
   25.5330   16.3064   21.9780 C   0  0  0  0  0  0  0  0  0  0  0  0
   25.8282   15.2259   22.7866 C   0  0  0  0  0  0  0  0  0  0  0  0
   24.8264   14.3296   23.1551 C   0  0  0  0  0  0  0  0  0  0  0  0
 20 19  2  0  0  0
 20 21  1  0  0  0
 19 18  1  0  0  0
 21 22  2  0  0  0
 18 17  2  0  0  0
 13 12  2  0  0  0
 13 14  1  0  0  0
 22 17  1  0  0  0
 12 11  1  0  0  0
 17  3  1  0  0  0
 14 15  2  0  0  0
 11  3  1  0  0  0
 11 16  2  0  0  0
 15 16  1  0  0  0
  3  4  1  0  0  0
  3  2  1  0  0  0
  4  5  1  0  0  0
  1  2  2  0  0  0
  2  6  1  0  0  0
  5  6  1  0  0  0
  5  7  2  0  0  0
  6  8  1  0  0  0
  4  9  1  0  0  0
  7 10  1  0  0  0
M  END
> <minimizedAffinity>
-7.04263

$$$$
4DJU_0KK_A_501


 22 24  0  0  0  0  0  0  0  0999 V2000
   20.8060   13.9194   24.1731 O   0  0  0  0  0  0  0  0  0  0  0  0
   20.6063   12.7765   24.5391 C   0  0  0  0  0  0  0  0  0  0  0  0
   19.9583   11.6242   23.7190 C   0  0  0  0  0  0  0  0  0  0  0  0
   19.9657   10.4764   24.6632 N   0  0  0  0  0  0  0  0  0  0  0  0
   20.5040   10.9042   25.8271 C   0  0  0  0  0  0  0  0  0  0  0  0
   20.9113   12.2715   25.7826 N   0  0  0  0  0  0  0  0  0  0  0  0
   20.6618   10.1596   26.9197 N   0  0  0  0  0  0  0  0  0  0  0  0
   21.5300   13.0689   26.8479 C   0  0  0  0  0  0  0  0  0  0  0  0
   19.6374    9.5676   24.4748 H   0  0  0  0  0  0  0  0  0  0  0  0
   20.3711    9.2190   26.9206 H   0  0  0  0  0  0  0  0  0  0  0  0
   18.4816   11.8828   23.3643 C   0  0  0  0  0  0  0  0  0  0  0  0
   17.8608   11.1837   22.3335 C   0  0  0  0  0  0  0  0  0  0  0  0
   16.5306   11.4250   22.0080 C   0  0  0  0  0  0  0  0  0  0  0  0
   15.8031   12.3677   22.7077 C   0  0  0  0  0  0  0  0  0  0  0  0
   16.3991   13.0587   23.7401 C   0  0  0  0  0  0  0  0  0  0  0  0
   17.7283   12.8172   24.0697 C   0  0  0  0  0  0  0  0  0  0  0  0
   20.8005   11.3997   22.4503 C   0  0  0  0  0  0  0  0  0  0  0  0
   21.8284   10.4579   22.4211 C   0  0  0  0  0  0  0  0  0  0  0  0
   22.5670   10.2430   21.2594 C   0  0  0  0  0  0  0  0  0  0  0  0
   22.2843   10.9583   20.1124 C   0  0  0  0  0  0  0  0  0  0  0  0
   21.2697   11.8959   20.1251 C   0  0  0  0  0  0  0  0  0  0  0  0
   20.5345   12.1198   21.2879 C   0  0  0  0  0  0  0  0  0  0  0  0
 20 19  2  0  0  0
 20 21  1  0  0  0
 19 18  1  0  0  0
 21 22  2  0  0  0
 18 17  2  0  0  0
 13 12  2  0  0  0
 13 14  1  0  0  0
 22 17  1  0  0  0
 12 11  1  0  0  0
 17  3  1  0  0  0
 14 15  2  0  0  0
 11  3  1  0  0  0
 11 16  2  0  0  0
 15 16  1  0  0  0
  3  4  1  0  0  0
  3  2  1  0  0  0
  4  5  1  0  0  0
  1  2  2  0  0  0
  2  6  1  0  0  0
  5  6  1  0  0  0
  5  7  2  0  0  0
  6  8  1  0  0  0
  4  9  1  0  0  0
  7 10  1  0  0  0
M  END
> <minimizedAffinity>
-6.92375

$$$$
4DJU_0KK_A_501


 22 24  0  0  0  0  0  0  0  0999 V2000
   22.3012   13.3278   21.4233 O   0  0  0  0  0  0  0  0  0  0  0  0
   22.4523   12.1460   21.6694 C   0  0  0  0  0  0  0  0  0  0  0  0
   21.4490   11.1970   22.3856 C   0  0  0  0  0  0  0  0  0  0  0  0
   22.1614    9.8929   22.4145 N   0  0  0  0  0  0  0  0  0  0  0  0
   23.3698   10.0710   21.8354 C   0  0  0  0  0  0  0  0  0  0  0  0
   23.5708   11.4037   21.3655 N   0  0  0  0  0  0  0  0  0  0  0  0
   24.2993    9.1282   21.6924 N   0  0  0  0  0  0  0  0  0  0  0  0
   24.7493   11.9597   20.6906 C   0  0  0  0  0  0  0  0  0  0  0  0
   21.8153    9.0504   22.7883 H   0  0  0  0  0  0  0  0  0  0  0  0
   24.1321    8.2174   22.0267 H   0  0  0  0  0  0  0  0  0  0  0  0
   21.1888   11.5801   23.8549 C   0  0  0  0  0  0  0  0  0  0  0  0
   21.3231   12.8969   24.2851 C   0  0  0  0  0  0  0  0  0  0  0  0
   21.0975   13.2397   25.6136 C   0  0  0  0  0  0  0  0  0  0  0  0
   20.7347   12.2720   26.5299 C   0  0  0  0  0  0  0  0  0  0  0  0
   20.5841   10.9661   26.1172 C   0  0  0  0  0  0  0  0  0  0  0  0
   20.8062   10.6210   24.7885 C   0  0  0  0  0  0  0  0  0  0  0  0
   20.1385   11.1794   21.5784 C   0  0  0  0  0  0  0  0  0  0  0  0
   20.1216   10.8113   20.2335 C   0  0  0  0  0  0  0  0  0  0  0  0
   18.9261   10.7723   19.5189 C   0  0  0  0  0  0  0  0  0  0  0  0
   17.7340   11.0920   20.1386 C   0  0  0  0  0  0  0  0  0  0  0  0
   17.7338   11.4597   21.4702 C   0  0  0  0  0  0  0  0  0  0  0  0
   18.9289   11.5084   22.1859 C   0  0  0  0  0  0  0  0  0  0  0  0
 20 19  2  0  0  0
 20 21  1  0  0  0
 19 18  1  0  0  0
 21 22  2  0  0  0
 18 17  2  0  0  0
 13 12  2  0  0  0
 13 14  1  0  0  0
 22 17  1  0  0  0
 12 11  1  0  0  0
 17  3  1  0  0  0
 14 15  2  0  0  0
 11  3  1  0  0  0
 11 16  2  0  0  0
 15 16  1  0  0  0
  3  4  1  0  0  0
  3  2  1  0  0  0
  4  5  1  0  0  0
  1  2  2  0  0  0
  2  6  1  0  0  0
  5  6  1  0  0  0
  5  7  2  0  0  0
  6  8  1  0  0  0
  4  9  1  0  0  0
  7 10  1  0  0  0
M  END
> <minimizedAffinity>
-6.91207

$$$$
