5MPK_0BC_A_1201


 33 36  0  0  0  0  0  0  0  0999 V2000
   23.2496  -21.6912  -13.3135 C   0  0  0  0  0  0  0  0  0  0  0  0
   22.2499  -21.1504  -11.2042 C   0  0  0  0  0  0  0  0  0  0  0  0
   21.8296  -19.7643  -13.1442 C   0  0  0  0  0  0  0  0  0  0  0  0
   23.0848  -21.9759  -11.9586 C   0  0  0  0  0  0  0  0  0  0  0  0
   22.6443  -20.5923  -13.9105 C   0  0  0  0  0  0  0  0  0  0  0  0
   21.6280  -20.0370  -11.7972 C   0  0  0  0  0  0  0  0  0  0  0  0
   20.8318  -19.2176  -11.1037 C   0  0  0  0  0  0  0  0  0  0  0  0
   19.5648  -18.4557   -9.6311 N   0  0  0  0  0  0  0  0  0  0  0  0
   20.2553  -19.4853   -9.9356 N   0  0  0  0  0  0  0  0  0  0  0  0
   20.4517  -18.0033  -11.4985 N   0  0  0  0  0  0  0  0  0  0  0  0
   19.6916  -17.5418  -10.5946 N   0  0  0  0  0  0  0  0  0  0  0  0
   19.0243  -18.3524   -8.8147 H   0  0  0  0  0  0  0  0  0  0  0  0
   22.1195  -19.8808  -17.3263 C   0  0  0  0  0  0  0  0  0  0  0  0
   24.0449  -20.2704  -15.7838 C   0  0  0  0  0  0  0  0  0  0  0  0
   22.8298  -20.3271  -15.2128 C   0  0  0  0  0  0  0  0  0  0  0  0
   21.7886  -20.1229  -16.0476 N   0  0  0  0  0  0  0  0  0  0  0  0
   23.7882  -19.9402  -17.4239 S   0  0  0  0  0  0  0  0  0  0  0  0
   23.6947  -23.1387  -11.4190 C   0  0  0  0  0  0  0  0  0  0  0  0
   24.4189  -22.9799  -10.2876 N   0  0  0  0  0  0  0  0  0  0  0  0
   23.4856  -24.2427  -11.9487 O   0  0  0  0  0  0  0  0  0  0  0  0
   24.5452  -22.0790   -9.9114 H   0  0  0  0  0  0  0  0  0  0  0  0
   26.2676  -26.1925   -8.3978 C   0  0  0  0  0  0  0  0  0  0  0  0
   26.9642  -25.3876   -9.2940 C   0  0  0  0  0  0  0  0  0  0  0  0
   24.2755  -24.8780   -8.7703 C   0  0  0  0  0  0  0  0  0  0  0  0
   24.9153  -25.9533   -8.1383 C   0  0  0  0  0  0  0  0  0  0  0  0
   24.9738  -24.0535   -9.6658 C   0  0  0  0  0  0  0  0  0  0  0  0
   26.3244  -24.3103   -9.9110 C   0  0  0  0  0  0  0  0  0  0  0  0
   24.3176  -26.3965   -5.7468 C   0  0  0  0  0  0  0  0  0  0  0  0
   24.2385  -26.7725   -7.2285 C   0  0  0  0  0  0  0  0  0  0  0  0
   23.6240  -27.7857   -7.5756 O   0  0  0  0  0  0  0  0  0  0  0  0
   26.9749  -23.4788  -10.7861 O   0  0  0  0  0  0  0  0  0  0  0  0
   28.3201  -21.4563  -10.8231 C   0  0  0  0  0  0  0  0  0  0  0  0
   28.0964  -22.8253  -10.1761 C   0  0  0  0  0  0  0  0  0  0  0  0
 13 17  1  0  0  0
 13 16  2  0  0  0
 17 14  1  0  0  0
 16 15  1  0  0  0
 15 14  2  0  0  0
 15  5  1  0  0  0
 10 11  2  0  0  0
 10  7  1  0  0  0
 11  8  1  0  0  0
  3  5  2  0  0  0
  3  6  1  0  0  0
  5  1  1  0  0  0
  7  6  1  0  0  0
  7  9  2  0  0  0
  6  2  2  0  0  0
  8  9  1  0  0  0
  1  4  2  0  0  0
  2  4  1  0  0  0
  4 18  1  0  0  0
 18 20  2  0  0  0
 18 19  1  0  0  0
 19 26  1  0  0  0
 32 33  1  0  0  0
 31 27  1  0  0  0
 31 33  1  0  0  0
 26 24  2  0  0  0
 26 27  1  0  0  0
 24 25  1  0  0  0
 27 23  2  0  0  0
 28 29  1  0  0  0
 23 22  1  0  0  0
 25 22  2  0  0  0
 25 29  1  0  0  0
 29 30  2  0  0  0
  8 12  1  0  0  0
 19 21  1  0  0  0
M  END
> <minimizedAffinity>
-8.56396

$$$$
5MPK_0BC_A_1201


 33 36  0  0  0  0  0  0  0  0999 V2000
   23.7695  -20.6393  -14.2349 C   0  0  0  0  0  0  0  0  0  0  0  0
   22.3147  -20.0049  -16.0299 C   0  0  0  0  0  0  0  0  0  0  0  0
   24.5636  -20.7713  -16.4955 C   0  0  0  0  0  0  0  0  0  0  0  0
   22.5348  -20.1502  -14.6595 C   0  0  0  0  0  0  0  0  0  0  0  0
   24.7872  -20.9388  -15.1322 C   0  0  0  0  0  0  0  0  0  0  0  0
   23.3350  -20.3083  -16.9491 C   0  0  0  0  0  0  0  0  0  0  0  0
   23.1648  -20.1700  -18.2675 C   0  0  0  0  0  0  0  0  0  0  0  0
   22.4078  -19.5837  -20.1216 N   0  0  0  0  0  0  0  0  0  0  0  0
   22.2453  -19.4187  -18.8662 N   0  0  0  0  0  0  0  0  0  0  0  0
   23.8717  -20.8041  -19.2018 N   0  0  0  0  0  0  0  0  0  0  0  0
   23.4145  -20.4350  -20.3254 N   0  0  0  0  0  0  0  0  0  0  0  0
   21.8748  -19.1512  -20.8274 H   0  0  0  0  0  0  0  0  0  0  0  0
   28.2169  -21.2382  -14.3598 C   0  0  0  0  0  0  0  0  0  0  0  0
   26.1381  -22.6063  -14.1480 C   0  0  0  0  0  0  0  0  0  0  0  0
   25.9740  -21.3926  -14.7009 C   0  0  0  0  0  0  0  0  0  0  0  0
   27.0986  -20.6554  -14.8214 N   0  0  0  0  0  0  0  0  0  0  0  0
   27.7859  -22.7503  -13.7894 S   0  0  0  0  0  0  0  0  0  0  0  0
   21.5216  -19.9053  -13.6958 C   0  0  0  0  0  0  0  0  0  0  0  0
   21.7684  -18.9393  -12.7816 N   0  0  0  0  0  0  0  0  0  0  0  0
   20.4437  -20.5182  -13.7701 O   0  0  0  0  0  0  0  0  0  0  0  0
   22.6414  -18.4842  -12.7760 H   0  0  0  0  0  0  0  0  0  0  0  0
   18.9737  -17.9254   -9.8712 C   0  0  0  0  0  0  0  0  0  0  0  0
   19.9229  -18.9168   -9.6422 C   0  0  0  0  0  0  0  0  0  0  0  0
   19.8529  -17.6020  -12.0977 C   0  0  0  0  0  0  0  0  0  0  0  0
   18.9218  -17.2692  -11.1041 C   0  0  0  0  0  0  0  0  0  0  0  0
   20.8216  -18.5916  -11.8707 C   0  0  0  0  0  0  0  0  0  0  0  0
   20.8556  -19.2351  -10.6317 C   0  0  0  0  0  0  0  0  0  0  0  0
   17.6071  -15.9199  -12.7545 C   0  0  0  0  0  0  0  0  0  0  0  0
   17.9624  -16.2717  -11.3077 C   0  0  0  0  0  0  0  0  0  0  0  0
   17.4337  -15.6576  -10.3761 O   0  0  0  0  0  0  0  0  0  0  0  0
   21.8209  -20.1909  -10.4448 O   0  0  0  0  0  0  0  0  0  0  0  0
   22.3315  -22.4834  -11.0654 C   0  0  0  0  0  0  0  0  0  0  0  0
   21.2831  -21.5191  -10.5053 C   0  0  0  0  0  0  0  0  0  0  0  0
 13 17  1  0  0  0
 13 16  2  0  0  0
 17 14  1  0  0  0
 16 15  1  0  0  0
 15 14  2  0  0  0
 15  5  1  0  0  0
 10 11  2  0  0  0
 10  7  1  0  0  0
 11  8  1  0  0  0
  3  5  2  0  0  0
  3  6  1  0  0  0
  5  1  1  0  0  0
  7  6  1  0  0  0
  7  9  2  0  0  0
  6  2  2  0  0  0
  8  9  1  0  0  0
  1  4  2  0  0  0
  2  4  1  0  0  0
  4 18  1  0  0  0
 18 20  2  0  0  0
 18 19  1  0  0  0
 19 26  1  0  0  0
 32 33  1  0  0  0
 31 27  1  0  0  0
 31 33  1  0  0  0
 26 24  2  0  0  0
 26 27  1  0  0  0
 24 25  1  0  0  0
 27 23  2  0  0  0
 28 29  1  0  0  0
 23 22  1  0  0  0
 25 22  2  0  0  0
 25 29  1  0  0  0
 29 30  2  0  0  0
  8 12  1  0  0  0
 19 21  1  0  0  0
M  END
> <minimizedAffinity>
-8.50426

$$$$
5MPK_0BC_A_1201


 33 36  0  0  0  0  0  0  0  0999 V2000
   22.4591  -20.9536  -11.5554 C   0  0  0  0  0  0  0  0  0  0  0  0
   23.3143  -21.4786  -13.7311 C   0  0  0  0  0  0  0  0  0  0  0  0
   21.6644  -19.7278  -13.4590 C   0  0  0  0  0  0  0  0  0  0  0  0
   23.2851  -21.7373  -12.3601 C   0  0  0  0  0  0  0  0  0  0  0  0
   21.6421  -19.9639  -12.0878 C   0  0  0  0  0  0  0  0  0  0  0  0
   22.4953  -20.4769  -14.2824 C   0  0  0  0  0  0  0  0  0  0  0  0
   22.4876  -20.2093  -15.5918 C   0  0  0  0  0  0  0  0  0  0  0  0
   23.1166  -19.8080  -17.5406 N   0  0  0  0  0  0  0  0  0  0  0  0
   23.5556  -20.0857  -16.3745 N   0  0  0  0  0  0  0  0  0  0  0  0
   21.3961  -19.9798  -16.3204 N   0  0  0  0  0  0  0  0  0  0  0  0
   21.7843  -19.7480  -17.5050 N   0  0  0  0  0  0  0  0  0  0  0  0
   23.6729  -19.6614  -18.3395 H   0  0  0  0  0  0  0  0  0  0  0  0
   19.5945  -18.8701   -9.4307 C   0  0  0  0  0  0  0  0  0  0  0  0
   20.4063  -18.0052  -11.6287 C   0  0  0  0  0  0  0  0  0  0  0  0
   20.8421  -19.2323  -11.2970 C   0  0  0  0  0  0  0  0  0  0  0  0
   20.3982  -19.7027  -10.1119 N   0  0  0  0  0  0  0  0  0  0  0  0
   19.4158  -17.4890  -10.3570 S   0  0  0  0  0  0  0  0  0  0  0  0
   24.1285  -22.7023  -11.7496 C   0  0  0  0  0  0  0  0  0  0  0  0
   24.3581  -22.5619  -10.4238 N   0  0  0  0  0  0  0  0  0  0  0  0
   24.5535  -23.6574  -12.4206 O   0  0  0  0  0  0  0  0  0  0  0  0
   23.9893  -21.7852   -9.9442 H   0  0  0  0  0  0  0  0  0  0  0  0
   26.6993  -25.2591   -8.2900 C   0  0  0  0  0  0  0  0  0  0  0  0
   27.1953  -24.0133   -8.6616 C   0  0  0  0  0  0  0  0  0  0  0  0
   24.6054  -24.7472   -9.3805 C   0  0  0  0  0  0  0  0  0  0  0  0
   25.4062  -25.6419   -8.6571 C   0  0  0  0  0  0  0  0  0  0  0  0
   25.0933  -23.4839   -9.7483 C   0  0  0  0  0  0  0  0  0  0  0  0
   26.3884  -23.1216   -9.3716 C   0  0  0  0  0  0  0  0  0  0  0  0
   25.6801  -28.1287   -8.7768 C   0  0  0  0  0  0  0  0  0  0  0  0
   24.9279  -26.8971   -8.2661 C   0  0  0  0  0  0  0  0  0  0  0  0
   23.9197  -27.0362   -7.5671 O   0  0  0  0  0  0  0  0  0  0  0  0
   26.8271  -21.8766   -9.7428 O   0  0  0  0  0  0  0  0  0  0  0  0
   27.8167  -21.9968  -11.9580 C   0  0  0  0  0  0  0  0  0  0  0  0
   28.0733  -21.9331  -10.4505 C   0  0  0  0  0  0  0  0  0  0  0  0
 13 17  1  0  0  0
 13 16  2  0  0  0
 17 14  1  0  0  0
 16 15  1  0  0  0
 15 14  2  0  0  0
 15  5  1  0  0  0
 10 11  2  0  0  0
 10  7  1  0  0  0
 11  8  1  0  0  0
  3  5  2  0  0  0
  3  6  1  0  0  0
  5  1  1  0  0  0
  7  6  1  0  0  0
  7  9  2  0  0  0
  6  2  2  0  0  0
  8  9  1  0  0  0
  1  4  2  0  0  0
  2  4  1  0  0  0
  4 18  1  0  0  0
 18 20  2  0  0  0
 18 19  1  0  0  0
 19 26  1  0  0  0
 32 33  1  0  0  0
 31 27  1  0  0  0
 31 33  1  0  0  0
 26 24  2  0  0  0
 26 27  1  0  0  0
 24 25  1  0  0  0
 27 23  2  0  0  0
 28 29  1  0  0  0
 23 22  1  0  0  0
 25 22  2  0  0  0
 25 29  1  0  0  0
 29 30  2  0  0  0
  8 12  1  0  0  0
 19 21  1  0  0  0
M  END
> <minimizedAffinity>
-8.48389

$$$$
5MPK_0BC_A_1201


 33 36  0  0  0  0  0  0  0  0999 V2000
   23.1431  -21.3995  -13.0085 C   0  0  0  0  0  0  0  0  0  0  0  0
   22.1282  -20.7574  -10.9353 C   0  0  0  0  0  0  0  0  0  0  0  0
   21.5239  -19.6287  -12.9901 C   0  0  0  0  0  0  0  0  0  0  0  0
   23.0348  -21.5611  -11.6279 C   0  0  0  0  0  0  0  0  0  0  0  0
   22.4105  -20.4382  -13.6938 C   0  0  0  0  0  0  0  0  0  0  0  0
   21.3775  -19.7832  -11.6175 C   0  0  0  0  0  0  0  0  0  0  0  0
   20.5089  -18.9875  -10.9858 C   0  0  0  0  0  0  0  0  0  0  0  0
   19.1410  -18.2502   -9.5932 N   0  0  0  0  0  0  0  0  0  0  0  0
   19.8994  -19.2487   -9.8332 N   0  0  0  0  0  0  0  0  0  0  0  0
   20.0795  -17.8104  -11.4383 N   0  0  0  0  0  0  0  0  0  0  0  0
   19.2578  -17.3629  -10.5825 N   0  0  0  0  0  0  0  0  0  0  0  0
   18.5618  -18.1508   -8.8034 H   0  0  0  0  0  0  0  0  0  0  0  0
   23.7401  -20.1066  -16.9452 C   0  0  0  0  0  0  0  0  0  0  0  0
   21.4970  -20.1139  -15.8466 C   0  0  0  0  0  0  0  0  0  0  0  0
   22.5425  -20.2883  -15.0207 C   0  0  0  0  0  0  0  0  0  0  0  0
   23.7556  -20.2780  -15.6134 N   0  0  0  0  0  0  0  0  0  0  0  0
   22.1397  -19.9441  -17.4032 S   0  0  0  0  0  0  0  0  0  0  0  0
   23.7779  -22.5909  -10.9936 C   0  0  0  0  0  0  0  0  0  0  0  0
   25.1085  -22.3889  -10.8567 N   0  0  0  0  0  0  0  0  0  0  0  0
   23.1847  -23.5803  -10.5328 O   0  0  0  0  0  0  0  0  0  0  0  0
   25.5214  -21.5812  -11.2393 H   0  0  0  0  0  0  0  0  0  0  0  0
   27.5583  -25.1753   -8.9742 C   0  0  0  0  0  0  0  0  0  0  0  0
   27.3437  -25.2187  -10.3484 C   0  0  0  0  0  0  0  0  0  0  0  0
   26.0921  -23.2627   -8.8087 C   0  0  0  0  0  0  0  0  0  0  0  0
   26.9248  -24.2062   -8.1912 C   0  0  0  0  0  0  0  0  0  0  0  0
   25.8801  -23.2914  -10.1956 C   0  0  0  0  0  0  0  0  0  0  0  0
   26.5227  -24.2683  -10.9593 C   0  0  0  0  0  0  0  0  0  0  0  0
   28.1414  -25.2095   -6.2453 C   0  0  0  0  0  0  0  0  0  0  0  0
   27.1616  -24.1793   -6.8128 C   0  0  0  0  0  0  0  0  0  0  0  0
   26.5891  -23.3901   -6.0551 O   0  0  0  0  0  0  0  0  0  0  0  0
   26.2969  -24.2599  -12.3118 O   0  0  0  0  0  0  0  0  0  0  0  0
   24.3930  -24.9776  -13.6389 C   0  0  0  0  0  0  0  0  0  0  0  0
   25.5552  -25.4097  -12.7416 C   0  0  0  0  0  0  0  0  0  0  0  0
 13 17  1  0  0  0
 13 16  2  0  0  0
 17 14  1  0  0  0
 16 15  1  0  0  0
 15 14  2  0  0  0
 15  5  1  0  0  0
 10 11  2  0  0  0
 10  7  1  0  0  0
 11  8  1  0  0  0
  3  5  2  0  0  0
  3  6  1  0  0  0
  5  1  1  0  0  0
  7  6  1  0  0  0
  7  9  2  0  0  0
  6  2  2  0  0  0
  8  9  1  0  0  0
  1  4  2  0  0  0
  2  4  1  0  0  0
  4 18  1  0  0  0
 18 20  2  0  0  0
 18 19  1  0  0  0
 19 26  1  0  0  0
 32 33  1  0  0  0
 31 27  1  0  0  0
 31 33  1  0  0  0
 26 24  2  0  0  0
 26 27  1  0  0  0
 24 25  1  0  0  0
 27 23  2  0  0  0
 28 29  1  0  0  0
 23 22  1  0  0  0
 25 22  2  0  0  0
 25 29  1  0  0  0
 29 30  2  0  0  0
  8 12  1  0  0  0
 19 21  1  0  0  0
M  END
> <minimizedAffinity>
-8.40257

$$$$
5MPK_0BC_A_1201


 33 36  0  0  0  0  0  0  0  0999 V2000
   23.7802  -22.1710  -13.3601 C   0  0  0  0  0  0  0  0  0  0  0  0
   22.3135  -20.2764  -13.3822 C   0  0  0  0  0  0  0  0  0  0  0  0
   22.6932  -21.5009  -11.3284 C   0  0  0  0  0  0  0  0  0  0  0  0
   23.1556  -21.1486  -14.0733 C   0  0  0  0  0  0  0  0  0  0  0  0
   23.5504  -22.3645  -12.0035 C   0  0  0  0  0  0  0  0  0  0  0  0
   22.0755  -20.4588  -12.0081 C   0  0  0  0  0  0  0  0  0  0  0  0
   21.2661  -19.6511  -11.3161 C   0  0  0  0  0  0  0  0  0  0  0  0
   20.1128  -18.0077  -10.7474 N   0  0  0  0  0  0  0  0  0  0  0  0
   20.8411  -18.4503  -11.6978 N   0  0  0  0  0  0  0  0  0  0  0  0
   20.7848  -19.9073  -10.1006 N   0  0  0  0  0  0  0  0  0  0  0  0
   20.0763  -18.9105   -9.7659 N   0  0  0  0  0  0  0  0  0  0  0  0
   19.6512  -17.1382  -10.7399 H   0  0  0  0  0  0  0  0  0  0  0  0
   24.4304  -24.7546   -9.5616 C   0  0  0  0  0  0  0  0  0  0  0  0
   25.2095  -24.0346  -11.8228 C   0  0  0  0  0  0  0  0  0  0  0  0
   24.1492  -23.3653  -11.3397 C   0  0  0  0  0  0  0  0  0  0  0  0
   23.7318  -23.7499  -10.1147 N   0  0  0  0  0  0  0  0  0  0  0  0
   25.6352  -25.1721  -10.6439 S   0  0  0  0  0  0  0  0  0  0  0  0
   23.4666  -20.9770  -15.4478 C   0  0  0  0  0  0  0  0  0  0  0  0
   22.8432  -19.9650  -16.0936 N   0  0  0  0  0  0  0  0  0  0  0  0
   24.3323  -21.6952  -15.9749 O   0  0  0  0  0  0  0  0  0  0  0  0
   22.1689  -19.4259  -15.6204 H   0  0  0  0  0  0  0  0  0  0  0  0
   23.5867  -19.0919  -20.0929 C   0  0  0  0  0  0  0  0  0  0  0  0
   22.3742  -19.6434  -19.6907 C   0  0  0  0  0  0  0  0  0  0  0  0
   24.3643  -19.1415  -17.8064 C   0  0  0  0  0  0  0  0  0  0  0  0
   24.5963  -18.8486  -19.1575 C   0  0  0  0  0  0  0  0  0  0  0  0
   23.1397  -19.6860  -17.3903 C   0  0  0  0  0  0  0  0  0  0  0  0
   22.1446  -19.9216  -18.3415 C   0  0  0  0  0  0  0  0  0  0  0  0
   26.8426  -17.9472  -18.5137 C   0  0  0  0  0  0  0  0  0  0  0  0
   25.8041  -18.2876  -19.5855 C   0  0  0  0  0  0  0  0  0  0  0  0
   26.0355  -18.0327  -20.7713 O   0  0  0  0  0  0  0  0  0  0  0  0
   20.9592  -20.4473  -17.8958 O   0  0  0  0  0  0  0  0  0  0  0  0
   18.9843  -21.7681  -18.4023 C   0  0  0  0  0  0  0  0  0  0  0  0
   20.4087  -21.3956  -18.8204 C   0  0  0  0  0  0  0  0  0  0  0  0
 13 17  1  0  0  0
 13 16  2  0  0  0
 17 14  1  0  0  0
 16 15  1  0  0  0
 15 14  2  0  0  0
 15  5  1  0  0  0
 10 11  2  0  0  0
 10  7  1  0  0  0
 11  8  1  0  0  0
  3  5  2  0  0  0
  3  6  1  0  0  0
  5  1  1  0  0  0
  7  6  1  0  0  0
  7  9  2  0  0  0
  6  2  2  0  0  0
  8  9  1  0  0  0
  1  4  2  0  0  0
  2  4  1  0  0  0
  4 18  1  0  0  0
 18 20  2  0  0  0
 18 19  1  0  0  0
 19 26  1  0  0  0
 32 33  1  0  0  0
 31 27  1  0  0  0
 31 33  1  0  0  0
 26 24  2  0  0  0
 26 27  1  0  0  0
 24 25  1  0  0  0
 27 23  2  0  0  0
 28 29  1  0  0  0
 23 22  1  0  0  0
 25 22  2  0  0  0
 25 29  1  0  0  0
 29 30  2  0  0  0
  8 12  1  0  0  0
 19 21  1  0  0  0
M  END
> <minimizedAffinity>
-8.21872

$$$$
5MPK_0BC_A_1201


 33 36  0  0  0  0  0  0  0  0999 V2000
   22.2863  -20.2386  -13.2682 C   0  0  0  0  0  0  0  0  0  0  0  0
   23.8231  -22.0671  -13.0784 C   0  0  0  0  0  0  0  0  0  0  0  0
   22.6445  -21.2567  -11.1250 C   0  0  0  0  0  0  0  0  0  0  0  0
   23.2059  -21.0970  -13.8694 C   0  0  0  0  0  0  0  0  0  0  0  0
   22.0084  -20.2983  -11.9081 C   0  0  0  0  0  0  0  0  0  0  0  0
   23.5477  -22.1409  -11.7012 C   0  0  0  0  0  0  0  0  0  0  0  0
   24.1285  -23.0484  -10.9104 C   0  0  0  0  0  0  0  0  0  0  0  0
   24.4324  -24.7033   -9.6762 N   0  0  0  0  0  0  0  0  0  0  0  0
   23.5424  -24.1173  -10.3791 N   0  0  0  0  0  0  0  0  0  0  0  0
   25.3919  -23.0018  -10.4902 N   0  0  0  0  0  0  0  0  0  0  0  0
   25.5731  -24.0155   -9.7504 N   0  0  0  0  0  0  0  0  0  0  0  0
   24.2983  -25.5314   -9.1610 H   0  0  0  0  0  0  0  0  0  0  0  0
   19.6591  -18.8079   -9.7381 C   0  0  0  0  0  0  0  0  0  0  0  0
   20.7798  -18.2821  -11.9074 C   0  0  0  0  0  0  0  0  0  0  0  0
   21.1321  -19.4513  -11.3466 C   0  0  0  0  0  0  0  0  0  0  0  0
   20.5217  -19.7387  -10.1772 N   0  0  0  0  0  0  0  0  0  0  0  0
   19.6448  -17.5759  -10.8693 S   0  0  0  0  0  0  0  0  0  0  0  0
   23.4124  -21.0140  -15.2714 C   0  0  0  0  0  0  0  0  0  0  0  0
   22.6863  -20.0907  -15.9425 N   0  0  0  0  0  0  0  0  0  0  0  0
   24.2825  -21.7212  -15.8060 O   0  0  0  0  0  0  0  0  0  0  0  0
   22.0140  -19.5554  -15.4623 H   0  0  0  0  0  0  0  0  0  0  0  0
   23.1036  -19.4955  -20.0389 C   0  0  0  0  0  0  0  0  0  0  0  0
   21.9860  -20.1388  -19.5159 C   0  0  0  0  0  0  0  0  0  0  0  0
   24.0065  -19.2593  -17.8109 C   0  0  0  0  0  0  0  0  0  0  0  0
   24.1287  -19.0624  -19.1934 C   0  0  0  0  0  0  0  0  0  0  0  0
   22.8770  -19.8958  -17.2739 C   0  0  0  0  0  0  0  0  0  0  0  0
   21.8645  -20.3210  -18.1366 C   0  0  0  0  0  0  0  0  0  0  0  0
   25.1768  -18.0423  -21.2267 C   0  0  0  0  0  0  0  0  0  0  0  0
   25.2390  -18.4125  -19.7426 C   0  0  0  0  0  0  0  0  0  0  0  0
   26.2570  -18.1674  -19.0882 O   0  0  0  0  0  0  0  0  0  0  0  0
   20.7733  -20.9321  -17.5742 O   0  0  0  0  0  0  0  0  0  0  0  0
   18.9368  -22.3283  -18.3351 C   0  0  0  0  0  0  0  0  0  0  0  0
   19.6612  -20.9877  -18.4782 C   0  0  0  0  0  0  0  0  0  0  0  0
 13 17  1  0  0  0
 13 16  2  0  0  0
 17 14  1  0  0  0
 16 15  1  0  0  0
 15 14  2  0  0  0
 15  5  1  0  0  0
 10 11  2  0  0  0
 10  7  1  0  0  0
 11  8  1  0  0  0
  3  5  2  0  0  0
  3  6  1  0  0  0
  5  1  1  0  0  0
  7  6  1  0  0  0
  7  9  2  0  0  0
  6  2  2  0  0  0
  8  9  1  0  0  0
  1  4  2  0  0  0
  2  4  1  0  0  0
  4 18  1  0  0  0
 18 20  2  0  0  0
 18 19  1  0  0  0
 19 26  1  0  0  0
 32 33  1  0  0  0
 31 27  1  0  0  0
 31 33  1  0  0  0
 26 24  2  0  0  0
 26 27  1  0  0  0
 24 25  1  0  0  0
 27 23  2  0  0  0
 28 29  1  0  0  0
 23 22  1  0  0  0
 25 22  2  0  0  0
 25 29  1  0  0  0
 29 30  2  0  0  0
  8 12  1  0  0  0
 19 21  1  0  0  0
M  END
> <minimizedAffinity>
-8.13834

$$$$
5MPK_0BC_A_1201


 33 36  0  0  0  0  0  0  0  0999 V2000
   23.2003  -19.4732  -17.4224 C   0  0  0  0  0  0  0  0  0  0  0  0
   21.1396  -20.3874  -18.2342 C   0  0  0  0  0  0  0  0  0  0  0  0
   22.8601  -19.6893  -19.7879 C   0  0  0  0  0  0  0  0  0  0  0  0
   21.9326  -19.9893  -17.1570 C   0  0  0  0  0  0  0  0  0  0  0  0
   23.6671  -19.3074  -18.7206 C   0  0  0  0  0  0  0  0  0  0  0  0
   21.6018  -20.2287  -19.5530 C   0  0  0  0  0  0  0  0  0  0  0  0
   20.8658  -20.5872  -20.6094 C   0  0  0  0  0  0  0  0  0  0  0  0
   19.4557  -21.5416  -21.8158 N   0  0  0  0  0  0  0  0  0  0  0  0
   19.8764  -21.4757  -20.6123 N   0  0  0  0  0  0  0  0  0  0  0  0
   21.0371  -20.1357  -21.8511 N   0  0  0  0  0  0  0  0  0  0  0  0
   20.1705  -20.7107  -22.5764 N   0  0  0  0  0  0  0  0  0  0  0  0
   18.7205  -22.1147  -22.1324 H   0  0  0  0  0  0  0  0  0  0  0  0
   26.6012  -18.1394  -20.2941 C   0  0  0  0  0  0  0  0  0  0  0  0
   25.7170  -18.4050  -17.9734 C   0  0  0  0  0  0  0  0  0  0  0  0
   24.8843  -18.7931  -18.9541 C   0  0  0  0  0  0  0  0  0  0  0  0
   25.3645  -18.6556  -20.2084 N   0  0  0  0  0  0  0  0  0  0  0  0
   27.1270  -17.8561  -18.7318 S   0  0  0  0  0  0  0  0  0  0  0  0
   21.5321  -20.1747  -15.8077 C   0  0  0  0  0  0  0  0  0  0  0  0
   22.5165  -20.3520  -14.8969 N   0  0  0  0  0  0  0  0  0  0  0  0
   20.3290  -20.0953  -15.5087 O   0  0  0  0  0  0  0  0  0  0  0  0
   23.4536  -20.4014  -15.1945 H   0  0  0  0  0  0  0  0  0  0  0  0
   21.7543  -20.7858  -10.8300 C   0  0  0  0  0  0  0  0  0  0  0  0
   22.4668  -21.7509  -11.5350 C   0  0  0  0  0  0  0  0  0  0  0  0
   21.4943  -19.5002  -12.8585 C   0  0  0  0  0  0  0  0  0  0  0  0
   21.2509  -19.6597  -11.4873 C   0  0  0  0  0  0  0  0  0  0  0  0
   22.2228  -20.4624  -13.5746 C   0  0  0  0  0  0  0  0  0  0  0  0
   22.7165  -21.5802  -12.8984 C   0  0  0  0  0  0  0  0  0  0  0  0
   20.0487  -17.4626  -11.5081 C   0  0  0  0  0  0  0  0  0  0  0  0
   20.5433  -18.7004  -10.7553 C   0  0  0  0  0  0  0  0  0  0  0  0
   20.3427  -18.8049   -9.5415 O   0  0  0  0  0  0  0  0  0  0  0  0
   23.4298  -22.4947  -13.6301 O   0  0  0  0  0  0  0  0  0  0  0  0
   24.3519  -24.7352  -13.8065 C   0  0  0  0  0  0  0  0  0  0  0  0
   23.5093  -23.7669  -12.9727 C   0  0  0  0  0  0  0  0  0  0  0  0
 13 17  1  0  0  0
 13 16  2  0  0  0
 17 14  1  0  0  0
 16 15  1  0  0  0
 15 14  2  0  0  0
 15  5  1  0  0  0
 10 11  2  0  0  0
 10  7  1  0  0  0
 11  8  1  0  0  0
  3  5  2  0  0  0
  3  6  1  0  0  0
  5  1  1  0  0  0
  7  6  1  0  0  0
  7  9  2  0  0  0
  6  2  2  0  0  0
  8  9  1  0  0  0
  1  4  2  0  0  0
  2  4  1  0  0  0
  4 18  1  0  0  0
 18 20  2  0  0  0
 18 19  1  0  0  0
 19 26  1  0  0  0
 32 33  1  0  0  0
 31 27  1  0  0  0
 31 33  1  0  0  0
 26 24  2  0  0  0
 26 27  1  0  0  0
 24 25  1  0  0  0
 27 23  2  0  0  0
 28 29  1  0  0  0
 23 22  1  0  0  0
 25 22  2  0  0  0
 25 29  1  0  0  0
 29 30  2  0  0  0
  8 12  1  0  0  0
 19 21  1  0  0  0
M  END
> <minimizedAffinity>
-7.87388

$$$$
5MPK_0BC_A_1201


 33 36  0  0  0  0  0  0  0  0999 V2000
   22.2588  -20.9011  -11.1771 C   0  0  0  0  0  0  0  0  0  0  0  0
   23.3079  -21.5727  -13.2239 C   0  0  0  0  0  0  0  0  0  0  0  0
   21.7225  -19.7430  -13.2092 C   0  0  0  0  0  0  0  0  0  0  0  0
   23.1256  -21.7590  -11.8529 C   0  0  0  0  0  0  0  0  0  0  0  0
   21.5481  -19.9070  -11.8384 C   0  0  0  0  0  0  0  0  0  0  0  0
   22.5978  -20.5676  -13.9046 C   0  0  0  0  0  0  0  0  0  0  0  0
   22.7375  -20.3677  -15.2187 C   0  0  0  0  0  0  0  0  0  0  0  0
   22.3137  -19.9780  -17.2244 N   0  0  0  0  0  0  0  0  0  0  0  0
   21.7675  -20.0555  -16.0731 N   0  0  0  0  0  0  0  0  0  0  0  0
   23.8782  -20.4925  -15.8955 N   0  0  0  0  0  0  0  0  0  0  0  0
   23.6161  -20.2435  -17.1108 N   0  0  0  0  0  0  0  0  0  0  0  0
   21.8476  -19.7574  -18.0631 H   0  0  0  0  0  0  0  0  0  0  0  0
   19.3761  -18.5489   -9.4120 C   0  0  0  0  0  0  0  0  0  0  0  0
   20.2692  -17.9303  -11.6610 C   0  0  0  0  0  0  0  0  0  0  0  0
   20.7061  -19.1029  -11.1713 C   0  0  0  0  0  0  0  0  0  0  0  0
   20.2185  -19.4406   -9.9584 N   0  0  0  0  0  0  0  0  0  0  0  0
   19.2192  -17.2877  -10.4994 S   0  0  0  0  0  0  0  0  0  0  0  0
   23.8556  -22.7255  -11.1124 C   0  0  0  0  0  0  0  0  0  0  0  0
   25.1987  -22.5720  -11.0645 N   0  0  0  0  0  0  0  0  0  0  0  0
   23.2451  -23.6106  -10.4903 O   0  0  0  0  0  0  0  0  0  0  0  0
   25.6256  -21.8468  -11.5756 H   0  0  0  0  0  0  0  0  0  0  0  0
   27.6222  -25.1833   -8.9157 C   0  0  0  0  0  0  0  0  0  0  0  0
   27.3516  -25.3979  -10.2637 C   0  0  0  0  0  0  0  0  0  0  0  0
   26.2318  -23.2083   -8.9542 C   0  0  0  0  0  0  0  0  0  0  0  0
   27.0548  -24.0953   -8.2465 C   0  0  0  0  0  0  0  0  0  0  0  0
   25.9639  -23.4101  -10.3169 C   0  0  0  0  0  0  0  0  0  0  0  0
   26.5409  -24.5037  -10.9662 C   0  0  0  0  0  0  0  0  0  0  0  0
   28.7087  -24.3809   -6.3875 C   0  0  0  0  0  0  0  0  0  0  0  0
   27.3471  -23.8973   -6.8929 C   0  0  0  0  0  0  0  0  0  0  0  0
   26.5427  -23.3883   -6.1066 O   0  0  0  0  0  0  0  0  0  0  0  0
   26.2619  -24.6637  -12.2992 O   0  0  0  0  0  0  0  0  0  0  0  0
   27.5884  -25.7810  -14.0002 C   0  0  0  0  0  0  0  0  0  0  0  0
   27.4360  -24.5425  -13.1140 C   0  0  0  0  0  0  0  0  0  0  0  0
 13 17  1  0  0  0
 13 16  2  0  0  0
 17 14  1  0  0  0
 16 15  1  0  0  0
 15 14  2  0  0  0
 15  5  1  0  0  0
 10 11  2  0  0  0
 10  7  1  0  0  0
 11  8  1  0  0  0
  3  5  2  0  0  0
  3  6  1  0  0  0
  5  1  1  0  0  0
  7  6  1  0  0  0
  7  9  2  0  0  0
  6  2  2  0  0  0
  8  9  1  0  0  0
  1  4  2  0  0  0
  2  4  1  0  0  0
  4 18  1  0  0  0
 18 20  2  0  0  0
 18 19  1  0  0  0
 19 26  1  0  0  0
 32 33  1  0  0  0
 31 27  1  0  0  0
 31 33  1  0  0  0
 26 24  2  0  0  0
 26 27  1  0  0  0
 24 25  1  0  0  0
 27 23  2  0  0  0
 28 29  1  0  0  0
 23 22  1  0  0  0
 25 22  2  0  0  0
 25 29  1  0  0  0
 29 30  2  0  0  0
  8 12  1  0  0  0
 19 21  1  0  0  0
M  END
> <minimizedAffinity>
-7.86800

$$$$
5MPK_0BC_A_1201


 33 36  0  0  0  0  0  0  0  0999 V2000
   24.7864  -20.5423  -15.9083 C   0  0  0  0  0  0  0  0  0  0  0  0
   23.0488  -19.5743  -17.2442 C   0  0  0  0  0  0  0  0  0  0  0  0
   25.2734  -19.8585  -18.1562 C   0  0  0  0  0  0  0  0  0  0  0  0
   23.4660  -20.1098  -16.0249 C   0  0  0  0  0  0  0  0  0  0  0  0
   25.6951  -20.4122  -16.9512 C   0  0  0  0  0  0  0  0  0  0  0  0
   23.9575  -19.4407  -18.3093 C   0  0  0  0  0  0  0  0  0  0  0  0
   23.5972  -18.9216  -19.4870 C   0  0  0  0  0  0  0  0  0  0  0  0
   23.6641  -17.9566  -21.3359 N   0  0  0  0  0  0  0  0  0  0  0  0
   24.4024  -18.3275  -20.3628 N   0  0  0  0  0  0  0  0  0  0  0  0
   22.3512  -18.8796  -19.9565 N   0  0  0  0  0  0  0  0  0  0  0  0
   22.4005  -18.3025  -21.0845 N   0  0  0  0  0  0  0  0  0  0  0  0
   23.9776  -17.4893  -22.1438 H   0  0  0  0  0  0  0  0  0  0  0  0
   28.7825  -21.4636  -15.6050 C   0  0  0  0  0  0  0  0  0  0  0  0
   27.8037  -20.9772  -17.8508 C   0  0  0  0  0  0  0  0  0  0  0  0
   26.9660  -20.8199  -16.8120 C   0  0  0  0  0  0  0  0  0  0  0  0
   27.4966  -21.0766  -15.5973 N   0  0  0  0  0  0  0  0  0  0  0  0
   29.2861  -21.4706  -17.1999 S   0  0  0  0  0  0  0  0  0  0  0  0
   22.5757  -20.3113  -14.9377 C   0  0  0  0  0  0  0  0  0  0  0  0
   23.1324  -20.5243  -13.7233 N   0  0  0  0  0  0  0  0  0  0  0  0
   21.3511  -20.2134  -15.1217 O   0  0  0  0  0  0  0  0  0  0  0  0
   24.1113  -20.5869  -13.6394 H   0  0  0  0  0  0  0  0  0  0  0  0
   20.8392  -21.0455  -10.2913 C   0  0  0  0  0  0  0  0  0  0  0  0
   21.5398  -22.1069  -10.8561 C   0  0  0  0  0  0  0  0  0  0  0  0
   21.6322  -19.5907  -12.0491 C   0  0  0  0  0  0  0  0  0  0  0  0
   20.8685  -19.7826  -10.8894 C   0  0  0  0  0  0  0  0  0  0  0  0
   22.3519  -20.6525  -12.6182 C   0  0  0  0  0  0  0  0  0  0  0  0
   22.3087  -21.9063  -12.0046 C   0  0  0  0  0  0  0  0  0  0  0  0
   19.9281  -17.4753  -11.1442 C   0  0  0  0  0  0  0  0  0  0  0  0
   20.1611  -18.7301  -10.2989 C   0  0  0  0  0  0  0  0  0  0  0  0
   19.7606  -18.7704   -9.1317 O   0  0  0  0  0  0  0  0  0  0  0  0
   23.0306  -22.9170  -12.5856 O   0  0  0  0  0  0  0  0  0  0  0  0
   25.1250  -22.9596  -11.3556 C   0  0  0  0  0  0  0  0  0  0  0  0
   23.7902  -23.6596  -11.6220 C   0  0  0  0  0  0  0  0  0  0  0  0
 13 17  1  0  0  0
 13 16  2  0  0  0
 17 14  1  0  0  0
 16 15  1  0  0  0
 15 14  2  0  0  0
 15  5  1  0  0  0
 10 11  2  0  0  0
 10  7  1  0  0  0
 11  8  1  0  0  0
  3  5  2  0  0  0
  3  6  1  0  0  0
  5  1  1  0  0  0
  7  6  1  0  0  0
  7  9  2  0  0  0
  6  2  2  0  0  0
  8  9  1  0  0  0
  1  4  2  0  0  0
  2  4  1  0  0  0
  4 18  1  0  0  0
 18 20  2  0  0  0
 18 19  1  0  0  0
 19 26  1  0  0  0
 32 33  1  0  0  0
 31 27  1  0  0  0
 31 33  1  0  0  0
 26 24  2  0  0  0
 26 27  1  0  0  0
 24 25  1  0  0  0
 27 23  2  0  0  0
 28 29  1  0  0  0
 23 22  1  0  0  0
 25 22  2  0  0  0
 25 29  1  0  0  0
 29 30  2  0  0  0
  8 12  1  0  0  0
 19 21  1  0  0  0
M  END
> <minimizedAffinity>
-7.85369

$$$$
5MPK_0BC_A_1201


 33 36  0  0  0  0  0  0  0  0999 V2000
   23.0728  -21.3167  -14.2155 C   0  0  0  0  0  0  0  0  0  0  0  0
   21.3853  -19.7331  -13.5947 C   0  0  0  0  0  0  0  0  0  0  0  0
   22.5706  -20.9824  -11.8930 C   0  0  0  0  0  0  0  0  0  0  0  0
   22.1029  -20.3899  -14.5953 C   0  0  0  0  0  0  0  0  0  0  0  0
   23.3059  -21.6289  -12.8818 C   0  0  0  0  0  0  0  0  0  0  0  0
   21.6143  -20.0369  -12.2407 C   0  0  0  0  0  0  0  0  0  0  0  0
   20.9381  -19.4373  -11.2560 C   0  0  0  0  0  0  0  0  0  0  0  0
   19.8885  -18.0148  -10.1473 N   0  0  0  0  0  0  0  0  0  0  0  0
   20.4310  -18.2083  -11.2866 N   0  0  0  0  0  0  0  0  0  0  0  0
   20.6986  -19.9678  -10.0577 N   0  0  0  0  0  0  0  0  0  0  0  0
   20.0511  -19.1033   -9.3934 N   0  0  0  0  0  0  0  0  0  0  0  0
   19.4238  -17.1926   -9.8692 H   0  0  0  0  0  0  0  0  0  0  0  0
   25.3823  -23.8197  -11.0547 C   0  0  0  0  0  0  0  0  0  0  0  0
   25.0599  -23.1120  -13.4282 C   0  0  0  0  0  0  0  0  0  0  0  0
   24.2329  -22.5366  -12.5390 C   0  0  0  0  0  0  0  0  0  0  0  0
   24.4113  -22.9141  -11.2551 N   0  0  0  0  0  0  0  0  0  0  0  0
   26.0613  -24.1534  -12.5464 S   0  0  0  0  0  0  0  0  0  0  0  0
   21.9440  -20.0829  -15.9722 C   0  0  0  0  0  0  0  0  0  0  0  0
   22.9631  -20.4206  -16.7952 N   0  0  0  0  0  0  0  0  0  0  0  0
   20.8733  -19.5964  -16.3724 O   0  0  0  0  0  0  0  0  0  0  0  0
   23.7861  -20.8084  -16.4190 H   0  0  0  0  0  0  0  0  0  0  0  0
   22.8070  -19.7770  -20.9025 C   0  0  0  0  0  0  0  0  0  0  0  0
   23.6568  -19.0329  -20.0899 C   0  0  0  0  0  0  0  0  0  0  0  0
   21.9975  -20.9662  -18.9620 C   0  0  0  0  0  0  0  0  0  0  0  0
   21.9613  -20.7399  -20.3449 C   0  0  0  0  0  0  0  0  0  0  0  0
   22.8606  -20.2291  -18.1367 C   0  0  0  0  0  0  0  0  0  0  0  0
   23.6971  -19.2716  -18.7144 C   0  0  0  0  0  0  0  0  0  0  0  0
   19.6704  -21.0094  -21.3208 C   0  0  0  0  0  0  0  0  0  0  0  0
   21.1207  -21.4795  -21.1836 C   0  0  0  0  0  0  0  0  0  0  0  0
   21.4977  -22.4966  -21.7735 O   0  0  0  0  0  0  0  0  0  0  0  0
   24.5316  -18.5768  -17.8770 O   0  0  0  0  0  0  0  0  0  0  0  0
   26.7504  -17.7110  -18.3550 C   0  0  0  0  0  0  0  0  0  0  0  0
   25.9050  -18.9506  -18.0530 C   0  0  0  0  0  0  0  0  0  0  0  0
 13 17  1  0  0  0
 13 16  2  0  0  0
 17 14  1  0  0  0
 16 15  1  0  0  0
 15 14  2  0  0  0
 15  5  1  0  0  0
 10 11  2  0  0  0
 10  7  1  0  0  0
 11  8  1  0  0  0
  3  5  2  0  0  0
  3  6  1  0  0  0
  5  1  1  0  0  0
  7  6  1  0  0  0
  7  9  2  0  0  0
  6  2  2  0  0  0
  8  9  1  0  0  0
  1  4  2  0  0  0
  2  4  1  0  0  0
  4 18  1  0  0  0
 18 20  2  0  0  0
 18 19  1  0  0  0
 19 26  1  0  0  0
 32 33  1  0  0  0
 31 27  1  0  0  0
 31 33  1  0  0  0
 26 24  2  0  0  0
 26 27  1  0  0  0
 24 25  1  0  0  0
 27 23  2  0  0  0
 28 29  1  0  0  0
 23 22  1  0  0  0
 25 22  2  0  0  0
 25 29  1  0  0  0
 29 30  2  0  0  0
  8 12  1  0  0  0
 19 21  1  0  0  0
M  END
> <minimizedAffinity>
-7.77367

$$$$
