1XH4_R69_A_351


 41 44  0  0  0  0  0  0  0  0999 V2000
    6.4963   21.6351   30.9293 N   0  0  0  0  0  0  0  0  0  0  0  0
    5.9166   21.5651   32.2045 C   0  0  0  0  0  0  0  0  0  0  0  0
    6.0516   22.4587   33.0625 O   0  0  0  0  0  0  0  0  0  0  0  0
    6.4891   20.8335   30.3577 H   0  0  0  0  0  0  0  0  0  0  0  0
    8.2336   22.5522   29.3564 C   0  0  0  0  0  0  0  0  0  0  0  0
    8.0721   23.0783   27.9259 C   0  0  0  0  0  0  0  0  0  0  0  0
    6.7379   22.5880   27.4210 N   0  0  0  0  0  0  0  0  0  0  0  0
    5.5621   23.5120   27.5965 C   0  0  0  0  0  0  0  0  0  0  0  0
    4.9993   23.4371   29.0042 C   0  0  0  0  0  0  0  0  0  0  0  0
    6.0496   23.9209   30.0167 C   0  0  0  0  0  0  0  0  0  0  0  0
    7.1237   22.8864   30.4113 C   0  0  0  0  0  0  0  0  0  0  0  0
    6.5232   21.7195   27.9109 H   0  0  0  0  0  0  0  0  0  0  0  0
   10.4676   21.0695   30.1413 O   0  0  0  0  0  0  0  0  0  0  0  0
   10.5962   22.3041   30.1502 C   0  0  0  0  0  0  0  0  0  0  0  0
    9.4871   23.0966   29.8663 N   0  0  0  0  0  0  0  0  0  0  0  0
    9.5519   24.0674   30.0164 H   0  0  0  0  0  0  0  0  0  0  0  0
   11.8913   22.9631   30.4136 C   0  0  0  0  0  0  0  0  0  0  0  0
   13.0890   22.2289   30.2996 C   0  0  0  0  0  0  0  0  0  0  0  0
   14.3214   22.8670   30.4877 C   0  0  0  0  0  0  0  0  0  0  0  0
   14.4109   24.1587   30.8132 N   0  0  0  0  0  0  0  0  0  0  0  0
   13.2901   24.8854   30.9280 C   0  0  0  0  0  0  0  0  0  0  0  0
   12.0088   24.3374   30.7197 C   0  0  0  0  0  0  0  0  0  0  0  0
    5.0611   20.4268   32.5032 C   0  0  0  0  0  0  0  0  0  0  0  0
    4.8470   20.0411   33.8431 C   0  0  0  0  0  0  0  0  0  0  0  0
    3.9846   18.9918   34.1552 C   0  0  0  0  0  0  0  0  0  0  0  0
    4.4251   19.7354   31.4525 C   0  0  0  0  0  0  0  0  0  0  0  0
    3.6060   18.6666   31.7430 C   0  0  0  0  0  0  0  0  0  0  0  0
    3.3810   18.2893   33.0882 C   0  0  0  0  0  0  0  0  0  0  0  0
    2.4422   17.2043   33.3536 C   0  0  0  0  0  0  0  0  0  0  0  0
    1.6268   17.4021   34.2799 O   0  0  0  0  0  0  0  0  0  0  0  0
    2.3048   16.0444   32.5314 C   0  0  0  0  0  0  0  0  0  0  0  0
    3.3012   15.0280   32.3593 C   0  0  0  0  0  0  0  0  0  0  0  0
    4.4443   15.0592   32.9455 O   0  0  0  0  0  0  0  0  0  0  0  0
    2.9535   13.9547   31.4620 C   0  0  0  0  0  0  0  0  0  0  0  0
    1.7320   13.9027   30.8176 C   0  0  0  0  0  0  0  0  0  0  0  0
    1.0757   15.9568   31.8658 C   0  0  0  0  0  0  0  0  0  0  0  0
    0.7600   14.9065   31.0191 C   0  0  0  0  0  0  0  0  0  0  0  0
    4.6541   15.7643   33.5258 H   0  0  0  0  0  0  0  0  0  0  0  0
   -0.5010   14.8625   30.3145 N   0  0  0  0  0  0  0  0  0  0  0  0
   -1.1034   16.0722   29.7229 C   0  0  0  0  0  0  0  0  0  0  0  0
   -1.4778   13.8088   30.6715 C   0  0  0  0  0  0  0  0  0  0  0  0
 13 14  2  0  0  0
 14 17  1  0  0  0
 14 15  1  0  0  0
 17 18  2  0  0  0
 17 22  1  0  0  0
 18 19  1  0  0  0
 19 20  2  0  0  0
 20 21  1  0  0  0
 21 22  2  0  0  0
 15  5  1  0  0  0
  5  6  1  0  0  0
  5 11  1  0  0  0
  6  7  1  0  0  0
  7  8  1  0  0  0
  8  9  1  0  0  0
  9 10  1  0  0  0
 10 11  1  0  0  0
 11  1  1  0  0  0
  1  2  1  0  0  0
  2  3  2  0  0  0
  2 23  1  0  0  0
 23 24  2  0  0  0
 23 26  1  0  0  0
 24 25  1  0  0  0
 25 28  2  0  0  0
 26 27  2  0  0  0
 27 28  1  0  0  0
 28 29  1  0  0  0
 29 30  2  0  0  0
 29 31  1  0  0  0
 31 32  2  0  0  0
 31 36  1  0  0  0
 32 33  1  0  0  0
 32 34  1  0  0  0
 34 35  2  0  0  0
 35 37  1  0  0  0
 36 37  2  0  0  0
 37 39  1  0  0  0
 39 40  1  0  0  0
 39 41  1  0  0  0
 15 16  1  0  0  0
  7 12  1  0  0  0
  1  4  1  0  0  0
 33 38  1  0  0  0
M  END
> <minimizedAffinity>
-13.47650

$$$$
1XH4_R69_A_351


 41 44  0  0  0  0  0  0  0  0999 V2000
    6.2945   21.5925   30.8430 N   0  0  0  0  0  0  0  0  0  0  0  0
    5.7772   21.4554   32.1394 C   0  0  0  0  0  0  0  0  0  0  0  0
    6.0131   22.2674   33.0548 O   0  0  0  0  0  0  0  0  0  0  0  0
    6.2065   20.8413   30.2127 H   0  0  0  0  0  0  0  0  0  0  0  0
    8.0640   22.5160   29.3102 C   0  0  0  0  0  0  0  0  0  0  0  0
    7.9199   23.1248   27.9110 C   0  0  0  0  0  0  0  0  0  0  0  0
    6.5633   22.7213   27.3893 N   0  0  0  0  0  0  0  0  0  0  0  0
    5.4300   23.6851   27.6217 C   0  0  0  0  0  0  0  0  0  0  0  0
    4.8704   23.5592   29.0270 C   0  0  0  0  0  0  0  0  0  0  0  0
    5.9452   23.9414   30.0571 C   0  0  0  0  0  0  0  0  0  0  0  0
    6.9743   22.8412   30.3887 C   0  0  0  0  0  0  0  0  0  0  0  0
    6.3126   21.8379   27.8334 H   0  0  0  0  0  0  0  0  0  0  0  0
   10.1884   20.8900   30.1154 O   0  0  0  0  0  0  0  0  0  0  0  0
   10.3950   22.1139   30.1340 C   0  0  0  0  0  0  0  0  0  0  0  0
    9.3424   22.9768   29.8403 N   0  0  0  0  0  0  0  0  0  0  0  0
    9.4665   23.9407   29.9975 H   0  0  0  0  0  0  0  0  0  0  0  0
   11.7255   22.6877   30.4189 C   0  0  0  0  0  0  0  0  0  0  0  0
   12.8809   21.8971   30.2565 C   0  0  0  0  0  0  0  0  0  0  0  0
   14.1472   22.4574   30.4657 C   0  0  0  0  0  0  0  0  0  0  0  0
   14.3086   23.7238   30.8561 N   0  0  0  0  0  0  0  0  0  0  0  0
   13.2297   24.5029   31.0182 C   0  0  0  0  0  0  0  0  0  0  0  0
   11.9193   24.0362   30.7938 C   0  0  0  0  0  0  0  0  0  0  0  0
    4.8663   20.3506   32.3969 C   0  0  0  0  0  0  0  0  0  0  0  0
    4.2491   19.6827   31.3185 C   0  0  0  0  0  0  0  0  0  0  0  0
    3.4202   18.5842   31.5388 C   0  0  0  0  0  0  0  0  0  0  0  0
    4.6307   19.9331   33.7223 C   0  0  0  0  0  0  0  0  0  0  0  0
    3.7771   18.8779   33.9585 C   0  0  0  0  0  0  0  0  0  0  0  0
    3.1695   18.1998   32.8752 C   0  0  0  0  0  0  0  0  0  0  0  0
    2.3381   17.0368   33.1671 C   0  0  0  0  0  0  0  0  0  0  0  0
    2.1506   16.7897   34.3778 O   0  0  0  0  0  0  0  0  0  0  0  0
    1.6198   16.2968   32.1788 C   0  0  0  0  0  0  0  0  0  0  0  0
    0.5844   16.8242   31.3389 C   0  0  0  0  0  0  0  0  0  0  0  0
    0.1929   18.0470   31.3911 O   0  0  0  0  0  0  0  0  0  0  0  0
   -0.0194   15.8873   30.4248 C   0  0  0  0  0  0  0  0  0  0  0  0
    0.3827   14.5670   30.3542 C   0  0  0  0  0  0  0  0  0  0  0  0
    2.0049   14.9542   32.0768 C   0  0  0  0  0  0  0  0  0  0  0  0
    1.4183   14.0769   31.1791 C   0  0  0  0  0  0  0  0  0  0  0  0
    0.5963   18.6429   31.9913 H   0  0  0  0  0  0  0  0  0  0  0  0
    1.8086   12.6865   31.1232 N   0  0  0  0  0  0  0  0  0  0  0  0
    0.8505   11.5987   31.3969 C   0  0  0  0  0  0  0  0  0  0  0  0
    3.2216   12.3341   31.3900 C   0  0  0  0  0  0  0  0  0  0  0  0
 13 14  2  0  0  0
 14 17  1  0  0  0
 14 15  1  0  0  0
 17 18  2  0  0  0
 17 22  1  0  0  0
 18 19  1  0  0  0
 19 20  2  0  0  0
 20 21  1  0  0  0
 21 22  2  0  0  0
 15  5  1  0  0  0
  5  6  1  0  0  0
  5 11  1  0  0  0
  6  7  1  0  0  0
  7  8  1  0  0  0
  8  9  1  0  0  0
  9 10  1  0  0  0
 10 11  1  0  0  0
 11  1  1  0  0  0
  1  2  1  0  0  0
  2  3  2  0  0  0
  2 23  1  0  0  0
 23 24  2  0  0  0
 23 26  1  0  0  0
 24 25  1  0  0  0
 25 28  2  0  0  0
 26 27  2  0  0  0
 27 28  1  0  0  0
 28 29  1  0  0  0
 29 30  2  0  0  0
 29 31  1  0  0  0
 31 32  2  0  0  0
 31 36  1  0  0  0
 32 33  1  0  0  0
 32 34  1  0  0  0
 34 35  2  0  0  0
 35 37  1  0  0  0
 36 37  2  0  0  0
 37 39  1  0  0  0
 39 40  1  0  0  0
 39 41  1  0  0  0
 15 16  1  0  0  0
  7 12  1  0  0  0
  1  4  1  0  0  0
 33 38  1  0  0  0
M  END
> <minimizedAffinity>
-11.73528

$$$$
