5D47_L19_A_201


 32 36  0  0  0  0  0  0  0  0999 V2000
    5.8825    8.3481   17.4585 N   0  0  0  0  0  0  0  0  0  0  0  0
    4.5753    8.2646   16.9647 C   0  0  0  0  0  0  0  0  0  0  0  0
    3.6681    7.7840   18.0199 C   0  0  0  0  0  0  0  0  0  0  0  0
    4.5860    7.5267   19.1749 C   0  0  0  0  0  0  0  0  0  0  0  0
    4.3146    7.0586   20.4729 C   0  0  0  0  0  0  0  0  0  0  0  0
    5.4170    6.9935   21.3363 C   0  0  0  0  0  0  0  0  0  0  0  0
    6.7384    7.3416   20.9303 C   0  0  0  0  0  0  0  0  0  0  0  0
    7.0495    7.7995   19.6471 C   0  0  0  0  0  0  0  0  0  0  0  0
    5.9813    7.9056   18.7355 C   0  0  0  0  0  0  0  0  0  0  0  0
    4.1148    8.6613   15.5860 C   0  0  0  0  0  0  0  0  0  0  0  0
    4.0276   10.0437   15.3667 C   0  0  0  0  0  0  0  0  0  0  0  0
    3.6421   10.5330   14.1129 C   0  0  0  0  0  0  0  0  0  0  0  0
    3.3018    9.5809   13.1021 C   0  0  0  0  0  0  0  0  0  0  0  0
    3.3925    8.1528   13.2956 C   0  0  0  0  0  0  0  0  0  0  0  0
    3.8148    7.7137   14.5388 C   0  0  0  0  0  0  0  0  0  0  0  0
    2.1984    7.5355   17.9311 C   0  0  0  0  0  0  0  0  0  0  0  0
    1.2100    8.5382   17.8937 C   0  0  0  0  0  0  0  0  0  0  0  0
   -0.1618    8.1651   17.7696 C   0  0  0  0  0  0  0  0  0  0  0  0
   -0.4657    6.8457   17.7386 N   0  0  0  0  0  0  0  0  0  0  0  0
    0.4130    5.8129   17.7950 C   0  0  0  0  0  0  0  0  0  0  0  0
    1.7923    6.1083   17.8785 C   0  0  0  0  0  0  0  0  0  0  0  0
    2.7734    5.1264   17.9413 O   0  0  0  0  0  0  0  0  0  0  0  0
    2.5710    4.2111   19.0120 C   0  0  0  0  0  0  0  0  0  0  0  0
    5.2489    6.4391   22.6944 C   0  0  0  0  0  0  0  0  0  0  0  0
    5.8138    7.4824   23.6213 C   0  0  0  0  0  0  0  0  0  0  0  0
    4.2941    7.1713   23.6264 C   0  0  0  0  0  0  0  0  0  0  0  0
    7.0606    8.7137   16.6568 C   0  0  0  0  0  0  0  0  0  0  0  0
    7.6078    7.3834   16.1186 C   0  0  0  0  0  0  0  0  0  0  0  0
    6.8371    5.9401   14.3382 O   0  0  0  0  0  0  0  0  0  0  0  0
    7.1760    7.0320   14.6820 C   0  0  0  0  0  0  0  0  0  0  0  0
    7.1458    7.8905   13.6859 O   0  0  0  0  0  0  0  0  0  0  0  0
    7.3908    8.7835   13.8294 H   0  0  0  0  0  0  0  0  0  0  0  0
 13 14  2  0  0  0
 13 12  1  0  0  0
 14 15  1  0  0  0
 12 11  2  0  0  0
 29 30  2  0  0  0
 15 10  2  0  0  0
 11 10  1  0  0  0
 10  2  1  0  0  0
 30 31  1  0  0  0
 30 28  1  0  0  0
 28 27  1  0  0  0
 27  1  1  0  0  0
  2  1  1  0  0  0
  2  3  2  0  0  0
 18 17  1  0  0  0
 18 19  2  0  0  0
  1  9  1  0  0  0
 17 16  2  0  0  0
 19 20  1  0  0  0
 16  3  1  0  0  0
 16 21  1  0  0  0
  3  4  1  0  0  0
 20 21  2  0  0  0
 21 22  1  0  0  0
  9  4  1  0  0  0
  9  8  2  0  0  0
 22 23  1  0  0  0
  4  5  2  0  0  0
  8  7  1  0  0  0
  5  6  1  0  0  0
  7  6  2  0  0  0
  6 24  1  0  0  0
 24 26  1  0  0  0
 24 25  1  0  0  0
 26 25  1  0  0  0
 31 32  1  0  0  0
M  END
> <minimizedAffinity>
-9.80868

$$$$
5D47_L19_A_201


 32 36  0  0  0  0  0  0  0  0999 V2000
    3.3377    6.1899   19.1695 N   0  0  0  0  0  0  0  0  0  0  0  0
    4.1288    6.9313   20.0550 C   0  0  0  0  0  0  0  0  0  0  0  0
    4.9317    7.9151   19.3103 C   0  0  0  0  0  0  0  0  0  0  0  0
    4.5838    7.6350   17.8809 C   0  0  0  0  0  0  0  0  0  0  0  0
    5.0256    8.2474   16.6945 C   0  0  0  0  0  0  0  0  0  0  0  0
    4.4400    7.7722   15.5130 C   0  0  0  0  0  0  0  0  0  0  0  0
    3.4845    6.7145   15.4949 C   0  0  0  0  0  0  0  0  0  0  0  0
    3.0294    6.0740   16.6507 C   0  0  0  0  0  0  0  0  0  0  0  0
    3.5660    6.5182   17.8747 C   0  0  0  0  0  0  0  0  0  0  0  0
    4.1361    6.8146   21.5573 C   0  0  0  0  0  0  0  0  0  0  0  0
    5.4088    6.8362   22.1459 C   0  0  0  0  0  0  0  0  0  0  0  0
    5.5400    6.7677   23.5381 C   0  0  0  0  0  0  0  0  0  0  0  0
    4.3470    6.6290   24.3136 C   0  0  0  0  0  0  0  0  0  0  0  0
    3.0234    6.6148   23.7364 C   0  0  0  0  0  0  0  0  0  0  0  0
    2.9386    6.7236   22.3588 C   0  0  0  0  0  0  0  0  0  0  0  0
    5.9173    8.8993   19.8483 C   0  0  0  0  0  0  0  0  0  0  0  0
    7.2858    8.6404   20.0584 C   0  0  0  0  0  0  0  0  0  0  0  0
    8.1295    9.6837   20.5440 C   0  0  0  0  0  0  0  0  0  0  0  0
    7.5658   10.8814   20.8303 N   0  0  0  0  0  0  0  0  0  0  0  0
    6.2579   11.2137   20.6855 C   0  0  0  0  0  0  0  0  0  0  0  0
    5.3707   10.2415   20.1715 C   0  0  0  0  0  0  0  0  0  0  0  0
    4.0145   10.4790   19.9844 O   0  0  0  0  0  0  0  0  0  0  0  0
    3.7597   11.5013   19.0278 C   0  0  0  0  0  0  0  0  0  0  0  0
    4.8967    8.2956   14.2100 C   0  0  0  0  0  0  0  0  0  0  0  0
    3.8111    7.9295   13.2332 C   0  0  0  0  0  0  0  0  0  0  0  0
    4.0748    9.4160   13.5891 C   0  0  0  0  0  0  0  0  0  0  0  0
    2.4719    5.0656   19.5576 C   0  0  0  0  0  0  0  0  0  0  0  0
    1.0791    5.6820   19.7550 C   0  0  0  0  0  0  0  0  0  0  0  0
    0.1021    4.5992   17.8262 O   0  0  0  0  0  0  0  0  0  0  0  0
    0.1280    5.5480   18.5504 C   0  0  0  0  0  0  0  0  0  0  0  0
   -0.7435    6.4643   18.1882 O   0  0  0  0  0  0  0  0  0  0  0  0
   -0.8194    7.2588   18.6791 H   0  0  0  0  0  0  0  0  0  0  0  0
 13 14  2  0  0  0
 13 12  1  0  0  0
 14 15  1  0  0  0
 12 11  2  0  0  0
 29 30  2  0  0  0
 15 10  2  0  0  0
 11 10  1  0  0  0
 10  2  1  0  0  0
 30 31  1  0  0  0
 30 28  1  0  0  0
 28 27  1  0  0  0
 27  1  1  0  0  0
  2  1  1  0  0  0
  2  3  2  0  0  0
 18 17  1  0  0  0
 18 19  2  0  0  0
  1  9  1  0  0  0
 17 16  2  0  0  0
 19 20  1  0  0  0
 16  3  1  0  0  0
 16 21  1  0  0  0
  3  4  1  0  0  0
 20 21  2  0  0  0
 21 22  1  0  0  0
  9  4  1  0  0  0
  9  8  2  0  0  0
 22 23  1  0  0  0
  4  5  2  0  0  0
  8  7  1  0  0  0
  5  6  1  0  0  0
  7  6  2  0  0  0
  6 24  1  0  0  0
 24 26  1  0  0  0
 24 25  1  0  0  0
 26 25  1  0  0  0
 31 32  1  0  0  0
M  END
> <minimizedAffinity>
-8.97862

$$$$
5D47_L19_A_201


 32 36  0  0  0  0  0  0  0  0999 V2000
    6.0312    8.1115   17.2213 N   0  0  0  0  0  0  0  0  0  0  0  0
    4.6894    8.0465   16.8276 C   0  0  0  0  0  0  0  0  0  0  0  0
    3.8353    7.7675   17.9937 C   0  0  0  0  0  0  0  0  0  0  0  0
    4.8181    7.6071   19.1122 C   0  0  0  0  0  0  0  0  0  0  0  0
    4.6151    7.3324   20.4765 C   0  0  0  0  0  0  0  0  0  0  0  0
    5.7712    7.3121   21.2688 C   0  0  0  0  0  0  0  0  0  0  0  0
    7.0772    7.5193   20.7362 C   0  0  0  0  0  0  0  0  0  0  0  0
    7.3201    7.7835   19.3855 C   0  0  0  0  0  0  0  0  0  0  0  0
    6.1968    7.8358   18.5378 C   0  0  0  0  0  0  0  0  0  0  0  0
    4.1538    8.2863   15.4397 C   0  0  0  0  0  0  0  0  0  0  0  0
    4.1873    9.6226   15.0157 C   0  0  0  0  0  0  0  0  0  0  0  0
    3.7461    9.9633   13.7315 C   0  0  0  0  0  0  0  0  0  0  0  0
    3.2258    8.9178   12.9067 C   0  0  0  0  0  0  0  0  0  0  0  0
    3.1889    7.5323   13.3121 C   0  0  0  0  0  0  0  0  0  0  0  0
    3.6707    7.2354   14.5756 C   0  0  0  0  0  0  0  0  0  0  0  0
    2.3517    7.6030   18.0330 C   0  0  0  0  0  0  0  0  0  0  0  0
    1.6792    6.3908   18.2827 C   0  0  0  0  0  0  0  0  0  0  0  0
    0.2530    6.3780   18.3301 C   0  0  0  0  0  0  0  0  0  0  0  0
   -0.4057    7.5356   18.0849 N   0  0  0  0  0  0  0  0  0  0  0  0
    0.1543    8.7411   17.8106 C   0  0  0  0  0  0  0  0  0  0  0  0
    1.5638    8.8372   17.7866 C   0  0  0  0  0  0  0  0  0  0  0  0
    2.2365   10.0226   17.5164 O   0  0  0  0  0  0  0  0  0  0  0  0
    2.6110   10.7261   18.6953 C   0  0  0  0  0  0  0  0  0  0  0  0
    5.6709    6.9533   22.6976 C   0  0  0  0  0  0  0  0  0  0  0  0
    7.0589    6.5298   23.0985 C   0  0  0  0  0  0  0  0  0  0  0  0
    6.4358    7.8241   23.6840 C   0  0  0  0  0  0  0  0  0  0  0  0
    7.1671    8.2930   16.3042 C   0  0  0  0  0  0  0  0  0  0  0  0
    7.7212    6.8802   16.0680 C   0  0  0  0  0  0  0  0  0  0  0  0
    6.6998    4.9541   15.0220 O   0  0  0  0  0  0  0  0  0  0  0  0
    7.0435    6.0937   14.9297 C   0  0  0  0  0  0  0  0  0  0  0  0
    6.7834    6.5887   13.7390 O   0  0  0  0  0  0  0  0  0  0  0  0
    7.0069    7.4771   13.5419 H   0  0  0  0  0  0  0  0  0  0  0  0
 13 14  2  0  0  0
 13 12  1  0  0  0
 14 15  1  0  0  0
 12 11  2  0  0  0
 29 30  2  0  0  0
 15 10  2  0  0  0
 11 10  1  0  0  0
 10  2  1  0  0  0
 30 31  1  0  0  0
 30 28  1  0  0  0
 28 27  1  0  0  0
 27  1  1  0  0  0
  2  1  1  0  0  0
  2  3  2  0  0  0
 18 17  1  0  0  0
 18 19  2  0  0  0
  1  9  1  0  0  0
 17 16  2  0  0  0
 19 20  1  0  0  0
 16  3  1  0  0  0
 16 21  1  0  0  0
  3  4  1  0  0  0
 20 21  2  0  0  0
 21 22  1  0  0  0
  9  4  1  0  0  0
  9  8  2  0  0  0
 22 23  1  0  0  0
  4  5  2  0  0  0
  8  7  1  0  0  0
  5  6  1  0  0  0
  7  6  2  0  0  0
  6 24  1  0  0  0
 24 26  1  0  0  0
 24 25  1  0  0  0
 26 25  1  0  0  0
 31 32  1  0  0  0
M  END
> <minimizedAffinity>
-8.89664

$$$$
5D47_L19_A_201


 32 36  0  0  0  0  0  0  0  0999 V2000
    5.5665    8.5463   17.9477 N   0  0  0  0  0  0  0  0  0  0  0  0
    4.3165    8.4510   17.3246 C   0  0  0  0  0  0  0  0  0  0  0  0
    3.3427    7.8353   18.2409 C   0  0  0  0  0  0  0  0  0  0  0  0
    4.1625    7.5132   19.4520 C   0  0  0  0  0  0  0  0  0  0  0  0
    3.7977    6.9156   20.6717 C   0  0  0  0  0  0  0  0  0  0  0  0
    4.8177    6.8198   21.6284 C   0  0  0  0  0  0  0  0  0  0  0  0
    6.1507    7.2620   21.3840 C   0  0  0  0  0  0  0  0  0  0  0  0
    6.5541    7.8499   20.1820 C   0  0  0  0  0  0  0  0  0  0  0  0
    5.5703    7.9924   19.1845 C   0  0  0  0  0  0  0  0  0  0  0  0
    3.9648    8.9528   15.9480 C   0  0  0  0  0  0  0  0  0  0  0  0
    4.0644    7.9967   14.9269 C   0  0  0  0  0  0  0  0  0  0  0  0
    3.7313    8.3377   13.6105 C   0  0  0  0  0  0  0  0  0  0  0  0
    3.3399    9.6880   13.3509 C   0  0  0  0  0  0  0  0  0  0  0  0
    3.2179   10.6904   14.3831 C   0  0  0  0  0  0  0  0  0  0  0  0
    3.5204   10.2993   15.6763 C   0  0  0  0  0  0  0  0  0  0  0  0
    1.9025    7.5313   17.9891 C   0  0  0  0  0  0  0  0  0  0  0  0
    0.8707    8.4888   17.9415 C   0  0  0  0  0  0  0  0  0  0  0  0
   -0.4622    8.0684   17.6537 C   0  0  0  0  0  0  0  0  0  0  0  0
   -0.6925    6.7450   17.4811 N   0  0  0  0  0  0  0  0  0  0  0  0
    0.2301    5.7510   17.5345 C   0  0  0  0  0  0  0  0  0  0  0  0
    1.5784    6.0980   17.7762 C   0  0  0  0  0  0  0  0  0  0  0  0
    2.5994    5.1586   17.8501 O   0  0  0  0  0  0  0  0  0  0  0  0
    2.3530    4.1504   18.8237 C   0  0  0  0  0  0  0  0  0  0  0  0
    4.5547    6.1353   22.9100 C   0  0  0  0  0  0  0  0  0  0  0  0
    5.0627    7.0736   23.9722 C   0  0  0  0  0  0  0  0  0  0  0  0
    3.5441    6.7840   23.8450 C   0  0  0  0  0  0  0  0  0  0  0  0
    6.7925    9.0362   17.2987 C   0  0  0  0  0  0  0  0  0  0  0  0
    6.6149   10.5588   17.2042 C   0  0  0  0  0  0  0  0  0  0  0  0
    5.0057   11.7594   18.5519 O   0  0  0  0  0  0  0  0  0  0  0  0
    6.0757   11.2347   18.4794 C   0  0  0  0  0  0  0  0  0  0  0  0
    6.7379   11.3141   19.6132 O   0  0  0  0  0  0  0  0  0  0  0  0
    7.5934   10.9385   19.6834 H   0  0  0  0  0  0  0  0  0  0  0  0
 13 14  2  0  0  0
 13 12  1  0  0  0
 14 15  1  0  0  0
 12 11  2  0  0  0
 29 30  2  0  0  0
 15 10  2  0  0  0
 11 10  1  0  0  0
 10  2  1  0  0  0
 30 31  1  0  0  0
 30 28  1  0  0  0
 28 27  1  0  0  0
 27  1  1  0  0  0
  2  1  1  0  0  0
  2  3  2  0  0  0
 18 17  1  0  0  0
 18 19  2  0  0  0
  1  9  1  0  0  0
 17 16  2  0  0  0
 19 20  1  0  0  0
 16  3  1  0  0  0
 16 21  1  0  0  0
  3  4  1  0  0  0
 20 21  2  0  0  0
 21 22  1  0  0  0
  9  4  1  0  0  0
  9  8  2  0  0  0
 22 23  1  0  0  0
  4  5  2  0  0  0
  8  7  1  0  0  0
  5  6  1  0  0  0
  7  6  2  0  0  0
  6 24  1  0  0  0
 24 26  1  0  0  0
 24 25  1  0  0  0
 26 25  1  0  0  0
 31 32  1  0  0  0
M  END
> <minimizedAffinity>
-8.80094

$$$$
5D47_L19_A_201


 32 36  0  0  0  0  0  0  0  0999 V2000
    4.1227    9.3929   19.2576 N   0  0  0  0  0  0  0  0  0  0  0  0
    4.4367    9.5242   17.8998 C   0  0  0  0  0  0  0  0  0  0  0  0
    4.1870    8.2533   17.1999 C   0  0  0  0  0  0  0  0  0  0  0  0
    3.7542    7.3323   18.2986 C   0  0  0  0  0  0  0  0  0  0  0  0
    3.3728    5.9792   18.2615 C   0  0  0  0  0  0  0  0  0  0  0  0
    2.9586    5.4328   19.4841 C   0  0  0  0  0  0  0  0  0  0  0  0
    2.9522    6.1762   20.7005 C   0  0  0  0  0  0  0  0  0  0  0  0
    3.3343    7.5181   20.7796 C   0  0  0  0  0  0  0  0  0  0  0  0
    3.7442    8.1324   19.5804 C   0  0  0  0  0  0  0  0  0  0  0  0
    4.9003   10.7801   17.2081 C   0  0  0  0  0  0  0  0  0  0  0  0
    3.9148   11.4421   16.4617 C   0  0  0  0  0  0  0  0  0  0  0  0
    4.2193   12.6384   15.8011 C   0  0  0  0  0  0  0  0  0  0  0  0
    5.5634   13.1192   15.8798 C   0  0  0  0  0  0  0  0  0  0  0  0
    6.5956   12.4651   16.6490 C   0  0  0  0  0  0  0  0  0  0  0  0
    6.2405   11.3058   17.3174 C   0  0  0  0  0  0  0  0  0  0  0  0
    4.3952    7.9387   15.7551 C   0  0  0  0  0  0  0  0  0  0  0  0
    3.4216    8.0844   14.7478 C   0  0  0  0  0  0  0  0  0  0  0  0
    3.7627    7.7831   13.3953 C   0  0  0  0  0  0  0  0  0  0  0  0
    5.0091    7.3201   13.1377 N   0  0  0  0  0  0  0  0  0  0  0  0
    6.0008    7.1235   14.0432 C   0  0  0  0  0  0  0  0  0  0  0  0
    5.7466    7.4387   15.3970 C   0  0  0  0  0  0  0  0  0  0  0  0
    6.6920    7.2747   16.4019 O   0  0  0  0  0  0  0  0  0  0  0  0
    7.8284    8.1146   16.2337 C   0  0  0  0  0  0  0  0  0  0  0  0
    2.6159    3.9988   19.5642 C   0  0  0  0  0  0  0  0  0  0  0  0
    1.1278    3.9587   19.7888 C   0  0  0  0  0  0  0  0  0  0  0  0
    1.7329    3.4367   18.4593 C   0  0  0  0  0  0  0  0  0  0  0  0
    4.3272   10.4393   20.2712 C   0  0  0  0  0  0  0  0  0  0  0  0
    5.4268    9.8938   21.1943 C   0  0  0  0  0  0  0  0  0  0  0  0
    7.3789    9.1372   19.9843 O   0  0  0  0  0  0  0  0  0  0  0  0
    6.8589    9.9927   20.6347 C   0  0  0  0  0  0  0  0  0  0  0  0
    7.6591   11.0196   20.8228 O   0  0  0  0  0  0  0  0  0  0  0  0
    7.3653   11.7577   21.3195 H   0  0  0  0  0  0  0  0  0  0  0  0
 13 14  2  0  0  0
 13 12  1  0  0  0
 14 15  1  0  0  0
 12 11  2  0  0  0
 29 30  2  0  0  0
 15 10  2  0  0  0
 11 10  1  0  0  0
 10  2  1  0  0  0
 30 31  1  0  0  0
 30 28  1  0  0  0
 28 27  1  0  0  0
 27  1  1  0  0  0
  2  1  1  0  0  0
  2  3  2  0  0  0
 18 17  1  0  0  0
 18 19  2  0  0  0
  1  9  1  0  0  0
 17 16  2  0  0  0
 19 20  1  0  0  0
 16  3  1  0  0  0
 16 21  1  0  0  0
  3  4  1  0  0  0
 20 21  2  0  0  0
 21 22  1  0  0  0
  9  4  1  0  0  0
  9  8  2  0  0  0
 22 23  1  0  0  0
  4  5  2  0  0  0
  8  7  1  0  0  0
  5  6  1  0  0  0
  7  6  2  0  0  0
  6 24  1  0  0  0
 24 26  1  0  0  0
 24 25  1  0  0  0
 26 25  1  0  0  0
 31 32  1  0  0  0
M  END
> <minimizedAffinity>
-7.49152

$$$$
5D47_L19_A_201


 32 36  0  0  0  0  0  0  0  0999 V2000
    2.8690    6.6250   17.9401 N   0  0  0  0  0  0  0  0  0  0  0  0
    3.5156    7.8545   17.7673 C   0  0  0  0  0  0  0  0  0  0  0  0
    4.1300    8.2831   19.0346 C   0  0  0  0  0  0  0  0  0  0  0  0
    3.7233    7.2100   19.9968 C   0  0  0  0  0  0  0  0  0  0  0  0
    4.0052    7.0533   21.3656 C   0  0  0  0  0  0  0  0  0  0  0  0
    3.5127    5.8809   21.9552 C   0  0  0  0  0  0  0  0  0  0  0  0
    2.7450    4.9180   21.2371 C   0  0  0  0  0  0  0  0  0  0  0  0
    2.4350    5.0438   19.8802 C   0  0  0  0  0  0  0  0  0  0  0  0
    2.9171    6.1925   19.2235 C   0  0  0  0  0  0  0  0  0  0  0  0
    3.6424    8.6228   16.4772 C   0  0  0  0  0  0  0  0  0  0  0  0
    4.3716    7.9726   15.4711 C   0  0  0  0  0  0  0  0  0  0  0  0
    4.5288    8.5748   14.2170 C   0  0  0  0  0  0  0  0  0  0  0  0
    3.9662    9.8753   14.0273 C   0  0  0  0  0  0  0  0  0  0  0  0
    3.2018   10.5639   15.0405 C   0  0  0  0  0  0  0  0  0  0  0  0
    3.0389    9.9150   16.2526 C   0  0  0  0  0  0  0  0  0  0  0  0
    4.9030    9.5306   19.3103 C   0  0  0  0  0  0  0  0  0  0  0  0
    4.3523   10.8254   19.3734 C   0  0  0  0  0  0  0  0  0  0  0  0
    5.1982   11.9319   19.6837 C   0  0  0  0  0  0  0  0  0  0  0  0
    6.5200   11.6965   19.8619 N   0  0  0  0  0  0  0  0  0  0  0  0
    7.1421   10.4922   19.7949 C   0  0  0  0  0  0  0  0  0  0  0  0
    6.3597    9.3456   19.5306 C   0  0  0  0  0  0  0  0  0  0  0  0
    6.8972    8.0675   19.4413 O   0  0  0  0  0  0  0  0  0  0  0  0
    7.5744    7.8378   18.2110 C   0  0  0  0  0  0  0  0  0  0  0  0
    3.6872    5.6640   23.4053 C   0  0  0  0  0  0  0  0  0  0  0  0
    4.4140    6.8844   23.9042 C   0  0  0  0  0  0  0  0  0  0  0  0
    2.9501    6.6128   24.3395 C   0  0  0  0  0  0  0  0  0  0  0  0
    2.0799    5.9390   16.9053 C   0  0  0  0  0  0  0  0  0  0  0  0
    0.7487    5.5857   17.5849 C   0  0  0  0  0  0  0  0  0  0  0  0
   -0.0104    7.8759   17.4231 O   0  0  0  0  0  0  0  0  0  0  0  0
   -0.1746    6.7840   17.8772 C   0  0  0  0  0  0  0  0  0  0  0  0
   -1.2290    6.7335   18.6620 O   0  0  0  0  0  0  0  0  0  0  0  0
   -1.4639    5.9284   19.0799 H   0  0  0  0  0  0  0  0  0  0  0  0
 13 14  2  0  0  0
 13 12  1  0  0  0
 14 15  1  0  0  0
 12 11  2  0  0  0
 29 30  2  0  0  0
 15 10  2  0  0  0
 11 10  1  0  0  0
 10  2  1  0  0  0
 30 31  1  0  0  0
 30 28  1  0  0  0
 28 27  1  0  0  0
 27  1  1  0  0  0
  2  1  1  0  0  0
  2  3  2  0  0  0
 18 17  1  0  0  0
 18 19  2  0  0  0
  1  9  1  0  0  0
 17 16  2  0  0  0
 19 20  1  0  0  0
 16  3  1  0  0  0
 16 21  1  0  0  0
  3  4  1  0  0  0
 20 21  2  0  0  0
 21 22  1  0  0  0
  9  4  1  0  0  0
  9  8  2  0  0  0
 22 23  1  0  0  0
  4  5  2  0  0  0
  8  7  1  0  0  0
  5  6  1  0  0  0
  7  6  2  0  0  0
  6 24  1  0  0  0
 24 26  1  0  0  0
 24 25  1  0  0  0
 26 25  1  0  0  0
 31 32  1  0  0  0
M  END
> <minimizedAffinity>
-7.26942

$$$$
5D47_L19_A_201


 32 36  0  0  0  0  0  0  0  0999 V2000
    3.0298    6.7898   17.8985 N   0  0  0  0  0  0  0  0  0  0  0  0
    3.6246    7.8546   17.2113 C   0  0  0  0  0  0  0  0  0  0  0  0
    4.4148    8.6764   18.1426 C   0  0  0  0  0  0  0  0  0  0  0  0
    4.1728    8.0256   19.4694 C   0  0  0  0  0  0  0  0  0  0  0  0
    4.6584    8.3484   20.7492 C   0  0  0  0  0  0  0  0  0  0  0  0
    4.2774    7.4773   21.7792 C   0  0  0  0  0  0  0  0  0  0  0  0
    3.4257    6.3541   21.5662 C   0  0  0  0  0  0  0  0  0  0  0  0
    2.9146    6.0077   20.3125 C   0  0  0  0  0  0  0  0  0  0  0  0
    3.2756    6.8335   19.2304 C   0  0  0  0  0  0  0  0  0  0  0  0
    3.5455    8.1159   15.7294 C   0  0  0  0  0  0  0  0  0  0  0  0
    3.3829    9.4628   15.3744 C   0  0  0  0  0  0  0  0  0  0  0  0
    3.3293    9.8319   14.0249 C   0  0  0  0  0  0  0  0  0  0  0  0
    3.3977    8.7917   13.0466 C   0  0  0  0  0  0  0  0  0  0  0  0
    3.5758    7.3985   13.3819 C   0  0  0  0  0  0  0  0  0  0  0  0
    3.6623    7.0832   14.7272 C   0  0  0  0  0  0  0  0  0  0  0  0
    5.2013    9.9105   17.8454 C   0  0  0  0  0  0  0  0  0  0  0  0
    6.4901    9.9304   17.2778 C   0  0  0  0  0  0  0  0  0  0  0  0
    7.1179   11.1835   17.0093 C   0  0  0  0  0  0  0  0  0  0  0  0
    6.4612   12.3156   17.3573 N   0  0  0  0  0  0  0  0  0  0  0  0
    5.2333   12.3934   17.9303 C   0  0  0  0  0  0  0  0  0  0  0  0
    4.5352   11.1924   18.1887 C   0  0  0  0  0  0  0  0  0  0  0  0
    3.2743   11.1610   18.7714 O   0  0  0  0  0  0  0  0  0  0  0  0
    2.6662   12.4457   18.8418 C   0  0  0  0  0  0  0  0  0  0  0  0
    4.6699    7.7763   23.1708 C   0  0  0  0  0  0  0  0  0  0  0  0
    4.3495    6.5285   23.9500 C   0  0  0  0  0  0  0  0  0  0  0  0
    5.8231    6.9707   23.7518 C   0  0  0  0  0  0  0  0  0  0  0  0
    2.1054    5.8154   17.2982 C   0  0  0  0  0  0  0  0  0  0  0  0
    0.7823    5.9986   18.0562 C   0  0  0  0  0  0  0  0  0  0  0  0
   -0.0750    8.2331   17.7106 O   0  0  0  0  0  0  0  0  0  0  0  0
   -0.1630    7.0663   17.4731 C   0  0  0  0  0  0  0  0  0  0  0  0
   -1.1678    6.8055   16.6653 O   0  0  0  0  0  0  0  0  0  0  0  0
   -1.3415    5.9227   16.4035 H   0  0  0  0  0  0  0  0  0  0  0  0
 13 14  2  0  0  0
 13 12  1  0  0  0
 14 15  1  0  0  0
 12 11  2  0  0  0
 29 30  2  0  0  0
 15 10  2  0  0  0
 11 10  1  0  0  0
 10  2  1  0  0  0
 30 31  1  0  0  0
 30 28  1  0  0  0
 28 27  1  0  0  0
 27  1  1  0  0  0
  2  1  1  0  0  0
  2  3  2  0  0  0
 18 17  1  0  0  0
 18 19  2  0  0  0
  1  9  1  0  0  0
 17 16  2  0  0  0
 19 20  1  0  0  0
 16  3  1  0  0  0
 16 21  1  0  0  0
  3  4  1  0  0  0
 20 21  2  0  0  0
 21 22  1  0  0  0
  9  4  1  0  0  0
  9  8  2  0  0  0
 22 23  1  0  0  0
  4  5  2  0  0  0
  8  7  1  0  0  0
  5  6  1  0  0  0
  7  6  2  0  0  0
  6 24  1  0  0  0
 24 26  1  0  0  0
 24 25  1  0  0  0
 26 25  1  0  0  0
 31 32  1  0  0  0
M  END
> <minimizedAffinity>
-7.01569

$$$$
