1YDK_GTX_A_5100


 33 32  0  0  0  0  0  0  0  0999 V2000
   27.6850   23.2026   16.3851 C   0  0  0  0  0  0  0  0  0  0  0  0
   28.7780   25.2496   15.6537 C   0  0  0  0  0  0  0  0  0  0  0  0
   29.8875   25.0100   16.4751 O   0  0  0  0  0  0  0  0  0  0  0  0
   27.7111   24.4537   15.6426 N   0  0  0  0  0  0  0  0  0  0  0  0
   26.9203   24.7179   15.1191 H   0  0  0  0  0  0  0  0  0  0  0  0
   28.7685   26.4356   14.7106 C   0  0  0  0  0  0  0  0  0  0  0  0
   27.5988   26.3494   13.7310 C   0  0  0  0  0  0  0  0  0  0  0  0
   27.6242   27.1898   11.4283 N   0  0  0  0  0  0  0  0  0  0  0  0
   28.0990   26.1325   12.3027 C   0  0  0  0  0  0  0  0  0  0  0  0
   27.9676   27.0279   10.4816 H   0  0  0  0  0  0  0  0  0  0  0  0
   27.9673   28.0894   11.7652 H   0  0  0  0  0  0  0  0  0  0  0  0
   26.6042   27.1950   11.4238 H   0  0  0  0  0  0  0  0  0  0  0  0
   27.6242   24.7996   11.7901 C   0  0  0  0  0  0  0  0  0  0  0  0
   27.1203   24.6964   10.6483 O   0  0  0  0  0  0  0  0  0  0  0  0
   27.7306   23.7766   12.4956 O   0  0  0  0  0  0  0  0  0  0  0  0
   28.1053   23.8352   13.3524 H   0  0  0  0  0  0  0  0  0  0  0  0
   27.4166   22.0632   15.4512 C   0  0  0  0  0  0  0  0  0  0  0  0
   28.2817   20.9529   15.4612 O   0  0  0  0  0  0  0  0  0  0  0  0
   26.3624   22.1872   14.6434 N   0  0  0  0  0  0  0  0  0  0  0  0
   25.9130   23.0611   14.5836 H   0  0  0  0  0  0  0  0  0  0  0  0
   25.8512   21.0850   13.8489 C   0  0  0  0  0  0  0  0  0  0  0  0
   24.9523   21.5215   12.7130 C   0  0  0  0  0  0  0  0  0  0  0  0
   23.7379   21.2160   12.7383 O   0  0  0  0  0  0  0  0  0  0  0  0
   25.3876   22.1837   11.7395 O   0  0  0  0  0  0  0  0  0  0  0  0
   26.2930   22.4220   11.7023 H   0  0  0  0  0  0  0  0  0  0  0  0
   26.5554   23.2087   17.4165 C   0  0  0  0  0  0  0  0  0  0  0  0
   27.0352   23.8577   19.0291 S   0  0  0  0  0  0  0  0  0  0  0  0
   25.3802   23.5903   19.7163 C   0  0  0  0  0  0  0  0  0  0  0  0
   25.4313   23.1411   21.1725 C   0  0  0  0  0  0  0  0  0  0  0  0
   25.1616   21.6461   21.3121 C   0  0  0  0  0  0  0  0  0  0  0  0
   26.4507   20.8347   21.4423 C   0  0  0  0  0  0  0  0  0  0  0  0
   26.4420   19.5558   20.6107 C   0  0  0  0  0  0  0  0  0  0  0  0
   26.6385   19.8783   19.1294 C   0  0  0  0  0  0  0  0  0  0  0  0
  8  9  1  0  0  0
  9 13  1  0  0  0
  9  7  1  0  0  0
 13 14  2  0  0  0
 13 15  1  0  0  0
  7  6  1  0  0  0
  6  2  1  0  0  0
  2  3  2  0  0  0
  2  4  1  0  0  0
  4  1  1  0  0  0
  1 17  1  0  0  0
  1 26  1  0  0  0
 17 18  2  0  0  0
 17 19  1  0  0  0
 26 27  1  0  0  0
 27 28  1  0  0  0
 28 29  1  0  0  0
 29 30  1  0  0  0
 30 31  1  0  0  0
 31 32  1  0  0  0
 32 33  1  0  0  0
 19 21  1  0  0  0
 21 22  1  0  0  0
 22 23  2  0  0  0
 22 24  1  0  0  0
  8 10  1  0  0  0
  8 11  1  0  0  0
  8 12  1  0  0  0
 15 16  1  0  0  0
  4  5  1  0  0  0
 19 20  1  0  0  0
 24 25  1  0  0  0
M  CHG 1   8   1
M  END
> <minimizedAffinity>
-5.45765

$$$$
1YDK_GTX_A_5100


 33 32  0  0  0  0  0  0  0  0999 V2000
   27.7792   23.8033   15.7542 C   0  0  0  0  0  0  0  0  0  0  0  0
   28.8429   25.8767   15.0544 C   0  0  0  0  0  0  0  0  0  0  0  0
   29.9664   25.6288   15.8541 O   0  0  0  0  0  0  0  0  0  0  0  0
   27.7832   25.0712   15.0404 N   0  0  0  0  0  0  0  0  0  0  0  0
   26.9825   25.3400   14.5346 H   0  0  0  0  0  0  0  0  0  0  0  0
   28.8088   27.0839   14.1392 C   0  0  0  0  0  0  0  0  0  0  0  0
   28.5549   26.6684   12.6908 C   0  0  0  0  0  0  0  0  0  0  0  0
   26.1324   26.2991   12.6209 N   0  0  0  0  0  0  0  0  0  0  0  0
   27.2020   27.1880   12.2040 C   0  0  0  0  0  0  0  0  0  0  0  0
   25.2394   26.6618   12.2874 H   0  0  0  0  0  0  0  0  0  0  0  0
   26.1167   26.2404   13.6391 H   0  0  0  0  0  0  0  0  0  0  0  0
   26.2899   25.3705   12.2292 H   0  0  0  0  0  0  0  0  0  0  0  0
   27.2074   27.3052   10.7037 C   0  0  0  0  0  0  0  0  0  0  0  0
   27.3855   26.2957    9.9841 O   0  0  0  0  0  0  0  0  0  0  0  0
   27.0298   28.4113   10.1553 O   0  0  0  0  0  0  0  0  0  0  0  0
   26.8950   29.1771   10.6781 H   0  0  0  0  0  0  0  0  0  0  0  0
   27.7186   22.6704   14.7768 C   0  0  0  0  0  0  0  0  0  0  0  0
   28.1076   21.3843   15.1962 O   0  0  0  0  0  0  0  0  0  0  0  0
   27.3070   22.9660   13.5429 N   0  0  0  0  0  0  0  0  0  0  0  0
   27.2158   23.9129   13.2893 H   0  0  0  0  0  0  0  0  0  0  0  0
   26.9882   21.9473   12.5591 C   0  0  0  0  0  0  0  0  0  0  0  0
   26.5224   22.5084   11.2335 C   0  0  0  0  0  0  0  0  0  0  0  0
   25.9104   21.7649   10.4326 O   0  0  0  0  0  0  0  0  0  0  0  0
   26.7314   23.7027   10.9086 O   0  0  0  0  0  0  0  0  0  0  0  0
   27.1875   24.2746   11.4942 H   0  0  0  0  0  0  0  0  0  0  0  0
   26.5422   23.6883   16.6466 C   0  0  0  0  0  0  0  0  0  0  0  0
   26.4937   24.8853   17.9945 S   0  0  0  0  0  0  0  0  0  0  0  0
   25.9403   23.6381   19.1864 C   0  0  0  0  0  0  0  0  0  0  0  0
   26.7806   22.3676   19.1164 C   0  0  0  0  0  0  0  0  0  0  0  0
   25.9225   21.1144   19.2596 C   0  0  0  0  0  0  0  0  0  0  0  0
   25.9018   20.2774   17.9805 C   0  0  0  0  0  0  0  0  0  0  0  0
   24.6801   20.5454   17.1070 C   0  0  0  0  0  0  0  0  0  0  0  0
   24.8736   19.9429   15.7155 C   0  0  0  0  0  0  0  0  0  0  0  0
  8  9  1  0  0  0
  9 13  1  0  0  0
  9  7  1  0  0  0
 13 14  2  0  0  0
 13 15  1  0  0  0
  7  6  1  0  0  0
  6  2  1  0  0  0
  2  3  2  0  0  0
  2  4  1  0  0  0
  4  1  1  0  0  0
  1 17  1  0  0  0
  1 26  1  0  0  0
 17 18  2  0  0  0
 17 19  1  0  0  0
 26 27  1  0  0  0
 27 28  1  0  0  0
 28 29  1  0  0  0
 29 30  1  0  0  0
 30 31  1  0  0  0
 31 32  1  0  0  0
 32 33  1  0  0  0
 19 21  1  0  0  0
 21 22  1  0  0  0
 22 23  2  0  0  0
 22 24  1  0  0  0
  8 10  1  0  0  0
  8 11  1  0  0  0
  8 12  1  0  0  0
 15 16  1  0  0  0
  4  5  1  0  0  0
 19 20  1  0  0  0
 24 25  1  0  0  0
M  CHG 1   8   1
M  END
> <minimizedAffinity>
-5.44610

$$$$
1YDK_GTX_A_5100


 33 32  0  0  0  0  0  0  0  0999 V2000
   26.8633   22.2420   14.8861 C   0  0  0  0  0  0  0  0  0  0  0  0
   27.7093   24.5016   15.1994 C   0  0  0  0  0  0  0  0  0  0  0  0
   28.7974   24.0434   15.9539 O   0  0  0  0  0  0  0  0  0  0  0  0
   26.7603   23.6864   14.7449 N   0  0  0  0  0  0  0  0  0  0  0  0
   25.9691   24.0704   14.3022 H   0  0  0  0  0  0  0  0  0  0  0  0
   27.5899   25.9703   14.8463 C   0  0  0  0  0  0  0  0  0  0  0  0
   28.3576   26.2917   13.5647 C   0  0  0  0  0  0  0  0  0  0  0  0
   26.0227   26.4229   12.8295 N   0  0  0  0  0  0  0  0  0  0  0  0
   27.4029   26.4366   12.3794 C   0  0  0  0  0  0  0  0  0  0  0  0
   25.4020   26.5205   12.0260 H   0  0  0  0  0  0  0  0  0  0  0  0
   25.8678   27.1974   13.4749 H   0  0  0  0  0  0  0  0  0  0  0  0
   25.8285   25.5410   13.3040 H   0  0  0  0  0  0  0  0  0  0  0  0
   27.6277   25.3163   11.4001 C   0  0  0  0  0  0  0  0  0  0  0  0
   27.7754   24.1384   11.7989 O   0  0  0  0  0  0  0  0  0  0  0  0
   27.6654   25.5459   10.1747 O   0  0  0  0  0  0  0  0  0  0  0  0
   27.5568   26.4212    9.8584 H   0  0  0  0  0  0  0  0  0  0  0  0
   26.1798   21.5691   13.7361 C   0  0  0  0  0  0  0  0  0  0  0  0
   26.1975   20.1638   13.6577 O   0  0  0  0  0  0  0  0  0  0  0  0
   25.6019   22.3648   12.8348 N   0  0  0  0  0  0  0  0  0  0  0  0
   25.7795   23.3323   12.8756 H   0  0  0  0  0  0  0  0  0  0  0  0
   24.7217   21.8611   11.7963 C   0  0  0  0  0  0  0  0  0  0  0  0
   25.3354   21.8901   10.4137 C   0  0  0  0  0  0  0  0  0  0  0  0
   26.4591   21.3685   10.2292 O   0  0  0  0  0  0  0  0  0  0  0  0
   24.7509   22.4242    9.4396 O   0  0  0  0  0  0  0  0  0  0  0  0
   23.9097   22.8196    9.5574 H   0  0  0  0  0  0  0  0  0  0  0  0
   26.1596   21.7710   16.1599 C   0  0  0  0  0  0  0  0  0  0  0  0
   27.2718   21.0918   17.4065 S   0  0  0  0  0  0  0  0  0  0  0  0
   26.9378   22.4507   18.5575 C   0  0  0  0  0  0  0  0  0  0  0  0
   25.6113   23.1406   18.2582 C   0  0  0  0  0  0  0  0  0  0  0  0
   24.8203   23.4207   19.5322 C   0  0  0  0  0  0  0  0  0  0  0  0
   24.7198   22.1902   20.4337 C   0  0  0  0  0  0  0  0  0  0  0  0
   25.2035   22.4476   21.8575 C   0  0  0  0  0  0  0  0  0  0  0  0
   25.9373   23.7860   21.9404 C   0  0  0  0  0  0  0  0  0  0  0  0
  8  9  1  0  0  0
  9 13  1  0  0  0
  9  7  1  0  0  0
 13 14  2  0  0  0
 13 15  1  0  0  0
  7  6  1  0  0  0
  6  2  1  0  0  0
  2  3  2  0  0  0
  2  4  1  0  0  0
  4  1  1  0  0  0
  1 17  1  0  0  0
  1 26  1  0  0  0
 17 18  2  0  0  0
 17 19  1  0  0  0
 26 27  1  0  0  0
 27 28  1  0  0  0
 28 29  1  0  0  0
 29 30  1  0  0  0
 30 31  1  0  0  0
 31 32  1  0  0  0
 32 33  1  0  0  0
 19 21  1  0  0  0
 21 22  1  0  0  0
 22 23  2  0  0  0
 22 24  1  0  0  0
  8 10  1  0  0  0
  8 11  1  0  0  0
  8 12  1  0  0  0
 15 16  1  0  0  0
  4  5  1  0  0  0
 19 20  1  0  0  0
 24 25  1  0  0  0
M  CHG 1   8   1
M  END
> <minimizedAffinity>
-5.44248

$$$$
1YDK_GTX_A_5100


 33 32  0  0  0  0  0  0  0  0999 V2000
   28.0646   26.2293   14.4131 C   0  0  0  0  0  0  0  0  0  0  0  0
   27.0633   24.6584   15.9783 C   0  0  0  0  0  0  0  0  0  0  0  0
   26.4598   25.6918   16.7070 O   0  0  0  0  0  0  0  0  0  0  0  0
   27.8677   24.8886   14.9429 N   0  0  0  0  0  0  0  0  0  0  0  0
   28.3409   24.1330   14.5253 H   0  0  0  0  0  0  0  0  0  0  0  0
   26.7921   23.2116   16.3379 C   0  0  0  0  0  0  0  0  0  0  0  0
   27.4323   22.2641   15.3242 C   0  0  0  0  0  0  0  0  0  0  0  0
   26.7344   20.1034   14.4003 N   0  0  0  0  0  0  0  0  0  0  0  0
   26.3639   21.5000   14.5420 C   0  0  0  0  0  0  0  0  0  0  0  0
   26.0107   19.6111   13.8767 H   0  0  0  0  0  0  0  0  0  0  0  0
   26.8319   19.6821   15.3241 H   0  0  0  0  0  0  0  0  0  0  0  0
   27.6210   20.0359   13.9006 H   0  0  0  0  0  0  0  0  0  0  0  0
   26.1849   22.1173   13.1813 C   0  0  0  0  0  0  0  0  0  0  0  0
   26.4965   21.4848   12.1463 O   0  0  0  0  0  0  0  0  0  0  0  0
   25.7185   23.2683   13.0656 O   0  0  0  0  0  0  0  0  0  0  0  0
   25.4800   23.7561   13.8292 H   0  0  0  0  0  0  0  0  0  0  0  0
   27.8303   26.2305   12.9341 C   0  0  0  0  0  0  0  0  0  0  0  0
   27.8273   25.0052   12.2415 O   0  0  0  0  0  0  0  0  0  0  0  0
   27.6530   27.4201   12.3573 N   0  0  0  0  0  0  0  0  0  0  0  0
   27.8362   28.2322   12.8829 H   0  0  0  0  0  0  0  0  0  0  0  0
   27.2008   27.5652   10.9856 C   0  0  0  0  0  0  0  0  0  0  0  0
   26.0282   28.5085   10.8297 C   0  0  0  0  0  0  0  0  0  0  0  0
   26.0492   29.3700    9.9208 O   0  0  0  0  0  0  0  0  0  0  0  0
   25.0288   28.4552   11.5874 O   0  0  0  0  0  0  0  0  0  0  0  0
   24.9943   27.8177   12.2733 H   0  0  0  0  0  0  0  0  0  0  0  0
   29.5049   26.6935   14.6364 C   0  0  0  0  0  0  0  0  0  0  0  0
   29.8043   27.4049   16.2662 S   0  0  0  0  0  0  0  0  0  0  0  0
   31.5843   27.0825   16.1662 C   0  0  0  0  0  0  0  0  0  0  0  0
   32.1908   27.6184   14.8739 C   0  0  0  0  0  0  0  0  0  0  0  0
   32.7988   29.0041   15.0675 C   0  0  0  0  0  0  0  0  0  0  0  0
   32.3188   29.9999   14.0115 C   0  0  0  0  0  0  0  0  0  0  0  0
   30.9862   30.6535   14.3640 C   0  0  0  0  0  0  0  0  0  0  0  0
   31.0935   32.1753   14.2672 C   0  0  0  0  0  0  0  0  0  0  0  0
  8  9  1  0  0  0
  9 13  1  0  0  0
  9  7  1  0  0  0
 13 14  2  0  0  0
 13 15  1  0  0  0
  7  6  1  0  0  0
  6  2  1  0  0  0
  2  3  2  0  0  0
  2  4  1  0  0  0
  4  1  1  0  0  0
  1 17  1  0  0  0
  1 26  1  0  0  0
 17 18  2  0  0  0
 17 19  1  0  0  0
 26 27  1  0  0  0
 27 28  1  0  0  0
 28 29  1  0  0  0
 29 30  1  0  0  0
 30 31  1  0  0  0
 31 32  1  0  0  0
 32 33  1  0  0  0
 19 21  1  0  0  0
 21 22  1  0  0  0
 22 23  2  0  0  0
 22 24  1  0  0  0
  8 10  1  0  0  0
  8 11  1  0  0  0
  8 12  1  0  0  0
 15 16  1  0  0  0
  4  5  1  0  0  0
 19 20  1  0  0  0
 24 25  1  0  0  0
M  CHG 1   8   1
M  END
> <minimizedAffinity>
-5.44121

$$$$
1YDK_GTX_A_5100


 33 32  0  0  0  0  0  0  0  0999 V2000
   27.1550   24.9833   15.4559 C   0  0  0  0  0  0  0  0  0  0  0  0
   26.0581   25.2229   17.6145 C   0  0  0  0  0  0  0  0  0  0  0  0
   25.4443   26.4210   17.2259 O   0  0  0  0  0  0  0  0  0  0  0  0
   26.9099   24.5680   16.8287 N   0  0  0  0  0  0  0  0  0  0  0  0
   27.3858   23.7833   17.1852 H   0  0  0  0  0  0  0  0  0  0  0  0
   25.7440   24.6067   18.9627 C   0  0  0  0  0  0  0  0  0  0  0  0
   24.6098   23.5887   18.8508 C   0  0  0  0  0  0  0  0  0  0  0  0
   26.4931   22.1501   19.4778 N   0  0  0  0  0  0  0  0  0  0  0  0
   25.1499   22.1605   18.9267 C   0  0  0  0  0  0  0  0  0  0  0  0
   26.8357   21.1904   19.5204 H   0  0  0  0  0  0  0  0  0  0  0  0
   26.4784   22.5479   20.4169 H   0  0  0  0  0  0  0  0  0  0  0  0
   27.1089   22.7049   18.8832 H   0  0  0  0  0  0  0  0  0  0  0  0
   25.1605   21.5427   17.5545 C   0  0  0  0  0  0  0  0  0  0  0  0
   24.1169   21.0519   17.0663 O   0  0  0  0  0  0  0  0  0  0  0  0
   26.2103   21.5152   16.8816 O   0  0  0  0  0  0  0  0  0  0  0  0
   27.0005   21.8778   17.2311 H   0  0  0  0  0  0  0  0  0  0  0  0
   27.1795   23.7842   14.5592 C   0  0  0  0  0  0  0  0  0  0  0  0
   28.1515   22.7892   14.7747 O   0  0  0  0  0  0  0  0  0  0  0  0
   26.2693   23.7470   13.5848 N   0  0  0  0  0  0  0  0  0  0  0  0
   25.7397   24.5565   13.4016 H   0  0  0  0  0  0  0  0  0  0  0  0
   26.0284   22.5607   12.7837 C   0  0  0  0  0  0  0  0  0  0  0  0
   26.6764   22.6091   11.4174 C   0  0  0  0  0  0  0  0  0  0  0  0
   27.2637   21.5932   10.9795 O   0  0  0  0  0  0  0  0  0  0  0  0
   26.6445   23.6417   10.7044 O   0  0  0  0  0  0  0  0  0  0  0  0
   26.2100   24.4118   11.0144 H   0  0  0  0  0  0  0  0  0  0  0  0
   28.5206   25.6610   15.3309 C   0  0  0  0  0  0  0  0  0  0  0  0
   28.6742   26.7479   13.9002 S   0  0  0  0  0  0  0  0  0  0  0  0
   29.8597   27.8247   14.7473 C   0  0  0  0  0  0  0  0  0  0  0  0
   31.2808   27.6292   14.2303 C   0  0  0  0  0  0  0  0  0  0  0  0
   32.1225   28.8900   14.4012 C   0  0  0  0  0  0  0  0  0  0  0  0
   31.2692   30.1165   14.7248 C   0  0  0  0  0  0  0  0  0  0  0  0
   31.9283   31.4309   14.3186 C   0  0  0  0  0  0  0  0  0  0  0  0
   30.9042   32.5658   14.3163 C   0  0  0  0  0  0  0  0  0  0  0  0
  8  9  1  0  0  0
  9 13  1  0  0  0
  9  7  1  0  0  0
 13 14  2  0  0  0
 13 15  1  0  0  0
  7  6  1  0  0  0
  6  2  1  0  0  0
  2  3  2  0  0  0
  2  4  1  0  0  0
  4  1  1  0  0  0
  1 17  1  0  0  0
  1 26  1  0  0  0
 17 18  2  0  0  0
 17 19  1  0  0  0
 26 27  1  0  0  0
 27 28  1  0  0  0
 28 29  1  0  0  0
 29 30  1  0  0  0
 30 31  1  0  0  0
 31 32  1  0  0  0
 32 33  1  0  0  0
 19 21  1  0  0  0
 21 22  1  0  0  0
 22 23  2  0  0  0
 22 24  1  0  0  0
  8 10  1  0  0  0
  8 11  1  0  0  0
  8 12  1  0  0  0
 15 16  1  0  0  0
  4  5  1  0  0  0
 19 20  1  0  0  0
 24 25  1  0  0  0
M  CHG 1   8   1
M  END
> <minimizedAffinity>
-5.42437

$$$$
1YDK_GTX_A_5100


 33 32  0  0  0  0  0  0  0  0999 V2000
   31.3311   28.4238   14.9160 C   0  0  0  0  0  0  0  0  0  0  0  0
   29.2777   27.1219   14.8245 C   0  0  0  0  0  0  0  0  0  0  0  0
   29.0819   27.2403   16.2069 O   0  0  0  0  0  0  0  0  0  0  0  0
   30.3523   27.6113   14.2099 N   0  0  0  0  0  0  0  0  0  0  0  0
   30.4880   27.4187   13.2540 H   0  0  0  0  0  0  0  0  0  0  0  0
   28.2353   26.4402   13.9617 C   0  0  0  0  0  0  0  0  0  0  0  0
   28.0691   27.1634   12.6259 C   0  0  0  0  0  0  0  0  0  0  0  0
   26.8660   25.6033   11.1672 N   0  0  0  0  0  0  0  0  0  0  0  0
   26.7342   26.8034   11.9735 C   0  0  0  0  0  0  0  0  0  0  0  0
   25.9667   25.3796   10.7410 H   0  0  0  0  0  0  0  0  0  0  0  0
   27.1644   24.8275   11.7584 H   0  0  0  0  0  0  0  0  0  0  0  0
   27.5594   25.7597   10.4357 H   0  0  0  0  0  0  0  0  0  0  0  0
   26.2604   27.9430   11.1123 C   0  0  0  0  0  0  0  0  0  0  0  0
   26.9604   28.3593   10.1610 O   0  0  0  0  0  0  0  0  0  0  0  0
   25.1596   28.4865   11.3323 O   0  0  0  0  0  0  0  0  0  0  0  0
   24.6227   28.1879   12.0399 H   0  0  0  0  0  0  0  0  0  0  0  0
   30.8784   29.8509   14.9481 C   0  0  0  0  0  0  0  0  0  0  0  0
   30.7941   30.5687   13.7402 O   0  0  0  0  0  0  0  0  0  0  0  0
   30.5952   30.3620   16.1472 N   0  0  0  0  0  0  0  0  0  0  0  0
   30.8402   29.8475   16.9501 H   0  0  0  0  0  0  0  0  0  0  0  0
   29.9404   31.6465   16.3158 C   0  0  0  0  0  0  0  0  0  0  0  0
   29.0008   31.6979   17.5005 C   0  0  0  0  0  0  0  0  0  0  0  0
   28.4600   30.6420   17.9021 O   0  0  0  0  0  0  0  0  0  0  0  0
   28.7439   32.7720   18.0972 O   0  0  0  0  0  0  0  0  0  0  0  0
   29.1385   33.5725   17.8117 H   0  0  0  0  0  0  0  0  0  0  0  0
   32.6781   28.4001   14.1915 C   0  0  0  0  0  0  0  0  0  0  0  0
   33.5678   26.8389   14.3435 S   0  0  0  0  0  0  0  0  0  0  0  0
   34.8737   27.5910   15.3492 C   0  0  0  0  0  0  0  0  0  0  0  0
   36.2625   27.3123   14.7846 C   0  0  0  0  0  0  0  0  0  0  0  0
   36.9600   26.1810   15.5336 C   0  0  0  0  0  0  0  0  0  0  0  0
   37.2491   24.9810   14.6317 C   0  0  0  0  0  0  0  0  0  0  0  0
   37.5110   23.6947   15.4090 C   0  0  0  0  0  0  0  0  0  0  0  0
   36.3615   23.4092   16.3755 C   0  0  0  0  0  0  0  0  0  0  0  0
  8  9  1  0  0  0
  9 13  1  0  0  0
  9  7  1  0  0  0
 13 14  2  0  0  0
 13 15  1  0  0  0
  7  6  1  0  0  0
  6  2  1  0  0  0
  2  3  2  0  0  0
  2  4  1  0  0  0
  4  1  1  0  0  0
  1 17  1  0  0  0
  1 26  1  0  0  0
 17 18  2  0  0  0
 17 19  1  0  0  0
 26 27  1  0  0  0
 27 28  1  0  0  0
 28 29  1  0  0  0
 29 30  1  0  0  0
 30 31  1  0  0  0
 31 32  1  0  0  0
 32 33  1  0  0  0
 19 21  1  0  0  0
 21 22  1  0  0  0
 22 23  2  0  0  0
 22 24  1  0  0  0
  8 10  1  0  0  0
  8 11  1  0  0  0
  8 12  1  0  0  0
 15 16  1  0  0  0
  4  5  1  0  0  0
 19 20  1  0  0  0
 24 25  1  0  0  0
M  CHG 1   8   1
M  END
> <minimizedAffinity>
-5.28116

$$$$
1YDK_GTX_A_5100


 33 32  0  0  0  0  0  0  0  0999 V2000
   28.5513   26.6601   14.4547 C   0  0  0  0  0  0  0  0  0  0  0  0
   27.6648   25.0394   16.0381 C   0  0  0  0  0  0  0  0  0  0  0  0
   26.5532   25.8454   16.3174 O   0  0  0  0  0  0  0  0  0  0  0  0
   28.6417   25.4265   15.2210 N   0  0  0  0  0  0  0  0  0  0  0  0
   29.4451   24.8643   15.1329 H   0  0  0  0  0  0  0  0  0  0  0  0
   27.7797   23.6585   16.6513 C   0  0  0  0  0  0  0  0  0  0  0  0
   26.7656   22.6968   16.0336 C   0  0  0  0  0  0  0  0  0  0  0  0
   26.0197   22.9009   13.7074 N   0  0  0  0  0  0  0  0  0  0  0  0
   27.0927   22.4296   14.5643 C   0  0  0  0  0  0  0  0  0  0  0  0
   26.2559   22.7142   12.7329 H   0  0  0  0  0  0  0  0  0  0  0  0
   25.8941   23.9044   13.8406 H   0  0  0  0  0  0  0  0  0  0  0  0
   25.1552   22.4154   13.9468 H   0  0  0  0  0  0  0  0  0  0  0  0
   27.3052   20.9558   14.3461 C   0  0  0  0  0  0  0  0  0  0  0  0
   26.4161   20.2539   13.8120 O   0  0  0  0  0  0  0  0  0  0  0  0
   28.3739   20.4132   14.6911 O   0  0  0  0  0  0  0  0  0  0  0  0
   29.0501   20.9231   15.0922 H   0  0  0  0  0  0  0  0  0  0  0  0
   28.0022   26.3722   13.0915 C   0  0  0  0  0  0  0  0  0  0  0  0
   27.9173   25.0361   12.6570 O   0  0  0  0  0  0  0  0  0  0  0  0
   27.6382   27.4255   12.3584 N   0  0  0  0  0  0  0  0  0  0  0  0
   27.8855   28.3261   12.6697 H   0  0  0  0  0  0  0  0  0  0  0  0
   26.8919   27.2967   11.1200 C   0  0  0  0  0  0  0  0  0  0  0  0
   25.9693   28.4634   10.8433 C   0  0  0  0  0  0  0  0  0  0  0  0
   26.2729   29.2889    9.9516 O   0  0  0  0  0  0  0  0  0  0  0  0
   24.9026   28.6318   11.4834 O   0  0  0  0  0  0  0  0  0  0  0  0
   24.6581   28.0252   12.1543 H   0  0  0  0  0  0  0  0  0  0  0  0
   29.9370   27.2765   14.2556 C   0  0  0  0  0  0  0  0  0  0  0  0
   30.3897   28.4898   15.5107 S   0  0  0  0  0  0  0  0  0  0  0  0
   32.1302   28.4763   15.0079 C   0  0  0  0  0  0  0  0  0  0  0  0
   32.5490   27.1275   14.4331 C   0  0  0  0  0  0  0  0  0  0  0  0
   33.3357   26.3016   15.4461 C   0  0  0  0  0  0  0  0  0  0  0  0
   34.7784   26.0605   15.0015 C   0  0  0  0  0  0  0  0  0  0  0  0
   35.0245   24.6389   14.5058 C   0  0  0  0  0  0  0  0  0  0  0  0
   36.2382   24.0294   15.2073 C   0  0  0  0  0  0  0  0  0  0  0  0
  8  9  1  0  0  0
  9 13  1  0  0  0
  9  7  1  0  0  0
 13 14  2  0  0  0
 13 15  1  0  0  0
  7  6  1  0  0  0
  6  2  1  0  0  0
  2  3  2  0  0  0
  2  4  1  0  0  0
  4  1  1  0  0  0
  1 17  1  0  0  0
  1 26  1  0  0  0
 17 18  2  0  0  0
 17 19  1  0  0  0
 26 27  1  0  0  0
 27 28  1  0  0  0
 28 29  1  0  0  0
 29 30  1  0  0  0
 30 31  1  0  0  0
 31 32  1  0  0  0
 32 33  1  0  0  0
 19 21  1  0  0  0
 21 22  1  0  0  0
 22 23  2  0  0  0
 22 24  1  0  0  0
  8 10  1  0  0  0
  8 11  1  0  0  0
  8 12  1  0  0  0
 15 16  1  0  0  0
  4  5  1  0  0  0
 19 20  1  0  0  0
 24 25  1  0  0  0
M  CHG 1   8   1
M  END
> <minimizedAffinity>
-5.21484

$$$$
1YDK_GTX_A_5100


 33 32  0  0  0  0  0  0  0  0999 V2000
   30.5653   27.7783   14.7860 C   0  0  0  0  0  0  0  0  0  0  0  0
   28.6285   26.8796   13.6194 C   0  0  0  0  0  0  0  0  0  0  0  0
   28.0067   26.5219   14.8230 O   0  0  0  0  0  0  0  0  0  0  0  0
   29.8491   27.4087   13.5746 N   0  0  0  0  0  0  0  0  0  0  0  0
   30.2778   27.5536   12.7002 H   0  0  0  0  0  0  0  0  0  0  0  0
   27.9035   26.6953   12.3016 C   0  0  0  0  0  0  0  0  0  0  0  0
   26.7066   25.7585   12.4592 C   0  0  0  0  0  0  0  0  0  0  0  0
   26.8235   23.7347   11.0809 N   0  0  0  0  0  0  0  0  0  0  0  0
   27.1451   24.2960   12.3806 C   0  0  0  0  0  0  0  0  0  0  0  0
   27.1231   22.7602   11.0478 H   0  0  0  0  0  0  0  0  0  0  0  0
   27.3051   24.2633   10.3536 H   0  0  0  0  0  0  0  0  0  0  0  0
   25.8163   23.7860   10.9281 H   0  0  0  0  0  0  0  0  0  0  0  0
   26.4645   23.4979   13.4597 C   0  0  0  0  0  0  0  0  0  0  0  0
   25.7933   22.4796   13.1749 O   0  0  0  0  0  0  0  0  0  0  0  0
   26.5636   23.8381   14.6556 O   0  0  0  0  0  0  0  0  0  0  0  0
   27.0618   24.5972   14.8870 H   0  0  0  0  0  0  0  0  0  0  0  0
   30.2953   29.2134   15.1178 C   0  0  0  0  0  0  0  0  0  0  0  0
   29.6121   29.5227   16.3090 O   0  0  0  0  0  0  0  0  0  0  0  0
   30.7148   30.1209   14.2348 N   0  0  0  0  0  0  0  0  0  0  0  0
   31.0315   29.8131   13.3550 H   0  0  0  0  0  0  0  0  0  0  0  0
   30.7230   31.5444   14.5194 C   0  0  0  0  0  0  0  0  0  0  0  0
   31.8067   31.9633   15.4884 C   0  0  0  0  0  0  0  0  0  0  0  0
   31.5409   32.7970   16.3845 O   0  0  0  0  0  0  0  0  0  0  0  0
   32.9712   31.4995   15.4222 O   0  0  0  0  0  0  0  0  0  0  0  0
   33.1897   30.8747   14.7588 H   0  0  0  0  0  0  0  0  0  0  0  0
   32.0756   27.6444   14.5842 C   0  0  0  0  0  0  0  0  0  0  0  0
   32.9044   26.6721   15.8569 S   0  0  0  0  0  0  0  0  0  0  0  0
   34.0189   25.9024   14.6535 C   0  0  0  0  0  0  0  0  0  0  0  0
   34.4873   24.5242   15.1077 C   0  0  0  0  0  0  0  0  0  0  0  0
   35.9502   24.2791   14.7514 C   0  0  0  0  0  0  0  0  0  0  0  0
   36.7098   23.5743   15.8753 C   0  0  0  0  0  0  0  0  0  0  0  0
   38.0335   24.2493   16.2210 C   0  0  0  0  0  0  0  0  0  0  0  0
   38.8190   23.4058   17.2251 C   0  0  0  0  0  0  0  0  0  0  0  0
  8  9  1  0  0  0
  9 13  1  0  0  0
  9  7  1  0  0  0
 13 14  2  0  0  0
 13 15  1  0  0  0
  7  6  1  0  0  0
  6  2  1  0  0  0
  2  3  2  0  0  0
  2  4  1  0  0  0
  4  1  1  0  0  0
  1 17  1  0  0  0
  1 26  1  0  0  0
 17 18  2  0  0  0
 17 19  1  0  0  0
 26 27  1  0  0  0
 27 28  1  0  0  0
 28 29  1  0  0  0
 29 30  1  0  0  0
 30 31  1  0  0  0
 31 32  1  0  0  0
 32 33  1  0  0  0
 19 21  1  0  0  0
 21 22  1  0  0  0
 22 23  2  0  0  0
 22 24  1  0  0  0
  8 10  1  0  0  0
  8 11  1  0  0  0
  8 12  1  0  0  0
 15 16  1  0  0  0
  4  5  1  0  0  0
 19 20  1  0  0  0
 24 25  1  0  0  0
M  CHG 1   8   1
M  END
> <minimizedAffinity>
-5.19753

$$$$
1YDK_GTX_A_5100


 33 32  0  0  0  0  0  0  0  0999 V2000
   31.1263   28.4798   14.8031 C   0  0  0  0  0  0  0  0  0  0  0  0
   29.3149   26.9999   14.1337 C   0  0  0  0  0  0  0  0  0  0  0  0
   29.5279   26.1592   15.2342 O   0  0  0  0  0  0  0  0  0  0  0  0
   30.0884   28.0524   13.8773 N   0  0  0  0  0  0  0  0  0  0  0  0
   29.9550   28.5539   13.0407 H   0  0  0  0  0  0  0  0  0  0  0  0
   28.1540   26.7467   13.1933 C   0  0  0  0  0  0  0  0  0  0  0  0
   27.3964   25.4786   13.5844 C   0  0  0  0  0  0  0  0  0  0  0  0
   26.7928   25.0312   11.2510 N   0  0  0  0  0  0  0  0  0  0  0  0
   27.4035   24.4648   12.4401 C   0  0  0  0  0  0  0  0  0  0  0  0
   26.8068   24.3412   10.4999 H   0  0  0  0  0  0  0  0  0  0  0  0
   27.3145   25.8588   10.9621 H   0  0  0  0  0  0  0  0  0  0  0  0
   25.8280   25.2917   11.4554 H   0  0  0  0  0  0  0  0  0  0  0  0
   26.6580   23.2235   12.8502 C   0  0  0  0  0  0  0  0  0  0  0  0
   27.2700   22.1525   13.0671 O   0  0  0  0  0  0  0  0  0  0  0  0
   25.4182   23.2458   12.9842 O   0  0  0  0  0  0  0  0  0  0  0  0
   24.9441   24.0384   12.8261 H   0  0  0  0  0  0  0  0  0  0  0  0
   30.9602   29.9349   15.1158 C   0  0  0  0  0  0  0  0  0  0  0  0
   30.7956   30.8472   14.0567 O   0  0  0  0  0  0  0  0  0  0  0  0
   30.9969   30.2779   16.4043 N   0  0  0  0  0  0  0  0  0  0  0  0
   31.2818   29.6055   17.0645 H   0  0  0  0  0  0  0  0  0  0  0  0
   30.6335   31.6032   16.8720 C   0  0  0  0  0  0  0  0  0  0  0  0
   29.1533   31.7680   17.1385 C   0  0  0  0  0  0  0  0  0  0  0  0
   28.5410   30.8802   17.7754 O   0  0  0  0  0  0  0  0  0  0  0  0
   28.5152   32.7723   16.7386 O   0  0  0  0  0  0  0  0  0  0  0  0
   28.9554   33.4473   16.2605 H   0  0  0  0  0  0  0  0  0  0  0  0
   32.5121   28.3143   14.1769 C   0  0  0  0  0  0  0  0  0  0  0  0
   33.8750   28.6874   15.2973 S   0  0  0  0  0  0  0  0  0  0  0  0
   34.7204   27.1319   14.9123 C   0  0  0  0  0  0  0  0  0  0  0  0
   33.8130   25.9230   15.1128 C   0  0  0  0  0  0  0  0  0  0  0  0
   34.5448   24.6146   14.8306 C   0  0  0  0  0  0  0  0  0  0  0  0
   36.0631   24.7922   14.8137 C   0  0  0  0  0  0  0  0  0  0  0  0
   36.7981   23.7599   15.6631 C   0  0  0  0  0  0  0  0  0  0  0  0
   36.4845   23.9642   17.1452 C   0  0  0  0  0  0  0  0  0  0  0  0
  8  9  1  0  0  0
  9 13  1  0  0  0
  9  7  1  0  0  0
 13 14  2  0  0  0
 13 15  1  0  0  0
  7  6  1  0  0  0
  6  2  1  0  0  0
  2  3  2  0  0  0
  2  4  1  0  0  0
  4  1  1  0  0  0
  1 17  1  0  0  0
  1 26  1  0  0  0
 17 18  2  0  0  0
 17 19  1  0  0  0
 26 27  1  0  0  0
 27 28  1  0  0  0
 28 29  1  0  0  0
 29 30  1  0  0  0
 30 31  1  0  0  0
 31 32  1  0  0  0
 32 33  1  0  0  0
 19 21  1  0  0  0
 21 22  1  0  0  0
 22 23  2  0  0  0
 22 24  1  0  0  0
  8 10  1  0  0  0
  8 11  1  0  0  0
  8 12  1  0  0  0
 15 16  1  0  0  0
  4  5  1  0  0  0
 19 20  1  0  0  0
 24 25  1  0  0  0
M  CHG 1   8   1
M  END
> <minimizedAffinity>
-5.17425

$$$$
1YDK_GTX_A_5100


 33 32  0  0  0  0  0  0  0  0999 V2000
   27.4127   23.3761   16.4190 C   0  0  0  0  0  0  0  0  0  0  0  0
   28.3853   25.3698   15.4196 C   0  0  0  0  0  0  0  0  0  0  0  0
   29.6567   25.0625   15.9221 O   0  0  0  0  0  0  0  0  0  0  0  0
   27.3113   24.6320   15.6914 N   0  0  0  0  0  0  0  0  0  0  0  0
   26.4265   24.9438   15.3928 H   0  0  0  0  0  0  0  0  0  0  0  0
   28.1934   26.5649   14.5080 C   0  0  0  0  0  0  0  0  0  0  0  0
   28.7956   26.3056   13.1278 C   0  0  0  0  0  0  0  0  0  0  0  0
   26.6656   27.1845   12.2910 N   0  0  0  0  0  0  0  0  0  0  0  0
   27.6997   26.1902   12.0680 C   0  0  0  0  0  0  0  0  0  0  0  0
   25.9448   27.0918   11.5753 H   0  0  0  0  0  0  0  0  0  0  0  0
   27.0749   28.1175   12.2425 H   0  0  0  0  0  0  0  0  0  0  0  0
   26.2506   27.0428   13.2120 H   0  0  0  0  0  0  0  0  0  0  0  0
   27.0945   24.8128   12.1042 C   0  0  0  0  0  0  0  0  0  0  0  0
   27.5863   23.8804   11.4280 O   0  0  0  0  0  0  0  0  0  0  0  0
   26.0953   24.5798   12.8133 O   0  0  0  0  0  0  0  0  0  0  0  0
   25.7142   25.2655   13.3258 H   0  0  0  0  0  0  0  0  0  0  0  0
   27.3308   22.2268   15.4624 C   0  0  0  0  0  0  0  0  0  0  0  0
   28.2918   21.2015   15.5420 O   0  0  0  0  0  0  0  0  0  0  0  0
   26.3409   22.2613   14.5690 N   0  0  0  0  0  0  0  0  0  0  0  0
   25.8186   23.0905   14.4741 H   0  0  0  0  0  0  0  0  0  0  0  0
   26.0031   21.1252   13.7310 C   0  0  0  0  0  0  0  0  0  0  0  0
   24.8991   21.4114   12.7368 C   0  0  0  0  0  0  0  0  0  0  0  0
   23.7362   21.0140   12.9786 O   0  0  0  0  0  0  0  0  0  0  0  0
   25.1130   22.0380   11.6703 O   0  0  0  0  0  0  0  0  0  0  0  0
   25.9762   22.3435   11.4715 H   0  0  0  0  0  0  0  0  0  0  0  0
   26.2489   23.2230   17.3998 C   0  0  0  0  0  0  0  0  0  0  0  0
   26.4891   21.9263   18.6298 S   0  0  0  0  0  0  0  0  0  0  0  0
   26.7224   23.1280   19.9654 C   0  0  0  0  0  0  0  0  0  0  0  0
   28.0193   22.8880   20.7306 C   0  0  0  0  0  0  0  0  0  0  0  0
   28.8873   24.1416   20.7781 C   0  0  0  0  0  0  0  0  0  0  0  0
   29.0706   24.7718   19.3974 C   0  0  0  0  0  0  0  0  0  0  0  0
   28.8469   26.2808   19.3915 C   0  0  0  0  0  0  0  0  0  0  0  0
   27.4703   26.6163   18.8176 C   0  0  0  0  0  0  0  0  0  0  0  0
  8  9  1  0  0  0
  9 13  1  0  0  0
  9  7  1  0  0  0
 13 14  2  0  0  0
 13 15  1  0  0  0
  7  6  1  0  0  0
  6  2  1  0  0  0
  2  3  2  0  0  0
  2  4  1  0  0  0
  4  1  1  0  0  0
  1 17  1  0  0  0
  1 26  1  0  0  0
 17 18  2  0  0  0
 17 19  1  0  0  0
 26 27  1  0  0  0
 27 28  1  0  0  0
 28 29  1  0  0  0
 29 30  1  0  0  0
 30 31  1  0  0  0
 31 32  1  0  0  0
 32 33  1  0  0  0
 19 21  1  0  0  0
 21 22  1  0  0  0
 22 23  2  0  0  0
 22 24  1  0  0  0
  8 10  1  0  0  0
  8 11  1  0  0  0
  8 12  1  0  0  0
 15 16  1  0  0  0
  4  5  1  0  0  0
 19 20  1  0  0  0
 24 25  1  0  0  0
M  CHG 1   8   1
M  END
> <minimizedAffinity>
-5.16146

$$$$
