4J93_1JR_A_202


 23 26  0  0  0  0  0  0  0  0999 V2000
   -2.9836    3.2353    9.2778 C   0  0  0  0  0  0  0  0  0  0  0  0
   -3.1597    4.2137   10.2807 C   0  0  0  0  0  0  0  0  0  0  0  0
   -3.1532    2.0353    9.9165 C   0  0  0  0  0  0  0  0  0  0  0  0
   -3.0098    0.9266    9.0467 C   0  0  0  0  0  0  0  0  0  0  0  0
   -2.6689    2.9929    7.8450 C   0  0  0  0  0  0  0  0  0  0  0  0
   -3.4271    3.6127   11.4658 N   0  0  0  0  0  0  0  0  0  0  0  0
   -3.4205    2.2831   11.2085 N   0  0  0  0  0  0  0  0  0  0  0  0
   -2.8694    1.5275    7.7953 N   0  0  0  0  0  0  0  0  0  0  0  0
   -3.0329   -0.2633    9.3032 O   0  0  0  0  0  0  0  0  0  0  0  0
   -3.5916    4.0508   12.3319 H   0  0  0  0  0  0  0  0  0  0  0  0
   -2.9009    1.0203    6.9521 H   0  0  0  0  0  0  0  0  0  0  0  0
   -2.9673    8.4778   10.1002 C   0  0  0  0  0  0  0  0  0  0  0  0
   -3.5727    7.8501   11.1878 C   0  0  0  0  0  0  0  0  0  0  0  0
   -2.4213    7.7097    9.0700 C   0  0  0  0  0  0  0  0  0  0  0  0
   -3.6338    6.4531   11.2383 C   0  0  0  0  0  0  0  0  0  0  0  0
   -2.4764    6.3135    9.1219 C   0  0  0  0  0  0  0  0  0  0  0  0
   -3.0912    5.6710   10.2072 C   0  0  0  0  0  0  0  0  0  0  0  0
   -3.9527    5.2266    5.0540 C   0  0  0  0  0  0  0  0  0  0  0  0
   -3.0862    4.5647    5.9193 C   0  0  0  0  0  0  0  0  0  0  0  0
   -5.3141    5.0253    5.2026 C   0  0  0  0  0  0  0  0  0  0  0  0
   -4.9856    3.5864    6.9650 C   0  0  0  0  0  0  0  0  0  0  0  0
   -3.5984    3.7276    6.9194 C   0  0  0  0  0  0  0  0  0  0  0  0
   -5.8536    4.2205    6.1415 N   0  0  0  0  0  0  0  0  0  0  0  0
 20 18  2  0  0  0
 20 23  1  0  0  0
 18 19  1  0  0  0
 23 21  2  0  0  0
 19 22  2  0  0  0
 21 22  1  0  0  0
 22  5  1  0  0  0
  8  5  1  0  0  0
  8  4  1  0  0  0
  5  1  1  0  0  0
  4  9  2  0  0  0
  4  3  1  0  0  0
 14 16  2  0  0  0
 14 12  1  0  0  0
 16 17  1  0  0  0
  1  3  1  0  0  0
  1  2  2  0  0  0
  3  7  2  0  0  0
 12 13  2  0  0  0
 17  2  1  0  0  0
 17 15  2  0  0  0
  2  6  1  0  0  0
  7  6  1  0  0  0
 13 15  1  0  0  0
  6 10  1  0  0  0
  8 11  1  0  0  0
M  END
> <minimizedAffinity>
-8.43790

$$$$
4J93_1JR_A_202


 23 26  0  0  0  0  0  0  0  0999 V2000
   -3.7683    2.7552    9.5687 C   0  0  0  0  0  0  0  0  0  0  0  0
   -3.6124    2.6157    8.1722 C   0  0  0  0  0  0  0  0  0  0  0  0
   -3.1740    1.6443   10.1067 C   0  0  0  0  0  0  0  0  0  0  0  0
   -3.2375    1.6199   11.5215 C   0  0  0  0  0  0  0  0  0  0  0  0
   -4.3297    3.5937   10.6606 C   0  0  0  0  0  0  0  0  0  0  0  0
   -2.9475    1.4669    7.8975 N   0  0  0  0  0  0  0  0  0  0  0  0
   -2.6904    0.8996    9.1000 N   0  0  0  0  0  0  0  0  0  0  0  0
   -3.7975    2.8600   11.8304 N   0  0  0  0  0  0  0  0  0  0  0  0
   -2.8703    0.7549   12.2955 O   0  0  0  0  0  0  0  0  0  0  0  0
   -2.7028    1.1181    7.0099 H   0  0  0  0  0  0  0  0  0  0  0  0
   -3.8353    3.2161   12.7475 H   0  0  0  0  0  0  0  0  0  0  0  0
   -4.9122    5.1476    4.9859 C   0  0  0  0  0  0  0  0  0  0  0  0
   -5.8465    4.5514    5.8316 C   0  0  0  0  0  0  0  0  0  0  0  0
   -3.5494    4.9174    5.1837 C   0  0  0  0  0  0  0  0  0  0  0  0
   -5.4128    3.7216    6.8713 C   0  0  0  0  0  0  0  0  0  0  0  0
   -3.1142    4.0931    6.2259 C   0  0  0  0  0  0  0  0  0  0  0  0
   -4.0459    3.4806    7.0777 C   0  0  0  0  0  0  0  0  0  0  0  0
   -2.6673    6.7878    9.4518 C   0  0  0  0  0  0  0  0  0  0  0  0
   -3.1020    5.4665    9.5037 C   0  0  0  0  0  0  0  0  0  0  0  0
   -2.9912    7.6302   10.5014 C   0  0  0  0  0  0  0  0  0  0  0  0
   -4.1210    5.9546   11.5969 C   0  0  0  0  0  0  0  0  0  0  0  0
   -3.8388    5.0138   10.6062 C   0  0  0  0  0  0  0  0  0  0  0  0
   -3.7079    7.2439   11.5773 N   0  0  0  0  0  0  0  0  0  0  0  0
 20 18  2  0  0  0
 20 23  1  0  0  0
 18 19  1  0  0  0
 23 21  2  0  0  0
 19 22  2  0  0  0
 21 22  1  0  0  0
 22  5  1  0  0  0
  8  5  1  0  0  0
  8  4  1  0  0  0
  5  1  1  0  0  0
  4  9  2  0  0  0
  4  3  1  0  0  0
 14 16  2  0  0  0
 14 12  1  0  0  0
 16 17  1  0  0  0
  1  3  1  0  0  0
  1  2  2  0  0  0
  3  7  2  0  0  0
 12 13  2  0  0  0
 17  2  1  0  0  0
 17 15  2  0  0  0
  2  6  1  0  0  0
  7  6  1  0  0  0
 13 15  1  0  0  0
  6 10  1  0  0  0
  8 11  1  0  0  0
M  END
> <minimizedAffinity>
-7.25579

$$$$
4J93_1JR_A_202


 23 26  0  0  0  0  0  0  0  0999 V2000
   -3.9109    3.1188    7.3950 C   0  0  0  0  0  0  0  0  0  0  0  0
   -2.8983    2.3671    8.0304 C   0  0  0  0  0  0  0  0  0  0  0  0
   -3.2578    3.8793    6.4613 C   0  0  0  0  0  0  0  0  0  0  0  0
   -4.1348    4.7072    5.7185 C   0  0  0  0  0  0  0  0  0  0  0  0
   -5.3650    3.4261    7.3541 C   0  0  0  0  0  0  0  0  0  0  0  0
   -1.6935    2.6705    7.4885 N   0  0  0  0  0  0  0  0  0  0  0  0
   -1.9481    3.5933    6.5306 N   0  0  0  0  0  0  0  0  0  0  0  0
   -5.3947    4.3098    6.1674 N   0  0  0  0  0  0  0  0  0  0  0  0
   -3.8753    5.5417    4.8709 O   0  0  0  0  0  0  0  0  0  0  0  0
   -0.8172    2.2982    7.7388 H   0  0  0  0  0  0  0  0  0  0  0  0
   -6.2312    4.5928    5.7323 H   0  0  0  0  0  0  0  0  0  0  0  0
   -3.1528   -0.4722   11.2125 C   0  0  0  0  0  0  0  0  0  0  0  0
   -3.3521    0.8839   11.4671 C   0  0  0  0  0  0  0  0  0  0  0  0
   -2.8718   -0.9015    9.9140 C   0  0  0  0  0  0  0  0  0  0  0  0
   -3.2647    1.8078   10.4198 C   0  0  0  0  0  0  0  0  0  0  0  0
   -2.7899    0.0198    8.8655 C   0  0  0  0  0  0  0  0  0  0  0  0
   -2.9798    1.3881    9.1115 C   0  0  0  0  0  0  0  0  0  0  0  0
   -7.3261    0.2582    8.0927 C   0  0  0  0  0  0  0  0  0  0  0  0
   -6.5289    1.3857    8.2680 C   0  0  0  0  0  0  0  0  0  0  0  0
   -7.7949   -0.0268    6.8218 C   0  0  0  0  0  0  0  0  0  0  0  0
   -6.7501    1.8212    5.9400 C   0  0  0  0  0  0  0  0  0  0  0  0
   -6.2084    2.1951    7.1701 C   0  0  0  0  0  0  0  0  0  0  0  0
   -7.5236    0.7285    5.7372 N   0  0  0  0  0  0  0  0  0  0  0  0
 20 18  2  0  0  0
 20 23  1  0  0  0
 18 19  1  0  0  0
 23 21  2  0  0  0
 19 22  2  0  0  0
 21 22  1  0  0  0
 22  5  1  0  0  0
  8  5  1  0  0  0
  8  4  1  0  0  0
  5  1  1  0  0  0
  4  9  2  0  0  0
  4  3  1  0  0  0
 14 16  2  0  0  0
 14 12  1  0  0  0
 16 17  1  0  0  0
  1  3  1  0  0  0
  1  2  2  0  0  0
  3  7  2  0  0  0
 12 13  2  0  0  0
 17  2  1  0  0  0
 17 15  2  0  0  0
  2  6  1  0  0  0
  7  6  1  0  0  0
 13 15  1  0  0  0
  6 10  1  0  0  0
  8 11  1  0  0  0
M  END
> <minimizedAffinity>
-6.11175

$$$$
4J93_1JR_A_202


 23 26  0  0  0  0  0  0  0  0999 V2000
   -3.6552    2.3636    9.7588 C   0  0  0  0  0  0  0  0  0  0  0  0
   -3.4932    3.6524    9.2050 C   0  0  0  0  0  0  0  0  0  0  0  0
   -3.1536    2.4562   11.0303 C   0  0  0  0  0  0  0  0  0  0  0  0
   -3.2381    1.2350   11.7429 C   0  0  0  0  0  0  0  0  0  0  0  0
   -4.1178    0.9727    9.5096 C   0  0  0  0  0  0  0  0  0  0  0  0
   -2.9209    4.4751   10.1175 N   0  0  0  0  0  0  0  0  0  0  0  0
   -2.7304    3.7155   11.2224 N   0  0  0  0  0  0  0  0  0  0  0  0
   -3.9485    0.4117   10.8686 N   0  0  0  0  0  0  0  0  0  0  0  0
   -2.8278    0.9611   12.8558 O   0  0  0  0  0  0  0  0  0  0  0  0
   -2.6917    5.4255   10.0014 H   0  0  0  0  0  0  0  0  0  0  0  0
   -4.3063   -0.4666   11.1329 H   0  0  0  0  0  0  0  0  0  0  0  0
   -4.4536    5.1591    5.3242 C   0  0  0  0  0  0  0  0  0  0  0  0
   -3.1915    5.3873    5.8709 C   0  0  0  0  0  0  0  0  0  0  0  0
   -5.4033    4.4347    6.0470 C   0  0  0  0  0  0  0  0  0  0  0  0
   -2.8856    4.8925    7.1435 C   0  0  0  0  0  0  0  0  0  0  0  0
   -5.0971    3.9346    7.3164 C   0  0  0  0  0  0  0  0  0  0  0  0
   -3.8333    4.1657    7.8803 C   0  0  0  0  0  0  0  0  0  0  0  0
   -7.1866    0.3068    7.3728 C   0  0  0  0  0  0  0  0  0  0  0  0
   -5.8602    0.3731    7.7899 C   0  0  0  0  0  0  0  0  0  0  0  0
   -8.1705    0.7755    8.2263 C   0  0  0  0  0  0  0  0  0  0  0  0
   -6.6193    1.3418    9.8255 C   0  0  0  0  0  0  0  0  0  0  0  0
   -5.5458    0.9161    9.0428 C   0  0  0  0  0  0  0  0  0  0  0  0
   -7.9182    1.2951    9.4456 N   0  0  0  0  0  0  0  0  0  0  0  0
 20 18  2  0  0  0
 20 23  1  0  0  0
 18 19  1  0  0  0
 23 21  2  0  0  0
 19 22  2  0  0  0
 21 22  1  0  0  0
 22  5  1  0  0  0
  8  5  1  0  0  0
  8  4  1  0  0  0
  5  1  1  0  0  0
  4  9  2  0  0  0
  4  3  1  0  0  0
 14 16  2  0  0  0
 14 12  1  0  0  0
 16 17  1  0  0  0
  1  3  1  0  0  0
  1  2  2  0  0  0
  3  7  2  0  0  0
 12 13  2  0  0  0
 17  2  1  0  0  0
 17 15  2  0  0  0
  2  6  1  0  0  0
  7  6  1  0  0  0
 13 15  1  0  0  0
  6 10  1  0  0  0
  8 11  1  0  0  0
M  END
> <minimizedAffinity>
-5.81293

$$$$
4J93_1JR_A_202


 23 26  0  0  0  0  0  0  0  0999 V2000
   -3.5382    3.1047    7.7975 C   0  0  0  0  0  0  0  0  0  0  0  0
   -4.3352    2.1416    8.4542 C   0  0  0  0  0  0  0  0  0  0  0  0
   -3.9559    3.0837    6.4929 C   0  0  0  0  0  0  0  0  0  0  0  0
   -3.2527    4.0042    5.6777 C   0  0  0  0  0  0  0  0  0  0  0  0
   -2.4349    4.0899    7.9479 C   0  0  0  0  0  0  0  0  0  0  0  0
   -5.1935    1.5767    7.5702 N   0  0  0  0  0  0  0  0  0  0  0  0
   -4.9395    2.1769    6.3831 N   0  0  0  0  0  0  0  0  0  0  0  0
   -2.4591    4.6921    6.5962 N   0  0  0  0  0  0  0  0  0  0  0  0
   -3.3308    4.1874    4.4767 O   0  0  0  0  0  0  0  0  0  0  0  0
   -5.8615    0.8769    7.7529 H   0  0  0  0  0  0  0  0  0  0  0  0
   -1.9584    5.5076    6.3651 H   0  0  0  0  0  0  0  0  0  0  0  0
   -4.4023    0.8879   12.5379 C   0  0  0  0  0  0  0  0  0  0  0  0
   -5.4865    1.5803   12.0005 C   0  0  0  0  0  0  0  0  0  0  0  0
   -3.2944    0.6026   11.7376 C   0  0  0  0  0  0  0  0  0  0  0  0
   -5.4558    1.9895   10.6628 C   0  0  0  0  0  0  0  0  0  0  0  0
   -3.2647    1.0058   10.3991 C   0  0  0  0  0  0  0  0  0  0  0  0
   -4.3463    1.7110    9.8500 C   0  0  0  0  0  0  0  0  0  0  0  0
   -3.1894    5.6243   11.3396 C   0  0  0  0  0  0  0  0  0  0  0  0
   -2.9557    4.6822   10.3419 C   0  0  0  0  0  0  0  0  0  0  0  0
   -3.1582    6.9659   11.0002 C   0  0  0  0  0  0  0  0  0  0  0  0
   -2.6843    6.4769    8.8045 C   0  0  0  0  0  0  0  0  0  0  0  0
   -2.7086    5.1000    9.0274 C   0  0  0  0  0  0  0  0  0  0  0  0
   -2.9128    7.4166    9.7524 N   0  0  0  0  0  0  0  0  0  0  0  0
 20 18  2  0  0  0
 20 23  1  0  0  0
 18 19  1  0  0  0
 23 21  2  0  0  0
 19 22  2  0  0  0
 21 22  1  0  0  0
 22  5  1  0  0  0
  8  5  1  0  0  0
  8  4  1  0  0  0
  5  1  1  0  0  0
  4  9  2  0  0  0
  4  3  1  0  0  0
 14 16  2  0  0  0
 14 12  1  0  0  0
 16 17  1  0  0  0
  1  3  1  0  0  0
  1  2  2  0  0  0
  3  7  2  0  0  0
 12 13  2  0  0  0
 17  2  1  0  0  0
 17 15  2  0  0  0
  2  6  1  0  0  0
  7  6  1  0  0  0
 13 15  1  0  0  0
  6 10  1  0  0  0
  8 11  1  0  0  0
M  END
> <minimizedAffinity>
-5.80024

$$$$
4J93_1JR_A_202


 23 26  0  0  0  0  0  0  0  0999 V2000
   -4.3243    1.6838    9.0566 C   0  0  0  0  0  0  0  0  0  0  0  0
   -3.2226    2.5608    8.9506 C   0  0  0  0  0  0  0  0  0  0  0  0
   -3.8591    0.4722    8.6180 C   0  0  0  0  0  0  0  0  0  0  0  0
   -4.8478   -0.5413    8.6580 C   0  0  0  0  0  0  0  0  0  0  0  0
   -5.7605    1.5599    9.4207 C   0  0  0  0  0  0  0  0  0  0  0  0
   -2.1469    1.8901    8.4709 N   0  0  0  0  0  0  0  0  0  0  0  0
   -2.5674    0.6166    8.2824 N   0  0  0  0  0  0  0  0  0  0  0  0
   -5.9236    0.0961    9.2769 N   0  0  0  0  0  0  0  0  0  0  0  0
   -4.7836   -1.6970    8.2807 O   0  0  0  0  0  0  0  0  0  0  0  0
   -1.2484    2.2526    8.2962 H   0  0  0  0  0  0  0  0  0  0  0  0
   -6.7223   -0.3864    9.5909 H   0  0  0  0  0  0  0  0  0  0  0  0
   -2.8844    6.7128    9.8991 C   0  0  0  0  0  0  0  0  0  0  0  0
   -3.1243    5.7816   10.9087 C   0  0  0  0  0  0  0  0  0  0  0  0
   -2.7525    6.2854    8.5766 C   0  0  0  0  0  0  0  0  0  0  0  0
   -3.2361    4.4239   10.5894 C   0  0  0  0  0  0  0  0  0  0  0  0
   -2.8582    4.9283    8.2568 C   0  0  0  0  0  0  0  0  0  0  0  0
   -3.1084    3.9832    9.2633 C   0  0  0  0  0  0  0  0  0  0  0  0
   -6.9384    3.6869   12.3389 C   0  0  0  0  0  0  0  0  0  0  0  0
   -6.6639    3.2667   11.0405 C   0  0  0  0  0  0  0  0  0  0  0  0
   -6.5941    2.8529   13.3886 C   0  0  0  0  0  0  0  0  0  0  0  0
   -5.7556    1.2662   11.9520 C   0  0  0  0  0  0  0  0  0  0  0  0
   -6.0419    2.0305   10.8207 C   0  0  0  0  0  0  0  0  0  0  0  0
   -6.0053    1.6497   13.2264 N   0  0  0  0  0  0  0  0  0  0  0  0
 20 18  2  0  0  0
 20 23  1  0  0  0
 18 19  1  0  0  0
 23 21  2  0  0  0
 19 22  2  0  0  0
 21 22  1  0  0  0
 22  5  1  0  0  0
  8  5  1  0  0  0
  8  4  1  0  0  0
  5  1  1  0  0  0
  4  9  2  0  0  0
  4  3  1  0  0  0
 14 16  2  0  0  0
 14 12  1  0  0  0
 16 17  1  0  0  0
  1  3  1  0  0  0
  1  2  2  0  0  0
  3  7  2  0  0  0
 12 13  2  0  0  0
 17  2  1  0  0  0
 17 15  2  0  0  0
  2  6  1  0  0  0
  7  6  1  0  0  0
 13 15  1  0  0  0
  6 10  1  0  0  0
  8 11  1  0  0  0
M  END
> <minimizedAffinity>
-5.59766

$$$$
4J93_1JR_A_202


 23 26  0  0  0  0  0  0  0  0999 V2000
   -3.4480    2.9238    9.1232 C   0  0  0  0  0  0  0  0  0  0  0  0
   -3.1264    1.7016    8.4930 C   0  0  0  0  0  0  0  0  0  0  0  0
   -2.6812    3.8650    8.4883 C   0  0  0  0  0  0  0  0  0  0  0  0
   -2.8806    5.1704    9.0005 C   0  0  0  0  0  0  0  0  0  0  0  0
   -4.2480    3.5769   10.1928 C   0  0  0  0  0  0  0  0  0  0  0  0
   -2.2071    1.9152    7.5202 N   0  0  0  0  0  0  0  0  0  0  0  0
   -1.9598    3.2466    7.5401 N   0  0  0  0  0  0  0  0  0  0  0  0
   -3.9234    4.9930    9.9104 N   0  0  0  0  0  0  0  0  0  0  0  0
   -2.3151    6.2083    8.7090 O   0  0  0  0  0  0  0  0  0  0  0  0
   -1.8037    1.2434    6.9242 H   0  0  0  0  0  0  0  0  0  0  0  0
   -4.4020    5.7449   10.3286 H   0  0  0  0  0  0  0  0  0  0  0  0
   -4.5875   -2.2510    9.1959 C   0  0  0  0  0  0  0  0  0  0  0  0
   -5.4061   -1.3001    8.5882 C   0  0  0  0  0  0  0  0  0  0  0  0
   -3.2872   -1.9096    9.5728 C   0  0  0  0  0  0  0  0  0  0  0  0
   -4.9209   -0.0071    8.3637 C   0  0  0  0  0  0  0  0  0  0  0  0
   -2.7990   -0.6196    9.3437 C   0  0  0  0  0  0  0  0  0  0  0  0
   -3.6169    0.3482    8.7410 C   0  0  0  0  0  0  0  0  0  0  0  0
   -7.7000    3.0455    8.7001 C   0  0  0  0  0  0  0  0  0  0  0  0
   -6.3417    3.3287    8.8115 C   0  0  0  0  0  0  0  0  0  0  0  0
   -8.4022    2.7203    9.8478 C   0  0  0  0  0  0  0  0  0  0  0  0
   -6.5207    2.9362   11.1508 C   0  0  0  0  0  0  0  0  0  0  0  0
   -5.7189    3.2925   10.0662 C   0  0  0  0  0  0  0  0  0  0  0  0
   -7.8443    2.6607   11.0748 N   0  0  0  0  0  0  0  0  0  0  0  0
 20 18  2  0  0  0
 20 23  1  0  0  0
 18 19  1  0  0  0
 23 21  2  0  0  0
 19 22  2  0  0  0
 21 22  1  0  0  0
 22  5  1  0  0  0
  8  5  1  0  0  0
  8  4  1  0  0  0
  5  1  1  0  0  0
  4  9  2  0  0  0
  4  3  1  0  0  0
 14 16  2  0  0  0
 14 12  1  0  0  0
 16 17  1  0  0  0
  1  3  1  0  0  0
  1  2  2  0  0  0
  3  7  2  0  0  0
 12 13  2  0  0  0
 17  2  1  0  0  0
 17 15  2  0  0  0
  2  6  1  0  0  0
  7  6  1  0  0  0
 13 15  1  0  0  0
  6 10  1  0  0  0
  8 11  1  0  0  0
M  END
> <minimizedAffinity>
-5.55645

$$$$
