5MNR_JC2_E_409


 38 38  0  0  0  0  0  0  0  0999 V2000
   14.8434   38.9085   -9.4884 N   0  0  0  0  0  0  0  0  0  0  0  0
   15.2233   38.1295  -10.0261 H   0  0  0  0  0  0  0  0  0  0  0  0
   12.4265   37.8018   -9.4372 O   0  0  0  0  0  0  0  0  0  0  0  0
   13.5786   38.2887   -8.6012 P   0  0  0  0  0  0  0  0  0  0  0  0
   14.1448   37.1695   -7.7463 O   0  0  0  0  0  0  0  0  0  0  0  0
   11.7298   37.4561   -8.8576 H   0  0  0  0  0  0  0  0  0  0  0  0
   13.0352   39.6694   -7.5421 C   0  0  0  0  0  0  0  0  0  0  0  0
   11.2408   38.6311   -6.1834 C   0  0  0  0  0  0  0  0  0  0  0  0
   12.5299   39.1285   -6.3059 N   0  0  0  0  0  0  0  0  0  0  0  0
   10.4565   38.5468   -7.0664 O   0  0  0  0  0  0  0  0  0  0  0  0
   13.1214   39.1114   -5.5191 H   0  0  0  0  0  0  0  0  0  0  0  0
   11.0485   38.2287   -4.8818 O   0  0  0  0  0  0  0  0  0  0  0  0
    9.7325   38.2116   -4.3820 C   0  0  0  0  0  0  0  0  0  0  0  0
    9.7734   38.2248   -2.8527 C   0  0  0  0  0  0  0  0  0  0  0  0
    9.4224   37.0854   -2.1395 C   0  0  0  0  0  0  0  0  0  0  0  0
    9.4496   37.0746   -0.7418 C   0  0  0  0  0  0  0  0  0  0  0  0
   10.1536   39.3502   -2.1386 C   0  0  0  0  0  0  0  0  0  0  0  0
    9.8691   38.2047   -0.0545 C   0  0  0  0  0  0  0  0  0  0  0  0
   10.2131   39.3463   -0.7674 C   0  0  0  0  0  0  0  0  0  0  0  0
   14.6631   40.0087  -10.4345 C   0  0  0  0  0  0  0  0  0  0  0  0
   14.3434   39.5104  -11.8285 C   0  0  0  0  0  0  0  0  0  0  0  0
   14.4169   38.1313  -11.9608 N   0  0  0  0  0  0  0  0  0  0  0  0
   14.1156   40.2535  -12.7453 O   0  0  0  0  0  0  0  0  0  0  0  0
   14.6383   37.5802  -11.1756 H   0  0  0  0  0  0  0  0  0  0  0  0
   14.1727   37.4890  -13.2379 C   0  0  0  0  0  0  0  0  0  0  0  0
   13.2948   36.2669  -13.0214 C   0  0  0  0  0  0  0  0  0  0  0  0
   12.9489   36.0142  -11.8373 O   0  0  0  0  0  0  0  0  0  0  0  0
   12.9507   35.5601  -14.0001 O   0  0  0  0  0  0  0  0  0  0  0  0
   13.2302   36.5709  -11.1381 H   0  0  0  0  0  0  0  0  0  0  0  0
   15.4708   37.1726  -13.9618 C   0  0  0  0  0  0  0  0  0  0  0  0
   16.5367   36.7029  -13.0015 C   0  0  0  0  0  0  0  0  0  0  0  0
   17.4334   37.7726  -12.5863 N   0  0  0  0  0  0  0  0  0  0  0  0
   17.9215   38.1429  -13.4018 H   0  0  0  0  0  0  0  0  0  0  0  0
   18.1137   37.4066  -11.9201 H   0  0  0  0  0  0  0  0  0  0  0  0
   15.9354   40.8487  -10.4575 C   0  0  0  0  0  0  0  0  0  0  0  0
   15.9292   42.0252   -9.4923 C   0  0  0  0  0  0  0  0  0  0  0  0
   14.5264   42.5870   -9.3584 C   0  0  0  0  0  0  0  0  0  0  0  0
   16.9437   43.0896   -9.9227 C   0  0  0  0  0  0  0  0  0  0  0  0
 16 15  2  0  0  0
 16 18  1  0  0  0
 15 14  1  0  0  0
 18 19  2  0  0  0
 14 13  1  0  0  0
 14 17  2  0  0  0
 13 12  1  0  0  0
 19 17  1  0  0  0
 12  8  1  0  0  0
 10  8  2  0  0  0
  8  9  1  0  0  0
  9  7  1  0  0  0
  7  4  1  0  0  0
  5  4  2  0  0  0
  3  4  1  0  0  0
 28 26  2  0  0  0
  4  1  1  0  0  0
 27 26  1  0  0  0
 26 25  1  0  0  0
  1 20  1  0  0  0
 25 22  1  0  0  0
 25 30  1  0  0  0
 22 21  1  0  0  0
 21 23  2  0  0  0
 21 20  1  0  0  0
 20 35  1  0  0  0
 30 31  1  0  0  0
 31 32  1  0  0  0
 35 36  1  0  0  0
 38 36  1  0  0  0
 36 37  1  0  0  0
  3  6  1  0  0  0
  1  2  1  0  0  0
 22 24  1  0  0  0
 27 29  1  0  0  0
  9 11  1  0  0  0
 32 33  1  0  0  0
 32 34  1  0  0  0
M  END
> <minimizedAffinity>
-7.99376

$$$$
5MNR_JC2_E_409


 38 38  0  0  0  0  0  0  0  0999 V2000
   13.5470   39.9978   -8.3540 N   0  0  0  0  0  0  0  0  0  0  0  0
   14.0319   39.1404   -8.0890 H   0  0  0  0  0  0  0  0  0  0  0  0
   12.5015   40.8653   -6.0685 O   0  0  0  0  0  0  0  0  0  0  0  0
   12.2284   40.1174   -7.3450 P   0  0  0  0  0  0  0  0  0  0  0  0
   11.1208   40.7824   -8.1417 O   0  0  0  0  0  0  0  0  0  0  0  0
   11.6937   40.8959   -5.5325 H   0  0  0  0  0  0  0  0  0  0  0  0
   11.7763   38.3922   -6.9671 C   0  0  0  0  0  0  0  0  0  0  0  0
   10.7715   38.5007   -4.7038 C   0  0  0  0  0  0  0  0  0  0  0  0
   11.8377   38.2035   -5.5400 N   0  0  0  0  0  0  0  0  0  0  0  0
    9.7081   38.8770   -5.0636 O   0  0  0  0  0  0  0  0  0  0  0  0
   12.6670   37.8507   -5.1436 H   0  0  0  0  0  0  0  0  0  0  0  0
   11.1515   38.2533   -3.4048 O   0  0  0  0  0  0  0  0  0  0  0  0
   10.7466   39.1654   -2.4118 C   0  0  0  0  0  0  0  0  0  0  0  0
    9.9731   38.4169   -1.3245 C   0  0  0  0  0  0  0  0  0  0  0  0
    9.7700   39.0100   -0.0848 C   0  0  0  0  0  0  0  0  0  0  0  0
    9.0685   38.3444    0.9250 C   0  0  0  0  0  0  0  0  0  0  0  0
    9.4584   37.1469   -1.5324 C   0  0  0  0  0  0  0  0  0  0  0  0
    8.5336   37.0885    0.6762 C   0  0  0  0  0  0  0  0  0  0  0  0
    8.7429   36.4925   -0.5611 C   0  0  0  0  0  0  0  0  0  0  0  0
   13.4105   39.9570   -9.8092 C   0  0  0  0  0  0  0  0  0  0  0  0
   13.8225   38.6158  -10.3796 C   0  0  0  0  0  0  0  0  0  0  0  0
   14.3265   38.6873  -11.6703 N   0  0  0  0  0  0  0  0  0  0  0  0
   13.6600   37.5828   -9.7873 O   0  0  0  0  0  0  0  0  0  0  0  0
   14.4061   39.5637  -12.1117 H   0  0  0  0  0  0  0  0  0  0  0  0
   14.7378   37.4908  -12.3792 C   0  0  0  0  0  0  0  0  0  0  0  0
   16.0602   37.7567  -13.0804 C   0  0  0  0  0  0  0  0  0  0  0  0
   17.0547   38.0061  -12.3493 O   0  0  0  0  0  0  0  0  0  0  0  0
   16.1234   37.7252  -14.3336 O   0  0  0  0  0  0  0  0  0  0  0  0
   16.9596   38.0188  -11.4172 H   0  0  0  0  0  0  0  0  0  0  0  0
   13.6508   36.9965  -13.3191 C   0  0  0  0  0  0  0  0  0  0  0  0
   13.1812   35.6131  -12.9390 C   0  0  0  0  0  0  0  0  0  0  0  0
   14.1095   34.9257  -12.0521 N   0  0  0  0  0  0  0  0  0  0  0  0
   15.0061   34.8075  -12.5238 H   0  0  0  0  0  0  0  0  0  0  0  0
   13.7311   34.0107  -11.8070 H   0  0  0  0  0  0  0  0  0  0  0  0
   14.2638   41.0672  -10.4127 C   0  0  0  0  0  0  0  0  0  0  0  0
   15.5385   41.3711   -9.6389 C   0  0  0  0  0  0  0  0  0  0  0  0
   15.5105   42.7964   -9.1202 C   0  0  0  0  0  0  0  0  0  0  0  0
   16.7773   41.0877  -10.4948 C   0  0  0  0  0  0  0  0  0  0  0  0
 16 15  2  0  0  0
 16 18  1  0  0  0
 15 14  1  0  0  0
 18 19  2  0  0  0
 14 13  1  0  0  0
 14 17  2  0  0  0
 13 12  1  0  0  0
 19 17  1  0  0  0
 12  8  1  0  0  0
 10  8  2  0  0  0
  8  9  1  0  0  0
  9  7  1  0  0  0
  7  4  1  0  0  0
  5  4  2  0  0  0
  3  4  1  0  0  0
 28 26  2  0  0  0
  4  1  1  0  0  0
 27 26  1  0  0  0
 26 25  1  0  0  0
  1 20  1  0  0  0
 25 22  1  0  0  0
 25 30  1  0  0  0
 22 21  1  0  0  0
 21 23  2  0  0  0
 21 20  1  0  0  0
 20 35  1  0  0  0
 30 31  1  0  0  0
 31 32  1  0  0  0
 35 36  1  0  0  0
 38 36  1  0  0  0
 36 37  1  0  0  0
  3  6  1  0  0  0
  1  2  1  0  0  0
 22 24  1  0  0  0
 27 29  1  0  0  0
  9 11  1  0  0  0
 32 33  1  0  0  0
 32 34  1  0  0  0
M  END
> <minimizedAffinity>
-7.89302

$$$$
5MNR_JC2_E_409


 38 38  0  0  0  0  0  0  0  0999 V2000
   13.3035   40.1537   -8.5086 N   0  0  0  0  0  0  0  0  0  0  0  0
   12.4623   39.5973   -8.6609 H   0  0  0  0  0  0  0  0  0  0  0  0
   13.5653   42.0309   -6.6440 O   0  0  0  0  0  0  0  0  0  0  0  0
   12.7936   41.6002   -7.8615 P   0  0  0  0  0  0  0  0  0  0  0  0
   12.8912   42.6374   -8.9655 O   0  0  0  0  0  0  0  0  0  0  0  0
   13.2161   42.8767   -6.3223 H   0  0  0  0  0  0  0  0  0  0  0  0
   11.0470   41.3203   -7.4205 C   0  0  0  0  0  0  0  0  0  0  0  0
   10.9777   39.1803   -6.1717 C   0  0  0  0  0  0  0  0  0  0  0  0
   10.9984   40.5672   -6.1931 N   0  0  0  0  0  0  0  0  0  0  0  0
   11.0518   38.4832   -7.1258 O   0  0  0  0  0  0  0  0  0  0  0  0
   10.9792   41.0549   -5.3381 H   0  0  0  0  0  0  0  0  0  0  0  0
   10.8902   38.7638   -4.8632 O   0  0  0  0  0  0  0  0  0  0  0  0
    9.6249   38.3925   -4.3703 C   0  0  0  0  0  0  0  0  0  0  0  0
    9.6804   38.3181   -2.8432 C   0  0  0  0  0  0  0  0  0  0  0  0
    9.9146   39.4686   -2.1006 C   0  0  0  0  0  0  0  0  0  0  0  0
    9.9721   39.4247   -0.7044 C   0  0  0  0  0  0  0  0  0  0  0  0
    9.5033   37.1253   -2.1597 C   0  0  0  0  0  0  0  0  0  0  0  0
    9.7552   38.2228   -0.0458 C   0  0  0  0  0  0  0  0  0  0  0  0
    9.5282   37.0710   -0.7886 C   0  0  0  0  0  0  0  0  0  0  0  0
   14.0691   40.0860   -9.7524 C   0  0  0  0  0  0  0  0  0  0  0  0
   14.0189   38.7058  -10.3742 C   0  0  0  0  0  0  0  0  0  0  0  0
   14.9718   38.5016  -11.3618 N   0  0  0  0  0  0  0  0  0  0  0  0
   13.1832   37.8934  -10.0807 O   0  0  0  0  0  0  0  0  0  0  0  0
   15.6098   39.2203  -11.5757 H   0  0  0  0  0  0  0  0  0  0  0  0
   15.0423   37.2459  -12.0838 C   0  0  0  0  0  0  0  0  0  0  0  0
   16.4322   37.0911  -12.6799 C   0  0  0  0  0  0  0  0  0  0  0  0
   17.3169   37.8946  -12.2832 O   0  0  0  0  0  0  0  0  0  0  0  0
   16.6541   36.1947  -13.5301 O   0  0  0  0  0  0  0  0  0  0  0  0
   17.1046   38.5482  -11.6463 H   0  0  0  0  0  0  0  0  0  0  0  0
   13.9325   37.1312  -13.1156 C   0  0  0  0  0  0  0  0  0  0  0  0
   13.1365   35.8621  -12.9295 C   0  0  0  0  0  0  0  0  0  0  0  0
   13.8798   34.8279  -12.2232 N   0  0  0  0  0  0  0  0  0  0  0  0
   14.7067   34.5743  -12.7637 H   0  0  0  0  0  0  0  0  0  0  0  0
   13.2876   34.0063  -12.1019 H   0  0  0  0  0  0  0  0  0  0  0  0
   15.5137   40.4766   -9.4606 C   0  0  0  0  0  0  0  0  0  0  0  0
   16.0110   41.6795  -10.2491 C   0  0  0  0  0  0  0  0  0  0  0  0
   17.2412   41.3069  -11.0548 C   0  0  0  0  0  0  0  0  0  0  0  0
   16.2619   42.8737   -9.3226 C   0  0  0  0  0  0  0  0  0  0  0  0
 16 15  2  0  0  0
 16 18  1  0  0  0
 15 14  1  0  0  0
 18 19  2  0  0  0
 14 13  1  0  0  0
 14 17  2  0  0  0
 13 12  1  0  0  0
 19 17  1  0  0  0
 12  8  1  0  0  0
 10  8  2  0  0  0
  8  9  1  0  0  0
  9  7  1  0  0  0
  7  4  1  0  0  0
  5  4  2  0  0  0
  3  4  1  0  0  0
 28 26  2  0  0  0
  4  1  1  0  0  0
 27 26  1  0  0  0
 26 25  1  0  0  0
  1 20  1  0  0  0
 25 22  1  0  0  0
 25 30  1  0  0  0
 22 21  1  0  0  0
 21 23  2  0  0  0
 21 20  1  0  0  0
 20 35  1  0  0  0
 30 31  1  0  0  0
 31 32  1  0  0  0
 35 36  1  0  0  0
 38 36  1  0  0  0
 36 37  1  0  0  0
  3  6  1  0  0  0
  1  2  1  0  0  0
 22 24  1  0  0  0
 27 29  1  0  0  0
  9 11  1  0  0  0
 32 33  1  0  0  0
 32 34  1  0  0  0
M  END
> <minimizedAffinity>
-7.75019

$$$$
5MNR_JC2_E_409


 38 38  0  0  0  0  0  0  0  0999 V2000
    9.2616   38.4041   -4.6520 N   0  0  0  0  0  0  0  0  0  0  0  0
    9.1826   37.4027   -4.8294 H   0  0  0  0  0  0  0  0  0  0  0  0
   11.6728   39.1371   -3.8048 O   0  0  0  0  0  0  0  0  0  0  0  0
   10.8333   38.8178   -5.0118 P   0  0  0  0  0  0  0  0  0  0  0  0
   11.4253   37.6632   -5.7993 O   0  0  0  0  0  0  0  0  0  0  0  0
   12.5713   39.3682   -4.0879 H   0  0  0  0  0  0  0  0  0  0  0  0
   10.6924   40.2917   -6.0754 C   0  0  0  0  0  0  0  0  0  0  0  0
   12.1449   40.7896   -8.0213 C   0  0  0  0  0  0  0  0  0  0  0  0
   11.2285   39.9734   -7.3744 N   0  0  0  0  0  0  0  0  0  0  0  0
   12.6155   41.7774   -7.5689 O   0  0  0  0  0  0  0  0  0  0  0  0
   10.9335   39.1462   -7.8193 H   0  0  0  0  0  0  0  0  0  0  0  0
   12.4307   40.2394   -9.2496 O   0  0  0  0  0  0  0  0  0  0  0  0
   13.6987   39.6564   -9.4346 C   0  0  0  0  0  0  0  0  0  0  0  0
   13.6491   38.7117  -10.6370 C   0  0  0  0  0  0  0  0  0  0  0  0
   14.0286   39.1674  -11.8933 C   0  0  0  0  0  0  0  0  0  0  0  0
   13.9892   38.3232  -13.0070 C   0  0  0  0  0  0  0  0  0  0  0  0
   13.2321   37.3952  -10.5190 C   0  0  0  0  0  0  0  0  0  0  0  0
   13.6018   36.9998  -12.8521 C   0  0  0  0  0  0  0  0  0  0  0  0
   13.2154   36.5462  -11.5972 C   0  0  0  0  0  0  0  0  0  0  0  0
    8.6816   38.6317   -3.3292 C   0  0  0  0  0  0  0  0  0  0  0  0
    8.4454   40.1033   -3.0597 C   0  0  0  0  0  0  0  0  0  0  0  0
    7.5903   40.7089   -3.9692 N   0  0  0  0  0  0  0  0  0  0  0  0
    9.0053   40.6981   -2.1782 O   0  0  0  0  0  0  0  0  0  0  0  0
    7.1870   40.1704   -4.6880 H   0  0  0  0  0  0  0  0  0  0  0  0
    7.2816   42.1229   -3.8773 C   0  0  0  0  0  0  0  0  0  0  0  0
    5.8578   42.3544   -4.3572 C   0  0  0  0  0  0  0  0  0  0  0  0
    5.6897   43.2301   -5.2464 O   0  0  0  0  0  0  0  0  0  0  0  0
    4.9139   41.6883   -3.8661 O   0  0  0  0  0  0  0  0  0  0  0  0
    6.4252   43.7027   -5.5835 H   0  0  0  0  0  0  0  0  0  0  0  0
    8.3066   42.9680   -4.6151 C   0  0  0  0  0  0  0  0  0  0  0  0
    8.7494   44.1475   -3.7834 C   0  0  0  0  0  0  0  0  0  0  0  0
    9.3128   43.7533   -2.4997 N   0  0  0  0  0  0  0  0  0  0  0  0
    8.6041   43.2637   -1.9534 H   0  0  0  0  0  0  0  0  0  0  0  0
    9.6186   44.5841   -1.9931 H   0  0  0  0  0  0  0  0  0  0  0  0
    9.6190   38.0504   -2.2765 C   0  0  0  0  0  0  0  0  0  0  0  0
    8.9124   37.4222   -1.0841 C   0  0  0  0  0  0  0  0  0  0  0  0
    9.3172   38.1268    0.1970 C   0  0  0  0  0  0  0  0  0  0  0  0
    9.1749   35.9138   -1.0265 C   0  0  0  0  0  0  0  0  0  0  0  0
 16 15  2  0  0  0
 16 18  1  0  0  0
 15 14  1  0  0  0
 18 19  2  0  0  0
 14 13  1  0  0  0
 14 17  2  0  0  0
 13 12  1  0  0  0
 19 17  1  0  0  0
 12  8  1  0  0  0
 10  8  2  0  0  0
  8  9  1  0  0  0
  9  7  1  0  0  0
  7  4  1  0  0  0
  5  4  2  0  0  0
  3  4  1  0  0  0
 28 26  2  0  0  0
  4  1  1  0  0  0
 27 26  1  0  0  0
 26 25  1  0  0  0
  1 20  1  0  0  0
 25 22  1  0  0  0
 25 30  1  0  0  0
 22 21  1  0  0  0
 21 23  2  0  0  0
 21 20  1  0  0  0
 20 35  1  0  0  0
 30 31  1  0  0  0
 31 32  1  0  0  0
 35 36  1  0  0  0
 38 36  1  0  0  0
 36 37  1  0  0  0
  3  6  1  0  0  0
  1  2  1  0  0  0
 22 24  1  0  0  0
 27 29  1  0  0  0
  9 11  1  0  0  0
 32 33  1  0  0  0
 32 34  1  0  0  0
M  END
> <minimizedAffinity>
-7.73192

$$$$
5MNR_JC2_E_409


 38 38  0  0  0  0  0  0  0  0999 V2000
   13.7893   40.5674   -8.4276 N   0  0  0  0  0  0  0  0  0  0  0  0
   13.7978   39.6311   -8.0232 H   0  0  0  0  0  0  0  0  0  0  0  0
   13.4058   41.5965   -6.0063 O   0  0  0  0  0  0  0  0  0  0  0  0
   12.8671   41.5062   -7.4081 P   0  0  0  0  0  0  0  0  0  0  0  0
   12.7650   42.8806   -8.0440 O   0  0  0  0  0  0  0  0  0  0  0  0
   12.8216   42.1559   -5.4709 H   0  0  0  0  0  0  0  0  0  0  0  0
   11.2308   40.7026   -7.3920 C   0  0  0  0  0  0  0  0  0  0  0  0
   10.8689   39.1238   -5.5156 C   0  0  0  0  0  0  0  0  0  0  0  0
   10.8746   40.4137   -6.0260 N   0  0  0  0  0  0  0  0  0  0  0  0
   11.1993   38.1547   -6.1102 O   0  0  0  0  0  0  0  0  0  0  0  0
   10.6261   41.1593   -5.4330 H   0  0  0  0  0  0  0  0  0  0  0  0
   10.4492   39.1728   -4.2062 O   0  0  0  0  0  0  0  0  0  0  0  0
    9.4518   38.2677   -3.7968 C   0  0  0  0  0  0  0  0  0  0  0  0
    9.4075   38.2234   -2.2681 C   0  0  0  0  0  0  0  0  0  0  0  0
    9.8765   39.3021   -1.5290 C   0  0  0  0  0  0  0  0  0  0  0  0
    9.8484   39.2834   -0.1313 C   0  0  0  0  0  0  0  0  0  0  0  0
    8.9088   37.1284   -1.5799 C   0  0  0  0  0  0  0  0  0  0  0  0
    9.3103   38.1885    0.5299 C   0  0  0  0  0  0  0  0  0  0  0  0
    8.8480   37.1069   -0.2090 C   0  0  0  0  0  0  0  0  0  0  0  0
   13.4569   40.3989   -9.8415 C   0  0  0  0  0  0  0  0  0  0  0  0
   13.2392   38.9442  -10.2029 C   0  0  0  0  0  0  0  0  0  0  0  0
   13.8145   38.5751  -11.4103 N   0  0  0  0  0  0  0  0  0  0  0  0
   12.5704   38.2037   -9.5330 O   0  0  0  0  0  0  0  0  0  0  0  0
   14.3259   39.2393  -11.9266 H   0  0  0  0  0  0  0  0  0  0  0  0
   13.6741   37.2259  -11.9234 C   0  0  0  0  0  0  0  0  0  0  0  0
   14.6764   36.3206  -11.2258 C   0  0  0  0  0  0  0  0  0  0  0  0
   15.1682   36.7385  -10.1445 O   0  0  0  0  0  0  0  0  0  0  0  0
   14.9815   35.2137  -11.7333 O   0  0  0  0  0  0  0  0  0  0  0  0
   14.9100   37.5723   -9.8038 H   0  0  0  0  0  0  0  0  0  0  0  0
   13.7878   37.1894  -13.4383 C   0  0  0  0  0  0  0  0  0  0  0  0
   14.7161   38.2657  -13.9471 C   0  0  0  0  0  0  0  0  0  0  0  0
   14.0227   39.5073  -14.2607 N   0  0  0  0  0  0  0  0  0  0  0  0
   13.3417   39.3388  -15.0011 H   0  0  0  0  0  0  0  0  0  0  0  0
   14.6986   40.2047  -14.5727 H   0  0  0  0  0  0  0  0  0  0  0  0
   14.5852   40.9844  -10.6833 C   0  0  0  0  0  0  0  0  0  0  0  0
   15.8412   41.3310   -9.8970 C   0  0  0  0  0  0  0  0  0  0  0  0
   15.8982   42.8232   -9.6297 C   0  0  0  0  0  0  0  0  0  0  0  0
   17.0939   40.8205  -10.6165 C   0  0  0  0  0  0  0  0  0  0  0  0
 16 15  2  0  0  0
 16 18  1  0  0  0
 15 14  1  0  0  0
 18 19  2  0  0  0
 14 13  1  0  0  0
 14 17  2  0  0  0
 13 12  1  0  0  0
 19 17  1  0  0  0
 12  8  1  0  0  0
 10  8  2  0  0  0
  8  9  1  0  0  0
  9  7  1  0  0  0
  7  4  1  0  0  0
  5  4  2  0  0  0
  3  4  1  0  0  0
 28 26  2  0  0  0
  4  1  1  0  0  0
 27 26  1  0  0  0
 26 25  1  0  0  0
  1 20  1  0  0  0
 25 22  1  0  0  0
 25 30  1  0  0  0
 22 21  1  0  0  0
 21 23  2  0  0  0
 21 20  1  0  0  0
 20 35  1  0  0  0
 30 31  1  0  0  0
 31 32  1  0  0  0
 35 36  1  0  0  0
 38 36  1  0  0  0
 36 37  1  0  0  0
  3  6  1  0  0  0
  1  2  1  0  0  0
 22 24  1  0  0  0
 27 29  1  0  0  0
  9 11  1  0  0  0
 32 33  1  0  0  0
 32 34  1  0  0  0
M  END
> <minimizedAffinity>
-7.42105

$$$$
5MNR_JC2_E_409


 38 38  0  0  0  0  0  0  0  0999 V2000
   13.0771   39.1008   -8.1750 N   0  0  0  0  0  0  0  0  0  0  0  0
   12.6400   38.1800   -8.2128 H   0  0  0  0  0  0  0  0  0  0  0  0
   12.8087   41.0468   -6.3834 O   0  0  0  0  0  0  0  0  0  0  0  0
   12.0779   40.0522   -7.2438 P   0  0  0  0  0  0  0  0  0  0  0  0
   11.1208   40.7499   -8.1930 O   0  0  0  0  0  0  0  0  0  0  0  0
   12.1675   41.5638   -5.8711 H   0  0  0  0  0  0  0  0  0  0  0  0
   11.1663   38.8753   -6.1915 C   0  0  0  0  0  0  0  0  0  0  0  0
   10.0973   39.0529   -3.9622 C   0  0  0  0  0  0  0  0  0  0  0  0
   10.4633   39.6169   -5.1756 N   0  0  0  0  0  0  0  0  0  0  0  0
   10.3622   37.9523   -3.6151 O   0  0  0  0  0  0  0  0  0  0  0  0
   10.2344   40.5585   -5.3490 H   0  0  0  0  0  0  0  0  0  0  0  0
    9.4107   39.9948   -3.2310 O   0  0  0  0  0  0  0  0  0  0  0  0
    8.0902   40.2964   -3.6143 C   0  0  0  0  0  0  0  0  0  0  0  0
    7.6715   41.6242   -2.9801 C   0  0  0  0  0  0  0  0  0  0  0  0
    6.4807   42.2299   -3.3609 C   0  0  0  0  0  0  0  0  0  0  0  0
    6.0787   43.4445   -2.7971 C   0  0  0  0  0  0  0  0  0  0  0  0
    8.4489   42.2578   -2.0233 C   0  0  0  0  0  0  0  0  0  0  0  0
    6.8596   44.0375   -1.8152 C   0  0  0  0  0  0  0  0  0  0  0  0
    8.0539   43.4355   -1.4396 C   0  0  0  0  0  0  0  0  0  0  0  0
   13.4174   39.4485   -9.5539 C   0  0  0  0  0  0  0  0  0  0  0  0
   13.6709   38.2196  -10.4021 C   0  0  0  0  0  0  0  0  0  0  0  0
   14.5737   38.4284  -11.4347 N   0  0  0  0  0  0  0  0  0  0  0  0
   13.0872   37.1830  -10.2308 O   0  0  0  0  0  0  0  0  0  0  0  0
   14.9954   39.3120  -11.5385 H   0  0  0  0  0  0  0  0  0  0  0  0
   14.9058   37.3652  -12.3634 C   0  0  0  0  0  0  0  0  0  0  0  0
   16.3115   37.5902  -12.8966 C   0  0  0  0  0  0  0  0  0  0  0  0
   17.2299   36.8844  -12.4026 O   0  0  0  0  0  0  0  0  0  0  0  0
   16.5146   38.4514  -13.7870 O   0  0  0  0  0  0  0  0  0  0  0  0
   17.0305   36.2534  -11.7392 H   0  0  0  0  0  0  0  0  0  0  0  0
   13.8629   37.2360  -13.4612 C   0  0  0  0  0  0  0  0  0  0  0  0
   13.5106   35.7908  -13.7189 C   0  0  0  0  0  0  0  0  0  0  0  0
   13.2208   35.0539  -12.4967 N   0  0  0  0  0  0  0  0  0  0  0  0
   14.0474   35.0482  -11.8990 H   0  0  0  0  0  0  0  0  0  0  0  0
   12.9638   34.0950  -12.7307 H   0  0  0  0  0  0  0  0  0  0  0  0
   14.6532   40.3415   -9.5434 C   0  0  0  0  0  0  0  0  0  0  0  0
   14.3610   41.8212   -9.7461 C   0  0  0  0  0  0  0  0  0  0  0  0
   14.5559   42.2002  -11.2020 C   0  0  0  0  0  0  0  0  0  0  0  0
   15.2099   42.6795   -8.8026 C   0  0  0  0  0  0  0  0  0  0  0  0
 16 15  2  0  0  0
 16 18  1  0  0  0
 15 14  1  0  0  0
 18 19  2  0  0  0
 14 13  1  0  0  0
 14 17  2  0  0  0
 13 12  1  0  0  0
 19 17  1  0  0  0
 12  8  1  0  0  0
 10  8  2  0  0  0
  8  9  1  0  0  0
  9  7  1  0  0  0
  7  4  1  0  0  0
  5  4  2  0  0  0
  3  4  1  0  0  0
 28 26  2  0  0  0
  4  1  1  0  0  0
 27 26  1  0  0  0
 26 25  1  0  0  0
  1 20  1  0  0  0
 25 22  1  0  0  0
 25 30  1  0  0  0
 22 21  1  0  0  0
 21 23  2  0  0  0
 21 20  1  0  0  0
 20 35  1  0  0  0
 30 31  1  0  0  0
 31 32  1  0  0  0
 35 36  1  0  0  0
 38 36  1  0  0  0
 36 37  1  0  0  0
  3  6  1  0  0  0
  1  2  1  0  0  0
 22 24  1  0  0  0
 27 29  1  0  0  0
  9 11  1  0  0  0
 32 33  1  0  0  0
 32 34  1  0  0  0
M  END
> <minimizedAffinity>
-7.31612

$$$$
5MNR_JC2_E_409


 38 38  0  0  0  0  0  0  0  0999 V2000
    8.3808   42.2812   -5.3338 N   0  0  0  0  0  0  0  0  0  0  0  0
    9.2151   41.8704   -5.7530 H   0  0  0  0  0  0  0  0  0  0  0  0
    7.0542   44.5469   -5.7528 O   0  0  0  0  0  0  0  0  0  0  0  0
    8.4116   43.8988   -5.7254 P   0  0  0  0  0  0  0  0  0  0  0  0
    9.3223   44.5799   -4.7201 O   0  0  0  0  0  0  0  0  0  0  0  0
    7.1479   45.4836   -5.9868 H   0  0  0  0  0  0  0  0  0  0  0  0
    9.1601   43.9589   -7.3867 C   0  0  0  0  0  0  0  0  0  0  0  0
   11.3699   43.2223   -8.2343 C   0  0  0  0  0  0  0  0  0  0  0  0
   10.2568   43.0253   -7.4302 N   0  0  0  0  0  0  0  0  0  0  0  0
   11.5621   44.1756   -8.9096 O   0  0  0  0  0  0  0  0  0  0  0  0
   10.2145   42.2178   -6.8686 H   0  0  0  0  0  0  0  0  0  0  0  0
   12.2137   42.1458   -8.0854 O   0  0  0  0  0  0  0  0  0  0  0  0
   13.4279   42.1533   -8.7977 C   0  0  0  0  0  0  0  0  0  0  0  0
   13.5085   40.8994   -9.6706 C   0  0  0  0  0  0  0  0  0  0  0  0
   13.1611   39.6626   -9.1419 C   0  0  0  0  0  0  0  0  0  0  0  0
   13.2292   38.5028   -9.9196 C   0  0  0  0  0  0  0  0  0  0  0  0
   13.9226   40.9509  -10.9924 C   0  0  0  0  0  0  0  0  0  0  0  0
   13.6128   38.5899  -11.2502 C   0  0  0  0  0  0  0  0  0  0  0  0
   13.9671   39.8256  -11.7769 C   0  0  0  0  0  0  0  0  0  0  0  0
    8.3498   41.8180   -3.9473 C   0  0  0  0  0  0  0  0  0  0  0  0
    8.5481   40.3199   -3.8458 C   0  0  0  0  0  0  0  0  0  0  0  0
    9.8587   39.9134   -4.0510 N   0  0  0  0  0  0  0  0  0  0  0  0
    7.6364   39.5564   -3.6717 O   0  0  0  0  0  0  0  0  0  0  0  0
   10.5550   40.5888   -4.2189 H   0  0  0  0  0  0  0  0  0  0  0  0
   10.2187   38.5088   -4.0218 C   0  0  0  0  0  0  0  0  0  0  0  0
   10.6313   38.1293   -2.6087 C   0  0  0  0  0  0  0  0  0  0  0  0
   10.2863   36.9896   -2.1992 O   0  0  0  0  0  0  0  0  0  0  0  0
   11.2832   38.9401   -1.9062 O   0  0  0  0  0  0  0  0  0  0  0  0
    9.7999   36.4178   -2.7599 H   0  0  0  0  0  0  0  0  0  0  0  0
   11.2765   38.1812   -5.0625 C   0  0  0  0  0  0  0  0  0  0  0  0
   11.2524   39.1702   -6.2027 C   0  0  0  0  0  0  0  0  0  0  0  0
   11.9372   40.4155   -5.8843 N   0  0  0  0  0  0  0  0  0  0  0  0
   11.4710   40.8685   -5.0983 H   0  0  0  0  0  0  0  0  0  0  0  0
   11.9138   41.0334   -6.6955 H   0  0  0  0  0  0  0  0  0  0  0  0
    7.0132   42.2124   -3.3287 C   0  0  0  0  0  0  0  0  0  0  0  0
    7.1291   43.0053   -2.0350 C   0  0  0  0  0  0  0  0  0  0  0  0
    6.5054   44.3780   -2.2029 C   0  0  0  0  0  0  0  0  0  0  0  0
    8.5871   43.0816   -1.5702 C   0  0  0  0  0  0  0  0  0  0  0  0
 16 15  2  0  0  0
 16 18  1  0  0  0
 15 14  1  0  0  0
 18 19  2  0  0  0
 14 13  1  0  0  0
 14 17  2  0  0  0
 13 12  1  0  0  0
 19 17  1  0  0  0
 12  8  1  0  0  0
 10  8  2  0  0  0
  8  9  1  0  0  0
  9  7  1  0  0  0
  7  4  1  0  0  0
  5  4  2  0  0  0
  3  4  1  0  0  0
 28 26  2  0  0  0
  4  1  1  0  0  0
 27 26  1  0  0  0
 26 25  1  0  0  0
  1 20  1  0  0  0
 25 22  1  0  0  0
 25 30  1  0  0  0
 22 21  1  0  0  0
 21 23  2  0  0  0
 21 20  1  0  0  0
 20 35  1  0  0  0
 30 31  1  0  0  0
 31 32  1  0  0  0
 35 36  1  0  0  0
 38 36  1  0  0  0
 36 37  1  0  0  0
  3  6  1  0  0  0
  1  2  1  0  0  0
 22 24  1  0  0  0
 27 29  1  0  0  0
  9 11  1  0  0  0
 32 33  1  0  0  0
 32 34  1  0  0  0
M  END
> <minimizedAffinity>
-6.90505

$$$$
5MNR_JC2_E_409


 38 38  0  0  0  0  0  0  0  0999 V2000
   14.0855   39.3692   -9.8140 N   0  0  0  0  0  0  0  0  0  0  0  0
   15.0567   39.0583   -9.8341 H   0  0  0  0  0  0  0  0  0  0  0  0
   12.0923   37.7134   -9.2186 O   0  0  0  0  0  0  0  0  0  0  0  0
   13.3143   38.4138   -8.6900 P   0  0  0  0  0  0  0  0  0  0  0  0
   14.3385   37.4161   -8.1804 O   0  0  0  0  0  0  0  0  0  0  0  0
   11.6962   37.1778   -8.5135 H   0  0  0  0  0  0  0  0  0  0  0  0
   12.8414   39.5604   -7.3539 C   0  0  0  0  0  0  0  0  0  0  0  0
   11.2224   39.2805   -5.4979 C   0  0  0  0  0  0  0  0  0  0  0  0
   12.2635   38.7972   -6.2770 N   0  0  0  0  0  0  0  0  0  0  0  0
   10.6734   40.3167   -5.6615 O   0  0  0  0  0  0  0  0  0  0  0  0
   12.6208   37.8997   -6.0870 H   0  0  0  0  0  0  0  0  0  0  0  0
   10.9232   38.3428   -4.5364 O   0  0  0  0  0  0  0  0  0  0  0  0
    9.5890   38.2478   -4.0974 C   0  0  0  0  0  0  0  0  0  0  0  0
    9.5622   38.2158   -2.5681 C   0  0  0  0  0  0  0  0  0  0  0  0
    9.8684   39.3617   -1.8448 C   0  0  0  0  0  0  0  0  0  0  0  0
    9.8530   39.3557   -0.4468 C   0  0  0  0  0  0  0  0  0  0  0  0
    9.2389   37.0666   -1.8638 C   0  0  0  0  0  0  0  0  0  0  0  0
    9.4904   38.2005    0.2309 C   0  0  0  0  0  0  0  0  0  0  0  0
    9.1912   37.0527   -0.4922 C   0  0  0  0  0  0  0  0  0  0  0  0
   13.6487   39.4355  -11.2078 C   0  0  0  0  0  0  0  0  0  0  0  0
   13.9748   38.1649  -11.9649 C   0  0  0  0  0  0  0  0  0  0  0  0
   15.0514   38.2899  -12.8310 N   0  0  0  0  0  0  0  0  0  0  0  0
   13.3136   37.1660  -11.8685 O   0  0  0  0  0  0  0  0  0  0  0  0
   15.5333   39.1468  -12.8849 H   0  0  0  0  0  0  0  0  0  0  0  0
   15.4779   37.1777  -13.6584 C   0  0  0  0  0  0  0  0  0  0  0  0
   16.9294   36.8518  -13.3456 C   0  0  0  0  0  0  0  0  0  0  0  0
   17.3938   37.2941  -12.2619 O   0  0  0  0  0  0  0  0  0  0  0  0
   17.6084   36.1730  -14.1543 O   0  0  0  0  0  0  0  0  0  0  0  0
   16.8487   37.7967  -11.6891 H   0  0  0  0  0  0  0  0  0  0  0  0
   15.2301   37.4505  -15.1327 C   0  0  0  0  0  0  0  0  0  0  0  0
   15.0946   38.9294  -15.4040 C   0  0  0  0  0  0  0  0  0  0  0  0
   16.0183   39.4028  -16.4255 N   0  0  0  0  0  0  0  0  0  0  0  0
   16.9774   39.2526  -16.1125 H   0  0  0  0  0  0  0  0  0  0  0  0
   15.8653   40.3982  -16.5872 H   0  0  0  0  0  0  0  0  0  0  0  0
   14.3208   40.6301  -11.8757 C   0  0  0  0  0  0  0  0  0  0  0  0
   13.5720   41.9449  -11.7121 C   0  0  0  0  0  0  0  0  0  0  0  0
   13.2171   42.5194  -13.0706 C   0  0  0  0  0  0  0  0  0  0  0  0
   14.3769   42.9286  -10.8565 C   0  0  0  0  0  0  0  0  0  0  0  0
 16 15  2  0  0  0
 16 18  1  0  0  0
 15 14  1  0  0  0
 18 19  2  0  0  0
 14 13  1  0  0  0
 14 17  2  0  0  0
 13 12  1  0  0  0
 19 17  1  0  0  0
 12  8  1  0  0  0
 10  8  2  0  0  0
  8  9  1  0  0  0
  9  7  1  0  0  0
  7  4  1  0  0  0
  5  4  2  0  0  0
  3  4  1  0  0  0
 28 26  2  0  0  0
  4  1  1  0  0  0
 27 26  1  0  0  0
 26 25  1  0  0  0
  1 20  1  0  0  0
 25 22  1  0  0  0
 25 30  1  0  0  0
 22 21  1  0  0  0
 21 23  2  0  0  0
 21 20  1  0  0  0
 20 35  1  0  0  0
 30 31  1  0  0  0
 31 32  1  0  0  0
 35 36  1  0  0  0
 38 36  1  0  0  0
 36 37  1  0  0  0
  3  6  1  0  0  0
  1  2  1  0  0  0
 22 24  1  0  0  0
 27 29  1  0  0  0
  9 11  1  0  0  0
 32 33  1  0  0  0
 32 34  1  0  0  0
M  END
> <minimizedAffinity>
-6.74688

$$$$
5MNR_JC2_E_409


 38 38  0  0  0  0  0  0  0  0999 V2000
    7.0126   42.2907   -4.9704 N   0  0  0  0  0  0  0  0  0  0  0  0
    7.1442   41.6285   -5.7350 H   0  0  0  0  0  0  0  0  0  0  0  0
    6.1096   43.8119   -6.9553 O   0  0  0  0  0  0  0  0  0  0  0  0
    6.8961   43.7954   -5.6729 P   0  0  0  0  0  0  0  0  0  0  0  0
    6.2766   44.7189   -4.6399 O   0  0  0  0  0  0  0  0  0  0  0  0
    6.0832   44.7157   -7.3067 H   0  0  0  0  0  0  0  0  0  0  0  0
    8.6206   44.2895   -5.9978 C   0  0  0  0  0  0  0  0  0  0  0  0
    9.2561   44.4417   -8.3888 C   0  0  0  0  0  0  0  0  0  0  0  0
    9.0426   43.6939   -7.2401 N   0  0  0  0  0  0  0  0  0  0  0  0
    9.1724   45.6206   -8.4594 O   0  0  0  0  0  0  0  0  0  0  0  0
    9.1846   42.7203   -7.2750 H   0  0  0  0  0  0  0  0  0  0  0  0
    9.6089   43.5875   -9.4081 O   0  0  0  0  0  0  0  0  0  0  0  0
   10.5682   44.0289  -10.3391 C   0  0  0  0  0  0  0  0  0  0  0  0
   11.6495   42.9579  -10.4956 C   0  0  0  0  0  0  0  0  0  0  0  0
   12.3660   42.8638  -11.6820 C   0  0  0  0  0  0  0  0  0  0  0  0
   13.3570   41.8918  -11.8490 C   0  0  0  0  0  0  0  0  0  0  0  0
   11.9467   42.0616   -9.4810 C   0  0  0  0  0  0  0  0  0  0  0  0
   13.6577   41.0312  -10.8029 C   0  0  0  0  0  0  0  0  0  0  0  0
   12.9362   41.1206   -9.6191 C   0  0  0  0  0  0  0  0  0  0  0  0
    8.0364   41.9749   -3.9755 C   0  0  0  0  0  0  0  0  0  0  0  0
    8.3769   40.4992   -3.9616 C   0  0  0  0  0  0  0  0  0  0  0  0
    9.6484   40.2134   -4.4376 N   0  0  0  0  0  0  0  0  0  0  0  0
    7.5871   39.6555   -3.6315 O   0  0  0  0  0  0  0  0  0  0  0  0
   10.2367   40.9502   -4.7211 H   0  0  0  0  0  0  0  0  0  0  0  0
   10.1241   38.8461   -4.5240 C   0  0  0  0  0  0  0  0  0  0  0  0
   10.6738   38.4232   -3.1712 C   0  0  0  0  0  0  0  0  0  0  0  0
   11.6319   39.0962   -2.7079 O   0  0  0  0  0  0  0  0  0  0  0  0
   10.1749   37.4403   -2.5707 O   0  0  0  0  0  0  0  0  0  0  0  0
   11.9718   39.8226   -3.1925 H   0  0  0  0  0  0  0  0  0  0  0  0
   11.1224   38.6722   -5.6565 C   0  0  0  0  0  0  0  0  0  0  0  0
   11.2647   39.9392   -6.4648 C   0  0  0  0  0  0  0  0  0  0  0  0
   12.3857   40.7619   -6.0321 N   0  0  0  0  0  0  0  0  0  0  0  0
   12.2421   41.0505   -5.0644 H   0  0  0  0  0  0  0  0  0  0  0  0
   12.4510   41.5878   -6.6272 H   0  0  0  0  0  0  0  0  0  0  0  0
    7.5361   42.4099   -2.6024 C   0  0  0  0  0  0  0  0  0  0  0  0
    8.5729   43.1344   -1.7563 C   0  0  0  0  0  0  0  0  0  0  0  0
    9.3778   42.1373   -0.9445 C   0  0  0  0  0  0  0  0  0  0  0  0
    7.9115   44.2012   -0.8776 C   0  0  0  0  0  0  0  0  0  0  0  0
 16 15  2  0  0  0
 16 18  1  0  0  0
 15 14  1  0  0  0
 18 19  2  0  0  0
 14 13  1  0  0  0
 14 17  2  0  0  0
 13 12  1  0  0  0
 19 17  1  0  0  0
 12  8  1  0  0  0
 10  8  2  0  0  0
  8  9  1  0  0  0
  9  7  1  0  0  0
  7  4  1  0  0  0
  5  4  2  0  0  0
  3  4  1  0  0  0
 28 26  2  0  0  0
  4  1  1  0  0  0
 27 26  1  0  0  0
 26 25  1  0  0  0
  1 20  1  0  0  0
 25 22  1  0  0  0
 25 30  1  0  0  0
 22 21  1  0  0  0
 21 23  2  0  0  0
 21 20  1  0  0  0
 20 35  1  0  0  0
 30 31  1  0  0  0
 31 32  1  0  0  0
 35 36  1  0  0  0
 38 36  1  0  0  0
 36 37  1  0  0  0
  3  6  1  0  0  0
  1  2  1  0  0  0
 22 24  1  0  0  0
 27 29  1  0  0  0
  9 11  1  0  0  0
 32 33  1  0  0  0
 32 34  1  0  0  0
M  END
> <minimizedAffinity>
-6.74056

$$$$
5MNR_JC2_E_409


 38 38  0  0  0  0  0  0  0  0999 V2000
   13.9985   41.9376   -8.8454 N   0  0  0  0  0  0  0  0  0  0  0  0
   14.3025   40.9692   -8.9462 H   0  0  0  0  0  0  0  0  0  0  0  0
   13.9594   42.1304   -6.1939 O   0  0  0  0  0  0  0  0  0  0  0  0
   13.1177   42.0043   -7.4344 P   0  0  0  0  0  0  0  0  0  0  0  0
   12.1596   43.1742   -7.5661 O   0  0  0  0  0  0  0  0  0  0  0  0
   13.3833   42.1635   -5.4142 H   0  0  0  0  0  0  0  0  0  0  0  0
   12.1874   40.4369   -7.3947 C   0  0  0  0  0  0  0  0  0  0  0  0
   11.0835   39.0659   -5.6495 C   0  0  0  0  0  0  0  0  0  0  0  0
   11.6299   40.2672   -6.0769 N   0  0  0  0  0  0  0  0  0  0  0  0
   11.0656   38.0635   -6.2793 O   0  0  0  0  0  0  0  0  0  0  0  0
   11.6371   41.0320   -5.4570 H   0  0  0  0  0  0  0  0  0  0  0  0
   10.6027   39.2338   -4.3713 O   0  0  0  0  0  0  0  0  0  0  0  0
    9.4598   38.5041   -3.9931 C   0  0  0  0  0  0  0  0  0  0  0  0
    9.4538   38.3276   -2.4734 C   0  0  0  0  0  0  0  0  0  0  0  0
    9.7205   39.4128   -1.6481 C   0  0  0  0  0  0  0  0  0  0  0  0
    9.7232   39.2751   -0.2568 C   0  0  0  0  0  0  0  0  0  0  0  0
    9.1882   37.1046   -1.8778 C   0  0  0  0  0  0  0  0  0  0  0  0
    9.4183   38.0468    0.3122 C   0  0  0  0  0  0  0  0  0  0  0  0
    9.1587   36.9600   -0.5133 C   0  0  0  0  0  0  0  0  0  0  0  0
   13.4291   42.3236  -10.1356 C   0  0  0  0  0  0  0  0  0  0  0  0
   13.5096   41.2009  -11.1491 C   0  0  0  0  0  0  0  0  0  0  0  0
   13.6246   39.9406  -10.5805 N   0  0  0  0  0  0  0  0  0  0  0  0
   13.5395   41.3992  -12.3341 O   0  0  0  0  0  0  0  0  0  0  0  0
   13.6237   39.8491   -9.6002 H   0  0  0  0  0  0  0  0  0  0  0  0
   13.7462   38.7557  -11.4080 C   0  0  0  0  0  0  0  0  0  0  0  0
   13.2404   37.5510  -10.6309 C   0  0  0  0  0  0  0  0  0  0  0  0
   12.9867   36.5098  -11.2921 O   0  0  0  0  0  0  0  0  0  0  0  0
   13.0897   37.6249   -9.3868 O   0  0  0  0  0  0  0  0  0  0  0  0
   13.1147   36.5015  -12.2203 H   0  0  0  0  0  0  0  0  0  0  0  0
   15.1631   38.5803  -11.9283 C   0  0  0  0  0  0  0  0  0  0  0  0
   15.1742   38.2960  -13.4109 C   0  0  0  0  0  0  0  0  0  0  0  0
   14.1943   39.0850  -14.1443 N   0  0  0  0  0  0  0  0  0  0  0  0
   13.2571   38.8568  -13.8128 H   0  0  0  0  0  0  0  0  0  0  0  0
   14.2637   38.8736  -15.1397 H   0  0  0  0  0  0  0  0  0  0  0  0
   14.1732   43.5499  -10.6525 C   0  0  0  0  0  0  0  0  0  0  0  0
   13.2702   44.6790  -11.1274 C   0  0  0  0  0  0  0  0  0  0  0  0
   11.8213   44.3620  -10.8084 C   0  0  0  0  0  0  0  0  0  0  0  0
   13.4893   44.9636  -12.6169 C   0  0  0  0  0  0  0  0  0  0  0  0
 16 15  2  0  0  0
 16 18  1  0  0  0
 15 14  1  0  0  0
 18 19  2  0  0  0
 14 13  1  0  0  0
 14 17  2  0  0  0
 13 12  1  0  0  0
 19 17  1  0  0  0
 12  8  1  0  0  0
 10  8  2  0  0  0
  8  9  1  0  0  0
  9  7  1  0  0  0
  7  4  1  0  0  0
  5  4  2  0  0  0
  3  4  1  0  0  0
 28 26  2  0  0  0
  4  1  1  0  0  0
 27 26  1  0  0  0
 26 25  1  0  0  0
  1 20  1  0  0  0
 25 22  1  0  0  0
 25 30  1  0  0  0
 22 21  1  0  0  0
 21 23  2  0  0  0
 21 20  1  0  0  0
 20 35  1  0  0  0
 30 31  1  0  0  0
 31 32  1  0  0  0
 35 36  1  0  0  0
 38 36  1  0  0  0
 36 37  1  0  0  0
  3  6  1  0  0  0
  1  2  1  0  0  0
 22 24  1  0  0  0
 27 29  1  0  0  0
  9 11  1  0  0  0
 32 33  1  0  0  0
 32 34  1  0  0  0
M  END
> <minimizedAffinity>
-6.65219

$$$$
