6FNF_DXH_A_1001


 39 43  0  0  0  0  0  0  0  0999 V2000
  -81.5771  -22.3460   84.6084 C   0  0  0  0  0  0  0  0  0  0  0  0
  -82.2508  -21.2562   85.4037 C   0  0  0  0  0  0  0  0  0  0  0  0
  -82.1659  -19.9235   84.9865 C   0  0  0  0  0  0  0  0  0  0  0  0
  -82.7882  -18.9515   85.6894 C   0  0  0  0  0  0  0  0  0  0  0  0
  -83.4984  -19.2706   86.7917 C   0  0  0  0  0  0  0  0  0  0  0  0
  -83.6113  -20.5692   87.2039 C   0  0  0  0  0  0  0  0  0  0  0  0
  -82.9772  -21.5825   86.4929 C   0  0  0  0  0  0  0  0  0  0  0  0
  -84.1823  -18.1022   87.5045 C   0  0  0  0  0  0  0  0  0  0  0  0
  -83.9133  -17.0303   87.2709 O   0  0  0  0  0  0  0  0  0  0  0  0
  -85.2377  -18.4576   88.4580 N   0  0  0  0  0  0  0  0  0  0  0  0
  -85.4398  -19.4054   88.6318 H   0  0  0  0  0  0  0  0  0  0  0  0
  -85.9625  -17.4576   89.1251 C   0  0  0  0  0  0  0  0  0  0  0  0
  -86.3089  -17.6744   90.4288 C   0  0  0  0  0  0  0  0  0  0  0  0
  -87.0598  -16.7365   91.0932 C   0  0  0  0  0  0  0  0  0  0  0  0
  -87.4349  -15.5962   90.4753 C   0  0  0  0  0  0  0  0  0  0  0  0
  -87.0994  -15.3846   89.1767 C   0  0  0  0  0  0  0  0  0  0  0  0
  -86.3317  -16.3543   88.4823 C   0  0  0  0  0  0  0  0  0  0  0  0
  -87.5381  -14.0943   88.5239 C   0  0  0  0  0  0  0  0  0  0  0  0
  -86.5951  -13.2419   88.8296 F   0  0  0  0  0  0  0  0  0  0  0  0
  -88.6674  -13.5874   89.0029 F   0  0  0  0  0  0  0  0  0  0  0  0
  -87.7030  -14.2084   87.2360 F   0  0  0  0  0  0  0  0  0  0  0  0
  -81.4510  -19.4717   83.8006 N   0  0  0  0  0  0  0  0  0  0  0  0
  -81.9607  -19.3226   82.9715 H   0  0  0  0  0  0  0  0  0  0  0  0
  -80.0020  -19.2289   83.7886 C   0  0  0  0  0  0  0  0  0  0  0  0
  -79.3120  -19.5224   84.8246 N   0  0  0  0  0  0  0  0  0  0  0  0
  -78.0324  -19.3169   84.8575 C   0  0  0  0  0  0  0  0  0  0  0  0
  -77.3518  -18.8183   83.8689 N   0  0  0  0  0  0  0  0  0  0  0  0
  -77.9685  -18.4725   82.7539 C   0  0  0  0  0  0  0  0  0  0  0  0
  -79.3102  -18.6586   82.6673 C   0  0  0  0  0  0  0  0  0  0  0  0
  -79.6597  -18.1940   81.4115 C   0  0  0  0  0  0  0  0  0  0  0  0
  -78.5645  -17.7737   80.8214 N   0  0  0  0  0  0  0  0  0  0  0  0
  -77.5641  -17.9282   81.6194 N   0  0  0  0  0  0  0  0  0  0  0  0
  -76.2327  -17.5806   81.2962 C   0  0  0  0  0  0  0  0  0  0  0  0
  -77.2911  -19.7185   86.1083 C   0  0  0  0  0  0  0  0  0  0  0  0
  -75.9227  -19.6684   86.1107 C   0  0  0  0  0  0  0  0  0  0  0  0
  -75.2829  -19.9937   87.1637 N   0  0  0  0  0  0  0  0  0  0  0  0
  -75.8940  -20.3771   88.2368 C   0  0  0  0  0  0  0  0  0  0  0  0
  -77.2694  -20.4586   88.3049 C   0  0  0  0  0  0  0  0  0  0  0  0
  -77.9883  -20.1248   87.2089 C   0  0  0  0  0  0  0  0  0  0  0  0
 31 30  2  0  0  0
 31 32  1  0  0  0
 33 32  1  0  0  0
 30 29  1  0  0  0
 32 28  1  0  0  0
 29 28  2  0  0  0
 29 24  1  0  0  0
 28 27  1  0  0  0
 24 22  1  0  0  0
 24 25  2  0  0  0
 22  3  1  0  0  0
 27 26  2  0  0  0
  1  2  1  0  0  0
 25 26  1  0  0  0
 26 34  1  0  0  0
  3  2  2  0  0  0
  3  4  1  0  0  0
  2  7  1  0  0  0
  4  5  2  0  0  0
 34 39  2  0  0  0
 34 35  1  0  0  0
 39 38  1  0  0  0
  7  6  2  0  0  0
  5  6  1  0  0  0
  5  8  1  0  0  0
 35 36  2  0  0  0
 38 37  2  0  0  0
  9  8  2  0  0  0
  8 10  1  0  0  0
 21 18  1  0  0  0
 36 37  1  0  0  0
 10 12  1  0  0  0
 17 12  2  0  0  0
 17 16  1  0  0  0
 18 19  1  0  0  0
 18 20  1  0  0  0
 18 16  1  0  0  0
 12 13  1  0  0  0
 16 15  2  0  0  0
 13 14  2  0  0  0
 15 14  1  0  0  0
 10 11  1  0  0  0
 22 23  1  0  0  0
M  END
> <minimizedAffinity>
-14.41422

$$$$
6FNF_DXH_A_1001


 39 43  0  0  0  0  0  0  0  0999 V2000
  -81.9683  -22.5434   84.6859 C   0  0  0  0  0  0  0  0  0  0  0  0
  -82.6173  -21.4394   85.4821 C   0  0  0  0  0  0  0  0  0  0  0  0
  -82.2533  -20.1060   85.2656 C   0  0  0  0  0  0  0  0  0  0  0  0
  -82.8517  -19.1171   85.9656 C   0  0  0  0  0  0  0  0  0  0  0  0
  -83.8073  -19.4185   86.8697 C   0  0  0  0  0  0  0  0  0  0  0  0
  -84.1923  -20.7132   87.0807 C   0  0  0  0  0  0  0  0  0  0  0  0
  -83.5870  -21.7438   86.3696 C   0  0  0  0  0  0  0  0  0  0  0  0
  -84.4380  -18.2275   87.5940 C   0  0  0  0  0  0  0  0  0  0  0  0
  -84.1317  -17.1657   87.3600 O   0  0  0  0  0  0  0  0  0  0  0  0
  -85.4944  -18.5460   88.5594 N   0  0  0  0  0  0  0  0  0  0  0  0
  -85.7298  -19.4860   88.7331 H   0  0  0  0  0  0  0  0  0  0  0  0
  -86.1729  -17.5215   89.2381 C   0  0  0  0  0  0  0  0  0  0  0  0
  -86.3516  -17.6508   90.5864 C   0  0  0  0  0  0  0  0  0  0  0  0
  -87.0539  -16.6892   91.2700 C   0  0  0  0  0  0  0  0  0  0  0  0
  -87.5451  -15.6104   90.6238 C   0  0  0  0  0  0  0  0  0  0  0  0
  -87.3763  -15.4863   89.2822 C   0  0  0  0  0  0  0  0  0  0  0  0
  -86.6597  -16.4812   88.5692 C   0  0  0  0  0  0  0  0  0  0  0  0
  -87.9406  -14.2625   88.5988 C   0  0  0  0  0  0  0  0  0  0  0  0
  -88.5209  -14.7318   87.5253 F   0  0  0  0  0  0  0  0  0  0  0  0
  -87.0297  -13.3929   88.1793 F   0  0  0  0  0  0  0  0  0  0  0  0
  -88.7659  -13.5949   89.3551 F   0  0  0  0  0  0  0  0  0  0  0  0
  -81.2569  -19.6670   84.2982 N   0  0  0  0  0  0  0  0  0  0  0  0
  -81.5560  -19.4168   83.3943 H   0  0  0  0  0  0  0  0  0  0  0  0
  -79.8243  -19.5816   84.6137 C   0  0  0  0  0  0  0  0  0  0  0  0
  -79.0163  -19.1361   83.7281 N   0  0  0  0  0  0  0  0  0  0  0  0
  -77.7443  -19.0517   83.9637 C   0  0  0  0  0  0  0  0  0  0  0  0
  -77.1906  -19.3921   85.0892 N   0  0  0  0  0  0  0  0  0  0  0  0
  -77.9336  -19.8727   86.0690 C   0  0  0  0  0  0  0  0  0  0  0  0
  -79.2717  -19.9902   85.8741 C   0  0  0  0  0  0  0  0  0  0  0  0
  -79.7630  -20.5280   87.0507 C   0  0  0  0  0  0  0  0  0  0  0  0
  -78.7486  -20.6977   87.8672 N   0  0  0  0  0  0  0  0  0  0  0  0
  -77.6635  -20.3200   87.2830 N   0  0  0  0  0  0  0  0  0  0  0  0
  -76.3846  -20.3648   87.8834 C   0  0  0  0  0  0  0  0  0  0  0  0
  -76.8667  -18.4882   82.8740 C   0  0  0  0  0  0  0  0  0  0  0  0
  -75.5153  -18.4177   83.0837 C   0  0  0  0  0  0  0  0  0  0  0  0
  -74.7597  -17.9546   82.1680 N   0  0  0  0  0  0  0  0  0  0  0  0
  -75.2373  -17.5419   81.0394 C   0  0  0  0  0  0  0  0  0  0  0  0
  -76.5879  -17.5763   80.7612 C   0  0  0  0  0  0  0  0  0  0  0  0
  -77.4271  -18.0582   81.7063 C   0  0  0  0  0  0  0  0  0  0  0  0
 31 30  2  0  0  0
 31 32  1  0  0  0
 33 32  1  0  0  0
 30 29  1  0  0  0
 32 28  1  0  0  0
 29 28  2  0  0  0
 29 24  1  0  0  0
 28 27  1  0  0  0
 24 22  1  0  0  0
 24 25  2  0  0  0
 22  3  1  0  0  0
 27 26  2  0  0  0
  1  2  1  0  0  0
 25 26  1  0  0  0
 26 34  1  0  0  0
  3  2  2  0  0  0
  3  4  1  0  0  0
  2  7  1  0  0  0
  4  5  2  0  0  0
 34 39  2  0  0  0
 34 35  1  0  0  0
 39 38  1  0  0  0
  7  6  2  0  0  0
  5  6  1  0  0  0
  5  8  1  0  0  0
 35 36  2  0  0  0
 38 37  2  0  0  0
  9  8  2  0  0  0
  8 10  1  0  0  0
 21 18  1  0  0  0
 36 37  1  0  0  0
 10 12  1  0  0  0
 17 12  2  0  0  0
 17 16  1  0  0  0
 18 19  1  0  0  0
 18 20  1  0  0  0
 18 16  1  0  0  0
 12 13  1  0  0  0
 16 15  2  0  0  0
 13 14  2  0  0  0
 15 14  1  0  0  0
 10 11  1  0  0  0
 22 23  1  0  0  0
M  END
> <minimizedAffinity>
-13.09625

$$$$
6FNF_DXH_A_1001


 39 43  0  0  0  0  0  0  0  0999 V2000
  -81.2009  -22.5561   85.2699 C   0  0  0  0  0  0  0  0  0  0  0  0
  -81.9893  -21.4324   85.8941 C   0  0  0  0  0  0  0  0  0  0  0  0
  -81.4812  -20.7447   87.0014 C   0  0  0  0  0  0  0  0  0  0  0  0
  -82.1803  -19.7243   87.5457 C   0  0  0  0  0  0  0  0  0  0  0  0
  -83.3675  -19.3654   87.0137 C   0  0  0  0  0  0  0  0  0  0  0  0
  -83.8713  -20.0107   85.9189 C   0  0  0  0  0  0  0  0  0  0  0  0
  -83.1657  -21.0634   85.3459 C   0  0  0  0  0  0  0  0  0  0  0  0
  -84.0700  -18.1856   87.6886 C   0  0  0  0  0  0  0  0  0  0  0  0
  -83.7671  -17.1186   87.4752 O   0  0  0  0  0  0  0  0  0  0  0  0
  -85.1870  -18.5228   88.5764 N   0  0  0  0  0  0  0  0  0  0  0  0
  -85.4172  -19.4668   88.7345 H   0  0  0  0  0  0  0  0  0  0  0  0
  -85.9309  -17.5104   89.2027 C   0  0  0  0  0  0  0  0  0  0  0  0
  -86.2999  -17.6945   90.5052 C   0  0  0  0  0  0  0  0  0  0  0  0
  -87.0695  -16.7446   91.1301 C   0  0  0  0  0  0  0  0  0  0  0  0
  -87.4409  -15.6242   90.4746 C   0  0  0  0  0  0  0  0  0  0  0  0
  -87.0827  -15.4453   89.1771 C   0  0  0  0  0  0  0  0  0  0  0  0
  -86.2956  -16.4276   88.5236 C   0  0  0  0  0  0  0  0  0  0  0  0
  -87.5180  -14.1763   88.4817 C   0  0  0  0  0  0  0  0  0  0  0  0
  -88.7248  -13.9584   88.9348 F   0  0  0  0  0  0  0  0  0  0  0  0
  -87.6284  -14.2774   87.1628 F   0  0  0  0  0  0  0  0  0  0  0  0
  -86.7164  -13.1737   88.7081 F   0  0  0  0  0  0  0  0  0  0  0  0
  -80.2020  -21.0298   87.6369 N   0  0  0  0  0  0  0  0  0  0  0  0
  -80.1852  -21.6406   88.4088 H   0  0  0  0  0  0  0  0  0  0  0  0
  -78.9356  -20.4449   87.1753 C   0  0  0  0  0  0  0  0  0  0  0  0
  -78.8591  -19.9836   85.9849 N   0  0  0  0  0  0  0  0  0  0  0  0
  -77.7583  -19.4663   85.5364 C   0  0  0  0  0  0  0  0  0  0  0  0
  -76.6675  -19.3627   86.2355 N   0  0  0  0  0  0  0  0  0  0  0  0
  -76.6352  -19.8157   87.4751 C   0  0  0  0  0  0  0  0  0  0  0  0
  -77.7582  -20.3748   87.9936 C   0  0  0  0  0  0  0  0  0  0  0  0
  -77.4113  -20.7604   89.2765 C   0  0  0  0  0  0  0  0  0  0  0  0
  -76.1556  -20.4274   89.4686 N   0  0  0  0  0  0  0  0  0  0  0  0
  -75.6921  -19.8777   88.3990 N   0  0  0  0  0  0  0  0  0  0  0  0
  -74.3696  -19.3966   88.2656 C   0  0  0  0  0  0  0  0  0  0  0  0
  -77.7638  -18.9200   84.1305 C   0  0  0  0  0  0  0  0  0  0  0  0
  -76.6251  -18.3354   83.6438 C   0  0  0  0  0  0  0  0  0  0  0  0
  -76.6108  -17.8795   82.4539 N   0  0  0  0  0  0  0  0  0  0  0  0
  -77.6508  -17.9498   81.6887 C   0  0  0  0  0  0  0  0  0  0  0  0
  -78.8336  -18.5183   82.1136 C   0  0  0  0  0  0  0  0  0  0  0  0
  -78.8940  -19.0130   83.3711 C   0  0  0  0  0  0  0  0  0  0  0  0
 31 30  2  0  0  0
 31 32  1  0  0  0
 33 32  1  0  0  0
 30 29  1  0  0  0
 32 28  1  0  0  0
 29 28  2  0  0  0
 29 24  1  0  0  0
 28 27  1  0  0  0
 24 22  1  0  0  0
 24 25  2  0  0  0
 22  3  1  0  0  0
 27 26  2  0  0  0
  1  2  1  0  0  0
 25 26  1  0  0  0
 26 34  1  0  0  0
  3  2  2  0  0  0
  3  4  1  0  0  0
  2  7  1  0  0  0
  4  5  2  0  0  0
 34 39  2  0  0  0
 34 35  1  0  0  0
 39 38  1  0  0  0
  7  6  2  0  0  0
  5  6  1  0  0  0
  5  8  1  0  0  0
 35 36  2  0  0  0
 38 37  2  0  0  0
  9  8  2  0  0  0
  8 10  1  0  0  0
 21 18  1  0  0  0
 36 37  1  0  0  0
 10 12  1  0  0  0
 17 12  2  0  0  0
 17 16  1  0  0  0
 18 19  1  0  0  0
 18 20  1  0  0  0
 18 16  1  0  0  0
 12 13  1  0  0  0
 16 15  2  0  0  0
 13 14  2  0  0  0
 15 14  1  0  0  0
 10 11  1  0  0  0
 22 23  1  0  0  0
M  END
> <minimizedAffinity>
-12.34497

$$$$
6FNF_DXH_A_1001


 39 43  0  0  0  0  0  0  0  0999 V2000
  -74.8450  -17.3239   81.0071 C   0  0  0  0  0  0  0  0  0  0  0  0
  -76.1764  -17.7912   81.5389 C   0  0  0  0  0  0  0  0  0  0  0  0
  -76.2520  -18.4483   82.7718 C   0  0  0  0  0  0  0  0  0  0  0  0
  -77.4490  -18.8472   83.2557 C   0  0  0  0  0  0  0  0  0  0  0  0
  -78.5731  -18.6036   82.5497 C   0  0  0  0  0  0  0  0  0  0  0  0
  -78.5229  -17.9442   81.3532 C   0  0  0  0  0  0  0  0  0  0  0  0
  -77.2996  -17.5267   80.8396 C   0  0  0  0  0  0  0  0  0  0  0  0
  -79.8786  -19.0754   83.1929 C   0  0  0  0  0  0  0  0  0  0  0  0
  -80.8814  -18.6937   82.8398 O   0  0  0  0  0  0  0  0  0  0  0  0
  -79.7494  -20.0866   84.2466 N   0  0  0  0  0  0  0  0  0  0  0  0
  -78.8553  -20.3913   84.5238 H   0  0  0  0  0  0  0  0  0  0  0  0
  -80.8903  -20.6237   84.8634 C   0  0  0  0  0  0  0  0  0  0  0  0
  -81.3594  -21.8258   84.4146 C   0  0  0  0  0  0  0  0  0  0  0  0
  -82.5014  -22.3533   84.9647 C   0  0  0  0  0  0  0  0  0  0  0  0
  -83.1459  -21.7050   85.9582 C   0  0  0  0  0  0  0  0  0  0  0  0
  -82.6857  -20.5056   86.3980 C   0  0  0  0  0  0  0  0  0  0  0  0
  -81.5116  -19.9512   85.8270 C   0  0  0  0  0  0  0  0  0  0  0  0
  -83.4361  -19.8148   87.5129 C   0  0  0  0  0  0  0  0  0  0  0  0
  -82.9111  -20.3038   88.6058 F   0  0  0  0  0  0  0  0  0  0  0  0
  -84.7324  -20.0955   87.5649 F   0  0  0  0  0  0  0  0  0  0  0  0
  -83.3428  -18.5159   87.4578 F   0  0  0  0  0  0  0  0  0  0  0  0
  -75.1088  -18.7375   83.6267 N   0  0  0  0  0  0  0  0  0  0  0  0
  -74.3030  -19.1298   83.2192 H   0  0  0  0  0  0  0  0  0  0  0  0
  -75.1066  -18.4689   85.0712 C   0  0  0  0  0  0  0  0  0  0  0  0
  -75.8948  -19.1313   85.8298 N   0  0  0  0  0  0  0  0  0  0  0  0
  -75.9291  -18.9196   87.1084 C   0  0  0  0  0  0  0  0  0  0  0  0
  -75.1828  -18.0491   87.7201 N   0  0  0  0  0  0  0  0  0  0  0  0
  -74.3388  -17.3051   87.0292 C   0  0  0  0  0  0  0  0  0  0  0  0
  -74.2669  -17.4794   85.6850 C   0  0  0  0  0  0  0  0  0  0  0  0
  -73.3253  -16.5628   85.2511 C   0  0  0  0  0  0  0  0  0  0  0  0
  -72.8870  -15.9110   86.3034 N   0  0  0  0  0  0  0  0  0  0  0  0
  -73.4941  -16.3423   87.3554 N   0  0  0  0  0  0  0  0  0  0  0  0
  -73.2564  -15.8568   88.6615 C   0  0  0  0  0  0  0  0  0  0  0  0
  -76.8674  -19.7654   87.9327 C   0  0  0  0  0  0  0  0  0  0  0  0
  -76.4873  -20.1358   89.1951 C   0  0  0  0  0  0  0  0  0  0  0  0
  -77.2741  -20.8407   89.9078 N   0  0  0  0  0  0  0  0  0  0  0  0
  -78.4283  -21.2227   89.4676 C   0  0  0  0  0  0  0  0  0  0  0  0
  -78.8742  -20.8933   88.2045 C   0  0  0  0  0  0  0  0  0  0  0  0
  -78.0698  -20.1479   87.4127 C   0  0  0  0  0  0  0  0  0  0  0  0
 31 30  2  0  0  0
 31 32  1  0  0  0
 33 32  1  0  0  0
 30 29  1  0  0  0
 32 28  1  0  0  0
 29 28  2  0  0  0
 29 24  1  0  0  0
 28 27  1  0  0  0
 24 22  1  0  0  0
 24 25  2  0  0  0
 22  3  1  0  0  0
 27 26  2  0  0  0
  1  2  1  0  0  0
 25 26  1  0  0  0
 26 34  1  0  0  0
  3  2  2  0  0  0
  3  4  1  0  0  0
  2  7  1  0  0  0
  4  5  2  0  0  0
 34 39  2  0  0  0
 34 35  1  0  0  0
 39 38  1  0  0  0
  7  6  2  0  0  0
  5  6  1  0  0  0
  5  8  1  0  0  0
 35 36  2  0  0  0
 38 37  2  0  0  0
  9  8  2  0  0  0
  8 10  1  0  0  0
 21 18  1  0  0  0
 36 37  1  0  0  0
 10 12  1  0  0  0
 17 12  2  0  0  0
 17 16  1  0  0  0
 18 19  1  0  0  0
 18 20  1  0  0  0
 18 16  1  0  0  0
 12 13  1  0  0  0
 16 15  2  0  0  0
 13 14  2  0  0  0
 15 14  1  0  0  0
 10 11  1  0  0  0
 22 23  1  0  0  0
M  END
> <minimizedAffinity>
-11.75044

$$$$
6FNF_DXH_A_1001


 39 43  0  0  0  0  0  0  0  0999 V2000
  -81.4379  -22.6774   85.0550 C   0  0  0  0  0  0  0  0  0  0  0  0
  -82.1562  -21.5438   85.7427 C   0  0  0  0  0  0  0  0  0  0  0  0
  -81.5398  -20.8503   86.7898 C   0  0  0  0  0  0  0  0  0  0  0  0
  -82.1774  -19.8212   87.3903 C   0  0  0  0  0  0  0  0  0  0  0  0
  -83.4085  -19.4592   86.9723 C   0  0  0  0  0  0  0  0  0  0  0  0
  -84.0192  -20.1101   85.9369 C   0  0  0  0  0  0  0  0  0  0  0  0
  -83.3780  -21.1717   85.3075 C   0  0  0  0  0  0  0  0  0  0  0  0
  -84.0361  -18.2696   87.7016 C   0  0  0  0  0  0  0  0  0  0  0  0
  -83.6087  -17.2283   87.6078 O   0  0  0  0  0  0  0  0  0  0  0  0
  -85.2481  -18.5547   88.4757 N   0  0  0  0  0  0  0  0  0  0  0  0
  -85.5864  -19.4776   88.5310 H   0  0  0  0  0  0  0  0  0  0  0  0
  -85.9302  -17.5224   89.1388 C   0  0  0  0  0  0  0  0  0  0  0  0
  -86.2094  -17.6840   90.4664 C   0  0  0  0  0  0  0  0  0  0  0  0
  -86.9182  -16.7136   91.1306 C   0  0  0  0  0  0  0  0  0  0  0  0
  -87.3174  -15.5957   90.4875 C   0  0  0  0  0  0  0  0  0  0  0  0
  -87.0487  -15.4391   89.1657 C   0  0  0  0  0  0  0  0  0  0  0  0
  -86.3249  -16.4424   88.4721 C   0  0  0  0  0  0  0  0  0  0  0  0
  -87.5121  -14.1720   88.4852 C   0  0  0  0  0  0  0  0  0  0  0  0
  -86.6348  -13.2727   88.8468 F   0  0  0  0  0  0  0  0  0  0  0  0
  -88.6933  -13.7244   88.8930 F   0  0  0  0  0  0  0  0  0  0  0  0
  -87.5915  -14.2924   87.1898 F   0  0  0  0  0  0  0  0  0  0  0  0
  -80.2068  -21.1384   87.3013 N   0  0  0  0  0  0  0  0  0  0  0  0
  -80.1056  -21.8405   87.9840 H   0  0  0  0  0  0  0  0  0  0  0  0
  -79.0065  -20.4260   86.8421 C   0  0  0  0  0  0  0  0  0  0  0  0
  -78.0074  -20.3139   87.6325 N   0  0  0  0  0  0  0  0  0  0  0  0
  -76.9326  -19.6867   87.2688 C   0  0  0  0  0  0  0  0  0  0  0  0
  -76.7719  -19.1391   86.1011 N   0  0  0  0  0  0  0  0  0  0  0  0
  -77.7459  -19.1895   85.2113 C   0  0  0  0  0  0  0  0  0  0  0  0
  -78.8975  -19.8275   85.5418 C   0  0  0  0  0  0  0  0  0  0  0  0
  -79.7143  -19.6980   84.4322 C   0  0  0  0  0  0  0  0  0  0  0  0
  -79.0488  -19.0248   83.5221 N   0  0  0  0  0  0  0  0  0  0  0  0
  -77.8873  -18.7139   83.9863 N   0  0  0  0  0  0  0  0  0  0  0  0
  -76.9134  -17.9894   83.2619 C   0  0  0  0  0  0  0  0  0  0  0  0
  -75.7909  -19.6263   88.2527 C   0  0  0  0  0  0  0  0  0  0  0  0
  -74.7382  -18.7897   87.9933 C   0  0  0  0  0  0  0  0  0  0  0  0
  -73.7717  -18.7193   88.8209 N   0  0  0  0  0  0  0  0  0  0  0  0
  -73.7546  -19.4244   89.9047 C   0  0  0  0  0  0  0  0  0  0  0  0
  -74.7765  -20.2929   90.2276 C   0  0  0  0  0  0  0  0  0  0  0  0
  -75.8217  -20.4010   89.3759 C   0  0  0  0  0  0  0  0  0  0  0  0
 31 30  2  0  0  0
 31 32  1  0  0  0
 33 32  1  0  0  0
 30 29  1  0  0  0
 32 28  1  0  0  0
 29 28  2  0  0  0
 29 24  1  0  0  0
 28 27  1  0  0  0
 24 22  1  0  0  0
 24 25  2  0  0  0
 22  3  1  0  0  0
 27 26  2  0  0  0
  1  2  1  0  0  0
 25 26  1  0  0  0
 26 34  1  0  0  0
  3  2  2  0  0  0
  3  4  1  0  0  0
  2  7  1  0  0  0
  4  5  2  0  0  0
 34 39  2  0  0  0
 34 35  1  0  0  0
 39 38  1  0  0  0
  7  6  2  0  0  0
  5  6  1  0  0  0
  5  8  1  0  0  0
 35 36  2  0  0  0
 38 37  2  0  0  0
  9  8  2  0  0  0
  8 10  1  0  0  0
 21 18  1  0  0  0
 36 37  1  0  0  0
 10 12  1  0  0  0
 17 12  2  0  0  0
 17 16  1  0  0  0
 18 19  1  0  0  0
 18 20  1  0  0  0
 18 16  1  0  0  0
 12 13  1  0  0  0
 16 15  2  0  0  0
 13 14  2  0  0  0
 15 14  1  0  0  0
 10 11  1  0  0  0
 22 23  1  0  0  0
M  END
> <minimizedAffinity>
-11.63912

$$$$
