4KXN_6K6_A_201


 34 37  0  0  0  0  0  0  0  0999 V2000
    4.3380   -5.0849   41.4760 C   0  0  0  0  0  0  0  0  0  0  0  0
    5.4154   -5.8347   41.1463 N   0  0  0  0  0  0  0  0  0  0  0  0
    6.3400   -5.4002   40.3042 C   0  0  0  0  0  0  0  0  0  0  0  0
    6.2485   -4.2047   39.7529 N   0  0  0  0  0  0  0  0  0  0  0  0
    5.2054   -3.3995   40.0381 C   0  0  0  0  0  0  0  0  0  0  0  0
    4.2114   -3.8270   40.9103 C   0  0  0  0  0  0  0  0  0  0  0  0
    3.3153   -2.8521   41.0129 N   0  0  0  0  0  0  0  0  0  0  0  0
    3.7188   -1.8465   40.2316 C   0  0  0  0  0  0  0  0  0  0  0  0
    4.8734   -2.1754   39.6260 N   0  0  0  0  0  0  0  0  0  0  0  0
    5.6643   -1.3439   38.6679 C   0  0  0  0  0  0  0  0  0  0  0  0
    4.9630   -0.0821   38.4812 O   0  0  0  0  0  0  0  0  0  0  0  0
    5.8425   -1.9562   37.2563 C   0  0  0  0  0  0  0  0  0  0  0  0
    7.2367   -2.0258   36.9322 O   0  0  0  0  0  0  0  0  0  0  0  0
    5.1696   -0.9709   36.3146 C   0  0  0  0  0  0  0  0  0  0  0  0
    5.9843   -0.7357   35.1600 O   0  0  0  0  0  0  0  0  0  0  0  0
    5.1226    0.3120   37.1322 C   0  0  0  0  0  0  0  0  0  0  0  0
    7.6260   -1.1390   36.9863 H   0  0  0  0  0  0  0  0  0  0  0  0
    6.8571   -0.4177   35.4395 H   0  0  0  0  0  0  0  0  0  0  0  0
    3.8436    0.9160   36.6175 C   0  0  0  0  0  0  0  0  0  0  0  0
    3.3785    2.0772   37.3218 O   0  0  0  0  0  0  0  0  0  0  0  0
    1.8290    1.8001   37.8069 P   0  0  0  0  0  0  0  0  0  0  0  0
    1.5831    1.7995   39.3631 O   0  0  0  0  0  0  0  0  0  0  0  0
    0.6381    2.2035   36.7555 O   0  0  0  0  0  0  0  0  0  0  0  0
    1.7723    3.2655   38.0174 O   0  0  0  0  0  0  0  0  0  0  0  0
    1.5470    0.8850   39.6844 H   0  0  0  0  0  0  0  0  0  0  0  0
    1.8990    3.7191   37.1694 H   0  0  0  0  0  0  0  0  0  0  0  0
    3.4128   -5.5341   42.3127 N   0  0  0  0  0  0  0  0  0  0  0  0
    3.1782   -4.9921   43.1004 H   0  0  0  0  0  0  0  0  0  0  0  0
    2.7254   -6.8187   42.1000 C   0  0  0  0  0  0  0  0  0  0  0  0
    0.6872   -5.9111   40.8106 C   0  0  0  0  0  0  0  0  0  0  0  0
    0.2125   -6.0372   39.5699 C   0  0  0  0  0  0  0  0  0  0  0  0
    1.0205   -6.8322   38.8708 C   0  0  0  0  0  0  0  0  0  0  0  0
    2.0451   -7.2153   39.6953 O   0  0  0  0  0  0  0  0  0  0  0  0
    1.8057   -6.6214   40.8983 C   0  0  0  0  0  0  0  0  0  0  0  0
 15 14  1  0  0  0
 14 12  1  0  0  0
 14 16  1  0  0  0
 23 21  2  0  0  0
 19 16  1  0  0  0
 19 20  1  0  0  0
 13 12  1  0  0  0
 12 10  1  0  0  0
 16 11  1  0  0  0
 21 20  1  0  0  0
 21 24  1  0  0  0
 21 22  1  0  0  0
 11 10  1  0  0  0
 10  9  1  0  0  0
  4  3  2  0  0  0
  4  5  1  0  0  0
  9  5  1  0  0  0
  9  8  1  0  0  0
  3  2  1  0  0  0
  5  6  2  0  0  0
  8  7  2  0  0  0
  2  1  2  0  0  0
  6  7  1  0  0  0
  6  1  1  0  0  0
  1 27  1  0  0  0
 27 29  1  0  0  0
 29 34  1  0  0  0
 34 33  1  0  0  0
 34 30  2  0  0  0
 33 32  1  0  0  0
 30 31  1  0  0  0
 32 31  2  0  0  0
 27 28  1  0  0  0
 13 17  1  0  0  0
 15 18  1  0  0  0
 22 25  1  0  0  0
 24 26  1  0  0  0
M  END
> <minimizedAffinity>
-10.18917

$$$$
4KXN_6K6_A_201


 34 37  0  0  0  0  0  0  0  0999 V2000
    4.7438   -5.2950   41.3990 C   0  0  0  0  0  0  0  0  0  0  0  0
    5.8120   -6.0067   40.9698 N   0  0  0  0  0  0  0  0  0  0  0  0
    6.6653   -5.5221   40.0813 C   0  0  0  0  0  0  0  0  0  0  0  0
    6.5088   -4.3118   39.5791 N   0  0  0  0  0  0  0  0  0  0  0  0
    5.4705   -3.5424   39.9636 C   0  0  0  0  0  0  0  0  0  0  0  0
    4.5497   -4.0227   40.8871 C   0  0  0  0  0  0  0  0  0  0  0  0
    3.6415   -3.0742   41.0852 N   0  0  0  0  0  0  0  0  0  0  0  0
    3.9667   -2.0337   40.3129 C   0  0  0  0  0  0  0  0  0  0  0  0
    5.0831   -2.3140   39.6178 N   0  0  0  0  0  0  0  0  0  0  0  0
    5.7862   -1.4322   38.6366 C   0  0  0  0  0  0  0  0  0  0  0  0
    5.0228   -0.1991   38.5114 O   0  0  0  0  0  0  0  0  0  0  0  0
    5.9158   -2.0113   37.2059 C   0  0  0  0  0  0  0  0  0  0  0  0
    7.2927   -2.0144   36.8086 O   0  0  0  0  0  0  0  0  0  0  0  0
    5.1528   -1.0402   36.3199 C   0  0  0  0  0  0  0  0  0  0  0  0
    5.8947   -0.7495   35.1295 O   0  0  0  0  0  0  0  0  0  0  0  0
    5.0941    0.2250   37.1640 C   0  0  0  0  0  0  0  0  0  0  0  0
    7.6461   -1.1125   36.8599 H   0  0  0  0  0  0  0  0  0  0  0  0
    6.7666   -0.3986   35.3695 H   0  0  0  0  0  0  0  0  0  0  0  0
    3.7652    0.7814   36.7283 C   0  0  0  0  0  0  0  0  0  0  0  0
    3.3561    1.9932   37.3803 O   0  0  0  0  0  0  0  0  0  0  0  0
    1.7803    1.8297   37.8313 P   0  0  0  0  0  0  0  0  0  0  0  0
    1.5010    1.8502   39.3817 O   0  0  0  0  0  0  0  0  0  0  0  0
    0.6451    2.3157   36.7536 O   0  0  0  0  0  0  0  0  0  0  0  0
    1.8250    3.2958   38.0396 O   0  0  0  0  0  0  0  0  0  0  0  0
    1.3919    0.9414   39.7026 H   0  0  0  0  0  0  0  0  0  0  0  0
    2.0028    3.7373   37.1944 H   0  0  0  0  0  0  0  0  0  0  0  0
    3.8897   -5.7942   42.2818 N   0  0  0  0  0  0  0  0  0  0  0  0
    3.2964   -5.1801   42.7717 H   0  0  0  0  0  0  0  0  0  0  0  0
    3.8013   -7.2389   42.5518 C   0  0  0  0  0  0  0  0  0  0  0  0
    3.9714   -7.5455   45.1047 C   0  0  0  0  0  0  0  0  0  0  0  0
    4.9624   -7.7470   45.9753 C   0  0  0  0  0  0  0  0  0  0  0  0
    6.1198   -7.7922   45.3181 C   0  0  0  0  0  0  0  0  0  0  0  0
    5.8506   -7.6214   43.9860 O   0  0  0  0  0  0  0  0  0  0  0  0
    4.4996   -7.4709   43.8887 C   0  0  0  0  0  0  0  0  0  0  0  0
 15 14  1  0  0  0
 14 12  1  0  0  0
 14 16  1  0  0  0
 23 21  2  0  0  0
 19 16  1  0  0  0
 19 20  1  0  0  0
 13 12  1  0  0  0
 12 10  1  0  0  0
 16 11  1  0  0  0
 21 20  1  0  0  0
 21 24  1  0  0  0
 21 22  1  0  0  0
 11 10  1  0  0  0
 10  9  1  0  0  0
  4  3  2  0  0  0
  4  5  1  0  0  0
  9  5  1  0  0  0
  9  8  1  0  0  0
  3  2  1  0  0  0
  5  6  2  0  0  0
  8  7  2  0  0  0
  2  1  2  0  0  0
  6  7  1  0  0  0
  6  1  1  0  0  0
  1 27  1  0  0  0
 27 29  1  0  0  0
 29 34  1  0  0  0
 34 33  1  0  0  0
 34 30  2  0  0  0
 33 32  1  0  0  0
 30 31  1  0  0  0
 32 31  2  0  0  0
 27 28  1  0  0  0
 13 17  1  0  0  0
 15 18  1  0  0  0
 22 25  1  0  0  0
 24 26  1  0  0  0
M  END
> <minimizedAffinity>
-10.13367

$$$$
4KXN_6K6_A_201


 34 37  0  0  0  0  0  0  0  0999 V2000
    1.9306   -2.9718   41.6260 C   0  0  0  0  0  0  0  0  0  0  0  0
    1.1761   -1.8678   41.4172 N   0  0  0  0  0  0  0  0  0  0  0  0
    1.5861   -0.8755   40.6426 C   0  0  0  0  0  0  0  0  0  0  0  0
    2.7556   -0.9280   40.0335 N   0  0  0  0  0  0  0  0  0  0  0  0
    3.5594   -1.9990   40.1903 C   0  0  0  0  0  0  0  0  0  0  0  0
    3.1654   -3.0547   41.0039 C   0  0  0  0  0  0  0  0  0  0  0  0
    4.1308   -3.9663   40.9813 N   0  0  0  0  0  0  0  0  0  0  0  0
    5.1044   -3.5065   40.1905 C   0  0  0  0  0  0  0  0  0  0  0  0
    4.7652   -2.2990   39.7059 N   0  0  0  0  0  0  0  0  0  0  0  0
    5.5664   -1.4316   38.7891 C   0  0  0  0  0  0  0  0  0  0  0  0
    4.8282   -0.1946   38.5798 O   0  0  0  0  0  0  0  0  0  0  0  0
    5.8288   -2.0254   37.3829 C   0  0  0  0  0  0  0  0  0  0  0  0
    7.2376   -2.0417   37.1202 O   0  0  0  0  0  0  0  0  0  0  0  0
    5.1623   -1.0577   36.4188 C   0  0  0  0  0  0  0  0  0  0  0  0
    6.0178   -0.7837   35.3029 O   0  0  0  0  0  0  0  0  0  0  0  0
    5.0324    0.2160   37.2418 C   0  0  0  0  0  0  0  0  0  0  0  0
    7.5913   -1.1418   37.1973 H   0  0  0  0  0  0  0  0  0  0  0  0
    6.8652   -0.4364   35.6227 H   0  0  0  0  0  0  0  0  0  0  0  0
    3.7559    0.7772   36.6751 C   0  0  0  0  0  0  0  0  0  0  0  0
    3.3449    2.0450   37.2085 O   0  0  0  0  0  0  0  0  0  0  0  0
    1.7937    1.9011   37.7434 P   0  0  0  0  0  0  0  0  0  0  0  0
    1.5901    1.9974   39.3027 O   0  0  0  0  0  0  0  0  0  0  0  0
    0.6053    2.3316   36.7000 O   0  0  0  0  0  0  0  0  0  0  0  0
    1.8424    3.3758   37.8772 O   0  0  0  0  0  0  0  0  0  0  0  0
    1.5005    1.1052   39.6728 H   0  0  0  0  0  0  0  0  0  0  0  0
    1.9769    3.7755   37.0037 H   0  0  0  0  0  0  0  0  0  0  0  0
    1.5145   -3.9552   42.4119 N   0  0  0  0  0  0  0  0  0  0  0  0
    2.0310   -4.1694   43.2223 H   0  0  0  0  0  0  0  0  0  0  0  0
    0.3038   -4.7368   42.1100 C   0  0  0  0  0  0  0  0  0  0  0  0
    1.6707   -6.5676   40.9183 C   0  0  0  0  0  0  0  0  0  0  0  0
    1.6194   -7.1721   39.7299 C   0  0  0  0  0  0  0  0  0  0  0  0
    0.6017   -6.6748   39.0295 C   0  0  0  0  0  0  0  0  0  0  0  0
   -0.0162   -5.7294   39.8046 O   0  0  0  0  0  0  0  0  0  0  0  0
    0.6769   -5.6889   40.9773 C   0  0  0  0  0  0  0  0  0  0  0  0
 15 14  1  0  0  0
 14 12  1  0  0  0
 14 16  1  0  0  0
 23 21  2  0  0  0
 19 16  1  0  0  0
 19 20  1  0  0  0
 13 12  1  0  0  0
 12 10  1  0  0  0
 16 11  1  0  0  0
 21 20  1  0  0  0
 21 24  1  0  0  0
 21 22  1  0  0  0
 11 10  1  0  0  0
 10  9  1  0  0  0
  4  3  2  0  0  0
  4  5  1  0  0  0
  9  5  1  0  0  0
  9  8  1  0  0  0
  3  2  1  0  0  0
  5  6  2  0  0  0
  8  7  2  0  0  0
  2  1  2  0  0  0
  6  7  1  0  0  0
  6  1  1  0  0  0
  1 27  1  0  0  0
 27 29  1  0  0  0
 29 34  1  0  0  0
 34 33  1  0  0  0
 34 30  2  0  0  0
 33 32  1  0  0  0
 30 31  1  0  0  0
 32 31  2  0  0  0
 27 28  1  0  0  0
 13 17  1  0  0  0
 15 18  1  0  0  0
 22 25  1  0  0  0
 24 26  1  0  0  0
M  END
> <minimizedAffinity>
-9.67572

$$$$
4KXN_6K6_A_201


 34 37  0  0  0  0  0  0  0  0999 V2000
    4.6604   -4.4677   40.8139 C   0  0  0  0  0  0  0  0  0  0  0  0
    3.7159   -3.8300   41.5438 N   0  0  0  0  0  0  0  0  0  0  0  0
    3.3514   -2.5844   41.2826 C   0  0  0  0  0  0  0  0  0  0  0  0
    3.8965   -1.9119   40.2866 N   0  0  0  0  0  0  0  0  0  0  0  0
    4.8407   -2.4841   39.5126 C   0  0  0  0  0  0  0  0  0  0  0  0
    5.2545   -3.7867   39.7641 C   0  0  0  0  0  0  0  0  0  0  0  0
    6.1807   -4.0987   38.8649 N   0  0  0  0  0  0  0  0  0  0  0  0
    6.3552   -3.0345   38.0765 C   0  0  0  0  0  0  0  0  0  0  0  0
    5.5421   -2.0384   38.4696 N   0  0  0  0  0  0  0  0  0  0  0  0
    5.4202   -0.6756   37.8673 C   0  0  0  0  0  0  0  0  0  0  0  0
    4.7002    0.1700   38.8083 O   0  0  0  0  0  0  0  0  0  0  0  0
    4.6331   -0.6126   36.5348 C   0  0  0  0  0  0  0  0  0  0  0  0
    5.4397    0.0082   35.5259 O   0  0  0  0  0  0  0  0  0  0  0  0
    3.4399    0.2824   36.8270 C   0  0  0  0  0  0  0  0  0  0  0  0
    3.2399    1.2235   35.7656 O   0  0  0  0  0  0  0  0  0  0  0  0
    3.8784    1.0499   38.0661 C   0  0  0  0  0  0  0  0  0  0  0  0
    5.7057    0.8924   35.8233 H   0  0  0  0  0  0  0  0  0  0  0  0
    4.0487    1.7435   35.6378 H   0  0  0  0  0  0  0  0  0  0  0  0
    2.5543    1.2260   38.7598 C   0  0  0  0  0  0  0  0  0  0  0  0
    2.1327    2.5842   38.9562 O   0  0  0  0  0  0  0  0  0  0  0  0
    0.7354    2.8172   38.1157 P   0  0  0  0  0  0  0  0  0  0  0  0
   -0.1816    3.9967   38.6156 O   0  0  0  0  0  0  0  0  0  0  0  0
    0.7195    2.3287   36.5513 O   0  0  0  0  0  0  0  0  0  0  0  0
    1.4611    3.9405   37.4780 O   0  0  0  0  0  0  0  0  0  0  0  0
   -0.9011    3.6389   39.1589 H   0  0  0  0  0  0  0  0  0  0  0  0
    2.2236    3.5958   36.9874 H   0  0  0  0  0  0  0  0  0  0  0  0
    5.0251   -5.7120   41.0907 N   0  0  0  0  0  0  0  0  0  0  0  0
    4.4951   -6.4570   40.7257 H   0  0  0  0  0  0  0  0  0  0  0  0
    6.1985   -6.0138   41.9273 C   0  0  0  0  0  0  0  0  0  0  0  0
    4.4867   -7.2674   43.3896 C   0  0  0  0  0  0  0  0  0  0  0  0
    4.5517   -8.1826   44.3585 C   0  0  0  0  0  0  0  0  0  0  0  0
    5.8277   -8.4872   44.5879 C   0  0  0  0  0  0  0  0  0  0  0  0
    6.5950   -7.7452   43.7294 O   0  0  0  0  0  0  0  0  0  0  0  0
    5.7252   -6.9954   42.9955 C   0  0  0  0  0  0  0  0  0  0  0  0
 15 14  1  0  0  0
 14 12  1  0  0  0
 14 16  1  0  0  0
 23 21  2  0  0  0
 19 16  1  0  0  0
 19 20  1  0  0  0
 13 12  1  0  0  0
 12 10  1  0  0  0
 16 11  1  0  0  0
 21 20  1  0  0  0
 21 24  1  0  0  0
 21 22  1  0  0  0
 11 10  1  0  0  0
 10  9  1  0  0  0
  4  3  2  0  0  0
  4  5  1  0  0  0
  9  5  1  0  0  0
  9  8  1  0  0  0
  3  2  1  0  0  0
  5  6  2  0  0  0
  8  7  2  0  0  0
  2  1  2  0  0  0
  6  7  1  0  0  0
  6  1  1  0  0  0
  1 27  1  0  0  0
 27 29  1  0  0  0
 29 34  1  0  0  0
 34 33  1  0  0  0
 34 30  2  0  0  0
 33 32  1  0  0  0
 30 31  1  0  0  0
 32 31  2  0  0  0
 27 28  1  0  0  0
 13 17  1  0  0  0
 15 18  1  0  0  0
 22 25  1  0  0  0
 24 26  1  0  0  0
M  END
> <minimizedAffinity>
-9.27049

$$$$
4KXN_6K6_A_201


 34 37  0  0  0  0  0  0  0  0999 V2000
    5.7128   -1.0879   37.8880 C   0  0  0  0  0  0  0  0  0  0  0  0
    6.5281   -1.6481   36.9644 N   0  0  0  0  0  0  0  0  0  0  0  0
    6.8532   -2.9309   37.0032 C   0  0  0  0  0  0  0  0  0  0  0  0
    6.3853   -3.7218   37.9502 N   0  0  0  0  0  0  0  0  0  0  0  0
    5.5633   -3.2351   38.9017 C   0  0  0  0  0  0  0  0  0  0  0  0
    5.2089   -1.8913   38.8976 C   0  0  0  0  0  0  0  0  0  0  0  0
    4.4013   -1.6817   39.9308 N   0  0  0  0  0  0  0  0  0  0  0  0
    4.2530   -2.8443   40.5720 C   0  0  0  0  0  0  0  0  0  0  0  0
    4.9661   -3.8006   39.9515 N   0  0  0  0  0  0  0  0  0  0  0  0
    5.0839   -5.2397   40.3388 C   0  0  0  0  0  0  0  0  0  0  0  0
    3.7476   -5.8169   40.3392 O   0  0  0  0  0  0  0  0  0  0  0  0
    5.6694   -5.4960   41.7497 C   0  0  0  0  0  0  0  0  0  0  0  0
    6.7998   -6.3716   41.6521 O   0  0  0  0  0  0  0  0  0  0  0  0
    4.5624   -6.2086   42.5093 C   0  0  0  0  0  0  0  0  0  0  0  0
    5.0868   -7.3198   43.2458 O   0  0  0  0  0  0  0  0  0  0  0  0
    3.6747   -6.7513   41.3984 C   0  0  0  0  0  0  0  0  0  0  0  0
    6.5316   -7.1992   41.2232 H   0  0  0  0  0  0  0  0  0  0  0  0
    5.5440   -7.9230   42.6392 H   0  0  0  0  0  0  0  0  0  0  0  0
    2.3269   -6.6713   42.0637 C   0  0  0  0  0  0  0  0  0  0  0  0
    1.9624   -5.3798   42.5736 O   0  0  0  0  0  0  0  0  0  0  0  0
    0.4540   -5.0143   42.0221 P   0  0  0  0  0  0  0  0  0  0  0  0
   -0.0547   -3.5536   42.3217 O   0  0  0  0  0  0  0  0  0  0  0  0
   -0.0863   -5.8560   40.7237 O   0  0  0  0  0  0  0  0  0  0  0  0
    1.1669   -4.3091   40.9315 O   0  0  0  0  0  0  0  0  0  0  0  0
   -0.6475   -3.5687   43.0893 H   0  0  0  0  0  0  0  0  0  0  0  0
    1.6859   -4.9481   40.4184 H   0  0  0  0  0  0  0  0  0  0  0  0
    5.4019    0.2003   37.8455 N   0  0  0  0  0  0  0  0  0  0  0  0
    5.7503    0.7987   38.5454 H   0  0  0  0  0  0  0  0  0  0  0  0
    4.5516    0.7634   36.7836 C   0  0  0  0  0  0  0  0  0  0  0  0
    2.9257    1.1578   38.7435 C   0  0  0  0  0  0  0  0  0  0  0  0
    1.7071    1.6847   38.8781 C   0  0  0  0  0  0  0  0  0  0  0  0
    1.2704    2.0877   37.6863 C   0  0  0  0  0  0  0  0  0  0  0  0
    2.2494    1.8135   36.7683 O   0  0  0  0  0  0  0  0  0  0  0  0
    3.2686    1.2339   37.4629 C   0  0  0  0  0  0  0  0  0  0  0  0
 15 14  1  0  0  0
 14 12  1  0  0  0
 14 16  1  0  0  0
 23 21  2  0  0  0
 19 16  1  0  0  0
 19 20  1  0  0  0
 13 12  1  0  0  0
 12 10  1  0  0  0
 16 11  1  0  0  0
 21 20  1  0  0  0
 21 24  1  0  0  0
 21 22  1  0  0  0
 11 10  1  0  0  0
 10  9  1  0  0  0
  4  3  2  0  0  0
  4  5  1  0  0  0
  9  5  1  0  0  0
  9  8  1  0  0  0
  3  2  1  0  0  0
  5  6  2  0  0  0
  8  7  2  0  0  0
  2  1  2  0  0  0
  6  7  1  0  0  0
  6  1  1  0  0  0
  1 27  1  0  0  0
 27 29  1  0  0  0
 29 34  1  0  0  0
 34 33  1  0  0  0
 34 30  2  0  0  0
 33 32  1  0  0  0
 30 31  1  0  0  0
 32 31  2  0  0  0
 27 28  1  0  0  0
 13 17  1  0  0  0
 15 18  1  0  0  0
 22 25  1  0  0  0
 24 26  1  0  0  0
M  END
> <minimizedAffinity>
-8.56253

$$$$
4KXN_6K6_A_201


 34 37  0  0  0  0  0  0  0  0999 V2000
    4.2235   -5.6945   41.4413 C   0  0  0  0  0  0  0  0  0  0  0  0
    5.4677   -6.1790   41.2206 N   0  0  0  0  0  0  0  0  0  0  0  0
    6.3889   -5.4776   40.5787 C   0  0  0  0  0  0  0  0  0  0  0  0
    6.1284   -4.2642   40.1300 N   0  0  0  0  0  0  0  0  0  0  0  0
    4.9120   -3.7137   40.3175 C   0  0  0  0  0  0  0  0  0  0  0  0
    3.9179   -4.4252   40.9785 C   0  0  0  0  0  0  0  0  0  0  0  0
    2.8339   -3.6594   41.0252 N   0  0  0  0  0  0  0  0  0  0  0  0
    3.1236   -2.5085   40.4119 C   0  0  0  0  0  0  0  0  0  0  0  0
    4.3933   -2.5352   39.9701 N   0  0  0  0  0  0  0  0  0  0  0  0
    5.1188   -1.4586   39.2288 C   0  0  0  0  0  0  0  0  0  0  0  0
    4.2142   -0.3284   39.0766 O   0  0  0  0  0  0  0  0  0  0  0  0
    5.5830   -1.8402   37.8012 C   0  0  0  0  0  0  0  0  0  0  0  0
    6.9932   -1.6177   37.6759 O   0  0  0  0  0  0  0  0  0  0  0  0
    4.8518   -0.8763   36.8811 C   0  0  0  0  0  0  0  0  0  0  0  0
    5.7399   -0.3515   35.8872 O   0  0  0  0  0  0  0  0  0  0  0  0
    4.4575    0.2602   37.8137 C   0  0  0  0  0  0  0  0  0  0  0  0
    7.1935   -0.6905   37.8785 H   0  0  0  0  0  0  0  0  0  0  0  0
    6.4938    0.0776   36.3214 H   0  0  0  0  0  0  0  0  0  0  0  0
    3.1581    0.6886   37.1864 C   0  0  0  0  0  0  0  0  0  0  0  0
    2.9369    2.1056   37.1240 O   0  0  0  0  0  0  0  0  0  0  0  0
    1.6343    2.4662   38.0656 P   0  0  0  0  0  0  0  0  0  0  0  0
    0.8423    3.7714   37.6765 O   0  0  0  0  0  0  0  0  0  0  0  0
    0.8957    1.2142   38.8226 O   0  0  0  0  0  0  0  0  0  0  0  0
    0.8378    1.9103   36.9469 O   0  0  0  0  0  0  0  0  0  0  0  0
    1.1089    4.4978   38.2613 H   0  0  0  0  0  0  0  0  0  0  0  0
    1.0561    0.9726   36.8291 H   0  0  0  0  0  0  0  0  0  0  0  0
    3.3054   -6.4098   42.0765 N   0  0  0  0  0  0  0  0  0  0  0  0
    2.7331   -7.0202   41.5578 H   0  0  0  0  0  0  0  0  0  0  0  0
    3.1157   -6.3191   43.5337 C   0  0  0  0  0  0  0  0  0  0  0  0
    0.7337   -5.3504   43.3652 C   0  0  0  0  0  0  0  0  0  0  0  0
   -0.4720   -5.7051   43.8137 C   0  0  0  0  0  0  0  0  0  0  0  0
   -0.3651   -6.8358   44.5091 C   0  0  0  0  0  0  0  0  0  0  0  0
    0.9515   -7.2131   44.4929 O   0  0  0  0  0  0  0  0  0  0  0  0
    1.6090   -6.2636   43.7695 C   0  0  0  0  0  0  0  0  0  0  0  0
 15 14  1  0  0  0
 14 12  1  0  0  0
 14 16  1  0  0  0
 23 21  2  0  0  0
 19 16  1  0  0  0
 19 20  1  0  0  0
 13 12  1  0  0  0
 12 10  1  0  0  0
 16 11  1  0  0  0
 21 20  1  0  0  0
 21 24  1  0  0  0
 21 22  1  0  0  0
 11 10  1  0  0  0
 10  9  1  0  0  0
  4  3  2  0  0  0
  4  5  1  0  0  0
  9  5  1  0  0  0
  9  8  1  0  0  0
  3  2  1  0  0  0
  5  6  2  0  0  0
  8  7  2  0  0  0
  2  1  2  0  0  0
  6  7  1  0  0  0
  6  1  1  0  0  0
  1 27  1  0  0  0
 27 29  1  0  0  0
 29 34  1  0  0  0
 34 33  1  0  0  0
 34 30  2  0  0  0
 33 32  1  0  0  0
 30 31  1  0  0  0
 32 31  2  0  0  0
 27 28  1  0  0  0
 13 17  1  0  0  0
 15 18  1  0  0  0
 22 25  1  0  0  0
 24 26  1  0  0  0
M  END
> <minimizedAffinity>
-8.54762

$$$$
4KXN_6K6_A_201


 34 37  0  0  0  0  0  0  0  0999 V2000
    5.5818   -1.0679   37.9919 C   0  0  0  0  0  0  0  0  0  0  0  0
    6.4163   -1.5394   37.0365 N   0  0  0  0  0  0  0  0  0  0  0  0
    6.8549   -2.7885   37.0439 C   0  0  0  0  0  0  0  0  0  0  0  0
    6.4867   -3.6320   37.9896 N   0  0  0  0  0  0  0  0  0  0  0  0
    5.6528   -3.2347   38.9717 C   0  0  0  0  0  0  0  0  0  0  0  0
    5.1806   -1.9280   39.0008 C   0  0  0  0  0  0  0  0  0  0  0  0
    4.3879   -1.8067   40.0594 N   0  0  0  0  0  0  0  0  0  0  0  0
    4.3620   -2.9873   40.6841 C   0  0  0  0  0  0  0  0  0  0  0  0
    5.1388   -3.8669   40.0276 N   0  0  0  0  0  0  0  0  0  0  0  0
    5.3950   -5.2953   40.3863 C   0  0  0  0  0  0  0  0  0  0  0  0
    4.1091   -5.9448   40.5953 O   0  0  0  0  0  0  0  0  0  0  0  0
    6.2087   -5.5120   41.6863 C   0  0  0  0  0  0  0  0  0  0  0  0
    7.3559   -6.3248   41.4086 O   0  0  0  0  0  0  0  0  0  0  0  0
    5.2760   -6.2802   42.6084 C   0  0  0  0  0  0  0  0  0  0  0  0
    5.9701   -7.3572   43.2490 O   0  0  0  0  0  0  0  0  0  0  0  0
    4.2554   -6.8764   41.6495 C   0  0  0  0  0  0  0  0  0  0  0  0
    7.0693   -7.1681   41.0244 H   0  0  0  0  0  0  0  0  0  0  0  0
    6.3583   -7.9376   42.5758 H   0  0  0  0  0  0  0  0  0  0  0  0
    3.0270   -6.8668   42.5191 C   0  0  0  0  0  0  0  0  0  0  0  0
    3.2658   -6.9660   43.9312 O   0  0  0  0  0  0  0  0  0  0  0  0
    2.4937   -8.3086   44.4919 P   0  0  0  0  0  0  0  0  0  0  0  0
    2.5960   -9.5925   43.5844 O   0  0  0  0  0  0  0  0  0  0  0  0
    2.2890   -8.4248   46.1139 O   0  0  0  0  0  0  0  0  0  0  0  0
    3.8462   -8.7548   44.9002 O   0  0  0  0  0  0  0  0  0  0  0  0
    1.7819   -9.6875   43.0657 H   0  0  0  0  0  0  0  0  0  0  0  0
    4.2044   -8.1395   45.5590 H   0  0  0  0  0  0  0  0  0  0  0  0
    5.1567    0.1880   37.9804 N   0  0  0  0  0  0  0  0  0  0  0  0
    5.5212    0.8211   38.6404 H   0  0  0  0  0  0  0  0  0  0  0  0
    4.1564    0.6647   37.0109 C   0  0  0  0  0  0  0  0  0  0  0  0
    2.0375    2.0313   37.5430 C   0  0  0  0  0  0  0  0  0  0  0  0
    1.1609    2.0756   38.5481 C   0  0  0  0  0  0  0  0  0  0  0  0
    1.5084    1.1814   39.4717 C   0  0  0  0  0  0  0  0  0  0  0  0
    2.6387    0.5446   39.0320 O   0  0  0  0  0  0  0  0  0  0  0  0
    2.9408    1.0996   37.8245 C   0  0  0  0  0  0  0  0  0  0  0  0
 15 14  1  0  0  0
 14 12  1  0  0  0
 14 16  1  0  0  0
 23 21  2  0  0  0
 19 16  1  0  0  0
 19 20  1  0  0  0
 13 12  1  0  0  0
 12 10  1  0  0  0
 16 11  1  0  0  0
 21 20  1  0  0  0
 21 24  1  0  0  0
 21 22  1  0  0  0
 11 10  1  0  0  0
 10  9  1  0  0  0
  4  3  2  0  0  0
  4  5  1  0  0  0
  9  5  1  0  0  0
  9  8  1  0  0  0
  3  2  1  0  0  0
  5  6  2  0  0  0
  8  7  2  0  0  0
  2  1  2  0  0  0
  6  7  1  0  0  0
  6  1  1  0  0  0
  1 27  1  0  0  0
 27 29  1  0  0  0
 29 34  1  0  0  0
 34 33  1  0  0  0
 34 30  2  0  0  0
 33 32  1  0  0  0
 30 31  1  0  0  0
 32 31  2  0  0  0
 27 28  1  0  0  0
 13 17  1  0  0  0
 15 18  1  0  0  0
 22 25  1  0  0  0
 24 26  1  0  0  0
M  END
> <minimizedAffinity>
-7.84484

$$$$
4KXN_6K6_A_201


 34 37  0  0  0  0  0  0  0  0999 V2000
    5.6832   -1.9207   38.6363 C   0  0  0  0  0  0  0  0  0  0  0  0
    6.3784   -2.6847   37.7619 N   0  0  0  0  0  0  0  0  0  0  0  0
    6.3442   -4.0074   37.8063 C   0  0  0  0  0  0  0  0  0  0  0  0
    5.6188   -4.6381   38.7104 N   0  0  0  0  0  0  0  0  0  0  0  0
    4.8955   -3.9430   39.6112 C   0  0  0  0  0  0  0  0  0  0  0  0
    4.9156   -2.5534   39.6002 C   0  0  0  0  0  0  0  0  0  0  0  0
    4.1262   -2.1286   40.5801 N   0  0  0  0  0  0  0  0  0  0  0  0
    3.6288   -3.2049   41.1956 C   0  0  0  0  0  0  0  0  0  0  0  0
    4.0993   -4.3212   40.6121 N   0  0  0  0  0  0  0  0  0  0  0  0
    3.8006   -5.7368   40.9885 C   0  0  0  0  0  0  0  0  0  0  0  0
    2.9344   -6.3021   39.9643 O   0  0  0  0  0  0  0  0  0  0  0  0
    3.0573   -5.9170   42.3354 C   0  0  0  0  0  0  0  0  0  0  0  0
    3.7980   -6.8060   43.1810 O   0  0  0  0  0  0  0  0  0  0  0  0
    1.7376   -6.5761   41.9690 C   0  0  0  0  0  0  0  0  0  0  0  0
    1.4382   -7.6477   42.8713 O   0  0  0  0  0  0  0  0  0  0  0  0
    2.0185   -7.1739   40.5978 C   0  0  0  0  0  0  0  0  0  0  0  0
    3.9226   -7.6545   42.7278 H   0  0  0  0  0  0  0  0  0  0  0  0
    2.1666   -8.2883   42.8656 H   0  0  0  0  0  0  0  0  0  0  0  0
    0.6606   -7.0450   39.9614 C   0  0  0  0  0  0  0  0  0  0  0  0
    0.6119   -6.2677   38.7555 O   0  0  0  0  0  0  0  0  0  0  0  0
   -0.4341   -6.9976   37.7132 P   0  0  0  0  0  0  0  0  0  0  0  0
   -0.0833   -6.8708   36.1825 O   0  0  0  0  0  0  0  0  0  0  0  0
   -1.2890   -8.2717   38.2895 O   0  0  0  0  0  0  0  0  0  0  0  0
    0.5920   -8.0636   37.6375 O   0  0  0  0  0  0  0  0  0  0  0  0
   -0.6215   -6.1688   35.7845 H   0  0  0  0  0  0  0  0  0  0  0  0
    0.7036   -8.4678   38.5122 H   0  0  0  0  0  0  0  0  0  0  0  0
    5.7327   -0.5966   38.5891 N   0  0  0  0  0  0  0  0  0  0  0  0
    6.1635   -0.1086   39.3277 H   0  0  0  0  0  0  0  0  0  0  0  0
    5.1633    0.1664   37.4660 C   0  0  0  0  0  0  0  0  0  0  0  0
    2.7774    1.1106   37.2282 C   0  0  0  0  0  0  0  0  0  0  0  0
    1.8200    1.5015   38.0714 C   0  0  0  0  0  0  0  0  0  0  0  0
    2.2493    1.3478   39.3227 C   0  0  0  0  0  0  0  0  0  0  0  0
    3.5183    0.8349   39.2687 O   0  0  0  0  0  0  0  0  0  0  0  0
    3.8160    0.6987   37.9458 C   0  0  0  0  0  0  0  0  0  0  0  0
 15 14  1  0  0  0
 14 12  1  0  0  0
 14 16  1  0  0  0
 23 21  2  0  0  0
 19 16  1  0  0  0
 19 20  1  0  0  0
 13 12  1  0  0  0
 12 10  1  0  0  0
 16 11  1  0  0  0
 21 20  1  0  0  0
 21 24  1  0  0  0
 21 22  1  0  0  0
 11 10  1  0  0  0
 10  9  1  0  0  0
  4  3  2  0  0  0
  4  5  1  0  0  0
  9  5  1  0  0  0
  9  8  1  0  0  0
  3  2  1  0  0  0
  5  6  2  0  0  0
  8  7  2  0  0  0
  2  1  2  0  0  0
  6  7  1  0  0  0
  6  1  1  0  0  0
  1 27  1  0  0  0
 27 29  1  0  0  0
 29 34  1  0  0  0
 34 33  1  0  0  0
 34 30  2  0  0  0
 33 32  1  0  0  0
 30 31  1  0  0  0
 32 31  2  0  0  0
 27 28  1  0  0  0
 13 17  1  0  0  0
 15 18  1  0  0  0
 22 25  1  0  0  0
 24 26  1  0  0  0
M  END
> <minimizedAffinity>
-7.62824

$$$$
4KXN_6K6_A_201


 34 37  0  0  0  0  0  0  0  0999 V2000
    5.1806   -2.6236   40.1047 C   0  0  0  0  0  0  0  0  0  0  0  0
    6.0977   -3.6083   39.9605 N   0  0  0  0  0  0  0  0  0  0  0  0
    5.8648   -4.8472   40.3651 C   0  0  0  0  0  0  0  0  0  0  0  0
    4.7153   -5.1741   40.9248 N   0  0  0  0  0  0  0  0  0  0  0  0
    3.7517   -4.2469   41.0966 C   0  0  0  0  0  0  0  0  0  0  0  0
    3.9656   -2.9344   40.6928 C   0  0  0  0  0  0  0  0  0  0  0  0
    2.8695   -2.2395   40.9750 N   0  0  0  0  0  0  0  0  0  0  0  0
    1.9949   -3.0746   41.5428 C   0  0  0  0  0  0  0  0  0  0  0  0
    2.5292   -4.3057   41.6264 N   0  0  0  0  0  0  0  0  0  0  0  0
    1.8948   -5.5332   42.1970 C   0  0  0  0  0  0  0  0  0  0  0  0
    1.4443   -6.3637   41.0897 O   0  0  0  0  0  0  0  0  0  0  0  0
    0.6515   -5.2796   43.0852 C   0  0  0  0  0  0  0  0  0  0  0  0
    0.8432   -5.8858   44.3696 O   0  0  0  0  0  0  0  0  0  0  0  0
   -0.4889   -5.9896   42.3741 C   0  0  0  0  0  0  0  0  0  0  0  0
   -1.2855   -6.7299   43.3066 O   0  0  0  0  0  0  0  0  0  0  0  0
    0.2307   -6.9816   41.4715 C   0  0  0  0  0  0  0  0  0  0  0  0
    1.0120   -6.8344   44.2574 H   0  0  0  0  0  0  0  0  0  0  0  0
   -0.7224   -7.3577   43.7859 H   0  0  0  0  0  0  0  0  0  0  0  0
   -0.7164   -7.0223   40.3023 C   0  0  0  0  0  0  0  0  0  0  0  0
   -0.3950   -6.1446   39.2128 O   0  0  0  0  0  0  0  0  0  0  0  0
   -0.1898   -7.0583   37.8577 P   0  0  0  0  0  0  0  0  0  0  0  0
    0.2160   -6.2747   36.5525 O   0  0  0  0  0  0  0  0  0  0  0  0
    0.2317   -8.6270   38.0764 O   0  0  0  0  0  0  0  0  0  0  0  0
    1.2577   -6.9094   38.1361 O   0  0  0  0  0  0  0  0  0  0  0  0
   -0.5692   -6.1397   35.9992 H   0  0  0  0  0  0  0  0  0  0  0  0
    1.4674   -7.3231   38.9880 H   0  0  0  0  0  0  0  0  0  0  0  0
    5.4283   -1.3839   39.7052 N   0  0  0  0  0  0  0  0  0  0  0  0
    5.3721   -0.6512   40.3604 H   0  0  0  0  0  0  0  0  0  0  0  0
    5.7850   -1.0694   38.3117 C   0  0  0  0  0  0  0  0  0  0  0  0
    3.5565    0.2234   38.3676 C   0  0  0  0  0  0  0  0  0  0  0  0
    2.9080    1.0388   37.5338 C   0  0  0  0  0  0  0  0  0  0  0  0
    3.6247    1.1876   36.4213 C   0  0  0  0  0  0  0  0  0  0  0  0
    4.7690    0.4474   36.5597 O   0  0  0  0  0  0  0  0  0  0  0  0
    4.6938   -0.1407   37.7867 C   0  0  0  0  0  0  0  0  0  0  0  0
 15 14  1  0  0  0
 14 12  1  0  0  0
 14 16  1  0  0  0
 23 21  2  0  0  0
 19 16  1  0  0  0
 19 20  1  0  0  0
 13 12  1  0  0  0
 12 10  1  0  0  0
 16 11  1  0  0  0
 21 20  1  0  0  0
 21 24  1  0  0  0
 21 22  1  0  0  0
 11 10  1  0  0  0
 10  9  1  0  0  0
  4  3  2  0  0  0
  4  5  1  0  0  0
  9  5  1  0  0  0
  9  8  1  0  0  0
  3  2  1  0  0  0
  5  6  2  0  0  0
  8  7  2  0  0  0
  2  1  2  0  0  0
  6  7  1  0  0  0
  6  1  1  0  0  0
  1 27  1  0  0  0
 27 29  1  0  0  0
 29 34  1  0  0  0
 34 33  1  0  0  0
 34 30  2  0  0  0
 33 32  1  0  0  0
 30 31  1  0  0  0
 32 31  2  0  0  0
 27 28  1  0  0  0
 13 17  1  0  0  0
 15 18  1  0  0  0
 22 25  1  0  0  0
 24 26  1  0  0  0
M  END
> <minimizedAffinity>
-7.48221

$$$$
