1R0P_KSA_A_0


 37 44  0  0  0  0  0  0  0  0999 V2000
   13.4846   10.9941  137.6379 C   0  0  0  0  0  0  0  0  0  0  0  0
   13.3352   12.3636  137.3211 O   0  0  0  0  0  0  0  0  0  0  0  0
   14.4667   10.3224  136.7999 C   0  0  0  0  0  0  0  0  0  0  0  0
   14.9925    9.1549  137.4635 O   0  0  0  0  0  0  0  0  0  0  0  0
   14.1046    9.7434  135.4209 C   0  0  0  0  0  0  0  0  0  0  0  0
   15.7550   11.0913  136.6411 N   0  0  0  0  0  0  0  0  0  0  0  0
   16.8092   10.9204  137.4508 C   0  0  0  0  0  0  0  0  0  0  0  0
   17.0637   10.1639  138.6920 C   0  0  0  0  0  0  0  0  0  0  0  0
   16.1248    9.4045  139.3583 N   0  0  0  0  0  0  0  0  0  0  0  0
   14.7617    9.2238  138.8456 C   0  0  0  0  0  0  0  0  0  0  0  0
   13.8440   10.4662  139.0267 C   0  0  0  0  0  0  0  0  0  0  0  0
   16.7928    8.8629  140.4583 C   0  0  0  0  0  0  0  0  0  0  0  0
   16.3113    8.0031  141.4409 C   0  0  0  0  0  0  0  0  0  0  0  0
   17.1825    7.6266  142.4670 C   0  0  0  0  0  0  0  0  0  0  0  0
   18.5065    8.0985  142.4819 C   0  0  0  0  0  0  0  0  0  0  0  0
   18.9832    8.9484  141.4807 C   0  0  0  0  0  0  0  0  0  0  0  0
   18.0992    9.3247  140.4697 C   0  0  0  0  0  0  0  0  0  0  0  0
   18.2761   10.1221  139.3443 C   0  0  0  0  0  0  0  0  0  0  0  0
   19.3674   10.9333  138.7672 C   0  0  0  0  0  0  0  0  0  0  0  0
   20.7632   11.1437  139.1876 C   0  0  0  0  0  0  0  0  0  0  0  0
   21.3157   10.5596  140.1208 O   0  0  0  0  0  0  0  0  0  0  0  0
   19.1599   11.6865  137.6259 C   0  0  0  0  0  0  0  0  0  0  0  0
   20.4053   12.4337  137.2400 C   0  0  0  0  0  0  0  0  0  0  0  0
   21.2888   11.9802  138.3115 N   0  0  0  0  0  0  0  0  0  0  0  0
   17.8444   11.6855  136.9598 C   0  0  0  0  0  0  0  0  0  0  0  0
   17.3835   12.3023  135.8118 C   0  0  0  0  0  0  0  0  0  0  0  0
   16.0629   11.9345  135.6372 C   0  0  0  0  0  0  0  0  0  0  0  0
   15.3660   12.4898  134.5109 C   0  0  0  0  0  0  0  0  0  0  0  0
   18.0697   13.2099  134.9312 C   0  0  0  0  0  0  0  0  0  0  0  0
   17.3633   13.6997  133.8342 C   0  0  0  0  0  0  0  0  0  0  0  0
   16.0219   13.3464  133.6473 C   0  0  0  0  0  0  0  0  0  0  0  0
   13.1067   12.4554  136.3828 H   0  0  0  0  0  0  0  0  0  0  0  0
   22.2238   12.2815  138.3767 H   0  0  0  0  0  0  0  0  0  0  0  0
   11.8002    9.1888  137.7276 O   0  0  0  0  0  0  0  0  0  0  0  0
   12.1889   10.2577  137.2453 C   0  0  0  0  0  0  0  0  0  0  0  0
   11.2895   10.8623  136.2796 O   0  0  0  0  0  0  0  0  0  0  0  0
    9.9242   10.4632  136.1024 C   0  0  0  0  0  0  0  0  0  0  0  0
 34 35  2  0  0  0
 35 36  1  0  0  0
 35  1  1  0  0  0
 36 37  1  0  0  0
  1  2  1  0  0  0
  1  3  1  0  0  0
  1 11  1  0  0  0
  3  4  1  0  0  0
  3  5  1  0  0  0
  3  6  1  0  0  0
  4 10  1  0  0  0
  6  7  1  0  0  0
  6 27  1  0  0  0
  7  8  2  0  0  0
  7 25  1  0  0  0
  8  9  1  0  0  0
  8 18  1  0  0  0
  9 10  1  0  0  0
  9 12  1  0  0  0
 10 11  1  0  0  0
 12 13  2  0  0  0
 12 17  1  0  0  0
 13 14  1  0  0  0
 14 15  2  0  0  0
 15 16  1  0  0  0
 16 17  2  0  0  0
 17 18  1  0  0  0
 18 19  2  0  0  0
 19 20  1  0  0  0
 19 22  1  0  0  0
 20 21  2  0  0  0
 20 24  1  0  0  0
 22 23  1  0  0  0
 22 25  2  0  0  0
 23 24  1  0  0  0
 25 26  1  0  0  0
 26 27  2  0  0  0
 26 29  1  0  0  0
 27 28  1  0  0  0
 28 31  2  0  0  0
 29 30  2  0  0  0
 30 31  1  0  0  0
  2 32  1  0  0  0
 24 33  1  0  0  0
M  END
> <minimizedAffinity>
-13.27419

$$$$
1R0P_KSA_A_0


 37 44  0  0  0  0  0  0  0  0999 V2000
   14.9790    7.6695  140.6157 C   0  0  0  0  0  0  0  0  0  0  0  0
   16.1301    6.8574  140.4995 O   0  0  0  0  0  0  0  0  0  0  0  0
   15.2953    9.0729  140.8358 C   0  0  0  0  0  0  0  0  0  0  0  0
   14.2070    9.9161  140.4063 O   0  0  0  0  0  0  0  0  0  0  0  0
   15.5730    9.6372  142.2402 C   0  0  0  0  0  0  0  0  0  0  0  0
   16.3682    9.6035  139.9173 N   0  0  0  0  0  0  0  0  0  0  0  0
   16.0968   10.1851  138.7408 C   0  0  0  0  0  0  0  0  0  0  0  0
   14.8815   10.3856  137.9280 C   0  0  0  0  0  0  0  0  0  0  0  0
   13.6253    9.9249  138.2624 N   0  0  0  0  0  0  0  0  0  0  0  0
   13.3620    9.2250  139.5250 C   0  0  0  0  0  0  0  0  0  0  0  0
   13.8780    7.7583  139.5589 C   0  0  0  0  0  0  0  0  0  0  0  0
   12.7845   10.3462  137.2303 C   0  0  0  0  0  0  0  0  0  0  0  0
   11.4120   10.1658  137.0879 C   0  0  0  0  0  0  0  0  0  0  0  0
   10.8019   10.6617  135.9324 C   0  0  0  0  0  0  0  0  0  0  0  0
   11.5637   11.3341  134.9610 C   0  0  0  0  0  0  0  0  0  0  0  0
   12.9385   11.5235  135.1230 C   0  0  0  0  0  0  0  0  0  0  0  0
   13.5353   11.0130  136.2755 C   0  0  0  0  0  0  0  0  0  0  0  0
   14.8496   11.0601  136.7275 C   0  0  0  0  0  0  0  0  0  0  0  0
   16.1396   11.5690  136.2188 C   0  0  0  0  0  0  0  0  0  0  0  0
   16.4902   12.3072  134.9934 C   0  0  0  0  0  0  0  0  0  0  0  0
   15.6804   12.7285  134.1664 O   0  0  0  0  0  0  0  0  0  0  0  0
   17.3080   11.3697  136.9315 C   0  0  0  0  0  0  0  0  0  0  0  0
   18.4862   11.9615  136.2106 C   0  0  0  0  0  0  0  0  0  0  0  0
   17.7962   12.4962  135.0392 N   0  0  0  0  0  0  0  0  0  0  0  0
   17.2837   10.6509  138.2188 C   0  0  0  0  0  0  0  0  0  0  0  0
   18.2746   10.3516  139.1350 C   0  0  0  0  0  0  0  0  0  0  0  0
   17.6857    9.6755  140.1865 C   0  0  0  0  0  0  0  0  0  0  0  0
   18.5430    9.2343  141.2510 C   0  0  0  0  0  0  0  0  0  0  0  0
   19.6870   10.6160  139.0630 C   0  0  0  0  0  0  0  0  0  0  0  0
   20.4755   10.1968  140.1329 C   0  0  0  0  0  0  0  0  0  0  0  0
   19.8980    9.5013  141.2016 C   0  0  0  0  0  0  0  0  0  0  0  0
   16.6830    6.9653  141.2891 H   0  0  0  0  0  0  0  0  0  0  0  0
   18.2780   12.9710  134.3238 H   0  0  0  0  0  0  0  0  0  0  0  0
   13.0676    7.5371  142.1757 O   0  0  0  0  0  0  0  0  0  0  0  0
   14.2558    7.3069  141.9275 C   0  0  0  0  0  0  0  0  0  0  0  0
   14.9721    6.5798  142.9594 O   0  0  0  0  0  0  0  0  0  0  0  0
   14.6695    6.6734  144.3574 C   0  0  0  0  0  0  0  0  0  0  0  0
 34 35  2  0  0  0
 35 36  1  0  0  0
 35  1  1  0  0  0
 36 37  1  0  0  0
  1  2  1  0  0  0
  1  3  1  0  0  0
  1 11  1  0  0  0
  3  4  1  0  0  0
  3  5  1  0  0  0
  3  6  1  0  0  0
  4 10  1  0  0  0
  6  7  1  0  0  0
  6 27  1  0  0  0
  7  8  2  0  0  0
  7 25  1  0  0  0
  8  9  1  0  0  0
  8 18  1  0  0  0
  9 10  1  0  0  0
  9 12  1  0  0  0
 10 11  1  0  0  0
 12 13  2  0  0  0
 12 17  1  0  0  0
 13 14  1  0  0  0
 14 15  2  0  0  0
 15 16  1  0  0  0
 16 17  2  0  0  0
 17 18  1  0  0  0
 18 19  2  0  0  0
 19 20  1  0  0  0
 19 22  1  0  0  0
 20 21  2  0  0  0
 20 24  1  0  0  0
 22 23  1  0  0  0
 22 25  2  0  0  0
 23 24  1  0  0  0
 25 26  1  0  0  0
 26 27  2  0  0  0
 26 29  1  0  0  0
 27 28  1  0  0  0
 28 31  2  0  0  0
 29 30  2  0  0  0
 30 31  1  0  0  0
  2 32  1  0  0  0
 24 33  1  0  0  0
M  END
> <minimizedAffinity>
-10.67266

$$$$
