3ZYU_1GH_A_1173


 32 36  0  0  0  0  0  0  0  0999 V2000
    3.0120   -5.2943   25.9250 O   0  0  0  0  0  0  0  0  0  0  0  0
    2.6005   -5.4471   24.7844 C   0  0  0  0  0  0  0  0  0  0  0  0
    2.1921   -6.6459   24.2217 N   0  0  0  0  0  0  0  0  0  0  0  0
    2.4483   -4.5095   23.8333 N   0  0  0  0  0  0  0  0  0  0  0  0
    1.9518   -5.0811   22.6757 C   0  0  0  0  0  0  0  0  0  0  0  0
    1.7853   -6.4208   22.8988 C   0  0  0  0  0  0  0  0  0  0  0  0
    1.6352   -4.5224   21.4442 C   0  0  0  0  0  0  0  0  0  0  0  0
    1.1641   -5.2536   20.4480 N   0  0  0  0  0  0  0  0  0  0  0  0
    0.9841   -6.5814   20.6306 C   0  0  0  0  0  0  0  0  0  0  0  0
    1.2799   -7.2508   21.8541 C   0  0  0  0  0  0  0  0  0  0  0  0
    1.0700   -8.6123   21.9517 C   0  0  0  0  0  0  0  0  0  0  0  0
    0.4770   -7.3296   19.5425 C   0  0  0  0  0  0  0  0  0  0  0  0
    0.2764   -8.6822   19.6755 C   0  0  0  0  0  0  0  0  0  0  0  0
    0.5740   -9.3151   20.8882 C   0  0  0  0  0  0  0  0  0  0  0  0
    2.6595   -3.5544   23.9445 H   0  0  0  0  0  0  0  0  0  0  0  0
   -0.2923   -9.4393   18.5377 C   0  0  0  0  0  0  0  0  0  0  0  0
    0.3537  -10.3732   17.7947 C   0  0  0  0  0  0  0  0  0  0  0  0
    1.7204  -10.9194   17.8188 C   0  0  0  0  0  0  0  0  0  0  0  0
   -0.4862  -10.8779   16.8473 O   0  0  0  0  0  0  0  0  0  0  0  0
   -1.7083  -10.2286   17.0079 N   0  0  0  0  0  0  0  0  0  0  0  0
   -1.6043   -9.3627   18.0156 C   0  0  0  0  0  0  0  0  0  0  0  0
   -2.6182   -8.5810   18.4142 C   0  0  0  0  0  0  0  0  0  0  0  0
    2.2385   -7.9076   25.0350 C   0  0  0  0  0  0  0  0  0  0  0  0
    3.2827   -8.8647   24.5036 C   0  0  0  0  0  0  0  0  0  0  0  0
    0.8952   -8.5590   25.1778 C   0  0  0  0  0  0  0  0  0  0  0  0
    0.8555   -9.8923   25.0460 N   0  0  0  0  0  0  0  0  0  0  0  0
   -0.3399  -10.4771   25.1773 C   0  0  0  0  0  0  0  0  0  0  0  0
   -1.5023   -9.7914   25.4366 C   0  0  0  0  0  0  0  0  0  0  0  0
   -1.4302   -8.4297   25.5709 C   0  0  0  0  0  0  0  0  0  0  0  0
   -0.2193   -7.7930   25.4413 C   0  0  0  0  0  0  0  0  0  0  0  0
    0.3177  -10.6603   20.8802 O   0  0  0  0  0  0  0  0  0  0  0  0
    1.0812  -11.4900   21.7497 C   0  0  0  0  0  0  0  0  0  0  0  0
  1  2  2  0  0  0
  2  3  1  0  0  0
  2  4  1  0  0  0
  3 23  1  0  0  0
  3  6  1  0  0  0
 23 25  1  0  0  0
 23 24  1  0  0  0
 25 26  2  0  0  0
 25 30  1  0  0  0
 26 27  1  0  0  0
 27 28  2  0  0  0
 28 29  1  0  0  0
 29 30  2  0  0  0
  4  5  1  0  0  0
  5  6  1  0  0  0
  5  7  2  0  0  0
  6 10  2  0  0  0
  7  8  1  0  0  0
  8  9  2  0  0  0
  9 10  1  0  0  0
  9 12  1  0  0  0
 10 11  1  0  0  0
 11 14  2  0  0  0
 12 13  2  0  0  0
 13 14  1  0  0  0
 13 16  1  0  0  0
 14 31  1  0  0  0
 31 32  1  0  0  0
 16 17  2  0  0  0
 16 21  1  0  0  0
 17 18  1  0  0  0
 17 19  1  0  0  0
 19 20  1  0  0  0
 20 21  2  0  0  0
 21 22  1  0  0  0
  4 15  1  0  0  0
M  END
> <minimizedAffinity>
-9.06970

$$$$
3ZYU_1GH_A_1173


 32 36  0  0  0  0  0  0  0  0999 V2000
    3.4506   -3.9474   26.4766 O   0  0  0  0  0  0  0  0  0  0  0  0
    2.9871   -4.8580   25.8059 C   0  0  0  0  0  0  0  0  0  0  0  0
    2.5892   -4.7704   24.4813 N   0  0  0  0  0  0  0  0  0  0  0  0
    2.7641   -6.1277   26.1866 N   0  0  0  0  0  0  0  0  0  0  0  0
    2.2330   -6.8539   25.1360 C   0  0  0  0  0  0  0  0  0  0  0  0
    2.1146   -6.0201   24.0576 C   0  0  0  0  0  0  0  0  0  0  0  0
    1.8452   -8.1848   25.0494 C   0  0  0  0  0  0  0  0  0  0  0  0
    1.3521   -8.6954   23.9336 N   0  0  0  0  0  0  0  0  0  0  0  0
    1.2213   -7.9030   22.8455 C   0  0  0  0  0  0  0  0  0  0  0  0
    1.5879   -6.5253   22.8317 C   0  0  0  0  0  0  0  0  0  0  0  0
    1.4157   -5.7881   21.6766 C   0  0  0  0  0  0  0  0  0  0  0  0
    0.6917   -8.4856   21.6704 C   0  0  0  0  0  0  0  0  0  0  0  0
    0.5376   -7.7238   20.5376 C   0  0  0  0  0  0  0  0  0  0  0  0
    0.9063   -6.3734   20.5502 C   0  0  0  0  0  0  0  0  0  0  0  0
    2.9516   -6.4885   27.0832 H   0  0  0  0  0  0  0  0  0  0  0  0
    0.0186   -8.3629   19.3073 C   0  0  0  0  0  0  0  0  0  0  0  0
    0.6853   -9.2458   18.5215 C   0  0  0  0  0  0  0  0  0  0  0  0
    2.0359   -9.8292   18.5730 C   0  0  0  0  0  0  0  0  0  0  0  0
   -0.1096   -9.6429   17.4881 O   0  0  0  0  0  0  0  0  0  0  0  0
   -1.3240   -8.9769   17.6375 N   0  0  0  0  0  0  0  0  0  0  0  0
   -1.2590   -8.2053   18.7222 C   0  0  0  0  0  0  0  0  0  0  0  0
   -2.2765   -7.4339   19.1315 C   0  0  0  0  0  0  0  0  0  0  0  0
    2.7102   -3.4648   23.7492 C   0  0  0  0  0  0  0  0  0  0  0  0
    1.4217   -3.1124   23.0392 C   0  0  0  0  0  0  0  0  0  0  0  0
    3.8933   -3.4201   22.8286 C   0  0  0  0  0  0  0  0  0  0  0  0
    5.1036   -3.3970   23.4042 N   0  0  0  0  0  0  0  0  0  0  0  0
    6.1610   -3.3618   22.5863 C   0  0  0  0  0  0  0  0  0  0  0  0
    6.0674   -3.3500   21.2153 C   0  0  0  0  0  0  0  0  0  0  0  0
    4.8172   -3.3789   20.6552 C   0  0  0  0  0  0  0  0  0  0  0  0
    3.7064   -3.4142   21.4635 C   0  0  0  0  0  0  0  0  0  0  0  0
    0.7060   -5.7407   19.3523 O   0  0  0  0  0  0  0  0  0  0  0  0
    1.4125   -4.5281   19.1120 C   0  0  0  0  0  0  0  0  0  0  0  0
  1  2  2  0  0  0
  2  3  1  0  0  0
  2  4  1  0  0  0
  3 23  1  0  0  0
  3  6  1  0  0  0
 23 25  1  0  0  0
 23 24  1  0  0  0
 25 26  2  0  0  0
 25 30  1  0  0  0
 26 27  1  0  0  0
 27 28  2  0  0  0
 28 29  1  0  0  0
 29 30  2  0  0  0
  4  5  1  0  0  0
  5  6  1  0  0  0
  5  7  2  0  0  0
  6 10  2  0  0  0
  7  8  1  0  0  0
  8  9  2  0  0  0
  9 10  1  0  0  0
  9 12  1  0  0  0
 10 11  1  0  0  0
 11 14  2  0  0  0
 12 13  2  0  0  0
 13 14  1  0  0  0
 13 16  1  0  0  0
 14 31  1  0  0  0
 31 32  1  0  0  0
 16 17  2  0  0  0
 16 21  1  0  0  0
 17 18  1  0  0  0
 17 19  1  0  0  0
 19 20  1  0  0  0
 20 21  2  0  0  0
 21 22  1  0  0  0
  4 15  1  0  0  0
M  END
> <minimizedAffinity>
-8.05881

$$$$
3ZYU_1GH_A_1173


 32 36  0  0  0  0  0  0  0  0999 V2000
    0.5382  -12.3820   21.7690 O   0  0  0  0  0  0  0  0  0  0  0  0
    0.5850  -11.2104   21.4243 C   0  0  0  0  0  0  0  0  0  0  0  0
    1.1344  -10.1695   22.1558 N   0  0  0  0  0  0  0  0  0  0  0  0
    0.1285  -10.6716   20.2805 N   0  0  0  0  0  0  0  0  0  0  0  0
    0.3735   -9.3104   20.2639 C   0  0  0  0  0  0  0  0  0  0  0  0
    1.0029   -8.9758   21.4319 C   0  0  0  0  0  0  0  0  0  0  0  0
    0.0891   -8.3428   19.3090 C   0  0  0  0  0  0  0  0  0  0  0  0
    0.4121   -7.0727   19.4867 N   0  0  0  0  0  0  0  0  0  0  0  0
    1.0369   -6.7031   20.6278 C   0  0  0  0  0  0  0  0  0  0  0  0
    1.3711   -7.6179   21.6690 C   0  0  0  0  0  0  0  0  0  0  0  0
    2.0054   -7.1528   22.8042 C   0  0  0  0  0  0  0  0  0  0  0  0
    1.3677   -5.3364   20.7807 C   0  0  0  0  0  0  0  0  0  0  0  0
    2.0024   -4.9087   21.9215 C   0  0  0  0  0  0  0  0  0  0  0  0
    2.3204   -5.8276   22.9285 C   0  0  0  0  0  0  0  0  0  0  0  0
   -0.3158  -11.1731   19.5593 H   0  0  0  0  0  0  0  0  0  0  0  0
    2.3751   -3.4813   22.0439 C   0  0  0  0  0  0  0  0  0  0  0  0
    3.4074   -2.8664   21.4133 C   0  0  0  0  0  0  0  0  0  0  0  0
    4.4489   -3.3327   20.4833 C   0  0  0  0  0  0  0  0  0  0  0  0
    3.4355   -1.5447   21.7446 O   0  0  0  0  0  0  0  0  0  0  0  0
    2.3741   -1.3282   22.6206 N   0  0  0  0  0  0  0  0  0  0  0  0
    1.7326   -2.4810   22.8097 C   0  0  0  0  0  0  0  0  0  0  0  0
    0.6616   -2.5982   23.6079 C   0  0  0  0  0  0  0  0  0  0  0  0
    1.7398  -10.4407   23.5032 C   0  0  0  0  0  0  0  0  0  0  0  0
    1.1017   -9.5835   24.5740 C   0  0  0  0  0  0  0  0  0  0  0  0
    3.2352  -10.3262   23.5041 C   0  0  0  0  0  0  0  0  0  0  0  0
    3.7994   -9.8177   24.6086 N   0  0  0  0  0  0  0  0  0  0  0  0
    5.1330   -9.7184   24.6148 C   0  0  0  0  0  0  0  0  0  0  0  0
    5.9336  -10.1055   23.5671 C   0  0  0  0  0  0  0  0  0  0  0  0
    5.3290  -10.6260   22.4531 C   0  0  0  0  0  0  0  0  0  0  0  0
    3.9604  -10.7426   22.4092 C   0  0  0  0  0  0  0  0  0  0  0  0
    2.9572   -5.2640   24.0019 O   0  0  0  0  0  0  0  0  0  0  0  0
    2.9573   -5.9833   25.2307 C   0  0  0  0  0  0  0  0  0  0  0  0
  1  2  2  0  0  0
  2  3  1  0  0  0
  2  4  1  0  0  0
  3 23  1  0  0  0
  3  6  1  0  0  0
 23 25  1  0  0  0
 23 24  1  0  0  0
 25 26  2  0  0  0
 25 30  1  0  0  0
 26 27  1  0  0  0
 27 28  2  0  0  0
 28 29  1  0  0  0
 29 30  2  0  0  0
  4  5  1  0  0  0
  5  6  1  0  0  0
  5  7  2  0  0  0
  6 10  2  0  0  0
  7  8  1  0  0  0
  8  9  2  0  0  0
  9 10  1  0  0  0
  9 12  1  0  0  0
 10 11  1  0  0  0
 11 14  2  0  0  0
 12 13  2  0  0  0
 13 14  1  0  0  0
 13 16  1  0  0  0
 14 31  1  0  0  0
 31 32  1  0  0  0
 16 17  2  0  0  0
 16 21  1  0  0  0
 17 18  1  0  0  0
 17 19  1  0  0  0
 19 20  1  0  0  0
 20 21  2  0  0  0
 21 22  1  0  0  0
  4 15  1  0  0  0
M  END
> <minimizedAffinity>
-7.48051

$$$$
3ZYU_1GH_A_1173


 32 36  0  0  0  0  0  0  0  0999 V2000
    1.7373   -3.1851   19.5822 O   0  0  0  0  0  0  0  0  0  0  0  0
    1.4829   -4.3404   19.8894 C   0  0  0  0  0  0  0  0  0  0  0  0
    1.6207   -4.8945   21.1521 N   0  0  0  0  0  0  0  0  0  0  0  0
    1.0174   -5.3187   19.0937 N   0  0  0  0  0  0  0  0  0  0  0  0
    0.8544   -6.4854   19.8186 C   0  0  0  0  0  0  0  0  0  0  0  0
    1.2285   -6.2402   21.1117 C   0  0  0  0  0  0  0  0  0  0  0  0
    0.4058   -7.7431   19.4364 C   0  0  0  0  0  0  0  0  0  0  0  0
    0.3215   -8.7438   20.2969 N   0  0  0  0  0  0  0  0  0  0  0  0
    0.6806   -8.5399   21.5847 C   0  0  0  0  0  0  0  0  0  0  0  0
    1.1551   -7.2887   22.0765 C   0  0  0  0  0  0  0  0  0  0  0  0
    1.5049   -7.1704   23.4073 C   0  0  0  0  0  0  0  0  0  0  0  0
    0.5751   -9.6337   22.4754 C   0  0  0  0  0  0  0  0  0  0  0  0
    0.9280   -9.4797   23.7941 C   0  0  0  0  0  0  0  0  0  0  0  0
    1.3900   -8.2402   24.2519 C   0  0  0  0  0  0  0  0  0  0  0  0
    0.8211   -5.2193   18.1342 H   0  0  0  0  0  0  0  0  0  0  0  0
    0.7724  -10.6260   24.7178 C   0  0  0  0  0  0  0  0  0  0  0  0
    1.7342  -11.5246   25.0477 C   0  0  0  0  0  0  0  0  0  0  0  0
    3.1398  -11.6977   24.6461 C   0  0  0  0  0  0  0  0  0  0  0  0
    1.2414  -12.4283   25.9410 O   0  0  0  0  0  0  0  0  0  0  0  0
   -0.0859  -12.0765   26.1765 N   0  0  0  0  0  0  0  0  0  0  0  0
   -0.3796  -11.0000   25.4478 C   0  0  0  0  0  0  0  0  0  0  0  0
   -1.5887  -10.4203   25.4560 C   0  0  0  0  0  0  0  0  0  0  0  0
    2.1269   -4.0515   22.2872 C   0  0  0  0  0  0  0  0  0  0  0  0
    0.9871   -3.3903   23.0303 C   0  0  0  0  0  0  0  0  0  0  0  0
    3.1712   -3.0638   21.8593 C   0  0  0  0  0  0  0  0  0  0  0  0
    2.8262   -1.7691   21.8956 N   0  0  0  0  0  0  0  0  0  0  0  0
    3.7564   -0.8852   21.5192 C   0  0  0  0  0  0  0  0  0  0  0  0
    5.0205   -1.2336   21.1079 C   0  0  0  0  0  0  0  0  0  0  0  0
    5.3462   -2.5644   21.0855 C   0  0  0  0  0  0  0  0  0  0  0  0
    4.4161   -3.5025   21.4642 C   0  0  0  0  0  0  0  0  0  0  0  0
    1.6964   -8.2298   25.5866 O   0  0  0  0  0  0  0  0  0  0  0  0
    3.0392   -7.9393   25.9606 C   0  0  0  0  0  0  0  0  0  0  0  0
  1  2  2  0  0  0
  2  3  1  0  0  0
  2  4  1  0  0  0
  3 23  1  0  0  0
  3  6  1  0  0  0
 23 25  1  0  0  0
 23 24  1  0  0  0
 25 26  2  0  0  0
 25 30  1  0  0  0
 26 27  1  0  0  0
 27 28  2  0  0  0
 28 29  1  0  0  0
 29 30  2  0  0  0
  4  5  1  0  0  0
  5  6  1  0  0  0
  5  7  2  0  0  0
  6 10  2  0  0  0
  7  8  1  0  0  0
  8  9  2  0  0  0
  9 10  1  0  0  0
  9 12  1  0  0  0
 10 11  1  0  0  0
 11 14  2  0  0  0
 12 13  2  0  0  0
 13 14  1  0  0  0
 13 16  1  0  0  0
 14 31  1  0  0  0
 31 32  1  0  0  0
 16 17  2  0  0  0
 16 21  1  0  0  0
 17 18  1  0  0  0
 17 19  1  0  0  0
 19 20  1  0  0  0
 20 21  2  0  0  0
 21 22  1  0  0  0
  4 15  1  0  0  0
M  END
> <minimizedAffinity>
-7.37399

$$$$
3ZYU_1GH_A_1173


 32 36  0  0  0  0  0  0  0  0999 V2000
    0.4004  -11.3933   22.4651 O   0  0  0  0  0  0  0  0  0  0  0  0
    0.5598  -10.2504   22.0624 C   0  0  0  0  0  0  0  0  0  0  0  0
    1.1138   -9.2047   22.7835 N   0  0  0  0  0  0  0  0  0  0  0  0
    0.2457   -9.7539   20.8534 N   0  0  0  0  0  0  0  0  0  0  0  0
    0.5862   -8.4151   20.7848 C   0  0  0  0  0  0  0  0  0  0  0  0
    1.1313   -8.0514   21.9860 C   0  0  0  0  0  0  0  0  0  0  0  0
    0.4564   -7.4911   19.7561 C   0  0  0  0  0  0  0  0  0  0  0  0
    0.8508   -6.2362   19.8930 N   0  0  0  0  0  0  0  0  0  0  0  0
    1.3962   -5.8391   21.0651 C   0  0  0  0  0  0  0  0  0  0  0  0
    1.5715   -6.7084   22.1815 C   0  0  0  0  0  0  0  0  0  0  0  0
    2.1336   -6.2171   23.3433 C   0  0  0  0  0  0  0  0  0  0  0  0
    1.8073   -4.4900   21.1727 C   0  0  0  0  0  0  0  0  0  0  0  0
    2.3667   -4.0355   22.3424 C   0  0  0  0  0  0  0  0  0  0  0  0
    2.5286   -4.9100   23.4234 C   0  0  0  0  0  0  0  0  0  0  0  0
   -0.1670  -10.2687   20.1226 H   0  0  0  0  0  0  0  0  0  0  0  0
    2.8263   -2.6305   22.4203 C   0  0  0  0  0  0  0  0  0  0  0  0
    3.9602   -2.1275   21.8702 C   0  0  0  0  0  0  0  0  0  0  0  0
    5.0565   -2.7212   21.0874 C   0  0  0  0  0  0  0  0  0  0  0  0
    4.0488   -0.7914   22.1243 O   0  0  0  0  0  0  0  0  0  0  0  0
    2.9203   -0.4486   22.8658 N   0  0  0  0  0  0  0  0  0  0  0  0
    2.1814   -1.5420   23.0518 C   0  0  0  0  0  0  0  0  0  0  0  0
    1.0275   -1.5360   23.7349 C   0  0  0  0  0  0  0  0  0  0  0  0
    1.5767   -9.4319   24.1940 C   0  0  0  0  0  0  0  0  0  0  0  0
    2.4189  -10.6841   24.3001 C   0  0  0  0  0  0  0  0  0  0  0  0
    0.4515   -9.4219   25.1856 C   0  0  0  0  0  0  0  0  0  0  0  0
    0.3457  -10.4911   25.9870 N   0  0  0  0  0  0  0  0  0  0  0  0
   -0.6537  -10.4835   26.8756 C   0  0  0  0  0  0  0  0  0  0  0  0
   -1.5553   -9.4543   27.0038 C   0  0  0  0  0  0  0  0  0  0  0  0
   -1.4193   -8.3724   26.1740 C   0  0  0  0  0  0  0  0  0  0  0  0
   -0.4051   -8.3446   25.2472 C   0  0  0  0  0  0  0  0  0  0  0  0
    3.1056   -4.3245   24.5186 O   0  0  0  0  0  0  0  0  0  0  0  0
    3.4842   -5.1658   25.6031 C   0  0  0  0  0  0  0  0  0  0  0  0
  1  2  2  0  0  0
  2  3  1  0  0  0
  2  4  1  0  0  0
  3 23  1  0  0  0
  3  6  1  0  0  0
 23 25  1  0  0  0
 23 24  1  0  0  0
 25 26  2  0  0  0
 25 30  1  0  0  0
 26 27  1  0  0  0
 27 28  2  0  0  0
 28 29  1  0  0  0
 29 30  2  0  0  0
  4  5  1  0  0  0
  5  6  1  0  0  0
  5  7  2  0  0  0
  6 10  2  0  0  0
  7  8  1  0  0  0
  8  9  2  0  0  0
  9 10  1  0  0  0
  9 12  1  0  0  0
 10 11  1  0  0  0
 11 14  2  0  0  0
 12 13  2  0  0  0
 13 14  1  0  0  0
 13 16  1  0  0  0
 14 31  1  0  0  0
 31 32  1  0  0  0
 16 17  2  0  0  0
 16 21  1  0  0  0
 17 18  1  0  0  0
 17 19  1  0  0  0
 19 20  1  0  0  0
 20 21  2  0  0  0
 21 22  1  0  0  0
  4 15  1  0  0  0
M  END
> <minimizedAffinity>
-7.23544

$$$$
3ZYU_1GH_A_1173


 32 36  0  0  0  0  0  0  0  0999 V2000
   -0.0607  -10.3822   20.3333 O   0  0  0  0  0  0  0  0  0  0  0  0
    0.2944   -9.2128   20.3505 C   0  0  0  0  0  0  0  0  0  0  0  0
    0.7875   -8.5295   21.4506 N   0  0  0  0  0  0  0  0  0  0  0  0
    0.2931   -8.3387   19.3294 N   0  0  0  0  0  0  0  0  0  0  0  0
    0.7740   -7.1123   19.7512 C   0  0  0  0  0  0  0  0  0  0  0  0
    1.0886   -7.2112   21.0792 C   0  0  0  0  0  0  0  0  0  0  0  0
    0.9573   -5.9183   19.0660 C   0  0  0  0  0  0  0  0  0  0  0  0
    1.4390   -4.8402   19.6616 N   0  0  0  0  0  0  0  0  0  0  0  0
    1.7634   -4.8991   20.9731 C   0  0  0  0  0  0  0  0  0  0  0  0
    1.6115   -6.0747   21.7653 C   0  0  0  0  0  0  0  0  0  0  0  0
    1.9638   -6.0447   23.1002 C   0  0  0  0  0  0  0  0  0  0  0  0
    2.2770   -3.7263   21.5745 C   0  0  0  0  0  0  0  0  0  0  0  0
    2.6213   -3.7328   22.9044 C   0  0  0  0  0  0  0  0  0  0  0  0
    2.4633   -4.9008   23.6597 C   0  0  0  0  0  0  0  0  0  0  0  0
   -0.0068   -8.5418   18.4139 H   0  0  0  0  0  0  0  0  0  0  0  0
    3.1940   -2.5065   23.5040 C   0  0  0  0  0  0  0  0  0  0  0  0
    2.4965   -1.4254   23.9357 C   0  0  0  0  0  0  0  0  0  0  0  0
    1.0644   -1.0855   23.9556 C   0  0  0  0  0  0  0  0  0  0  0  0
    3.3495   -0.4951   24.4500 O   0  0  0  0  0  0  0  0  0  0  0  0
    4.6344   -1.0207   24.3323 N   0  0  0  0  0  0  0  0  0  0  0  0
    4.5548   -2.2240   23.7649 C   0  0  0  0  0  0  0  0  0  0  0  0
    5.6296   -2.9854   23.5139 C   0  0  0  0  0  0  0  0  0  0  0  0
    0.9184   -9.2333   22.7708 C   0  0  0  0  0  0  0  0  0  0  0  0
    0.1958   -8.4820   23.8672 C   0  0  0  0  0  0  0  0  0  0  0  0
    2.3427   -9.5314   23.1339 C   0  0  0  0  0  0  0  0  0  0  0  0
    2.7094   -9.2706   24.3965 N   0  0  0  0  0  0  0  0  0  0  0  0
    3.9775   -9.5395   24.7251 C   0  0  0  0  0  0  0  0  0  0  0  0
    4.9004  -10.0600   23.8500 C   0  0  0  0  0  0  0  0  0  0  0  0
    4.4955  -10.3207   22.5672 C   0  0  0  0  0  0  0  0  0  0  0  0
    3.2002  -10.0563   22.1919 C   0  0  0  0  0  0  0  0  0  0  0  0
    2.8537   -4.7647   24.9652 O   0  0  0  0  0  0  0  0  0  0  0  0
    3.7583   -5.7283   25.4949 C   0  0  0  0  0  0  0  0  0  0  0  0
  1  2  2  0  0  0
  2  3  1  0  0  0
  2  4  1  0  0  0
  3 23  1  0  0  0
  3  6  1  0  0  0
 23 25  1  0  0  0
 23 24  1  0  0  0
 25 26  2  0  0  0
 25 30  1  0  0  0
 26 27  1  0  0  0
 27 28  2  0  0  0
 28 29  1  0  0  0
 29 30  2  0  0  0
  4  5  1  0  0  0
  5  6  1  0  0  0
  5  7  2  0  0  0
  6 10  2  0  0  0
  7  8  1  0  0  0
  8  9  2  0  0  0
  9 10  1  0  0  0
  9 12  1  0  0  0
 10 11  1  0  0  0
 11 14  2  0  0  0
 12 13  2  0  0  0
 13 14  1  0  0  0
 13 16  1  0  0  0
 14 31  1  0  0  0
 31 32  1  0  0  0
 16 17  2  0  0  0
 16 21  1  0  0  0
 17 18  1  0  0  0
 17 19  1  0  0  0
 19 20  1  0  0  0
 20 21  2  0  0  0
 21 22  1  0  0  0
  4 15  1  0  0  0
M  END
> <minimizedAffinity>
-6.88261

$$$$
3ZYU_1GH_A_1173


 32 36  0  0  0  0  0  0  0  0999 V2000
    1.0649   -6.2952   18.7050 O   0  0  0  0  0  0  0  0  0  0  0  0
    1.0177   -6.4531   19.9160 C   0  0  0  0  0  0  0  0  0  0  0  0
    0.7729   -7.6499   20.5704 N   0  0  0  0  0  0  0  0  0  0  0  0
    1.1921   -5.5254   20.8730 N   0  0  0  0  0  0  0  0  0  0  0  0
    1.0645   -6.1015   22.1241 C   0  0  0  0  0  0  0  0  0  0  0  0
    0.8003   -7.4334   21.9556 C   0  0  0  0  0  0  0  0  0  0  0  0
    1.1606   -5.5528   23.3964 C   0  0  0  0  0  0  0  0  0  0  0  0
    1.0036   -6.2869   24.4852 N   0  0  0  0  0  0  0  0  0  0  0  0
    0.7430   -7.6080   24.3595 C   0  0  0  0  0  0  0  0  0  0  0  0
    0.6231   -8.2662   23.1005 C   0  0  0  0  0  0  0  0  0  0  0  0
    0.3504   -9.6195   23.0647 C   0  0  0  0  0  0  0  0  0  0  0  0
    0.5831   -8.3602   25.5467 C   0  0  0  0  0  0  0  0  0  0  0  0
    0.3163   -9.7059   25.4744 C   0  0  0  0  0  0  0  0  0  0  0  0
    0.2045  -10.3282   24.2255 C   0  0  0  0  0  0  0  0  0  0  0  0
    1.3829   -4.5739   20.7075 H   0  0  0  0  0  0  0  0  0  0  0  0
    0.1920  -10.4819   26.7289 C   0  0  0  0  0  0  0  0  0  0  0  0
    1.1377  -11.2943   27.2648 C   0  0  0  0  0  0  0  0  0  0  0  0
    2.4924  -11.6874   26.8439 C   0  0  0  0  0  0  0  0  0  0  0  0
    0.6861  -11.8266   28.4354 O   0  0  0  0  0  0  0  0  0  0  0  0
   -0.5974  -11.3235   28.6359 N   0  0  0  0  0  0  0  0  0  0  0  0
   -0.9059  -10.5187   27.6193 C   0  0  0  0  0  0  0  0  0  0  0  0
   -2.0818   -9.8816   27.5233 C   0  0  0  0  0  0  0  0  0  0  0  0
    0.5326   -8.9011   19.7753 C   0  0  0  0  0  0  0  0  0  0  0  0
    1.8031   -9.3793   19.1077 C   0  0  0  0  0  0  0  0  0  0  0  0
   -0.6005   -8.7651   18.8024 C   0  0  0  0  0  0  0  0  0  0  0  0
   -0.5151   -9.4840   17.6743 N   0  0  0  0  0  0  0  0  0  0  0  0
   -1.5260   -9.3687   16.8064 C   0  0  0  0  0  0  0  0  0  0  0  0
   -2.6234   -8.5676   17.0126 C   0  0  0  0  0  0  0  0  0  0  0  0
   -2.6853   -7.8479   18.1770 C   0  0  0  0  0  0  0  0  0  0  0  0
   -1.6648   -7.9396   19.0927 C   0  0  0  0  0  0  0  0  0  0  0  0
   -0.0543  -11.6706   24.3046 O   0  0  0  0  0  0  0  0  0  0  0  0
    0.6894  -12.5443   23.4616 C   0  0  0  0  0  0  0  0  0  0  0  0
  1  2  2  0  0  0
  2  3  1  0  0  0
  2  4  1  0  0  0
  3 23  1  0  0  0
  3  6  1  0  0  0
 23 25  1  0  0  0
 23 24  1  0  0  0
 25 26  2  0  0  0
 25 30  1  0  0  0
 26 27  1  0  0  0
 27 28  2  0  0  0
 28 29  1  0  0  0
 29 30  2  0  0  0
  4  5  1  0  0  0
  5  6  1  0  0  0
  5  7  2  0  0  0
  6 10  2  0  0  0
  7  8  1  0  0  0
  8  9  2  0  0  0
  9 10  1  0  0  0
  9 12  1  0  0  0
 10 11  1  0  0  0
 11 14  2  0  0  0
 12 13  2  0  0  0
 13 14  1  0  0  0
 13 16  1  0  0  0
 14 31  1  0  0  0
 31 32  1  0  0  0
 16 17  2  0  0  0
 16 21  1  0  0  0
 17 18  1  0  0  0
 17 19  1  0  0  0
 19 20  1  0  0  0
 20 21  2  0  0  0
 21 22  1  0  0  0
  4 15  1  0  0  0
M  END
> <minimizedAffinity>
-6.86160

$$$$
3ZYU_1GH_A_1173


 32 36  0  0  0  0  0  0  0  0999 V2000
    3.8829   -8.1904   27.1029 O   0  0  0  0  0  0  0  0  0  0  0  0
    3.4102   -7.8292   26.0353 C   0  0  0  0  0  0  0  0  0  0  0  0
    2.8047   -8.6487   25.0959 N   0  0  0  0  0  0  0  0  0  0  0  0
    3.3649   -6.5817   25.5368 N   0  0  0  0  0  0  0  0  0  0  0  0
    2.7445   -6.5846   24.3006 C   0  0  0  0  0  0  0  0  0  0  0  0
    2.3866   -7.8720   24.0058 C   0  0  0  0  0  0  0  0  0  0  0  0
    2.4692   -5.5513   23.4144 C   0  0  0  0  0  0  0  0  0  0  0  0
    1.8559   -5.7663   22.2626 N   0  0  0  0  0  0  0  0  0  0  0  0
    1.4849   -7.0253   21.9364 C   0  0  0  0  0  0  0  0  0  0  0  0
    1.7227   -8.1537   22.7747 C   0  0  0  0  0  0  0  0  0  0  0  0
    1.3140   -9.4060   22.3604 C   0  0  0  0  0  0  0  0  0  0  0  0
    0.8300   -7.2152   20.6971 C   0  0  0  0  0  0  0  0  0  0  0  0
    0.4332   -8.4746   20.3179 C   0  0  0  0  0  0  0  0  0  0  0  0
    0.6778   -9.5656   21.1600 C   0  0  0  0  0  0  0  0  0  0  0  0
    3.7217   -5.7818   25.9865 H   0  0  0  0  0  0  0  0  0  0  0  0
   -0.2858   -8.6452   19.0352 C   0  0  0  0  0  0  0  0  0  0  0  0
    0.1493   -9.3516   17.9613 C   0  0  0  0  0  0  0  0  0  0  0  0
    1.3740  -10.1191   17.6820 C   0  0  0  0  0  0  0  0  0  0  0  0
   -0.7818   -9.3093   16.9670 O   0  0  0  0  0  0  0  0  0  0  0  0
   -1.8427   -8.5421   17.4434 N   0  0  0  0  0  0  0  0  0  0  0  0
   -1.5566   -8.1365   18.6803 C   0  0  0  0  0  0  0  0  0  0  0  0
   -2.3851   -7.3743   19.4086 C   0  0  0  0  0  0  0  0  0  0  0  0
    2.6915  -10.1239   25.3531 C   0  0  0  0  0  0  0  0  0  0  0  0
    3.5281  -10.9174   24.3738 C   0  0  0  0  0  0  0  0  0  0  0  0
    1.2701  -10.6005   25.3980 C   0  0  0  0  0  0  0  0  0  0  0  0
    0.3797   -9.7847   25.9798 N   0  0  0  0  0  0  0  0  0  0  0  0
   -0.8895  -10.2043   26.0176 C   0  0  0  0  0  0  0  0  0  0  0  0
   -1.3141  -11.4039   25.4987 C   0  0  0  0  0  0  0  0  0  0  0  0
   -0.3822  -12.2149   24.9059 C   0  0  0  0  0  0  0  0  0  0  0  0
    0.9323  -11.8182   24.8491 C   0  0  0  0  0  0  0  0  0  0  0  0
    0.2217  -10.7559   20.6595 O   0  0  0  0  0  0  0  0  0  0  0  0
    0.8433  -11.9532   21.1149 C   0  0  0  0  0  0  0  0  0  0  0  0
  1  2  2  0  0  0
  2  3  1  0  0  0
  2  4  1  0  0  0
  3 23  1  0  0  0
  3  6  1  0  0  0
 23 25  1  0  0  0
 23 24  1  0  0  0
 25 26  2  0  0  0
 25 30  1  0  0  0
 26 27  1  0  0  0
 27 28  2  0  0  0
 28 29  1  0  0  0
 29 30  2  0  0  0
  4  5  1  0  0  0
  5  6  1  0  0  0
  5  7  2  0  0  0
  6 10  2  0  0  0
  7  8  1  0  0  0
  8  9  2  0  0  0
  9 10  1  0  0  0
  9 12  1  0  0  0
 10 11  1  0  0  0
 11 14  2  0  0  0
 12 13  2  0  0  0
 13 14  1  0  0  0
 13 16  1  0  0  0
 14 31  1  0  0  0
 31 32  1  0  0  0
 16 17  2  0  0  0
 16 21  1  0  0  0
 17 18  1  0  0  0
 17 19  1  0  0  0
 19 20  1  0  0  0
 20 21  2  0  0  0
 21 22  1  0  0  0
  4 15  1  0  0  0
M  END
> <minimizedAffinity>
-6.85220

$$$$
3ZYU_1GH_A_1173


 32 36  0  0  0  0  0  0  0  0999 V2000
    3.7736   -1.1753   25.1509 O   0  0  0  0  0  0  0  0  0  0  0  0
    3.6973   -2.3923   25.2346 C   0  0  0  0  0  0  0  0  0  0  0  0
    2.9600   -3.2194   24.4023 N   0  0  0  0  0  0  0  0  0  0  0  0
    4.2997   -3.1936   26.1301 N   0  0  0  0  0  0  0  0  0  0  0  0
    3.9647   -4.5138   25.8894 C   0  0  0  0  0  0  0  0  0  0  0  0
    3.1243   -4.5509   24.8103 C   0  0  0  0  0  0  0  0  0  0  0  0
    4.3362   -5.6836   26.5395 C   0  0  0  0  0  0  0  0  0  0  0  0
    3.8989   -6.8681   26.1462 N   0  0  0  0  0  0  0  0  0  0  0  0
    3.0678   -6.9458   25.0822 C   0  0  0  0  0  0  0  0  0  0  0  0
    2.6261   -5.8057   24.3488 C   0  0  0  0  0  0  0  0  0  0  0  0
    1.7724   -5.9765   23.2767 C   0  0  0  0  0  0  0  0  0  0  0  0
    2.6227   -8.2300   24.6907 C   0  0  0  0  0  0  0  0  0  0  0  0
    1.7767   -8.3639   23.6166 C   0  0  0  0  0  0  0  0  0  0  0  0
    1.3587   -7.2284   22.9127 C   0  0  0  0  0  0  0  0  0  0  0  0
    4.8933   -2.8855   26.8525 H   0  0  0  0  0  0  0  0  0  0  0  0
    1.3546   -9.7201   23.1994 C   0  0  0  0  0  0  0  0  0  0  0  0
    0.3343  -10.4399   23.7308 C   0  0  0  0  0  0  0  0  0  0  0  0
   -0.6268  -10.1863   24.8166 C   0  0  0  0  0  0  0  0  0  0  0  0
    0.2204  -11.6345   23.0845 O   0  0  0  0  0  0  0  0  0  0  0  0
    1.2143  -11.6588   22.1086 N   0  0  0  0  0  0  0  0  0  0  0  0
    1.9020  -10.5188   22.1689 C   0  0  0  0  0  0  0  0  0  0  0  0
    2.9308  -10.2428   21.3544 C   0  0  0  0  0  0  0  0  0  0  0  0
    2.1582   -2.6268   23.2792 C   0  0  0  0  0  0  0  0  0  0  0  0
    0.6845   -2.9294   23.4381 C   0  0  0  0  0  0  0  0  0  0  0  0
    2.6727   -3.0180   21.9259 C   0  0  0  0  0  0  0  0  0  0  0  0
    1.7574   -3.3731   21.0133 N   0  0  0  0  0  0  0  0  0  0  0  0
    2.2123   -3.7181   19.8040 C   0  0  0  0  0  0  0  0  0  0  0  0
    3.5429   -3.7239   19.4604 C   0  0  0  0  0  0  0  0  0  0  0  0
    4.4552   -3.3517   20.4126 C   0  0  0  0  0  0  0  0  0  0  0  0
    4.0258   -2.9917   21.6674 C   0  0  0  0  0  0  0  0  0  0  0  0
    0.5258   -7.5114   21.8632 O   0  0  0  0  0  0  0  0  0  0  0  0
    0.8643   -6.9882   20.5830 C   0  0  0  0  0  0  0  0  0  0  0  0
  1  2  2  0  0  0
  2  3  1  0  0  0
  2  4  1  0  0  0
  3 23  1  0  0  0
  3  6  1  0  0  0
 23 25  1  0  0  0
 23 24  1  0  0  0
 25 26  2  0  0  0
 25 30  1  0  0  0
 26 27  1  0  0  0
 27 28  2  0  0  0
 28 29  1  0  0  0
 29 30  2  0  0  0
  4  5  1  0  0  0
  5  6  1  0  0  0
  5  7  2  0  0  0
  6 10  2  0  0  0
  7  8  1  0  0  0
  8  9  2  0  0  0
  9 10  1  0  0  0
  9 12  1  0  0  0
 10 11  1  0  0  0
 11 14  2  0  0  0
 12 13  2  0  0  0
 13 14  1  0  0  0
 13 16  1  0  0  0
 14 31  1  0  0  0
 31 32  1  0  0  0
 16 17  2  0  0  0
 16 21  1  0  0  0
 17 18  1  0  0  0
 17 19  1  0  0  0
 19 20  1  0  0  0
 20 21  2  0  0  0
 21 22  1  0  0  0
  4 15  1  0  0  0
M  END
> <minimizedAffinity>
-6.75435

$$$$
3ZYU_1GH_A_1173


 32 36  0  0  0  0  0  0  0  0999 V2000
    0.4513   -4.7917   17.9444 O   0  0  0  0  0  0  0  0  0  0  0  0
    0.7915   -5.0766   19.0832 C   0  0  0  0  0  0  0  0  0  0  0  0
    0.4768   -6.2462   19.7566 N   0  0  0  0  0  0  0  0  0  0  0  0
    1.5360   -4.3410   19.9266 N   0  0  0  0  0  0  0  0  0  0  0  0
    1.7046   -5.0133   21.1236 C   0  0  0  0  0  0  0  0  0  0  0  0
    1.0468   -6.2100   21.0372 C   0  0  0  0  0  0  0  0  0  0  0  0
    2.3866   -4.6609   22.2810 C   0  0  0  0  0  0  0  0  0  0  0  0
    2.4289   -5.4587   23.3349 N   0  0  0  0  0  0  0  0  0  0  0  0
    1.7923   -6.6509   23.2872 C   0  0  0  0  0  0  0  0  0  0  0  0
    1.0638   -7.1045   22.1487 C   0  0  0  0  0  0  0  0  0  0  0  0
    0.4391   -8.3355   22.1881 C   0  0  0  0  0  0  0  0  0  0  0  0
    1.8617   -7.4771   24.4332 C   0  0  0  0  0  0  0  0  0  0  0  0
    1.2316   -8.6979   24.4367 C   0  0  0  0  0  0  0  0  0  0  0  0
    0.5236   -9.1202   23.3053 C   0  0  0  0  0  0  0  0  0  0  0  0
    1.9074   -3.4525   19.7221 H   0  0  0  0  0  0  0  0  0  0  0  0
    1.3500   -9.5638   25.6315 C   0  0  0  0  0  0  0  0  0  0  0  0
    0.5084   -9.5788   26.6959 C   0  0  0  0  0  0  0  0  0  0  0  0
   -0.7004   -8.8136   27.0427 C   0  0  0  0  0  0  0  0  0  0  0  0
    0.9132  -10.5175   27.5973 O   0  0  0  0  0  0  0  0  0  0  0  0
    2.0576  -11.1121   27.0703 N   0  0  0  0  0  0  0  0  0  0  0  0
    2.3309  -10.5479   25.8942 C   0  0  0  0  0  0  0  0  0  0  0  0
    3.3794  -10.9055   25.1389 C   0  0  0  0  0  0  0  0  0  0  0  0
   -0.3578   -7.2963   19.0810 C   0  0  0  0  0  0  0  0  0  0  0  0
   -1.7406   -7.3736   19.6897 C   0  0  0  0  0  0  0  0  0  0  0  0
    0.3153   -8.6357   19.0355 C   0  0  0  0  0  0  0  0  0  0  0  0
    1.6435   -8.6363   18.8552 N   0  0  0  0  0  0  0  0  0  0  0  0
    2.2478   -9.8288   18.8187 C   0  0  0  0  0  0  0  0  0  0  0  0
    1.5866  -11.0257   18.9557 C   0  0  0  0  0  0  0  0  0  0  0  0
    0.2296  -10.9937   19.1434 C   0  0  0  0  0  0  0  0  0  0  0  0
   -0.4266   -9.7870   19.1853 C   0  0  0  0  0  0  0  0  0  0  0  0
   -0.0453  -10.3578   23.4467 O   0  0  0  0  0  0  0  0  0  0  0  0
    0.5260  -11.4415   22.7210 C   0  0  0  0  0  0  0  0  0  0  0  0
  1  2  2  0  0  0
  2  3  1  0  0  0
  2  4  1  0  0  0
  3 23  1  0  0  0
  3  6  1  0  0  0
 23 25  1  0  0  0
 23 24  1  0  0  0
 25 26  2  0  0  0
 25 30  1  0  0  0
 26 27  1  0  0  0
 27 28  2  0  0  0
 28 29  1  0  0  0
 29 30  2  0  0  0
  4  5  1  0  0  0
  5  6  1  0  0  0
  5  7  2  0  0  0
  6 10  2  0  0  0
  7  8  1  0  0  0
  8  9  2  0  0  0
  9 10  1  0  0  0
  9 12  1  0  0  0
 10 11  1  0  0  0
 11 14  2  0  0  0
 12 13  2  0  0  0
 13 14  1  0  0  0
 13 16  1  0  0  0
 14 31  1  0  0  0
 31 32  1  0  0  0
 16 17  2  0  0  0
 16 21  1  0  0  0
 17 18  1  0  0  0
 17 19  1  0  0  0
 19 20  1  0  0  0
 20 21  2  0  0  0
 21 22  1  0  0  0
  4 15  1  0  0  0
M  END
> <minimizedAffinity>
-6.48580

$$$$
