4CIW_XH2_A_1148


 20 20  0  0  0  0  0  0  0  0999 V2000
    3.6416   13.3804   20.9748 O   0  0  0  0  0  0  0  0  0  0  0  0
    2.7140   13.1585   22.0663 C   0  0  0  0  0  0  0  0  0  0  0  0
    2.5195   11.6085   22.1062 C   0  0  0  0  0  0  0  0  0  0  0  0
    1.8521   11.1490   20.8854 O   0  0  0  0  0  0  0  0  0  0  0  0
    1.7146   11.2496   23.3561 C   0  0  0  0  0  0  0  0  0  0  0  0
    2.5472   11.6635   24.6075 C   0  0  0  0  0  0  0  0  0  0  0  0
    3.7386   10.8011   24.6854 O   0  0  0  0  0  0  0  0  0  0  0  0
    3.0866   12.9891   24.4964 C   0  0  0  0  0  0  0  0  0  0  0  0
    3.1908   13.7395   23.3119 C   0  0  0  0  0  0  0  0  0  0  0  0
    3.2895   12.9797   20.1646 H   0  0  0  0  0  0  0  0  0  0  0  0
    0.9844   11.5760   20.8110 H   0  0  0  0  0  0  0  0  0  0  0  0
    3.4624    9.8745   24.7634 H   0  0  0  0  0  0  0  0  0  0  0  0
    1.7418   11.5217   25.8110 C   0  0  0  0  0  0  0  0  0  0  0  0
    0.6098   10.9517   25.6714 O   0  0  0  0  0  0  0  0  0  0  0  0
    2.2006   11.9580   26.9229 O   0  0  0  0  0  0  0  0  0  0  0  0
    3.0427   12.3678   26.9538 H   0  0  0  0  0  0  0  0  0  0  0  0
    3.7251   15.0720   23.3537 C   0  0  0  0  0  0  0  0  0  0  0  0
    3.5281   15.7142   24.7473 C   0  0  0  0  0  0  0  0  0  0  0  0
    2.9526   17.0872   24.6647 O   0  0  0  0  0  0  0  0  0  0  0  0
    3.5592   17.6630   24.1733 H   0  0  0  0  0  0  0  0  0  0  0  0
  1  2  1  0  0  0
  2  3  1  0  0  0
  2  9  1  0  0  0
  3  4  1  0  0  0
  3  5  1  0  0  0
  5  6  1  0  0  0
  6 13  1  0  0  0
  6  7  1  0  0  0
  6  8  1  0  0  0
 13 14  2  0  0  0
 13 15  1  0  0  0
  8  9  2  0  0  0
  9 17  1  0  0  0
 17 18  1  0  0  0
 18 19  1  0  0  0
  1 10  1  0  0  0
  4 11  1  0  0  0
 15 16  1  0  0  0
  7 12  1  0  0  0
 19 20  1  0  0  0
M  END
> <minimizedAffinity>
-9.14308

$$$$
4CIW_XH2_A_1148


 20 20  0  0  0  0  0  0  0  0999 V2000
    4.3042   14.8880   22.1983 O   0  0  0  0  0  0  0  0  0  0  0  0
    3.2201   14.3454   22.9929 C   0  0  0  0  0  0  0  0  0  0  0  0
    3.0355   12.8879   22.4604 C   0  0  0  0  0  0  0  0  0  0  0  0
    2.5702   12.9100   21.0713 O   0  0  0  0  0  0  0  0  0  0  0  0
    2.0491   12.1565   23.3722 C   0  0  0  0  0  0  0  0  0  0  0  0
    2.6733   12.0734   24.7984 C   0  0  0  0  0  0  0  0  0  0  0  0
    3.8456   11.1834   24.7471 O   0  0  0  0  0  0  0  0  0  0  0  0
    3.2117   13.3294   25.2380 C   0  0  0  0  0  0  0  0  0  0  0  0
    3.4923   14.4373   24.4190 C   0  0  0  0  0  0  0  0  0  0  0  0
    4.0860   14.8088   21.2565 H   0  0  0  0  0  0  0  0  0  0  0  0
    1.7209   13.3759   21.0221 H   0  0  0  0  0  0  0  0  0  0  0  0
    3.5689   10.3007   24.4551 H   0  0  0  0  0  0  0  0  0  0  0  0
    1.6918   11.5615   25.7427 C   0  0  0  0  0  0  0  0  0  0  0  0
    1.8582   11.8857   26.9646 O   0  0  0  0  0  0  0  0  0  0  0  0
    0.7305   10.8361   25.3105 O   0  0  0  0  0  0  0  0  0  0  0  0
    0.6685   10.6360   24.3972 H   0  0  0  0  0  0  0  0  0  0  0  0
    4.0017   15.6471   25.0019 C   0  0  0  0  0  0  0  0  0  0  0  0
    2.9183   16.3697   25.8367 C   0  0  0  0  0  0  0  0  0  0  0  0
    2.8590   17.8315   25.5487 O   0  0  0  0  0  0  0  0  0  0  0  0
    3.7084   18.2406   25.7766 H   0  0  0  0  0  0  0  0  0  0  0  0
  1  2  1  0  0  0
  2  3  1  0  0  0
  2  9  1  0  0  0
  3  4  1  0  0  0
  3  5  1  0  0  0
  5  6  1  0  0  0
  6 13  1  0  0  0
  6  7  1  0  0  0
  6  8  1  0  0  0
 13 14  2  0  0  0
 13 15  1  0  0  0
  8  9  2  0  0  0
  9 17  1  0  0  0
 17 18  1  0  0  0
 18 19  1  0  0  0
  1 10  1  0  0  0
  4 11  1  0  0  0
 15 16  1  0  0  0
  7 12  1  0  0  0
 19 20  1  0  0  0
M  END
> <minimizedAffinity>
-8.77755

$$$$
4CIW_XH2_A_1148


 20 20  0  0  0  0  0  0  0  0999 V2000
    2.5841   14.1502   26.6104 O   0  0  0  0  0  0  0  0  0  0  0  0
    3.2029   13.4135   25.5261 C   0  0  0  0  0  0  0  0  0  0  0  0
    2.2749   12.1741   25.3147 C   0  0  0  0  0  0  0  0  0  0  0  0
    2.3143   11.3036   26.4926 O   0  0  0  0  0  0  0  0  0  0  0  0
    2.7270   11.4353   24.0542 C   0  0  0  0  0  0  0  0  0  0  0  0
    2.5407   12.3905   22.8362 C   0  0  0  0  0  0  0  0  0  0  0  0
    1.0995   12.6110   22.6281 O   0  0  0  0  0  0  0  0  0  0  0  0
    3.0596   13.7059   23.0834 C   0  0  0  0  0  0  0  0  0  0  0  0
    3.3863   14.2394   24.3426 C   0  0  0  0  0  0  0  0  0  0  0  0
    2.4791   13.5674   27.3787 H   0  0  0  0  0  0  0  0  0  0  0  0
    3.2234   10.9983   26.6387 H   0  0  0  0  0  0  0  0  0  0  0  0
    0.6645   11.7620   22.4523 H   0  0  0  0  0  0  0  0  0  0  0  0
    3.1385   11.8034   21.6466 C   0  0  0  0  0  0  0  0  0  0  0  0
    3.2236   12.5591   20.6232 O   0  0  0  0  0  0  0  0  0  0  0  0
    3.5456   10.5910   21.6874 O   0  0  0  0  0  0  0  0  0  0  0  0
    3.4518   10.0914   22.4745 H   0  0  0  0  0  0  0  0  0  0  0  0
    3.9288   15.5657   24.4388 C   0  0  0  0  0  0  0  0  0  0  0  0
    3.9279   16.2756   23.0643 C   0  0  0  0  0  0  0  0  0  0  0  0
    5.1775   16.0209   22.2917 O   0  0  0  0  0  0  0  0  0  0  0  0
    5.9384   16.3652   22.7851 H   0  0  0  0  0  0  0  0  0  0  0  0
  1  2  1  0  0  0
  2  3  1  0  0  0
  2  9  1  0  0  0
  3  4  1  0  0  0
  3  5  1  0  0  0
  5  6  1  0  0  0
  6 13  1  0  0  0
  6  7  1  0  0  0
  6  8  1  0  0  0
 13 14  2  0  0  0
 13 15  1  0  0  0
  8  9  2  0  0  0
  9 17  1  0  0  0
 17 18  1  0  0  0
 18 19  1  0  0  0
  1 10  1  0  0  0
  4 11  1  0  0  0
 15 16  1  0  0  0
  7 12  1  0  0  0
 19 20  1  0  0  0
M  END
> <minimizedAffinity>
-8.34222

$$$$
4CIW_XH2_A_1148


 20 20  0  0  0  0  0  0  0  0999 V2000
    3.4191   11.2110   24.4772 O   0  0  0  0  0  0  0  0  0  0  0  0
    2.8025   12.5214   24.4142 C   0  0  0  0  0  0  0  0  0  0  0  0
    3.2724   13.2388   25.7204 C   0  0  0  0  0  0  0  0  0  0  0  0
    2.7155   12.5668   26.8972 O   0  0  0  0  0  0  0  0  0  0  0  0
    2.8419   14.7049   25.6539 C   0  0  0  0  0  0  0  0  0  0  0  0
    3.5705   15.3726   24.4482 C   0  0  0  0  0  0  0  0  0  0  0  0
    5.0119   15.4327   24.7450 O   0  0  0  0  0  0  0  0  0  0  0  0
    3.4964   14.5812   23.2529 C   0  0  0  0  0  0  0  0  0  0  0  0
    3.1402   13.2227   23.1851 C   0  0  0  0  0  0  0  0  0  0  0  0
    3.1710   10.7766   25.3083 H   0  0  0  0  0  0  0  0  0  0  0  0
    1.7467   12.5888   26.8539 H   0  0  0  0  0  0  0  0  0  0  0  0
    5.1549   15.9561   25.5490 H   0  0  0  0  0  0  0  0  0  0  0  0
    3.0444   16.7111   24.2272 C   0  0  0  0  0  0  0  0  0  0  0  0
    2.6626   16.9813   23.0411 O   0  0  0  0  0  0  0  0  0  0  0  0
    2.9853   17.5277   25.2106 O   0  0  0  0  0  0  0  0  0  0  0  0
    3.2841   17.2627   26.0582 H   0  0  0  0  0  0  0  0  0  0  0  0
    3.0766   12.5624   21.9113 C   0  0  0  0  0  0  0  0  0  0  0  0
    2.0694   11.3885   21.9351 C   0  0  0  0  0  0  0  0  0  0  0  0
    2.7446   10.0609   22.0041 O   0  0  0  0  0  0  0  0  0  0  0  0
    3.2993    9.9390   21.2178 H   0  0  0  0  0  0  0  0  0  0  0  0
  1  2  1  0  0  0
  2  3  1  0  0  0
  2  9  1  0  0  0
  3  4  1  0  0  0
  3  5  1  0  0  0
  5  6  1  0  0  0
  6 13  1  0  0  0
  6  7  1  0  0  0
  6  8  1  0  0  0
 13 14  2  0  0  0
 13 15  1  0  0  0
  8  9  2  0  0  0
  9 17  1  0  0  0
 17 18  1  0  0  0
 18 19  1  0  0  0
  1 10  1  0  0  0
  4 11  1  0  0  0
 15 16  1  0  0  0
  7 12  1  0  0  0
 19 20  1  0  0  0
M  END
> <minimizedAffinity>
-7.31822

$$$$
4CIW_XH2_A_1148


 20 20  0  0  0  0  0  0  0  0999 V2000
    3.0068   18.0438   27.7848 O   0  0  0  0  0  0  0  0  0  0  0  0
    2.0883   18.0706   26.6638 C   0  0  0  0  0  0  0  0  0  0  0  0
    1.5846   19.5487   26.6052 C   0  0  0  0  0  0  0  0  0  0  0  0
    0.7998   19.8654   27.8012 O   0  0  0  0  0  0  0  0  0  0  0  0
    0.7633   19.7341   25.3284 C   0  0  0  0  0  0  0  0  0  0  0  0
    1.7016   19.4956   24.1064 C   0  0  0  0  0  0  0  0  0  0  0  0
    2.6949   20.5818   24.0576 O   0  0  0  0  0  0  0  0  0  0  0  0
    2.4950   18.3074   24.2448 C   0  0  0  0  0  0  0  0  0  0  0  0
    2.7120   17.5961   25.4382 C   0  0  0  0  0  0  0  0  0  0  0  0
    2.5554   18.3662   28.5805 H   0  0  0  0  0  0  0  0  0  0  0  0
    0.0348   19.2712   27.8527 H   0  0  0  0  0  0  0  0  0  0  0  0
    2.2391   21.4329   23.9635 H   0  0  0  0  0  0  0  0  0  0  0  0
    0.9224   19.4685   22.8778 C   0  0  0  0  0  0  0  0  0  0  0  0
    0.8862   18.3570   22.2541 O   0  0  0  0  0  0  0  0  0  0  0  0
    0.3212   20.5321   22.4976 O   0  0  0  0  0  0  0  0  0  0  0  0
    0.3907   21.3165   23.0054 H   0  0  0  0  0  0  0  0  0  0  0  0
    3.5067   16.3999   25.4236 C   0  0  0  0  0  0  0  0  0  0  0  0
    3.8010   15.9369   23.9772 C   0  0  0  0  0  0  0  0  0  0  0  0
    3.0549   14.6983   23.6134 O   0  0  0  0  0  0  0  0  0  0  0  0
    3.3242   13.9745   24.2002 H   0  0  0  0  0  0  0  0  0  0  0  0
  1  2  1  0  0  0
  2  3  1  0  0  0
  2  9  1  0  0  0
  3  4  1  0  0  0
  3  5  1  0  0  0
  5  6  1  0  0  0
  6 13  1  0  0  0
  6  7  1  0  0  0
  6  8  1  0  0  0
 13 14  2  0  0  0
 13 15  1  0  0  0
  8  9  2  0  0  0
  9 17  1  0  0  0
 17 18  1  0  0  0
 18 19  1  0  0  0
  1 10  1  0  0  0
  4 11  1  0  0  0
 15 16  1  0  0  0
  7 12  1  0  0  0
 19 20  1  0  0  0
M  END
> <minimizedAffinity>
-7.22551

$$$$
4CIW_XH2_A_1148


 20 20  0  0  0  0  0  0  0  0999 V2000
    3.0364   17.6431   27.5789 O   0  0  0  0  0  0  0  0  0  0  0  0
    2.1115   17.9108   26.4953 C   0  0  0  0  0  0  0  0  0  0  0  0
    1.6566   19.3881   26.7245 C   0  0  0  0  0  0  0  0  0  0  0  0
    0.8910   19.4964   27.9690 O   0  0  0  0  0  0  0  0  0  0  0  0
    0.8331   19.8381   25.5168 C   0  0  0  0  0  0  0  0  0  0  0  0
    1.7545   19.8068   24.2595 C   0  0  0  0  0  0  0  0  0  0  0  0
    2.7829   20.8510   24.4046 O   0  0  0  0  0  0  0  0  0  0  0  0
    2.5092   18.5898   24.1599 C   0  0  0  0  0  0  0  0  0  0  0  0
    2.7108   17.6585   25.1939 C   0  0  0  0  0  0  0  0  0  0  0  0
    2.6014   17.8225   28.4271 H   0  0  0  0  0  0  0  0  0  0  0  0
    0.1072   18.9273   27.9169 H   0  0  0  0  0  0  0  0  0  0  0  0
    2.3548   21.7182   24.4795 H   0  0  0  0  0  0  0  0  0  0  0  0
    0.9664   20.0377   23.0584 C   0  0  0  0  0  0  0  0  0  0  0  0
    0.6051   21.2409   22.8404 O   0  0  0  0  0  0  0  0  0  0  0  0
    0.6883   19.0486   22.2958 O   0  0  0  0  0  0  0  0  0  0  0  0
    0.9865   18.1883   22.5168 H   0  0  0  0  0  0  0  0  0  0  0  0
    3.4653   16.4626   24.9426 C   0  0  0  0  0  0  0  0  0  0  0  0
    3.3395   16.0171   23.4664 C   0  0  0  0  0  0  0  0  0  0  0  0
    4.6483   16.0377   22.7525 O   0  0  0  0  0  0  0  0  0  0  0  0
    4.9977   16.9426   22.7439 H   0  0  0  0  0  0  0  0  0  0  0  0
  1  2  1  0  0  0
  2  3  1  0  0  0
  2  9  1  0  0  0
  3  4  1  0  0  0
  3  5  1  0  0  0
  5  6  1  0  0  0
  6 13  1  0  0  0
  6  7  1  0  0  0
  6  8  1  0  0  0
 13 14  2  0  0  0
 13 15  1  0  0  0
  8  9  2  0  0  0
  9 17  1  0  0  0
 17 18  1  0  0  0
 18 19  1  0  0  0
  1 10  1  0  0  0
  4 11  1  0  0  0
 15 16  1  0  0  0
  7 12  1  0  0  0
 19 20  1  0  0  0
M  END
> <minimizedAffinity>
-6.40758

$$$$
