3V2N_MYR_A_1


 17 16  0  0  0  0  0  0  0  0999 V2000
    3.0198    0.2397    7.0710 C   0  0  0  0  0  0  0  0  0  0  0  0
    2.2026    0.7940    8.2283 C   0  0  0  0  0  0  0  0  0  0  0  0
    0.7839    0.2569    8.2804 C   0  0  0  0  0  0  0  0  0  0  0  0
    0.6470   -0.9631    9.1744 C   0  0  0  0  0  0  0  0  0  0  0  0
    1.2616   -0.7472   10.5444 C   0  0  0  0  0  0  0  0  0  0  0  0
    0.3568   -0.0543   11.5437 C   0  0  0  0  0  0  0  0  0  0  0  0
   -0.6547   -0.6499   11.9284 O   0  0  0  0  0  0  0  0  0  0  0  0
    0.6293    1.0856   11.9597 O   0  0  0  0  0  0  0  0  0  0  0  0
    1.4009    1.5228   11.6571 H   0  0  0  0  0  0  0  0  0  0  0  0
    4.4129   -0.1941    7.5321 C   0  0  0  0  0  0  0  0  0  0  0  0
    5.3580   -0.3769    6.3355 C   0  0  0  0  0  0  0  0  0  0  0  0
    4.5931   -0.5889    5.0477 C   0  0  0  0  0  0  0  0  0  0  0  0
    5.0295    0.3024    3.9122 C   0  0  0  0  0  0  0  0  0  0  0  0
    6.2758   -0.1981    3.2014 C   0  0  0  0  0  0  0  0  0  0  0  0
    7.4751    0.6687    3.5902 C   0  0  0  0  0  0  0  0  0  0  0  0
    8.6568    0.3753    2.6735 C   0  0  0  0  0  0  0  0  0  0  0  0
    8.3345   -0.7219    1.6638 C   0  0  0  0  0  0  0  0  0  0  0  0
  6  7  2  0  0  0
  6  8  1  0  0  0
  6  5  1  0  0  0
  5  4  1  0  0  0
  4  3  1  0  0  0
  3  2  1  0  0  0
  2  1  1  0  0  0
  1 10  1  0  0  0
 10 11  1  0  0  0
 11 12  1  0  0  0
 12 13  1  0  0  0
 13 14  1  0  0  0
 14 15  1  0  0  0
 15 16  1  0  0  0
 16 17  1  0  0  0
  8  9  1  0  0  0
M  END
> <minimizedAffinity>
-6.50370

$$$$
3V2N_MYR_A_1


 17 16  0  0  0  0  0  0  0  0999 V2000
    3.9354    0.3607    6.3353 C   0  0  0  0  0  0  0  0  0  0  0  0
    3.6700    0.6528    7.8044 C   0  0  0  0  0  0  0  0  0  0  0  0
    2.1978    0.8237    8.1321 C   0  0  0  0  0  0  0  0  0  0  0  0
    1.9254    0.8560    9.6258 C   0  0  0  0  0  0  0  0  0  0  0  0
    0.7001    0.0473   10.0072 C   0  0  0  0  0  0  0  0  0  0  0  0
    0.2770    0.1816   11.4564 C   0  0  0  0  0  0  0  0  0  0  0  0
   -0.5755   -0.5992   11.8918 O   0  0  0  0  0  0  0  0  0  0  0  0
    0.7765    1.0589   12.1827 O   0  0  0  0  0  0  0  0  0  0  0  0
    1.4220    1.6427   11.8358 H   0  0  0  0  0  0  0  0  0  0  0  0
    5.1350    1.1576    5.8181 C   0  0  0  0  0  0  0  0  0  0  0  0
    5.0379    1.3790    4.3016 C   0  0  0  0  0  0  0  0  0  0  0  0
    5.0463    0.0691    3.5449 C   0  0  0  0  0  0  0  0  0  0  0  0
    6.3464   -0.6902    3.6319 C   0  0  0  0  0  0  0  0  0  0  0  0
    7.5468    0.1209    3.1736 C   0  0  0  0  0  0  0  0  0  0  0  0
    8.1880   -0.5486    1.9564 C   0  0  0  0  0  0  0  0  0  0  0  0
    9.6764   -0.2257    1.9004 C   0  0  0  0  0  0  0  0  0  0  0  0
    9.9726    1.1818    2.4087 C   0  0  0  0  0  0  0  0  0  0  0  0
  6  7  2  0  0  0
  6  8  1  0  0  0
  6  5  1  0  0  0
  5  4  1  0  0  0
  4  3  1  0  0  0
  3  2  1  0  0  0
  2  1  1  0  0  0
  1 10  1  0  0  0
 10 11  1  0  0  0
 11 12  1  0  0  0
 12 13  1  0  0  0
 13 14  1  0  0  0
 14 15  1  0  0  0
 15 16  1  0  0  0
 16 17  1  0  0  0
  8  9  1  0  0  0
M  END
> <minimizedAffinity>
-6.38996

$$$$
3V2N_MYR_A_1


 17 16  0  0  0  0  0  0  0  0999 V2000
    9.9688   -0.4437    1.3749 C   0  0  0  0  0  0  0  0  0  0  0  0
    9.9415    0.0738   -0.0554 C   0  0  0  0  0  0  0  0  0  0  0  0
   11.0499    1.0642   -0.3627 C   0  0  0  0  0  0  0  0  0  0  0  0
   12.2029    0.4405   -1.1295 C   0  0  0  0  0  0  0  0  0  0  0  0
   13.0607    1.4784   -1.8281 C   0  0  0  0  0  0  0  0  0  0  0  0
   12.2850    2.5285   -2.5981 C   0  0  0  0  0  0  0  0  0  0  0  0
   11.6563    2.1737   -3.6005 O   0  0  0  0  0  0  0  0  0  0  0  0
   12.2874    3.7156   -2.2273 O   0  0  0  0  0  0  0  0  0  0  0  0
   12.7699    3.9672   -1.4645 H   0  0  0  0  0  0  0  0  0  0  0  0
    9.8491    0.7017    2.3826 C   0  0  0  0  0  0  0  0  0  0  0  0
    8.5707    0.5662    3.2225 C   0  0  0  0  0  0  0  0  0  0  0  0
    7.5430   -0.3074    2.5375 C   0  0  0  0  0  0  0  0  0  0  0  0
    6.1721   -0.2619    3.1644 C   0  0  0  0  0  0  0  0  0  0  0  0
    5.8312    1.0921    3.7640 C   0  0  0  0  0  0  0  0  0  0  0  0
    4.7811    0.9202    4.8635 C   0  0  0  0  0  0  0  0  0  0  0  0
    5.4220    1.0911    6.2356 C   0  0  0  0  0  0  0  0  0  0  0  0
    6.2627   -0.1207    6.6256 C   0  0  0  0  0  0  0  0  0  0  0  0
  6  7  2  0  0  0
  6  8  1  0  0  0
  6  5  1  0  0  0
  5  4  1  0  0  0
  4  3  1  0  0  0
  3  2  1  0  0  0
  2  1  1  0  0  0
  1 10  1  0  0  0
 10 11  1  0  0  0
 11 12  1  0  0  0
 12 13  1  0  0  0
 13 14  1  0  0  0
 14 15  1  0  0  0
 15 16  1  0  0  0
 16 17  1  0  0  0
  8  9  1  0  0  0
M  END
> <minimizedAffinity>
-5.84623

$$$$
3V2N_MYR_A_1


 17 16  0  0  0  0  0  0  0  0999 V2000
    9.4030   -0.8919    0.7846 C   0  0  0  0  0  0  0  0  0  0  0  0
    9.7633    0.3904    0.0497 C   0  0  0  0  0  0  0  0  0  0  0  0
   11.2556    0.5673   -0.1644 C   0  0  0  0  0  0  0  0  0  0  0  0
   11.6036    0.9777   -1.5846 C   0  0  0  0  0  0  0  0  0  0  0  0
   12.2863   -0.1353   -2.3567 C   0  0  0  0  0  0  0  0  0  0  0  0
   13.6861   -0.4708   -1.8820 C   0  0  0  0  0  0  0  0  0  0  0  0
   14.4566    0.4606   -1.6276 O   0  0  0  0  0  0  0  0  0  0  0  0
   14.0450   -1.6549   -1.7566 O   0  0  0  0  0  0  0  0  0  0  0  0
   13.4473   -2.3490   -1.9541 H   0  0  0  0  0  0  0  0  0  0  0  0
    8.2141   -0.6786    1.7241 C   0  0  0  0  0  0  0  0  0  0  0  0
    8.3800    0.6121    2.5395 C   0  0  0  0  0  0  0  0  0  0  0  0
    7.5352    0.5918    3.7943 C   0  0  0  0  0  0  0  0  0  0  0  0
    6.1127    0.1401    3.5781 C   0  0  0  0  0  0  0  0  0  0  0  0
    5.0878    1.0517    4.2319 C   0  0  0  0  0  0  0  0  0  0  0  0
    5.5474    1.4154    5.6452 C   0  0  0  0  0  0  0  0  0  0  0  0
    5.0680    0.3666    6.6416 C   0  0  0  0  0  0  0  0  0  0  0  0
    3.5464    0.3348    6.7459 C   0  0  0  0  0  0  0  0  0  0  0  0
  6  7  2  0  0  0
  6  8  1  0  0  0
  6  5  1  0  0  0
  5  4  1  0  0  0
  4  3  1  0  0  0
  3  2  1  0  0  0
  2  1  1  0  0  0
  1 10  1  0  0  0
 10 11  1  0  0  0
 11 12  1  0  0  0
 12 13  1  0  0  0
 13 14  1  0  0  0
 14 15  1  0  0  0
 15 16  1  0  0  0
 16 17  1  0  0  0
  8  9  1  0  0  0
M  END
> <minimizedAffinity>
-5.79244

$$$$
3V2N_MYR_A_1


 17 16  0  0  0  0  0  0  0  0999 V2000
    5.6323    1.1756    5.6301 C   0  0  0  0  0  0  0  0  0  0  0  0
    4.8120    0.8409    4.3934 C   0  0  0  0  0  0  0  0  0  0  0  0
    5.6200    0.1816    3.2905 C   0  0  0  0  0  0  0  0  0  0  0  0
    7.0287    0.7378    3.1777 C   0  0  0  0  0  0  0  0  0  0  0  0
    7.9772   -0.2262    2.4907 C   0  0  0  0  0  0  0  0  0  0  0  0
    9.4245    0.2227    2.4580 C   0  0  0  0  0  0  0  0  0  0  0  0
   10.2586   -0.5285    1.9422 O   0  0  0  0  0  0  0  0  0  0  0  0
    9.7583    1.3186    2.9419 O   0  0  0  0  0  0  0  0  0  0  0  0
    9.1123    1.8759    3.3293 H   0  0  0  0  0  0  0  0  0  0  0  0
    5.5657    0.0484    6.6629 C   0  0  0  0  0  0  0  0  0  0  0  0
    4.2710   -0.7633    6.5109 C   0  0  0  0  0  0  0  0  0  0  0  0
    3.5190   -0.8646    7.8196 C   0  0  0  0  0  0  0  0  0  0  0  0
    3.8786    0.1991    8.8265 C   0  0  0  0  0  0  0  0  0  0  0  0
    3.4005   -0.1201   10.2331 C   0  0  0  0  0  0  0  0  0  0  0  0
    2.4093   -1.2848   10.1896 C   0  0  0  0  0  0  0  0  0  0  0  0
    1.0636   -0.8532   10.7601 C   0  0  0  0  0  0  0  0  0  0  0  0
    1.1485    0.5028   11.4539 C   0  0  0  0  0  0  0  0  0  0  0  0
  6  7  2  0  0  0
  6  8  1  0  0  0
  6  5  1  0  0  0
  5  4  1  0  0  0
  4  3  1  0  0  0
  3  2  1  0  0  0
  2  1  1  0  0  0
  1 10  1  0  0  0
 10 11  1  0  0  0
 11 12  1  0  0  0
 12 13  1  0  0  0
 13 14  1  0  0  0
 14 15  1  0  0  0
 15 16  1  0  0  0
 16 17  1  0  0  0
  8  9  1  0  0  0
M  END
> <minimizedAffinity>
-5.70376

$$$$
3V2N_MYR_A_1


 17 16  0  0  0  0  0  0  0  0999 V2000
    6.7945   -0.6583    3.5010 C   0  0  0  0  0  0  0  0  0  0  0  0
    7.8025   -0.1799    2.4669 C   0  0  0  0  0  0  0  0  0  0  0  0
    8.4804    1.1258    2.8403 C   0  0  0  0  0  0  0  0  0  0  0  0
    9.9765    1.1099    2.5793 C   0  0  0  0  0  0  0  0  0  0  0  0
   10.3793    0.0311    1.5920 C   0  0  0  0  0  0  0  0  0  0  0  0
   10.6208    0.5226    0.1787 C   0  0  0  0  0  0  0  0  0  0  0  0
    9.6439    0.8558   -0.4999 O   0  0  0  0  0  0  0  0  0  0  0  0
   11.7746    0.5838   -0.2815 O   0  0  0  0  0  0  0  0  0  0  0  0
   12.5042    0.3270    0.2474 H   0  0  0  0  0  0  0  0  0  0  0  0
    5.4310    0.0055    3.2963 C   0  0  0  0  0  0  0  0  0  0  0  0
    4.4637   -0.3595    4.4318 C   0  0  0  0  0  0  0  0  0  0  0  0
    4.3223    0.7695    5.4287 C   0  0  0  0  0  0  0  0  0  0  0  0
    4.7633    0.4213    6.8282 C   0  0  0  0  0  0  0  0  0  0  0  0
    3.6547   -0.1828    7.6738 C   0  0  0  0  0  0  0  0  0  0  0  0
    3.3799    0.7144    8.8823 C   0  0  0  0  0  0  0  0  0  0  0  0
    1.9226    1.1604    8.8871 C   0  0  0  0  0  0  0  0  0  0  0  0
    1.1227    0.5024    7.7671 C   0  0  0  0  0  0  0  0  0  0  0  0
  6  7  2  0  0  0
  6  8  1  0  0  0
  6  5  1  0  0  0
  5  4  1  0  0  0
  4  3  1  0  0  0
  3  2  1  0  0  0
  2  1  1  0  0  0
  1 10  1  0  0  0
 10 11  1  0  0  0
 11 12  1  0  0  0
 12 13  1  0  0  0
 13 14  1  0  0  0
 14 15  1  0  0  0
 15 16  1  0  0  0
 16 17  1  0  0  0
  8  9  1  0  0  0
M  END
> <minimizedAffinity>
-5.64677

$$$$
3V2N_MYR_A_1


 17 16  0  0  0  0  0  0  0  0999 V2000
    5.4555    1.1215    4.2090 C   0  0  0  0  0  0  0  0  0  0  0  0
    5.8338   -0.2621    3.7024 C   0  0  0  0  0  0  0  0  0  0  0  0
    7.0086   -0.2552    2.7414 C   0  0  0  0  0  0  0  0  0  0  0  0
    8.1745    0.5803    3.2403 C   0  0  0  0  0  0  0  0  0  0  0  0
    8.9306    1.2509    2.1091 C   0  0  0  0  0  0  0  0  0  0  0  0
    9.6475    0.2985    1.1728 C   0  0  0  0  0  0  0  0  0  0  0  0
   10.3623   -0.5798    1.6663 O   0  0  0  0  0  0  0  0  0  0  0  0
    9.5178    0.4052   -0.0594 O   0  0  0  0  0  0  0  0  0  0  0  0
    8.9715    1.0774   -0.4166 H   0  0  0  0  0  0  0  0  0  0  0  0
    5.5943    1.2134    5.7302 C   0  0  0  0  0  0  0  0  0  0  0  0
    5.6120   -0.1835    6.3679 C   0  0  0  0  0  0  0  0  0  0  0  0
    4.2440   -0.5823    6.8760 C   0  0  0  0  0  0  0  0  0  0  0  0
    3.4063    0.5689    7.3733 C   0  0  0  0  0  0  0  0  0  0  0  0
    1.9189    0.2597    7.4032 C   0  0  0  0  0  0  0  0  0  0  0  0
    1.7062   -1.2243    7.7092 C   0  0  0  0  0  0  0  0  0  0  0  0
    1.3601   -1.4146    9.1811 C   0  0  0  0  0  0  0  0  0  0  0  0
    2.5901   -1.7609   10.0145 C   0  0  0  0  0  0  0  0  0  0  0  0
  6  7  2  0  0  0
  6  8  1  0  0  0
  6  5  1  0  0  0
  5  4  1  0  0  0
  4  3  1  0  0  0
  3  2  1  0  0  0
  2  1  1  0  0  0
  1 10  1  0  0  0
 10 11  1  0  0  0
 11 12  1  0  0  0
 12 13  1  0  0  0
 13 14  1  0  0  0
 14 15  1  0  0  0
 15 16  1  0  0  0
 16 17  1  0  0  0
  8  9  1  0  0  0
M  END
> <minimizedAffinity>
-5.63699

$$$$
3V2N_MYR_A_1


 17 16  0  0  0  0  0  0  0  0999 V2000
    5.1377   -0.9563    5.8884 C   0  0  0  0  0  0  0  0  0  0  0  0
    3.8600   -0.3030    6.3934 C   0  0  0  0  0  0  0  0  0  0  0  0
    4.0950    0.7201    7.4897 C   0  0  0  0  0  0  0  0  0  0  0  0
    2.8932    0.8947    8.4017 C   0  0  0  0  0  0  0  0  0  0  0  0
    1.6062    0.4123    7.7600 C   0  0  0  0  0  0  0  0  0  0  0  0
    0.8603   -0.6444    8.5503 C   0  0  0  0  0  0  0  0  0  0  0  0
    1.2367   -1.8174    8.4594 O   0  0  0  0  0  0  0  0  0  0  0  0
   -0.1065   -0.3329    9.2679 O   0  0  0  0  0  0  0  0  0  0  0  0
   -0.3784    0.5619    9.3251 H   0  0  0  0  0  0  0  0  0  0  0  0
    5.0766   -1.2030    4.3794 C   0  0  0  0  0  0  0  0  0  0  0  0
    5.5865    0.0177    3.5996 C   0  0  0  0  0  0  0  0  0  0  0  0
    6.9164   -0.2608    2.9344 C   0  0  0  0  0  0  0  0  0  0  0  0
    7.9978    0.7366    3.2664 C   0  0  0  0  0  0  0  0  0  0  0  0
    9.3384    0.4004    2.6348 C   0  0  0  0  0  0  0  0  0  0  0  0
    9.1455   -0.6575    1.5464 C   0  0  0  0  0  0  0  0  0  0  0  0
    9.4106   -0.0541    0.1722 C   0  0  0  0  0  0  0  0  0  0  0  0
   10.7323    0.7065    0.1303 C   0  0  0  0  0  0  0  0  0  0  0  0
  6  7  2  0  0  0
  6  8  1  0  0  0
  6  5  1  0  0  0
  5  4  1  0  0  0
  4  3  1  0  0  0
  3  2  1  0  0  0
  2  1  1  0  0  0
  1 10  1  0  0  0
 10 11  1  0  0  0
 11 12  1  0  0  0
 12 13  1  0  0  0
 13 14  1  0  0  0
 14 15  1  0  0  0
 15 16  1  0  0  0
 16 17  1  0  0  0
  8  9  1  0  0  0
M  END
> <minimizedAffinity>
-5.63112

$$$$
3V2N_MYR_A_1


 17 16  0  0  0  0  0  0  0  0999 V2000
    4.8421   -0.0238    3.5694 C   0  0  0  0  0  0  0  0  0  0  0  0
    4.3283   -0.8424    4.7442 C   0  0  0  0  0  0  0  0  0  0  0  0
    4.6428   -0.2267    6.0954 C   0  0  0  0  0  0  0  0  0  0  0  0
    3.4110    0.3191    6.7965 C   0  0  0  0  0  0  0  0  0  0  0  0
    3.0264   -0.5027    8.0121 C   0  0  0  0  0  0  0  0  0  0  0  0
    2.9469    0.2799    9.3077 C   0  0  0  0  0  0  0  0  0  0  0  0
    3.7430    0.0003   10.2099 O   0  0  0  0  0  0  0  0  0  0  0  0
    2.0982    1.1771    9.4540 O   0  0  0  0  0  0  0  0  0  0  0  0
    1.5021    1.3759    8.7589 H   0  0  0  0  0  0  0  0  0  0  0  0
    5.8901    0.9965    4.0193 C   0  0  0  0  0  0  0  0  0  0  0  0
    7.3078    0.5232    3.6667 C   0  0  0  0  0  0  0  0  0  0  0  0
    7.3000   -0.4441    2.5035 C   0  0  0  0  0  0  0  0  0  0  0  0
    8.6159   -0.5492    1.7743 C   0  0  0  0  0  0  0  0  0  0  0  0
    9.7578    0.1495    2.4933 C   0  0  0  0  0  0  0  0  0  0  0  0
   10.7521    0.7009    1.4694 C   0  0  0  0  0  0  0  0  0  0  0  0
   10.0470    0.9800    0.1475 C   0  0  0  0  0  0  0  0  0  0  0  0
   10.9535    0.7084   -1.0491 C   0  0  0  0  0  0  0  0  0  0  0  0
  6  7  2  0  0  0
  6  8  1  0  0  0
  6  5  1  0  0  0
  5  4  1  0  0  0
  4  3  1  0  0  0
  3  2  1  0  0  0
  2  1  1  0  0  0
  1 10  1  0  0  0
 10 11  1  0  0  0
 11 12  1  0  0  0
 12 13  1  0  0  0
 13 14  1  0  0  0
 14 15  1  0  0  0
 15 16  1  0  0  0
 16 17  1  0  0  0
  8  9  1  0  0  0
M  END
> <minimizedAffinity>
-5.58288

$$$$
3V2N_MYR_A_1


 17 16  0  0  0  0  0  0  0  0999 V2000
    6.1707   -0.3544    6.1913 C   0  0  0  0  0  0  0  0  0  0  0  0
    6.1335    0.7650    5.1618 C   0  0  0  0  0  0  0  0  0  0  0  0
    6.1673    0.2703    3.7272 C   0  0  0  0  0  0  0  0  0  0  0  0
    7.4903    0.5520    3.0367 C   0  0  0  0  0  0  0  0  0  0  0  0
    7.9084   -0.5726    2.1085 C   0  0  0  0  0  0  0  0  0  0  0  0
    9.2575   -0.3794    1.4452 C   0  0  0  0  0  0  0  0  0  0  0  0
    9.2829   -0.0836    0.2461 O   0  0  0  0  0  0  0  0  0  0  0  0
   10.3083   -0.5192    2.0956 O   0  0  0  0  0  0  0  0  0  0  0  0
   10.2703   -0.7437    3.0045 H   0  0  0  0  0  0  0  0  0  0  0  0
    4.7898   -0.5885    6.8076 C   0  0  0  0  0  0  0  0  0  0  0  0
    4.5528    0.3475    8.0018 C   0  0  0  0  0  0  0  0  0  0  0  0
    4.4296   -0.4224    9.2983 C   0  0  0  0  0  0  0  0  0  0  0  0
    3.2399   -0.0347   10.1401 C   0  0  0  0  0  0  0  0  0  0  0  0
    2.3337    0.9820    9.4662 C   0  0  0  0  0  0  0  0  0  0  0  0
    0.9880    0.3339    9.1340 C   0  0  0  0  0  0  0  0  0  0  0  0
    1.0072   -0.2231    7.7155 C   0  0  0  0  0  0  0  0  0  0  0  0
    1.3930   -1.6988    7.6891 C   0  0  0  0  0  0  0  0  0  0  0  0
  6  7  2  0  0  0
  6  8  1  0  0  0
  6  5  1  0  0  0
  5  4  1  0  0  0
  4  3  1  0  0  0
  3  2  1  0  0  0
  2  1  1  0  0  0
  1 10  1  0  0  0
 10 11  1  0  0  0
 11 12  1  0  0  0
 12 13  1  0  0  0
 13 14  1  0  0  0
 14 15  1  0  0  0
 15 16  1  0  0  0
 16 17  1  0  0  0
  8  9  1  0  0  0
M  END
> <minimizedAffinity>
-5.39410

$$$$
