1F8C_4AM_A_4


 27 27  0  0  0  0  0  0  0  0999 V2000
   25.1389   16.1387   61.6341 C   0  0  0  0  0  0  0  0  0  0  0  0
   24.1469   16.3083   62.5909 C   0  0  0  0  0  0  0  0  0  0  0  0
   24.3009   17.2740   63.8022 C   0  0  0  0  0  0  0  0  0  0  0  0
   22.9801   17.8583   64.0452 N   0  0  0  0  0  0  0  0  0  0  0  0
   25.3021   18.3888   63.4757 C   0  0  0  0  0  0  0  0  0  0  0  0
   26.5934   17.7641   62.8558 C   0  0  0  0  0  0  0  0  0  0  0  0
   26.2502   17.0052   61.6346 O   0  0  0  0  0  0  0  0  0  0  0  0
   22.6669   18.3506   63.2085 H   0  0  0  0  0  0  0  0  0  0  0  0
   23.0365   18.5141   64.8244 H   0  0  0  0  0  0  0  0  0  0  0  0
   25.6353   19.0975   64.7248 N   0  0  0  0  0  0  0  0  0  0  0  0
   25.0493   20.2447   65.0469 C   0  0  0  0  0  0  0  0  0  0  0  0
   24.2180   20.7966   64.3270 O   0  0  0  0  0  0  0  0  0  0  0  0
   25.4636   20.8665   66.3592 C   0  0  0  0  0  0  0  0  0  0  0  0
   26.3066   18.7119   65.3331 H   0  0  0  0  0  0  0  0  0  0  0  0
   25.0853   15.1811   60.6236 C   0  0  0  0  0  0  0  0  0  0  0  0
   26.0467   15.1208   59.8170 O   0  0  0  0  0  0  0  0  0  0  0  0
   24.1006   14.4134   60.5392 O   0  0  0  0  0  0  0  0  0  0  0  0
   23.3984   14.4826   61.1557 H   0  0  0  0  0  0  0  0  0  0  0  0
   27.6707   18.8425   62.4374 C   0  0  0  0  0  0  0  0  0  0  0  0
   26.9761   20.0721   62.1113 O   0  0  0  0  0  0  0  0  0  0  0  0
   26.3509   19.9083   61.3880 H   0  0  0  0  0  0  0  0  0  0  0  0
   28.4380   18.3366   61.2036 C   0  0  0  0  0  0  0  0  0  0  0  0
   29.7833   18.6832   61.3173 O   0  0  0  0  0  0  0  0  0  0  0  0
   29.8675   19.6493   61.3393 H   0  0  0  0  0  0  0  0  0  0  0  0
   27.8850   18.8935   59.8806 C   0  0  0  0  0  0  0  0  0  0  0  0
   27.1411   17.9448   59.1546 O   0  0  0  0  0  0  0  0  0  0  0  0
   27.7127   17.1973   58.9190 H   0  0  0  0  0  0  0  0  0  0  0  0
 15 16  2  0  0  0
 15 17  1  0  0  0
 15  1  1  0  0  0
  1  2  2  0  0  0
  1  7  1  0  0  0
  2  3  1  0  0  0
  3  4  1  0  0  0
  3  5  1  0  0  0
  5 10  1  0  0  0
  5  6  1  0  0  0
 10 11  1  0  0  0
 11 12  2  0  0  0
 11 13  1  0  0  0
  6  7  1  0  0  0
  6 19  1  0  0  0
 19 20  1  0  0  0
 19 22  1  0  0  0
 22 23  1  0  0  0
 22 25  1  0  0  0
 25 26  1  0  0  0
 17 18  1  0  0  0
  4  8  1  0  0  0
  4  9  1  0  0  0
 10 14  1  0  0  0
 20 21  1  0  0  0
 23 24  1  0  0  0
 26 27  1  0  0  0
M  END
> <minimizedAffinity>
-7.86602

$$$$
1F8C_4AM_A_4


 27 27  0  0  0  0  0  0  0  0999 V2000
   28.1175   19.5010   62.8012 C   0  0  0  0  0  0  0  0  0  0  0  0
   28.2251   18.9122   61.5481 C   0  0  0  0  0  0  0  0  0  0  0  0
   27.3990   17.6601   61.1318 C   0  0  0  0  0  0  0  0  0  0  0  0
   27.0677   17.8265   59.7149 N   0  0  0  0  0  0  0  0  0  0  0  0
   26.1069   17.5724   61.9532 C   0  0  0  0  0  0  0  0  0  0  0  0
   26.4375   17.7736   63.4672 C   0  0  0  0  0  0  0  0  0  0  0  0
   27.0901   19.0842   63.6710 O   0  0  0  0  0  0  0  0  0  0  0  0
   26.5357   18.6876   59.5890 H   0  0  0  0  0  0  0  0  0  0  0  0
   26.5093   17.0328   59.4008 H   0  0  0  0  0  0  0  0  0  0  0  0
   25.5084   16.2419   61.7410 N   0  0  0  0  0  0  0  0  0  0  0  0
   24.3060   16.1031   61.1951 C   0  0  0  0  0  0  0  0  0  0  0  0
   23.6114   17.0600   60.8545 O   0  0  0  0  0  0  0  0  0  0  0  0
   23.8076   14.6890   61.0160 C   0  0  0  0  0  0  0  0  0  0  0  0
   26.0110   15.4391   62.0098 H   0  0  0  0  0  0  0  0  0  0  0  0
   28.9435   20.5305   63.2472 C   0  0  0  0  0  0  0  0  0  0  0  0
   28.6787   21.0609   64.3549 O   0  0  0  0  0  0  0  0  0  0  0  0
   29.9150   20.9009   62.5507 O   0  0  0  0  0  0  0  0  0  0  0  0
   30.0873   20.4860   61.7284 H   0  0  0  0  0  0  0  0  0  0  0  0
   25.1579   17.7499   64.3949 C   0  0  0  0  0  0  0  0  0  0  0  0
   24.0165   18.1593   63.6008 O   0  0  0  0  0  0  0  0  0  0  0  0
   24.1713   19.0490   63.2468 H   0  0  0  0  0  0  0  0  0  0  0  0
   25.3607   18.7349   65.5592 C   0  0  0  0  0  0  0  0  0  0  0  0
   25.2325   18.0571   66.7704 O   0  0  0  0  0  0  0  0  0  0  0  0
   24.3356   17.6953   66.8451 H   0  0  0  0  0  0  0  0  0  0  0  0
   24.3688   19.9105   65.5330 C   0  0  0  0  0  0  0  0  0  0  0  0
   24.6027   20.8016   64.4692 O   0  0  0  0  0  0  0  0  0  0  0  0
   25.4861   21.1912   64.5621 H   0  0  0  0  0  0  0  0  0  0  0  0
 15 16  2  0  0  0
 15 17  1  0  0  0
 15  1  1  0  0  0
  1  2  2  0  0  0
  1  7  1  0  0  0
  2  3  1  0  0  0
  3  4  1  0  0  0
  3  5  1  0  0  0
  5 10  1  0  0  0
  5  6  1  0  0  0
 10 11  1  0  0  0
 11 12  2  0  0  0
 11 13  1  0  0  0
  6  7  1  0  0  0
  6 19  1  0  0  0
 19 20  1  0  0  0
 19 22  1  0  0  0
 22 23  1  0  0  0
 22 25  1  0  0  0
 25 26  1  0  0  0
 17 18  1  0  0  0
  4  8  1  0  0  0
  4  9  1  0  0  0
 10 14  1  0  0  0
 20 21  1  0  0  0
 23 24  1  0  0  0
 26 27  1  0  0  0
M  END
> <minimizedAffinity>
-7.75821

$$$$
1F8C_4AM_A_4


 27 27  0  0  0  0  0  0  0  0999 V2000
   25.5790   16.5055   61.3501 C   0  0  0  0  0  0  0  0  0  0  0  0
   24.6816   16.3744   62.4017 C   0  0  0  0  0  0  0  0  0  0  0  0
   24.7178   17.2911   63.6595 C   0  0  0  0  0  0  0  0  0  0  0  0
   23.3263   17.5101   64.0607 N   0  0  0  0  0  0  0  0  0  0  0  0
   25.3721   18.6368   63.3239 C   0  0  0  0  0  0  0  0  0  0  0  0
   26.7057   18.3885   62.5480 C   0  0  0  0  0  0  0  0  0  0  0  0
   26.4351   17.6242   61.3120 O   0  0  0  0  0  0  0  0  0  0  0  0
   22.8153   17.9448   63.2924 H   0  0  0  0  0  0  0  0  0  0  0  0
   23.2999   18.1224   64.8761 H   0  0  0  0  0  0  0  0  0  0  0  0
   25.6484   19.3488   64.5850 N   0  0  0  0  0  0  0  0  0  0  0  0
   24.8615   20.3290   65.0129 C   0  0  0  0  0  0  0  0  0  0  0  0
   23.8767   20.7183   64.3862 O   0  0  0  0  0  0  0  0  0  0  0  0
   25.2402   20.9711   66.3261 C   0  0  0  0  0  0  0  0  0  0  0  0
   26.4331   19.0920   65.1212 H   0  0  0  0  0  0  0  0  0  0  0  0
   25.6585   15.6129   60.2834 C   0  0  0  0  0  0  0  0  0  0  0  0
   26.3093   15.9644   59.2678 O   0  0  0  0  0  0  0  0  0  0  0  0
   25.0922   14.4992   60.3545 O   0  0  0  0  0  0  0  0  0  0  0  0
   24.6139   14.2652   61.1255 H   0  0  0  0  0  0  0  0  0  0  0  0
   27.4326   19.7226   62.1117 C   0  0  0  0  0  0  0  0  0  0  0  0
   27.7868   19.6069   60.7110 O   0  0  0  0  0  0  0  0  0  0  0  0
   28.3670   18.8396   60.5866 H   0  0  0  0  0  0  0  0  0  0  0  0
   28.7059   19.9026   62.9563 C   0  0  0  0  0  0  0  0  0  0  0  0
   29.3213   21.1073   62.6204 O   0  0  0  0  0  0  0  0  0  0  0  0
   29.5883   21.0851   61.6881 H   0  0  0  0  0  0  0  0  0  0  0  0
   29.7147   18.7551   62.7767 C   0  0  0  0  0  0  0  0  0  0  0  0
   30.4094   18.8221   61.5546 O   0  0  0  0  0  0  0  0  0  0  0  0
   29.7796   18.7500   60.8204 H   0  0  0  0  0  0  0  0  0  0  0  0
 15 16  2  0  0  0
 15 17  1  0  0  0
 15  1  1  0  0  0
  1  2  2  0  0  0
  1  7  1  0  0  0
  2  3  1  0  0  0
  3  4  1  0  0  0
  3  5  1  0  0  0
  5 10  1  0  0  0
  5  6  1  0  0  0
 10 11  1  0  0  0
 11 12  2  0  0  0
 11 13  1  0  0  0
  6  7  1  0  0  0
  6 19  1  0  0  0
 19 20  1  0  0  0
 19 22  1  0  0  0
 22 23  1  0  0  0
 22 25  1  0  0  0
 25 26  1  0  0  0
 17 18  1  0  0  0
  4  8  1  0  0  0
  4  9  1  0  0  0
 10 14  1  0  0  0
 20 21  1  0  0  0
 23 24  1  0  0  0
 26 27  1  0  0  0
M  END
> <minimizedAffinity>
-7.74051

$$$$
1F8C_4AM_A_4


 27 27  0  0  0  0  0  0  0  0999 V2000
   25.3837   16.8715   61.6993 C   0  0  0  0  0  0  0  0  0  0  0  0
   26.1927   15.7466   61.6058 C   0  0  0  0  0  0  0  0  0  0  0  0
   27.7473   15.8260   61.5879 C   0  0  0  0  0  0  0  0  0  0  0  0
   28.2368   14.6573   62.3224 N   0  0  0  0  0  0  0  0  0  0  0  0
   28.2272   17.1060   62.2831 C   0  0  0  0  0  0  0  0  0  0  0  0
   27.4156   18.3274   61.7435 C   0  0  0  0  0  0  0  0  0  0  0  0
   25.9720   18.1198   61.9846 O   0  0  0  0  0  0  0  0  0  0  0  0
   27.8697   14.6754   63.2739 H   0  0  0  0  0  0  0  0  0  0  0  0
   29.2563   14.6761   62.3509 H   0  0  0  0  0  0  0  0  0  0  0  0
   29.6611   17.2859   61.9915 N   0  0  0  0  0  0  0  0  0  0  0  0
   30.5937   16.9626   62.8798 C   0  0  0  0  0  0  0  0  0  0  0  0
   30.3289   16.5186   63.9964 O   0  0  0  0  0  0  0  0  0  0  0  0
   32.0276   17.1790   62.4587 C   0  0  0  0  0  0  0  0  0  0  0  0
   29.9331   17.6535   61.1196 H   0  0  0  0  0  0  0  0  0  0  0  0
   23.9964   16.8408   61.5754 C   0  0  0  0  0  0  0  0  0  0  0  0
   23.5108   16.6250   60.4369 O   0  0  0  0  0  0  0  0  0  0  0  0
   23.2732   17.0244   62.5801 O   0  0  0  0  0  0  0  0  0  0  0  0
   23.6646   17.1831   63.4165 H   0  0  0  0  0  0  0  0  0  0  0  0
   27.8044   19.6926   62.4389 C   0  0  0  0  0  0  0  0  0  0  0  0
   29.1545   20.0354   62.0382 O   0  0  0  0  0  0  0  0  0  0  0  0
   29.7606   19.3262   62.3041 H   0  0  0  0  0  0  0  0  0  0  0  0
   27.7449   19.5157   63.9660 C   0  0  0  0  0  0  0  0  0  0  0  0
   26.5607   20.0663   64.4530 O   0  0  0  0  0  0  0  0  0  0  0  0
   26.5463   21.0182   64.2672 H   0  0  0  0  0  0  0  0  0  0  0  0
   28.9366   20.1614   64.6937 C   0  0  0  0  0  0  0  0  0  0  0  0
   29.0311   21.5473   64.4681 O   0  0  0  0  0  0  0  0  0  0  0  0
   29.1665   21.7123   63.5219 H   0  0  0  0  0  0  0  0  0  0  0  0
 15 16  2  0  0  0
 15 17  1  0  0  0
 15  1  1  0  0  0
  1  2  2  0  0  0
  1  7  1  0  0  0
  2  3  1  0  0  0
  3  4  1  0  0  0
  3  5  1  0  0  0
  5 10  1  0  0  0
  5  6  1  0  0  0
 10 11  1  0  0  0
 11 12  2  0  0  0
 11 13  1  0  0  0
  6  7  1  0  0  0
  6 19  1  0  0  0
 19 20  1  0  0  0
 19 22  1  0  0  0
 22 23  1  0  0  0
 22 25  1  0  0  0
 25 26  1  0  0  0
 17 18  1  0  0  0
  4  8  1  0  0  0
  4  9  1  0  0  0
 10 14  1  0  0  0
 20 21  1  0  0  0
 23 24  1  0  0  0
 26 27  1  0  0  0
M  END
> <minimizedAffinity>
-7.50876

$$$$
1F8C_4AM_A_4


 27 27  0  0  0  0  0  0  0  0999 V2000
   25.0047   18.7769   64.7038 C   0  0  0  0  0  0  0  0  0  0  0  0
   26.1427   19.5581   64.8566 C   0  0  0  0  0  0  0  0  0  0  0  0
   27.5648   19.0610   64.4643 C   0  0  0  0  0  0  0  0  0  0  0  0
   28.2836   20.2202   63.9308 N   0  0  0  0  0  0  0  0  0  0  0  0
   27.4747   17.9736   63.3867 C   0  0  0  0  0  0  0  0  0  0  0  0
   26.4070   16.9123   63.8056 C   0  0  0  0  0  0  0  0  0  0  0  0
   25.0934   17.5646   63.9911 O   0  0  0  0  0  0  0  0  0  0  0  0
   27.7792   20.5921   63.1260 H   0  0  0  0  0  0  0  0  0  0  0  0
   29.2204   19.9368   63.6437 H   0  0  0  0  0  0  0  0  0  0  0  0
   28.7967   17.3339   63.2575 N   0  0  0  0  0  0  0  0  0  0  0  0
   29.6283   17.6563   62.2738 C   0  0  0  0  0  0  0  0  0  0  0  0
   29.3487   18.4814   61.4048 O   0  0  0  0  0  0  0  0  0  0  0  0
   30.9590   16.9429   62.2568 C   0  0  0  0  0  0  0  0  0  0  0  0
   29.0688   16.6531   63.9146 H   0  0  0  0  0  0  0  0  0  0  0  0
   23.7455   19.1414   65.1755 C   0  0  0  0  0  0  0  0  0  0  0  0
   23.2308   20.1963   64.7274 O   0  0  0  0  0  0  0  0  0  0  0  0
   23.1612   18.4260   66.0198 O   0  0  0  0  0  0  0  0  0  0  0  0
   23.5707   17.6446   66.3355 H   0  0  0  0  0  0  0  0  0  0  0  0
   26.2041   15.7716   62.7303 C   0  0  0  0  0  0  0  0  0  0  0  0
   27.3328   14.8661   62.8137 O   0  0  0  0  0  0  0  0  0  0  0  0
   28.1534   15.3562   62.6482 H   0  0  0  0  0  0  0  0  0  0  0  0
   26.1479   16.4038   61.3288 C   0  0  0  0  0  0  0  0  0  0  0  0
   24.8782   16.9347   61.1079 O   0  0  0  0  0  0  0  0  0  0  0  0
   24.2206   16.2222   61.1349 H   0  0  0  0  0  0  0  0  0  0  0  0
   26.4789   15.4069   60.2049 C   0  0  0  0  0  0  0  0  0  0  0  0
   25.6417   14.2757   60.2113 O   0  0  0  0  0  0  0  0  0  0  0  0
   25.7549   13.7944   61.0459 H   0  0  0  0  0  0  0  0  0  0  0  0
 15 16  2  0  0  0
 15 17  1  0  0  0
 15  1  1  0  0  0
  1  2  2  0  0  0
  1  7  1  0  0  0
  2  3  1  0  0  0
  3  4  1  0  0  0
  3  5  1  0  0  0
  5 10  1  0  0  0
  5  6  1  0  0  0
 10 11  1  0  0  0
 11 12  2  0  0  0
 11 13  1  0  0  0
  6  7  1  0  0  0
  6 19  1  0  0  0
 19 20  1  0  0  0
 19 22  1  0  0  0
 22 23  1  0  0  0
 22 25  1  0  0  0
 25 26  1  0  0  0
 17 18  1  0  0  0
  4  8  1  0  0  0
  4  9  1  0  0  0
 10 14  1  0  0  0
 20 21  1  0  0  0
 23 24  1  0  0  0
 26 27  1  0  0  0
M  END
> <minimizedAffinity>
-7.11348

$$$$
1F8C_4AM_A_4


 27 27  0  0  0  0  0  0  0  0999 V2000
   24.2282   18.5357   64.4350 C   0  0  0  0  0  0  0  0  0  0  0  0
   23.6116   17.5017   63.7428 C   0  0  0  0  0  0  0  0  0  0  0  0
   24.3471   16.6539   62.6639 C   0  0  0  0  0  0  0  0  0  0  0  0
   23.8410   15.2851   62.7873 N   0  0  0  0  0  0  0  0  0  0  0  0
   25.8603   16.6650   62.9125 C   0  0  0  0  0  0  0  0  0  0  0  0
   26.3376   18.1332   63.1549 C   0  0  0  0  0  0  0  0  0  0  0  0
   25.6208   18.7120   64.3110 O   0  0  0  0  0  0  0  0  0  0  0  0
   24.0249   14.9382   63.7288 H   0  0  0  0  0  0  0  0  0  0  0  0
   24.3095   14.6867   62.1070 H   0  0  0  0  0  0  0  0  0  0  0  0
   26.5324   16.1067   61.7250 N   0  0  0  0  0  0  0  0  0  0  0  0
   26.9908   14.8605   61.7113 C   0  0  0  0  0  0  0  0  0  0  0  0
   26.9067   14.1060   62.6797 O   0  0  0  0  0  0  0  0  0  0  0  0
   27.6467   14.3991   60.4319 C   0  0  0  0  0  0  0  0  0  0  0  0
   26.6438   16.6698   60.9252 H   0  0  0  0  0  0  0  0  0  0  0  0
   23.5570   19.3981   65.2992 C   0  0  0  0  0  0  0  0  0  0  0  0
   22.5022   19.9423   64.8872 O   0  0  0  0  0  0  0  0  0  0  0  0
   24.0073   19.6107   66.4473 O   0  0  0  0  0  0  0  0  0  0  0  0
   24.7967   19.1900   66.7262 H   0  0  0  0  0  0  0  0  0  0  0  0
   27.8823   18.2440   63.4715 C   0  0  0  0  0  0  0  0  0  0  0  0
   28.0403   19.0217   64.6843 O   0  0  0  0  0  0  0  0  0  0  0  0
   27.6486   19.9001   64.5585 H   0  0  0  0  0  0  0  0  0  0  0  0
   28.5868   18.9550   62.3031 C   0  0  0  0  0  0  0  0  0  0  0  0
   29.1945   18.0084   61.4801 O   0  0  0  0  0  0  0  0  0  0  0  0
   29.8715   17.5294   61.9832 H   0  0  0  0  0  0  0  0  0  0  0  0
   29.6443   19.9716   62.7667 C   0  0  0  0  0  0  0  0  0  0  0  0
   29.1303   21.2748   62.9007 O   0  0  0  0  0  0  0  0  0  0  0  0
   28.8104   21.5864   62.0396 H   0  0  0  0  0  0  0  0  0  0  0  0
 15 16  2  0  0  0
 15 17  1  0  0  0
 15  1  1  0  0  0
  1  2  2  0  0  0
  1  7  1  0  0  0
  2  3  1  0  0  0
  3  4  1  0  0  0
  3  5  1  0  0  0
  5 10  1  0  0  0
  5  6  1  0  0  0
 10 11  1  0  0  0
 11 12  2  0  0  0
 11 13  1  0  0  0
  6  7  1  0  0  0
  6 19  1  0  0  0
 19 20  1  0  0  0
 19 22  1  0  0  0
 22 23  1  0  0  0
 22 25  1  0  0  0
 25 26  1  0  0  0
 17 18  1  0  0  0
  4  8  1  0  0  0
  4  9  1  0  0  0
 10 14  1  0  0  0
 20 21  1  0  0  0
 23 24  1  0  0  0
 26 27  1  0  0  0
M  END
> <minimizedAffinity>
-7.06033

$$$$
1F8C_4AM_A_4


 27 27  0  0  0  0  0  0  0  0999 V2000
   26.8184   17.4028   60.9118 C   0  0  0  0  0  0  0  0  0  0  0  0
   28.0887   17.9364   60.7387 C   0  0  0  0  0  0  0  0  0  0  0  0
   28.7066   18.9760   61.7189 C   0  0  0  0  0  0  0  0  0  0  0  0
   30.1374   18.6749   61.8047 N   0  0  0  0  0  0  0  0  0  0  0  0
   28.0716   18.8464   63.1088 C   0  0  0  0  0  0  0  0  0  0  0  0
   26.5162   18.7926   62.9678 C   0  0  0  0  0  0  0  0  0  0  0  0
   26.1264   17.6504   62.1142 O   0  0  0  0  0  0  0  0  0  0  0  0
   30.2643   17.7198   62.1394 H   0  0  0  0  0  0  0  0  0  0  0  0
   30.5833   19.3243   62.4526 H   0  0  0  0  0  0  0  0  0  0  0  0
   28.4640   20.0185   63.9124 N   0  0  0  0  0  0  0  0  0  0  0  0
   29.4384   19.9460   64.8116 C   0  0  0  0  0  0  0  0  0  0  0  0
   30.0555   18.9079   65.0472 O   0  0  0  0  0  0  0  0  0  0  0  0
   29.7582   21.2175   65.5608 C   0  0  0  0  0  0  0  0  0  0  0  0
   27.9937   20.8731   63.7794 H   0  0  0  0  0  0  0  0  0  0  0  0
   26.1886   16.5825   59.9783 C   0  0  0  0  0  0  0  0  0  0  0  0
   25.9772   17.0492   58.8310 O   0  0  0  0  0  0  0  0  0  0  0  0
   25.8517   15.4189   60.2924 O   0  0  0  0  0  0  0  0  0  0  0  0
   26.0227   15.0988   61.1563 H   0  0  0  0  0  0  0  0  0  0  0  0
   25.7694   18.6082   64.3487 C   0  0  0  0  0  0  0  0  0  0  0  0
   24.7891   17.5518   64.1948 O   0  0  0  0  0  0  0  0  0  0  0  0
   24.1643   17.7904   63.4922 H   0  0  0  0  0  0  0  0  0  0  0  0
   25.0620   19.9233   64.7192 C   0  0  0  0  0  0  0  0  0  0  0  0
   25.9467   20.7494   65.4103 O   0  0  0  0  0  0  0  0  0  0  0  0
   26.2142   20.3174   66.2365 H   0  0  0  0  0  0  0  0  0  0  0  0
   23.8016   19.7086   65.5745 C   0  0  0  0  0  0  0  0  0  0  0  0
   22.6098   19.8455   64.8387 O   0  0  0  0  0  0  0  0  0  0  0  0
   22.5500   20.7467   64.4849 H   0  0  0  0  0  0  0  0  0  0  0  0
 15 16  2  0  0  0
 15 17  1  0  0  0
 15  1  1  0  0  0
  1  2  2  0  0  0
  1  7  1  0  0  0
  2  3  1  0  0  0
  3  4  1  0  0  0
  3  5  1  0  0  0
  5 10  1  0  0  0
  5  6  1  0  0  0
 10 11  1  0  0  0
 11 12  2  0  0  0
 11 13  1  0  0  0
  6  7  1  0  0  0
  6 19  1  0  0  0
 19 20  1  0  0  0
 19 22  1  0  0  0
 22 23  1  0  0  0
 22 25  1  0  0  0
 25 26  1  0  0  0
 17 18  1  0  0  0
  4  8  1  0  0  0
  4  9  1  0  0  0
 10 14  1  0  0  0
 20 21  1  0  0  0
 23 24  1  0  0  0
 26 27  1  0  0  0
M  END
> <minimizedAffinity>
-7.00438

$$$$
1F8C_4AM_A_4


 27 27  0  0  0  0  0  0  0  0999 V2000
   25.9280   17.1033   61.6049 C   0  0  0  0  0  0  0  0  0  0  0  0
   24.6291   16.8582   62.0306 C   0  0  0  0  0  0  0  0  0  0  0  0
   24.1727   17.0630   63.5048 C   0  0  0  0  0  0  0  0  0  0  0  0
   22.7974   17.5640   63.4538 N   0  0  0  0  0  0  0  0  0  0  0  0
   25.0675   18.0928   64.2053 C   0  0  0  0  0  0  0  0  0  0  0  0
   26.5677   17.7497   63.9337 C   0  0  0  0  0  0  0  0  0  0  0  0
   26.8285   17.7450   62.4786 O   0  0  0  0  0  0  0  0  0  0  0  0
   22.7729   18.4372   62.9272 H   0  0  0  0  0  0  0  0  0  0  0  0
   22.4604   17.7294   64.4023 H   0  0  0  0  0  0  0  0  0  0  0  0
   24.7934   18.0413   65.6529 N   0  0  0  0  0  0  0  0  0  0  0  0
   24.2824   19.0835   66.2979 C   0  0  0  0  0  0  0  0  0  0  0  0
   24.0271   20.1528   65.7452 O   0  0  0  0  0  0  0  0  0  0  0  0
   24.0325   18.9033   67.7761 C   0  0  0  0  0  0  0  0  0  0  0  0
   24.9934   17.2167   66.1521 H   0  0  0  0  0  0  0  0  0  0  0  0
   26.3968   16.7951   60.3297 C   0  0  0  0  0  0  0  0  0  0  0  0
   26.9295   17.7145   59.6593 O   0  0  0  0  0  0  0  0  0  0  0  0
   26.2817   15.6315   59.8839 O   0  0  0  0  0  0  0  0  0  0  0  0
   25.8796   14.9667   60.4077 H   0  0  0  0  0  0  0  0  0  0  0  0
   27.5723   18.7876   64.5757 C   0  0  0  0  0  0  0  0  0  0  0  0
   26.9376   20.0906   64.5751 O   0  0  0  0  0  0  0  0  0  0  0  0
   26.7150   20.3415   63.6649 H   0  0  0  0  0  0  0  0  0  0  0  0
   28.8569   18.8353   63.7303 C   0  0  0  0  0  0  0  0  0  0  0  0
   29.9557   18.5409   64.5357 O   0  0  0  0  0  0  0  0  0  0  0  0
   30.0367   19.2129   65.2305 H   0  0  0  0  0  0  0  0  0  0  0  0
   29.0809   20.1976   63.0519 C   0  0  0  0  0  0  0  0  0  0  0  0
   28.1300   20.4753   62.0523 O   0  0  0  0  0  0  0  0  0  0  0  0
   28.1929   19.8073   61.3517 H   0  0  0  0  0  0  0  0  0  0  0  0
 15 16  2  0  0  0
 15 17  1  0  0  0
 15  1  1  0  0  0
  1  2  2  0  0  0
  1  7  1  0  0  0
  2  3  1  0  0  0
  3  4  1  0  0  0
  3  5  1  0  0  0
  5 10  1  0  0  0
  5  6  1  0  0  0
 10 11  1  0  0  0
 11 12  2  0  0  0
 11 13  1  0  0  0
  6  7  1  0  0  0
  6 19  1  0  0  0
 19 20  1  0  0  0
 19 22  1  0  0  0
 22 23  1  0  0  0
 22 25  1  0  0  0
 25 26  1  0  0  0
 17 18  1  0  0  0
  4  8  1  0  0  0
  4  9  1  0  0  0
 10 14  1  0  0  0
 20 21  1  0  0  0
 23 24  1  0  0  0
 26 27  1  0  0  0
M  END
> <minimizedAffinity>
-6.68044

$$$$
1F8C_4AM_A_4


 27 27  0  0  0  0  0  0  0  0999 V2000
   25.4474   16.5402   61.8352 C   0  0  0  0  0  0  0  0  0  0  0  0
   26.6563   15.9051   61.5831 C   0  0  0  0  0  0  0  0  0  0  0  0
   27.9905   16.3330   62.2617 C   0  0  0  0  0  0  0  0  0  0  0  0
   28.7538   15.1059   62.5001 N   0  0  0  0  0  0  0  0  0  0  0  0
   27.7126   17.0314   63.5984 C   0  0  0  0  0  0  0  0  0  0  0  0
   26.6010   18.1117   63.4005 C   0  0  0  0  0  0  0  0  0  0  0  0
   25.3691   17.4788   62.8835 O   0  0  0  0  0  0  0  0  0  0  0  0
   28.2125   14.4791   63.0954 H   0  0  0  0  0  0  0  0  0  0  0  0
   29.6338   15.3371   62.9611 H   0  0  0  0  0  0  0  0  0  0  0  0
   28.9589   17.6700   64.0592 N   0  0  0  0  0  0  0  0  0  0  0  0
   29.7161   17.1130   64.9971 C   0  0  0  0  0  0  0  0  0  0  0  0
   29.4234   16.0544   65.5520 O   0  0  0  0  0  0  0  0  0  0  0  0
   30.9758   17.8556   65.3737 C   0  0  0  0  0  0  0  0  0  0  0  0
   29.2357   18.5278   63.6632 H   0  0  0  0  0  0  0  0  0  0  0  0
   24.2709   16.2715   61.1392 C   0  0  0  0  0  0  0  0  0  0  0  0
   24.0966   15.1058   60.7039 O   0  0  0  0  0  0  0  0  0  0  0  0
   23.4255   17.1774   60.9638 O   0  0  0  0  0  0  0  0  0  0  0  0
   23.5837   18.0374   61.3004 H   0  0  0  0  0  0  0  0  0  0  0  0
   26.2069   18.8554   64.7384 C   0  0  0  0  0  0  0  0  0  0  0  0
   26.1437   17.8714   65.8007 O   0  0  0  0  0  0  0  0  0  0  0  0
   25.4876   17.1936   65.5750 H   0  0  0  0  0  0  0  0  0  0  0  0
   24.8294   19.5172   64.5608 C   0  0  0  0  0  0  0  0  0  0  0  0
   24.9397   20.8891   64.7810 O   0  0  0  0  0  0  0  0  0  0  0  0
   25.2260   21.0480   65.6941 H   0  0  0  0  0  0  0  0  0  0  0  0
   23.7587   18.9408   65.5031 C   0  0  0  0  0  0  0  0  0  0  0  0
   23.2461   17.7070   65.0611 O   0  0  0  0  0  0  0  0  0  0  0  0
   22.8169   17.8252   64.1993 H   0  0  0  0  0  0  0  0  0  0  0  0
 15 16  2  0  0  0
 15 17  1  0  0  0
 15  1  1  0  0  0
  1  2  2  0  0  0
  1  7  1  0  0  0
  2  3  1  0  0  0
  3  4  1  0  0  0
  3  5  1  0  0  0
  5 10  1  0  0  0
  5  6  1  0  0  0
 10 11  1  0  0  0
 11 12  2  0  0  0
 11 13  1  0  0  0
  6  7  1  0  0  0
  6 19  1  0  0  0
 19 20  1  0  0  0
 19 22  1  0  0  0
 22 23  1  0  0  0
 22 25  1  0  0  0
 25 26  1  0  0  0
 17 18  1  0  0  0
  4  8  1  0  0  0
  4  9  1  0  0  0
 10 14  1  0  0  0
 20 21  1  0  0  0
 23 24  1  0  0  0
 26 27  1  0  0  0
M  END
> <minimizedAffinity>
-6.55637

$$$$
1F8C_4AM_A_4


 27 27  0  0  0  0  0  0  0  0999 V2000
   24.7778   17.9392   63.9087 C   0  0  0  0  0  0  0  0  0  0  0  0
   25.7959   18.8050   64.2858 C   0  0  0  0  0  0  0  0  0  0  0  0
   27.2414   18.7046   63.7164 C   0  0  0  0  0  0  0  0  0  0  0  0
   27.7372   20.0762   63.5826 N   0  0  0  0  0  0  0  0  0  0  0  0
   27.2302   18.0273   62.3406 C   0  0  0  0  0  0  0  0  0  0  0  0
   26.3669   16.7264   62.4073 C   0  0  0  0  0  0  0  0  0  0  0  0
   24.9896   17.0565   62.8308 O   0  0  0  0  0  0  0  0  0  0  0  0
   27.1227   20.6006   62.9599 H   0  0  0  0  0  0  0  0  0  0  0  0
   28.6807   20.0603   63.1952 H   0  0  0  0  0  0  0  0  0  0  0  0
   28.6183   17.6920   61.9741 N   0  0  0  0  0  0  0  0  0  0  0  0
   29.3577   16.8868   62.7279 C   0  0  0  0  0  0  0  0  0  0  0  0
   28.9493   16.3908   63.7773 O   0  0  0  0  0  0  0  0  0  0  0  0
   30.7590   16.6071   62.2396 C   0  0  0  0  0  0  0  0  0  0  0  0
   29.0053   18.0733   61.1531 H   0  0  0  0  0  0  0  0  0  0  0  0
   23.5187   17.9172   64.5048 C   0  0  0  0  0  0  0  0  0  0  0  0
   22.5115   17.8908   63.7543 O   0  0  0  0  0  0  0  0  0  0  0  0
   23.4156   17.9237   65.7520 O   0  0  0  0  0  0  0  0  0  0  0  0
   24.1854   17.9436   66.2857 H   0  0  0  0  0  0  0  0  0  0  0  0
   26.2526   15.9802   61.0186 C   0  0  0  0  0  0  0  0  0  0  0  0
   25.4093   16.7740   60.1471 O   0  0  0  0  0  0  0  0  0  0  0  0
   24.5358   16.8835   60.5544 H   0  0  0  0  0  0  0  0  0  0  0  0
   25.6151   14.5975   61.2399 C   0  0  0  0  0  0  0  0  0  0  0  0
   25.9478   13.7561   60.1797 O   0  0  0  0  0  0  0  0  0  0  0  0
   25.5867   14.1170   59.3549 H   0  0  0  0  0  0  0  0  0  0  0  0
   24.0838   14.6553   61.3750 C   0  0  0  0  0  0  0  0  0  0  0  0
   23.6438   14.4913   62.7016 O   0  0  0  0  0  0  0  0  0  0  0  0
   23.9142   13.6181   63.0263 H   0  0  0  0  0  0  0  0  0  0  0  0
 15 16  2  0  0  0
 15 17  1  0  0  0
 15  1  1  0  0  0
  1  2  2  0  0  0
  1  7  1  0  0  0
  2  3  1  0  0  0
  3  4  1  0  0  0
  3  5  1  0  0  0
  5 10  1  0  0  0
  5  6  1  0  0  0
 10 11  1  0  0  0
 11 12  2  0  0  0
 11 13  1  0  0  0
  6  7  1  0  0  0
  6 19  1  0  0  0
 19 20  1  0  0  0
 19 22  1  0  0  0
 22 23  1  0  0  0
 22 25  1  0  0  0
 25 26  1  0  0  0
 17 18  1  0  0  0
  4  8  1  0  0  0
  4  9  1  0  0  0
 10 14  1  0  0  0
 20 21  1  0  0  0
 23 24  1  0  0  0
 26 27  1  0  0  0
M  END
> <minimizedAffinity>
-6.35776

$$$$
