5NBW_8SK_L_301


 22 26  0  0  0  0  0  0  0  0999 V2000
   13.2826  -31.8960    4.4984 C   0  0  0  0  0  0  0  0  0  0  0  0
   13.1719  -33.1315    3.8526 C   0  0  0  0  0  0  0  0  0  0  0  0
   12.4920  -34.1973    4.4783 C   0  0  0  0  0  0  0  0  0  0  0  0
   11.9320  -34.0064    5.7614 C   0  0  0  0  0  0  0  0  0  0  0  0
   12.0562  -32.7616    6.4344 C   0  0  0  0  0  0  0  0  0  0  0  0
   12.7413  -31.7114    5.7903 C   0  0  0  0  0  0  0  0  0  0  0  0
   12.8781  -30.4767    6.4318 C   0  0  0  0  0  0  0  0  0  0  0  0
   12.3438  -30.2667    7.7073 C   0  0  0  0  0  0  0  0  0  0  0  0
   12.4978  -29.0005    8.3035 C   0  0  0  0  0  0  0  0  0  0  0  0
   11.9899  -28.7680    9.5871 C   0  0  0  0  0  0  0  0  0  0  0  0
   11.3174  -29.8058   10.2573 C   0  0  0  0  0  0  0  0  0  0  0  0
   11.1334  -31.0630    9.6690 C   0  0  0  0  0  0  0  0  0  0  0  0
   11.6549  -31.3191    8.3783 C   0  0  0  0  0  0  0  0  0  0  0  0
   11.5053  -32.5774    7.7430 C   0  0  0  0  0  0  0  0  0  0  0  0
   10.8214  -33.6553    8.3579 C   0  0  0  0  0  0  0  0  0  0  0  0
   10.6944  -34.8858    7.6925 C   0  0  0  0  0  0  0  0  0  0  0  0
   11.2542  -35.0661    6.3920 C   0  0  0  0  0  0  0  0  0  0  0  0
   11.1435  -36.2953    5.7170 C   0  0  0  0  0  0  0  0  0  0  0  0
   11.6917  -36.4965    4.4498 C   0  0  0  0  0  0  0  0  0  0  0  0
   12.3621  -35.4484    3.8283 C   0  0  0  0  0  0  0  0  0  0  0  0
   12.8882  -35.6511    2.5965 O   0  0  0  0  0  0  0  0  0  0  0  0
   12.7945  -36.4844    2.1784 H   0  0  0  0  0  0  0  0  0  0  0  0
 21 20  1  0  0  0
 20 19  2  0  0  0
 20  3  1  0  0  0
  2  3  2  0  0  0
  2  1  1  0  0  0
 19 18  1  0  0  0
  3  4  1  0  0  0
  1  6  2  0  0  0
 18 17  2  0  0  0
  4 17  1  0  0  0
  4  5  2  0  0  0
  6  5  1  0  0  0
  6  7  1  0  0  0
 17 16  1  0  0  0
  5 14  1  0  0  0
  7  8  2  0  0  0
 16 15  2  0  0  0
  8  9  1  0  0  0
  8 13  1  0  0  0
 14 15  1  0  0  0
 14 13  2  0  0  0
  9 10  2  0  0  0
 13 12  1  0  0  0
 10 11  1  0  0  0
 12 11  2  0  0  0
 21 22  1  0  0  0
M  END
> <minimizedAffinity>
-13.42841

$$$$
5NBW_8SK_L_301


 22 26  0  0  0  0  0  0  0  0999 V2000
   10.9211  -33.5560    8.8221 C   0  0  0  0  0  0  0  0  0  0  0  0
   11.0484  -32.3275    9.4782 C   0  0  0  0  0  0  0  0  0  0  0  0
   11.6473  -31.2335    8.8195 C   0  0  0  0  0  0  0  0  0  0  0  0
   12.1213  -31.3927    7.4979 C   0  0  0  0  0  0  0  0  0  0  0  0
   12.0149  -32.6418    6.8297 C   0  0  0  0  0  0  0  0  0  0  0  0
   11.4141  -33.7213    7.5084 C   0  0  0  0  0  0  0  0  0  0  0  0
   11.2983  -34.9614    6.8730 C   0  0  0  0  0  0  0  0  0  0  0  0
   11.7710  -35.1480    5.5700 C   0  0  0  0  0  0  0  0  0  0  0  0
   11.6178  -36.4129    4.9709 C   0  0  0  0  0  0  0  0  0  0  0  0
   12.0988  -36.6334    3.6749 C   0  0  0  0  0  0  0  0  0  0  0  0
   12.7178  -35.5762    2.9837 C   0  0  0  0  0  0  0  0  0  0  0  0
   12.8558  -34.3053    3.5548 C   0  0  0  0  0  0  0  0  0  0  0  0
   12.3892  -34.0706    4.8703 C   0  0  0  0  0  0  0  0  0  0  0  0
   12.5143  -32.8057    5.4979 C   0  0  0  0  0  0  0  0  0  0  0  0
   13.1099  -31.6972    4.8469 C   0  0  0  0  0  0  0  0  0  0  0  0
   13.2126  -30.4602    5.5046 C   0  0  0  0  0  0  0  0  0  0  0  0
   12.7215  -30.3059    6.8358 C   0  0  0  0  0  0  0  0  0  0  0  0
   12.8258  -29.0762    7.5110 C   0  0  0  0  0  0  0  0  0  0  0  0
   12.3616  -28.9060    8.8158 C   0  0  0  0  0  0  0  0  0  0  0  0
   11.7693  -29.9814    9.4690 C   0  0  0  0  0  0  0  0  0  0  0  0
   11.3182  -29.8065   10.7344 O   0  0  0  0  0  0  0  0  0  0  0  0
   11.4056  -28.9721   11.1518 H   0  0  0  0  0  0  0  0  0  0  0  0
 21 20  1  0  0  0
 20 19  2  0  0  0
 20  3  1  0  0  0
  2  3  2  0  0  0
  2  1  1  0  0  0
 19 18  1  0  0  0
  3  4  1  0  0  0
  1  6  2  0  0  0
 18 17  2  0  0  0
  4 17  1  0  0  0
  4  5  2  0  0  0
  6  5  1  0  0  0
  6  7  1  0  0  0
 17 16  1  0  0  0
  5 14  1  0  0  0
  7  8  2  0  0  0
 16 15  2  0  0  0
  8  9  1  0  0  0
  8 13  1  0  0  0
 14 15  1  0  0  0
 14 13  2  0  0  0
  9 10  2  0  0  0
 13 12  1  0  0  0
 10 11  1  0  0  0
 12 11  2  0  0  0
 21 22  1  0  0  0
M  END
> <minimizedAffinity>
-13.07945

$$$$
5NBW_8SK_L_301


 22 26  0  0  0  0  0  0  0  0999 V2000
   10.7286  -34.7175    8.0837 C   0  0  0  0  0  0  0  0  0  0  0  0
   10.8883  -35.5991    7.0099 C   0  0  0  0  0  0  0  0  0  0  0  0
   11.5357  -35.1689    5.8329 C   0  0  0  0  0  0  0  0  0  0  0  0
   12.0133  -33.8418    5.7480 C   0  0  0  0  0  0  0  0  0  0  0  0
   11.8384  -32.9325    6.8253 C   0  0  0  0  0  0  0  0  0  0  0  0
   11.1871  -33.3844    7.9909 C   0  0  0  0  0  0  0  0  0  0  0  0
   11.0016  -32.5088    9.0650 C   0  0  0  0  0  0  0  0  0  0  0  0
   11.4538  -31.1868    9.0006 C   0  0  0  0  0  0  0  0  0  0  0  0
   11.2538  -30.3499   10.1150 C   0  0  0  0  0  0  0  0  0  0  0  0
   11.6791  -29.0169   10.0710 C   0  0  0  0  0  0  0  0  0  0  0  0
   12.3161  -28.5378    8.9121 C   0  0  0  0  0  0  0  0  0  0  0  0
   12.5455  -29.3632    7.8046 C   0  0  0  0  0  0  0  0  0  0  0  0
   12.1073  -30.7089    7.8271 C   0  0  0  0  0  0  0  0  0  0  0  0
   12.3054  -31.5825    6.7286 C   0  0  0  0  0  0  0  0  0  0  0  0
   12.9575  -31.1651    5.5420 C   0  0  0  0  0  0  0  0  0  0  0  0
   13.1347  -32.0638    4.4770 C   0  0  0  0  0  0  0  0  0  0  0  0
   12.6583  -33.4056    4.5759 C   0  0  0  0  0  0  0  0  0  0  0  0
   12.8198  -34.3143    3.5143 C   0  0  0  0  0  0  0  0  0  0  0  0
   12.3530  -35.6273    3.5858 C   0  0  0  0  0  0  0  0  0  0  0  0
   11.7150  -36.0566    4.7446 C   0  0  0  0  0  0  0  0  0  0  0  0
   11.2681  -37.3339    4.8070 O   0  0  0  0  0  0  0  0  0  0  0  0
   11.3938  -37.9103    4.0790 H   0  0  0  0  0  0  0  0  0  0  0  0
 21 20  1  0  0  0
 20 19  2  0  0  0
 20  3  1  0  0  0
  2  3  2  0  0  0
  2  1  1  0  0  0
 19 18  1  0  0  0
  3  4  1  0  0  0
  1  6  2  0  0  0
 18 17  2  0  0  0
  4 17  1  0  0  0
  4  5  2  0  0  0
  6  5  1  0  0  0
  6  7  1  0  0  0
 17 16  1  0  0  0
  5 14  1  0  0  0
  7  8  2  0  0  0
 16 15  2  0  0  0
  8  9  1  0  0  0
  8 13  1  0  0  0
 14 15  1  0  0  0
 14 13  2  0  0  0
  9 10  2  0  0  0
 13 12  1  0  0  0
 10 11  1  0  0  0
 12 11  2  0  0  0
 21 22  1  0  0  0
M  END
> <minimizedAffinity>
-13.06587

$$$$
5NBW_8SK_L_301


 22 26  0  0  0  0  0  0  0  0999 V2000
   13.1673  -30.6685    5.5821 C   0  0  0  0  0  0  0  0  0  0  0  0
   12.8820  -29.9017    6.7164 C   0  0  0  0  0  0  0  0  0  0  0  0
   12.2234  -30.4874    7.8176 C   0  0  0  0  0  0  0  0  0  0  0  0
   11.8506  -31.8491    7.7606 C   0  0  0  0  0  0  0  0  0  0  0  0
   12.1178  -32.6314    6.6054 C   0  0  0  0  0  0  0  0  0  0  0  0
   12.7757  -32.0244    5.5165 C   0  0  0  0  0  0  0  0  0  0  0  0
   13.0493  -32.7725    4.3674 C   0  0  0  0  0  0  0  0  0  0  0  0
   12.6791  -34.1185    4.2814 C   0  0  0  0  0  0  0  0  0  0  0  0
   12.9901  -34.8304    3.1071 C   0  0  0  0  0  0  0  0  0  0  0  0
   12.6145  -36.1735    2.9861 C   0  0  0  0  0  0  0  0  0  0  0  0
   11.9415  -36.7966    4.0525 C   0  0  0  0  0  0  0  0  0  0  0  0
   11.6468  -36.1107    5.2371 C   0  0  0  0  0  0  0  0  0  0  0  0
   12.0055  -34.7478    5.3689 C   0  0  0  0  0  0  0  0  0  0  0  0
   11.7208  -34.0055    6.5425 C   0  0  0  0  0  0  0  0  0  0  0  0
   11.0636  -34.5819    7.6576 C   0  0  0  0  0  0  0  0  0  0  0  0
   10.8018  -33.8109    8.8023 C   0  0  0  0  0  0  0  0  0  0  0  0
   11.1915  -32.4389    8.8550 C   0  0  0  0  0  0  0  0  0  0  0  0
   10.9278  -31.6515    9.9904 C   0  0  0  0  0  0  0  0  0  0  0  0
   11.2909  -30.3060   10.0593 C   0  0  0  0  0  0  0  0  0  0  0  0
   11.9415  -29.7244    8.9766 C   0  0  0  0  0  0  0  0  0  0  0  0
   12.2938  -28.4185    9.0532 O   0  0  0  0  0  0  0  0  0  0  0  0
   12.1008  -27.9258    9.8265 H   0  0  0  0  0  0  0  0  0  0  0  0
 21 20  1  0  0  0
 20 19  2  0  0  0
 20  3  1  0  0  0
  2  3  2  0  0  0
  2  1  1  0  0  0
 19 18  1  0  0  0
  3  4  1  0  0  0
  1  6  2  0  0  0
 18 17  2  0  0  0
  4 17  1  0  0  0
  4  5  2  0  0  0
  6  5  1  0  0  0
  6  7  1  0  0  0
 17 16  1  0  0  0
  5 14  1  0  0  0
  7  8  2  0  0  0
 16 15  2  0  0  0
  8  9  1  0  0  0
  8 13  1  0  0  0
 14 15  1  0  0  0
 14 13  2  0  0  0
  9 10  2  0  0  0
 13 12  1  0  0  0
 10 11  1  0  0  0
 12 11  2  0  0  0
 21 22  1  0  0  0
M  END
> <minimizedAffinity>
-13.04754

$$$$
5NBW_8SK_L_301


 22 26  0  0  0  0  0  0  0  0999 V2000
   10.6288  -35.6760    7.0279 C   0  0  0  0  0  0  0  0  0  0  0  0
   10.8101  -36.7477    6.1479 C   0  0  0  0  0  0  0  0  0  0  0  0
   11.6161  -36.5915    5.0010 C   0  0  0  0  0  0  0  0  0  0  0  0
   12.2305  -35.3445    4.7480 C   0  0  0  0  0  0  0  0  0  0  0  0
   12.0366  -34.2438    5.6248 C   0  0  0  0  0  0  0  0  0  0  0  0
   11.2258  -34.4230    6.7639 C   0  0  0  0  0  0  0  0  0  0  0  0
   11.0183  -33.3549    7.6420 C   0  0  0  0  0  0  0  0  0  0  0  0
   11.6050  -32.1072    7.4069 C   0  0  0  0  0  0  0  0  0  0  0  0
   11.3751  -31.0686    8.3294 C   0  0  0  0  0  0  0  0  0  0  0  0
   11.9341  -29.8042    8.1091 C   0  0  0  0  0  0  0  0  0  0  0  0
   12.7328  -29.5960    6.9702 C   0  0  0  0  0  0  0  0  0  0  0  0
   12.9922  -30.6245    6.0560 C   0  0  0  0  0  0  0  0  0  0  0  0
   12.4214  -31.9041    6.2559 C   0  0  0  0  0  0  0  0  0  0  0  0
   12.6439  -32.9757    5.3551 C   0  0  0  0  0  0  0  0  0  0  0  0
   13.4543  -32.8342    4.2015 C   0  0  0  0  0  0  0  0  0  0  0  0
   13.6503  -33.9225    3.3352 C   0  0  0  0  0  0  0  0  0  0  0  0
   13.0342  -35.1814    3.6045 C   0  0  0  0  0  0  0  0  0  0  0  0
   13.2132  -36.2777    2.7414 C   0  0  0  0  0  0  0  0  0  0  0  0
   12.6123  -37.5142    2.9801 C   0  0  0  0  0  0  0  0  0  0  0  0
   11.8177  -37.6735    4.1103 C   0  0  0  0  0  0  0  0  0  0  0  0
   11.2409  -38.8783    4.3364 O   0  0  0  0  0  0  0  0  0  0  0  0
   11.3831  -39.5854    3.7383 H   0  0  0  0  0  0  0  0  0  0  0  0
 21 20  1  0  0  0
 20 19  2  0  0  0
 20  3  1  0  0  0
  2  3  2  0  0  0
  2  1  1  0  0  0
 19 18  1  0  0  0
  3  4  1  0  0  0
  1  6  2  0  0  0
 18 17  2  0  0  0
  4 17  1  0  0  0
  4  5  2  0  0  0
  6  5  1  0  0  0
  6  7  1  0  0  0
 17 16  1  0  0  0
  5 14  1  0  0  0
  7  8  2  0  0  0
 16 15  2  0  0  0
  8  9  1  0  0  0
  8 13  1  0  0  0
 14 15  1  0  0  0
 14 13  2  0  0  0
  9 10  2  0  0  0
 13 12  1  0  0  0
 10 11  1  0  0  0
 12 11  2  0  0  0
 21 22  1  0  0  0
M  END
> <minimizedAffinity>
-10.59820

$$$$
