5XPI_8C3_A_301


 27 29  0  0  0  0  0  0  0  0999 V2000
  -32.8731   -4.3155   10.2481 C   0  0  0  0  0  0  0  0  0  0  0  0
  -33.3543   -2.9726    9.7268 C   0  0  0  0  0  0  0  0  0  0  0  0
  -35.3150   -4.9673   10.4545 C   0  0  0  0  0  0  0  0  0  0  0  0
  -32.5072   -2.1291    9.3993 O   0  0  0  0  0  0  0  0  0  0  0  0
  -36.3901   -5.9116   10.8376 C   0  0  0  0  0  0  0  0  0  0  0  0
  -33.8640   -5.2971   10.5970 N   0  0  0  0  0  0  0  0  0  0  0  0
  -31.5896   -4.8380   10.4718 C   0  0  0  0  0  0  0  0  0  0  0  0
  -34.7588   -2.8125    9.6375 N   0  0  0  0  0  0  0  0  0  0  0  0
  -33.1490   -6.3631   11.0037 C   0  0  0  0  0  0  0  0  0  0  0  0
  -35.6941   -3.8087   10.0069 N   0  0  0  0  0  0  0  0  0  0  0  0
  -31.8089   -6.1106   10.9385 C   0  0  0  0  0  0  0  0  0  0  0  0
  -33.3699   -7.6871   11.4778 C   0  0  0  0  0  0  0  0  0  0  0  0
  -30.7294   -7.3448   11.4293 S   0  0  0  0  0  0  0  0  0  0  0  0
  -32.1799   -8.3158   11.7294 C   0  0  0  0  0  0  0  0  0  0  0  0
  -35.4384   -1.5934    9.1219 C   0  0  0  0  0  0  0  0  0  0  0  0
  -37.8032   -1.2236    8.7815 O   0  0  0  0  0  0  0  0  0  0  0  0
  -36.7751   -1.8088    8.3949 C   0  0  0  0  0  0  0  0  0  0  0  0
  -36.7210   -2.6630    7.3444 N   0  0  0  0  0  0  0  0  0  0  0  0
  -35.8414   -3.0612    7.1524 H   0  0  0  0  0  0  0  0  0  0  0  0
  -37.8276   -3.0659    6.4545 C   0  0  0  0  0  0  0  0  0  0  0  0
  -37.4081   -3.6089    5.0577 C   0  0  0  0  0  0  0  0  0  0  0  0
  -35.8883   -3.5168    4.7650 C   0  0  0  0  0  0  0  0  0  0  0  0
  -35.5154   -2.4190    3.8149 N   0  0  0  0  0  0  0  0  0  0  0  0
  -34.5939   -1.3973    4.4233 C   0  0  0  0  0  0  0  0  0  0  0  0
  -33.7315   -1.9019    5.6027 C   0  0  0  0  0  0  0  0  0  0  0  0
  -35.0560   -2.9483    2.4907 C   0  0  0  0  0  0  0  0  0  0  0  0
  -36.2294   -3.2378    1.5336 C   0  0  0  0  0  0  0  0  0  0  0  0
 14 13  1  0  0  0
 14 12  2  0  0  0
 13 11  1  0  0  0
 12  9  1  0  0  0
 11  9  2  0  0  0
 11  7  1  0  0  0
  9  6  1  0  0  0
  7  1  2  0  0  0
  6  1  1  0  0  0
  6  3  1  0  0  0
  1  2  1  0  0  0
  5  3  1  0  0  0
  3 10  2  0  0  0
  2  4  2  0  0  0
  2  8  1  0  0  0
 10  8  1  0  0  0
  8 15  1  0  0  0
 15 17  1  0  0  0
 16 17  2  0  0  0
 17 18  1  0  0  0
 18 20  1  0  0  0
 20 21  1  0  0  0
 21 22  1  0  0  0
 22 23  1  0  0  0
 23 24  1  0  0  0
 23 26  1  0  0  0
 25 24  1  0  0  0
 27 26  1  0  0  0
 18 19  1  0  0  0
M  END
> <minimizedAffinity>
-4.91371

$$$$
5XPI_8C3_A_301


 27 29  0  0  0  0  0  0  0  0999 V2000
  -32.8614   -7.7709   11.0571 C   0  0  0  0  0  0  0  0  0  0  0  0
  -34.3697   -7.7534   11.2333 C   0  0  0  0  0  0  0  0  0  0  0  0
  -33.0080   -5.2730   10.6451 C   0  0  0  0  0  0  0  0  0  0  0  0
  -34.9443   -8.8179   11.5037 O   0  0  0  0  0  0  0  0  0  0  0  0
  -32.4019   -3.9638   10.3087 C   0  0  0  0  0  0  0  0  0  0  0  0
  -32.2018   -6.5253   10.7730 N   0  0  0  0  0  0  0  0  0  0  0  0
  -31.9139   -8.8047   11.1206 C   0  0  0  0  0  0  0  0  0  0  0  0
  -34.9929   -6.4892   11.0935 N   0  0  0  0  0  0  0  0  0  0  0  0
  -30.8980   -6.8503   10.6862 C   0  0  0  0  0  0  0  0  0  0  0  0
  -34.2972   -5.2919   10.8000 N   0  0  0  0  0  0  0  0  0  0  0  0
  -30.7099   -8.1876   10.8863 C   0  0  0  0  0  0  0  0  0  0  0  0
  -29.6456   -6.2143   10.4546 C   0  0  0  0  0  0  0  0  0  0  0  0
  -29.1141   -8.8007   10.8015 S   0  0  0  0  0  0  0  0  0  0  0  0
  -28.6247   -7.1256   10.4988 C   0  0  0  0  0  0  0  0  0  0  0  0
  -36.4508   -6.2435   11.2609 C   0  0  0  0  0  0  0  0  0  0  0  0
  -37.4063   -4.0227   11.2710 O   0  0  0  0  0  0  0  0  0  0  0  0
  -37.0164   -4.9848   10.5845 C   0  0  0  0  0  0  0  0  0  0  0  0
  -37.0488   -5.0313    9.2307 N   0  0  0  0  0  0  0  0  0  0  0  0
  -36.7137   -5.8588    8.8157 H   0  0  0  0  0  0  0  0  0  0  0  0
  -37.5280   -3.9856    8.3057 C   0  0  0  0  0  0  0  0  0  0  0  0
  -36.8151   -3.9274    6.9236 C   0  0  0  0  0  0  0  0  0  0  0  0
  -36.3642   -2.5072    6.4951 C   0  0  0  0  0  0  0  0  0  0  0  0
  -36.3649   -2.2883    5.0122 N   0  0  0  0  0  0  0  0  0  0  0  0
  -35.0130   -1.9140    4.4686 C   0  0  0  0  0  0  0  0  0  0  0  0
  -33.8583   -1.9288    5.4962 C   0  0  0  0  0  0  0  0  0  0  0  0
  -37.0340   -3.4080    4.2753 C   0  0  0  0  0  0  0  0  0  0  0  0
  -36.7928   -3.3382    2.7541 C   0  0  0  0  0  0  0  0  0  0  0  0
 14 13  1  0  0  0
 14 12  2  0  0  0
 13 11  1  0  0  0
 12  9  1  0  0  0
 11  9  2  0  0  0
 11  7  1  0  0  0
  9  6  1  0  0  0
  7  1  2  0  0  0
  6  1  1  0  0  0
  6  3  1  0  0  0
  1  2  1  0  0  0
  5  3  1  0  0  0
  3 10  2  0  0  0
  2  4  2  0  0  0
  2  8  1  0  0  0
 10  8  1  0  0  0
  8 15  1  0  0  0
 15 17  1  0  0  0
 16 17  2  0  0  0
 17 18  1  0  0  0
 18 20  1  0  0  0
 20 21  1  0  0  0
 21 22  1  0  0  0
 22 23  1  0  0  0
 23 24  1  0  0  0
 23 26  1  0  0  0
 25 24  1  0  0  0
 27 26  1  0  0  0
 18 19  1  0  0  0
M  END
> <minimizedAffinity>
-4.80174

$$$$
5XPI_8C3_A_301


 27 29  0  0  0  0  0  0  0  0999 V2000
  -33.2585   -5.3977   10.5384 C   0  0  0  0  0  0  0  0  0  0  0  0
  -32.6335   -4.1114   10.0271 C   0  0  0  0  0  0  0  0  0  0  0  0
  -35.5145   -4.3091   10.1433 C   0  0  0  0  0  0  0  0  0  0  0  0
  -31.3977   -4.0411    9.9628 O   0  0  0  0  0  0  0  0  0  0  0  0
  -36.9946   -4.3051   10.2031 C   0  0  0  0  0  0  0  0  0  0  0  0
  -34.6933   -5.4791   10.5808 N   0  0  0  0  0  0  0  0  0  0  0  0
  -32.7021   -6.5999   11.0026 C   0  0  0  0  0  0  0  0  0  0  0  0
  -33.5413   -3.0959    9.6387 N   0  0  0  0  0  0  0  0  0  0  0  0
  -34.9437   -6.7145   11.0542 C   0  0  0  0  0  0  0  0  0  0  0  0
  -34.9492   -3.2223    9.7124 N   0  0  0  0  0  0  0  0  0  0  0  0
  -33.7838   -7.3879   11.3096 C   0  0  0  0  0  0  0  0  0  0  0  0
  -36.0613   -7.5400   11.3642 C   0  0  0  0  0  0  0  0  0  0  0  0
  -33.8933   -8.9780   11.9333 S   0  0  0  0  0  0  0  0  0  0  0  0
  -35.6478   -8.7606   11.8264 C   0  0  0  0  0  0  0  0  0  0  0  0
  -33.1427   -1.7761    9.0792 C   0  0  0  0  0  0  0  0  0  0  0  0
  -32.1713   -2.7066    7.0704 O   0  0  0  0  0  0  0  0  0  0  0  0
  -32.7712   -1.7470    7.5883 C   0  0  0  0  0  0  0  0  0  0  0  0
  -33.1424   -0.6221    6.9305 N   0  0  0  0  0  0  0  0  0  0  0  0
  -33.6061    0.0618    7.4657 H   0  0  0  0  0  0  0  0  0  0  0  0
  -32.9323   -0.3026    5.5048 C   0  0  0  0  0  0  0  0  0  0  0  0
  -34.2235   -0.0919    4.6620 C   0  0  0  0  0  0  0  0  0  0  0  0
  -35.4570   -0.8806    5.1724 C   0  0  0  0  0  0  0  0  0  0  0  0
  -36.0331   -1.8303    4.1659 N   0  0  0  0  0  0  0  0  0  0  0  0
  -35.0531   -2.8776    3.7119 C   0  0  0  0  0  0  0  0  0  0  0  0
  -34.8918   -3.0145    2.1807 C   0  0  0  0  0  0  0  0  0  0  0  0
  -37.3592   -2.3772    4.5982 C   0  0  0  0  0  0  0  0  0  0  0  0
  -37.2817   -3.8659    4.9916 C   0  0  0  0  0  0  0  0  0  0  0  0
 14 13  1  0  0  0
 14 12  2  0  0  0
 13 11  1  0  0  0
 12  9  1  0  0  0
 11  9  2  0  0  0
 11  7  1  0  0  0
  9  6  1  0  0  0
  7  1  2  0  0  0
  6  1  1  0  0  0
  6  3  1  0  0  0
  1  2  1  0  0  0
  5  3  1  0  0  0
  3 10  2  0  0  0
  2  4  2  0  0  0
  2  8  1  0  0  0
 10  8  1  0  0  0
  8 15  1  0  0  0
 15 17  1  0  0  0
 16 17  2  0  0  0
 17 18  1  0  0  0
 18 20  1  0  0  0
 20 21  1  0  0  0
 21 22  1  0  0  0
 22 23  1  0  0  0
 23 24  1  0  0  0
 23 26  1  0  0  0
 25 24  1  0  0  0
 27 26  1  0  0  0
 18 19  1  0  0  0
M  END
> <minimizedAffinity>
-4.79966

$$$$
5XPI_8C3_A_301


 27 29  0  0  0  0  0  0  0  0999 V2000
  -35.0207   -2.5293    6.0567 C   0  0  0  0  0  0  0  0  0  0  0  0
  -34.7389   -2.3029    7.5318 C   0  0  0  0  0  0  0  0  0  0  0  0
  -37.2989   -3.3965    6.7551 C   0  0  0  0  0  0  0  0  0  0  0  0
  -33.6459   -1.8164    7.8556 O   0  0  0  0  0  0  0  0  0  0  0  0
  -38.6204   -3.9948    6.4550 C   0  0  0  0  0  0  0  0  0  0  0  0
  -36.3030   -3.0665    5.6904 N   0  0  0  0  0  0  0  0  0  0  0  0
  -34.2525   -2.3088    4.9027 C   0  0  0  0  0  0  0  0  0  0  0  0
  -35.7843   -2.6538    8.4207 N   0  0  0  0  0  0  0  0  0  0  0  0
  -36.2627   -3.1396    4.3465 C   0  0  0  0  0  0  0  0  0  0  0  0
  -37.0267   -3.1925    8.0084 N   0  0  0  0  0  0  0  0  0  0  0  0
  -35.0631   -2.6996    3.8656 C   0  0  0  0  0  0  0  0  0  0  0  0
  -37.1025   -3.5333    3.2665 C   0  0  0  0  0  0  0  0  0  0  0  0
  -34.8118   -2.7278    2.1728 S   0  0  0  0  0  0  0  0  0  0  0  0
  -36.4640   -3.3574    2.0682 C   0  0  0  0  0  0  0  0  0  0  0  0
  -35.7303   -2.4808    9.8976 C   0  0  0  0  0  0  0  0  0  0  0  0
  -37.3839   -3.1373   11.5345 O   0  0  0  0  0  0  0  0  0  0  0  0
  -36.5035   -3.5096   10.7375 C   0  0  0  0  0  0  0  0  0  0  0  0
  -36.1418   -4.7994   10.5331 N   0  0  0  0  0  0  0  0  0  0  0  0
  -35.4245   -4.9510    9.8761 H   0  0  0  0  0  0  0  0  0  0  0  0
  -36.6982   -6.0034   11.1808 C   0  0  0  0  0  0  0  0  0  0  0  0
  -35.7437   -7.2299   11.2609 C   0  0  0  0  0  0  0  0  0  0  0  0
  -34.3750   -6.9337   11.9264 C   0  0  0  0  0  0  0  0  0  0  0  0
  -33.2403   -6.8028   10.9556 N   0  0  0  0  0  0  0  0  0  0  0  0
  -32.4243   -5.5562   11.1636 C   0  0  0  0  0  0  0  0  0  0  0  0
  -32.5869   -4.4690   10.0769 C   0  0  0  0  0  0  0  0  0  0  0  0
  -32.4288   -8.0587   10.8611 C   0  0  0  0  0  0  0  0  0  0  0  0
  -32.3532   -8.8128   12.2037 C   0  0  0  0  0  0  0  0  0  0  0  0
 14 13  1  0  0  0
 14 12  2  0  0  0
 13 11  1  0  0  0
 12  9  1  0  0  0
 11  9  2  0  0  0
 11  7  1  0  0  0
  9  6  1  0  0  0
  7  1  2  0  0  0
  6  1  1  0  0  0
  6  3  1  0  0  0
  1  2  1  0  0  0
  5  3  1  0  0  0
  3 10  2  0  0  0
  2  4  2  0  0  0
  2  8  1  0  0  0
 10  8  1  0  0  0
  8 15  1  0  0  0
 15 17  1  0  0  0
 16 17  2  0  0  0
 17 18  1  0  0  0
 18 20  1  0  0  0
 20 21  1  0  0  0
 21 22  1  0  0  0
 22 23  1  0  0  0
 23 24  1  0  0  0
 23 26  1  0  0  0
 25 24  1  0  0  0
 27 26  1  0  0  0
 18 19  1  0  0  0
M  END
> <minimizedAffinity>
-4.77008

$$$$
5XPI_8C3_A_301


 27 29  0  0  0  0  0  0  0  0999 V2000
  -34.7813   -2.3585    6.1480 C   0  0  0  0  0  0  0  0  0  0  0  0
  -34.3467   -2.0385    7.5676 C   0  0  0  0  0  0  0  0  0  0  0  0
  -37.0224   -3.0359    7.1221 C   0  0  0  0  0  0  0  0  0  0  0  0
  -33.2040   -1.5936    7.7485 O   0  0  0  0  0  0  0  0  0  0  0  0
  -38.3955   -3.5769    6.9948 C   0  0  0  0  0  0  0  0  0  0  0  0
  -36.1189   -2.8458    5.9466 N   0  0  0  0  0  0  0  0  0  0  0  0
  -34.1183   -2.2708    4.9138 C   0  0  0  0  0  0  0  0  0  0  0  0
  -35.3175   -2.2596    8.5750 N   0  0  0  0  0  0  0  0  0  0  0  0
  -36.2127   -3.0223    4.6150 C   0  0  0  0  0  0  0  0  0  0  0  0
  -36.6199   -2.7543    8.3242 N   0  0  0  0  0  0  0  0  0  0  0  0
  -35.0445   -2.6906    3.9912 C   0  0  0  0  0  0  0  0  0  0  0  0
  -37.1722   -3.4464    3.6527 C   0  0  0  0  0  0  0  0  0  0  0  0
  -34.9603   -2.8609    2.2901 S   0  0  0  0  0  0  0  0  0  0  0  0
  -36.6448   -3.3989    2.3901 C   0  0  0  0  0  0  0  0  0  0  0  0
  -35.1119   -1.9794   10.0217 C   0  0  0  0  0  0  0  0  0  0  0  0
  -34.1502   -2.9554   12.0136 O   0  0  0  0  0  0  0  0  0  0  0  0
  -34.6432   -3.1583   10.8890 C   0  0  0  0  0  0  0  0  0  0  0  0
  -34.8104   -4.3802   10.3277 N   0  0  0  0  0  0  0  0  0  0  0  0
  -35.2084   -4.3946    9.4274 H   0  0  0  0  0  0  0  0  0  0  0  0
  -34.4651   -5.6923   10.9091 C   0  0  0  0  0  0  0  0  0  0  0  0
  -32.9598   -6.0828   10.8500 C   0  0  0  0  0  0  0  0  0  0  0  0
  -32.6971   -7.6084   10.7630 C   0  0  0  0  0  0  0  0  0  0  0  0
  -31.3427   -8.0231   11.2534 N   0  0  0  0  0  0  0  0  0  0  0  0
  -31.3650   -8.5849   12.6488 C   0  0  0  0  0  0  0  0  0  0  0  0
  -31.0234   -7.5803   13.7729 C   0  0  0  0  0  0  0  0  0  0  0  0
  -30.6183   -8.8784   10.2592 C   0  0  0  0  0  0  0  0  0  0  0  0
  -29.0878   -8.8159   10.4339 C   0  0  0  0  0  0  0  0  0  0  0  0
 14 13  1  0  0  0
 14 12  2  0  0  0
 13 11  1  0  0  0
 12  9  1  0  0  0
 11  9  2  0  0  0
 11  7  1  0  0  0
  9  6  1  0  0  0
  7  1  2  0  0  0
  6  1  1  0  0  0
  6  3  1  0  0  0
  1  2  1  0  0  0
  5  3  1  0  0  0
  3 10  2  0  0  0
  2  4  2  0  0  0
  2  8  1  0  0  0
 10  8  1  0  0  0
  8 15  1  0  0  0
 15 17  1  0  0  0
 16 17  2  0  0  0
 17 18  1  0  0  0
 18 20  1  0  0  0
 20 21  1  0  0  0
 21 22  1  0  0  0
 22 23  1  0  0  0
 23 24  1  0  0  0
 23 26  1  0  0  0
 25 24  1  0  0  0
 27 26  1  0  0  0
 18 19  1  0  0  0
M  END
> <minimizedAffinity>
-4.68468

$$$$
5XPI_8C3_A_301


 27 29  0  0  0  0  0  0  0  0999 V2000
  -32.4016   -4.8117   11.1839 C   0  0  0  0  0  0  0  0  0  0  0  0
  -32.2727   -3.3263   10.8948 C   0  0  0  0  0  0  0  0  0  0  0  0
  -34.7893   -4.6378   10.3480 C   0  0  0  0  0  0  0  0  0  0  0  0
  -31.1845   -2.7750   11.1146 O   0  0  0  0  0  0  0  0  0  0  0  0
  -36.1253   -5.2154   10.0726 C   0  0  0  0  0  0  0  0  0  0  0  0
  -33.6591   -5.4472   10.8975 N   0  0  0  0  0  0  0  0  0  0  0  0
  -31.4998   -5.7566   11.6981 C   0  0  0  0  0  0  0  0  0  0  0  0
  -33.4265   -2.6982   10.3655 N   0  0  0  0  0  0  0  0  0  0  0  0
  -33.4667   -6.7359   11.2369 C   0  0  0  0  0  0  0  0  0  0  0  0
  -34.6474   -3.3685   10.1132 N   0  0  0  0  0  0  0  0  0  0  0  0
  -32.2024   -6.9362   11.7116 C   0  0  0  0  0  0  0  0  0  0  0  0
  -34.1866   -7.9640   11.2432 C   0  0  0  0  0  0  0  0  0  0  0  0
  -31.7673   -8.5147   12.2104 S   0  0  0  0  0  0  0  0  0  0  0  0
  -33.4048   -8.9807   11.7222 C   0  0  0  0  0  0  0  0  0  0  0  0
  -33.5048   -1.2631    9.9802 C   0  0  0  0  0  0  0  0  0  0  0  0
  -33.3344    0.2288    8.0855 O   0  0  0  0  0  0  0  0  0  0  0  0
  -33.4072   -0.9497    8.4789 C   0  0  0  0  0  0  0  0  0  0  0  0
  -33.4130   -2.0357    7.6686 N   0  0  0  0  0  0  0  0  0  0  0  0
  -33.4816   -2.9107    8.1145 H   0  0  0  0  0  0  0  0  0  0  0  0
  -33.3284   -2.0595    6.1952 C   0  0  0  0  0  0  0  0  0  0  0  0
  -34.6879   -2.0125    5.4392 C   0  0  0  0  0  0  0  0  0  0  0  0
  -34.9038   -3.1759    4.4373 C   0  0  0  0  0  0  0  0  0  0  0  0
  -36.3343   -3.6002    4.2940 N   0  0  0  0  0  0  0  0  0  0  0  0
  -37.1632   -3.3085    5.5151 C   0  0  0  0  0  0  0  0  0  0  0  0
  -37.2554   -4.4589    6.5436 C   0  0  0  0  0  0  0  0  0  0  0  0
  -36.9413   -3.1196    3.0113 C   0  0  0  0  0  0  0  0  0  0  0  0
  -35.9753   -3.2525    1.8172 C   0  0  0  0  0  0  0  0  0  0  0  0
 14 13  1  0  0  0
 14 12  2  0  0  0
 13 11  1  0  0  0
 12  9  1  0  0  0
 11  9  2  0  0  0
 11  7  1  0  0  0
  9  6  1  0  0  0
  7  1  2  0  0  0
  6  1  1  0  0  0
  6  3  1  0  0  0
  1  2  1  0  0  0
  5  3  1  0  0  0
  3 10  2  0  0  0
  2  4  2  0  0  0
  2  8  1  0  0  0
 10  8  1  0  0  0
  8 15  1  0  0  0
 15 17  1  0  0  0
 16 17  2  0  0  0
 17 18  1  0  0  0
 18 20  1  0  0  0
 20 21  1  0  0  0
 21 22  1  0  0  0
 22 23  1  0  0  0
 23 24  1  0  0  0
 23 26  1  0  0  0
 25 24  1  0  0  0
 27 26  1  0  0  0
 18 19  1  0  0  0
M  END
> <minimizedAffinity>
-4.65325

$$$$
5XPI_8C3_A_301


 27 29  0  0  0  0  0  0  0  0999 V2000
  -35.6601   -6.4224   11.1193 C   0  0  0  0  0  0  0  0  0  0  0  0
  -37.0284   -5.7779   10.9815 C   0  0  0  0  0  0  0  0  0  0  0  0
  -34.6960   -4.2827   10.1587 C   0  0  0  0  0  0  0  0  0  0  0  0
  -38.0222   -6.4184   11.3537 O   0  0  0  0  0  0  0  0  0  0  0  0
  -33.5641   -3.4574    9.6770 C   0  0  0  0  0  0  0  0  0  0  0  0
  -34.5118   -5.6590   10.7120 N   0  0  0  0  0  0  0  0  0  0  0  0
  -35.2501   -7.6788   11.5923 C   0  0  0  0  0  0  0  0  0  0  0  0
  -37.0416   -4.4647   10.4509 N   0  0  0  0  0  0  0  0  0  0  0  0
  -33.4664   -6.4705   10.9604 C   0  0  0  0  0  0  0  0  0  0  0  0
  -35.8802   -3.7604   10.0523 N   0  0  0  0  0  0  0  0  0  0  0  0
  -33.8819   -7.6640   11.4771 C   0  0  0  0  0  0  0  0  0  0  0  0
  -32.0469   -6.4570   10.8534 C   0  0  0  0  0  0  0  0  0  0  0  0
  -32.6956   -8.8407   11.8480 S   0  0  0  0  0  0  0  0  0  0  0  0
  -31.5170   -7.6391   11.2964 C   0  0  0  0  0  0  0  0  0  0  0  0
  -38.2669   -3.6413   10.2656 C   0  0  0  0  0  0  0  0  0  0  0  0
  -38.9638   -2.0262    8.6071 O   0  0  0  0  0  0  0  0  0  0  0  0
  -38.5785   -3.1884    8.8305 C   0  0  0  0  0  0  0  0  0  0  0  0
  -38.4030   -4.1399    7.8820 N   0  0  0  0  0  0  0  0  0  0  0  0
  -38.0994   -5.0207    8.2004 H   0  0  0  0  0  0  0  0  0  0  0  0
  -38.6141   -4.0097    6.4270 C   0  0  0  0  0  0  0  0  0  0  0  0
  -37.3839   -4.3409    5.5332 C   0  0  0  0  0  0  0  0  0  0  0  0
  -37.1486   -3.3410    4.3719 C   0  0  0  0  0  0  0  0  0  0  0  0
  -35.7115   -2.9637    4.1734 N   0  0  0  0  0  0  0  0  0  0  0  0
  -35.2757   -3.0287    2.7350 C   0  0  0  0  0  0  0  0  0  0  0  0
  -36.4051   -3.2864    1.7116 C   0  0  0  0  0  0  0  0  0  0  0  0
  -35.3631   -1.6799    4.8627 C   0  0  0  0  0  0  0  0  0  0  0  0
  -34.0751   -1.0429    4.3040 C   0  0  0  0  0  0  0  0  0  0  0  0
 14 13  1  0  0  0
 14 12  2  0  0  0
 13 11  1  0  0  0
 12  9  1  0  0  0
 11  9  2  0  0  0
 11  7  1  0  0  0
  9  6  1  0  0  0
  7  1  2  0  0  0
  6  1  1  0  0  0
  6  3  1  0  0  0
  1  2  1  0  0  0
  5  3  1  0  0  0
  3 10  2  0  0  0
  2  4  2  0  0  0
  2  8  1  0  0  0
 10  8  1  0  0  0
  8 15  1  0  0  0
 15 17  1  0  0  0
 16 17  2  0  0  0
 17 18  1  0  0  0
 18 20  1  0  0  0
 20 21  1  0  0  0
 21 22  1  0  0  0
 22 23  1  0  0  0
 23 24  1  0  0  0
 23 26  1  0  0  0
 25 24  1  0  0  0
 27 26  1  0  0  0
 18 19  1  0  0  0
M  END
> <minimizedAffinity>
-4.61194

$$$$
5XPI_8C3_A_301


 27 29  0  0  0  0  0  0  0  0999 V2000
  -35.0144   -2.4875    6.0840 C   0  0  0  0  0  0  0  0  0  0  0  0
  -34.7150   -2.2403    7.5522 C   0  0  0  0  0  0  0  0  0  0  0  0
  -37.2845   -3.3434    6.8220 C   0  0  0  0  0  0  0  0  0  0  0  0
  -33.6179   -1.7498    7.8559 O   0  0  0  0  0  0  0  0  0  0  0  0
  -38.6097   -3.9453    6.5463 C   0  0  0  0  0  0  0  0  0  0  0  0
  -36.3013   -3.0292    5.7408 N   0  0  0  0  0  0  0  0  0  0  0  0
  -34.2601   -2.2839    4.9178 C   0  0  0  0  0  0  0  0  0  0  0  0
  -35.7497   -2.5778    8.4586 N   0  0  0  0  0  0  0  0  0  0  0  0
  -36.2771   -3.1216    4.3977 C   0  0  0  0  0  0  0  0  0  0  0  0
  -36.9971   -3.1217    8.0689 N   0  0  0  0  0  0  0  0  0  0  0  0
  -35.0832   -2.6891    3.8962 C   0  0  0  0  0  0  0  0  0  0  0  0
  -37.1300   -3.5301    3.3336 C   0  0  0  0  0  0  0  0  0  0  0  0
  -34.8523   -2.7416    2.2011 S   0  0  0  0  0  0  0  0  0  0  0  0
  -36.5059   -3.3717    2.1253 C   0  0  0  0  0  0  0  0  0  0  0  0
  -35.6779   -2.3838    9.9321 C   0  0  0  0  0  0  0  0  0  0  0  0
  -34.0010   -3.0467   11.5425 O   0  0  0  0  0  0  0  0  0  0  0  0
  -34.8591   -3.4177   10.7210 C   0  0  0  0  0  0  0  0  0  0  0  0
  -35.1513   -4.7106   10.4396 N   0  0  0  0  0  0  0  0  0  0  0  0
  -35.8496   -4.8612    9.7623 H   0  0  0  0  0  0  0  0  0  0  0  0
  -34.5442   -5.9193   11.0304 C   0  0  0  0  0  0  0  0  0  0  0  0
  -35.5155   -7.1085   11.2842 C   0  0  0  0  0  0  0  0  0  0  0  0
  -36.9591   -6.6867   11.6612 C   0  0  0  0  0  0  0  0  0  0  0  0
  -37.8950   -7.8380   11.8747 N   0  0  0  0  0  0  0  0  0  0  0  0
  -37.3322   -8.8978   12.7821 C   0  0  0  0  0  0  0  0  0  0  0  0
  -37.9707   -8.9738   14.1878 C   0  0  0  0  0  0  0  0  0  0  0  0
  -39.2749   -7.3849   12.2425 C   0  0  0  0  0  0  0  0  0  0  0  0
  -40.2438   -7.4172   11.0438 C   0  0  0  0  0  0  0  0  0  0  0  0
 14 13  1  0  0  0
 14 12  2  0  0  0
 13 11  1  0  0  0
 12  9  1  0  0  0
 11  9  2  0  0  0
 11  7  1  0  0  0
  9  6  1  0  0  0
  7  1  2  0  0  0
  6  1  1  0  0  0
  6  3  1  0  0  0
  1  2  1  0  0  0
  5  3  1  0  0  0
  3 10  2  0  0  0
  2  4  2  0  0  0
  2  8  1  0  0  0
 10  8  1  0  0  0
  8 15  1  0  0  0
 15 17  1  0  0  0
 16 17  2  0  0  0
 17 18  1  0  0  0
 18 20  1  0  0  0
 20 21  1  0  0  0
 21 22  1  0  0  0
 22 23  1  0  0  0
 23 24  1  0  0  0
 23 26  1  0  0  0
 25 24  1  0  0  0
 27 26  1  0  0  0
 18 19  1  0  0  0
M  END
> <minimizedAffinity>
-4.54245

$$$$
5XPI_8C3_A_301


 27 29  0  0  0  0  0  0  0  0999 V2000
  -34.3371   -2.3486    6.2427 C   0  0  0  0  0  0  0  0  0  0  0  0
  -33.5881   -2.0372    7.5267 C   0  0  0  0  0  0  0  0  0  0  0  0
  -36.2155   -3.2284    7.7015 C   0  0  0  0  0  0  0  0  0  0  0  0
  -32.4697   -1.5094    7.4439 O   0  0  0  0  0  0  0  0  0  0  0  0
  -37.5367   -3.8718    7.8879 C   0  0  0  0  0  0  0  0  0  0  0  0
  -35.6460   -2.9335    6.3512 N   0  0  0  0  0  0  0  0  0  0  0  0
  -34.0076   -2.1729    4.8896 C   0  0  0  0  0  0  0  0  0  0  0  0
  -34.2620   -2.3634    8.7290 N   0  0  0  0  0  0  0  0  0  0  0  0
  -36.0538   -3.0777    5.0761 C   0  0  0  0  0  0  0  0  0  0  0  0
  -35.5486   -2.9514    8.7808 N   0  0  0  0  0  0  0  0  0  0  0  0
  -35.1019   -2.6371    4.2023 C   0  0  0  0  0  0  0  0  0  0  0  0
  -37.1898   -3.5476    4.3583 C   0  0  0  0  0  0  0  0  0  0  0  0
  -35.4293   -2.7503    2.5261 S   0  0  0  0  0  0  0  0  0  0  0  0
  -36.9955   -3.4218    3.0089 C   0  0  0  0  0  0  0  0  0  0  0  0
  -33.7249   -2.1104   10.0933 C   0  0  0  0  0  0  0  0  0  0  0  0
  -31.5777   -2.5590   11.1098 O   0  0  0  0  0  0  0  0  0  0  0  0
  -32.5917   -3.0342   10.5666 C   0  0  0  0  0  0  0  0  0  0  0  0
  -32.7993   -4.3536   10.3383 N   0  0  0  0  0  0  0  0  0  0  0  0
  -33.6451   -4.5902    9.8934 H   0  0  0  0  0  0  0  0  0  0  0  0
  -31.9051   -5.4774   10.6791 C   0  0  0  0  0  0  0  0  0  0  0  0
  -32.4843   -6.5243   11.6742 C   0  0  0  0  0  0  0  0  0  0  0  0
  -33.9511   -6.2590   12.1008 C   0  0  0  0  0  0  0  0  0  0  0  0
  -34.9717   -6.8071   11.1495 N   0  0  0  0  0  0  0  0  0  0  0  0
  -35.4067   -8.2064   11.4898 C   0  0  0  0  0  0  0  0  0  0  0  0
  -36.8900   -8.3584   11.8975 C   0  0  0  0  0  0  0  0  0  0  0  0
  -36.1027   -5.8515   10.9207 C   0  0  0  0  0  0  0  0  0  0  0  0
  -36.0763   -4.6628   11.9021 C   0  0  0  0  0  0  0  0  0  0  0  0
 14 13  1  0  0  0
 14 12  2  0  0  0
 13 11  1  0  0  0
 12  9  1  0  0  0
 11  9  2  0  0  0
 11  7  1  0  0  0
  9  6  1  0  0  0
  7  1  2  0  0  0
  6  1  1  0  0  0
  6  3  1  0  0  0
  1  2  1  0  0  0
  5  3  1  0  0  0
  3 10  2  0  0  0
  2  4  2  0  0  0
  2  8  1  0  0  0
 10  8  1  0  0  0
  8 15  1  0  0  0
 15 17  1  0  0  0
 16 17  2  0  0  0
 17 18  1  0  0  0
 18 20  1  0  0  0
 20 21  1  0  0  0
 21 22  1  0  0  0
 22 23  1  0  0  0
 23 24  1  0  0  0
 23 26  1  0  0  0
 25 24  1  0  0  0
 27 26  1  0  0  0
 18 19  1  0  0  0
M  END
> <minimizedAffinity>
-4.41169

$$$$
5XPI_8C3_A_301


 27 29  0  0  0  0  0  0  0  0999 V2000
  -33.2776   -3.0139    9.0767 C   0  0  0  0  0  0  0  0  0  0  0  0
  -33.1243   -2.2790    7.7565 C   0  0  0  0  0  0  0  0  0  0  0  0
  -35.2978   -1.5449    9.5143 C   0  0  0  0  0  0  0  0  0  0  0  0
  -32.2007   -2.6121    6.9999 O   0  0  0  0  0  0  0  0  0  0  0  0
  -36.4156   -1.0758   10.3656 C   0  0  0  0  0  0  0  0  0  0  0  0
  -34.3699   -2.6395    9.9333 N   0  0  0  0  0  0  0  0  0  0  0  0
  -32.5392   -4.0470    9.6750 C   0  0  0  0  0  0  0  0  0  0  0  0
  -34.0872   -1.2740    7.4941 N   0  0  0  0  0  0  0  0  0  0  0  0
  -34.2551   -3.4568   10.9972 C   0  0  0  0  0  0  0  0  0  0  0  0
  -35.1385   -0.9346    8.3791 N   0  0  0  0  0  0  0  0  0  0  0  0
  -33.1825   -4.2907   10.8634 C   0  0  0  0  0  0  0  0  0  0  0  0
  -34.9241   -3.7214   12.2256 C   0  0  0  0  0  0  0  0  0  0  0  0
  -32.8597   -5.4008   12.1256 S   0  0  0  0  0  0  0  0  0  0  0  0
  -34.2983   -4.7286   12.9101 C   0  0  0  0  0  0  0  0  0  0  0  0
  -34.1411   -0.4610    6.2491 C   0  0  0  0  0  0  0  0  0  0  0  0
  -34.6139   -0.9145    3.9220 O   0  0  0  0  0  0  0  0  0  0  0  0
  -34.9969   -1.0197    5.1014 C   0  0  0  0  0  0  0  0  0  0  0  0
  -36.1560   -1.6054    5.4881 N   0  0  0  0  0  0  0  0  0  0  0  0
  -36.3376   -1.6136    6.4556 H   0  0  0  0  0  0  0  0  0  0  0  0
  -37.1780   -2.2326    4.6273 C   0  0  0  0  0  0  0  0  0  0  0  0
  -37.3107   -3.7781    4.7520 C   0  0  0  0  0  0  0  0  0  0  0  0
  -38.1233   -4.2537    5.9839 C   0  0  0  0  0  0  0  0  0  0  0  0
  -37.7239   -3.5947    7.2696 N   0  0  0  0  0  0  0  0  0  0  0  0
  -38.8818   -2.9701    7.9992 C   0  0  0  0  0  0  0  0  0  0  0  0
  -39.0735   -1.4544    7.7637 C   0  0  0  0  0  0  0  0  0  0  0  0
  -36.8707   -4.4849    8.1206 C   0  0  0  0  0  0  0  0  0  0  0  0
  -37.4542   -4.6834    9.5337 C   0  0  0  0  0  0  0  0  0  0  0  0
 14 13  1  0  0  0
 14 12  2  0  0  0
 13 11  1  0  0  0
 12  9  1  0  0  0
 11  9  2  0  0  0
 11  7  1  0  0  0
  9  6  1  0  0  0
  7  1  2  0  0  0
  6  1  1  0  0  0
  6  3  1  0  0  0
  1  2  1  0  0  0
  5  3  1  0  0  0
  3 10  2  0  0  0
  2  4  2  0  0  0
  2  8  1  0  0  0
 10  8  1  0  0  0
  8 15  1  0  0  0
 15 17  1  0  0  0
 16 17  2  0  0  0
 17 18  1  0  0  0
 18 20  1  0  0  0
 20 21  1  0  0  0
 21 22  1  0  0  0
 22 23  1  0  0  0
 23 24  1  0  0  0
 23 26  1  0  0  0
 25 24  1  0  0  0
 27 26  1  0  0  0
 18 19  1  0  0  0
M  END
> <minimizedAffinity>
-4.37474

$$$$
