5IA2_L66_A_1001


 33 37  0  0  0  0  0  0  0  0999 V2000
  -84.9964  -10.8445    5.3567 O   0  0  0  0  0  0  0  0  0  0  0  0
  -86.0596  -11.1918    5.8656 C   0  0  0  0  0  0  0  0  0  0  0  0
  -87.1889  -11.2591    5.1075 N   0  0  0  0  0  0  0  0  0  0  0  0
  -88.3803  -11.6270    5.6395 C   0  0  0  0  0  0  0  0  0  0  0  0
  -89.5647  -11.6856    4.8323 O   0  0  0  0  0  0  0  0  0  0  0  0
  -86.1285  -11.5022    7.1804 N   0  0  0  0  0  0  0  0  0  0  0  0
  -84.8988  -11.4349    8.0441 C   0  0  0  0  0  0  0  0  0  0  0  0
  -87.2767  -11.8814    7.7569 C   0  0  0  0  0  0  0  0  0  0  0  0
  -88.4852  -11.9671    6.9896 C   0  0  0  0  0  0  0  0  0  0  0  0
  -87.5895  -12.2449    9.0477 N   0  0  0  0  0  0  0  0  0  0  0  0
  -88.9287  -12.5316    9.0856 C   0  0  0  0  0  0  0  0  0  0  0  0
  -89.5005  -12.3778    7.8489 N   0  0  0  0  0  0  0  0  0  0  0  0
  -90.8228  -12.6779    7.9378 C   0  0  0  0  0  0  0  0  0  0  0  0
  -89.8612  -12.9450    9.9685 N   0  0  0  0  0  0  0  0  0  0  0  0
  -91.0519  -13.0408    9.3274 C   0  0  0  0  0  0  0  0  0  0  0  0
  -87.1389  -11.0351    4.1501 H   0  0  0  0  0  0  0  0  0  0  0  0
  -92.2980  -13.4893   10.0782 C   0  0  0  0  0  0  0  0  0  0  0  0
  -92.7027  -14.8410   10.0472 C   0  0  0  0  0  0  0  0  0  0  0  0
  -91.9221  -15.8713    9.1782 C   0  0  0  0  0  0  0  0  0  0  0  0
  -93.8006  -15.2404   10.7592 C   0  0  0  0  0  0  0  0  0  0  0  0
  -94.5219  -14.2614   11.5615 C   0  0  0  0  0  0  0  0  0  0  0  0
  -92.9910  -12.5357   10.8748 C   0  0  0  0  0  0  0  0  0  0  0  0
  -94.0945  -12.9300   11.5932 C   0  0  0  0  0  0  0  0  0  0  0  0
  -94.7415  -12.0194   12.3244 O   0  0  0  0  0  0  0  0  0  0  0  0
  -94.4442  -11.1309   12.3365 H   0  0  0  0  0  0  0  0  0  0  0  0
  -89.5910  -13.1941   11.4236 C   0  0  0  0  0  0  0  0  0  0  0  0
  -89.4174  -14.4800   11.9410 C   0  0  0  0  0  0  0  0  0  0  0  0
  -89.1706  -14.6318   13.2971 C   0  0  0  0  0  0  0  0  0  0  0  0
  -89.1079  -13.5188   14.1213 C   0  0  0  0  0  0  0  0  0  0  0  0
  -89.2864  -12.2567   13.6108 C   0  0  0  0  0  0  0  0  0  0  0  0
  -89.5327  -12.0971   12.2248 C   0  0  0  0  0  0  0  0  0  0  0  0
  -89.7158  -10.8360   11.6487 O   0  0  0  0  0  0  0  0  0  0  0  0
  -88.6926   -9.8585   11.8902 C   0  0  0  0  0  0  0  0  0  0  0  0
 29 30  2  0  0  0
 29 28  1  0  0  0
 30 31  1  0  0  0
 28 27  2  0  0  0
 31 32  1  0  0  0
 31 26  2  0  0  0
 27 26  1  0  0  0
 33 32  1  0  0  0
 26 14  1  0  0  0
 24 23  1  0  0  0
 23 22  2  0  0  0
 23 21  1  0  0  0
 14 11  1  0  0  0
 14 15  1  0  0  0
 22 17  1  0  0  0
 10 11  2  0  0  0
 10  8  1  0  0  0
  7  6  1  0  0  0
 21 20  2  0  0  0
 11 12  1  0  0  0
 17 15  1  0  0  0
 17 18  2  0  0  0
 15 13  2  0  0  0
 20 18  1  0  0  0
  8  6  1  0  0  0
  8  9  2  0  0  0
 18 19  1  0  0  0
  6  2  1  0  0  0
 12 13  1  0  0  0
 12  9  1  0  0  0
  9  4  1  0  0  0
  2  1  2  0  0  0
  2  3  1  0  0  0
  4  3  1  0  0  0
  4  5  2  0  0  0
  3 16  1  0  0  0
 24 25  1  0  0  0
M  END
> <minimizedAffinity>
-11.14467

$$$$
5IA2_L66_A_1001


 33 37  0  0  0  0  0  0  0  0999 V2000
  -94.4313  -15.7106   12.4475 O   0  0  0  0  0  0  0  0  0  0  0  0
  -93.5316  -15.3047   11.7155 C   0  0  0  0  0  0  0  0  0  0  0  0
  -93.4818  -15.6991   10.4130 N   0  0  0  0  0  0  0  0  0  0  0  0
  -92.4967  -15.2796    9.5813 C   0  0  0  0  0  0  0  0  0  0  0  0
  -92.4503  -15.7091    8.2134 O   0  0  0  0  0  0  0  0  0  0  0  0
  -92.5764  -14.4725   12.1895 N   0  0  0  0  0  0  0  0  0  0  0  0
  -92.6031  -14.0214   13.6243 C   0  0  0  0  0  0  0  0  0  0  0  0
  -91.5854  -14.0189   11.4106 C   0  0  0  0  0  0  0  0  0  0  0  0
  -91.5025  -14.4098   10.0333 C   0  0  0  0  0  0  0  0  0  0  0  0
  -90.5237  -13.1775   11.6578 N   0  0  0  0  0  0  0  0  0  0  0  0
  -89.8081  -13.0592   10.4955 C   0  0  0  0  0  0  0  0  0  0  0  0
  -90.3807  -13.7918    9.4878 N   0  0  0  0  0  0  0  0  0  0  0  0
  -89.6396  -13.6377    8.3592 C   0  0  0  0  0  0  0  0  0  0  0  0
  -88.7167  -12.4192   10.0275 N   0  0  0  0  0  0  0  0  0  0  0  0
  -88.5504  -12.7450    8.7221 C   0  0  0  0  0  0  0  0  0  0  0  0
  -94.1779  -16.3032   10.0670 H   0  0  0  0  0  0  0  0  0  0  0  0
  -87.3899  -12.1662    7.9246 C   0  0  0  0  0  0  0  0  0  0  0  0
  -87.6259  -11.4905    6.7082 C   0  0  0  0  0  0  0  0  0  0  0  0
  -89.0696  -11.4012    6.1306 C   0  0  0  0  0  0  0  0  0  0  0  0
  -86.5795  -10.9385    6.0208 C   0  0  0  0  0  0  0  0  0  0  0  0
  -85.2352  -11.0374    6.5735 C   0  0  0  0  0  0  0  0  0  0  0  0
  -86.0802  -12.2485    8.4742 C   0  0  0  0  0  0  0  0  0  0  0  0
  -85.0244  -11.6957    7.7894 C   0  0  0  0  0  0  0  0  0  0  0  0
  -83.7998  -11.7943    8.3124 O   0  0  0  0  0  0  0  0  0  0  0  0
  -83.6730  -12.2381    9.1278 H   0  0  0  0  0  0  0  0  0  0  0  0
  -87.8313  -11.5427   10.8642 C   0  0  0  0  0  0  0  0  0  0  0  0
  -87.8196  -10.1519   10.7337 C   0  0  0  0  0  0  0  0  0  0  0  0
  -86.9742   -9.4074   11.5424 C   0  0  0  0  0  0  0  0  0  0  0  0
  -86.1496  -10.0431   12.4578 C   0  0  0  0  0  0  0  0  0  0  0  0
  -86.1582  -11.4108   12.5784 C   0  0  0  0  0  0  0  0  0  0  0  0
  -87.0248  -12.1745   11.7583 C   0  0  0  0  0  0  0  0  0  0  0  0
  -87.0806  -13.5693   11.8419 O   0  0  0  0  0  0  0  0  0  0  0  0
  -87.3295  -14.1312   13.1393 C   0  0  0  0  0  0  0  0  0  0  0  0
 29 30  2  0  0  0
 29 28  1  0  0  0
 30 31  1  0  0  0
 28 27  2  0  0  0
 31 32  1  0  0  0
 31 26  2  0  0  0
 27 26  1  0  0  0
 33 32  1  0  0  0
 26 14  1  0  0  0
 24 23  1  0  0  0
 23 22  2  0  0  0
 23 21  1  0  0  0
 14 11  1  0  0  0
 14 15  1  0  0  0
 22 17  1  0  0  0
 10 11  2  0  0  0
 10  8  1  0  0  0
  7  6  1  0  0  0
 21 20  2  0  0  0
 11 12  1  0  0  0
 17 15  1  0  0  0
 17 18  2  0  0  0
 15 13  2  0  0  0
 20 18  1  0  0  0
  8  6  1  0  0  0
  8  9  2  0  0  0
 18 19  1  0  0  0
  6  2  1  0  0  0
 12 13  1  0  0  0
 12  9  1  0  0  0
  9  4  1  0  0  0
  2  1  2  0  0  0
  2  3  1  0  0  0
  4  3  1  0  0  0
  4  5  2  0  0  0
  3 16  1  0  0  0
 24 25  1  0  0  0
M  END
> <minimizedAffinity>
-8.71169

$$$$
5IA2_L66_A_1001


 33 37  0  0  0  0  0  0  0  0999 V2000
  -86.6499  -11.1889    5.0882 O   0  0  0  0  0  0  0  0  0  0  0  0
  -86.8177  -11.4221    6.2830 C   0  0  0  0  0  0  0  0  0  0  0  0
  -85.7560  -11.4123    7.1356 N   0  0  0  0  0  0  0  0  0  0  0  0
  -85.9040  -11.6767    8.4570 C   0  0  0  0  0  0  0  0  0  0  0  0
  -84.7763  -11.6720    9.3436 O   0  0  0  0  0  0  0  0  0  0  0  0
  -88.0499  -11.6999    6.7672 N   0  0  0  0  0  0  0  0  0  0  0  0
  -89.2417  -11.7206    5.8498 C   0  0  0  0  0  0  0  0  0  0  0  0
  -88.2563  -11.9589    8.0652 C   0  0  0  0  0  0  0  0  0  0  0  0
  -87.1630  -11.9541    8.9933 C   0  0  0  0  0  0  0  0  0  0  0  0
  -89.3942  -12.2570    8.7810 N   0  0  0  0  0  0  0  0  0  0  0  0
  -89.0267  -12.4404   10.0881 C   0  0  0  0  0  0  0  0  0  0  0  0
  -87.6776  -12.2575   10.2507 N   0  0  0  0  0  0  0  0  0  0  0  0
  -87.3653  -12.4444   11.5599 C   0  0  0  0  0  0  0  0  0  0  0  0
  -89.5928  -12.7251   11.2790 N   0  0  0  0  0  0  0  0  0  0  0  0
  -88.6211  -12.7564   12.2238 C   0  0  0  0  0  0  0  0  0  0  0  0
  -84.8593  -11.2083    6.7840 H   0  0  0  0  0  0  0  0  0  0  0  0
  -88.9668  -13.0555   13.6759 C   0  0  0  0  0  0  0  0  0  0  0  0
  -89.1451  -14.3873   14.1078 C   0  0  0  0  0  0  0  0  0  0  0  0
  -89.0685  -15.5584   13.0838 C   0  0  0  0  0  0  0  0  0  0  0  0
  -89.4149  -14.6469   15.4238 C   0  0  0  0  0  0  0  0  0  0  0  0
  -89.4888  -13.5382   16.3660 C   0  0  0  0  0  0  0  0  0  0  0  0
  -89.0215  -11.9734   14.5979 C   0  0  0  0  0  0  0  0  0  0  0  0
  -89.2914  -12.2268   15.9216 C   0  0  0  0  0  0  0  0  0  0  0  0
  -89.3532  -11.1984   16.7709 O   0  0  0  0  0  0  0  0  0  0  0  0
  -89.2190  -10.3249   16.4595 H   0  0  0  0  0  0  0  0  0  0  0  0
  -91.0545  -13.0065   11.4705 C   0  0  0  0  0  0  0  0  0  0  0  0
  -91.8875  -12.1596   12.2056 C   0  0  0  0  0  0  0  0  0  0  0  0
  -93.2289  -12.4852   12.3392 C   0  0  0  0  0  0  0  0  0  0  0  0
  -93.7251  -13.6410   11.7561 C   0  0  0  0  0  0  0  0  0  0  0  0
  -92.9021  -14.4751   11.0405 C   0  0  0  0  0  0  0  0  0  0  0  0
  -91.5325  -14.1427   10.8966 C   0  0  0  0  0  0  0  0  0  0  0  0
  -90.6493  -14.9509   10.1738 O   0  0  0  0  0  0  0  0  0  0  0  0
  -91.1789  -15.6168    9.0175 C   0  0  0  0  0  0  0  0  0  0  0  0
 29 30  2  0  0  0
 29 28  1  0  0  0
 30 31  1  0  0  0
 28 27  2  0  0  0
 31 32  1  0  0  0
 31 26  2  0  0  0
 27 26  1  0  0  0
 33 32  1  0  0  0
 26 14  1  0  0  0
 24 23  1  0  0  0
 23 22  2  0  0  0
 23 21  1  0  0  0
 14 11  1  0  0  0
 14 15  1  0  0  0
 22 17  1  0  0  0
 10 11  2  0  0  0
 10  8  1  0  0  0
  7  6  1  0  0  0
 21 20  2  0  0  0
 11 12  1  0  0  0
 17 15  1  0  0  0
 17 18  2  0  0  0
 15 13  2  0  0  0
 20 18  1  0  0  0
  8  6  1  0  0  0
  8  9  2  0  0  0
 18 19  1  0  0  0
  6  2  1  0  0  0
 12 13  1  0  0  0
 12  9  1  0  0  0
  9  4  1  0  0  0
  2  1  2  0  0  0
  2  3  1  0  0  0
  4  3  1  0  0  0
  4  5  2  0  0  0
  3 16  1  0  0  0
 24 25  1  0  0  0
M  END
> <minimizedAffinity>
-8.69159

$$$$
5IA2_L66_A_1001


 33 37  0  0  0  0  0  0  0  0999 V2000
  -82.8219  -14.7960   18.0687 O   0  0  0  0  0  0  0  0  0  0  0  0
  -83.8701  -14.9080   17.4373 C   0  0  0  0  0  0  0  0  0  0  0  0
  -84.5833  -16.0664   17.4993 N   0  0  0  0  0  0  0  0  0  0  0  0
  -85.7374  -16.2275   16.8063 C   0  0  0  0  0  0  0  0  0  0  0  0
  -86.4752  -17.4559   16.8729 O   0  0  0  0  0  0  0  0  0  0  0  0
  -84.3260  -13.8931   16.6678 N   0  0  0  0  0  0  0  0  0  0  0  0
  -83.5590  -12.6023   16.5772 C   0  0  0  0  0  0  0  0  0  0  0  0
  -85.4649  -13.9933   15.9696 C   0  0  0  0  0  0  0  0  0  0  0  0
  -86.2442  -15.1964   16.0130 C   0  0  0  0  0  0  0  0  0  0  0  0
  -86.1222  -13.1144   15.1380 N   0  0  0  0  0  0  0  0  0  0  0  0
  -87.2491  -13.7426   14.6770 C   0  0  0  0  0  0  0  0  0  0  0  0
  -87.3547  -15.0076   15.1952 N   0  0  0  0  0  0  0  0  0  0  0  0
  -88.4869  -15.5846   14.7137 C   0  0  0  0  0  0  0  0  0  0  0  0
  -88.3083  -13.4883   13.8811 N   0  0  0  0  0  0  0  0  0  0  0  0
  -89.1006  -14.5879   13.8505 C   0  0  0  0  0  0  0  0  0  0  0  0
  -84.2529  -16.8045   18.0607 H   0  0  0  0  0  0  0  0  0  0  0  0
  -90.3807  -14.5932   13.0266 C   0  0  0  0  0  0  0  0  0  0  0  0
  -91.5959  -14.1512   13.5922 C   0  0  0  0  0  0  0  0  0  0  0  0
  -91.6533  -13.7291   15.0903 C   0  0  0  0  0  0  0  0  0  0  0  0
  -92.7317  -14.1215   12.8298 C   0  0  0  0  0  0  0  0  0  0  0  0
  -92.6600  -14.5257   11.4320 C   0  0  0  0  0  0  0  0  0  0  0  0
  -90.3056  -14.9719   11.6572 C   0  0  0  0  0  0  0  0  0  0  0  0
  -91.4424  -14.9439   10.8853 C   0  0  0  0  0  0  0  0  0  0  0  0
  -91.3571  -15.3159    9.6058 O   0  0  0  0  0  0  0  0  0  0  0  0
  -90.5350  -15.5938    9.2525 H   0  0  0  0  0  0  0  0  0  0  0  0
  -88.5082  -12.2041   13.1305 C   0  0  0  0  0  0  0  0  0  0  0  0
  -89.2305  -11.1333   13.6627 C   0  0  0  0  0  0  0  0  0  0  0  0
  -89.3731   -9.9776   12.9096 C   0  0  0  0  0  0  0  0  0  0  0  0
  -88.8114   -9.8984   11.6445 C   0  0  0  0  0  0  0  0  0  0  0  0
  -88.1083  -10.9555   11.1215 C   0  0  0  0  0  0  0  0  0  0  0  0
  -87.9553  -12.1356   11.8902 C   0  0  0  0  0  0  0  0  0  0  0  0
  -87.2446  -13.2408   11.4115 O   0  0  0  0  0  0  0  0  0  0  0  0
  -85.8559  -13.0371   11.1102 C   0  0  0  0  0  0  0  0  0  0  0  0
 29 30  2  0  0  0
 29 28  1  0  0  0
 30 31  1  0  0  0
 28 27  2  0  0  0
 31 32  1  0  0  0
 31 26  2  0  0  0
 27 26  1  0  0  0
 33 32  1  0  0  0
 26 14  1  0  0  0
 24 23  1  0  0  0
 23 22  2  0  0  0
 23 21  1  0  0  0
 14 11  1  0  0  0
 14 15  1  0  0  0
 22 17  1  0  0  0
 10 11  2  0  0  0
 10  8  1  0  0  0
  7  6  1  0  0  0
 21 20  2  0  0  0
 11 12  1  0  0  0
 17 15  1  0  0  0
 17 18  2  0  0  0
 15 13  2  0  0  0
 20 18  1  0  0  0
  8  6  1  0  0  0
  8  9  2  0  0  0
 18 19  1  0  0  0
  6  2  1  0  0  0
 12 13  1  0  0  0
 12  9  1  0  0  0
  9  4  1  0  0  0
  2  1  2  0  0  0
  2  3  1  0  0  0
  4  3  1  0  0  0
  4  5  2  0  0  0
  3 16  1  0  0  0
 24 25  1  0  0  0
M  END
> <minimizedAffinity>
-8.28801

$$$$
5IA2_L66_A_1001


 33 37  0  0  0  0  0  0  0  0999 V2000
  -84.2643  -10.8137    4.3106 O   0  0  0  0  0  0  0  0  0  0  0  0
  -85.1962  -11.0898    5.0625 C   0  0  0  0  0  0  0  0  0  0  0  0
  -86.4674  -11.1536    4.5784 N   0  0  0  0  0  0  0  0  0  0  0  0
  -87.5196  -11.4440    5.3825 C   0  0  0  0  0  0  0  0  0  0  0  0
  -88.8553  -11.4997    4.8622 O   0  0  0  0  0  0  0  0  0  0  0  0
  -84.9785  -11.3244    6.3768 N   0  0  0  0  0  0  0  0  0  0  0  0
  -83.5859  -11.2588    6.9415 C   0  0  0  0  0  0  0  0  0  0  0  0
  -85.9789  -11.6253    7.2153 C   0  0  0  0  0  0  0  0  0  0  0  0
  -87.3299  -11.7049    6.7409 C   0  0  0  0  0  0  0  0  0  0  0  0
  -86.0057  -11.9044    8.5635 N   0  0  0  0  0  0  0  0  0  0  0  0
  -87.3099  -12.1350    8.9142 C   0  0  0  0  0  0  0  0  0  0  0  0
  -88.1387  -12.0269    7.8272 N   0  0  0  0  0  0  0  0  0  0  0  0
  -89.4155  -12.2687    8.2247 C   0  0  0  0  0  0  0  0  0  0  0  0
  -88.0328  -12.4617   10.0053 N   0  0  0  0  0  0  0  0  0  0  0  0
  -89.3385  -12.5452    9.6504 C   0  0  0  0  0  0  0  0  0  0  0  0
  -86.6262  -10.9849    3.6215 H   0  0  0  0  0  0  0  0  0  0  0  0
  -90.3974  -12.9016   10.6845 C   0  0  0  0  0  0  0  0  0  0  0  0
  -91.0104  -14.1729   10.6700 C   0  0  0  0  0  0  0  0  0  0  0  0
  -90.6661  -15.1943    9.5457 C   0  0  0  0  0  0  0  0  0  0  0  0
  -91.9307  -14.4969   11.6292 C   0  0  0  0  0  0  0  0  0  0  0  0
  -92.2446  -13.5264   12.6694 C   0  0  0  0  0  0  0  0  0  0  0  0
  -90.6901  -11.9594   11.7096 C   0  0  0  0  0  0  0  0  0  0  0  0
  -91.6131  -12.2784   12.6767 C   0  0  0  0  0  0  0  0  0  0  0  0
  -91.8865  -11.3772   13.6232 O   0  0  0  0  0  0  0  0  0  0  0  0
  -91.4560  -10.5450   13.6161 H   0  0  0  0  0  0  0  0  0  0  0  0
  -87.4518  -12.6409   11.3774 C   0  0  0  0  0  0  0  0  0  0  0  0
  -87.1785  -13.9017   11.9133 C   0  0  0  0  0  0  0  0  0  0  0  0
  -86.6412  -13.9885   13.1888 C   0  0  0  0  0  0  0  0  0  0  0  0
  -86.3909  -12.8360   13.9177 C   0  0  0  0  0  0  0  0  0  0  0  0
  -86.6676  -11.5986   13.3908 C   0  0  0  0  0  0  0  0  0  0  0  0
  -87.2108  -11.5056   12.0857 C   0  0  0  0  0  0  0  0  0  0  0  0
  -87.5064  -10.2725   11.4960 O   0  0  0  0  0  0  0  0  0  0  0  0
  -86.4809   -9.2690   11.5437 C   0  0  0  0  0  0  0  0  0  0  0  0
 29 30  2  0  0  0
 29 28  1  0  0  0
 30 31  1  0  0  0
 28 27  2  0  0  0
 31 32  1  0  0  0
 31 26  2  0  0  0
 27 26  1  0  0  0
 33 32  1  0  0  0
 26 14  1  0  0  0
 24 23  1  0  0  0
 23 22  2  0  0  0
 23 21  1  0  0  0
 14 11  1  0  0  0
 14 15  1  0  0  0
 22 17  1  0  0  0
 10 11  2  0  0  0
 10  8  1  0  0  0
  7  6  1  0  0  0
 21 20  2  0  0  0
 11 12  1  0  0  0
 17 15  1  0  0  0
 17 18  2  0  0  0
 15 13  2  0  0  0
 20 18  1  0  0  0
  8  6  1  0  0  0
  8  9  2  0  0  0
 18 19  1  0  0  0
  6  2  1  0  0  0
 12 13  1  0  0  0
 12  9  1  0  0  0
  9  4  1  0  0  0
  2  1  2  0  0  0
  2  3  1  0  0  0
  4  3  1  0  0  0
  4  5  2  0  0  0
  3 16  1  0  0  0
 24 25  1  0  0  0
M  END
> <minimizedAffinity>
-8.27133

$$$$
5IA2_L66_A_1001


 33 37  0  0  0  0  0  0  0  0999 V2000
  -93.9372  -14.7174   11.1250 O   0  0  0  0  0  0  0  0  0  0  0  0
  -93.0000  -14.4432   11.8709 C   0  0  0  0  0  0  0  0  0  0  0  0
  -93.1505  -14.5435   13.2206 N   0  0  0  0  0  0  0  0  0  0  0  0
  -92.1410  -14.2376   14.0723 C   0  0  0  0  0  0  0  0  0  0  0  0
  -92.3147  -14.3389   15.4926 O   0  0  0  0  0  0  0  0  0  0  0  0
  -91.8136  -14.0309   11.3685 N   0  0  0  0  0  0  0  0  0  0  0  0
  -91.6177  -13.9078    9.8822 C   0  0  0  0  0  0  0  0  0  0  0  0
  -90.7789  -13.7250   12.1623 C   0  0  0  0  0  0  0  0  0  0  0  0
  -90.8992  -13.8219   13.5881 C   0  0  0  0  0  0  0  0  0  0  0  0
  -89.4983  -13.2972   11.8917 N   0  0  0  0  0  0  0  0  0  0  0  0
  -88.8561  -13.1249   13.0896 C   0  0  0  0  0  0  0  0  0  0  0  0
  -89.6791  -13.4412   14.1397 N   0  0  0  0  0  0  0  0  0  0  0  0
  -88.9966  -13.2597   15.3007 C   0  0  0  0  0  0  0  0  0  0  0  0
  -87.6446  -12.7589   13.5569 N   0  0  0  0  0  0  0  0  0  0  0  0
  -87.6704  -12.8072   14.9114 C   0  0  0  0  0  0  0  0  0  0  0  0
  -94.0131  -14.8453   13.5867 H   0  0  0  0  0  0  0  0  0  0  0  0
  -86.4326  -12.4438   15.7197 C   0  0  0  0  0  0  0  0  0  0  0  0
  -85.4600  -13.4230   16.0155 C   0  0  0  0  0  0  0  0  0  0  0  0
  -85.6844  -14.9030   15.5856 C   0  0  0  0  0  0  0  0  0  0  0  0
  -84.3316  -13.0759   16.7072 C   0  0  0  0  0  0  0  0  0  0  0  0
  -84.1418  -11.6877   17.1064 C   0  0  0  0  0  0  0  0  0  0  0  0
  -86.2404  -11.0847   16.0938 C   0  0  0  0  0  0  0  0  0  0  0  0
  -85.1089  -10.7287   16.7882 C   0  0  0  0  0  0  0  0  0  0  0  0
  -84.9510   -9.4515   17.1439 O   0  0  0  0  0  0  0  0  0  0  0  0
  -85.6070   -8.8195   16.9242 H   0  0  0  0  0  0  0  0  0  0  0  0
  -86.5020  -12.3257   12.6856 C   0  0  0  0  0  0  0  0  0  0  0  0
  -85.5268  -13.2188   12.2349 C   0  0  0  0  0  0  0  0  0  0  0  0
  -84.5002  -12.7449   11.4321 C   0  0  0  0  0  0  0  0  0  0  0  0
  -84.4452  -11.4014   11.0944 C   0  0  0  0  0  0  0  0  0  0  0  0
  -85.4012  -10.5249   11.5452 C   0  0  0  0  0  0  0  0  0  0  0  0
  -86.4550  -11.0063   12.3605 C   0  0  0  0  0  0  0  0  0  0  0  0
  -87.4594  -10.1612   12.8429 O   0  0  0  0  0  0  0  0  0  0  0  0
  -88.4035   -9.6630   11.8831 C   0  0  0  0  0  0  0  0  0  0  0  0
 29 30  2  0  0  0
 29 28  1  0  0  0
 30 31  1  0  0  0
 28 27  2  0  0  0
 31 32  1  0  0  0
 31 26  2  0  0  0
 27 26  1  0  0  0
 33 32  1  0  0  0
 26 14  1  0  0  0
 24 23  1  0  0  0
 23 22  2  0  0  0
 23 21  1  0  0  0
 14 11  1  0  0  0
 14 15  1  0  0  0
 22 17  1  0  0  0
 10 11  2  0  0  0
 10  8  1  0  0  0
  7  6  1  0  0  0
 21 20  2  0  0  0
 11 12  1  0  0  0
 17 15  1  0  0  0
 17 18  2  0  0  0
 15 13  2  0  0  0
 20 18  1  0  0  0
  8  6  1  0  0  0
  8  9  2  0  0  0
 18 19  1  0  0  0
  6  2  1  0  0  0
 12 13  1  0  0  0
 12  9  1  0  0  0
  9  4  1  0  0  0
  2  1  2  0  0  0
  2  3  1  0  0  0
  4  3  1  0  0  0
  4  5  2  0  0  0
  3 16  1  0  0  0
 24 25  1  0  0  0
M  END
> <minimizedAffinity>
-8.24586

$$$$
