2XDX_WOE_A_1224


 18 19  0  0  0  0  0  0  0  0999 V2000
    7.1116   -2.0354    9.4586 C   0  0  0  0  0  0  0  0  0  0  0  0
    7.9760   -2.8257    8.7415 C   0  0  0  0  0  0  0  0  0  0  0  0
    8.3883   -4.0161    9.3144 C   0  0  0  0  0  0  0  0  0  0  0  0
    9.4554   -5.0687    8.4370 Cl  0  0  0  0  0  0  0  0  0  0  0  0
    8.0126   -4.4253   10.5331 N   0  0  0  0  0  0  0  0  0  0  0  0
    7.1547   -3.5806   11.1828 C   0  0  0  0  0  0  0  0  0  0  0  0
    6.7354   -3.9412   12.4513 N   0  0  0  0  0  0  0  0  0  0  0  0
    6.7099   -2.3903   10.6916 N   0  0  0  0  0  0  0  0  0  0  0  0
    7.0332   -4.7933   12.8445 H   0  0  0  0  0  0  0  0  0  0  0  0
    6.1393   -3.3458   12.9606 H   0  0  0  0  0  0  0  0  0  0  0  0
    5.6863   -0.7043    7.8523 C   0  0  0  0  0  0  0  0  0  0  0  0
    5.2109    0.5139    7.3949 C   0  0  0  0  0  0  0  0  0  0  0  0
    5.6465    1.6853    7.9714 C   0  0  0  0  0  0  0  0  0  0  0  0
    6.5340    1.6474    9.0347 C   0  0  0  0  0  0  0  0  0  0  0  0
    7.0101    0.4365    9.5061 C   0  0  0  0  0  0  0  0  0  0  0  0
    6.5831   -0.7541    8.9340 C   0  0  0  0  0  0  0  0  0  0  0  0
    4.5869   -1.9390    6.1175 C   0  0  0  0  0  0  0  0  0  0  0  0
    5.3200   -1.9239    7.3446 O   0  0  0  0  0  0  0  0  0  0  0  0
 17 18  1  0  0  0
 18 11  1  0  0  0
 11 12  1  0  0  0
 11 16  2  0  0  0
 12 13  2  0  0  0
 13 14  1  0  0  0
 14 15  2  0  0  0
 15 16  1  0  0  0
 16  1  1  0  0  0
  1  2  2  0  0  0
  1  8  1  0  0  0
  2  3  1  0  0  0
  3  4  1  0  0  0
  3  5  2  0  0  0
  5  6  1  0  0  0
  6  7  1  0  0  0
  6  8  2  0  0  0
  7  9  1  0  0  0
  7 10  1  0  0  0
M  END
> <minimizedAffinity>
-7.30935

$$$$
2XDX_WOE_A_1224


 18 19  0  0  0  0  0  0  0  0999 V2000
    7.2106   -3.0936    9.8649 C   0  0  0  0  0  0  0  0  0  0  0  0
    7.1090   -1.7247    9.9079 C   0  0  0  0  0  0  0  0  0  0  0  0
    6.7747   -1.1400   11.1169 C   0  0  0  0  0  0  0  0  0  0  0  0
    6.6649    0.5892   11.2347 Cl  0  0  0  0  0  0  0  0  0  0  0  0
    6.5218   -1.8334   12.2345 N   0  0  0  0  0  0  0  0  0  0  0  0
    6.6406   -3.1903   12.1073 C   0  0  0  0  0  0  0  0  0  0  0  0
    6.3831   -3.9655   13.2242 N   0  0  0  0  0  0  0  0  0  0  0  0
    6.9568   -3.8413   10.9531 N   0  0  0  0  0  0  0  0  0  0  0  0
    6.1508   -3.5357   14.0789 H   0  0  0  0  0  0  0  0  0  0  0  0
    6.4322   -4.9470   13.1642 H   0  0  0  0  0  0  0  0  0  0  0  0
    6.6714   -4.0590    7.5932 C   0  0  0  0  0  0  0  0  0  0  0  0
    7.0656   -4.7430    6.4548 C   0  0  0  0  0  0  0  0  0  0  0  0
    8.3475   -5.2336    6.3536 C   0  0  0  0  0  0  0  0  0  0  0  0
    9.2577   -5.0133    7.3747 C   0  0  0  0  0  0  0  0  0  0  0  0
    8.8785   -4.3245    8.5136 C   0  0  0  0  0  0  0  0  0  0  0  0
    7.5885   -3.8255    8.6329 C   0  0  0  0  0  0  0  0  0  0  0  0
    4.5102   -3.5502    6.6914 C   0  0  0  0  0  0  0  0  0  0  0  0
    5.4201   -3.5362    7.7938 O   0  0  0  0  0  0  0  0  0  0  0  0
 17 18  1  0  0  0
 18 11  1  0  0  0
 11 12  1  0  0  0
 11 16  2  0  0  0
 12 13  2  0  0  0
 13 14  1  0  0  0
 14 15  2  0  0  0
 15 16  1  0  0  0
 16  1  1  0  0  0
  1  2  2  0  0  0
  1  8  1  0  0  0
  2  3  1  0  0  0
  3  4  1  0  0  0
  3  5  2  0  0  0
  5  6  1  0  0  0
  6  7  1  0  0  0
  6  8  2  0  0  0
  7  9  1  0  0  0
  7 10  1  0  0  0
M  END
> <minimizedAffinity>
-7.15948

$$$$
2XDX_WOE_A_1224


 18 19  0  0  0  0  0  0  0  0999 V2000
    7.0952   -2.7212    8.5083 C   0  0  0  0  0  0  0  0  0  0  0  0
    6.0091   -3.0289    7.7262 C   0  0  0  0  0  0  0  0  0  0  0  0
    6.2208   -3.8190    6.6099 C   0  0  0  0  0  0  0  0  0  0  0  0
    4.8766   -4.2651    5.6046 Cl  0  0  0  0  0  0  0  0  0  0  0  0
    7.4235   -4.2764    6.2386 N   0  0  0  0  0  0  0  0  0  0  0  0
    8.4528   -3.9229    7.0677 C   0  0  0  0  0  0  0  0  0  0  0  0
    9.7241   -4.3563    6.7347 N   0  0  0  0  0  0  0  0  0  0  0  0
    8.3282   -3.1434    8.1780 N   0  0  0  0  0  0  0  0  0  0  0  0
    9.8591   -4.9216    5.9401 H   0  0  0  0  0  0  0  0  0  0  0  0
   10.4936   -4.0993    7.2925 H   0  0  0  0  0  0  0  0  0  0  0  0
    6.9002   -0.5033    9.7027 C   0  0  0  0  0  0  0  0  0  0  0  0
    6.7911    0.2221   10.8779 C   0  0  0  0  0  0  0  0  0  0  0  0
    6.8048   -0.4252   12.0924 C   0  0  0  0  0  0  0  0  0  0  0  0
    6.8913   -1.8071   12.1414 C   0  0  0  0  0  0  0  0  0  0  0  0
    6.9927   -2.5438   10.9742 C   0  0  0  0  0  0  0  0  0  0  0  0
    6.9833   -1.9063    9.7411 C   0  0  0  0  0  0  0  0  0  0  0  0
    5.7614    0.8137    8.0560 C   0  0  0  0  0  0  0  0  0  0  0  0
    6.9016    0.0447    8.4461 O   0  0  0  0  0  0  0  0  0  0  0  0
 17 18  1  0  0  0
 18 11  1  0  0  0
 11 12  1  0  0  0
 11 16  2  0  0  0
 12 13  2  0  0  0
 13 14  1  0  0  0
 14 15  2  0  0  0
 15 16  1  0  0  0
 16  1  1  0  0  0
  1  2  2  0  0  0
  1  8  1  0  0  0
  2  3  1  0  0  0
  3  4  1  0  0  0
  3  5  2  0  0  0
  5  6  1  0  0  0
  6  7  1  0  0  0
  6  8  2  0  0  0
  7  9  1  0  0  0
  7 10  1  0  0  0
M  END
> <minimizedAffinity>
-7.02974

$$$$
2XDX_WOE_A_1224


 18 19  0  0  0  0  0  0  0  0999 V2000
    6.4657   -1.4848    8.6736 C   0  0  0  0  0  0  0  0  0  0  0  0
    6.7805   -1.4890   10.0103 C   0  0  0  0  0  0  0  0  0  0  0  0
    6.8482   -0.2696   10.6613 C   0  0  0  0  0  0  0  0  0  0  0  0
    7.2102   -0.2201   12.3593 Cl  0  0  0  0  0  0  0  0  0  0  0  0
    6.6496    0.9090   10.0571 N   0  0  0  0  0  0  0  0  0  0  0  0
    6.3447    0.8272    8.7259 C   0  0  0  0  0  0  0  0  0  0  0  0
    6.1367    2.0111    8.0404 N   0  0  0  0  0  0  0  0  0  0  0  0
    6.2671   -0.3309    8.0127 N   0  0  0  0  0  0  0  0  0  0  0  0
    6.1837    2.8710    8.5174 H   0  0  0  0  0  0  0  0  0  0  0  0
    5.9418    1.9935    7.0755 H   0  0  0  0  0  0  0  0  0  0  0  0
    7.3911   -3.6569    7.7741 C   0  0  0  0  0  0  0  0  0  0  0  0
    7.2304   -4.8131    7.0281 C   0  0  0  0  0  0  0  0  0  0  0  0
    6.0523   -5.0417    6.3544 C   0  0  0  0  0  0  0  0  0  0  0  0
    5.0106   -4.1331    6.4497 C   0  0  0  0  0  0  0  0  0  0  0  0
    5.1558   -2.9781    7.1982 C   0  0  0  0  0  0  0  0  0  0  0  0
    6.3386   -2.7310    7.8817 C   0  0  0  0  0  0  0  0  0  0  0  0
    9.3050   -4.4071    9.0058 C   0  0  0  0  0  0  0  0  0  0  0  0
    8.5233   -3.3338    8.4762 O   0  0  0  0  0  0  0  0  0  0  0  0
 17 18  1  0  0  0
 18 11  1  0  0  0
 11 12  1  0  0  0
 11 16  2  0  0  0
 12 13  2  0  0  0
 13 14  1  0  0  0
 14 15  2  0  0  0
 15 16  1  0  0  0
 16  1  1  0  0  0
  1  2  2  0  0  0
  1  8  1  0  0  0
  2  3  1  0  0  0
  3  4  1  0  0  0
  3  5  2  0  0  0
  5  6  1  0  0  0
  6  7  1  0  0  0
  6  8  2  0  0  0
  7  9  1  0  0  0
  7 10  1  0  0  0
M  END
> <minimizedAffinity>
-6.94416

$$$$
2XDX_WOE_A_1224


 18 19  0  0  0  0  0  0  0  0999 V2000
    7.0875   -2.5379    8.4318 C   0  0  0  0  0  0  0  0  0  0  0  0
    5.9879   -2.9010    7.6936 C   0  0  0  0  0  0  0  0  0  0  0  0
    6.1606   -3.8522    6.7033 C   0  0  0  0  0  0  0  0  0  0  0  0
    4.7965   -4.3713    5.7621 Cl  0  0  0  0  0  0  0  0  0  0  0  0
    7.3395   -4.4163    6.4103 N   0  0  0  0  0  0  0  0  0  0  0  0
    8.3846   -3.9985    7.1880 C   0  0  0  0  0  0  0  0  0  0  0  0
    9.6330   -4.5368    6.9299 N   0  0  0  0  0  0  0  0  0  0  0  0
    8.2983   -3.0629    8.1745 N   0  0  0  0  0  0  0  0  0  0  0  0
    9.7402   -5.2159    6.2253 H   0  0  0  0  0  0  0  0  0  0  0  0
   10.4141   -4.2405    7.4510 H   0  0  0  0  0  0  0  0  0  0  0  0
    6.9653   -1.9418   10.8840 C   0  0  0  0  0  0  0  0  0  0  0  0
    6.9039   -0.9872   11.8860 C   0  0  0  0  0  0  0  0  0  0  0  0
    6.8505    0.3497   11.5634 C   0  0  0  0  0  0  0  0  0  0  0  0
    6.8944    0.7457   10.2364 C   0  0  0  0  0  0  0  0  0  0  0  0
    6.9638   -0.1979    9.2264 C   0  0  0  0  0  0  0  0  0  0  0  0
    7.0155   -1.5505    9.5345 C   0  0  0  0  0  0  0  0  0  0  0  0
    6.5924   -3.7810   12.3744 C   0  0  0  0  0  0  0  0  0  0  0  0
    7.0170   -3.2948   11.0989 O   0  0  0  0  0  0  0  0  0  0  0  0
 17 18  1  0  0  0
 18 11  1  0  0  0
 11 12  1  0  0  0
 11 16  2  0  0  0
 12 13  2  0  0  0
 13 14  1  0  0  0
 14 15  2  0  0  0
 15 16  1  0  0  0
 16  1  1  0  0  0
  1  2  2  0  0  0
  1  8  1  0  0  0
  2  3  1  0  0  0
  3  4  1  0  0  0
  3  5  2  0  0  0
  5  6  1  0  0  0
  6  7  1  0  0  0
  6  8  2  0  0  0
  7  9  1  0  0  0
  7 10  1  0  0  0
M  END
> <minimizedAffinity>
-6.91082

$$$$
2XDX_WOE_A_1224


 18 19  0  0  0  0  0  0  0  0999 V2000
    6.9889   -1.7402    9.3854 C   0  0  0  0  0  0  0  0  0  0  0  0
    6.6580   -2.1242   10.6617 C   0  0  0  0  0  0  0  0  0  0  0  0
    7.2272   -3.2855   11.1544 C   0  0  0  0  0  0  0  0  0  0  0  0
    6.8683   -3.7992   12.7742 Cl  0  0  0  0  0  0  0  0  0  0  0  0
    8.0585   -4.0641   10.4499 N   0  0  0  0  0  0  0  0  0  0  0  0
    8.3345   -3.6145    9.1877 C   0  0  0  0  0  0  0  0  0  0  0  0
    9.1805   -4.3791    8.4037 N   0  0  0  0  0  0  0  0  0  0  0  0
    7.8096   -2.4888    8.6280 N   0  0  0  0  0  0  0  0  0  0  0  0
    9.5817   -5.2005    8.7689 H   0  0  0  0  0  0  0  0  0  0  0  0
    9.3810   -4.1016    7.4806 H   0  0  0  0  0  0  0  0  0  0  0  0
    5.6017   -0.5326    7.6531 C   0  0  0  0  0  0  0  0  0  0  0  0
    5.1264    0.6477    7.1052 C   0  0  0  0  0  0  0  0  0  0  0  0
    5.5270    1.8589    7.6215 C   0  0  0  0  0  0  0  0  0  0  0  0
    6.3785    1.9003    8.7138 C   0  0  0  0  0  0  0  0  0  0  0  0
    6.8540    0.7281    9.2753 C   0  0  0  0  0  0  0  0  0  0  0  0
    6.4620   -0.5019    8.7647 C   0  0  0  0  0  0  0  0  0  0  0  0
    5.5013   -2.0881    5.8328 C   0  0  0  0  0  0  0  0  0  0  0  0
    5.2686   -1.7866    7.2107 O   0  0  0  0  0  0  0  0  0  0  0  0
 17 18  1  0  0  0
 18 11  1  0  0  0
 11 12  1  0  0  0
 11 16  2  0  0  0
 12 13  2  0  0  0
 13 14  1  0  0  0
 14 15  2  0  0  0
 15 16  1  0  0  0
 16  1  1  0  0  0
  1  2  2  0  0  0
  1  8  1  0  0  0
  2  3  1  0  0  0
  3  4  1  0  0  0
  3  5  2  0  0  0
  5  6  1  0  0  0
  6  7  1  0  0  0
  6  8  2  0  0  0
  7  9  1  0  0  0
  7 10  1  0  0  0
M  END
> <minimizedAffinity>
-6.86310

$$$$
2XDX_WOE_A_1224


 18 19  0  0  0  0  0  0  0  0999 V2000
    7.2161   -2.8157    9.6385 C   0  0  0  0  0  0  0  0  0  0  0  0
    7.0516   -3.3863   10.8768 C   0  0  0  0  0  0  0  0  0  0  0  0
    6.6772   -2.5613   11.9230 C   0  0  0  0  0  0  0  0  0  0  0  0
    6.4237   -3.2369   13.5027 Cl  0  0  0  0  0  0  0  0  0  0  0  0
    6.4921   -1.2405   11.8002 N   0  0  0  0  0  0  0  0  0  0  0  0
    6.6790   -0.7499   10.5368 C   0  0  0  0  0  0  0  0  0  0  0  0
    6.5120    0.6102   10.3443 N   0  0  0  0  0  0  0  0  0  0  0  0
    7.0547   -1.4931    9.4586 N   0  0  0  0  0  0  0  0  0  0  0  0
    6.2411    1.1842   11.0968 H   0  0  0  0  0  0  0  0  0  0  0  0
    6.6642    1.0038    9.4549 H   0  0  0  0  0  0  0  0  0  0  0  0
    6.6468   -3.9595    7.4588 C   0  0  0  0  0  0  0  0  0  0  0  0
    7.0363   -4.6945    6.3510 C   0  0  0  0  0  0  0  0  0  0  0  0
    8.3401   -5.1172    6.2266 C   0  0  0  0  0  0  0  0  0  0  0  0
    9.2748   -4.7780    7.1915 C   0  0  0  0  0  0  0  0  0  0  0  0
    8.9001   -4.0374    8.2990 C   0  0  0  0  0  0  0  0  0  0  0  0
    7.5884   -3.6055    8.4411 C   0  0  0  0  0  0  0  0  0  0  0  0
    4.4429   -3.5780    6.5986 C   0  0  0  0  0  0  0  0  0  0  0  0
    5.3755   -3.4964    7.6789 O   0  0  0  0  0  0  0  0  0  0  0  0
 17 18  1  0  0  0
 18 11  1  0  0  0
 11 12  1  0  0  0
 11 16  2  0  0  0
 12 13  2  0  0  0
 13 14  1  0  0  0
 14 15  2  0  0  0
 15 16  1  0  0  0
 16  1  1  0  0  0
  1  2  2  0  0  0
  1  8  1  0  0  0
  2  3  1  0  0  0
  3  4  1  0  0  0
  3  5  2  0  0  0
  5  6  1  0  0  0
  6  7  1  0  0  0
  6  8  2  0  0  0
  7  9  1  0  0  0
  7 10  1  0  0  0
M  END
> <minimizedAffinity>
-6.81302

$$$$
2XDX_WOE_A_1224


 18 19  0  0  0  0  0  0  0  0999 V2000
    7.0440   -3.5260    8.1678 C   0  0  0  0  0  0  0  0  0  0  0  0
    8.2299   -3.8805    7.5727 C   0  0  0  0  0  0  0  0  0  0  0  0
    8.1960   -4.2618    6.2428 C   0  0  0  0  0  0  0  0  0  0  0  0
    9.6717   -4.6885    5.4325 Cl  0  0  0  0  0  0  0  0  0  0  0  0
    7.0732   -4.3278    5.5156 N   0  0  0  0  0  0  0  0  0  0  0  0
    5.9356   -3.9625    6.1819 C   0  0  0  0  0  0  0  0  0  0  0  0
    4.7391   -4.0177    5.4890 N   0  0  0  0  0  0  0  0  0  0  0  0
    5.8845   -3.5840    7.4896 N   0  0  0  0  0  0  0  0  0  0  0  0
    4.7307   -4.2864    4.5419 H   0  0  0  0  0  0  0  0  0  0  0  0
    3.8963   -3.7881    5.9431 H   0  0  0  0  0  0  0  0  0  0  0  0
    6.9190   -1.7134    9.9234 C   0  0  0  0  0  0  0  0  0  0  0  0
    6.8391   -1.3332   11.2532 C   0  0  0  0  0  0  0  0  0  0  0  0
    6.8447   -2.2869   12.2453 C   0  0  0  0  0  0  0  0  0  0  0  0
    6.8939   -3.6317   11.9151 C   0  0  0  0  0  0  0  0  0  0  0  0
    6.9659   -4.0247   10.5901 C   0  0  0  0  0  0  0  0  0  0  0  0
    6.9641   -3.0753    9.5773 C   0  0  0  0  0  0  0  0  0  0  0  0
    6.9012    0.5558    9.1529 C   0  0  0  0  0  0  0  0  0  0  0  0
    6.9253   -0.8440    8.8635 O   0  0  0  0  0  0  0  0  0  0  0  0
 17 18  1  0  0  0
 18 11  1  0  0  0
 11 12  1  0  0  0
 11 16  2  0  0  0
 12 13  2  0  0  0
 13 14  1  0  0  0
 14 15  2  0  0  0
 15 16  1  0  0  0
 16  1  1  0  0  0
  1  2  2  0  0  0
  1  8  1  0  0  0
  2  3  1  0  0  0
  3  4  1  0  0  0
  3  5  2  0  0  0
  5  6  1  0  0  0
  6  7  1  0  0  0
  6  8  2  0  0  0
  7  9  1  0  0  0
  7 10  1  0  0  0
M  END
> <minimizedAffinity>
-6.78187

$$$$
2XDX_WOE_A_1224


 18 19  0  0  0  0  0  0  0  0999 V2000
    6.8686   -2.7037    8.4491 C   0  0  0  0  0  0  0  0  0  0  0  0
    8.0069   -3.3103    7.9775 C   0  0  0  0  0  0  0  0  0  0  0  0
    7.9009   -4.0798    6.8321 C   0  0  0  0  0  0  0  0  0  0  0  0
    9.3159   -4.8425    6.1744 Cl  0  0  0  0  0  0  0  0  0  0  0  0
    6.7512   -4.2844    6.1764 N   0  0  0  0  0  0  0  0  0  0  0  0
    5.6643   -3.6491    6.7117 C   0  0  0  0  0  0  0  0  0  0  0  0
    4.4429   -3.8275    6.0862 N   0  0  0  0  0  0  0  0  0  0  0  0
    5.6845   -2.8830    7.8380 N   0  0  0  0  0  0  0  0  0  0  0  0
    4.3833   -4.3739    5.2694 H   0  0  0  0  0  0  0  0  0  0  0  0
    3.6335   -3.4080    6.4579 H   0  0  0  0  0  0  0  0  0  0  0  0
    6.8142   -0.4338    9.5573 C   0  0  0  0  0  0  0  0  0  0  0  0
    6.8105    0.3425   10.7047 C   0  0  0  0  0  0  0  0  0  0  0  0
    6.9013   -0.2538   11.9417 C   0  0  0  0  0  0  0  0  0  0  0  0
    6.9603   -1.6343   12.0442 C   0  0  0  0  0  0  0  0  0  0  0  0
    6.9567   -2.4213   10.9058 C   0  0  0  0  0  0  0  0  0  0  0  0
    6.8684   -1.8356    9.6503 C   0  0  0  0  0  0  0  0  0  0  0  0
    5.9402    1.2325    8.0731 C   0  0  0  0  0  0  0  0  0  0  0  0
    6.7329    0.0612    8.2815 O   0  0  0  0  0  0  0  0  0  0  0  0
 17 18  1  0  0  0
 18 11  1  0  0  0
 11 12  1  0  0  0
 11 16  2  0  0  0
 12 13  2  0  0  0
 13 14  1  0  0  0
 14 15  2  0  0  0
 15 16  1  0  0  0
 16  1  1  0  0  0
  1  2  2  0  0  0
  1  8  1  0  0  0
  2  3  1  0  0  0
  3  4  1  0  0  0
  3  5  2  0  0  0
  5  6  1  0  0  0
  6  7  1  0  0  0
  6  8  2  0  0  0
  7  9  1  0  0  0
  7 10  1  0  0  0
M  END
> <minimizedAffinity>
-6.59439

$$$$
2XDX_WOE_A_1224


 18 19  0  0  0  0  0  0  0  0999 V2000
    6.8821   -2.5312    8.5997 C   0  0  0  0  0  0  0  0  0  0  0  0
    7.9760   -3.2532    8.1896 C   0  0  0  0  0  0  0  0  0  0  0  0
    7.8023   -4.1567    7.1556 C   0  0  0  0  0  0  0  0  0  0  0  0
    9.1598   -5.0719    6.5762 Cl  0  0  0  0  0  0  0  0  0  0  0  0
    6.6274   -4.3823    6.5535 N   0  0  0  0  0  0  0  0  0  0  0  0
    5.5879   -3.6264    7.0222 C   0  0  0  0  0  0  0  0  0  0  0  0
    4.3436   -3.8183    6.4480 N   0  0  0  0  0  0  0  0  0  0  0  0
    5.6753   -2.7241    8.0392 N   0  0  0  0  0  0  0  0  0  0  0  0
    4.2359   -4.4612    5.7102 H   0  0  0  0  0  0  0  0  0  0  0  0
    3.5661   -3.3120    6.7772 H   0  0  0  0  0  0  0  0  0  0  0  0
    6.9679   -1.8742   11.0378 C   0  0  0  0  0  0  0  0  0  0  0  0
    7.0434   -0.8960   12.0158 C   0  0  0  0  0  0  0  0  0  0  0  0
    7.0661    0.4338   11.6618 C   0  0  0  0  0  0  0  0  0  0  0  0
    7.0499    0.7964   10.3246 C   0  0  0  0  0  0  0  0  0  0  0  0
    6.9826   -0.1716    9.3378 C   0  0  0  0  0  0  0  0  0  0  0  0
    6.9562   -1.5172    9.6779 C   0  0  0  0  0  0  0  0  0  0  0  0
    6.4574   -3.6516   12.5620 C   0  0  0  0  0  0  0  0  0  0  0  0
    6.9352   -3.2222   11.2850 O   0  0  0  0  0  0  0  0  0  0  0  0
 17 18  1  0  0  0
 18 11  1  0  0  0
 11 12  1  0  0  0
 11 16  2  0  0  0
 12 13  2  0  0  0
 13 14  1  0  0  0
 14 15  2  0  0  0
 15 16  1  0  0  0
 16  1  1  0  0  0
  1  2  2  0  0  0
  1  8  1  0  0  0
  2  3  1  0  0  0
  3  4  1  0  0  0
  3  5  2  0  0  0
  5  6  1  0  0  0
  6  7  1  0  0  0
  6  8  2  0  0  0
  7  9  1  0  0  0
  7 10  1  0  0  0
M  END
> <minimizedAffinity>
-6.55125

$$$$
