1FD0_254_A_450


 32 35  0  0  0  0  0  0  0  0999 V2000
   40.2778   13.8762   84.7620 C   0  0  0  0  0  0  0  0  0  0  0  0
   40.1918   12.5470   84.8601 N   0  0  0  0  0  0  0  0  0  0  0  0
   39.1287   11.9827   85.4951 O   0  0  0  0  0  0  0  0  0  0  0  0
   39.0658   11.0504   85.5654 H   0  0  0  0  0  0  0  0  0  0  0  0
   42.8160   14.0663   82.0640 C   0  0  0  0  0  0  0  0  0  0  0  0
   43.1172   13.3319   80.7583 C   0  0  0  0  0  0  0  0  0  0  0  0
   44.5125   13.6983   80.2260 C   0  0  0  0  0  0  0  0  0  0  0  0
   44.8485   15.1406   80.3363 C   0  0  0  0  0  0  0  0  0  0  0  0
   44.8504   15.6505   81.7913 C   0  0  0  0  0  0  0  0  0  0  0  0
   43.6271   15.1293   82.5241 C   0  0  0  0  0  0  0  0  0  0  0  0
   42.0527   13.6658   79.7366 C   0  0  0  0  0  0  0  0  0  0  0  0
   43.1105   11.8180   81.0370 C   0  0  0  0  0  0  0  0  0  0  0  0
   44.7309   17.1760   81.6186 C   0  0  0  0  0  0  0  0  0  0  0  0
   46.1302   15.3433   82.5848 C   0  0  0  0  0  0  0  0  0  0  0  0
   41.4357   14.3697   84.0683 C   0  0  0  0  0  0  0  0  0  0  0  0
   41.7320   13.7034   82.8502 C   0  0  0  0  0  0  0  0  0  0  0  0
   43.3115   15.7657   83.7276 C   0  0  0  0  0  0  0  0  0  0  0  0
   42.2584   15.3947   84.4724 C   0  0  0  0  0  0  0  0  0  0  0  0
   35.4765   17.3274   87.7069 C   0  0  0  0  0  0  0  0  0  0  0  0
   35.5304   16.0249   88.3056 C   0  0  0  0  0  0  0  0  0  0  0  0
   36.4803   15.1243   87.8383 C   0  0  0  0  0  0  0  0  0  0  0  0
   37.3821   15.4461   86.8045 C   0  0  0  0  0  0  0  0  0  0  0  0
   37.3189   16.7380   86.2234 C   0  0  0  0  0  0  0  0  0  0  0  0
   36.3676   17.6614   86.6832 C   0  0  0  0  0  0  0  0  0  0  0  0
   38.3312   14.4978   86.3492 C   0  0  0  0  0  0  0  0  0  0  0  0
   39.2366   14.7880   85.3373 C   0  0  0  0  0  0  0  0  0  0  0  0
   39.1125   16.0929   84.7981 C   0  0  0  0  0  0  0  0  0  0  0  0
   38.2238   17.0458   85.1901 C   0  0  0  0  0  0  0  0  0  0  0  0
   34.4633   18.2620   88.2215 C   0  0  0  0  0  0  0  0  0  0  0  0
   34.5928   19.4588   88.0478 O   0  0  0  0  0  0  0  0  0  0  0  0
   33.4905   17.7334   88.8506 O   0  0  0  0  0  0  0  0  0  0  0  0
   33.4477   16.8027   88.9507 H   0  0  0  0  0  0  0  0  0  0  0  0
 29 19  1  0  0  0
 29 30  2  0  0  0
 29 31  1  0  0  0
 19 20  2  0  0  0
 19 24  1  0  0  0
 20 21  1  0  0  0
 21 22  2  0  0  0
 22 23  1  0  0  0
 22 25  1  0  0  0
 23 24  2  0  0  0
 23 28  1  0  0  0
  5  6  1  0  0  0
  5 10  2  0  0  0
  5 16  1  0  0  0
  6  7  1  0  0  0
  6 11  1  0  0  0
  6 12  1  0  0  0
  7  8  1  0  0  0
  8  9  1  0  0  0
  9 10  1  0  0  0
  9 13  1  0  0  0
  9 14  1  0  0  0
 10 17  1  0  0  0
 25 26  2  0  0  0
 26 27  1  0  0  0
 26  1  1  0  0  0
 27 28  2  0  0  0
 15 16  2  0  0  0
 15 18  1  0  0  0
 15  1  1  0  0  0
 17 18  2  0  0  0
  1  2  2  0  0  0
  2  3  1  0  0  0
 31 32  1  0  0  0
  3  4  1  0  0  0
M  END
> <minimizedAffinity>
-16.52891

$$$$
1FD0_254_A_450


 32 35  0  0  0  0  0  0  0  0999 V2000
   40.1983   13.5253   84.5045 C   0  0  0  0  0  0  0  0  0  0  0  0
   40.1762   12.2582   84.9263 N   0  0  0  0  0  0  0  0  0  0  0  0
   39.3124   11.8875   85.9103 O   0  0  0  0  0  0  0  0  0  0  0  0
   39.2948   10.9993   86.2081 H   0  0  0  0  0  0  0  0  0  0  0  0
   42.7657   15.4668   82.6616 C   0  0  0  0  0  0  0  0  0  0  0  0
   43.4820   16.8072   82.8210 C   0  0  0  0  0  0  0  0  0  0  0  0
   44.2416   17.1851   81.5385 C   0  0  0  0  0  0  0  0  0  0  0  0
   44.9615   16.0540   80.8998 C   0  0  0  0  0  0  0  0  0  0  0  0
   44.0237   14.9107   80.4636 C   0  0  0  0  0  0  0  0  0  0  0  0
   43.0268   14.6089   81.5682 C   0  0  0  0  0  0  0  0  0  0  0  0
   44.4285   16.7345   83.9988 C   0  0  0  0  0  0  0  0  0  0  0  0
   42.4257   17.8983   83.0722 C   0  0  0  0  0  0  0  0  0  0  0  0
   44.9874   13.7200   80.3060 C   0  0  0  0  0  0  0  0  0  0  0  0
   43.3002   15.1391   79.1270 C   0  0  0  0  0  0  0  0  0  0  0  0
   41.1421   13.8107   83.4589 C   0  0  0  0  0  0  0  0  0  0  0  0
   41.8218   15.0503   83.5892 C   0  0  0  0  0  0  0  0  0  0  0  0
   42.3414   13.3954   81.4657 C   0  0  0  0  0  0  0  0  0  0  0  0
   41.4302   13.0153   82.3749 C   0  0  0  0  0  0  0  0  0  0  0  0
   35.9324   17.6172   87.4531 C   0  0  0  0  0  0  0  0  0  0  0  0
   35.7742   16.3103   88.0233 C   0  0  0  0  0  0  0  0  0  0  0  0
   36.5824   15.2835   87.5503 C   0  0  0  0  0  0  0  0  0  0  0  0
   37.5419   15.4825   86.5377 C   0  0  0  0  0  0  0  0  0  0  0  0
   37.6891   16.7800   85.9848 C   0  0  0  0  0  0  0  0  0  0  0  0
   36.8830   17.8298   86.4506 C   0  0  0  0  0  0  0  0  0  0  0  0
   38.3419   14.4084   86.0757 C   0  0  0  0  0  0  0  0  0  0  0  0
   39.2996   14.5753   85.0843 C   0  0  0  0  0  0  0  0  0  0  0  0
   39.3878   15.8941   84.5726 C   0  0  0  0  0  0  0  0  0  0  0  0
   38.6493   16.9648   84.9724 C   0  0  0  0  0  0  0  0  0  0  0  0
   35.0660   18.6865   87.9730 C   0  0  0  0  0  0  0  0  0  0  0  0
   34.0008   18.4111   88.4915 O   0  0  0  0  0  0  0  0  0  0  0  0
   35.5016   19.8740   87.8250 O   0  0  0  0  0  0  0  0  0  0  0  0
   36.3321   20.0208   87.4168 H   0  0  0  0  0  0  0  0  0  0  0  0
 29 19  1  0  0  0
 29 30  2  0  0  0
 29 31  1  0  0  0
 19 20  2  0  0  0
 19 24  1  0  0  0
 20 21  1  0  0  0
 21 22  2  0  0  0
 22 23  1  0  0  0
 22 25  1  0  0  0
 23 24  2  0  0  0
 23 28  1  0  0  0
  5  6  1  0  0  0
  5 10  2  0  0  0
  5 16  1  0  0  0
  6  7  1  0  0  0
  6 11  1  0  0  0
  6 12  1  0  0  0
  7  8  1  0  0  0
  8  9  1  0  0  0
  9 10  1  0  0  0
  9 13  1  0  0  0
  9 14  1  0  0  0
 10 17  1  0  0  0
 25 26  2  0  0  0
 26 27  1  0  0  0
 26  1  1  0  0  0
 27 28  2  0  0  0
 15 16  2  0  0  0
 15 18  1  0  0  0
 15  1  1  0  0  0
 17 18  2  0  0  0
  1  2  2  0  0  0
  2  3  1  0  0  0
 31 32  1  0  0  0
  3  4  1  0  0  0
M  END
> <minimizedAffinity>
-13.92115

$$$$
