4ZBF_4M7_A_400


 32 36  0  0  0  0  0  0  0  0999 V2000
  -32.0298   26.3685   -0.0946 C   0  0  0  0  0  0  0  0  0  0  0  0
  -31.4785   27.5756    0.2990 N   0  0  0  0  0  0  0  0  0  0  0  0
  -30.3176   27.3586    1.0011 C   0  0  0  0  0  0  0  0  0  0  0  0
  -32.0060   28.9201    0.0446 C   0  0  0  0  0  0  0  0  0  0  0  0
  -31.0811   29.7615   -0.7990 C   0  0  0  0  0  0  0  0  0  0  0  0
  -30.1380   30.6437   -0.0299 C   0  0  0  0  0  0  0  0  0  0  0  0
  -29.6548   30.0187    1.5477 S   0  0  0  0  0  0  0  0  0  0  0  0
  -30.7366   30.3954    2.5037 O   0  0  0  0  0  0  0  0  0  0  0  0
  -29.4022   28.2240    1.6054 C   0  0  0  0  0  0  0  0  0  0  0  0
  -28.2681   27.7255    2.2743 C   0  0  0  0  0  0  0  0  0  0  0  0
  -28.0583   26.3252    2.3357 C   0  0  0  0  0  0  0  0  0  0  0  0
  -28.9697   25.4484    1.7280 C   0  0  0  0  0  0  0  0  0  0  0  0
  -30.0908   25.9581    1.0646 C   0  0  0  0  0  0  0  0  0  0  0  0
  -31.1846   25.3435    0.3577 C   0  0  0  0  0  0  0  0  0  0  0  0
  -34.3341   25.7112   -0.3749 O   0  0  0  0  0  0  0  0  0  0  0  0
  -33.2868   26.1732   -0.8995 C   0  0  0  0  0  0  0  0  0  0  0  0
  -33.2984   26.4413   -2.1274 O   0  0  0  0  0  0  0  0  0  0  0  0
  -34.3483   25.5041    0.5389 H   0  0  0  0  0  0  0  0  0  0  0  0
  -31.4112   23.8654    0.1610 C   0  0  0  0  0  0  0  0  0  0  0  0
  -32.4968   23.3096    1.0628 C   0  0  0  0  0  0  0  0  0  0  0  0
  -32.0198   22.8043    2.3911 C   0  0  0  0  0  0  0  0  0  0  0  0
  -30.6940   22.4330    2.3523 O   0  0  0  0  0  0  0  0  0  0  0  0
  -30.1383   21.6031    3.3070 C   0  0  0  0  0  0  0  0  0  0  0  0
  -29.1401   20.7090    2.8835 C   0  0  0  0  0  0  0  0  0  0  0  0
  -28.7680   20.6708    1.5068 C   0  0  0  0  0  0  0  0  0  0  0  0
  -27.7814   19.7875    1.0968 C   0  0  0  0  0  0  0  0  0  0  0  0
  -27.1692   18.9478    2.0268 C   0  0  0  0  0  0  0  0  0  0  0  0
  -27.5469   18.9754    3.3708 C   0  0  0  0  0  0  0  0  0  0  0  0
  -28.5387   19.8804    3.8005 C   0  0  0  0  0  0  0  0  0  0  0  0
  -28.9176   19.9344    5.1600 C   0  0  0  0  0  0  0  0  0  0  0  0
  -29.9121   20.8224    5.5731 C   0  0  0  0  0  0  0  0  0  0  0  0
  -30.5272   21.6695    4.6375 C   0  0  0  0  0  0  0  0  0  0  0  0
 17 16  2  0  0  0
 16 15  1  0  0  0
 16  1  1  0  0  0
 19 14  1  0  0  0
 19 20  1  0  0  0
  1 14  2  0  0  0
  1  2  1  0  0  0
 14 13  1  0  0  0
 20 21  1  0  0  0
  5  4  1  0  0  0
  5  6  1  0  0  0
  2  4  1  0  0  0
  2  3  1  0  0  0
 26 25  2  0  0  0
 26 27  1  0  0  0
 13  3  2  0  0  0
 13 12  1  0  0  0
 25 24  1  0  0  0
  3  9  1  0  0  0
 12 11  2  0  0  0
  6  7  1  0  0  0
 22 21  1  0  0  0
 22 23  1  0  0  0
 27 28  2  0  0  0
  9 10  2  0  0  0
  9  7  1  0  0  0
 11 10  1  0  0  0
 24 23  2  0  0  0
 24 29  1  0  0  0
  7  8  2  0  0  0
 23 32  1  0  0  0
 28 29  1  0  0  0
 29 30  2  0  0  0
 32 31  2  0  0  0
 30 31  1  0  0  0
 15 18  1  0  0  0
M  END
> <minimizedAffinity>
-11.70328

$$$$
4ZBF_4M7_A_400


 32 36  0  0  0  0  0  0  0  0999 V2000
  -31.9205   26.6608   -0.3487 C   0  0  0  0  0  0  0  0  0  0  0  0
  -31.3456   27.8164    0.1511 N   0  0  0  0  0  0  0  0  0  0  0  0
  -30.2477   27.5055    0.9164 C   0  0  0  0  0  0  0  0  0  0  0  0
  -31.7940   29.1967   -0.0595 C   0  0  0  0  0  0  0  0  0  0  0  0
  -30.7758   30.0381   -0.7878 C   0  0  0  0  0  0  0  0  0  0  0  0
  -29.8512   30.8301    0.0936 C   0  0  0  0  0  0  0  0  0  0  0  0
  -29.5083   30.0964    1.6611 S   0  0  0  0  0  0  0  0  0  0  0  0
  -30.6370   30.4713    2.5619 O   0  0  0  0  0  0  0  0  0  0  0  0
  -29.3398   28.2912    1.6309 C   0  0  0  0  0  0  0  0  0  0  0  0
  -28.2787   27.7027    2.3449 C   0  0  0  0  0  0  0  0  0  0  0  0
  -28.1357   26.2926    2.3384 C   0  0  0  0  0  0  0  0  0  0  0  0
  -29.0398   25.4956    1.6202 C   0  0  0  0  0  0  0  0  0  0  0  0
  -30.0879   26.0943    0.9132 C   0  0  0  0  0  0  0  0  0  0  0  0
  -31.1553   25.5730    0.0992 C   0  0  0  0  0  0  0  0  0  0  0  0
  -34.1977   26.0428   -0.8517 O   0  0  0  0  0  0  0  0  0  0  0  0
  -33.1251   26.5709   -1.2470 C   0  0  0  0  0  0  0  0  0  0  0  0
  -33.0655   26.9974   -2.4278 O   0  0  0  0  0  0  0  0  0  0  0  0
  -34.2648   25.7180    0.0246 H   0  0  0  0  0  0  0  0  0  0  0  0
  -31.4324   24.1206   -0.1985 C   0  0  0  0  0  0  0  0  0  0  0  0
  -32.6225   23.5776    0.5694 C   0  0  0  0  0  0  0  0  0  0  0  0
  -32.2787   22.6662    1.7089 C   0  0  0  0  0  0  0  0  0  0  0  0
  -30.9899   22.8638    2.1526 O   0  0  0  0  0  0  0  0  0  0  0  0
  -30.0788   21.8287    2.2388 C   0  0  0  0  0  0  0  0  0  0  0  0
  -29.8522   21.2717    3.5091 C   0  0  0  0  0  0  0  0  0  0  0  0
  -30.5338   21.8055    4.6430 C   0  0  0  0  0  0  0  0  0  0  0  0
  -30.3066   21.2498    5.8925 C   0  0  0  0  0  0  0  0  0  0  0  0
  -29.4172   20.1844    6.0287 C   0  0  0  0  0  0  0  0  0  0  0  0
  -28.7388   19.6746    4.9199 C   0  0  0  0  0  0  0  0  0  0  0  0
  -28.9739   20.2229    3.6426 C   0  0  0  0  0  0  0  0  0  0  0  0
  -28.3106   19.7052    2.5082 C   0  0  0  0  0  0  0  0  0  0  0  0
  -28.5378   20.2654    1.2502 C   0  0  0  0  0  0  0  0  0  0  0  0
  -29.4348   21.3367    1.1123 C   0  0  0  0  0  0  0  0  0  0  0  0
 17 16  2  0  0  0
 16 15  1  0  0  0
 16  1  1  0  0  0
 19 14  1  0  0  0
 19 20  1  0  0  0
  1 14  2  0  0  0
  1  2  1  0  0  0
 14 13  1  0  0  0
 20 21  1  0  0  0
  5  4  1  0  0  0
  5  6  1  0  0  0
  2  4  1  0  0  0
  2  3  1  0  0  0
 26 25  2  0  0  0
 26 27  1  0  0  0
 13  3  2  0  0  0
 13 12  1  0  0  0
 25 24  1  0  0  0
  3  9  1  0  0  0
 12 11  2  0  0  0
  6  7  1  0  0  0
 22 21  1  0  0  0
 22 23  1  0  0  0
 27 28  2  0  0  0
  9 10  2  0  0  0
  9  7  1  0  0  0
 11 10  1  0  0  0
 24 23  2  0  0  0
 24 29  1  0  0  0
  7  8  2  0  0  0
 23 32  1  0  0  0
 28 29  1  0  0  0
 29 30  2  0  0  0
 32 31  2  0  0  0
 30 31  1  0  0  0
 15 18  1  0  0  0
M  END
> <minimizedAffinity>
-11.24346

$$$$
4ZBF_4M7_A_400


 32 36  0  0  0  0  0  0  0  0999 V2000
  -31.5315   25.9087   -0.0194 C   0  0  0  0  0  0  0  0  0  0  0  0
  -31.8576   27.2528   -0.0718 N   0  0  0  0  0  0  0  0  0  0  0  0
  -30.9216   27.9933    0.6089 C   0  0  0  0  0  0  0  0  0  0  0  0
  -33.0170   27.8624   -0.7312 C   0  0  0  0  0  0  0  0  0  0  0  0
  -32.6293   28.8010   -1.8464 C   0  0  0  0  0  0  0  0  0  0  0  0
  -32.5162   30.2479   -1.4554 C   0  0  0  0  0  0  0  0  0  0  0  0
  -32.0276   30.5303    0.2162 S   0  0  0  0  0  0  0  0  0  0  0  0
  -33.2662   30.4366    1.0427 O   0  0  0  0  0  0  0  0  0  0  0  0
  -30.7936   29.3633    0.8513 C   0  0  0  0  0  0  0  0  0  0  0  0
  -29.7100   29.8686    1.5947 C   0  0  0  0  0  0  0  0  0  0  0  0
  -28.7397   28.9703    2.1050 C   0  0  0  0  0  0  0  0  0  0  0  0
  -28.8573   27.5933    1.8629 C   0  0  0  0  0  0  0  0  0  0  0  0
  -29.9380   27.1058    1.1205 C   0  0  0  0  0  0  0  0  0  0  0  0
  -30.3369   25.7855    0.7067 C   0  0  0  0  0  0  0  0  0  0  0  0
  -32.2652   24.5905   -1.9021 O   0  0  0  0  0  0  0  0  0  0  0  0
  -32.2879   24.7738   -0.6565 C   0  0  0  0  0  0  0  0  0  0  0  0
  -32.9864   24.0047    0.0508 O   0  0  0  0  0  0  0  0  0  0  0  0
  -31.7513   25.1516   -2.4489 H   0  0  0  0  0  0  0  0  0  0  0  0
  -29.6269   24.4920    1.0193 C   0  0  0  0  0  0  0  0  0  0  0  0
  -29.7451   24.0913    2.4774 C   0  0  0  0  0  0  0  0  0  0  0  0
  -31.0397   23.4342    2.8508 C   0  0  0  0  0  0  0  0  0  0  0  0
  -30.9739   22.0641    2.7264 O   0  0  0  0  0  0  0  0  0  0  0  0
  -30.2014   21.2890    3.5698 C   0  0  0  0  0  0  0  0  0  0  0  0
  -29.1468   20.5608    2.9929 C   0  0  0  0  0  0  0  0  0  0  0  0
  -28.9374   20.6234    1.5831 C   0  0  0  0  0  0  0  0  0  0  0  0
  -27.8942   19.9039    1.0214 C   0  0  0  0  0  0  0  0  0  0  0  0
  -27.0676   19.1279    1.8335 C   0  0  0  0  0  0  0  0  0  0  0  0
  -27.2850   19.0552    3.2109 C   0  0  0  0  0  0  0  0  0  0  0  0
  -28.3340   19.7947    3.7939 C   0  0  0  0  0  0  0  0  0  0  0  0
  -28.5543   19.7474    5.1882 C   0  0  0  0  0  0  0  0  0  0  0  0
  -29.6056   20.4704    5.7541 C   0  0  0  0  0  0  0  0  0  0  0  0
  -30.4366   21.2534    4.9370 C   0  0  0  0  0  0  0  0  0  0  0  0
 17 16  2  0  0  0
 16 15  1  0  0  0
 16  1  1  0  0  0
 19 14  1  0  0  0
 19 20  1  0  0  0
  1 14  2  0  0  0
  1  2  1  0  0  0
 14 13  1  0  0  0
 20 21  1  0  0  0
  5  4  1  0  0  0
  5  6  1  0  0  0
  2  4  1  0  0  0
  2  3  1  0  0  0
 26 25  2  0  0  0
 26 27  1  0  0  0
 13  3  2  0  0  0
 13 12  1  0  0  0
 25 24  1  0  0  0
  3  9  1  0  0  0
 12 11  2  0  0  0
  6  7  1  0  0  0
 22 21  1  0  0  0
 22 23  1  0  0  0
 27 28  2  0  0  0
  9 10  2  0  0  0
  9  7  1  0  0  0
 11 10  1  0  0  0
 24 23  2  0  0  0
 24 29  1  0  0  0
  7  8  2  0  0  0
 23 32  1  0  0  0
 28 29  1  0  0  0
 29 30  2  0  0  0
 32 31  2  0  0  0
 30 31  1  0  0  0
 15 18  1  0  0  0
M  END
> <minimizedAffinity>
-10.97125

$$$$
4ZBF_4M7_A_400


 32 36  0  0  0  0  0  0  0  0999 V2000
  -29.9701   27.0199    1.3216 C   0  0  0  0  0  0  0  0  0  0  0  0
  -30.8684   27.7210    0.5360 N   0  0  0  0  0  0  0  0  0  0  0  0
  -31.6210   26.8497   -0.2139 C   0  0  0  0  0  0  0  0  0  0  0  0
  -31.0391   29.1756    0.4610 C   0  0  0  0  0  0  0  0  0  0  0  0
  -32.4065   29.6281    0.9090 C   0  0  0  0  0  0  0  0  0  0  0  0
  -33.4188   29.7916   -0.1900 C   0  0  0  0  0  0  0  0  0  0  0  0
  -33.1959   28.7177   -1.5719 S   0  0  0  0  0  0  0  0  0  0  0  0
  -32.1810   29.3646   -2.4537 O   0  0  0  0  0  0  0  0  0  0  0  0
  -32.6417   27.0440   -1.1480 C   0  0  0  0  0  0  0  0  0  0  0  0
  -33.2596   25.9498   -1.7829 C   0  0  0  0  0  0  0  0  0  0  0  0
  -32.8342   24.6348   -1.4691 C   0  0  0  0  0  0  0  0  0  0  0  0
  -31.8131   24.4294   -0.5291 C   0  0  0  0  0  0  0  0  0  0  0  0
  -31.2099   25.5261    0.0958 C   0  0  0  0  0  0  0  0  0  0  0  0
  -30.1646   25.6516    1.0782 C   0  0  0  0  0  0  0  0  0  0  0  0
  -29.3012   28.5530    3.0603 O   0  0  0  0  0  0  0  0  0  0  0  0
  -28.9835   27.6022    2.2983 C   0  0  0  0  0  0  0  0  0  0  0  0
  -27.8066   27.1637    2.3441 O   0  0  0  0  0  0  0  0  0  0  0  0
  -30.1731   28.8959    3.0432 H   0  0  0  0  0  0  0  0  0  0  0  0
  -29.3875   24.5259    1.7135 C   0  0  0  0  0  0  0  0  0  0  0  0
  -29.9267   24.1316    3.0754 C   0  0  0  0  0  0  0  0  0  0  0  0
  -31.2171   23.3692    3.0493 C   0  0  0  0  0  0  0  0  0  0  0  0
  -31.0152   22.0273    2.8134 O   0  0  0  0  0  0  0  0  0  0  0  0
  -30.2142   21.2531    3.6307 C   0  0  0  0  0  0  0  0  0  0  0  0
  -29.1536   20.5581    3.0248 C   0  0  0  0  0  0  0  0  0  0  0  0
  -28.9666   20.6513    1.6136 C   0  0  0  0  0  0  0  0  0  0  0  0
  -27.9172   19.9644    1.0232 C   0  0  0  0  0  0  0  0  0  0  0  0
  -27.0626   19.1911    1.8084 C   0  0  0  0  0  0  0  0  0  0  0  0
  -27.2578   19.0882    3.1872 C   0  0  0  0  0  0  0  0  0  0  0  0
  -28.3131   19.7946    3.7993 C   0  0  0  0  0  0  0  0  0  0  0  0
  -28.5115   19.7168    5.1955 C   0  0  0  0  0  0  0  0  0  0  0  0
  -29.5689   20.4069    5.7902 C   0  0  0  0  0  0  0  0  0  0  0  0
  -30.4282   21.1872    5.0002 C   0  0  0  0  0  0  0  0  0  0  0  0
 17 16  2  0  0  0
 16 15  1  0  0  0
 16  1  1  0  0  0
 19 14  1  0  0  0
 19 20  1  0  0  0
  1 14  2  0  0  0
  1  2  1  0  0  0
 14 13  1  0  0  0
 20 21  1  0  0  0
  5  4  1  0  0  0
  5  6  1  0  0  0
  2  4  1  0  0  0
  2  3  1  0  0  0
 26 25  2  0  0  0
 26 27  1  0  0  0
 13  3  2  0  0  0
 13 12  1  0  0  0
 25 24  1  0  0  0
  3  9  1  0  0  0
 12 11  2  0  0  0
  6  7  1  0  0  0
 22 21  1  0  0  0
 22 23  1  0  0  0
 27 28  2  0  0  0
  9 10  2  0  0  0
  9  7  1  0  0  0
 11 10  1  0  0  0
 24 23  2  0  0  0
 24 29  1  0  0  0
  7  8  2  0  0  0
 23 32  1  0  0  0
 28 29  1  0  0  0
 29 30  2  0  0  0
 32 31  2  0  0  0
 30 31  1  0  0  0
 15 18  1  0  0  0
M  END
> <minimizedAffinity>
-10.47881

$$$$
4ZBF_4M7_A_400


 32 36  0  0  0  0  0  0  0  0999 V2000
  -30.5469   27.6322    1.3322 C   0  0  0  0  0  0  0  0  0  0  0  0
  -31.1157   28.3803    0.3160 N   0  0  0  0  0  0  0  0  0  0  0  0
  -31.8695   27.5725   -0.5006 C   0  0  0  0  0  0  0  0  0  0  0  0
  -30.9709   29.8209    0.0831 C   0  0  0  0  0  0  0  0  0  0  0  0
  -32.2787   30.5650    0.1883 C   0  0  0  0  0  0  0  0  0  0  0  0
  -33.0051   30.7700   -1.1116 C   0  0  0  0  0  0  0  0  0  0  0  0
  -32.7412   29.5097   -2.3176 S   0  0  0  0  0  0  0  0  0  0  0  0
  -31.4656   29.8477   -3.0137 O   0  0  0  0  0  0  0  0  0  0  0  0
  -32.6296   27.8296   -1.6444 C   0  0  0  0  0  0  0  0  0  0  0  0
  -33.3214   26.7944   -2.3015 C   0  0  0  0  0  0  0  0  0  0  0  0
  -33.2397   25.4737   -1.7935 C   0  0  0  0  0  0  0  0  0  0  0  0
  -32.4826   25.2064   -0.6429 C   0  0  0  0  0  0  0  0  0  0  0  0
  -31.8025   26.2455    0.0010 C   0  0  0  0  0  0  0  0  0  0  0  0
  -30.9634   26.3019    1.1699 C   0  0  0  0  0  0  0  0  0  0  0  0
  -30.1072   28.9612    3.2973 O   0  0  0  0  0  0  0  0  0  0  0  0
  -29.6708   28.1442    2.4442 C   0  0  0  0  0  0  0  0  0  0  0  0
  -28.4690   27.7839    2.5180 O   0  0  0  0  0  0  0  0  0  0  0  0
  -30.9999   29.2437    3.2616 H   0  0  0  0  0  0  0  0  0  0  0  0
  -30.5678   25.1427    2.0500 C   0  0  0  0  0  0  0  0  0  0  0  0
  -29.3814   24.3684    1.5081 C   0  0  0  0  0  0  0  0  0  0  0  0
  -29.7318   23.2058    0.6291 C   0  0  0  0  0  0  0  0  0  0  0  0
  -30.2886   22.1701    1.3464 O   0  0  0  0  0  0  0  0  0  0  0  0
  -29.5128   21.2131    1.9720 C   0  0  0  0  0  0  0  0  0  0  0  0
  -29.6536   21.0761    3.3636 C   0  0  0  0  0  0  0  0  0  0  0  0
  -30.5505   21.9335    4.0677 C   0  0  0  0  0  0  0  0  0  0  0  0
  -30.6855   21.7913    5.4400 C   0  0  0  0  0  0  0  0  0  0  0  0
  -29.9455   20.8209    6.1149 C   0  0  0  0  0  0  0  0  0  0  0  0
  -29.0560   19.9941    5.4259 C   0  0  0  0  0  0  0  0  0  0  0  0
  -28.9224   20.1208    4.0282 C   0  0  0  0  0  0  0  0  0  0  0  0
  -28.0418   19.2785    3.3141 C   0  0  0  0  0  0  0  0  0  0  0  0
  -27.9043   19.4223    1.9327 C   0  0  0  0  0  0  0  0  0  0  0  0
  -28.6507   20.3978    1.2525 C   0  0  0  0  0  0  0  0  0  0  0  0
 17 16  2  0  0  0
 16 15  1  0  0  0
 16  1  1  0  0  0
 19 14  1  0  0  0
 19 20  1  0  0  0
  1 14  2  0  0  0
  1  2  1  0  0  0
 14 13  1  0  0  0
 20 21  1  0  0  0
  5  4  1  0  0  0
  5  6  1  0  0  0
  2  4  1  0  0  0
  2  3  1  0  0  0
 26 25  2  0  0  0
 26 27  1  0  0  0
 13  3  2  0  0  0
 13 12  1  0  0  0
 25 24  1  0  0  0
  3  9  1  0  0  0
 12 11  2  0  0  0
  6  7  1  0  0  0
 22 21  1  0  0  0
 22 23  1  0  0  0
 27 28  2  0  0  0
  9 10  2  0  0  0
  9  7  1  0  0  0
 11 10  1  0  0  0
 24 23  2  0  0  0
 24 29  1  0  0  0
  7  8  2  0  0  0
 23 32  1  0  0  0
 28 29  1  0  0  0
 29 30  2  0  0  0
 32 31  2  0  0  0
 30 31  1  0  0  0
 15 18  1  0  0  0
M  END
> <minimizedAffinity>
-10.15486

$$$$
4ZBF_4M7_A_400


 32 36  0  0  0  0  0  0  0  0999 V2000
  -31.5798   26.2397   -0.1905 C   0  0  0  0  0  0  0  0  0  0  0  0
  -32.0208   27.5517   -0.1924 N   0  0  0  0  0  0  0  0  0  0  0  0
  -31.1084   28.3580    0.4441 C   0  0  0  0  0  0  0  0  0  0  0  0
  -33.2677   28.0708   -0.7637 C   0  0  0  0  0  0  0  0  0  0  0  0
  -33.0334   29.0577   -1.8801 C   0  0  0  0  0  0  0  0  0  0  0  0
  -33.0175   30.5022   -1.4650 C   0  0  0  0  0  0  0  0  0  0  0  0
  -32.4474   30.7974    0.1783 S   0  0  0  0  0  0  0  0  0  0  0  0
  -33.6176   30.5842    1.0790 O   0  0  0  0  0  0  0  0  0  0  0  0
  -31.0809   29.7297    0.7083 C   0  0  0  0  0  0  0  0  0  0  0  0
  -29.9979   30.3133    1.3929 C   0  0  0  0  0  0  0  0  0  0  0  0
  -28.9244   29.4929    1.8210 C   0  0  0  0  0  0  0  0  0  0  0  0
  -28.9409   28.1151    1.5564 C   0  0  0  0  0  0  0  0  0  0  0  0
  -30.0224   27.5494    0.8729 C   0  0  0  0  0  0  0  0  0  0  0  0
  -30.3346   26.2069    0.4560 C   0  0  0  0  0  0  0  0  0  0  0  0
  -32.1766   24.8008   -2.0328 O   0  0  0  0  0  0  0  0  0  0  0  0
  -32.2776   25.0550   -0.8036 C   0  0  0  0  0  0  0  0  0  0  0  0
  -33.0047   24.3142   -0.0951 O   0  0  0  0  0  0  0  0  0  0  0  0
  -31.6401   25.3398   -2.5802 H   0  0  0  0  0  0  0  0  0  0  0  0
  -29.4994   24.9739    0.6944 C   0  0  0  0  0  0  0  0  0  0  0  0
  -29.5950   24.4628    2.1193 C   0  0  0  0  0  0  0  0  0  0  0  0
  -30.9442   23.9446    2.5172 C   0  0  0  0  0  0  0  0  0  0  0  0
  -31.1497   22.6566    2.0746 O   0  0  0  0  0  0  0  0  0  0  0  0
  -30.1738   21.6837    2.1756 C   0  0  0  0  0  0  0  0  0  0  0  0
  -29.9189   21.1546    3.4524 C   0  0  0  0  0  0  0  0  0  0  0  0
  -30.6403   21.6536    4.5775 C   0  0  0  0  0  0  0  0  0  0  0  0
  -30.3847   21.1256    5.8335 C   0  0  0  0  0  0  0  0  0  0  0  0
  -29.4288   20.1215    5.9847 C   0  0  0  0  0  0  0  0  0  0  0  0
  -28.7123   19.6465    4.8844 C   0  0  0  0  0  0  0  0  0  0  0  0
  -28.9752   20.1664    3.6007 C   0  0  0  0  0  0  0  0  0  0  0  0
  -28.2732   19.6822    2.4749 C   0  0  0  0  0  0  0  0  0  0  0  0
  -28.5289   20.2146    1.2103 C   0  0  0  0  0  0  0  0  0  0  0  0
  -29.4927   21.2240    1.0573 C   0  0  0  0  0  0  0  0  0  0  0  0
 17 16  2  0  0  0
 16 15  1  0  0  0
 16  1  1  0  0  0
 19 14  1  0  0  0
 19 20  1  0  0  0
  1 14  2  0  0  0
  1  2  1  0  0  0
 14 13  1  0  0  0
 20 21  1  0  0  0
  5  4  1  0  0  0
  5  6  1  0  0  0
  2  4  1  0  0  0
  2  3  1  0  0  0
 26 25  2  0  0  0
 26 27  1  0  0  0
 13  3  2  0  0  0
 13 12  1  0  0  0
 25 24  1  0  0  0
  3  9  1  0  0  0
 12 11  2  0  0  0
  6  7  1  0  0  0
 22 21  1  0  0  0
 22 23  1  0  0  0
 27 28  2  0  0  0
  9 10  2  0  0  0
  9  7  1  0  0  0
 11 10  1  0  0  0
 24 23  2  0  0  0
 24 29  1  0  0  0
  7  8  2  0  0  0
 23 32  1  0  0  0
 28 29  1  0  0  0
 29 30  2  0  0  0
 32 31  2  0  0  0
 30 31  1  0  0  0
 15 18  1  0  0  0
M  END
> <minimizedAffinity>
-9.84987

$$$$
4ZBF_4M7_A_400


 32 36  0  0  0  0  0  0  0  0999 V2000
  -31.8143   27.2640    0.0009 C   0  0  0  0  0  0  0  0  0  0  0  0
  -31.3266   28.5275    0.2860 N   0  0  0  0  0  0  0  0  0  0  0  0
  -30.1923   28.4339    1.0557 C   0  0  0  0  0  0  0  0  0  0  0  0
  -31.8907   29.8148   -0.1327 C   0  0  0  0  0  0  0  0  0  0  0  0
  -30.9592   30.6004   -1.0215 C   0  0  0  0  0  0  0  0  0  0  0  0
  -30.0858   31.5970   -0.3120 C   0  0  0  0  0  0  0  0  0  0  0  0
  -29.6537   31.1619    1.3422 S   0  0  0  0  0  0  0  0  0  0  0  0
  -30.7917   31.5919    2.2060 O   0  0  0  0  0  0  0  0  0  0  0  0
  -29.3383   29.3952    1.6022 C   0  0  0  0  0  0  0  0  0  0  0  0
  -28.2188   29.0173    2.3678 C   0  0  0  0  0  0  0  0  0  0  0  0
  -27.9609   27.6411    2.5873 C   0  0  0  0  0  0  0  0  0  0  0  0
  -28.8103   26.6682    2.0389 C   0  0  0  0  0  0  0  0  0  0  0  0
  -29.9174   27.0584    1.2781 C   0  0  0  0  0  0  0  0  0  0  0  0
  -30.9539   26.3281    0.5955 C   0  0  0  0  0  0  0  0  0  0  0  0
  -33.1402   27.3520   -2.0128 O   0  0  0  0  0  0  0  0  0  0  0  0
  -33.0247   26.9332   -0.8309 C   0  0  0  0  0  0  0  0  0  0  0  0
  -33.9616   26.2541   -0.3403 O   0  0  0  0  0  0  0  0  0  0  0  0
  -32.4541   27.8601   -2.3990 H   0  0  0  0  0  0  0  0  0  0  0  0
  -31.1167   24.8294    0.5485 C   0  0  0  0  0  0  0  0  0  0  0  0
  -29.8166   24.1034    0.2599 C   0  0  0  0  0  0  0  0  0  0  0  0
  -29.7852   22.6666    0.6865 C   0  0  0  0  0  0  0  0  0  0  0  0
  -30.8473   22.3515    1.5048 O   0  0  0  0  0  0  0  0  0  0  0  0
  -30.6957   22.1808    2.8675 C   0  0  0  0  0  0  0  0  0  0  0  0
  -29.7592   21.2257    3.2986 C   0  0  0  0  0  0  0  0  0  0  0  0
  -29.0379   20.4621    2.3332 C   0  0  0  0  0  0  0  0  0  0  0  0
  -28.1146   19.5231    2.7659 C   0  0  0  0  0  0  0  0  0  0  0  0
  -27.9039   19.3324    4.1312 C   0  0  0  0  0  0  0  0  0  0  0  0
  -28.6231   20.0692    5.0743 C   0  0  0  0  0  0  0  0  0  0  0  0
  -29.5537   21.0370    4.6445 C   0  0  0  0  0  0  0  0  0  0  0  0
  -30.2745   21.8046    5.5858 C   0  0  0  0  0  0  0  0  0  0  0  0
  -31.2055   22.7490    5.1507 C   0  0  0  0  0  0  0  0  0  0  0  0
  -31.4164   22.9428    3.7762 C   0  0  0  0  0  0  0  0  0  0  0  0
 17 16  2  0  0  0
 16 15  1  0  0  0
 16  1  1  0  0  0
 19 14  1  0  0  0
 19 20  1  0  0  0
  1 14  2  0  0  0
  1  2  1  0  0  0
 14 13  1  0  0  0
 20 21  1  0  0  0
  5  4  1  0  0  0
  5  6  1  0  0  0
  2  4  1  0  0  0
  2  3  1  0  0  0
 26 25  2  0  0  0
 26 27  1  0  0  0
 13  3  2  0  0  0
 13 12  1  0  0  0
 25 24  1  0  0  0
  3  9  1  0  0  0
 12 11  2  0  0  0
  6  7  1  0  0  0
 22 21  1  0  0  0
 22 23  1  0  0  0
 27 28  2  0  0  0
  9 10  2  0  0  0
  9  7  1  0  0  0
 11 10  1  0  0  0
 24 23  2  0  0  0
 24 29  1  0  0  0
  7  8  2  0  0  0
 23 32  1  0  0  0
 28 29  1  0  0  0
 29 30  2  0  0  0
 32 31  2  0  0  0
 30 31  1  0  0  0
 15 18  1  0  0  0
M  END
> <minimizedAffinity>
-9.82512

$$$$
4ZBF_4M7_A_400


 32 36  0  0  0  0  0  0  0  0999 V2000
  -30.2792   26.4399    0.6468 C   0  0  0  0  0  0  0  0  0  0  0  0
  -30.1598   27.7919    0.9183 N   0  0  0  0  0  0  0  0  0  0  0  0
  -31.3254   28.4437    0.5955 C   0  0  0  0  0  0  0  0  0  0  0  0
  -28.9909   28.4906    1.4624 C   0  0  0  0  0  0  0  0  0  0  0  0
  -29.2617   29.1283    2.8022 C   0  0  0  0  0  0  0  0  0  0  0  0
  -29.6791   30.5714    2.7518 C   0  0  0  0  0  0  0  0  0  0  0  0
  -30.5625   31.0395    1.2982 S   0  0  0  0  0  0  0  0  0  0  0  0
  -29.5380   31.3323    0.2539 O   0  0  0  0  0  0  0  0  0  0  0  0
  -31.7124   29.7839    0.6743 C   0  0  0  0  0  0  0  0  0  0  0  0
  -32.9979   30.1909    0.2695 C   0  0  0  0  0  0  0  0  0  0  0  0
  -33.9075   29.2242   -0.2275 C   0  0  0  0  0  0  0  0  0  0  0  0
  -33.5294   27.8753   -0.3063 C   0  0  0  0  0  0  0  0  0  0  0  0
  -32.2496   27.4850    0.1020 C   0  0  0  0  0  0  0  0  0  0  0  0
  -31.5714   26.2156    0.1473 C   0  0  0  0  0  0  0  0  0  0  0  0
  -28.9120   24.5710   -0.0305 O   0  0  0  0  0  0  0  0  0  0  0  0
  -29.2357   25.3800    0.8786 C   0  0  0  0  0  0  0  0  0  0  0  0
  -28.6907   25.2661    2.0054 O   0  0  0  0  0  0  0  0  0  0  0  0
  -29.3055   24.6371   -0.8783 H   0  0  0  0  0  0  0  0  0  0  0  0
  -32.1259   24.8833   -0.2915 C   0  0  0  0  0  0  0  0  0  0  0  0
  -32.8644   24.1575    0.8169 C   0  0  0  0  0  0  0  0  0  0  0  0
  -32.2768   22.8356    1.2097 C   0  0  0  0  0  0  0  0  0  0  0  0
  -31.1006   22.9853    1.9106 O   0  0  0  0  0  0  0  0  0  0  0  0
  -30.2068   21.9440    2.0712 C   0  0  0  0  0  0  0  0  0  0  0  0
  -30.0181   21.4497    3.3732 C   0  0  0  0  0  0  0  0  0  0  0  0
  -30.7183   22.0496    4.4617 C   0  0  0  0  0  0  0  0  0  0  0  0
  -30.5285   21.5555    5.7429 C   0  0  0  0  0  0  0  0  0  0  0  0
  -29.6579   20.4867    5.9545 C   0  0  0  0  0  0  0  0  0  0  0  0
  -28.9611   19.9121    4.8896 C   0  0  0  0  0  0  0  0  0  0  0  0
  -29.1583   20.3976    3.5809 C   0  0  0  0  0  0  0  0  0  0  0  0
  -28.4762   19.8140    2.4906 C   0  0  0  0  0  0  0  0  0  0  0  0
  -28.6657   20.3121    1.2006 C   0  0  0  0  0  0  0  0  0  0  0  0
  -29.5437   21.3867    0.9870 C   0  0  0  0  0  0  0  0  0  0  0  0
 17 16  2  0  0  0
 16 15  1  0  0  0
 16  1  1  0  0  0
 19 14  1  0  0  0
 19 20  1  0  0  0
  1 14  2  0  0  0
  1  2  1  0  0  0
 14 13  1  0  0  0
 20 21  1  0  0  0
  5  4  1  0  0  0
  5  6  1  0  0  0
  2  4  1  0  0  0
  2  3  1  0  0  0
 26 25  2  0  0  0
 26 27  1  0  0  0
 13  3  2  0  0  0
 13 12  1  0  0  0
 25 24  1  0  0  0
  3  9  1  0  0  0
 12 11  2  0  0  0
  6  7  1  0  0  0
 22 21  1  0  0  0
 22 23  1  0  0  0
 27 28  2  0  0  0
  9 10  2  0  0  0
  9  7  1  0  0  0
 11 10  1  0  0  0
 24 23  2  0  0  0
 24 29  1  0  0  0
  7  8  2  0  0  0
 23 32  1  0  0  0
 28 29  1  0  0  0
 29 30  2  0  0  0
 32 31  2  0  0  0
 30 31  1  0  0  0
 15 18  1  0  0  0
M  END
> <minimizedAffinity>
-9.50951

$$$$
