2XXT_KAI_A_900


 18 18  0  0  0  0  0  0  0  0999 V2000
   19.7428  -34.4710   -6.9690 N   0  0  0  0  0  0  0  0  0  0  0  0
   19.3004  -33.6006   -5.8520 C   0  0  0  0  0  0  0  0  0  0  0  0
   20.0525  -35.7865   -6.4047 C   0  0  0  0  0  0  0  0  0  0  0  0
   20.0277  -35.6279   -4.8966 C   0  0  0  0  0  0  0  0  0  0  0  0
   19.0357  -34.5274   -4.6741 C   0  0  0  0  0  0  0  0  0  0  0  0
   20.5738  -34.0767   -7.4098 H   0  0  0  0  0  0  0  0  0  0  0  0
   19.0008  -36.7543   -6.8487 C   0  0  0  0  0  0  0  0  0  0  0  0
   18.8846  -37.8606   -6.2852 O   0  0  0  0  0  0  0  0  0  0  0  0
   18.2529  -36.4618   -7.7939 O   0  0  0  0  0  0  0  0  0  0  0  0
   18.3382  -35.6312   -8.2191 H   0  0  0  0  0  0  0  0  0  0  0  0
   19.1974  -32.4096   -3.2748 C   0  0  0  0  0  0  0  0  0  0  0  0
   18.3765  -34.5778   -2.2340 C   0  0  0  0  0  0  0  0  0  0  0  0
   19.2716  -33.9241   -3.2875 C   0  0  0  0  0  0  0  0  0  0  0  0
   21.3595  -35.1374   -4.3308 C   0  0  0  0  0  0  0  0  0  0  0  0
   22.5820  -35.5920   -5.0993 C   0  0  0  0  0  0  0  0  0  0  0  0
   23.4909  -34.7411   -5.2529 O   0  0  0  0  0  0  0  0  0  0  0  0
   22.6669  -36.7641   -5.5513 O   0  0  0  0  0  0  0  0  0  0  0  0
   23.3896  -33.8787   -4.9010 H   0  0  0  0  0  0  0  0  0  0  0  0
  1  2  1  0  0  0
  1  3  1  0  0  0
  2  5  1  0  0  0
 11 13  2  0  0  0
 12 13  1  0  0  0
  3  4  1  0  0  0
  3  7  1  0  0  0
  4 14  1  0  0  0
  4  5  1  0  0  0
 14 15  1  0  0  0
  5 13  1  0  0  0
 15 16  1  0  0  0
 15 17  2  0  0  0
  7  8  2  0  0  0
  7  9  1  0  0  0
  1  6  1  0  0  0
 16 18  1  0  0  0
  9 10  1  0  0  0
M  END
> <minimizedAffinity>
-8.01696

$$$$
2XXT_KAI_A_900


 18 18  0  0  0  0  0  0  0  0999 V2000
   22.2365  -35.4743   -4.8457 N   0  0  0  0  0  0  0  0  0  0  0  0
   21.1473  -35.1559   -3.8901 C   0  0  0  0  0  0  0  0  0  0  0  0
   22.4439  -34.2923   -5.6851 C   0  0  0  0  0  0  0  0  0  0  0  0
   21.2989  -33.3433   -5.3878 C   0  0  0  0  0  0  0  0  0  0  0  0
   20.9487  -33.6487   -3.9634 C   0  0  0  0  0  0  0  0  0  0  0  0
   21.9701  -36.2705   -5.4248 H   0  0  0  0  0  0  0  0  0  0  0  0
   23.7530  -33.6690   -5.3142 C   0  0  0  0  0  0  0  0  0  0  0  0
   24.4504  -34.1619   -4.4056 O   0  0  0  0  0  0  0  0  0  0  0  0
   24.1377  -32.6465   -5.9015 O   0  0  0  0  0  0  0  0  0  0  0  0
   23.6156  -32.2740   -6.5846 H   0  0  0  0  0  0  0  0  0  0  0  0
   18.7329  -34.0814   -2.7920 C   0  0  0  0  0  0  0  0  0  0  0  0
   19.5281  -31.7023   -3.1988 C   0  0  0  0  0  0  0  0  0  0  0  0
   19.5279  -33.1512   -3.6876 C   0  0  0  0  0  0  0  0  0  0  0  0
   20.0518  -33.6413   -6.2185 C   0  0  0  0  0  0  0  0  0  0  0  0
   19.6776  -32.5621   -7.2119 C   0  0  0  0  0  0  0  0  0  0  0  0
   19.5913  -32.9162   -8.4122 O   0  0  0  0  0  0  0  0  0  0  0  0
   19.4659  -31.3788   -6.8371 O   0  0  0  0  0  0  0  0  0  0  0  0
   19.7567  -33.8071   -8.6509 H   0  0  0  0  0  0  0  0  0  0  0  0
  1  2  1  0  0  0
  1  3  1  0  0  0
  2  5  1  0  0  0
 11 13  2  0  0  0
 12 13  1  0  0  0
  3  4  1  0  0  0
  3  7  1  0  0  0
  4 14  1  0  0  0
  4  5  1  0  0  0
 14 15  1  0  0  0
  5 13  1  0  0  0
 15 16  1  0  0  0
 15 17  2  0  0  0
  7  8  2  0  0  0
  7  9  1  0  0  0
  1  6  1  0  0  0
 16 18  1  0  0  0
  9 10  1  0  0  0
M  END
> <minimizedAffinity>
-7.67305

$$$$
2XXT_KAI_A_900


 18 18  0  0  0  0  0  0  0  0999 V2000
   20.0361  -31.7574   -4.9228 N   0  0  0  0  0  0  0  0  0  0  0  0
   19.3046  -32.5888   -3.9355 C   0  0  0  0  0  0  0  0  0  0  0  0
   20.5758  -32.6594   -5.9426 C   0  0  0  0  0  0  0  0  0  0  0  0
   20.3707  -34.0702   -5.4256 C   0  0  0  0  0  0  0  0  0  0  0  0
   19.1412  -33.9594   -4.5766 C   0  0  0  0  0  0  0  0  0  0  0  0
   20.7966  -31.2576   -4.4621 H   0  0  0  0  0  0  0  0  0  0  0  0
   19.8148  -32.4498   -7.2142 C   0  0  0  0  0  0  0  0  0  0  0  0
   19.2955  -31.3436   -7.4624 O   0  0  0  0  0  0  0  0  0  0  0  0
   19.6848  -33.3864   -8.0168 O   0  0  0  0  0  0  0  0  0  0  0  0
   20.0740  -34.2186   -7.8327 H   0  0  0  0  0  0  0  0  0  0  0  0
   18.4155  -34.8217   -2.2965 C   0  0  0  0  0  0  0  0  0  0  0  0
   18.5441  -36.3986   -4.2853 C   0  0  0  0  0  0  0  0  0  0  0  0
   19.1014  -35.1450   -3.6097 C   0  0  0  0  0  0  0  0  0  0  0  0
   21.4983  -34.5330   -4.5043 C   0  0  0  0  0  0  0  0  0  0  0  0
   22.5644  -35.3712   -5.1769 C   0  0  0  0  0  0  0  0  0  0  0  0
   23.6630  -34.8056   -5.3929 O   0  0  0  0  0  0  0  0  0  0  0  0
   22.3448  -36.5698   -5.4941 O   0  0  0  0  0  0  0  0  0  0  0  0
   23.7870  -33.9114   -5.1417 H   0  0  0  0  0  0  0  0  0  0  0  0
  1  2  1  0  0  0
  1  3  1  0  0  0
  2  5  1  0  0  0
 11 13  2  0  0  0
 12 13  1  0  0  0
  3  4  1  0  0  0
  3  7  1  0  0  0
  4 14  1  0  0  0
  4  5  1  0  0  0
 14 15  1  0  0  0
  5 13  1  0  0  0
 15 16  1  0  0  0
 15 17  2  0  0  0
  7  8  2  0  0  0
  7  9  1  0  0  0
  1  6  1  0  0  0
 16 18  1  0  0  0
  9 10  1  0  0  0
M  END
> <minimizedAffinity>
-7.67182

$$$$
2XXT_KAI_A_900


 18 18  0  0  0  0  0  0  0  0999 V2000
   19.2573  -34.3704   -6.3316 N   0  0  0  0  0  0  0  0  0  0  0  0
   20.4402  -35.0677   -5.7698 C   0  0  0  0  0  0  0  0  0  0  0  0
   19.4836  -32.9312   -6.1817 C   0  0  0  0  0  0  0  0  0  0  0  0
   20.7067  -32.7745   -5.2990 C   0  0  0  0  0  0  0  0  0  0  0  0
   21.5129  -34.0028   -5.5922 C   0  0  0  0  0  0  0  0  0  0  0  0
   18.4167  -34.6457   -5.8236 H   0  0  0  0  0  0  0  0  0  0  0  0
   19.7340  -32.3453   -7.5358 C   0  0  0  0  0  0  0  0  0  0  0  0
   19.9779  -31.1288   -7.6605 O   0  0  0  0  0  0  0  0  0  0  0  0
   19.6810  -33.0700   -8.5410 O   0  0  0  0  0  0  0  0  0  0  0  0
   19.4980  -33.9845   -8.4501 H   0  0  0  0  0  0  0  0  0  0  0  0
   22.4941  -35.6629   -3.9337 C   0  0  0  0  0  0  0  0  0  0  0  0
   23.8934  -33.7215   -4.7888 C   0  0  0  0  0  0  0  0  0  0  0  0
   22.4951  -34.2340   -4.4416 C   0  0  0  0  0  0  0  0  0  0  0  0
   20.3711  -32.8168   -3.8091 C   0  0  0  0  0  0  0  0  0  0  0  0
   19.6773  -31.5802   -3.2789 C   0  0  0  0  0  0  0  0  0  0  0  0
   18.6155  -31.7694   -2.6383 O   0  0  0  0  0  0  0  0  0  0  0  0
   20.1542  -30.4319   -3.4773 O   0  0  0  0  0  0  0  0  0  0  0  0
   18.2932  -32.6401   -2.5121 H   0  0  0  0  0  0  0  0  0  0  0  0
  1  2  1  0  0  0
  1  3  1  0  0  0
  2  5  1  0  0  0
 11 13  2  0  0  0
 12 13  1  0  0  0
  3  4  1  0  0  0
  3  7  1  0  0  0
  4 14  1  0  0  0
  4  5  1  0  0  0
 14 15  1  0  0  0
  5 13  1  0  0  0
 15 16  1  0  0  0
 15 17  2  0  0  0
  7  8  2  0  0  0
  7  9  1  0  0  0
  1  6  1  0  0  0
 16 18  1  0  0  0
  9 10  1  0  0  0
M  END
> <minimizedAffinity>
-7.29329

$$$$
2XXT_KAI_A_900


 18 18  0  0  0  0  0  0  0  0999 V2000
   20.4684  -35.0290   -3.5621 N   0  0  0  0  0  0  0  0  0  0  0  0
   20.1038  -33.6525   -3.9783 C   0  0  0  0  0  0  0  0  0  0  0  0
   20.8218  -35.7747   -4.7720 C   0  0  0  0  0  0  0  0  0  0  0  0
   20.4283  -34.9028   -5.9488 C   0  0  0  0  0  0  0  0  0  0  0  0
   20.5732  -33.5089   -5.4189 C   0  0  0  0  0  0  0  0  0  0  0  0
   19.6767  -35.4738   -3.0975 H   0  0  0  0  0  0  0  0  0  0  0  0
   22.2988  -36.0165   -4.7676 C   0  0  0  0  0  0  0  0  0  0  0  0
   22.8607  -36.5010   -5.7698 O   0  0  0  0  0  0  0  0  0  0  0  0
   22.9644  -35.7503   -3.7554 O   0  0  0  0  0  0  0  0  0  0  0  0
   22.5446  -35.3862   -3.0010 H   0  0  0  0  0  0  0  0  0  0  0  0
   19.3083  -31.3072   -5.5652 C   0  0  0  0  0  0  0  0  0  0  0  0
   20.4588  -32.2669   -7.6179 C   0  0  0  0  0  0  0  0  0  0  0  0
   19.7509  -32.5608   -6.2946 C   0  0  0  0  0  0  0  0  0  0  0  0
   18.9624  -35.0699   -6.3455 C   0  0  0  0  0  0  0  0  0  0  0  0
   18.6905  -36.2058   -7.3084 C   0  0  0  0  0  0  0  0  0  0  0  0
   19.4040  -36.2442   -8.3395 O   0  0  0  0  0  0  0  0  0  0  0  0
   17.7947  -37.0585   -7.0715 O   0  0  0  0  0  0  0  0  0  0  0  0
   20.0606  -35.5905   -8.4795 H   0  0  0  0  0  0  0  0  0  0  0  0
  1  2  1  0  0  0
  1  3  1  0  0  0
  2  5  1  0  0  0
 11 13  2  0  0  0
 12 13  1  0  0  0
  3  4  1  0  0  0
  3  7  1  0  0  0
  4 14  1  0  0  0
  4  5  1  0  0  0
 14 15  1  0  0  0
  5 13  1  0  0  0
 15 16  1  0  0  0
 15 17  2  0  0  0
  7  8  2  0  0  0
  7  9  1  0  0  0
  1  6  1  0  0  0
 16 18  1  0  0  0
  9 10  1  0  0  0
M  END
> <minimizedAffinity>
-7.27089

$$$$
2XXT_KAI_A_900


 18 18  0  0  0  0  0  0  0  0999 V2000
   22.1388  -35.1993   -4.5867 N   0  0  0  0  0  0  0  0  0  0  0  0
   21.1832  -34.9484   -3.4800 C   0  0  0  0  0  0  0  0  0  0  0  0
   21.7639  -34.3223   -5.6981 C   0  0  0  0  0  0  0  0  0  0  0  0
   20.4206  -33.7173   -5.3385 C   0  0  0  0  0  0  0  0  0  0  0  0
   20.4460  -33.6669   -3.8413 C   0  0  0  0  0  0  0  0  0  0  0  0
   22.0848  -36.1750   -4.8792 H   0  0  0  0  0  0  0  0  0  0  0  0
   22.8029  -33.2535   -5.8323 C   0  0  0  0  0  0  0  0  0  0  0  0
   22.7282  -32.4144   -6.7517 O   0  0  0  0  0  0  0  0  0  0  0  0
   23.7527  -33.2130   -5.0357 O   0  0  0  0  0  0  0  0  0  0  0  0
   23.8112  -33.8423   -4.3439 H   0  0  0  0  0  0  0  0  0  0  0  0
   18.6221  -34.6904   -2.3939 C   0  0  0  0  0  0  0  0  0  0  0  0
   18.7261  -32.1752   -2.7422 C   0  0  0  0  0  0  0  0  0  0  0  0
   19.0085  -33.5595   -3.3274 C   0  0  0  0  0  0  0  0  0  0  0  0
   19.2450  -34.6127   -5.7263 C   0  0  0  0  0  0  0  0  0  0  0  0
   19.5994  -35.7658   -6.6408 C   0  0  0  0  0  0  0  0  0  0  0  0
   19.5372  -35.5383   -7.8729 O   0  0  0  0  0  0  0  0  0  0  0  0
   19.9380  -36.8852   -6.1741 O   0  0  0  0  0  0  0  0  0  0  0  0
   19.2807  -34.6912   -8.1806 H   0  0  0  0  0  0  0  0  0  0  0  0
  1  2  1  0  0  0
  1  3  1  0  0  0
  2  5  1  0  0  0
 11 13  2  0  0  0
 12 13  1  0  0  0
  3  4  1  0  0  0
  3  7  1  0  0  0
  4 14  1  0  0  0
  4  5  1  0  0  0
 14 15  1  0  0  0
  5 13  1  0  0  0
 15 16  1  0  0  0
 15 17  2  0  0  0
  7  8  2  0  0  0
  7  9  1  0  0  0
  1  6  1  0  0  0
 16 18  1  0  0  0
  9 10  1  0  0  0
M  END
> <minimizedAffinity>
-7.10359

$$$$
2XXT_KAI_A_900


 18 18  0  0  0  0  0  0  0  0999 V2000
   18.9988  -33.0496   -7.7550 N   0  0  0  0  0  0  0  0  0  0  0  0
   19.1941  -34.3136   -7.0032 C   0  0  0  0  0  0  0  0  0  0  0  0
   19.8712  -32.0401   -7.1512 C   0  0  0  0  0  0  0  0  0  0  0  0
   20.4118  -32.6451   -5.8699 C   0  0  0  0  0  0  0  0  0  0  0  0
   20.4457  -34.1145   -6.1606 C   0  0  0  0  0  0  0  0  0  0  0  0
   18.0252  -32.7525   -7.6901 H   0  0  0  0  0  0  0  0  0  0  0  0
   20.9866  -31.7438   -8.1040 C   0  0  0  0  0  0  0  0  0  0  0  0
   20.7390  -31.4156   -9.2812 O   0  0  0  0  0  0  0  0  0  0  0  0
   22.1637  -31.8426   -7.7257 O   0  0  0  0  0  0  0  0  0  0  0  0
   22.3526  -32.0890   -6.8416 H   0  0  0  0  0  0  0  0  0  0  0  0
   19.3783  -35.9093   -4.7086 C   0  0  0  0  0  0  0  0  0  0  0  0
   21.8737  -35.4520   -4.5596 C   0  0  0  0  0  0  0  0  0  0  0  0
   20.4832  -34.8784   -4.8350 C   0  0  0  0  0  0  0  0  0  0  0  0
   19.4697  -32.4557   -4.6821 C   0  0  0  0  0  0  0  0  0  0  0  0
   19.3670  -31.0337   -4.1733 C   0  0  0  0  0  0  0  0  0  0  0  0
   20.3014  -30.6376   -3.4360 O   0  0  0  0  0  0  0  0  0  0  0  0
   18.3913  -30.3010   -4.4841 O   0  0  0  0  0  0  0  0  0  0  0  0
   21.0104  -31.2138   -3.2278 H   0  0  0  0  0  0  0  0  0  0  0  0
  1  2  1  0  0  0
  1  3  1  0  0  0
  2  5  1  0  0  0
 11 13  2  0  0  0
 12 13  1  0  0  0
  3  4  1  0  0  0
  3  7  1  0  0  0
  4 14  1  0  0  0
  4  5  1  0  0  0
 14 15  1  0  0  0
  5 13  1  0  0  0
 15 16  1  0  0  0
 15 17  2  0  0  0
  7  8  2  0  0  0
  7  9  1  0  0  0
  1  6  1  0  0  0
 16 18  1  0  0  0
  9 10  1  0  0  0
M  END
> <minimizedAffinity>
-6.87547

$$$$
2XXT_KAI_A_900


 18 18  0  0  0  0  0  0  0  0999 V2000
   18.5843  -36.0215   -5.0728 N   0  0  0  0  0  0  0  0  0  0  0  0
   19.7671  -35.8018   -4.2046 C   0  0  0  0  0  0  0  0  0  0  0  0
   18.8982  -35.4666   -6.3913 C   0  0  0  0  0  0  0  0  0  0  0  0
   20.1911  -34.6891   -6.2377 C   0  0  0  0  0  0  0  0  0  0  0  0
   20.9058  -35.4078   -5.1343 C   0  0  0  0  0  0  0  0  0  0  0  0
   17.7710  -35.5476   -4.6801 H   0  0  0  0  0  0  0  0  0  0  0  0
   19.0769  -36.5987   -7.3538 C   0  0  0  0  0  0  0  0  0  0  0  0
   18.8293  -37.7692   -7.0024 O   0  0  0  0  0  0  0  0  0  0  0  0
   19.4905  -36.3734   -8.5012 O   0  0  0  0  0  0  0  0  0  0  0  0
   19.6772  -35.4947   -8.7678 H   0  0  0  0  0  0  0  0  0  0  0  0
   22.7592  -35.1092   -3.4182 C   0  0  0  0  0  0  0  0  0  0  0  0
   22.8354  -33.8496   -5.6240 C   0  0  0  0  0  0  0  0  0  0  0  0
   21.9582  -34.4711   -4.5365 C   0  0  0  0  0  0  0  0  0  0  0  0
   19.9672  -33.2572   -5.7540 C   0  0  0  0  0  0  0  0  0  0  0  0
   19.6546  -32.2589   -6.8481 C   0  0  0  0  0  0  0  0  0  0  0  0
   19.7215  -32.6850   -8.0261 O   0  0  0  0  0  0  0  0  0  0  0  0
   19.3442  -31.0698   -6.5738 O   0  0  0  0  0  0  0  0  0  0  0  0
   19.9562  -33.5774   -8.1888 H   0  0  0  0  0  0  0  0  0  0  0  0
  1  2  1  0  0  0
  1  3  1  0  0  0
  2  5  1  0  0  0
 11 13  2  0  0  0
 12 13  1  0  0  0
  3  4  1  0  0  0
  3  7  1  0  0  0
  4 14  1  0  0  0
  4  5  1  0  0  0
 14 15  1  0  0  0
  5 13  1  0  0  0
 15 16  1  0  0  0
 15 17  2  0  0  0
  7  8  2  0  0  0
  7  9  1  0  0  0
  1  6  1  0  0  0
 16 18  1  0  0  0
  9 10  1  0  0  0
M  END
> <minimizedAffinity>
-6.74309

$$$$
2XXT_KAI_A_900


 18 18  0  0  0  0  0  0  0  0999 V2000
   21.3604  -32.6517   -6.7108 N   0  0  0  0  0  0  0  0  0  0  0  0
   22.6660  -32.9996   -6.0980 C   0  0  0  0  0  0  0  0  0  0  0  0
   20.3155  -33.3026   -5.9174 C   0  0  0  0  0  0  0  0  0  0  0  0
   21.0207  -34.2489   -4.9650 C   0  0  0  0  0  0  0  0  0  0  0  0
   22.3471  -33.5919   -4.7328 C   0  0  0  0  0  0  0  0  0  0  0  0
   21.3268  -32.9873   -7.6734 H   0  0  0  0  0  0  0  0  0  0  0  0
   19.5703  -32.2506   -5.1573 C   0  0  0  0  0  0  0  0  0  0  0  0
   19.2845  -31.1648   -5.6999 O   0  0  0  0  0  0  0  0  0  0  0  0
   19.2512  -32.4527   -3.9759 O   0  0  0  0  0  0  0  0  0  0  0  0
   19.4648  -33.2676   -3.5657 H   0  0  0  0  0  0  0  0  0  0  0  0
   24.6951  -34.0665   -3.8781 C   0  0  0  0  0  0  0  0  0  0  0  0
   22.7294  -35.4646   -3.0781 C   0  0  0  0  0  0  0  0  0  0  0  0
   23.3336  -34.6419   -4.2169 C   0  0  0  0  0  0  0  0  0  0  0  0
   21.3113  -35.6118   -5.5914 C   0  0  0  0  0  0  0  0  0  0  0  0
   20.0845  -36.3889   -6.0187 C   0  0  0  0  0  0  0  0  0  0  0  0
   19.3228  -36.7757   -5.1000 O   0  0  0  0  0  0  0  0  0  0  0  0
   19.8547  -36.6241   -7.2342 O   0  0  0  0  0  0  0  0  0  0  0  0
   19.5290  -36.5804   -4.2071 H   0  0  0  0  0  0  0  0  0  0  0  0
  1  2  1  0  0  0
  1  3  1  0  0  0
  2  5  1  0  0  0
 11 13  2  0  0  0
 12 13  1  0  0  0
  3  4  1  0  0  0
  3  7  1  0  0  0
  4 14  1  0  0  0
  4  5  1  0  0  0
 14 15  1  0  0  0
  5 13  1  0  0  0
 15 16  1  0  0  0
 15 17  2  0  0  0
  7  8  2  0  0  0
  7  9  1  0  0  0
  1  6  1  0  0  0
 16 18  1  0  0  0
  9 10  1  0  0  0
M  END
> <minimizedAffinity>
-6.60637

$$$$
2XXT_KAI_A_900


 18 18  0  0  0  0  0  0  0  0999 V2000
   19.3733  -33.2888   -5.1872 N   0  0  0  0  0  0  0  0  0  0  0  0
   20.8201  -33.0053   -5.3526 C   0  0  0  0  0  0  0  0  0  0  0  0
   19.2539  -34.5312   -4.4212 C   0  0  0  0  0  0  0  0  0  0  0  0
   20.6469  -35.1251   -4.3388 C   0  0  0  0  0  0  0  0  0  0  0  0
   21.5444  -33.9261   -4.3811 C   0  0  0  0  0  0  0  0  0  0  0  0
   18.9332  -33.3990   -6.1008 H   0  0  0  0  0  0  0  0  0  0  0  0
   18.7419  -34.2003   -3.0544 C   0  0  0  0  0  0  0  0  0  0  0  0
   18.3967  -35.1094   -2.2738 O   0  0  0  0  0  0  0  0  0  0  0  0
   18.6434  -33.0149   -2.7029 O   0  0  0  0  0  0  0  0  0  0  0  0
   18.9020  -32.3298   -3.2875 H   0  0  0  0  0  0  0  0  0  0  0  0
   23.6431  -33.3721   -5.7068 C   0  0  0  0  0  0  0  0  0  0  0  0
   23.7893  -34.7897   -3.6027 C   0  0  0  0  0  0  0  0  0  0  0  0
   22.9445  -34.3734   -4.8075 C   0  0  0  0  0  0  0  0  0  0  0  0
   20.9996  -35.9789   -5.5557 C   0  0  0  0  0  0  0  0  0  0  0  0
   19.8123  -36.4389   -6.3744 C   0  0  0  0  0  0  0  0  0  0  0  0
   19.5688  -35.7856   -7.4173 O   0  0  0  0  0  0  0  0  0  0  0  0
   19.1186  -37.4264   -6.0153 O   0  0  0  0  0  0  0  0  0  0  0  0
   20.1092  -35.0564   -7.6503 H   0  0  0  0  0  0  0  0  0  0  0  0
  1  2  1  0  0  0
  1  3  1  0  0  0
  2  5  1  0  0  0
 11 13  2  0  0  0
 12 13  1  0  0  0
  3  4  1  0  0  0
  3  7  1  0  0  0
  4 14  1  0  0  0
  4  5  1  0  0  0
 14 15  1  0  0  0
  5 13  1  0  0  0
 15 16  1  0  0  0
 15 17  2  0  0  0
  7  8  2  0  0  0
  7  9  1  0  0  0
  1  6  1  0  0  0
 16 18  1  0  0  0
  9 10  1  0  0  0
M  END
> <minimizedAffinity>
-6.57615

$$$$
