3AXZ_ADN_A_401


 24 26  0  0  0  0  0  0  0  0999 V2000
   43.0339    4.4577   11.3537 C   0  0  0  0  0  0  0  0  0  0  0  0
   43.3938    3.9909   10.0397 O   0  0  0  0  0  0  0  0  0  0  0  0
   44.0124    3.8127   12.3389 C   0  0  0  0  0  0  0  0  0  0  0  0
   43.5307    2.5502   12.8068 O   0  0  0  0  0  0  0  0  0  0  0  0
   45.2392    3.6229   11.4509 C   0  0  0  0  0  0  0  0  0  0  0  0
   46.1331    2.6346   11.9691 O   0  0  0  0  0  0  0  0  0  0  0  0
   44.5805    3.1844   10.1437 C   0  0  0  0  0  0  0  0  0  0  0  0
   43.3543    1.9705   12.0492 H   0  0  0  0  0  0  0  0  0  0  0  0
   45.6567    1.7980   12.0874 H   0  0  0  0  0  0  0  0  0  0  0  0
   45.5075    3.3861    9.0069 N   0  0  0  0  0  0  0  0  0  0  0  0
   45.8780    4.5625    8.5048 C   0  0  0  0  0  0  0  0  0  0  0  0
   46.7528    4.3713    7.5183 N   0  0  0  0  0  0  0  0  0  0  0  0
   46.9415    3.0614    7.3888 C   0  0  0  0  0  0  0  0  0  0  0  0
   47.7240    2.2729    6.5542 C   0  0  0  0  0  0  0  0  0  0  0  0
   48.5143    2.8263    5.6388 N   0  0  0  0  0  0  0  0  0  0  0  0
   47.6771    0.9410    6.6900 N   0  0  0  0  0  0  0  0  0  0  0  0
   46.9010    0.3757    7.5996 C   0  0  0  0  0  0  0  0  0  0  0  0
   46.1461    1.0943    8.4105 N   0  0  0  0  0  0  0  0  0  0  0  0
   46.1429    2.4320    8.3335 C   0  0  0  0  0  0  0  0  0  0  0  0
   48.5455    3.8056    5.5426 H   0  0  0  0  0  0  0  0  0  0  0  0
   49.0680    2.2567    5.0572 H   0  0  0  0  0  0  0  0  0  0  0  0
   41.8350    6.5374   11.6349 O   0  0  0  0  0  0  0  0  0  0  0  0
   43.1319    5.9838   11.3972 C   0  0  0  0  0  0  0  0  0  0  0  0
   41.8966    7.5051   11.6625 H   0  0  0  0  0  0  0  0  0  0  0  0
 22 23  1  0  0  0
 23  1  1  0  0  0
  1  2  1  0  0  0
  1  3  1  0  0  0
  2  7  1  0  0  0
  3  4  1  0  0  0
  3  5  1  0  0  0
  5  6  1  0  0  0
  5  7  1  0  0  0
  7 10  1  0  0  0
 10 11  1  0  0  0
 10 19  1  0  0  0
 11 12  2  0  0  0
 12 13  1  0  0  0
 13 14  1  0  0  0
 13 19  2  0  0  0
 14 15  1  0  0  0
 14 16  2  0  0  0
 16 17  1  0  0  0
 17 18  2  0  0  0
 18 19  1  0  0  0
 22 24  1  0  0  0
  4  8  1  0  0  0
  6  9  1  0  0  0
 15 20  1  0  0  0
 15 21  1  0  0  0
M  END
> <minimizedAffinity>
-9.41966

$$$$
3AXZ_ADN_A_401


 24 26  0  0  0  0  0  0  0  0999 V2000
   44.6808    3.0522   10.1788 C   0  0  0  0  0  0  0  0  0  0  0  0
   45.8458    3.5289   10.8784 O   0  0  0  0  0  0  0  0  0  0  0  0
   43.5521    2.9533   11.2086 C   0  0  0  0  0  0  0  0  0  0  0  0
   43.5278    1.6700   11.8393 O   0  0  0  0  0  0  0  0  0  0  0  0
   43.9693    4.0322   12.2044 C   0  0  0  0  0  0  0  0  0  0  0  0
   43.3627    3.8478   13.4859 O   0  0  0  0  0  0  0  0  0  0  0  0
   45.4820    3.8188   12.2398 C   0  0  0  0  0  0  0  0  0  0  0  0
   44.3925    1.4905   12.2404 H   0  0  0  0  0  0  0  0  0  0  0  0
   43.5778    2.9633   13.8212 H   0  0  0  0  0  0  0  0  0  0  0  0
   46.1601    5.0253   12.7657 N   0  0  0  0  0  0  0  0  0  0  0  0
   47.1694    5.0338   13.6344 C   0  0  0  0  0  0  0  0  0  0  0  0
   47.5604    6.2887   13.8523 N   0  0  0  0  0  0  0  0  0  0  0  0
   46.7931    7.0883   13.1173 C   0  0  0  0  0  0  0  0  0  0  0  0
   46.7292    8.4631   12.9266 C   0  0  0  0  0  0  0  0  0  0  0  0
   47.5724    9.2776   13.5546 N   0  0  0  0  0  0  0  0  0  0  0  0
   45.8067    8.9590   12.0913 N   0  0  0  0  0  0  0  0  0  0  0  0
   44.9650    8.1618   11.4547 C   0  0  0  0  0  0  0  0  0  0  0  0
   44.9988    6.8510   11.6106 N   0  0  0  0  0  0  0  0  0  0  0  0
   45.8956    6.2839   12.4289 C   0  0  0  0  0  0  0  0  0  0  0  0
   48.2487    8.9086   14.1676 H   0  0  0  0  0  0  0  0  0  0  0  0
   47.5202   10.2495   13.4066 H   0  0  0  0  0  0  0  0  0  0  0  0
   45.2780    5.0947    9.0328 O   0  0  0  0  0  0  0  0  0  0  0  0
   44.3224    4.0312    9.0591 C   0  0  0  0  0  0  0  0  0  0  0  0
   45.0512    5.7158    8.3231 H   0  0  0  0  0  0  0  0  0  0  0  0
 22 23  1  0  0  0
 23  1  1  0  0  0
  1  2  1  0  0  0
  1  3  1  0  0  0
  2  7  1  0  0  0
  3  4  1  0  0  0
  3  5  1  0  0  0
  5  6  1  0  0  0
  5  7  1  0  0  0
  7 10  1  0  0  0
 10 11  1  0  0  0
 10 19  1  0  0  0
 11 12  2  0  0  0
 12 13  1  0  0  0
 13 14  1  0  0  0
 13 19  2  0  0  0
 14 15  1  0  0  0
 14 16  2  0  0  0
 16 17  1  0  0  0
 17 18  2  0  0  0
 18 19  1  0  0  0
 22 24  1  0  0  0
  4  8  1  0  0  0
  6  9  1  0  0  0
 15 20  1  0  0  0
 15 21  1  0  0  0
M  END
> <minimizedAffinity>
-8.32120

$$$$
3AXZ_ADN_A_401


 24 26  0  0  0  0  0  0  0  0999 V2000
   43.4359    4.1605   12.3783 C   0  0  0  0  0  0  0  0  0  0  0  0
   44.4763    4.8227   13.1219 O   0  0  0  0  0  0  0  0  0  0  0  0
   42.8066    5.2117   11.4601 C   0  0  0  0  0  0  0  0  0  0  0  0
   41.7242    5.8900   12.1031 O   0  0  0  0  0  0  0  0  0  0  0  0
   43.9843    6.1596   11.2503 C   0  0  0  0  0  0  0  0  0  0  0  0
   43.5635    7.4570   10.8212 O   0  0  0  0  0  0  0  0  0  0  0  0
   44.5897    6.1781   12.6532 C   0  0  0  0  0  0  0  0  0  0  0  0
   42.0365    6.2833   12.9330 H   0  0  0  0  0  0  0  0  0  0  0  0
   42.9339    7.8213   11.4629 H   0  0  0  0  0  0  0  0  0  0  0  0
   45.9929    6.6476   12.6025 N   0  0  0  0  0  0  0  0  0  0  0  0
   47.0737    5.8885   12.7728 C   0  0  0  0  0  0  0  0  0  0  0  0
   48.1694    6.6304   12.6180 N   0  0  0  0  0  0  0  0  0  0  0  0
   47.7847    7.8743   12.3477 C   0  0  0  0  0  0  0  0  0  0  0  0
   48.4576    9.0622   12.0897 C   0  0  0  0  0  0  0  0  0  0  0  0
   49.7869    9.1019   12.0720 N   0  0  0  0  0  0  0  0  0  0  0  0
   47.7454   10.1714   11.8505 N   0  0  0  0  0  0  0  0  0  0  0  0
   46.4230   10.1471   11.8586 C   0  0  0  0  0  0  0  0  0  0  0  0
   45.7513    9.0357   12.0978 N   0  0  0  0  0  0  0  0  0  0  0  0
   46.3968    7.8875   12.3439 C   0  0  0  0  0  0  0  0  0  0  0  0
   50.3061    8.2842   12.2484 H   0  0  0  0  0  0  0  0  0  0  0  0
   50.2516    9.9488   11.8825 H   0  0  0  0  0  0  0  0  0  0  0  0
   43.3162    1.8076   11.8384 O   0  0  0  0  0  0  0  0  0  0  0  0
   44.0401    3.0111   11.5691 C   0  0  0  0  0  0  0  0  0  0  0  0
   43.6988    1.0786   11.3256 H   0  0  0  0  0  0  0  0  0  0  0  0
 22 23  1  0  0  0
 23  1  1  0  0  0
  1  2  1  0  0  0
  1  3  1  0  0  0
  2  7  1  0  0  0
  3  4  1  0  0  0
  3  5  1  0  0  0
  5  6  1  0  0  0
  5  7  1  0  0  0
  7 10  1  0  0  0
 10 11  1  0  0  0
 10 19  1  0  0  0
 11 12  2  0  0  0
 12 13  1  0  0  0
 13 14  1  0  0  0
 13 19  2  0  0  0
 14 15  1  0  0  0
 14 16  2  0  0  0
 16 17  1  0  0  0
 17 18  2  0  0  0
 18 19  1  0  0  0
 22 24  1  0  0  0
  4  8  1  0  0  0
  6  9  1  0  0  0
 15 20  1  0  0  0
 15 21  1  0  0  0
M  END
> <minimizedAffinity>
-7.94760

$$$$
3AXZ_ADN_A_401


 24 26  0  0  0  0  0  0  0  0999 V2000
   45.3353    9.1696   12.5467 C   0  0  0  0  0  0  0  0  0  0  0  0
   44.7619    7.8778   12.2707 O   0  0  0  0  0  0  0  0  0  0  0  0
   46.8130    8.9400   12.8754 C   0  0  0  0  0  0  0  0  0  0  0  0
   47.0100    8.7079   14.2727 O   0  0  0  0  0  0  0  0  0  0  0  0
   47.0968    7.6712   12.0759 C   0  0  0  0  0  0  0  0  0  0  0  0
   48.2509    6.9772   12.5563 O   0  0  0  0  0  0  0  0  0  0  0  0
   45.8059    6.8889   12.3137 C   0  0  0  0  0  0  0  0  0  0  0  0
   46.4617    7.9599   14.5567 H   0  0  0  0  0  0  0  0  0  0  0  0
   48.1387    6.7766   13.4986 H   0  0  0  0  0  0  0  0  0  0  0  0
   45.6408    5.8413   11.2805 N   0  0  0  0  0  0  0  0  0  0  0  0
   46.2172    5.8351   10.0802 C   0  0  0  0  0  0  0  0  0  0  0  0
   45.8821    4.7218    9.4296 N   0  0  0  0  0  0  0  0  0  0  0  0
   45.0837    4.0116   10.2212 C   0  0  0  0  0  0  0  0  0  0  0  0
   44.4352    2.7891   10.0981 C   0  0  0  0  0  0  0  0  0  0  0  0
   44.5627    2.0588    8.9939 N   0  0  0  0  0  0  0  0  0  0  0  0
   43.6817    2.3501   11.1151 N   0  0  0  0  0  0  0  0  0  0  0  0
   43.5497    3.0618   12.2221 C   0  0  0  0  0  0  0  0  0  0  0  0
   44.1532    4.2264   12.3739 N   0  0  0  0  0  0  0  0  0  0  0  0
   44.9242    4.7278   11.3993 C   0  0  0  0  0  0  0  0  0  0  0  0
   45.1175    2.3854    8.2491 H   0  0  0  0  0  0  0  0  0  0  0  0
   44.1023    1.1916    8.9214 H   0  0  0  0  0  0  0  0  0  0  0  0
   44.2878    9.4509   10.3867 O   0  0  0  0  0  0  0  0  0  0  0  0
   45.1760   10.0707   11.3205 C   0  0  0  0  0  0  0  0  0  0  0  0
   44.1864   10.0218    9.6091 H   0  0  0  0  0  0  0  0  0  0  0  0
 22 23  1  0  0  0
 23  1  1  0  0  0
  1  2  1  0  0  0
  1  3  1  0  0  0
  2  7  1  0  0  0
  3  4  1  0  0  0
  3  5  1  0  0  0
  5  6  1  0  0  0
  5  7  1  0  0  0
  7 10  1  0  0  0
 10 11  1  0  0  0
 10 19  1  0  0  0
 11 12  2  0  0  0
 12 13  1  0  0  0
 13 14  1  0  0  0
 13 19  2  0  0  0
 14 15  1  0  0  0
 14 16  2  0  0  0
 16 17  1  0  0  0
 17 18  2  0  0  0
 18 19  1  0  0  0
 22 24  1  0  0  0
  4  8  1  0  0  0
  6  9  1  0  0  0
 15 20  1  0  0  0
 15 21  1  0  0  0
M  END
> <minimizedAffinity>
-7.88847

$$$$
3AXZ_ADN_A_401


 24 26  0  0  0  0  0  0  0  0999 V2000
   46.6200    9.5160   12.5715 C   0  0  0  0  0  0  0  0  0  0  0  0
   46.2616    8.3709   13.3679 O   0  0  0  0  0  0  0  0  0  0  0  0
   47.9345    9.1734   11.8651 C   0  0  0  0  0  0  0  0  0  0  0  0
   49.0673    9.5426   12.6560 O   0  0  0  0  0  0  0  0  0  0  0  0
   47.8243    7.6546   11.7624 C   0  0  0  0  0  0  0  0  0  0  0  0
   49.0972    7.0327   11.5693 O   0  0  0  0  0  0  0  0  0  0  0  0
   47.2128    7.3200   13.1223 C   0  0  0  0  0  0  0  0  0  0  0  0
   49.0081    9.1153   13.5248 H   0  0  0  0  0  0  0  0  0  0  0  0
   49.6952    7.2901   12.2883 H   0  0  0  0  0  0  0  0  0  0  0  0
   46.5846    5.9797   13.0886 N   0  0  0  0  0  0  0  0  0  0  0  0
   47.0667    4.8800   13.6644 C   0  0  0  0  0  0  0  0  0  0  0  0
   46.2234    3.8673   13.4690 N   0  0  0  0  0  0  0  0  0  0  0  0
   45.1944    4.3242   12.7614 C   0  0  0  0  0  0  0  0  0  0  0  0
   44.0284    3.7529   12.2671 C   0  0  0  0  0  0  0  0  0  0  0  0
   43.7530    2.4701   12.4854 N   0  0  0  0  0  0  0  0  0  0  0  0
   43.1771    4.5175   11.5704 N   0  0  0  0  0  0  0  0  0  0  0  0
   43.4336    5.7961   11.3500 C   0  0  0  0  0  0  0  0  0  0  0  0
   44.5307    6.3721   11.8066 N   0  0  0  0  0  0  0  0  0  0  0  0
   45.4270    5.6698   12.5129 C   0  0  0  0  0  0  0  0  0  0  0  0
   44.3815    1.9120   12.9979 H   0  0  0  0  0  0  0  0  0  0  0  0
   42.9206    2.0787   12.1343 H   0  0  0  0  0  0  0  0  0  0  0  0
   44.2624    9.3237   12.0749 O   0  0  0  0  0  0  0  0  0  0  0  0
   45.5080    9.8021   11.5604 C   0  0  0  0  0  0  0  0  0  0  0  0
   43.5570    9.5049   11.4342 H   0  0  0  0  0  0  0  0  0  0  0  0
 22 23  1  0  0  0
 23  1  1  0  0  0
  1  2  1  0  0  0
  1  3  1  0  0  0
  2  7  1  0  0  0
  3  4  1  0  0  0
  3  5  1  0  0  0
  5  6  1  0  0  0
  5  7  1  0  0  0
  7 10  1  0  0  0
 10 11  1  0  0  0
 10 19  1  0  0  0
 11 12  2  0  0  0
 12 13  1  0  0  0
 13 14  1  0  0  0
 13 19  2  0  0  0
 14 15  1  0  0  0
 14 16  2  0  0  0
 16 17  1  0  0  0
 17 18  2  0  0  0
 18 19  1  0  0  0
 22 24  1  0  0  0
  4  8  1  0  0  0
  6  9  1  0  0  0
 15 20  1  0  0  0
 15 21  1  0  0  0
M  END
> <minimizedAffinity>
-7.85641

$$$$
3AXZ_ADN_A_401


 24 26  0  0  0  0  0  0  0  0999 V2000
   46.7804    8.2317   12.2332 C   0  0  0  0  0  0  0  0  0  0  0  0
   46.9233    7.1200   11.3289 O   0  0  0  0  0  0  0  0  0  0  0  0
   45.3325    8.7160   12.1184 C   0  0  0  0  0  0  0  0  0  0  0  0
   45.1898    9.7070   11.0974 O   0  0  0  0  0  0  0  0  0  0  0  0
   44.6235    7.4257   11.7160 C   0  0  0  0  0  0  0  0  0  0  0  0
   43.3590    7.6749   11.0969 O   0  0  0  0  0  0  0  0  0  0  0  0
   45.6413    6.8318   10.7432 C   0  0  0  0  0  0  0  0  0  0  0  0
   45.5144    9.3524   10.2549 H   0  0  0  0  0  0  0  0  0  0  0  0
   43.4832    8.2568   10.3309 H   0  0  0  0  0  0  0  0  0  0  0  0
   45.4060    5.3798   10.5744 N   0  0  0  0  0  0  0  0  0  0  0  0
   44.8171    4.5791   11.4606 C   0  0  0  0  0  0  0  0  0  0  0  0
   44.7338    3.3463   10.9624 N   0  0  0  0  0  0  0  0  0  0  0  0
   45.2754    3.3598    9.7480 C   0  0  0  0  0  0  0  0  0  0  0  0
   45.4697    2.3994    8.7629 C   0  0  0  0  0  0  0  0  0  0  0  0
   45.0631    1.1462    8.9442 N   0  0  0  0  0  0  0  0  0  0  0  0
   46.0686    2.7567    7.6191 N   0  0  0  0  0  0  0  0  0  0  0  0
   46.4732    4.0002    7.4212 C   0  0  0  0  0  0  0  0  0  0  0  0
   46.3028    4.9386    8.3345 N   0  0  0  0  0  0  0  0  0  0  0  0
   45.7100    4.6549    9.5022 C   0  0  0  0  0  0  0  0  0  0  0  0
   44.6234    0.8882    9.7864 H   0  0  0  0  0  0  0  0  0  0  0  0
   45.2018    0.4764    8.2361 H   0  0  0  0  0  0  0  0  0  0  0  0
   47.0580    8.8993   14.5395 O   0  0  0  0  0  0  0  0  0  0  0  0
   47.0983    7.7740   13.6580 C   0  0  0  0  0  0  0  0  0  0  0  0
   47.2595    8.6096   15.4431 H   0  0  0  0  0  0  0  0  0  0  0  0
 22 23  1  0  0  0
 23  1  1  0  0  0
  1  2  1  0  0  0
  1  3  1  0  0  0
  2  7  1  0  0  0
  3  4  1  0  0  0
  3  5  1  0  0  0
  5  6  1  0  0  0
  5  7  1  0  0  0
  7 10  1  0  0  0
 10 11  1  0  0  0
 10 19  1  0  0  0
 11 12  2  0  0  0
 12 13  1  0  0  0
 13 14  1  0  0  0
 13 19  2  0  0  0
 14 15  1  0  0  0
 14 16  2  0  0  0
 16 17  1  0  0  0
 17 18  2  0  0  0
 18 19  1  0  0  0
 22 24  1  0  0  0
  4  8  1  0  0  0
  6  9  1  0  0  0
 15 20  1  0  0  0
 15 21  1  0  0  0
M  END
> <minimizedAffinity>
-7.74495

$$$$
3AXZ_ADN_A_401


 24 26  0  0  0  0  0  0  0  0999 V2000
   43.6602    4.7525   11.1271 C   0  0  0  0  0  0  0  0  0  0  0  0
   44.8189    5.5179   10.7457 O   0  0  0  0  0  0  0  0  0  0  0  0
   44.0935    3.8262   12.2666 C   0  0  0  0  0  0  0  0  0  0  0  0
   44.5834    2.5776   11.7706 O   0  0  0  0  0  0  0  0  0  0  0  0
   45.2266    4.6378   12.8886 C   0  0  0  0  0  0  0  0  0  0  0  0
   46.1079    3.8254   13.6681 O   0  0  0  0  0  0  0  0  0  0  0  0
   45.9019    5.1928   11.6352 C   0  0  0  0  0  0  0  0  0  0  0  0
   45.3092    2.7395   11.1478 H   0  0  0  0  0  0  0  0  0  0  0  0
   46.4565    3.1065   13.1179 H   0  0  0  0  0  0  0  0  0  0  0  0
   46.7319    6.3706   11.9760 N   0  0  0  0  0  0  0  0  0  0  0  0
   48.0371    6.3524   12.2393 C   0  0  0  0  0  0  0  0  0  0  0  0
   48.4651    7.5943   12.4619 N   0  0  0  0  0  0  0  0  0  0  0  0
   47.4237    8.4123   12.3410 C   0  0  0  0  0  0  0  0  0  0  0  0
   47.2530    9.7867   12.4522 C   0  0  0  0  0  0  0  0  0  0  0  0
   48.2830   10.5803   12.7318 N   0  0  0  0  0  0  0  0  0  0  0  0
   46.0319   10.3051   12.2656 N   0  0  0  0  0  0  0  0  0  0  0  0
   44.9987    9.5299   11.9810 C   0  0  0  0  0  0  0  0  0  0  0  0
   45.1251    8.2206   11.8657 N   0  0  0  0  0  0  0  0  0  0  0  0
   46.3166    7.6321   12.0374 C   0  0  0  0  0  0  0  0  0  0  0  0
   49.1786   10.1949   12.8682 H   0  0  0  0  0  0  0  0  0  0  0  0
   48.1498   11.5532   12.8025 H   0  0  0  0  0  0  0  0  0  0  0  0
   42.7403    6.9823   10.9728 O   0  0  0  0  0  0  0  0  0  0  0  0
   42.5486    5.7015   11.5793 C   0  0  0  0  0  0  0  0  0  0  0  0
   42.0357    7.5844   11.2592 H   0  0  0  0  0  0  0  0  0  0  0  0
 22 23  1  0  0  0
 23  1  1  0  0  0
  1  2  1  0  0  0
  1  3  1  0  0  0
  2  7  1  0  0  0
  3  4  1  0  0  0
  3  5  1  0  0  0
  5  6  1  0  0  0
  5  7  1  0  0  0
  7 10  1  0  0  0
 10 11  1  0  0  0
 10 19  1  0  0  0
 11 12  2  0  0  0
 12 13  1  0  0  0
 13 14  1  0  0  0
 13 19  2  0  0  0
 14 15  1  0  0  0
 14 16  2  0  0  0
 16 17  1  0  0  0
 17 18  2  0  0  0
 18 19  1  0  0  0
 22 24  1  0  0  0
  4  8  1  0  0  0
  6  9  1  0  0  0
 15 20  1  0  0  0
 15 21  1  0  0  0
M  END
> <minimizedAffinity>
-7.72140

$$$$
3AXZ_ADN_A_401


 24 26  0  0  0  0  0  0  0  0999 V2000
   45.5170    6.6618   11.2510 C   0  0  0  0  0  0  0  0  0  0  0  0
   45.7908    5.8794   10.0734 O   0  0  0  0  0  0  0  0  0  0  0  0
   44.1306    6.2457   11.7498 C   0  0  0  0  0  0  0  0  0  0  0  0
   43.0989    7.0363   11.1535 O   0  0  0  0  0  0  0  0  0  0  0  0
   44.0595    4.8056   11.2491 C   0  0  0  0  0  0  0  0  0  0  0  0
   42.7143    4.3283   11.1667 O   0  0  0  0  0  0  0  0  0  0  0  0
   44.7120    4.9485    9.8747 C   0  0  0  0  0  0  0  0  0  0  0  0
   43.1627    6.9757   10.1875 H   0  0  0  0  0  0  0  0  0  0  0  0
   42.1955    4.9197   10.5992 H   0  0  0  0  0  0  0  0  0  0  0  0
   45.1794    3.6310    9.3871 N   0  0  0  0  0  0  0  0  0  0  0  0
   44.8297    2.4476    9.8876 C   0  0  0  0  0  0  0  0  0  0  0  0
   45.4032    1.4759    9.1791 N   0  0  0  0  0  0  0  0  0  0  0  0
   46.1263    2.0440    8.2185 C   0  0  0  0  0  0  0  0  0  0  0  0
   46.9253    1.5579    7.1910 C   0  0  0  0  0  0  0  0  0  0  0  0
   47.0821    0.2495    7.0113 N   0  0  0  0  0  0  0  0  0  0  0  0
   47.5328    2.4296    6.3750 N   0  0  0  0  0  0  0  0  0  0  0  0
   47.3820    3.7336    6.5369 C   0  0  0  0  0  0  0  0  0  0  0  0
   46.6287    4.2301    7.5011 N   0  0  0  0  0  0  0  0  0  0  0  0
   45.9893    3.4185    8.3543 C   0  0  0  0  0  0  0  0  0  0  0  0
   46.6337   -0.3873    7.6134 H   0  0  0  0  0  0  0  0  0  0  0  0
   47.6466   -0.0821    6.2760 H   0  0  0  0  0  0  0  0  0  0  0  0
   46.4592    7.3287   13.3745 O   0  0  0  0  0  0  0  0  0  0  0  0
   46.5894    6.3863   12.3068 C   0  0  0  0  0  0  0  0  0  0  0  0
   47.1389    7.1545   14.0443 H   0  0  0  0  0  0  0  0  0  0  0  0
 22 23  1  0  0  0
 23  1  1  0  0  0
  1  2  1  0  0  0
  1  3  1  0  0  0
  2  7  1  0  0  0
  3  4  1  0  0  0
  3  5  1  0  0  0
  5  6  1  0  0  0
  5  7  1  0  0  0
  7 10  1  0  0  0
 10 11  1  0  0  0
 10 19  1  0  0  0
 11 12  2  0  0  0
 12 13  1  0  0  0
 13 14  1  0  0  0
 13 19  2  0  0  0
 14 15  1  0  0  0
 14 16  2  0  0  0
 16 17  1  0  0  0
 17 18  2  0  0  0
 18 19  1  0  0  0
 22 24  1  0  0  0
  4  8  1  0  0  0
  6  9  1  0  0  0
 15 20  1  0  0  0
 15 21  1  0  0  0
M  END
> <minimizedAffinity>
-7.70618

$$$$
3AXZ_ADN_A_401


 24 26  0  0  0  0  0  0  0  0999 V2000
   48.8507    8.1318   11.3004 C   0  0  0  0  0  0  0  0  0  0  0  0
   47.9128    7.0971   10.9487 O   0  0  0  0  0  0  0  0  0  0  0  0
   48.1345    9.0694   12.2761 C   0  0  0  0  0  0  0  0  0  0  0  0
   47.4477   10.1181   11.5880 O   0  0  0  0  0  0  0  0  0  0  0  0
   47.1387    8.1116   12.9246 C   0  0  0  0  0  0  0  0  0  0  0  0
   46.0422    8.8011   13.5300 O   0  0  0  0  0  0  0  0  0  0  0  0
   46.7091    7.2835   11.7143 C   0  0  0  0  0  0  0  0  0  0  0  0
   46.8307    9.7336   10.9459 H   0  0  0  0  0  0  0  0  0  0  0  0
   45.6063    9.3600   12.8678 H   0  0  0  0  0  0  0  0  0  0  0  0
   46.1094    6.0029   12.1531 N   0  0  0  0  0  0  0  0  0  0  0  0
   46.1795    5.4915   13.3806 C   0  0  0  0  0  0  0  0  0  0  0  0
   45.4922    4.3511   13.4291 N   0  0  0  0  0  0  0  0  0  0  0  0
   44.9799    4.1321   12.2217 C   0  0  0  0  0  0  0  0  0  0  0  0
   44.1867    3.1323   11.6725 C   0  0  0  0  0  0  0  0  0  0  0  0
   43.7698    2.1097   12.4136 N   0  0  0  0  0  0  0  0  0  0  0  0
   43.8395    3.2168   10.3813 N   0  0  0  0  0  0  0  0  0  0  0  0
   44.2409    4.2305    9.6327 C   0  0  0  0  0  0  0  0  0  0  0  0
   44.9935    5.1988   10.1222 N   0  0  0  0  0  0  0  0  0  0  0  0
   45.3783    5.1817   11.4056 C   0  0  0  0  0  0  0  0  0  0  0  0
   44.0274    2.0518   13.3620 H   0  0  0  0  0  0  0  0  0  0  0  0
   43.2035    1.4106   12.0137 H   0  0  0  0  0  0  0  0  0  0  0  0
   49.7290    6.2479   12.5340 O   0  0  0  0  0  0  0  0  0  0  0  0
   50.0863    7.5017   11.9463 C   0  0  0  0  0  0  0  0  0  0  0  0
   50.5121    5.8480   12.9437 H   0  0  0  0  0  0  0  0  0  0  0  0
 22 23  1  0  0  0
 23  1  1  0  0  0
  1  2  1  0  0  0
  1  3  1  0  0  0
  2  7  1  0  0  0
  3  4  1  0  0  0
  3  5  1  0  0  0
  5  6  1  0  0  0
  5  7  1  0  0  0
  7 10  1  0  0  0
 10 11  1  0  0  0
 10 19  1  0  0  0
 11 12  2  0  0  0
 12 13  1  0  0  0
 13 14  1  0  0  0
 13 19  2  0  0  0
 14 15  1  0  0  0
 14 16  2  0  0  0
 16 17  1  0  0  0
 17 18  2  0  0  0
 18 19  1  0  0  0
 22 24  1  0  0  0
  4  8  1  0  0  0
  6  9  1  0  0  0
 15 20  1  0  0  0
 15 21  1  0  0  0
M  END
> <minimizedAffinity>
-7.60900

$$$$
3AXZ_ADN_A_401


 24 26  0  0  0  0  0  0  0  0999 V2000
   44.6267    3.9260   11.0560 C   0  0  0  0  0  0  0  0  0  0  0  0
   45.4895    3.6420   12.1735 O   0  0  0  0  0  0  0  0  0  0  0  0
   43.9466    5.2663   11.3476 C   0  0  0  0  0  0  0  0  0  0  0  0
   42.7242    5.0889   12.0683 O   0  0  0  0  0  0  0  0  0  0  0  0
   44.9950    5.9410   12.2280 C   0  0  0  0  0  0  0  0  0  0  0  0
   44.4397    6.9967   13.0163 O   0  0  0  0  0  0  0  0  0  0  0  0
   45.4564    4.7590   13.0796 C   0  0  0  0  0  0  0  0  0  0  0  0
   42.8986    4.5933   12.8837 H   0  0  0  0  0  0  0  0  0  0  0  0
   43.7077    6.6508   13.5504 H   0  0  0  0  0  0  0  0  0  0  0  0
   46.7789    5.0432   13.6816 N   0  0  0  0  0  0  0  0  0  0  0  0
   47.7292    5.8072   13.1463 C   0  0  0  0  0  0  0  0  0  0  0  0
   48.7671    5.8775   13.9786 N   0  0  0  0  0  0  0  0  0  0  0  0
   48.4774    5.1511   15.0541 C   0  0  0  0  0  0  0  0  0  0  0  0
   49.1493    4.8561   16.2339 C   0  0  0  0  0  0  0  0  0  0  0  0
   50.3597    5.3536   16.4709 N   0  0  0  0  0  0  0  0  0  0  0  0
   48.5550    4.0656   17.1376 N   0  0  0  0  0  0  0  0  0  0  0  0
   47.3491    3.5680   16.9195 C   0  0  0  0  0  0  0  0  0  0  0  0
   46.6812    3.8293   15.8108 N   0  0  0  0  0  0  0  0  0  0  0  0
   47.2122    4.6135   14.8628 C   0  0  0  0  0  0  0  0  0  0  0  0
   50.7926    5.9340   15.8038 H   0  0  0  0  0  0  0  0  0  0  0  0
   50.8229    5.1413   17.3133 H   0  0  0  0  0  0  0  0  0  0  0  0
   44.7082    4.6616    8.7551 O   0  0  0  0  0  0  0  0  0  0  0  0
   45.4591    3.9965    9.7742 C   0  0  0  0  0  0  0  0  0  0  0  0
   45.2356    4.7066    7.9422 H   0  0  0  0  0  0  0  0  0  0  0  0
 22 23  1  0  0  0
 23  1  1  0  0  0
  1  2  1  0  0  0
  1  3  1  0  0  0
  2  7  1  0  0  0
  3  4  1  0  0  0
  3  5  1  0  0  0
  5  6  1  0  0  0
  5  7  1  0  0  0
  7 10  1  0  0  0
 10 11  1  0  0  0
 10 19  1  0  0  0
 11 12  2  0  0  0
 12 13  1  0  0  0
 13 14  1  0  0  0
 13 19  2  0  0  0
 14 15  1  0  0  0
 14 16  2  0  0  0
 16 17  1  0  0  0
 17 18  2  0  0  0
 18 19  1  0  0  0
 22 24  1  0  0  0
  4  8  1  0  0  0
  6  9  1  0  0  0
 15 20  1  0  0  0
 15 21  1  0  0  0
M  END
> <minimizedAffinity>
-7.53519

$$$$
