6HQY_GKW_A_504


 24 26  0  0  0  0  0  0  0  0999 V2000
   44.1070   37.3416   85.8465 N   0  0  0  0  0  0  0  0  0  0  0  0
   42.8002   37.6808   85.7496 C   0  0  0  0  0  0  0  0  0  0  0  0
   42.0774   36.5704   85.2895 C   0  0  0  0  0  0  0  0  0  0  0  0
   43.0342   35.4982   85.0938 C   0  0  0  0  0  0  0  0  0  0  0  0
   42.9239   34.1571   84.6522 C   0  0  0  0  0  0  0  0  0  0  0  0
   44.0447   33.3420   84.5624 C   0  0  0  0  0  0  0  0  0  0  0  0
   45.3175   33.8447   84.9105 C   0  0  0  0  0  0  0  0  0  0  0  0
   45.4163   35.1695   85.3452 C   0  0  0  0  0  0  0  0  0  0  0  0
   44.2623   35.9995   85.4339 C   0  0  0  0  0  0  0  0  0  0  0  0
   46.5909   32.9308   84.8151 C   0  0  0  0  0  0  0  0  0  0  0  0
   46.5369   31.7419   85.1772 O   0  0  0  0  0  0  0  0  0  0  0  0
   47.8400   33.4468   84.2949 N   0  0  0  0  0  0  0  0  0  0  0  0
   48.8966   32.7055   84.2075 O   0  0  0  0  0  0  0  0  0  0  0  0
   47.8862   34.3851   84.0005 H   0  0  0  0  0  0  0  0  0  0  0  0
   48.6944   31.8145   84.5334 H   0  0  0  0  0  0  0  0  0  0  0  0
   45.2065   38.2261   86.2670 C   0  0  0  0  0  0  0  0  0  0  0  0
   45.5443   39.2572   90.4688 C   0  0  0  0  0  0  0  0  0  0  0  0
   46.0552   40.1147   89.4857 C   0  0  0  0  0  0  0  0  0  0  0  0
   45.9371   39.7624   88.1242 C   0  0  0  0  0  0  0  0  0  0  0  0
   45.3004   38.5486   87.7406 C   0  0  0  0  0  0  0  0  0  0  0  0
   44.7923   37.6932   88.7165 C   0  0  0  0  0  0  0  0  0  0  0  0
   44.9112   38.0453   90.0875 C   0  0  0  0  0  0  0  0  0  0  0  0
   46.5267   40.5739   92.2200 C   0  0  0  0  0  0  0  0  0  0  0  0
   45.6512   39.5898   91.8089 O   0  0  0  0  0  0  0  0  0  0  0  0
  5  6  2  0  0  0
  5  4  1  0  0  0
  3  4  1  0  0  0
  3  2  2  0  0  0
  6  7  1  0  0  0
  4  9  2  0  0  0
  2  1  1  0  0  0
 12 13  1  0  0  0
 12 10  1  0  0  0
  9  1  1  0  0  0
  9  8  1  0  0  0
  7  8  2  0  0  0
  7 10  1  0  0  0
  1 16  1  0  0  0
 10 11  2  0  0  0
 16 20  1  0  0  0
 20 21  2  0  0  0
 20 19  1  0  0  0
 21 22  1  0  0  0
 19 18  2  0  0  0
 22 17  2  0  0  0
 18 17  1  0  0  0
 17 24  1  0  0  0
 24 23  1  0  0  0
 12 14  1  0  0  0
 13 15  1  0  0  0
M  END
> <minimizedAffinity>
-7.45294

$$$$
6HQY_GKW_A_504


 24 26  0  0  0  0  0  0  0  0999 V2000
   43.6506   37.7196   86.9623 N   0  0  0  0  0  0  0  0  0  0  0  0
   42.8525   38.7282   86.5405 C   0  0  0  0  0  0  0  0  0  0  0  0
   42.6300   38.5834   85.1633 C   0  0  0  0  0  0  0  0  0  0  0  0
   43.3596   37.4030   84.7418 C   0  0  0  0  0  0  0  0  0  0  0  0
   43.5266   36.7488   83.4969 C   0  0  0  0  0  0  0  0  0  0  0  0
   44.3060   35.6040   83.3923 C   0  0  0  0  0  0  0  0  0  0  0  0
   44.9480   35.0761   84.5337 C   0  0  0  0  0  0  0  0  0  0  0  0
   44.7773   35.7287   85.7579 C   0  0  0  0  0  0  0  0  0  0  0  0
   43.9771   36.9027   85.8570 C   0  0  0  0  0  0  0  0  0  0  0  0
   45.8294   33.7808   84.4271 C   0  0  0  0  0  0  0  0  0  0  0  0
   45.2919   32.6599   84.3804 O   0  0  0  0  0  0  0  0  0  0  0  0
   47.2737   33.8662   84.3679 N   0  0  0  0  0  0  0  0  0  0  0  0
   48.0130   32.8084   84.2770 O   0  0  0  0  0  0  0  0  0  0  0  0
   47.7038   34.7513   84.3975 H   0  0  0  0  0  0  0  0  0  0  0  0
   47.4483   32.0199   84.2587 H   0  0  0  0  0  0  0  0  0  0  0  0
   44.1447   37.5170   88.3344 C   0  0  0  0  0  0  0  0  0  0  0  0
   47.0025   40.3661   89.9308 C   0  0  0  0  0  0  0  0  0  0  0  0
   46.0386   39.7860   90.7658 C   0  0  0  0  0  0  0  0  0  0  0  0
   45.1167   38.8621   90.2289 C   0  0  0  0  0  0  0  0  0  0  0  0
   45.1600   38.5108   88.8503 C   0  0  0  0  0  0  0  0  0  0  0  0
   46.1170   39.0871   88.0171 C   0  0  0  0  0  0  0  0  0  0  0  0
   47.0450   40.0182   88.5553 C   0  0  0  0  0  0  0  0  0  0  0  0
   49.1548   40.8518   90.8781 C   0  0  0  0  0  0  0  0  0  0  0  0
   47.9149   41.2732   90.4433 O   0  0  0  0  0  0  0  0  0  0  0  0
  5  6  2  0  0  0
  5  4  1  0  0  0
  3  4  1  0  0  0
  3  2  2  0  0  0
  6  7  1  0  0  0
  4  9  2  0  0  0
  2  1  1  0  0  0
 12 13  1  0  0  0
 12 10  1  0  0  0
  9  1  1  0  0  0
  9  8  1  0  0  0
  7  8  2  0  0  0
  7 10  1  0  0  0
  1 16  1  0  0  0
 10 11  2  0  0  0
 16 20  1  0  0  0
 20 21  2  0  0  0
 20 19  1  0  0  0
 21 22  1  0  0  0
 19 18  2  0  0  0
 22 17  2  0  0  0
 18 17  1  0  0  0
 17 24  1  0  0  0
 24 23  1  0  0  0
 12 14  1  0  0  0
 13 15  1  0  0  0
M  END
> <minimizedAffinity>
-7.25365

$$$$
6HQY_GKW_A_504


 24 26  0  0  0  0  0  0  0  0999 V2000
   42.2262   37.2960   86.0482 N   0  0  0  0  0  0  0  0  0  0  0  0
   41.2933   38.0631   85.4370 C   0  0  0  0  0  0  0  0  0  0  0  0
   41.2275   37.7030   84.0831 C   0  0  0  0  0  0  0  0  0  0  0  0
   42.2021   36.6480   83.8813 C   0  0  0  0  0  0  0  0  0  0  0  0
   42.6015   35.8875   82.7554 C   0  0  0  0  0  0  0  0  0  0  0  0
   43.5894   34.9175   82.8647 C   0  0  0  0  0  0  0  0  0  0  0  0
   44.2138   34.6777   84.1082 C   0  0  0  0  0  0  0  0  0  0  0  0
   43.8130   35.4334   85.2137 C   0  0  0  0  0  0  0  0  0  0  0  0
   42.7996   36.4270   85.0934 C   0  0  0  0  0  0  0  0  0  0  0  0
   45.3300   33.5814   84.2435 C   0  0  0  0  0  0  0  0  0  0  0  0
   45.0216   32.3777   84.3019 O   0  0  0  0  0  0  0  0  0  0  0  0
   46.7305   33.9470   84.2888 N   0  0  0  0  0  0  0  0  0  0  0  0
   47.6615   33.0552   84.3970 O   0  0  0  0  0  0  0  0  0  0  0  0
   46.9803   34.8978   84.2359 H   0  0  0  0  0  0  0  0  0  0  0  0
   47.2608   32.1727   84.4376 H   0  0  0  0  0  0  0  0  0  0  0  0
   42.6237   37.3722   87.4638 C   0  0  0  0  0  0  0  0  0  0  0  0
   46.1894   39.6171   88.5027 C   0  0  0  0  0  0  0  0  0  0  0  0
   45.6186   38.7283   89.4230 C   0  0  0  0  0  0  0  0  0  0  0  0
   44.4584   38.0074   89.0680 C   0  0  0  0  0  0  0  0  0  0  0  0
   43.8664   38.1708   87.7841 C   0  0  0  0  0  0  0  0  0  0  0  0
   44.4313   39.0551   86.8669 C   0  0  0  0  0  0  0  0  0  0  0  0
   45.5983   39.7825   87.2227 C   0  0  0  0  0  0  0  0  0  0  0  0
   47.5986   40.6473   90.1514 C   0  0  0  0  0  0  0  0  0  0  0  0
   47.3286   40.3305   88.8358 O   0  0  0  0  0  0  0  0  0  0  0  0
  5  6  2  0  0  0
  5  4  1  0  0  0
  3  4  1  0  0  0
  3  2  2  0  0  0
  6  7  1  0  0  0
  4  9  2  0  0  0
  2  1  1  0  0  0
 12 13  1  0  0  0
 12 10  1  0  0  0
  9  1  1  0  0  0
  9  8  1  0  0  0
  7  8  2  0  0  0
  7 10  1  0  0  0
  1 16  1  0  0  0
 10 11  2  0  0  0
 16 20  1  0  0  0
 20 21  2  0  0  0
 20 19  1  0  0  0
 21 22  1  0  0  0
 19 18  2  0  0  0
 22 17  2  0  0  0
 18 17  1  0  0  0
 17 24  1  0  0  0
 24 23  1  0  0  0
 12 14  1  0  0  0
 13 15  1  0  0  0
M  END
> <minimizedAffinity>
-7.08256

$$$$
6HQY_GKW_A_504


 24 26  0  0  0  0  0  0  0  0999 V2000
   40.2565   35.1666   84.9573 N   0  0  0  0  0  0  0  0  0  0  0  0
   39.4202   35.9332   84.2189 C   0  0  0  0  0  0  0  0  0  0  0  0
   40.1220   36.4305   83.1111 C   0  0  0  0  0  0  0  0  0  0  0  0
   41.4771   35.9232   83.2100 C   0  0  0  0  0  0  0  0  0  0  0  0
   42.6371   36.0692   82.4108 C   0  0  0  0  0  0  0  0  0  0  0  0
   43.8285   35.4488   82.7638 C   0  0  0  0  0  0  0  0  0  0  0  0
   43.8988   34.6613   83.9337 C   0  0  0  0  0  0  0  0  0  0  0  0
   42.7488   34.5232   84.7161 C   0  0  0  0  0  0  0  0  0  0  0  0
   41.5308   35.1632   84.3478 C   0  0  0  0  0  0  0  0  0  0  0  0
   45.2401   33.9534   84.3408 C   0  0  0  0  0  0  0  0  0  0  0  0
   46.2534   34.6295   84.5930 O   0  0  0  0  0  0  0  0  0  0  0  0
   45.3192   32.5111   84.4427 N   0  0  0  0  0  0  0  0  0  0  0  0
   46.4161   31.9136   84.7797 O   0  0  0  0  0  0  0  0  0  0  0  0
   44.5182   31.9717   84.2509 H   0  0  0  0  0  0  0  0  0  0  0  0
   47.1094   32.5740   84.9351 H   0  0  0  0  0  0  0  0  0  0  0  0
   39.9230   34.4791   86.2159 C   0  0  0  0  0  0  0  0  0  0  0  0
   39.5378   36.8646   89.8206 C   0  0  0  0  0  0  0  0  0  0  0  0
   38.7118   35.7516   89.6160 C   0  0  0  0  0  0  0  0  0  0  0  0
   38.8507   34.9881   88.4372 C   0  0  0  0  0  0  0  0  0  0  0  0
   39.8238   35.3345   87.4580 C   0  0  0  0  0  0  0  0  0  0  0  0
   40.6461   36.4418   87.6583 C   0  0  0  0  0  0  0  0  0  0  0  0
   40.5071   37.2123   88.8435 C   0  0  0  0  0  0  0  0  0  0  0  0
   40.3999   37.5972   91.9385 C   0  0  0  0  0  0  0  0  0  0  0  0
   39.4145   37.6227   90.9729 O   0  0  0  0  0  0  0  0  0  0  0  0
  5  6  2  0  0  0
  5  4  1  0  0  0
  3  4  1  0  0  0
  3  2  2  0  0  0
  6  7  1  0  0  0
  4  9  2  0  0  0
  2  1  1  0  0  0
 12 13  1  0  0  0
 12 10  1  0  0  0
  9  1  1  0  0  0
  9  8  1  0  0  0
  7  8  2  0  0  0
  7 10  1  0  0  0
  1 16  1  0  0  0
 10 11  2  0  0  0
 16 20  1  0  0  0
 20 21  2  0  0  0
 20 19  1  0  0  0
 21 22  1  0  0  0
 19 18  2  0  0  0
 22 17  2  0  0  0
 18 17  1  0  0  0
 17 24  1  0  0  0
 24 23  1  0  0  0
 12 14  1  0  0  0
 13 15  1  0  0  0
M  END
> <minimizedAffinity>
-6.91039

$$$$
6HQY_GKW_A_504


 24 26  0  0  0  0  0  0  0  0999 V2000
   44.9861   38.0993   86.6155 N   0  0  0  0  0  0  0  0  0  0  0  0
   44.5861   39.2720   86.0705 C   0  0  0  0  0  0  0  0  0  0  0  0
   44.2107   39.0469   84.7380 C   0  0  0  0  0  0  0  0  0  0  0  0
   44.4126   37.6345   84.4776 C   0  0  0  0  0  0  0  0  0  0  0  0
   44.2198   36.8120   83.3410 C   0  0  0  0  0  0  0  0  0  0  0  0
   44.5076   35.4541   83.3869 C   0  0  0  0  0  0  0  0  0  0  0  0
   45.0019   34.8734   84.5753 C   0  0  0  0  0  0  0  0  0  0  0  0
   45.1890   35.6932   85.6918 C   0  0  0  0  0  0  0  0  0  0  0  0
   44.8923   37.0852   85.6366 C   0  0  0  0  0  0  0  0  0  0  0  0
   45.3281   33.3386   84.6388 C   0  0  0  0  0  0  0  0  0  0  0  0
   44.4824   32.5031   84.2726 O   0  0  0  0  0  0  0  0  0  0  0  0
   46.6152   32.8702   85.1088 N   0  0  0  0  0  0  0  0  0  0  0  0
   46.8997   31.6093   85.1641 O   0  0  0  0  0  0  0  0  0  0  0  0
   47.2906   33.5276   85.3934 H   0  0  0  0  0  0  0  0  0  0  0  0
   46.1399   31.0925   84.8534 H   0  0  0  0  0  0  0  0  0  0  0  0
   45.4837   37.9024   87.9873 C   0  0  0  0  0  0  0  0  0  0  0  0
   42.4267   37.7815   91.0651 C   0  0  0  0  0  0  0  0  0  0  0  0
   42.0678   37.8427   89.7122 C   0  0  0  0  0  0  0  0  0  0  0  0
   43.0757   37.8823   88.7251 C   0  0  0  0  0  0  0  0  0  0  0  0
   44.4511   37.8557   89.0901 C   0  0  0  0  0  0  0  0  0  0  0  0
   44.8111   37.7960   90.4351 C   0  0  0  0  0  0  0  0  0  0  0  0
   43.7982   37.7573   91.4302 C   0  0  0  0  0  0  0  0  0  0  0  0
   40.2524   37.0931   91.8161 C   0  0  0  0  0  0  0  0  0  0  0  0
   41.4492   37.7406   92.0452 O   0  0  0  0  0  0  0  0  0  0  0  0
  5  6  2  0  0  0
  5  4  1  0  0  0
  3  4  1  0  0  0
  3  2  2  0  0  0
  6  7  1  0  0  0
  4  9  2  0  0  0
  2  1  1  0  0  0
 12 13  1  0  0  0
 12 10  1  0  0  0
  9  1  1  0  0  0
  9  8  1  0  0  0
  7  8  2  0  0  0
  7 10  1  0  0  0
  1 16  1  0  0  0
 10 11  2  0  0  0
 16 20  1  0  0  0
 20 21  2  0  0  0
 20 19  1  0  0  0
 21 22  1  0  0  0
 19 18  2  0  0  0
 22 17  2  0  0  0
 18 17  1  0  0  0
 17 24  1  0  0  0
 24 23  1  0  0  0
 12 14  1  0  0  0
 13 15  1  0  0  0
M  END
> <minimizedAffinity>
-6.86585

$$$$
6HQY_GKW_A_504


 24 26  0  0  0  0  0  0  0  0999 V2000
   43.9827   38.5707   87.5519 N   0  0  0  0  0  0  0  0  0  0  0  0
   43.2396   39.6626   87.2557 C   0  0  0  0  0  0  0  0  0  0  0  0
   42.8302   39.5816   85.9167 C   0  0  0  0  0  0  0  0  0  0  0  0
   43.3813   38.3509   85.3827 C   0  0  0  0  0  0  0  0  0  0  0  0
   43.3234   37.7222   84.1150 C   0  0  0  0  0  0  0  0  0  0  0  0
   43.9675   36.5127   83.8893 C   0  0  0  0  0  0  0  0  0  0  0  0
   44.6953   35.8918   84.9279 C   0  0  0  0  0  0  0  0  0  0  0  0
   44.7468   36.5200   86.1756 C   0  0  0  0  0  0  0  0  0  0  0  0
   44.0842   37.7608   86.3990 C   0  0  0  0  0  0  0  0  0  0  0  0
   45.4251   34.5229   84.6843 C   0  0  0  0  0  0  0  0  0  0  0  0
   46.6597   34.4894   84.5355 O   0  0  0  0  0  0  0  0  0  0  0  0
   44.6821   33.2806   84.6420 N   0  0  0  0  0  0  0  0  0  0  0  0
   45.2696   32.1449   84.4452 O   0  0  0  0  0  0  0  0  0  0  0  0
   43.7057   33.3009   84.7661 H   0  0  0  0  0  0  0  0  0  0  0  0
   46.2234   32.2878   84.3417 H   0  0  0  0  0  0  0  0  0  0  0  0
   44.6258   38.2805   88.8443 C   0  0  0  0  0  0  0  0  0  0  0  0
   47.7076   40.9937   90.2492 C   0  0  0  0  0  0  0  0  0  0  0  0
   46.7343   40.5087   91.1326 C   0  0  0  0  0  0  0  0  0  0  0  0
   45.7391   39.6279   90.6576 C   0  0  0  0  0  0  0  0  0  0  0  0
   45.7178   39.2242   89.2929 C   0  0  0  0  0  0  0  0  0  0  0  0
   46.6841   39.7059   88.4117 C   0  0  0  0  0  0  0  0  0  0  0  0
   47.6859   40.5935   88.8875 C   0  0  0  0  0  0  0  0  0  0  0  0
   49.5148   41.4975   91.7478 C   0  0  0  0  0  0  0  0  0  0  0  0
   48.6914   41.8575   90.7007 O   0  0  0  0  0  0  0  0  0  0  0  0
  5  6  2  0  0  0
  5  4  1  0  0  0
  3  4  1  0  0  0
  3  2  2  0  0  0
  6  7  1  0  0  0
  4  9  2  0  0  0
  2  1  1  0  0  0
 12 13  1  0  0  0
 12 10  1  0  0  0
  9  1  1  0  0  0
  9  8  1  0  0  0
  7  8  2  0  0  0
  7 10  1  0  0  0
  1 16  1  0  0  0
 10 11  2  0  0  0
 16 20  1  0  0  0
 20 21  2  0  0  0
 20 19  1  0  0  0
 21 22  1  0  0  0
 19 18  2  0  0  0
 22 17  2  0  0  0
 18 17  1  0  0  0
 17 24  1  0  0  0
 24 23  1  0  0  0
 12 14  1  0  0  0
 13 15  1  0  0  0
M  END
> <minimizedAffinity>
-6.53096

$$$$
6HQY_GKW_A_504


 24 26  0  0  0  0  0  0  0  0999 V2000
   40.6873   35.6137   85.6114 N   0  0  0  0  0  0  0  0  0  0  0  0
   40.1174   34.8813   86.5968 C   0  0  0  0  0  0  0  0  0  0  0  0
   38.9008   34.3630   86.1296 C   0  0  0  0  0  0  0  0  0  0  0  0
   38.7396   34.8331   84.7670 C   0  0  0  0  0  0  0  0  0  0  0  0
   37.7371   34.6548   83.7828 C   0  0  0  0  0  0  0  0  0  0  0  0
   37.8554   35.2431   82.5303 C   0  0  0  0  0  0  0  0  0  0  0  0
   38.9837   36.0338   82.2216 C   0  0  0  0  0  0  0  0  0  0  0  0
   39.9679   36.2040   83.1994 C   0  0  0  0  0  0  0  0  0  0  0  0
   39.8390   35.5981   84.4819 C   0  0  0  0  0  0  0  0  0  0  0  0
   39.1288   36.7014   80.8076 C   0  0  0  0  0  0  0  0  0  0  0  0
   39.3346   35.9989   79.8018 O   0  0  0  0  0  0  0  0  0  0  0  0
   39.0131   38.1358   80.6465 N   0  0  0  0  0  0  0  0  0  0  0  0
   39.1272   38.7000   79.4878 O   0  0  0  0  0  0  0  0  0  0  0  0
   38.8433   38.6956   81.4383 H   0  0  0  0  0  0  0  0  0  0  0  0
   39.2913   38.0226   78.8131 H   0  0  0  0  0  0  0  0  0  0  0  0
   41.9592   36.3501   85.6994 C   0  0  0  0  0  0  0  0  0  0  0  0
   45.5167   34.0445   84.7715 C   0  0  0  0  0  0  0  0  0  0  0  0
   44.3031   33.7632   84.1306 C   0  0  0  0  0  0  0  0  0  0  0  0
   43.1562   34.5229   84.4458 C   0  0  0  0  0  0  0  0  0  0  0  0
   43.2218   35.5738   85.4034 C   0  0  0  0  0  0  0  0  0  0  0  0
   44.4275   35.8550   86.0434 C   0  0  0  0  0  0  0  0  0  0  0  0
   45.5827   35.0908   85.7285 C   0  0  0  0  0  0  0  0  0  0  0  0
   46.8533   32.0679   85.0405 C   0  0  0  0  0  0  0  0  0  0  0  0
   46.6511   33.3088   84.4718 O   0  0  0  0  0  0  0  0  0  0  0  0
  5  6  2  0  0  0
  5  4  1  0  0  0
  3  4  1  0  0  0
  3  2  2  0  0  0
  6  7  1  0  0  0
  4  9  2  0  0  0
  2  1  1  0  0  0
 12 13  1  0  0  0
 12 10  1  0  0  0
  9  1  1  0  0  0
  9  8  1  0  0  0
  7  8  2  0  0  0
  7 10  1  0  0  0
  1 16  1  0  0  0
 10 11  2  0  0  0
 16 20  1  0  0  0
 20 21  2  0  0  0
 20 19  1  0  0  0
 21 22  1  0  0  0
 19 18  2  0  0  0
 22 17  2  0  0  0
 18 17  1  0  0  0
 17 24  1  0  0  0
 24 23  1  0  0  0
 12 14  1  0  0  0
 13 15  1  0  0  0
M  END
> <minimizedAffinity>
-6.17116

$$$$
6HQY_GKW_A_504


 24 26  0  0  0  0  0  0  0  0999 V2000
   40.8120   36.2449   85.5344 N   0  0  0  0  0  0  0  0  0  0  0  0
   39.9253   36.9033   84.7518 C   0  0  0  0  0  0  0  0  0  0  0  0
   40.3919   36.8900   83.4292 C   0  0  0  0  0  0  0  0  0  0  0  0
   41.6537   36.1750   83.4362 C   0  0  0  0  0  0  0  0  0  0  0  0
   42.5914   35.8357   82.4306 C   0  0  0  0  0  0  0  0  0  0  0  0
   43.7437   35.1253   82.7412 C   0  0  0  0  0  0  0  0  0  0  0  0
   43.9973   34.7320   84.0734 C   0  0  0  0  0  0  0  0  0  0  0  0
   43.0661   35.0715   85.0589 C   0  0  0  0  0  0  0  0  0  0  0  0
   41.8870   35.8009   84.7327 C   0  0  0  0  0  0  0  0  0  0  0  0
   45.2958   33.9263   84.4351 C   0  0  0  0  0  0  0  0  0  0  0  0
   46.3417   34.5276   84.7381 O   0  0  0  0  0  0  0  0  0  0  0  0
   45.2969   32.4782   84.4361 N   0  0  0  0  0  0  0  0  0  0  0  0
   46.3578   31.8006   84.7347 O   0  0  0  0  0  0  0  0  0  0  0  0
   44.4698   31.9974   84.2037 H   0  0  0  0  0  0  0  0  0  0  0  0
   47.0841   32.4103   84.9386 H   0  0  0  0  0  0  0  0  0  0  0  0
   40.7119   36.0527   86.9907 C   0  0  0  0  0  0  0  0  0  0  0  0
   42.3793   39.1015   89.5902 C   0  0  0  0  0  0  0  0  0  0  0  0
   41.2681   38.3524   89.9988 C   0  0  0  0  0  0  0  0  0  0  0  0
   40.7389   37.3657   89.1397 C   0  0  0  0  0  0  0  0  0  0  0  0
   41.3253   37.1213   87.8661 C   0  0  0  0  0  0  0  0  0  0  0  0
   42.4300   37.8657   87.4565 C   0  0  0  0  0  0  0  0  0  0  0  0
   42.9634   38.8601   88.3192 C   0  0  0  0  0  0  0  0  0  0  0  0
   44.1703   40.5849   90.1880 C   0  0  0  0  0  0  0  0  0  0  0  0
   42.9109   40.0722   90.4226 O   0  0  0  0  0  0  0  0  0  0  0  0
  5  6  2  0  0  0
  5  4  1  0  0  0
  3  4  1  0  0  0
  3  2  2  0  0  0
  6  7  1  0  0  0
  4  9  2  0  0  0
  2  1  1  0  0  0
 12 13  1  0  0  0
 12 10  1  0  0  0
  9  1  1  0  0  0
  9  8  1  0  0  0
  7  8  2  0  0  0
  7 10  1  0  0  0
  1 16  1  0  0  0
 10 11  2  0  0  0
 16 20  1  0  0  0
 20 21  2  0  0  0
 20 19  1  0  0  0
 21 22  1  0  0  0
 19 18  2  0  0  0
 22 17  2  0  0  0
 18 17  1  0  0  0
 17 24  1  0  0  0
 24 23  1  0  0  0
 12 14  1  0  0  0
 13 15  1  0  0  0
M  END
> <minimizedAffinity>
-6.06402

$$$$
6HQY_GKW_A_504


 24 26  0  0  0  0  0  0  0  0999 V2000
   43.9136   36.3562   86.6586 N   0  0  0  0  0  0  0  0  0  0  0  0
   44.9692   35.5304   86.8485 C   0  0  0  0  0  0  0  0  0  0  0  0
   45.1442   34.7479   85.6977 C   0  0  0  0  0  0  0  0  0  0  0  0
   44.1071   35.1388   84.7623 C   0  0  0  0  0  0  0  0  0  0  0  0
   43.7622   34.7217   83.4536 C   0  0  0  0  0  0  0  0  0  0  0  0
   42.6869   35.2912   82.7842 C   0  0  0  0  0  0  0  0  0  0  0  0
   41.9172   36.2986   83.4059 C   0  0  0  0  0  0  0  0  0  0  0  0
   42.2651   36.7036   84.6977 C   0  0  0  0  0  0  0  0  0  0  0  0
   43.3689   36.1141   85.3779 C   0  0  0  0  0  0  0  0  0  0  0  0
   40.7008   36.9511   82.6570 C   0  0  0  0  0  0  0  0  0  0  0  0
   39.8989   37.6731   83.2759 O   0  0  0  0  0  0  0  0  0  0  0  0
   40.4984   36.7375   81.2392 N   0  0  0  0  0  0  0  0  0  0  0  0
   39.5029   37.2707   80.6079 O   0  0  0  0  0  0  0  0  0  0  0  0
   41.1341   36.1726   80.7433 H   0  0  0  0  0  0  0  0  0  0  0  0
   38.9707   37.7945   81.2269 H   0  0  0  0  0  0  0  0  0  0  0  0
   43.3785   37.3220   87.6327 C   0  0  0  0  0  0  0  0  0  0  0  0
   46.3230   39.6923   89.7645 C   0  0  0  0  0  0  0  0  0  0  0  0
   46.3010   39.6824   88.3637 C   0  0  0  0  0  0  0  0  0  0  0  0
   45.3367   38.9048   87.6875 C   0  0  0  0  0  0  0  0  0  0  0  0
   44.3847   38.1356   88.4138 C   0  0  0  0  0  0  0  0  0  0  0  0
   44.4049   38.1426   89.8073 C   0  0  0  0  0  0  0  0  0  0  0  0
   45.3754   38.9235   90.4899 C   0  0  0  0  0  0  0  0  0  0  0  0
   48.4593   40.7856   89.8432 C   0  0  0  0  0  0  0  0  0  0  0  0
   47.2621   40.4514   90.4424 O   0  0  0  0  0  0  0  0  0  0  0  0
  5  6  2  0  0  0
  5  4  1  0  0  0
  3  4  1  0  0  0
  3  2  2  0  0  0
  6  7  1  0  0  0
  4  9  2  0  0  0
  2  1  1  0  0  0
 12 13  1  0  0  0
 12 10  1  0  0  0
  9  1  1  0  0  0
  9  8  1  0  0  0
  7  8  2  0  0  0
  7 10  1  0  0  0
  1 16  1  0  0  0
 10 11  2  0  0  0
 16 20  1  0  0  0
 20 21  2  0  0  0
 20 19  1  0  0  0
 21 22  1  0  0  0
 19 18  2  0  0  0
 22 17  2  0  0  0
 18 17  1  0  0  0
 17 24  1  0  0  0
 24 23  1  0  0  0
 12 14  1  0  0  0
 13 15  1  0  0  0
M  END
> <minimizedAffinity>
-6.05924

$$$$
6HQY_GKW_A_504


 24 26  0  0  0  0  0  0  0  0999 V2000
   40.4153   35.7797   85.3273 N   0  0  0  0  0  0  0  0  0  0  0  0
   39.5035   35.0254   84.6701 C   0  0  0  0  0  0  0  0  0  0  0  0
   38.4385   34.7442   85.5385 C   0  0  0  0  0  0  0  0  0  0  0  0
   38.7521   35.3757   86.8059 C   0  0  0  0  0  0  0  0  0  0  0  0
   38.0846   35.4519   88.0526 C   0  0  0  0  0  0  0  0  0  0  0  0
   38.6420   36.1465   89.1182 C   0  0  0  0  0  0  0  0  0  0  0  0
   39.8914   36.7878   88.9713 C   0  0  0  0  0  0  0  0  0  0  0  0
   40.5427   36.7070   87.7371 C   0  0  0  0  0  0  0  0  0  0  0  0
   39.9649   35.9921   86.6492 C   0  0  0  0  0  0  0  0  0  0  0  0
   40.5295   37.5781   90.1689 C   0  0  0  0  0  0  0  0  0  0  0  0
   41.2023   38.6024   89.9554 O   0  0  0  0  0  0  0  0  0  0  0  0
   40.3371   37.1406   91.5359 N   0  0  0  0  0  0  0  0  0  0  0  0
   40.8539   37.7828   92.5330 O   0  0  0  0  0  0  0  0  0  0  0  0
   39.7997   36.3345   91.7107 H   0  0  0  0  0  0  0  0  0  0  0  0
   41.3508   38.5475   92.2026 H   0  0  0  0  0  0  0  0  0  0  0  0
   41.6934   36.2690   84.7841 C   0  0  0  0  0  0  0  0  0  0  0  0
   45.2161   33.8502   85.5408 C   0  0  0  0  0  0  0  0  0  0  0  0
   44.8430   34.8588   86.4387 C   0  0  0  0  0  0  0  0  0  0  0  0
   43.6948   35.6361   86.1757 C   0  0  0  0  0  0  0  0  0  0  0  0
   42.9106   35.4022   85.0113 C   0  0  0  0  0  0  0  0  0  0  0  0
   43.2799   34.4004   84.1157 C   0  0  0  0  0  0  0  0  0  0  0  0
   44.4359   33.6177   84.3779 C   0  0  0  0  0  0  0  0  0  0  0  0
   46.8648   32.2703   84.7982 C   0  0  0  0  0  0  0  0  0  0  0  0
   46.3393   33.0782   85.7858 O   0  0  0  0  0  0  0  0  0  0  0  0
  5  6  2  0  0  0
  5  4  1  0  0  0
  3  4  1  0  0  0
  3  2  2  0  0  0
  6  7  1  0  0  0
  4  9  2  0  0  0
  2  1  1  0  0  0
 12 13  1  0  0  0
 12 10  1  0  0  0
  9  1  1  0  0  0
  9  8  1  0  0  0
  7  8  2  0  0  0
  7 10  1  0  0  0
  1 16  1  0  0  0
 10 11  2  0  0  0
 16 20  1  0  0  0
 20 21  2  0  0  0
 20 19  1  0  0  0
 21 22  1  0  0  0
 19 18  2  0  0  0
 22 17  2  0  0  0
 18 17  1  0  0  0
 17 24  1  0  0  0
 24 23  1  0  0  0
 12 14  1  0  0  0
 13 15  1  0  0  0
M  END
> <minimizedAffinity>
-5.90911

$$$$
