6G2L_EJ8_A_303


 39 42  0  0  0  0  0  0  0  0999 V2000
   -4.9290   27.3792   28.0066 C   0  0  0  0  0  0  0  0  0  0  0  0
   -3.4239   27.7766   27.8738 C   0  0  0  0  0  0  0  0  0  0  0  0
   -2.8453   27.7035   29.1456 O   0  0  0  0  0  0  0  0  0  0  0  0
   -5.0566   26.9441   29.4509 C   0  0  0  0  0  0  0  0  0  0  0  0
   -4.8363   25.5269   29.4563 O   0  0  0  0  0  0  0  0  0  0  0  0
   -3.9098   27.6942   30.1208 C   0  0  0  0  0  0  0  0  0  0  0  0
   -3.3563   27.0469   31.3299 C   0  0  0  0  0  0  0  0  0  0  0  0
   -3.2644   25.5595   31.1697 O   0  0  0  0  0  0  0  0  0  0  0  0
   -4.4466   24.9199   30.7106 C   0  0  0  0  0  0  0  0  0  0  0  0
   -1.0570   28.4071   26.6705 O   0  0  0  0  0  0  0  0  0  0  0  0
   -2.8494   25.0104   25.1933 C   0  0  0  0  0  0  0  0  0  0  0  0
   -3.4120   25.7397   26.2194 C   0  0  0  0  0  0  0  0  0  0  0  0
   -1.6842   25.4880   24.6466 C   0  0  0  0  0  0  0  0  0  0  0  0
   -1.1425   24.9162   23.7060 O   0  0  0  0  0  0  0  0  0  0  0  0
   -1.1158   26.6460   25.1607 N   0  0  0  0  0  0  0  0  0  0  0  0
   -1.6409   27.3805   26.2394 C   0  0  0  0  0  0  0  0  0  0  0  0
   -2.7897   26.9521   26.7622 N   0  0  0  0  0  0  0  0  0  0  0  0
   -0.2883   26.9756   24.7414 H   0  0  0  0  0  0  0  0  0  0  0  0
   -3.4748   23.8547   24.6901 C   0  0  0  0  0  0  0  0  0  0  0  0
   -2.8859   22.3773   25.5977 S   0  0  0  0  0  0  0  0  0  0  0  0
   -4.3213   21.2584   25.2708 C   0  0  0  0  0  0  0  0  0  0  0  0
   -3.2741   20.5708   23.0568 O   0  0  0  0  0  0  0  0  0  0  0  0
   -4.1170   19.8981   24.0391 P   0  0  0  0  0  0  0  0  0  0  0  0
   -3.5475   18.8293   24.8636 O   0  0  0  0  0  0  0  0  0  0  0  0
   -5.5657   19.8173   23.6505 O   0  0  0  0  0  0  0  0  0  0  0  0
   -3.0775   19.9616   22.3281 H   0  0  0  0  0  0  0  0  0  0  0  0
   -5.6823   19.1276   22.9784 H   0  0  0  0  0  0  0  0  0  0  0  0
   -5.7990   25.0025   32.0023 P   0  0  0  0  0  0  0  0  0  0  0  0
   -6.5723   26.2811   31.9360 O   0  0  0  0  0  0  0  0  0  0  0  0
   -6.6261   23.8060   31.8523 O   0  0  0  0  0  0  0  0  0  0  0  0
   -4.9495   24.8648   33.3001 O   0  0  0  0  0  0  0  0  0  0  0  0
   -7.0794   26.3098   31.1096 H   0  0  0  0  0  0  0  0  0  0  0  0
   -4.4728   24.0202   33.2864 H   0  0  0  0  0  0  0  0  0  0  0  0
   -4.1590   23.5358   30.3912 C   0  0  0  0  0  0  0  0  0  0  0  0
   -3.2738   22.7802   31.1678 C   0  0  0  0  0  0  0  0  0  0  0  0
   -2.9679   21.4701   30.8290 C   0  0  0  0  0  0  0  0  0  0  0  0
   -3.5583   20.8946   29.7419 C   0  0  0  0  0  0  0  0  0  0  0  0
   -4.4789   21.5925   28.9652 C   0  0  0  0  0  0  0  0  0  0  0  0
   -4.7514   22.9219   29.3023 C   0  0  0  0  0  0  0  0  0  0  0  0
 24 23  2  0  0  0
 22 23  1  0  0  0
 23 25  1  0  0  0
 23 21  1  0  0  0
 14 13  2  0  0  0
 13 15  1  0  0  0
 13 11  1  0  0  0
 19 20  1  0  0  0
 19 11  1  0  0  0
 21 20  1  0  0  0
 15 16  1  0  0  0
 11 12  2  0  0  0
 16 10  2  0  0  0
 16 17  1  0  0  0
 12 17  1  0  0  0
 17  2  1  0  0  0
  2  1  1  0  0  0
  2  3  1  0  0  0
  1  4  1  0  0  0
 36 35  2  0  0  0
 36 37  1  0  0  0
  3  6  1  0  0  0
 35 34  1  0  0  0
  5  4  1  0  0  0
  5  9  1  0  0  0
  4  6  1  0  0  0
 37 38  2  0  0  0
  6  7  1  0  0  0
 34  9  1  0  0  0
 34 39  2  0  0  0
 38 39  1  0  0  0
  9  8  1  0  0  0
  9 28  1  0  0  0
  8  7  1  0  0  0
 30 28  2  0  0  0
 28 29  1  0  0  0
 28 31  1  0  0  0
 22 26  1  0  0  0
 25 27  1  0  0  0
 15 18  1  0  0  0
 29 32  1  0  0  0
 31 33  1  0  0  0
M  END
> <minimizedAffinity>
-11.57125

$$$$
6G2L_EJ8_A_303


 39 42  0  0  0  0  0  0  0  0999 V2000
   -4.6190   21.2833   29.2224 C   0  0  0  0  0  0  0  0  0  0  0  0
   -3.1739   21.0720   29.7775 C   0  0  0  0  0  0  0  0  0  0  0  0
   -2.2791   21.2025   28.7098 O   0  0  0  0  0  0  0  0  0  0  0  0
   -4.3918   21.6860   27.7809 C   0  0  0  0  0  0  0  0  0  0  0  0
   -4.3410   23.1193   27.7757 O   0  0  0  0  0  0  0  0  0  0  0  0
   -3.0271   21.0737   27.4818 C   0  0  0  0  0  0  0  0  0  0  0  0
   -2.2388   21.7716   26.4432 C   0  0  0  0  0  0  0  0  0  0  0  0
   -2.3642   23.2607   26.5590 O   0  0  0  0  0  0  0  0  0  0  0  0
   -3.6919   23.7570   26.6507 C   0  0  0  0  0  0  0  0  0  0  0  0
   -1.3370   20.6021   31.7402 O   0  0  0  0  0  0  0  0  0  0  0  0
   -3.5955   23.9928   32.3188 C   0  0  0  0  0  0  0  0  0  0  0  0
   -3.7639   23.1895   31.2109 C   0  0  0  0  0  0  0  0  0  0  0  0
   -2.6722   23.5924   33.2525 C   0  0  0  0  0  0  0  0  0  0  0  0
   -2.4912   24.2333   34.2827 O   0  0  0  0  0  0  0  0  0  0  0  0
   -1.9388   22.4341   33.0311 N   0  0  0  0  0  0  0  0  0  0  0  0
   -2.0541   21.6244   31.8866 C   0  0  0  0  0  0  0  0  0  0  0  0
   -2.9690   21.9777   30.9839 N   0  0  0  0  0  0  0  0  0  0  0  0
   -1.2938   22.1608   33.7228 H   0  0  0  0  0  0  0  0  0  0  0  0
   -4.3787   25.1459   32.5109 C   0  0  0  0  0  0  0  0  0  0  0  0
   -6.1477   24.7539   32.2463 S   0  0  0  0  0  0  0  0  0  0  0  0
   -6.8895   26.1584   33.1930 C   0  0  0  0  0  0  0  0  0  0  0  0
   -9.3331   26.2175   32.4883 O   0  0  0  0  0  0  0  0  0  0  0  0
   -8.2208   27.1563   32.3924 P   0  0  0  0  0  0  0  0  0  0  0  0
   -8.2277   28.3661   33.2189 O   0  0  0  0  0  0  0  0  0  0  0  0
   -7.5817   27.2125   31.0341 O   0  0  0  0  0  0  0  0  0  0  0  0
  -10.1264   26.6149   32.0963 H   0  0  0  0  0  0  0  0  0  0  0  0
   -8.1485   27.7180   30.4307 H   0  0  0  0  0  0  0  0  0  0  0  0
   -4.6169   23.4992   25.0438 P   0  0  0  0  0  0  0  0  0  0  0  0
   -4.5401   22.0849   24.5632 O   0  0  0  0  0  0  0  0  0  0  0  0
   -5.9836   23.9810   25.2393 O   0  0  0  0  0  0  0  0  0  0  0  0
   -3.8588   24.5023   24.1252 O   0  0  0  0  0  0  0  0  0  0  0  0
   -5.0283   21.5093   25.1726 H   0  0  0  0  0  0  0  0  0  0  0  0
   -3.9436   25.3987   24.4859 H   0  0  0  0  0  0  0  0  0  0  0  0
   -3.6627   25.1687   26.9773 C   0  0  0  0  0  0  0  0  0  0  0  0
   -2.5443   25.9579   26.6882 C   0  0  0  0  0  0  0  0  0  0  0  0
   -2.5055   27.2979   27.0456 C   0  0  0  0  0  0  0  0  0  0  0  0
   -3.5818   27.8677   27.6608 C   0  0  0  0  0  0  0  0  0  0  0  0
   -4.7336   27.1333   27.9288 C   0  0  0  0  0  0  0  0  0  0  0  0
   -4.7434   25.7766   27.5906 C   0  0  0  0  0  0  0  0  0  0  0  0
 24 23  2  0  0  0
 22 23  1  0  0  0
 23 25  1  0  0  0
 23 21  1  0  0  0
 14 13  2  0  0  0
 13 15  1  0  0  0
 13 11  1  0  0  0
 19 20  1  0  0  0
 19 11  1  0  0  0
 21 20  1  0  0  0
 15 16  1  0  0  0
 11 12  2  0  0  0
 16 10  2  0  0  0
 16 17  1  0  0  0
 12 17  1  0  0  0
 17  2  1  0  0  0
  2  1  1  0  0  0
  2  3  1  0  0  0
  1  4  1  0  0  0
 36 35  2  0  0  0
 36 37  1  0  0  0
  3  6  1  0  0  0
 35 34  1  0  0  0
  5  4  1  0  0  0
  5  9  1  0  0  0
  4  6  1  0  0  0
 37 38  2  0  0  0
  6  7  1  0  0  0
 34  9  1  0  0  0
 34 39  2  0  0  0
 38 39  1  0  0  0
  9  8  1  0  0  0
  9 28  1  0  0  0
  8  7  1  0  0  0
 30 28  2  0  0  0
 28 29  1  0  0  0
 28 31  1  0  0  0
 22 26  1  0  0  0
 25 27  1  0  0  0
 15 18  1  0  0  0
 29 32  1  0  0  0
 31 33  1  0  0  0
M  END
> <minimizedAffinity>
-9.97962

$$$$
6G2L_EJ8_A_303


 39 42  0  0  0  0  0  0  0  0999 V2000
   -4.5110   21.0812   29.3610 C   0  0  0  0  0  0  0  0  0  0  0  0
   -3.0224   20.8350   29.7665 C   0  0  0  0  0  0  0  0  0  0  0  0
   -2.2271   21.0485   28.6353 O   0  0  0  0  0  0  0  0  0  0  0  0
   -4.4135   21.5913   27.9390 C   0  0  0  0  0  0  0  0  0  0  0  0
   -4.3596   23.0212   28.0364 O   0  0  0  0  0  0  0  0  0  0  0  0
   -3.0829   21.0087   27.4734 C   0  0  0  0  0  0  0  0  0  0  0  0
   -2.3894   21.7855   26.4232 C   0  0  0  0  0  0  0  0  0  0  0  0
   -2.5001   23.2612   26.6609 O   0  0  0  0  0  0  0  0  0  0  0  0
   -3.8128   23.7438   26.9084 C   0  0  0  0  0  0  0  0  0  0  0  0
   -1.2508   20.0519   31.6888 O   0  0  0  0  0  0  0  0  0  0  0  0
   -3.0841   23.6562   32.4505 C   0  0  0  0  0  0  0  0  0  0  0  0
   -3.3504   22.9346   31.3061 C   0  0  0  0  0  0  0  0  0  0  0  0
   -2.2135   23.1024   33.3559 C   0  0  0  0  0  0  0  0  0  0  0  0
   -1.9545   23.6653   34.4147 O   0  0  0  0  0  0  0  0  0  0  0  0
   -1.6251   21.8769   33.0723 N   0  0  0  0  0  0  0  0  0  0  0  0
   -1.8396   21.1444   31.8907 C   0  0  0  0  0  0  0  0  0  0  0  0
   -2.7074   21.6490   31.0139 N   0  0  0  0  0  0  0  0  0  0  0  0
   -1.0160   21.4943   33.7446 H   0  0  0  0  0  0  0  0  0  0  0  0
   -3.7227   24.8840   32.7050 C   0  0  0  0  0  0  0  0  0  0  0  0
   -2.6722   26.2687   32.1286 S   0  0  0  0  0  0  0  0  0  0  0  0
   -3.4281   27.6277   33.1290 C   0  0  0  0  0  0  0  0  0  0  0  0
   -3.2627   30.1368   33.5141 O   0  0  0  0  0  0  0  0  0  0  0  0
   -3.5900   29.3007   32.3645 P   0  0  0  0  0  0  0  0  0  0  0  0
   -2.6463   29.2130   31.2472 O   0  0  0  0  0  0  0  0  0  0  0  0
   -5.0612   29.2021   32.0776 O   0  0  0  0  0  0  0  0  0  0  0  0
   -3.3077   31.0712   33.2576 H   0  0  0  0  0  0  0  0  0  0  0  0
   -5.3635   30.0204   31.6536 H   0  0  0  0  0  0  0  0  0  0  0  0
   -4.8794   23.6029   25.3765 P   0  0  0  0  0  0  0  0  0  0  0  0
   -5.2737   22.1898   25.0853 O   0  0  0  0  0  0  0  0  0  0  0  0
   -6.0154   24.5081   25.5450 O   0  0  0  0  0  0  0  0  0  0  0  0
   -3.9140   24.2032   24.3122 O   0  0  0  0  0  0  0  0  0  0  0  0
   -5.8724   21.8716   25.7790 H   0  0  0  0  0  0  0  0  0  0  0  0
   -3.6947   25.1168   24.5534 H   0  0  0  0  0  0  0  0  0  0  0  0
   -3.7507   25.1273   27.3357 C   0  0  0  0  0  0  0  0  0  0  0  0
   -2.8791   26.0368   26.7269 C   0  0  0  0  0  0  0  0  0  0  0  0
   -2.7919   27.3479   27.1721 C   0  0  0  0  0  0  0  0  0  0  0  0
   -3.5862   27.7709   28.1976 C   0  0  0  0  0  0  0  0  0  0  0  0
   -4.5001   26.9140   28.8047 C   0  0  0  0  0  0  0  0  0  0  0  0
   -4.5522   25.5878   28.3648 C   0  0  0  0  0  0  0  0  0  0  0  0
 24 23  2  0  0  0
 22 23  1  0  0  0
 23 25  1  0  0  0
 23 21  1  0  0  0
 14 13  2  0  0  0
 13 15  1  0  0  0
 13 11  1  0  0  0
 19 20  1  0  0  0
 19 11  1  0  0  0
 21 20  1  0  0  0
 15 16  1  0  0  0
 11 12  2  0  0  0
 16 10  2  0  0  0
 16 17  1  0  0  0
 12 17  1  0  0  0
 17  2  1  0  0  0
  2  1  1  0  0  0
  2  3  1  0  0  0
  1  4  1  0  0  0
 36 35  2  0  0  0
 36 37  1  0  0  0
  3  6  1  0  0  0
 35 34  1  0  0  0
  5  4  1  0  0  0
  5  9  1  0  0  0
  4  6  1  0  0  0
 37 38  2  0  0  0
  6  7  1  0  0  0
 34  9  1  0  0  0
 34 39  2  0  0  0
 38 39  1  0  0  0
  9  8  1  0  0  0
  9 28  1  0  0  0
  8  7  1  0  0  0
 30 28  2  0  0  0
 28 29  1  0  0  0
 28 31  1  0  0  0
 22 26  1  0  0  0
 25 27  1  0  0  0
 15 18  1  0  0  0
 29 32  1  0  0  0
 31 33  1  0  0  0
M  END
> <minimizedAffinity>
-9.45899

$$$$
6G2L_EJ8_A_303


 39 42  0  0  0  0  0  0  0  0999 V2000
   -5.0899   27.0822   28.0732 C   0  0  0  0  0  0  0  0  0  0  0  0
   -3.7011   27.7939   27.9976 C   0  0  0  0  0  0  0  0  0  0  0  0
   -3.1887   27.8773   29.2968 O   0  0  0  0  0  0  0  0  0  0  0  0
   -5.1971   26.6630   29.5239 C   0  0  0  0  0  0  0  0  0  0  0  0
   -4.6768   25.3280   29.5876 O   0  0  0  0  0  0  0  0  0  0  0  0
   -4.2761   27.6594   30.2209 C   0  0  0  0  0  0  0  0  0  0  0  0
   -3.6609   27.1756   31.4758 C   0  0  0  0  0  0  0  0  0  0  0  0
   -3.2420   25.7404   31.3705 O   0  0  0  0  0  0  0  0  0  0  0  0
   -4.2323   24.8490   30.8786 C   0  0  0  0  0  0  0  0  0  0  0  0
   -1.1701   28.5728   27.3382 O   0  0  0  0  0  0  0  0  0  0  0  0
   -2.5539   25.3427   25.1971 C   0  0  0  0  0  0  0  0  0  0  0  0
   -3.3198   25.9504   26.1693 C   0  0  0  0  0  0  0  0  0  0  0  0
   -1.3213   25.8873   24.9348 C   0  0  0  0  0  0  0  0  0  0  0  0
   -0.5964   25.4267   24.0588 O   0  0  0  0  0  0  0  0  0  0  0  0
   -0.8934   26.9871   25.6669 N   0  0  0  0  0  0  0  0  0  0  0  0
   -1.6326   27.5945   26.6980 C   0  0  0  0  0  0  0  0  0  0  0  0
   -2.8460   27.1015   26.9454 N   0  0  0  0  0  0  0  0  0  0  0  0
   -0.0120   27.3678   25.4492 H   0  0  0  0  0  0  0  0  0  0  0  0
   -3.0398   24.2436   24.4652 C   0  0  0  0  0  0  0  0  0  0  0  0
   -3.1479   22.7690   25.5454 S   0  0  0  0  0  0  0  0  0  0  0  0
   -4.8828   22.2629   25.1541 C   0  0  0  0  0  0  0  0  0  0  0  0
   -7.4003   22.4824   25.4458 O   0  0  0  0  0  0  0  0  0  0  0  0
   -6.2648   23.3659   25.6860 P   0  0  0  0  0  0  0  0  0  0  0  0
   -5.8810   23.6854   27.0633 O   0  0  0  0  0  0  0  0  0  0  0  0
   -6.0591   24.4032   24.6191 O   0  0  0  0  0  0  0  0  0  0  0  0
   -8.2217   22.9388   25.6865 H   0  0  0  0  0  0  0  0  0  0  0  0
   -6.7164   25.1089   24.7232 H   0  0  0  0  0  0  0  0  0  0  0  0
   -5.6372   24.6656   32.1020 P   0  0  0  0  0  0  0  0  0  0  0  0
   -5.1635   24.2278   33.4515 O   0  0  0  0  0  0  0  0  0  0  0  0
   -6.3757   25.9275   32.1183 O   0  0  0  0  0  0  0  0  0  0  0  0
   -6.4978   23.5908   31.3744 O   0  0  0  0  0  0  0  0  0  0  0  0
   -4.6354   24.9350   33.8539 H   0  0  0  0  0  0  0  0  0  0  0  0
   -6.7746   23.9300   30.5089 H   0  0  0  0  0  0  0  0  0  0  0  0
   -3.6364   23.5535   30.6200 C   0  0  0  0  0  0  0  0  0  0  0  0
   -3.6419   22.9947   29.3373 C   0  0  0  0  0  0  0  0  0  0  0  0
   -3.1108   21.7339   29.1066 C   0  0  0  0  0  0  0  0  0  0  0  0
   -2.5464   21.0366   30.1345 C   0  0  0  0  0  0  0  0  0  0  0  0
   -2.4780   21.5703   31.4184 C   0  0  0  0  0  0  0  0  0  0  0  0
   -3.0465   22.8285   31.6398 C   0  0  0  0  0  0  0  0  0  0  0  0
 24 23  2  0  0  0
 22 23  1  0  0  0
 23 25  1  0  0  0
 23 21  1  0  0  0
 14 13  2  0  0  0
 13 15  1  0  0  0
 13 11  1  0  0  0
 19 20  1  0  0  0
 19 11  1  0  0  0
 21 20  1  0  0  0
 15 16  1  0  0  0
 11 12  2  0  0  0
 16 10  2  0  0  0
 16 17  1  0  0  0
 12 17  1  0  0  0
 17  2  1  0  0  0
  2  1  1  0  0  0
  2  3  1  0  0  0
  1  4  1  0  0  0
 36 35  2  0  0  0
 36 37  1  0  0  0
  3  6  1  0  0  0
 35 34  1  0  0  0
  5  4  1  0  0  0
  5  9  1  0  0  0
  4  6  1  0  0  0
 37 38  2  0  0  0
  6  7  1  0  0  0
 34  9  1  0  0  0
 34 39  2  0  0  0
 38 39  1  0  0  0
  9  8  1  0  0  0
  9 28  1  0  0  0
  8  7  1  0  0  0
 30 28  2  0  0  0
 28 29  1  0  0  0
 28 31  1  0  0  0
 22 26  1  0  0  0
 25 27  1  0  0  0
 15 18  1  0  0  0
 29 32  1  0  0  0
 31 33  1  0  0  0
M  END
> <minimizedAffinity>
-9.09587

$$$$
6G2L_EJ8_A_303


 39 42  0  0  0  0  0  0  0  0999 V2000
   -5.1518   22.8571   29.5795 C   0  0  0  0  0  0  0  0  0  0  0  0
   -3.8542   22.3868   30.3117 C   0  0  0  0  0  0  0  0  0  0  0  0
   -2.9270   21.9991   29.3382 O   0  0  0  0  0  0  0  0  0  0  0  0
   -4.7682   22.8205   28.1155 C   0  0  0  0  0  0  0  0  0  0  0  0
   -4.2924   24.1362   27.8001 O   0  0  0  0  0  0  0  0  0  0  0  0
   -3.6390   21.7951   28.0991 C   0  0  0  0  0  0  0  0  0  0  0  0
   -2.6452   21.9715   27.0181 C   0  0  0  0  0  0  0  0  0  0  0  0
   -2.3250   23.4178   26.7899 O   0  0  0  0  0  0  0  0  0  0  0  0
   -3.4466   24.2751   26.6344 C   0  0  0  0  0  0  0  0  0  0  0  0
   -2.5285   21.8691   32.6402 O   0  0  0  0  0  0  0  0  0  0  0  0
   -3.3500   25.8524   32.0153 C   0  0  0  0  0  0  0  0  0  0  0  0
   -3.7122   24.8852   31.1018 C   0  0  0  0  0  0  0  0  0  0  0  0
   -2.7420   25.4305   33.1715 C   0  0  0  0  0  0  0  0  0  0  0  0
   -2.4236   26.2264   34.0491 O   0  0  0  0  0  0  0  0  0  0  0  0
   -2.4943   24.0764   33.3551 N   0  0  0  0  0  0  0  0  0  0  0  0
   -2.8069   23.0749   32.4180 C   0  0  0  0  0  0  0  0  0  0  0  0
   -3.4280   23.4603   31.3035 N   0  0  0  0  0  0  0  0  0  0  0  0
   -2.0707   23.7983   34.1992 H   0  0  0  0  0  0  0  0  0  0  0  0
   -3.6428   27.2111   31.7955 C   0  0  0  0  0  0  0  0  0  0  0  0
   -5.4331   27.5133   32.0332 S   0  0  0  0  0  0  0  0  0  0  0  0
   -5.3224   28.9995   33.1277 C   0  0  0  0  0  0  0  0  0  0  0  0
   -3.4281   29.0285   34.8254 O   0  0  0  0  0  0  0  0  0  0  0  0
   -4.8596   28.7582   34.8989 P   0  0  0  0  0  0  0  0  0  0  0  0
   -5.7388   29.7173   35.5725 O   0  0  0  0  0  0  0  0  0  0  0  0
   -5.2053   27.2974   34.9553 O   0  0  0  0  0  0  0  0  0  0  0  0
   -3.0361   28.9372   35.7079 H   0  0  0  0  0  0  0  0  0  0  0  0
   -5.0269   26.9571   35.8460 H   0  0  0  0  0  0  0  0  0  0  0  0
   -4.3537   23.9102   25.0381 P   0  0  0  0  0  0  0  0  0  0  0  0
   -4.3229   22.4571   24.6850 O   0  0  0  0  0  0  0  0  0  0  0  0
   -5.7041   24.4570   25.1631 O   0  0  0  0  0  0  0  0  0  0  0  0
   -3.5425   24.7999   24.0504 O   0  0  0  0  0  0  0  0  0  0  0  0
   -4.8428   21.9559   25.3326 H   0  0  0  0  0  0  0  0  0  0  0  0
   -3.5992   25.7272   24.3293 H   0  0  0  0  0  0  0  0  0  0  0  0
   -3.0087   25.6567   26.6434 C   0  0  0  0  0  0  0  0  0  0  0  0
   -1.8175   26.0449   26.0207 C   0  0  0  0  0  0  0  0  0  0  0  0
   -1.3815   27.3609   26.0733 C   0  0  0  0  0  0  0  0  0  0  0  0
   -2.1354   28.3007   26.7137 C   0  0  0  0  0  0  0  0  0  0  0  0
   -3.3494   27.9702   27.3095 C   0  0  0  0  0  0  0  0  0  0  0  0
   -3.7580   26.6334   27.2745 C   0  0  0  0  0  0  0  0  0  0  0  0
 24 23  2  0  0  0
 22 23  1  0  0  0
 23 25  1  0  0  0
 23 21  1  0  0  0
 14 13  2  0  0  0
 13 15  1  0  0  0
 13 11  1  0  0  0
 19 20  1  0  0  0
 19 11  1  0  0  0
 21 20  1  0  0  0
 15 16  1  0  0  0
 11 12  2  0  0  0
 16 10  2  0  0  0
 16 17  1  0  0  0
 12 17  1  0  0  0
 17  2  1  0  0  0
  2  1  1  0  0  0
  2  3  1  0  0  0
  1  4  1  0  0  0
 36 35  2  0  0  0
 36 37  1  0  0  0
  3  6  1  0  0  0
 35 34  1  0  0  0
  5  4  1  0  0  0
  5  9  1  0  0  0
  4  6  1  0  0  0
 37 38  2  0  0  0
  6  7  1  0  0  0
 34  9  1  0  0  0
 34 39  2  0  0  0
 38 39  1  0  0  0
  9  8  1  0  0  0
  9 28  1  0  0  0
  8  7  1  0  0  0
 30 28  2  0  0  0
 28 29  1  0  0  0
 28 31  1  0  0  0
 22 26  1  0  0  0
 25 27  1  0  0  0
 15 18  1  0  0  0
 29 32  1  0  0  0
 31 33  1  0  0  0
M  END
> <minimizedAffinity>
-9.05239

$$$$
6G2L_EJ8_A_303


 39 42  0  0  0  0  0  0  0  0999 V2000
   -2.3620   25.2134   26.3164 C   0  0  0  0  0  0  0  0  0  0  0  0
   -3.7783   25.7710   26.6688 C   0  0  0  0  0  0  0  0  0  0  0  0
   -4.7221   24.7964   26.3270 O   0  0  0  0  0  0  0  0  0  0  0  0
   -2.6364   23.7868   25.8908 C   0  0  0  0  0  0  0  0  0  0  0  0
   -2.4924   22.9884   27.0734 O   0  0  0  0  0  0  0  0  0  0  0  0
   -4.0896   23.8562   25.4325 C   0  0  0  0  0  0  0  0  0  0  0  0
   -4.8491   22.5933   25.5566 C   0  0  0  0  0  0  0  0  0  0  0  0
   -4.5146   21.8675   26.8246 O   0  0  0  0  0  0  0  0  0  0  0  0
   -3.1288   21.6889   27.0793 C   0  0  0  0  0  0  0  0  0  0  0  0
   -3.2072   28.3421   27.3839 O   0  0  0  0  0  0  0  0  0  0  0  0
   -4.0189   25.8487   30.5551 C   0  0  0  0  0  0  0  0  0  0  0  0
   -4.0545   25.3997   29.2519 C   0  0  0  0  0  0  0  0  0  0  0  0
   -3.6547   27.1562   30.7609 C   0  0  0  0  0  0  0  0  0  0  0  0
   -3.5635   27.6197   31.8931 O   0  0  0  0  0  0  0  0  0  0  0  0
   -3.3729   27.9644   29.6674 N   0  0  0  0  0  0  0  0  0  0  0  0
   -3.4510   27.5465   28.3265 C   0  0  0  0  0  0  0  0  0  0  0  0
   -3.7703   26.2712   28.1067 N   0  0  0  0  0  0  0  0  0  0  0  0
   -3.0997   28.8938   29.8427 H   0  0  0  0  0  0  0  0  0  0  0  0
   -4.2904   24.9856   31.6327 C   0  0  0  0  0  0  0  0  0  0  0  0
   -6.0496   24.4783   31.6023 S   0  0  0  0  0  0  0  0  0  0  0  0
   -6.6982   25.6429   32.8838 C   0  0  0  0  0  0  0  0  0  0  0  0
   -9.1371   26.1841   32.4040 O   0  0  0  0  0  0  0  0  0  0  0  0
   -7.8955   26.9488   32.3639 P   0  0  0  0  0  0  0  0  0  0  0  0
   -7.6594   27.9896   33.3676 O   0  0  0  0  0  0  0  0  0  0  0  0
   -7.3357   27.1362   30.9826 O   0  0  0  0  0  0  0  0  0  0  0  0
   -9.8774   26.7558   32.1470 H   0  0  0  0  0  0  0  0  0  0  0  0
   -7.8477   27.8149   30.5155 H   0  0  0  0  0  0  0  0  0  0  0  0
   -2.3662   20.5073   25.8437 P   0  0  0  0  0  0  0  0  0  0  0  0
   -3.1842   19.2685   25.6608 O   0  0  0  0  0  0  0  0  0  0  0  0
   -2.1387   21.2505   24.6051 O   0  0  0  0  0  0  0  0  0  0  0  0
   -0.9929   20.2414   26.5279 O   0  0  0  0  0  0  0  0  0  0  0  0
   -4.0240   19.4960   25.2320 H   0  0  0  0  0  0  0  0  0  0  0  0
   -0.5098   21.0775   26.6191 H   0  0  0  0  0  0  0  0  0  0  0  0
   -2.9422   21.1791   28.4231 C   0  0  0  0  0  0  0  0  0  0  0  0
   -2.6888   19.8231   28.6566 C   0  0  0  0  0  0  0  0  0  0  0  0
   -2.5574   19.3344   29.9484 C   0  0  0  0  0  0  0  0  0  0  0  0
   -2.6452   20.1879   31.0092 C   0  0  0  0  0  0  0  0  0  0  0  0
   -2.8521   21.5521   30.8241 C   0  0  0  0  0  0  0  0  0  0  0  0
   -3.0140   22.0224   29.5173 C   0  0  0  0  0  0  0  0  0  0  0  0
 24 23  2  0  0  0
 22 23  1  0  0  0
 23 25  1  0  0  0
 23 21  1  0  0  0
 14 13  2  0  0  0
 13 15  1  0  0  0
 13 11  1  0  0  0
 19 20  1  0  0  0
 19 11  1  0  0  0
 21 20  1  0  0  0
 15 16  1  0  0  0
 11 12  2  0  0  0
 16 10  2  0  0  0
 16 17  1  0  0  0
 12 17  1  0  0  0
 17  2  1  0  0  0
  2  1  1  0  0  0
  2  3  1  0  0  0
  1  4  1  0  0  0
 36 35  2  0  0  0
 36 37  1  0  0  0
  3  6  1  0  0  0
 35 34  1  0  0  0
  5  4  1  0  0  0
  5  9  1  0  0  0
  4  6  1  0  0  0
 37 38  2  0  0  0
  6  7  1  0  0  0
 34  9  1  0  0  0
 34 39  2  0  0  0
 38 39  1  0  0  0
  9  8  1  0  0  0
  9 28  1  0  0  0
  8  7  1  0  0  0
 30 28  2  0  0  0
 28 29  1  0  0  0
 28 31  1  0  0  0
 22 26  1  0  0  0
 25 27  1  0  0  0
 15 18  1  0  0  0
 29 32  1  0  0  0
 31 33  1  0  0  0
M  END
> <minimizedAffinity>
-8.83521

$$$$
6G2L_EJ8_A_303


 39 42  0  0  0  0  0  0  0  0999 V2000
   -5.1724   24.8361   30.3243 C   0  0  0  0  0  0  0  0  0  0  0  0
   -5.3834   26.0214   29.3286 C   0  0  0  0  0  0  0  0  0  0  0  0
   -5.6903   27.1630   30.0770 O   0  0  0  0  0  0  0  0  0  0  0  0
   -5.2519   25.4950   31.6849 C   0  0  0  0  0  0  0  0  0  0  0  0
   -3.9039   25.8349   32.0372 O   0  0  0  0  0  0  0  0  0  0  0  0
   -6.0886   26.7377   31.3978 C   0  0  0  0  0  0  0  0  0  0  0  0
   -5.8369   27.8863   32.2947 C   0  0  0  0  0  0  0  0  0  0  0  0
   -4.3781   28.0402   32.6024 O   0  0  0  0  0  0  0  0  0  0  0  0
   -3.7179   26.8613   33.0401 C   0  0  0  0  0  0  0  0  0  0  0  0
   -3.4275   27.9173   29.4948 O   0  0  0  0  0  0  0  0  0  0  0  0
   -2.9253   25.2401   26.4106 C   0  0  0  0  0  0  0  0  0  0  0  0
   -3.9923   25.1535   27.2797 C   0  0  0  0  0  0  0  0  0  0  0  0
   -2.0551   26.2875   26.5843 C   0  0  0  0  0  0  0  0  0  0  0  0
   -1.1027   26.4543   25.8292 O   0  0  0  0  0  0  0  0  0  0  0  0
   -2.2645   27.1806   27.6269 N   0  0  0  0  0  0  0  0  0  0  0  0
   -3.3147   27.0863   28.5580 C   0  0  0  0  0  0  0  0  0  0  0  0
   -4.1898   26.0957   28.3864 N   0  0  0  0  0  0  0  0  0  0  0  0
   -1.6347   27.9314   27.7208 H   0  0  0  0  0  0  0  0  0  0  0  0
   -2.7674   24.3240   25.3543 C   0  0  0  0  0  0  0  0  0  0  0  0
   -2.9401   22.6112   25.9783 S   0  0  0  0  0  0  0  0  0  0  0  0
   -4.1326   21.9736   24.7172 C   0  0  0  0  0  0  0  0  0  0  0  0
   -3.2202   20.5628   22.8070 O   0  0  0  0  0  0  0  0  0  0  0  0
   -3.8957   20.2626   24.0646 P   0  0  0  0  0  0  0  0  0  0  0  0
   -3.1444   19.6282   25.1507 O   0  0  0  0  0  0  0  0  0  0  0  0
   -5.3566   19.9463   23.9152 O   0  0  0  0  0  0  0  0  0  0  0  0
   -3.0259   19.7358   22.3389 H   0  0  0  0  0  0  0  0  0  0  0  0
   -5.4587   19.0465   23.5677 H   0  0  0  0  0  0  0  0  0  0  0  0
   -4.3302   26.3373   34.7297 P   0  0  0  0  0  0  0  0  0  0  0  0
   -5.8220   26.3744   34.8314 O   0  0  0  0  0  0  0  0  0  0  0  0
   -3.7528   25.0259   35.0211 O   0  0  0  0  0  0  0  0  0  0  0  0
   -3.6269   27.4035   35.6206 O   0  0  0  0  0  0  0  0  0  0  0  0
   -6.2023   25.6912   34.2573 H   0  0  0  0  0  0  0  0  0  0  0  0
   -2.6656   27.3314   35.5132 H   0  0  0  0  0  0  0  0  0  0  0  0
   -2.2880   27.0928   33.0880 C   0  0  0  0  0  0  0  0  0  0  0  0
   -1.3953   26.0607   33.3964 C   0  0  0  0  0  0  0  0  0  0  0  0
   -0.0317   26.3004   33.4859 C   0  0  0  0  0  0  0  0  0  0  0  0
    0.4551   27.5512   33.2411 C   0  0  0  0  0  0  0  0  0  0  0  0
   -0.3901   28.5993   32.8874 C   0  0  0  0  0  0  0  0  0  0  0  0
   -1.7644   28.3476   32.8330 C   0  0  0  0  0  0  0  0  0  0  0  0
 24 23  2  0  0  0
 22 23  1  0  0  0
 23 25  1  0  0  0
 23 21  1  0  0  0
 14 13  2  0  0  0
 13 15  1  0  0  0
 13 11  1  0  0  0
 19 20  1  0  0  0
 19 11  1  0  0  0
 21 20  1  0  0  0
 15 16  1  0  0  0
 11 12  2  0  0  0
 16 10  2  0  0  0
 16 17  1  0  0  0
 12 17  1  0  0  0
 17  2  1  0  0  0
  2  1  1  0  0  0
  2  3  1  0  0  0
  1  4  1  0  0  0
 36 35  2  0  0  0
 36 37  1  0  0  0
  3  6  1  0  0  0
 35 34  1  0  0  0
  5  4  1  0  0  0
  5  9  1  0  0  0
  4  6  1  0  0  0
 37 38  2  0  0  0
  6  7  1  0  0  0
 34  9  1  0  0  0
 34 39  2  0  0  0
 38 39  1  0  0  0
  9  8  1  0  0  0
  9 28  1  0  0  0
  8  7  1  0  0  0
 30 28  2  0  0  0
 28 29  1  0  0  0
 28 31  1  0  0  0
 22 26  1  0  0  0
 25 27  1  0  0  0
 15 18  1  0  0  0
 29 32  1  0  0  0
 31 33  1  0  0  0
M  END
> <minimizedAffinity>
-8.75187

$$$$
