1DHJ_MTX_A_161


 40 42  0  0  0  0  0  0  0  0999 V2000
   16.4938   57.2216   26.9151 C   0  0  0  0  0  0  0  0  0  0  0  0
   17.4288   56.3888   27.5974 C   0  0  0  0  0  0  0  0  0  0  0  0
   18.1784   56.9235   28.6373 C   0  0  0  0  0  0  0  0  0  0  0  0
   18.0500   58.3006   29.0405 C   0  0  0  0  0  0  0  0  0  0  0  0
   17.1836   59.1425   28.3810 C   0  0  0  0  0  0  0  0  0  0  0  0
   16.3840   58.5757   27.3426 C   0  0  0  0  0  0  0  0  0  0  0  0
   15.6854   56.6969   25.8422 C   0  0  0  0  0  0  0  0  0  0  0  0
   15.5551   57.3023   24.7818 O   0  0  0  0  0  0  0  0  0  0  0  0
   15.0751   55.5392   26.0482 N   0  0  0  0  0  0  0  0  0  0  0  0
   15.1924   55.1042   26.9236 H   0  0  0  0  0  0  0  0  0  0  0  0
   14.2106   54.8460   25.0226 C   0  0  0  0  0  0  0  0  0  0  0  0
   13.3443   54.0477   26.0087 C   0  0  0  0  0  0  0  0  0  0  0  0
   13.8291   53.2842   26.9276 O   0  0  0  0  0  0  0  0  0  0  0  0
   12.1316   54.2960   25.8721 O   0  0  0  0  0  0  0  0  0  0  0  0
   11.8438   54.8605   25.1818 H   0  0  0  0  0  0  0  0  0  0  0  0
   15.0676   53.7712   24.2393 C   0  0  0  0  0  0  0  0  0  0  0  0
   16.6731   53.7388   24.0795 C   0  0  0  0  0  0  0  0  0  0  0  0
   17.0533   54.4011   22.7407 C   0  0  0  0  0  0  0  0  0  0  0  0
   17.8089   53.6254   22.0392 O   0  0  0  0  0  0  0  0  0  0  0  0
   16.6832   55.5928   22.4947 O   0  0  0  0  0  0  0  0  0  0  0  0
   16.1267   56.0446   23.0981 H   0  0  0  0  0  0  0  0  0  0  0  0
   18.9507   58.7278   30.0661 N   0  0  0  0  0  0  0  0  0  0  0  0
   19.2851   58.0163   31.3293 C   0  0  0  0  0  0  0  0  0  0  0  0
   19.7423   60.0036   29.8203 C   0  0  0  0  0  0  0  0  0  0  0  0
   24.0659   58.8128   26.6143 N   0  0  0  0  0  0  0  0  0  0  0  0
   23.8443   58.5848   25.3198 C   0  0  0  0  0  0  0  0  0  0  0  0
   24.7933   58.3767   24.4931 N   0  0  0  0  0  0  0  0  0  0  0  0
   22.5559   58.6338   24.8683 N   0  0  0  0  0  0  0  0  0  0  0  0
   21.3971   58.9437   25.5033 C   0  0  0  0  0  0  0  0  0  0  0  0
   20.2123   58.9419   24.9249 N   0  0  0  0  0  0  0  0  0  0  0  0
   21.7120   59.1266   26.9747 C   0  0  0  0  0  0  0  0  0  0  0  0
   20.6455   59.4523   27.7761 N   0  0  0  0  0  0  0  0  0  0  0  0
   20.9374   59.6591   29.0664 C   0  0  0  0  0  0  0  0  0  0  0  0
   22.2954   59.5883   29.5163 C   0  0  0  0  0  0  0  0  0  0  0  0
   23.3379   59.3195   28.7563 N   0  0  0  0  0  0  0  0  0  0  0  0
   22.9720   59.0726   27.4574 C   0  0  0  0  0  0  0  0  0  0  0  0
   25.7242   58.3401   24.8114 H   0  0  0  0  0  0  0  0  0  0  0  0
   24.5947   58.2527   23.5368 H   0  0  0  0  0  0  0  0  0  0  0  0
   20.1398   58.8120   23.9517 H   0  0  0  0  0  0  0  0  0  0  0  0
   19.4001   59.0704   25.4663 H   0  0  0  0  0  0  0  0  0  0  0  0
 25 26  2  0  0  0
 25 36  1  0  0  0
 26 27  1  0  0  0
 26 28  1  0  0  0
 28 29  2  0  0  0
 29 30  1  0  0  0
 29 31  1  0  0  0
 31 32  1  0  0  0
 31 36  2  0  0  0
 32 33  2  0  0  0
 33 34  1  0  0  0
 33 24  1  0  0  0
 34 35  2  0  0  0
 35 36  1  0  0  0
 24 22  1  0  0  0
 22 23  1  0  0  0
 22  4  1  0  0  0
  1  2  2  0  0  0
  1  6  1  0  0  0
  1  7  1  0  0  0
  2  3  1  0  0  0
  3  4  2  0  0  0
  4  5  1  0  0  0
  5  6  2  0  0  0
  7  8  2  0  0  0
  7  9  1  0  0  0
  9 11  1  0  0  0
 11 12  1  0  0  0
 11 16  1  0  0  0
 12 13  2  0  0  0
 12 14  1  0  0  0
 16 17  1  0  0  0
 17 18  1  0  0  0
 18 19  2  0  0  0
 18 20  1  0  0  0
 27 37  1  0  0  0
 27 38  1  0  0  0
 30 39  1  0  0  0
 30 40  1  0  0  0
  9 10  1  0  0  0
 14 15  1  0  0  0
 20 21  1  0  0  0
M  END
> <minimizedAffinity>
-9.29723

$$$$
1DHJ_MTX_A_161


 40 42  0  0  0  0  0  0  0  0999 V2000
   18.4678   61.1474   23.8353 C   0  0  0  0  0  0  0  0  0  0  0  0
   17.8584   60.2322   22.9274 C   0  0  0  0  0  0  0  0  0  0  0  0
   18.3840   58.9528   22.8010 C   0  0  0  0  0  0  0  0  0  0  0  0
   19.5370   58.5244   23.5511 C   0  0  0  0  0  0  0  0  0  0  0  0
   20.1723   59.3925   24.4097 C   0  0  0  0  0  0  0  0  0  0  0  0
   19.6007   60.6913   24.5682 C   0  0  0  0  0  0  0  0  0  0  0  0
   17.9394   62.4782   24.0062 C   0  0  0  0  0  0  0  0  0  0  0  0
   17.2650   63.0178   23.1333 O   0  0  0  0  0  0  0  0  0  0  0  0
   18.2202   63.1054   25.1389 N   0  0  0  0  0  0  0  0  0  0  0  0
   18.7839   62.6392   25.7978 H   0  0  0  0  0  0  0  0  0  0  0  0
   17.7286   64.4913   25.4812 C   0  0  0  0  0  0  0  0  0  0  0  0
   19.0613   65.2260   25.2701 C   0  0  0  0  0  0  0  0  0  0  0  0
   19.5141   65.5628   24.1109 O   0  0  0  0  0  0  0  0  0  0  0  0
   19.6011   65.5338   26.3494 O   0  0  0  0  0  0  0  0  0  0  0  0
   19.2203   65.2568   27.1594 H   0  0  0  0  0  0  0  0  0  0  0  0
   17.4299   64.5850   27.0320 C   0  0  0  0  0  0  0  0  0  0  0  0
   17.1041   63.3622   28.0336 C   0  0  0  0  0  0  0  0  0  0  0  0
   15.7388   62.7573   27.6525 C   0  0  0  0  0  0  0  0  0  0  0  0
   15.8794   61.7977   26.8016 O   0  0  0  0  0  0  0  0  0  0  0  0
   14.6682   63.2666   28.1132 O   0  0  0  0  0  0  0  0  0  0  0  0
   14.7120   63.9676   28.7334 H   0  0  0  0  0  0  0  0  0  0  0  0
   20.0143   57.2105   23.2485 N   0  0  0  0  0  0  0  0  0  0  0  0
   20.7887   56.7836   22.0519 C   0  0  0  0  0  0  0  0  0  0  0  0
   19.8037   56.1272   24.2957 C   0  0  0  0  0  0  0  0  0  0  0  0
   14.5077   54.5973   24.3097 N   0  0  0  0  0  0  0  0  0  0  0  0
   13.8483   54.6263   25.4678 C   0  0  0  0  0  0  0  0  0  0  0  0
   12.6032   54.3614   25.5491 N   0  0  0  0  0  0  0  0  0  0  0  0
   14.5305   55.0084   26.5881 N   0  0  0  0  0  0  0  0  0  0  0  0
   15.8049   55.4449   26.7537 C   0  0  0  0  0  0  0  0  0  0  0  0
   16.3288   55.7766   27.9171 N   0  0  0  0  0  0  0  0  0  0  0  0
   16.5106   55.3253   25.4175 C   0  0  0  0  0  0  0  0  0  0  0  0
   17.8222   55.7319   25.3981 N   0  0  0  0  0  0  0  0  0  0  0  0
   18.4265   55.6687   24.2051 C   0  0  0  0  0  0  0  0  0  0  0  0
   17.6917   55.2516   23.0484 C   0  0  0  0  0  0  0  0  0  0  0  0
   16.4222   54.8983   23.0374 N   0  0  0  0  0  0  0  0  0  0  0  0
   15.8706   54.9393   24.2928 C   0  0  0  0  0  0  0  0  0  0  0  0
   12.1052   54.0854   24.7459 H   0  0  0  0  0  0  0  0  0  0  0  0
   12.1401   54.4329   26.4149 H   0  0  0  0  0  0  0  0  0  0  0  0
   15.7595   55.8193   28.7192 H   0  0  0  0  0  0  0  0  0  0  0  0
   17.2894   55.9817   27.9839 H   0  0  0  0  0  0  0  0  0  0  0  0
 25 26  2  0  0  0
 25 36  1  0  0  0
 26 27  1  0  0  0
 26 28  1  0  0  0
 28 29  2  0  0  0
 29 30  1  0  0  0
 29 31  1  0  0  0
 31 32  1  0  0  0
 31 36  2  0  0  0
 32 33  2  0  0  0
 33 34  1  0  0  0
 33 24  1  0  0  0
 34 35  2  0  0  0
 35 36  1  0  0  0
 24 22  1  0  0  0
 22 23  1  0  0  0
 22  4  1  0  0  0
  1  2  2  0  0  0
  1  6  1  0  0  0
  1  7  1  0  0  0
  2  3  1  0  0  0
  3  4  2  0  0  0
  4  5  1  0  0  0
  5  6  2  0  0  0
  7  8  2  0  0  0
  7  9  1  0  0  0
  9 11  1  0  0  0
 11 12  1  0  0  0
 11 16  1  0  0  0
 12 13  2  0  0  0
 12 14  1  0  0  0
 16 17  1  0  0  0
 17 18  1  0  0  0
 18 19  2  0  0  0
 18 20  1  0  0  0
 27 37  1  0  0  0
 27 38  1  0  0  0
 30 39  1  0  0  0
 30 40  1  0  0  0
  9 10  1  0  0  0
 14 15  1  0  0  0
 20 21  1  0  0  0
M  END
> <minimizedAffinity>
-9.26188

$$$$
1DHJ_MTX_A_161


 40 42  0  0  0  0  0  0  0  0999 V2000
   18.6058   56.9208   28.2421 C   0  0  0  0  0  0  0  0  0  0  0  0
   17.4428   57.4748   27.6307 C   0  0  0  0  0  0  0  0  0  0  0  0
   16.8738   56.8232   26.5440 C   0  0  0  0  0  0  0  0  0  0  0  0
   17.4312   55.6087   26.0055 C   0  0  0  0  0  0  0  0  0  0  0  0
   18.5736   55.0653   26.5478 C   0  0  0  0  0  0  0  0  0  0  0  0
   19.1278   55.7153   27.6920 C   0  0  0  0  0  0  0  0  0  0  0  0
   19.2139   57.5597   29.3830 C   0  0  0  0  0  0  0  0  0  0  0  0
   19.0405   57.1375   30.5230 O   0  0  0  0  0  0  0  0  0  0  0  0
   19.9593   58.6313   29.1568 N   0  0  0  0  0  0  0  0  0  0  0  0
   20.0489   58.9441   28.2276 H   0  0  0  0  0  0  0  0  0  0  0  0
   20.6798   59.4023   30.2367 C   0  0  0  0  0  0  0  0  0  0  0  0
   19.7612   60.6338   30.2396 C   0  0  0  0  0  0  0  0  0  0  0  0
   19.0904   61.0256   29.2107 O   0  0  0  0  0  0  0  0  0  0  0  0
   19.6740   61.1488   31.3702 O   0  0  0  0  0  0  0  0  0  0  0  0
   20.1905   60.8161   32.0777 H   0  0  0  0  0  0  0  0  0  0  0  0
   22.0749   59.9109   29.6907 C   0  0  0  0  0  0  0  0  0  0  0  0
   23.2113   59.0286   28.9597 C   0  0  0  0  0  0  0  0  0  0  0  0
   22.9379   59.0233   27.4429 C   0  0  0  0  0  0  0  0  0  0  0  0
   23.7951   59.7562   26.8159 O   0  0  0  0  0  0  0  0  0  0  0  0
   21.9239   58.4085   26.9830 O   0  0  0  0  0  0  0  0  0  0  0  0
   21.3801   57.9065   27.5575 H   0  0  0  0  0  0  0  0  0  0  0  0
   16.7876   55.1039   24.8322 N   0  0  0  0  0  0  0  0  0  0  0  0
   15.8399   53.9603   24.7424 C   0  0  0  0  0  0  0  0  0  0  0  0
   17.0033   55.8613   23.5305 C   0  0  0  0  0  0  0  0  0  0  0  0
   22.3525   57.1639   23.2508 N   0  0  0  0  0  0  0  0  0  0  0  0
   22.7169   58.3997   23.5927 C   0  0  0  0  0  0  0  0  0  0  0  0
   23.9391   58.7633   23.6294 N   0  0  0  0  0  0  0  0  0  0  0  0
   21.7407   59.2788   23.9674 N   0  0  0  0  0  0  0  0  0  0  0  0
   20.4026   59.1154   24.1247 C   0  0  0  0  0  0  0  0  0  0  0  0
   19.5775   60.0756   24.4927 N   0  0  0  0  0  0  0  0  0  0  0  0
   20.0510   57.7162   23.6596 C   0  0  0  0  0  0  0  0  0  0  0  0
   18.7246   57.3731   23.7533 N   0  0  0  0  0  0  0  0  0  0  0  0
   18.4270   56.1205   23.3858 C   0  0  0  0  0  0  0  0  0  0  0  0
   19.4684   55.2227   22.9840 C   0  0  0  0  0  0  0  0  0  0  0  0
   20.7513   55.5187   22.9278 N   0  0  0  0  0  0  0  0  0  0  0  0
   20.9887   56.8256   23.2710 C   0  0  0  0  0  0  0  0  0  0  0  0
   24.6479   58.1351   23.3607 H   0  0  0  0  0  0  0  0  0  0  0  0
   24.1735   59.6722   23.9263 H   0  0  0  0  0  0  0  0  0  0  0  0
   19.9333   60.9485   24.7767 H   0  0  0  0  0  0  0  0  0  0  0  0
   18.6054   59.9196   24.4836 H   0  0  0  0  0  0  0  0  0  0  0  0
 25 26  2  0  0  0
 25 36  1  0  0  0
 26 27  1  0  0  0
 26 28  1  0  0  0
 28 29  2  0  0  0
 29 30  1  0  0  0
 29 31  1  0  0  0
 31 32  1  0  0  0
 31 36  2  0  0  0
 32 33  2  0  0  0
 33 34  1  0  0  0
 33 24  1  0  0  0
 34 35  2  0  0  0
 35 36  1  0  0  0
 24 22  1  0  0  0
 22 23  1  0  0  0
 22  4  1  0  0  0
  1  2  2  0  0  0
  1  6  1  0  0  0
  1  7  1  0  0  0
  2  3  1  0  0  0
  3  4  2  0  0  0
  4  5  1  0  0  0
  5  6  2  0  0  0
  7  8  2  0  0  0
  7  9  1  0  0  0
  9 11  1  0  0  0
 11 12  1  0  0  0
 11 16  1  0  0  0
 12 13  2  0  0  0
 12 14  1  0  0  0
 16 17  1  0  0  0
 17 18  1  0  0  0
 18 19  2  0  0  0
 18 20  1  0  0  0
 27 37  1  0  0  0
 27 38  1  0  0  0
 30 39  1  0  0  0
 30 40  1  0  0  0
  9 10  1  0  0  0
 14 15  1  0  0  0
 20 21  1  0  0  0
M  END
> <minimizedAffinity>
-9.16221

$$$$
1DHJ_MTX_A_161


 40 42  0  0  0  0  0  0  0  0999 V2000
   17.9997   63.6198   25.2678 C   0  0  0  0  0  0  0  0  0  0  0  0
   17.8209   62.8453   26.4517 C   0  0  0  0  0  0  0  0  0  0  0  0
   17.7748   61.4606   26.3542 C   0  0  0  0  0  0  0  0  0  0  0  0
   17.8892   60.7808   25.0891 C   0  0  0  0  0  0  0  0  0  0  0  0
   18.0268   61.4977   23.9223 C   0  0  0  0  0  0  0  0  0  0  0  0
   18.1179   62.9182   24.0340 C   0  0  0  0  0  0  0  0  0  0  0  0
   18.0700   65.0587   25.3320 C   0  0  0  0  0  0  0  0  0  0  0  0
   17.0640   65.7437   25.4954 O   0  0  0  0  0  0  0  0  0  0  0  0
   19.2631   65.6180   25.1945 N   0  0  0  0  0  0  0  0  0  0  0  0
   20.0358   65.0271   25.0426 H   0  0  0  0  0  0  0  0  0  0  0  0
   19.5105   67.1062   25.2566 C   0  0  0  0  0  0  0  0  0  0  0  0
   19.4098   67.3813   23.7484 C   0  0  0  0  0  0  0  0  0  0  0  0
   20.1101   66.7602   22.8618 O   0  0  0  0  0  0  0  0  0  0  0  0
   18.5136   68.2042   23.4825 O   0  0  0  0  0  0  0  0  0  0  0  0
   18.0405   68.6218   24.1752 H   0  0  0  0  0  0  0  0  0  0  0  0
   21.0201   67.3818   25.6415 C   0  0  0  0  0  0  0  0  0  0  0  0
   21.6596   67.3823   27.1232 C   0  0  0  0  0  0  0  0  0  0  0  0
   23.1625   67.7069   27.0163 C   0  0  0  0  0  0  0  0  0  0  0  0
   23.4297   68.2982   25.9010 O   0  0  0  0  0  0  0  0  0  0  0  0
   23.9608   67.3247   27.9297 O   0  0  0  0  0  0  0  0  0  0  0  0
   23.6273   66.9029   28.6970 H   0  0  0  0  0  0  0  0  0  0  0  0
   17.7346   59.3598   25.1382 N   0  0  0  0  0  0  0  0  0  0  0  0
   16.7051   58.5383   24.4461 C   0  0  0  0  0  0  0  0  0  0  0  0
   18.7843   58.5639   25.8993 C   0  0  0  0  0  0  0  0  0  0  0  0
   23.2476   57.5858   22.8151 N   0  0  0  0  0  0  0  0  0  0  0  0
   24.4307   57.9926   23.2752 C   0  0  0  0  0  0  0  0  0  0  0  0
   25.5217   57.7418   22.6636 N   0  0  0  0  0  0  0  0  0  0  0  0
   24.4649   58.6511   24.4717 N   0  0  0  0  0  0  0  0  0  0  0  0
   23.4822   58.9380   25.3628 C   0  0  0  0  0  0  0  0  0  0  0  0
   23.6731   59.5959   26.4893 N   0  0  0  0  0  0  0  0  0  0  0  0
   22.1641   58.5082   24.7502 C   0  0  0  0  0  0  0  0  0  0  0  0
   21.0499   58.7214   25.5241 N   0  0  0  0  0  0  0  0  0  0  0  0
   19.8941   58.2967   24.9981 C   0  0  0  0  0  0  0  0  0  0  0  0
   19.8846   57.6209   23.7352 C   0  0  0  0  0  0  0  0  0  0  0  0
   20.9466   57.3685   22.9969 N   0  0  0  0  0  0  0  0  0  0  0  0
   22.0922   57.8662   23.5643 C   0  0  0  0  0  0  0  0  0  0  0  0
   25.5046   57.2676   21.8010 H   0  0  0  0  0  0  0  0  0  0  0  0
   26.3807   58.0223   23.0542 H   0  0  0  0  0  0  0  0  0  0  0  0
   24.5868   59.8176   26.7811 H   0  0  0  0  0  0  0  0  0  0  0  0
   22.9018   59.8653   27.0387 H   0  0  0  0  0  0  0  0  0  0  0  0
 25 26  2  0  0  0
 25 36  1  0  0  0
 26 27  1  0  0  0
 26 28  1  0  0  0
 28 29  2  0  0  0
 29 30  1  0  0  0
 29 31  1  0  0  0
 31 32  1  0  0  0
 31 36  2  0  0  0
 32 33  2  0  0  0
 33 34  1  0  0  0
 33 24  1  0  0  0
 34 35  2  0  0  0
 35 36  1  0  0  0
 24 22  1  0  0  0
 22 23  1  0  0  0
 22  4  1  0  0  0
  1  2  2  0  0  0
  1  6  1  0  0  0
  1  7  1  0  0  0
  2  3  1  0  0  0
  3  4  2  0  0  0
  4  5  1  0  0  0
  5  6  2  0  0  0
  7  8  2  0  0  0
  7  9  1  0  0  0
  9 11  1  0  0  0
 11 12  1  0  0  0
 11 16  1  0  0  0
 12 13  2  0  0  0
 12 14  1  0  0  0
 16 17  1  0  0  0
 17 18  1  0  0  0
 18 19  2  0  0  0
 18 20  1  0  0  0
 27 37  1  0  0  0
 27 38  1  0  0  0
 30 39  1  0  0  0
 30 40  1  0  0  0
  9 10  1  0  0  0
 14 15  1  0  0  0
 20 21  1  0  0  0
M  END
> <minimizedAffinity>
-9.14995

$$$$
1DHJ_MTX_A_161


 40 42  0  0  0  0  0  0  0  0999 V2000
   18.2726   55.1223   26.4692 C   0  0  0  0  0  0  0  0  0  0  0  0
   17.3160   56.1284   26.7945 C   0  0  0  0  0  0  0  0  0  0  0  0
   17.6215   57.0603   27.7780 C   0  0  0  0  0  0  0  0  0  0  0  0
   18.8731   57.0342   28.4910 C   0  0  0  0  0  0  0  0  0  0  0  0
   19.8051   56.0560   28.2284 C   0  0  0  0  0  0  0  0  0  0  0  0
   19.5035   55.1282   27.1858 C   0  0  0  0  0  0  0  0  0  0  0  0
   17.9978   54.1485   25.4416 C   0  0  0  0  0  0  0  0  0  0  0  0
   18.6968   53.1487   25.3017 O   0  0  0  0  0  0  0  0  0  0  0  0
   16.9670   54.3797   24.6421 N   0  0  0  0  0  0  0  0  0  0  0  0
   16.4515   55.2069   24.7802 H   0  0  0  0  0  0  0  0  0  0  0  0
   16.5344   53.4520   23.5322 C   0  0  0  0  0  0  0  0  0  0  0  0
   17.2740   54.1624   22.3882 C   0  0  0  0  0  0  0  0  0  0  0  0
   18.4561   53.8348   21.9912 O   0  0  0  0  0  0  0  0  0  0  0  0
   16.5640   55.0245   21.8372 O   0  0  0  0  0  0  0  0  0  0  0  0
   15.7118   55.2162   22.1763 H   0  0  0  0  0  0  0  0  0  0  0  0
   14.9936   53.6545   23.2359 C   0  0  0  0  0  0  0  0  0  0  0  0
   13.7582   53.2154   24.1767 C   0  0  0  0  0  0  0  0  0  0  0  0
   13.3751   54.4030   25.0813 C   0  0  0  0  0  0  0  0  0  0  0  0
   14.0940   55.4401   24.8120 O   0  0  0  0  0  0  0  0  0  0  0  0
   12.5057   54.2489   25.9968 O   0  0  0  0  0  0  0  0  0  0  0  0
   12.0524   53.4331   26.0798 H   0  0  0  0  0  0  0  0  0  0  0  0
   19.0067   58.0028   29.5349 N   0  0  0  0  0  0  0  0  0  0  0  0
   18.8654   57.7788   30.9991 C   0  0  0  0  0  0  0  0  0  0  0  0
   19.4350   59.4081   29.1399 C   0  0  0  0  0  0  0  0  0  0  0  0
   24.1014   59.2223   26.2109 N   0  0  0  0  0  0  0  0  0  0  0  0
   24.0086   59.2095   24.8812 C   0  0  0  0  0  0  0  0  0  0  0  0
   25.0366   59.2429   24.1267 N   0  0  0  0  0  0  0  0  0  0  0  0
   22.7620   59.2169   24.3223 N   0  0  0  0  0  0  0  0  0  0  0  0
   21.5299   59.2977   24.8858 C   0  0  0  0  0  0  0  0  0  0  0  0
   20.4016   59.2877   24.2039 N   0  0  0  0  0  0  0  0  0  0  0  0
   21.7064   59.2435   26.3903 C   0  0  0  0  0  0  0  0  0  0  0  0
   20.5509   59.3187   27.1287 N   0  0  0  0  0  0  0  0  0  0  0  0
   20.7161   59.3181   28.4574 C   0  0  0  0  0  0  0  0  0  0  0  0
   22.0342   59.2963   29.0177 C   0  0  0  0  0  0  0  0  0  0  0  0
   23.1564   59.2670   28.3274 N   0  0  0  0  0  0  0  0  0  0  0  0
   22.9229   59.2230   26.9762 C   0  0  0  0  0  0  0  0  0  0  0  0
   25.9380   59.2379   24.5224 H   0  0  0  0  0  0  0  0  0  0  0  0
   24.9286   59.2737   23.1486 H   0  0  0  0  0  0  0  0  0  0  0  0
   20.4204   59.3276   23.2204 H   0  0  0  0  0  0  0  0  0  0  0  0
   19.5402   59.2403   24.6783 H   0  0  0  0  0  0  0  0  0  0  0  0
 25 26  2  0  0  0
 25 36  1  0  0  0
 26 27  1  0  0  0
 26 28  1  0  0  0
 28 29  2  0  0  0
 29 30  1  0  0  0
 29 31  1  0  0  0
 31 32  1  0  0  0
 31 36  2  0  0  0
 32 33  2  0  0  0
 33 34  1  0  0  0
 33 24  1  0  0  0
 34 35  2  0  0  0
 35 36  1  0  0  0
 24 22  1  0  0  0
 22 23  1  0  0  0
 22  4  1  0  0  0
  1  2  2  0  0  0
  1  6  1  0  0  0
  1  7  1  0  0  0
  2  3  1  0  0  0
  3  4  2  0  0  0
  4  5  1  0  0  0
  5  6  2  0  0  0
  7  8  2  0  0  0
  7  9  1  0  0  0
  9 11  1  0  0  0
 11 12  1  0  0  0
 11 16  1  0  0  0
 12 13  2  0  0  0
 12 14  1  0  0  0
 16 17  1  0  0  0
 17 18  1  0  0  0
 18 19  2  0  0  0
 18 20  1  0  0  0
 27 37  1  0  0  0
 27 38  1  0  0  0
 30 39  1  0  0  0
 30 40  1  0  0  0
  9 10  1  0  0  0
 14 15  1  0  0  0
 20 21  1  0  0  0
M  END
> <minimizedAffinity>
-9.11884

$$$$
1DHJ_MTX_A_161


 40 42  0  0  0  0  0  0  0  0999 V2000
   17.8974   57.1243   29.2317 C   0  0  0  0  0  0  0  0  0  0  0  0
   16.5041   57.4227   29.1784 C   0  0  0  0  0  0  0  0  0  0  0  0
   15.6881   56.6941   28.3226 C   0  0  0  0  0  0  0  0  0  0  0  0
   16.2092   55.6522   27.4749 C   0  0  0  0  0  0  0  0  0  0  0  0
   17.5546   55.3616   27.4739 C   0  0  0  0  0  0  0  0  0  0  0  0
   18.3805   56.0836   28.3879 C   0  0  0  0  0  0  0  0  0  0  0  0
   18.7726   57.8477   30.1209 C   0  0  0  0  0  0  0  0  0  0  0  0
   18.6850   57.7339   31.3404 O   0  0  0  0  0  0  0  0  0  0  0  0
   19.6699   58.6531   29.5719 N   0  0  0  0  0  0  0  0  0  0  0  0
   19.6850   58.7274   28.5903 H   0  0  0  0  0  0  0  0  0  0  0  0
   20.6708   59.4640   30.3596 C   0  0  0  0  0  0  0  0  0  0  0  0
   19.8235   60.7385   30.4934 C   0  0  0  0  0  0  0  0  0  0  0  0
   19.0950   61.2138   29.5417 O   0  0  0  0  0  0  0  0  0  0  0  0
   19.8547   61.2011   31.6493 O   0  0  0  0  0  0  0  0  0  0  0  0
   20.4072   60.8083   32.2962 H   0  0  0  0  0  0  0  0  0  0  0  0
   21.8901   59.8568   29.4311 C   0  0  0  0  0  0  0  0  0  0  0  0
   23.2370   59.0028   29.1844 C   0  0  0  0  0  0  0  0  0  0  0  0
   23.0355   58.1011   27.9508 C   0  0  0  0  0  0  0  0  0  0  0  0
   23.9549   58.3102   27.0700 O   0  0  0  0  0  0  0  0  0  0  0  0
   22.0163   57.3436   27.8781 O   0  0  0  0  0  0  0  0  0  0  0  0
   21.4229   57.2860   28.6010 H   0  0  0  0  0  0  0  0  0  0  0  0
   15.2635   55.0524   26.5852 N   0  0  0  0  0  0  0  0  0  0  0  0
   14.3970   53.8720   26.8490 C   0  0  0  0  0  0  0  0  0  0  0  0
   15.0268   55.7348   25.2462 C   0  0  0  0  0  0  0  0  0  0  0  0
   19.7953   55.8919   22.4848 N   0  0  0  0  0  0  0  0  0  0  0  0
   20.3294   57.0843   22.2206 C   0  0  0  0  0  0  0  0  0  0  0  0
   21.4651   57.2109   21.6538 N   0  0  0  0  0  0  0  0  0  0  0  0
   19.6509   58.1984   22.6267 N   0  0  0  0  0  0  0  0  0  0  0  0
   18.5032   58.3367   23.3378 C   0  0  0  0  0  0  0  0  0  0  0  0
   17.9620   59.4971   23.6520 N   0  0  0  0  0  0  0  0  0  0  0  0
   17.9201   56.9531   23.5462 C   0  0  0  0  0  0  0  0  0  0  0  0
   16.7472   56.9021   24.2585 N   0  0  0  0  0  0  0  0  0  0  0  0
   16.2617   55.6743   24.4803 C   0  0  0  0  0  0  0  0  0  0  0  0
   16.9864   54.5230   24.0319 C   0  0  0  0  0  0  0  0  0  0  0  0
   18.1340   54.5483   23.3846 N   0  0  0  0  0  0  0  0  0  0  0  0
   18.5574   55.8314   23.1471 C   0  0  0  0  0  0  0  0  0  0  0  0
   21.9597   56.4125   21.3585 H   0  0  0  0  0  0  0  0  0  0  0  0
   21.8471   58.1071   21.5116 H   0  0  0  0  0  0  0  0  0  0  0  0
   18.4463   60.3333   23.4634 H   0  0  0  0  0  0  0  0  0  0  0  0
   17.0736   59.5275   24.0752 H   0  0  0  0  0  0  0  0  0  0  0  0
 25 26  2  0  0  0
 25 36  1  0  0  0
 26 27  1  0  0  0
 26 28  1  0  0  0
 28 29  2  0  0  0
 29 30  1  0  0  0
 29 31  1  0  0  0
 31 32  1  0  0  0
 31 36  2  0  0  0
 32 33  2  0  0  0
 33 34  1  0  0  0
 33 24  1  0  0  0
 34 35  2  0  0  0
 35 36  1  0  0  0
 24 22  1  0  0  0
 22 23  1  0  0  0
 22  4  1  0  0  0
  1  2  2  0  0  0
  1  6  1  0  0  0
  1  7  1  0  0  0
  2  3  1  0  0  0
  3  4  2  0  0  0
  4  5  1  0  0  0
  5  6  2  0  0  0
  7  8  2  0  0  0
  7  9  1  0  0  0
  9 11  1  0  0  0
 11 12  1  0  0  0
 11 16  1  0  0  0
 12 13  2  0  0  0
 12 14  1  0  0  0
 16 17  1  0  0  0
 17 18  1  0  0  0
 18 19  2  0  0  0
 18 20  1  0  0  0
 27 37  1  0  0  0
 27 38  1  0  0  0
 30 39  1  0  0  0
 30 40  1  0  0  0
  9 10  1  0  0  0
 14 15  1  0  0  0
 20 21  1  0  0  0
M  END
> <minimizedAffinity>
-9.03934

$$$$
1DHJ_MTX_A_161


 40 42  0  0  0  0  0  0  0  0999 V2000
   19.0780   59.2767   27.5406 C   0  0  0  0  0  0  0  0  0  0  0  0
   19.8429   58.1096   27.8343 C   0  0  0  0  0  0  0  0  0  0  0  0
   20.0896   57.1897   26.8233 C   0  0  0  0  0  0  0  0  0  0  0  0
   19.5842   57.3718   25.4865 C   0  0  0  0  0  0  0  0  0  0  0  0
   18.8123   58.4683   25.1761 C   0  0  0  0  0  0  0  0  0  0  0  0
   18.5997   59.4320   26.2081 C   0  0  0  0  0  0  0  0  0  0  0  0
   18.8164   60.2624   28.5601 C   0  0  0  0  0  0  0  0  0  0  0  0
   19.6681   60.5689   29.3899 O   0  0  0  0  0  0  0  0  0  0  0  0
   17.6140   60.8184   28.5770 N   0  0  0  0  0  0  0  0  0  0  0  0
   16.9585   60.5222   27.9048 H   0  0  0  0  0  0  0  0  0  0  0  0
   17.1874   61.8783   29.5641 C   0  0  0  0  0  0  0  0  0  0  0  0
   15.7235   61.4336   29.7036 C   0  0  0  0  0  0  0  0  0  0  0  0
   15.3604   60.3557   30.3107 O   0  0  0  0  0  0  0  0  0  0  0  0
   14.9327   62.2783   29.2430 O   0  0  0  0  0  0  0  0  0  0  0  0
   15.2621   63.0422   28.8118 H   0  0  0  0  0  0  0  0  0  0  0  0
   17.1395   63.2881   28.8476 C   0  0  0  0  0  0  0  0  0  0  0  0
   17.6352   63.6340   27.3513 C   0  0  0  0  0  0  0  0  0  0  0  0
   16.4039   63.7331   26.4297 C   0  0  0  0  0  0  0  0  0  0  0  0
   16.7567   63.7733   25.1893 O   0  0  0  0  0  0  0  0  0  0  0  0
   15.2408   63.8374   26.9337 O   0  0  0  0  0  0  0  0  0  0  0  0
   15.1266   63.7896   27.8625 H   0  0  0  0  0  0  0  0  0  0  0  0
   19.8452   56.2979   24.5787 N   0  0  0  0  0  0  0  0  0  0  0  0
   20.5638   56.3685   23.2777 C   0  0  0  0  0  0  0  0  0  0  0  0
   19.4374   54.8972   25.0104 C   0  0  0  0  0  0  0  0  0  0  0  0
   13.9517   54.4889   24.6502 N   0  0  0  0  0  0  0  0  0  0  0  0
   13.2575   54.3376   25.7781 C   0  0  0  0  0  0  0  0  0  0  0  0
   11.9823   54.3103   25.7940 N   0  0  0  0  0  0  0  0  0  0  0  0
   13.9478   54.2663   26.9548 N   0  0  0  0  0  0  0  0  0  0  0  0
   15.2732   54.3841   27.2226 C   0  0  0  0  0  0  0  0  0  0  0  0
   15.7968   54.2849   28.4285 N   0  0  0  0  0  0  0  0  0  0  0  0
   16.0037   54.4882   25.8985 C   0  0  0  0  0  0  0  0  0  0  0  0
   17.3683   54.6197   25.9798 N   0  0  0  0  0  0  0  0  0  0  0  0
   18.0036   54.7588   24.8095 C   0  0  0  0  0  0  0  0  0  0  0  0
   17.2567   54.8170   23.5887 C   0  0  0  0  0  0  0  0  0  0  0  0
   15.9449   54.7357   23.4922 N   0  0  0  0  0  0  0  0  0  0  0  0
   15.3541   54.5487   24.7162 C   0  0  0  0  0  0  0  0  0  0  0  0
   11.4782   54.3612   24.9499 H   0  0  0  0  0  0  0  0  0  0  0  0
   11.5021   54.2383   26.6505 H   0  0  0  0  0  0  0  0  0  0  0  0
   15.2098   54.2235   29.2165 H   0  0  0  0  0  0  0  0  0  0  0  0
   16.7747   54.2722   28.5410 H   0  0  0  0  0  0  0  0  0  0  0  0
 25 26  2  0  0  0
 25 36  1  0  0  0
 26 27  1  0  0  0
 26 28  1  0  0  0
 28 29  2  0  0  0
 29 30  1  0  0  0
 29 31  1  0  0  0
 31 32  1  0  0  0
 31 36  2  0  0  0
 32 33  2  0  0  0
 33 34  1  0  0  0
 33 24  1  0  0  0
 34 35  2  0  0  0
 35 36  1  0  0  0
 24 22  1  0  0  0
 22 23  1  0  0  0
 22  4  1  0  0  0
  1  2  2  0  0  0
  1  6  1  0  0  0
  1  7  1  0  0  0
  2  3  1  0  0  0
  3  4  2  0  0  0
  4  5  1  0  0  0
  5  6  2  0  0  0
  7  8  2  0  0  0
  7  9  1  0  0  0
  9 11  1  0  0  0
 11 12  1  0  0  0
 11 16  1  0  0  0
 12 13  2  0  0  0
 12 14  1  0  0  0
 16 17  1  0  0  0
 17 18  1  0  0  0
 18 19  2  0  0  0
 18 20  1  0  0  0
 27 37  1  0  0  0
 27 38  1  0  0  0
 30 39  1  0  0  0
 30 40  1  0  0  0
  9 10  1  0  0  0
 14 15  1  0  0  0
 20 21  1  0  0  0
M  END
> <minimizedAffinity>
-8.73140

$$$$
1DHJ_MTX_A_161


 40 42  0  0  0  0  0  0  0  0999 V2000
   17.8115   62.4787   25.0255 C   0  0  0  0  0  0  0  0  0  0  0  0
   18.4629   61.8673   23.9141 C   0  0  0  0  0  0  0  0  0  0  0  0
   18.4483   60.4832   23.7984 C   0  0  0  0  0  0  0  0  0  0  0  0
   17.8049   59.6429   24.7759 C   0  0  0  0  0  0  0  0  0  0  0  0
   17.1975   60.1967   25.8799 C   0  0  0  0  0  0  0  0  0  0  0  0
   17.1776   61.6215   25.9699 C   0  0  0  0  0  0  0  0  0  0  0  0
   17.7908   63.9134   25.1698 C   0  0  0  0  0  0  0  0  0  0  0  0
   16.7622   64.5134   25.4694 O   0  0  0  0  0  0  0  0  0  0  0  0
   18.9241   64.5647   24.9534 N   0  0  0  0  0  0  0  0  0  0  0  0
   19.7158   64.0407   24.6931 H   0  0  0  0  0  0  0  0  0  0  0  0
   19.0756   66.0615   25.0818 C   0  0  0  0  0  0  0  0  0  0  0  0
   20.1892   66.2326   24.0373 C   0  0  0  0  0  0  0  0  0  0  0  0
   19.9924   66.7130   22.8571 O   0  0  0  0  0  0  0  0  0  0  0  0
   21.3091   65.9386   24.4959 O   0  0  0  0  0  0  0  0  0  0  0  0
   21.3839   65.5926   25.3635 H   0  0  0  0  0  0  0  0  0  0  0  0
   19.7380   66.4145   26.4745 C   0  0  0  0  0  0  0  0  0  0  0  0
   19.9428   67.8849   27.1072 C   0  0  0  0  0  0  0  0  0  0  0  0
   21.4528   68.1715   27.2211 C   0  0  0  0  0  0  0  0  0  0  0  0
   21.9515   68.4870   26.0738 O   0  0  0  0  0  0  0  0  0  0  0  0
   22.0473   68.0094   28.3338 O   0  0  0  0  0  0  0  0  0  0  0  0
   21.5566   67.7782   29.0978 H   0  0  0  0  0  0  0  0  0  0  0  0
   17.9500   58.2353   24.5679 N   0  0  0  0  0  0  0  0  0  0  0  0
   17.5162   57.4474   23.3826 C   0  0  0  0  0  0  0  0  0  0  0  0
   18.7156   57.4444   25.6180 C   0  0  0  0  0  0  0  0  0  0  0  0
   23.9331   59.1611   25.1485 N   0  0  0  0  0  0  0  0  0  0  0  0
   24.5474   58.9914   23.9777 C   0  0  0  0  0  0  0  0  0  0  0  0
   25.7266   59.4258   23.7585 N   0  0  0  0  0  0  0  0  0  0  0  0
   23.8570   58.3785   22.9707 N   0  0  0  0  0  0  0  0  0  0  0  0
   22.5759   57.9351   22.9059 C   0  0  0  0  0  0  0  0  0  0  0  0
   22.0472   57.3503   21.8491 N   0  0  0  0  0  0  0  0  0  0  0  0
   21.9609   58.0989   24.2816 C   0  0  0  0  0  0  0  0  0  0  0  0
   20.6520   57.7009   24.4002 N   0  0  0  0  0  0  0  0  0  0  0  0
   20.0994   57.8917   25.6047 C   0  0  0  0  0  0  0  0  0  0  0  0
   20.8501   58.5247   26.6477 C   0  0  0  0  0  0  0  0  0  0  0  0
   22.0921   58.9524   26.5420 N   0  0  0  0  0  0  0  0  0  0  0  0
   22.6186   58.6888   25.3029 C   0  0  0  0  0  0  0  0  0  0  0  0
   26.2301   59.8685   24.4795 H   0  0  0  0  0  0  0  0  0  0  0  0
   26.1332   59.3184   22.8683 H   0  0  0  0  0  0  0  0  0  0  0  0
   22.5526   57.3085   21.0053 H   0  0  0  0  0  0  0  0  0  0  0  0
   21.1471   56.9553   21.9039 H   0  0  0  0  0  0  0  0  0  0  0  0
 25 26  2  0  0  0
 25 36  1  0  0  0
 26 27  1  0  0  0
 26 28  1  0  0  0
 28 29  2  0  0  0
 29 30  1  0  0  0
 29 31  1  0  0  0
 31 32  1  0  0  0
 31 36  2  0  0  0
 32 33  2  0  0  0
 33 34  1  0  0  0
 33 24  1  0  0  0
 34 35  2  0  0  0
 35 36  1  0  0  0
 24 22  1  0  0  0
 22 23  1  0  0  0
 22  4  1  0  0  0
  1  2  2  0  0  0
  1  6  1  0  0  0
  1  7  1  0  0  0
  2  3  1  0  0  0
  3  4  2  0  0  0
  4  5  1  0  0  0
  5  6  2  0  0  0
  7  8  2  0  0  0
  7  9  1  0  0  0
  9 11  1  0  0  0
 11 12  1  0  0  0
 11 16  1  0  0  0
 12 13  2  0  0  0
 12 14  1  0  0  0
 16 17  1  0  0  0
 17 18  1  0  0  0
 18 19  2  0  0  0
 18 20  1  0  0  0
 27 37  1  0  0  0
 27 38  1  0  0  0
 30 39  1  0  0  0
 30 40  1  0  0  0
  9 10  1  0  0  0
 14 15  1  0  0  0
 20 21  1  0  0  0
M  END
> <minimizedAffinity>
-8.57831

$$$$
1DHJ_MTX_A_161


 40 42  0  0  0  0  0  0  0  0999 V2000
   19.2964   59.5307   28.4044 C   0  0  0  0  0  0  0  0  0  0  0  0
   19.4512   60.6251   29.3053 C   0  0  0  0  0  0  0  0  0  0  0  0
   18.3437   61.3993   29.6264 C   0  0  0  0  0  0  0  0  0  0  0  0
   17.0423   61.1386   29.0659 C   0  0  0  0  0  0  0  0  0  0  0  0
   16.8636   60.1130   28.1655 C   0  0  0  0  0  0  0  0  0  0  0  0
   17.9961   59.2937   27.8739 C   0  0  0  0  0  0  0  0  0  0  0  0
   20.4197   58.6940   28.0612 C   0  0  0  0  0  0  0  0  0  0  0  0
   20.4557   57.5074   28.3753 O   0  0  0  0  0  0  0  0  0  0  0  0
   21.4219   59.2578   27.4032 N   0  0  0  0  0  0  0  0  0  0  0  0
   21.3558   60.2177   27.1947 H   0  0  0  0  0  0  0  0  0  0  0  0
   22.6591   58.5184   26.9534 C   0  0  0  0  0  0  0  0  0  0  0  0
   23.5027   58.7707   28.2124 C   0  0  0  0  0  0  0  0  0  0  0  0
   23.8955   57.8345   29.0071 O   0  0  0  0  0  0  0  0  0  0  0  0
   23.8338   59.9663   28.3210 O   0  0  0  0  0  0  0  0  0  0  0  0
   23.5126   60.5988   27.7088 H   0  0  0  0  0  0  0  0  0  0  0  0
   23.3715   59.3240   25.7930 C   0  0  0  0  0  0  0  0  0  0  0  0
   23.3476   58.9805   24.2163 C   0  0  0  0  0  0  0  0  0  0  0  0
   24.7970   58.7981   23.7250 C   0  0  0  0  0  0  0  0  0  0  0  0
   24.9381   57.6736   23.1082 O   0  0  0  0  0  0  0  0  0  0  0  0
   25.6793   59.6673   24.0144 O   0  0  0  0  0  0  0  0  0  0  0  0
   25.4354   60.4486   24.4705 H   0  0  0  0  0  0  0  0  0  0  0  0
   16.0207   62.0741   29.4217 N   0  0  0  0  0  0  0  0  0  0  0  0
   15.6439   62.5244   30.7888 C   0  0  0  0  0  0  0  0  0  0  0  0
   15.2842   62.7754   28.2901 C   0  0  0  0  0  0  0  0  0  0  0  0
   18.5930   66.4317   25.8258 N   0  0  0  0  0  0  0  0  0  0  0  0
   19.2221   66.0586   24.7115 C   0  0  0  0  0  0  0  0  0  0  0  0
   19.9461   66.8633   24.0365 N   0  0  0  0  0  0  0  0  0  0  0  0
   19.0305   64.7837   24.2595 N   0  0  0  0  0  0  0  0  0  0  0  0
   18.2349   63.7833   24.7159 C   0  0  0  0  0  0  0  0  0  0  0  0
   18.1612   62.5868   24.1671 N   0  0  0  0  0  0  0  0  0  0  0  0
   17.6037   64.2509   26.0122 C   0  0  0  0  0  0  0  0  0  0  0  0
   16.7549   63.3573   26.6179 N   0  0  0  0  0  0  0  0  0  0  0  0
   16.1637   63.7933   27.7372 C   0  0  0  0  0  0  0  0  0  0  0  0
   16.3923   65.1305   28.1968 C   0  0  0  0  0  0  0  0  0  0  0  0
   17.1689   66.0174   27.6077 N   0  0  0  0  0  0  0  0  0  0  0  0
   17.7812   65.4997   26.4946 C   0  0  0  0  0  0  0  0  0  0  0  0
   20.0885   67.7835   24.3561 H   0  0  0  0  0  0  0  0  0  0  0  0
   20.3624   66.5641   23.1960 H   0  0  0  0  0  0  0  0  0  0  0  0
   18.6199   62.4071   23.3147 H   0  0  0  0  0  0  0  0  0  0  0  0
   17.6474   61.8731   24.6096 H   0  0  0  0  0  0  0  0  0  0  0  0
 25 26  2  0  0  0
 25 36  1  0  0  0
 26 27  1  0  0  0
 26 28  1  0  0  0
 28 29  2  0  0  0
 29 30  1  0  0  0
 29 31  1  0  0  0
 31 32  1  0  0  0
 31 36  2  0  0  0
 32 33  2  0  0  0
 33 34  1  0  0  0
 33 24  1  0  0  0
 34 35  2  0  0  0
 35 36  1  0  0  0
 24 22  1  0  0  0
 22 23  1  0  0  0
 22  4  1  0  0  0
  1  2  2  0  0  0
  1  6  1  0  0  0
  1  7  1  0  0  0
  2  3  1  0  0  0
  3  4  2  0  0  0
  4  5  1  0  0  0
  5  6  2  0  0  0
  7  8  2  0  0  0
  7  9  1  0  0  0
  9 11  1  0  0  0
 11 12  1  0  0  0
 11 16  1  0  0  0
 12 13  2  0  0  0
 12 14  1  0  0  0
 16 17  1  0  0  0
 17 18  1  0  0  0
 18 19  2  0  0  0
 18 20  1  0  0  0
 27 37  1  0  0  0
 27 38  1  0  0  0
 30 39  1  0  0  0
 30 40  1  0  0  0
  9 10  1  0  0  0
 14 15  1  0  0  0
 20 21  1  0  0  0
M  END
> <minimizedAffinity>
-8.45286

$$$$
1DHJ_MTX_A_161


 40 42  0  0  0  0  0  0  0  0999 V2000
   18.4762   60.8296   23.9426 C   0  0  0  0  0  0  0  0  0  0  0  0
   19.7621   60.5461   24.4900 C   0  0  0  0  0  0  0  0  0  0  0  0
   20.4781   59.4580   24.0078 C   0  0  0  0  0  0  0  0  0  0  0  0
   19.9551   58.5965   22.9782 C   0  0  0  0  0  0  0  0  0  0  0  0
   18.7027   58.8189   22.4525 C   0  0  0  0  0  0  0  0  0  0  0  0
   17.9907   59.9646   22.9206 C   0  0  0  0  0  0  0  0  0  0  0  0
   17.7111   61.9609   24.4057 C   0  0  0  0  0  0  0  0  0  0  0  0
   17.4486   62.9044   23.6651 O   0  0  0  0  0  0  0  0  0  0  0  0
   17.3112   61.9511   25.6687 N   0  0  0  0  0  0  0  0  0  0  0  0
   17.5668   61.1826   26.2285 H   0  0  0  0  0  0  0  0  0  0  0  0
   16.4875   63.0465   26.3023 C   0  0  0  0  0  0  0  0  0  0  0  0
   17.6547   63.8344   26.9165 C   0  0  0  0  0  0  0  0  0  0  0  0
   18.1414   63.5928   28.0856 O   0  0  0  0  0  0  0  0  0  0  0  0
   18.1275   64.6663   26.1193 O   0  0  0  0  0  0  0  0  0  0  0  0
   17.7253   64.7946   25.2827 H   0  0  0  0  0  0  0  0  0  0  0  0
   15.6739   62.4633   27.5274 C   0  0  0  0  0  0  0  0  0  0  0  0
   15.6757   60.9387   28.0566 C   0  0  0  0  0  0  0  0  0  0  0  0
   16.4265   60.8798   29.4013 C   0  0  0  0  0  0  0  0  0  0  0  0
   16.7214   59.6631   29.7133 O   0  0  0  0  0  0  0  0  0  0  0  0
   16.6083   61.9439   30.0737 O   0  0  0  0  0  0  0  0  0  0  0  0
   16.3431   62.7712   29.7225 H   0  0  0  0  0  0  0  0  0  0  0  0
   20.7690   57.4674   22.6488 N   0  0  0  0  0  0  0  0  0  0  0  0
   22.2393   57.4487   22.4217 C   0  0  0  0  0  0  0  0  0  0  0  0
   20.0976   56.1027   22.6140 C   0  0  0  0  0  0  0  0  0  0  0  0
   17.5192   54.9495   27.3481 N   0  0  0  0  0  0  0  0  0  0  0  0
   16.2410   54.5753   27.2924 C   0  0  0  0  0  0  0  0  0  0  0  0
   15.5905   54.2181   28.3300 N   0  0  0  0  0  0  0  0  0  0  0  0
   15.6373   54.5244   26.0679 N   0  0  0  0  0  0  0  0  0  0  0  0
   16.1272   54.7363   24.8200 C   0  0  0  0  0  0  0  0  0  0  0  0
   15.4078   54.6538   23.7182 N   0  0  0  0  0  0  0  0  0  0  0  0
   17.5574   55.2180   24.9615 C   0  0  0  0  0  0  0  0  0  0  0  0
   18.2169   55.4797   23.7858 N   0  0  0  0  0  0  0  0  0  0  0  0
   19.4943   55.8594   23.9148 C   0  0  0  0  0  0  0  0  0  0  0  0
   20.0994   55.9173   25.2119 C   0  0  0  0  0  0  0  0  0  0  0  0
   19.4972   55.6295   26.3482 N   0  0  0  0  0  0  0  0  0  0  0  0
   18.1813   55.2923   26.1569 C   0  0  0  0  0  0  0  0  0  0  0  0
   16.0192   54.2521   29.2156 H   0  0  0  0  0  0  0  0  0  0  0  0
   14.6598   53.9085   28.2451 H   0  0  0  0  0  0  0  0  0  0  0  0
   14.4820   54.3214   23.7585 H   0  0  0  0  0  0  0  0  0  0  0  0
   15.7965   54.9245   22.8552 H   0  0  0  0  0  0  0  0  0  0  0  0
 25 26  2  0  0  0
 25 36  1  0  0  0
 26 27  1  0  0  0
 26 28  1  0  0  0
 28 29  2  0  0  0
 29 30  1  0  0  0
 29 31  1  0  0  0
 31 32  1  0  0  0
 31 36  2  0  0  0
 32 33  2  0  0  0
 33 34  1  0  0  0
 33 24  1  0  0  0
 34 35  2  0  0  0
 35 36  1  0  0  0
 24 22  1  0  0  0
 22 23  1  0  0  0
 22  4  1  0  0  0
  1  2  2  0  0  0
  1  6  1  0  0  0
  1  7  1  0  0  0
  2  3  1  0  0  0
  3  4  2  0  0  0
  4  5  1  0  0  0
  5  6  2  0  0  0
  7  8  2  0  0  0
  7  9  1  0  0  0
  9 11  1  0  0  0
 11 12  1  0  0  0
 11 16  1  0  0  0
 12 13  2  0  0  0
 12 14  1  0  0  0
 16 17  1  0  0  0
 17 18  1  0  0  0
 18 19  2  0  0  0
 18 20  1  0  0  0
 27 37  1  0  0  0
 27 38  1  0  0  0
 30 39  1  0  0  0
 30 40  1  0  0  0
  9 10  1  0  0  0
 14 15  1  0  0  0
 20 21  1  0  0  0
M  END
> <minimizedAffinity>
-8.44602

$$$$
