4QJW_WWO_A_302


 31 32  0  0  0  0  0  0  0  0999 V2000
   -4.4820   21.3594   -3.5717 F   0  0  0  0  0  0  0  0  0  0  0  0
   -3.6345   20.3314   -3.8303 C   0  0  0  0  0  0  0  0  0  0  0  0
   -2.2564   20.5458   -3.6996 C   0  0  0  0  0  0  0  0  0  0  0  0
   -1.3604   19.5004   -3.9608 C   0  0  0  0  0  0  0  0  0  0  0  0
   -0.0239   19.6895   -3.8385 F   0  0  0  0  0  0  0  0  0  0  0  0
   -1.8372   18.2467   -4.3508 C   0  0  0  0  0  0  0  0  0  0  0  0
   -0.9526   17.2484   -4.5990 F   0  0  0  0  0  0  0  0  0  0  0  0
   -4.1282   19.0659   -4.2258 C   0  0  0  0  0  0  0  0  0  0  0  0
   -3.2167   18.0209   -4.4863 C   0  0  0  0  0  0  0  0  0  0  0  0
   -1.6558   22.1668   -3.1952 S   0  0  0  0  0  0  0  0  0  0  0  0
   -0.9701   22.9628   -4.3173 O   0  0  0  0  0  0  0  0  0  0  0  0
   -2.8414   23.2795   -2.5125 N   0  0  0  0  0  0  0  0  0  0  0  0
   -0.5435   22.0807   -2.1398 O   0  0  0  0  0  0  0  0  0  0  0  0
   -3.6191   23.3889   -3.1632 H   0  0  0  0  0  0  0  0  0  0  0  0
   -2.4031   24.1862   -2.3508 H   0  0  0  0  0  0  0  0  0  0  0  0
   -3.7947   16.3907   -4.9931 S   0  0  0  0  0  0  0  0  0  0  0  0
   -4.5832   15.8166   -3.8061 O   0  0  0  0  0  0  0  0  0  0  0  0
   -2.6018   15.4232   -4.9605 O   0  0  0  0  0  0  0  0  0  0  0  0
   -4.7859   16.0102   -6.4713 C   0  0  0  0  0  0  0  0  0  0  0  0
   -5.6547   14.7941   -6.2137 C   0  0  0  0  0  0  0  0  0  0  0  0
   -4.8925   13.7987   -5.6070 O   0  0  0  0  0  0  0  0  0  0  0  0
   -4.1578   13.5531   -6.1907 H   0  0  0  0  0  0  0  0  0  0  0  0
   -5.5255   18.8184   -4.3675 N   0  0  0  0  0  0  0  0  0  0  0  0
   -6.0068   18.4256   -3.6037 H   0  0  0  0  0  0  0  0  0  0  0  0
   -6.2755   19.1105   -5.5670 C   0  0  0  0  0  0  0  0  0  0  0  0
   -6.8815   20.4698   -5.5098 C   0  0  0  0  0  0  0  0  0  0  0  0
   -8.0210   20.6845   -4.7262 C   0  0  0  0  0  0  0  0  0  0  0  0
   -8.6006   21.9553   -4.6640 C   0  0  0  0  0  0  0  0  0  0  0  0
   -8.0429   23.0146   -5.3841 C   0  0  0  0  0  0  0  0  0  0  0  0
   -6.9036   22.8030   -6.1689 C   0  0  0  0  0  0  0  0  0  0  0  0
   -6.3228   21.5311   -6.2317 C   0  0  0  0  0  0  0  0  0  0  0  0
 11 10  2  0  0  0
 10 12  1  0  0  0
 10  3  1  0  0  0
 10 13  2  0  0  0
 31 30  2  0  0  0
 31 26  1  0  0  0
  1  2  1  0  0  0
 30 29  1  0  0  0
 25 26  1  0  0  0
 25 23  1  0  0  0
  3  2  2  0  0  0
  3  4  1  0  0  0
  2  8  1  0  0  0
 26 27  2  0  0  0
  4  5  1  0  0  0
  4  6  2  0  0  0
  8 23  1  0  0  0
  8  9  2  0  0  0
 18 16  2  0  0  0
 29 28  2  0  0  0
  6  9  1  0  0  0
  6  7  1  0  0  0
  9 16  1  0  0  0
 17 16  2  0  0  0
 27 28  1  0  0  0
 16 19  1  0  0  0
 19 20  1  0  0  0
 21 20  1  0  0  0
 12 14  1  0  0  0
 12 15  1  0  0  0
 21 22  1  0  0  0
 23 24  1  0  0  0
M  END
> <minimizedAffinity>
-8.31601

$$$$
4QJW_WWO_A_302


 31 32  0  0  0  0  0  0  0  0999 V2000
   -5.1310   21.1910   -1.9888 F   0  0  0  0  0  0  0  0  0  0  0  0
   -3.8276   20.8158   -1.9395 C   0  0  0  0  0  0  0  0  0  0  0  0
   -3.0757   21.1414   -0.8033 C   0  0  0  0  0  0  0  0  0  0  0  0
   -1.7279   20.7651   -0.7279 C   0  0  0  0  0  0  0  0  0  0  0  0
   -0.9856   21.0708    0.3640 F   0  0  0  0  0  0  0  0  0  0  0  0
   -1.1328   20.0672   -1.7815 C   0  0  0  0  0  0  0  0  0  0  0  0
    0.1734   19.7128   -1.6883 F   0  0  0  0  0  0  0  0  0  0  0  0
   -3.2346   20.1102   -3.0128 C   0  0  0  0  0  0  0  0  0  0  0  0
   -1.8767   19.7368   -2.9259 C   0  0  0  0  0  0  0  0  0  0  0  0
   -3.8561   22.0405    0.5479 S   0  0  0  0  0  0  0  0  0  0  0  0
   -5.3364   22.3785    0.3088 O   0  0  0  0  0  0  0  0  0  0  0  0
   -3.8182   21.2801    2.1385 N   0  0  0  0  0  0  0  0  0  0  0  0
   -3.2418   23.4317    0.7620 O   0  0  0  0  0  0  0  0  0  0  0  0
   -4.2143   20.3422    2.0765 H   0  0  0  0  0  0  0  0  0  0  0  0
   -4.3650   21.8374    2.7949 H   0  0  0  0  0  0  0  0  0  0  0  0
   -1.0745   18.8373   -4.2660 S   0  0  0  0  0  0  0  0  0  0  0  0
   -1.4234   19.5815   -5.5640 O   0  0  0  0  0  0  0  0  0  0  0  0
   -1.8678   17.5475   -4.5253 O   0  0  0  0  0  0  0  0  0  0  0  0
    0.6975   18.4406   -4.3884 C   0  0  0  0  0  0  0  0  0  0  0  0
    0.9101   16.9520   -4.1910 C   0  0  0  0  0  0  0  0  0  0  0  0
    1.9469   16.7471   -3.2839 O   0  0  0  0  0  0  0  0  0  0  0  0
    2.7611   17.1469   -3.6276 H   0  0  0  0  0  0  0  0  0  0  0  0
   -3.9749   19.7654   -4.1820 N   0  0  0  0  0  0  0  0  0  0  0  0
   -3.5183   19.8187   -5.0526 H   0  0  0  0  0  0  0  0  0  0  0  0
   -5.3560   19.3425   -4.1627 C   0  0  0  0  0  0  0  0  0  0  0  0
   -6.2257   20.2974   -4.9043 C   0  0  0  0  0  0  0  0  0  0  0  0
   -7.6007   20.3222   -4.6450 C   0  0  0  0  0  0  0  0  0  0  0  0
   -8.4288   21.2129   -5.3344 C   0  0  0  0  0  0  0  0  0  0  0  0
   -7.8852   22.0813   -6.2843 C   0  0  0  0  0  0  0  0  0  0  0  0
   -6.5105   22.0586   -6.5460 C   0  0  0  0  0  0  0  0  0  0  0  0
   -5.6808   21.1671   -5.8563 C   0  0  0  0  0  0  0  0  0  0  0  0
 11 10  2  0  0  0
 10 12  1  0  0  0
 10  3  1  0  0  0
 10 13  2  0  0  0
 31 30  2  0  0  0
 31 26  1  0  0  0
  1  2  1  0  0  0
 30 29  1  0  0  0
 25 26  1  0  0  0
 25 23  1  0  0  0
  3  2  2  0  0  0
  3  4  1  0  0  0
  2  8  1  0  0  0
 26 27  2  0  0  0
  4  5  1  0  0  0
  4  6  2  0  0  0
  8 23  1  0  0  0
  8  9  2  0  0  0
 18 16  2  0  0  0
 29 28  2  0  0  0
  6  9  1  0  0  0
  6  7  1  0  0  0
  9 16  1  0  0  0
 17 16  2  0  0  0
 27 28  1  0  0  0
 16 19  1  0  0  0
 19 20  1  0  0  0
 21 20  1  0  0  0
 12 14  1  0  0  0
 12 15  1  0  0  0
 21 22  1  0  0  0
 23 24  1  0  0  0
M  END
> <minimizedAffinity>
-7.91743

$$$$
4QJW_WWO_A_302


 31 32  0  0  0  0  0  0  0  0999 V2000
   -7.4288   20.4653   -4.6826 F   0  0  0  0  0  0  0  0  0  0  0  0
   -6.3450   21.2133   -4.3540 C   0  0  0  0  0  0  0  0  0  0  0  0
   -6.5329   22.5612   -4.0217 C   0  0  0  0  0  0  0  0  0  0  0  0
   -5.4301   23.3548   -3.6786 C   0  0  0  0  0  0  0  0  0  0  0  0
   -5.5932   24.6603   -3.3533 F   0  0  0  0  0  0  0  0  0  0  0  0
   -4.1454   22.8062   -3.6673 C   0  0  0  0  0  0  0  0  0  0  0  0
   -3.0915   23.5922   -3.3324 F   0  0  0  0  0  0  0  0  0  0  0  0
   -5.0482   20.6478   -4.3468 C   0  0  0  0  0  0  0  0  0  0  0  0
   -3.9453   21.4566   -4.0000 C   0  0  0  0  0  0  0  0  0  0  0  0
   -8.1946   23.2549   -4.0396 S   0  0  0  0  0  0  0  0  0  0  0  0
   -8.2639   24.7143   -4.5171 O   0  0  0  0  0  0  0  0  0  0  0  0
   -9.4024   22.4067   -5.0047 N   0  0  0  0  0  0  0  0  0  0  0  0
   -8.8087   23.3493   -2.6351 O   0  0  0  0  0  0  0  0  0  0  0  0
   -9.0629   22.3046   -5.9611 H   0  0  0  0  0  0  0  0  0  0  0  0
  -10.2715   22.9407   -5.0076 H   0  0  0  0  0  0  0  0  0  0  0  0
   -2.2732   20.7843   -3.9760 S   0  0  0  0  0  0  0  0  0  0  0  0
   -1.3457   21.8975   -4.4866 O   0  0  0  0  0  0  0  0  0  0  0  0
   -2.1269   19.8103   -5.1551 O   0  0  0  0  0  0  0  0  0  0  0  0
   -1.4241   20.0580   -2.5393 C   0  0  0  0  0  0  0  0  0  0  0  0
   -0.2989   19.1541   -3.0049 C   0  0  0  0  0  0  0  0  0  0  0  0
    0.4912   19.8338   -3.9287 O   0  0  0  0  0  0  0  0  0  0  0  0
   -0.0515   20.0924   -4.6900 H   0  0  0  0  0  0  0  0  0  0  0  0
   -4.8264   19.2793   -4.6809 N   0  0  0  0  0  0  0  0  0  0  0  0
   -4.3490   18.7147   -4.0309 H   0  0  0  0  0  0  0  0  0  0  0  0
   -5.2618   18.6735   -5.9180 C   0  0  0  0  0  0  0  0  0  0  0  0
   -4.9987   17.2076   -5.9257 C   0  0  0  0  0  0  0  0  0  0  0  0
   -5.6439   16.3961   -6.8656 C   0  0  0  0  0  0  0  0  0  0  0  0
   -5.4068   15.0184   -6.8837 C   0  0  0  0  0  0  0  0  0  0  0  0
   -4.5241   14.4483   -5.9630 C   0  0  0  0  0  0  0  0  0  0  0  0
   -3.8776   15.2572   -5.0215 C   0  0  0  0  0  0  0  0  0  0  0  0
   -4.1145   16.6365   -5.0028 C   0  0  0  0  0  0  0  0  0  0  0  0
 11 10  2  0  0  0
 10 12  1  0  0  0
 10  3  1  0  0  0
 10 13  2  0  0  0
 31 30  2  0  0  0
 31 26  1  0  0  0
  1  2  1  0  0  0
 30 29  1  0  0  0
 25 26  1  0  0  0
 25 23  1  0  0  0
  3  2  2  0  0  0
  3  4  1  0  0  0
  2  8  1  0  0  0
 26 27  2  0  0  0
  4  5  1  0  0  0
  4  6  2  0  0  0
  8 23  1  0  0  0
  8  9  2  0  0  0
 18 16  2  0  0  0
 29 28  2  0  0  0
  6  9  1  0  0  0
  6  7  1  0  0  0
  9 16  1  0  0  0
 17 16  2  0  0  0
 27 28  1  0  0  0
 16 19  1  0  0  0
 19 20  1  0  0  0
 21 20  1  0  0  0
 12 14  1  0  0  0
 12 15  1  0  0  0
 21 22  1  0  0  0
 23 24  1  0  0  0
M  END
> <minimizedAffinity>
-7.87083

$$$$
4QJW_WWO_A_302


 31 32  0  0  0  0  0  0  0  0999 V2000
   -5.0969   20.8809   -2.4292 F   0  0  0  0  0  0  0  0  0  0  0  0
   -3.7724   20.6388   -2.2592 C   0  0  0  0  0  0  0  0  0  0  0  0
   -3.1497   21.0927   -1.0893 C   0  0  0  0  0  0  0  0  0  0  0  0
   -1.7831   20.8554   -0.8898 C   0  0  0  0  0  0  0  0  0  0  0  0
   -1.1644   21.2864    0.2363 F   0  0  0  0  0  0  0  0  0  0  0  0
   -1.0409   20.1682   -1.8533 C   0  0  0  0  0  0  0  0  0  0  0  0
    0.2810   19.9492   -1.6405 F   0  0  0  0  0  0  0  0  0  0  0  0
   -3.0299   19.9428   -3.2420 C   0  0  0  0  0  0  0  0  0  0  0  0
   -1.6545   19.7098   -3.0304 C   0  0  0  0  0  0  0  0  0  0  0  0
   -4.1189   21.9764    0.1447 S   0  0  0  0  0  0  0  0  0  0  0  0
   -5.6285   22.0085   -0.1433 O   0  0  0  0  0  0  0  0  0  0  0  0
   -3.9896   21.4156    1.8116 N   0  0  0  0  0  0  0  0  0  0  0  0
   -3.7738   23.4717    0.2046 O   0  0  0  0  0  0  0  0  0  0  0  0
   -4.2069   20.4199    1.8531 H   0  0  0  0  0  0  0  0  0  0  0  0
   -4.6471   21.9318    2.3960 H   0  0  0  0  0  0  0  0  0  0  0  0
   -0.6644   18.8284   -4.2517 S   0  0  0  0  0  0  0  0  0  0  0  0
   -0.7410   19.6456   -5.5504 O   0  0  0  0  0  0  0  0  0  0  0  0
   -1.4540   17.5946   -4.7147 O   0  0  0  0  0  0  0  0  0  0  0  0
    1.0815   18.3450   -4.0778 C   0  0  0  0  0  0  0  0  0  0  0  0
    1.2023   16.8332   -4.0701 C   0  0  0  0  0  0  0  0  0  0  0  0
    2.2623   16.4560   -3.2493 O   0  0  0  0  0  0  0  0  0  0  0  0
    3.0854   16.8441   -3.5852 H   0  0  0  0  0  0  0  0  0  0  0  0
   -3.6366   19.4692   -4.4426 N   0  0  0  0  0  0  0  0  0  0  0  0
   -3.1181   19.5255   -5.2776 H   0  0  0  0  0  0  0  0  0  0  0  0
   -4.9678   18.9118   -4.5043 C   0  0  0  0  0  0  0  0  0  0  0  0
   -4.9556   17.5428   -5.0907 C   0  0  0  0  0  0  0  0  0  0  0  0
   -5.4808   17.3364   -6.3713 C   0  0  0  0  0  0  0  0  0  0  0  0
   -5.4764   16.0564   -6.9336 C   0  0  0  0  0  0  0  0  0  0  0  0
   -4.9469   14.9797   -6.2180 C   0  0  0  0  0  0  0  0  0  0  0  0
   -4.4211   15.1829   -4.9370 C   0  0  0  0  0  0  0  0  0  0  0  0
   -4.4252   16.4641   -4.3734 C   0  0  0  0  0  0  0  0  0  0  0  0
 11 10  2  0  0  0
 10 12  1  0  0  0
 10  3  1  0  0  0
 10 13  2  0  0  0
 31 30  2  0  0  0
 31 26  1  0  0  0
  1  2  1  0  0  0
 30 29  1  0  0  0
 25 26  1  0  0  0
 25 23  1  0  0  0
  3  2  2  0  0  0
  3  4  1  0  0  0
  2  8  1  0  0  0
 26 27  2  0  0  0
  4  5  1  0  0  0
  4  6  2  0  0  0
  8 23  1  0  0  0
  8  9  2  0  0  0
 18 16  2  0  0  0
 29 28  2  0  0  0
  6  9  1  0  0  0
  6  7  1  0  0  0
  9 16  1  0  0  0
 17 16  2  0  0  0
 27 28  1  0  0  0
 16 19  1  0  0  0
 19 20  1  0  0  0
 21 20  1  0  0  0
 12 14  1  0  0  0
 12 15  1  0  0  0
 21 22  1  0  0  0
 23 24  1  0  0  0
M  END
> <minimizedAffinity>
-7.80597

$$$$
4QJW_WWO_A_302


 31 32  0  0  0  0  0  0  0  0999 V2000
   -5.1595   21.7596   -2.1399 F   0  0  0  0  0  0  0  0  0  0  0  0
   -5.5769   20.9721   -3.1634 C   0  0  0  0  0  0  0  0  0  0  0  0
   -6.6535   21.4036   -3.9491 C   0  0  0  0  0  0  0  0  0  0  0  0
   -7.1034   20.6088   -5.0120 C   0  0  0  0  0  0  0  0  0  0  0  0
   -8.1429   21.0108   -5.7831 F   0  0  0  0  0  0  0  0  0  0  0  0
   -6.4822   19.3889   -5.2897 C   0  0  0  0  0  0  0  0  0  0  0  0
   -6.9337   18.6348   -6.3232 F   0  0  0  0  0  0  0  0  0  0  0  0
   -4.9412   19.7378   -3.4352 C   0  0  0  0  0  0  0  0  0  0  0  0
   -5.4030   18.9459   -4.5078 C   0  0  0  0  0  0  0  0  0  0  0  0
   -7.4443   22.9788   -3.5802 S   0  0  0  0  0  0  0  0  0  0  0  0
   -6.5387   24.2034   -3.7881 O   0  0  0  0  0  0  0  0  0  0  0  0
   -8.9224   23.3555   -4.4651 N   0  0  0  0  0  0  0  0  0  0  0  0
   -7.8273   23.1131   -2.0991 O   0  0  0  0  0  0  0  0  0  0  0  0
   -8.7456   23.2867   -5.4673 H   0  0  0  0  0  0  0  0  0  0  0  0
   -9.2230   24.3032   -4.2372 H   0  0  0  0  0  0  0  0  0  0  0  0
   -4.6275   17.3656   -4.8951 S   0  0  0  0  0  0  0  0  0  0  0  0
   -4.8456   16.4594   -3.6738 O   0  0  0  0  0  0  0  0  0  0  0  0
   -3.1047   17.5339   -4.7821 O   0  0  0  0  0  0  0  0  0  0  0  0
   -4.9710   16.3238   -6.3473 C   0  0  0  0  0  0  0  0  0  0  0  0
   -4.6866   14.8703   -6.0212 C   0  0  0  0  0  0  0  0  0  0  0  0
   -3.4315   14.7644   -5.4269 O   0  0  0  0  0  0  0  0  0  0  0  0
   -2.7553   15.0967   -6.0379 H   0  0  0  0  0  0  0  0  0  0  0  0
   -3.8435   19.2727   -2.6525 N   0  0  0  0  0  0  0  0  0  0  0  0
   -3.8511   18.3345   -2.3543 H   0  0  0  0  0  0  0  0  0  0  0  0
   -2.7211   20.0987   -2.2720 C   0  0  0  0  0  0  0  0  0  0  0  0
   -1.5180   19.7904   -3.0940 C   0  0  0  0  0  0  0  0  0  0  0  0
   -1.3913   20.3528   -4.3692 C   0  0  0  0  0  0  0  0  0  0  0  0
   -0.2675   20.0713   -5.1518 C   0  0  0  0  0  0  0  0  0  0  0  0
    0.7325   19.2276   -4.6620 C   0  0  0  0  0  0  0  0  0  0  0  0
    0.6086   18.6634   -3.3873 C   0  0  0  0  0  0  0  0  0  0  0  0
   -0.5162   18.9447   -2.6032 C   0  0  0  0  0  0  0  0  0  0  0  0
 11 10  2  0  0  0
 10 12  1  0  0  0
 10  3  1  0  0  0
 10 13  2  0  0  0
 31 30  2  0  0  0
 31 26  1  0  0  0
  1  2  1  0  0  0
 30 29  1  0  0  0
 25 26  1  0  0  0
 25 23  1  0  0  0
  3  2  2  0  0  0
  3  4  1  0  0  0
  2  8  1  0  0  0
 26 27  2  0  0  0
  4  5  1  0  0  0
  4  6  2  0  0  0
  8 23  1  0  0  0
  8  9  2  0  0  0
 18 16  2  0  0  0
 29 28  2  0  0  0
  6  9  1  0  0  0
  6  7  1  0  0  0
  9 16  1  0  0  0
 17 16  2  0  0  0
 27 28  1  0  0  0
 16 19  1  0  0  0
 19 20  1  0  0  0
 21 20  1  0  0  0
 12 14  1  0  0  0
 12 15  1  0  0  0
 21 22  1  0  0  0
 23 24  1  0  0  0
M  END
> <minimizedAffinity>
-7.79380

$$$$
4QJW_WWO_A_302


 31 32  0  0  0  0  0  0  0  0999 V2000
   -6.4276   17.8426   -6.3504 F   0  0  0  0  0  0  0  0  0  0  0  0
   -5.2445   17.9664   -5.6969 C   0  0  0  0  0  0  0  0  0  0  0  0
   -4.3995   16.8519   -5.6174 C   0  0  0  0  0  0  0  0  0  0  0  0
   -3.1723   16.9539   -4.9483 C   0  0  0  0  0  0  0  0  0  0  0  0
   -2.3418   15.8863   -4.8623 F   0  0  0  0  0  0  0  0  0  0  0  0
   -2.7900   18.1623   -4.3610 C   0  0  0  0  0  0  0  0  0  0  0  0
   -1.5980   18.2393   -3.7179 F   0  0  0  0  0  0  0  0  0  0  0  0
   -4.8676   19.1948   -5.1048 C   0  0  0  0  0  0  0  0  0  0  0  0
   -3.6299   19.2855   -4.4336 C   0  0  0  0  0  0  0  0  0  0  0  0
   -4.9047   15.3007   -6.3797 S   0  0  0  0  0  0  0  0  0  0  0  0
   -4.0082   14.1029   -6.0269 O   0  0  0  0  0  0  0  0  0  0  0  0
   -6.5465   14.7478   -6.0502 N   0  0  0  0  0  0  0  0  0  0  0  0
   -4.8013   15.3360   -7.9116 O   0  0  0  0  0  0  0  0  0  0  0  0
   -6.6926   14.6982   -5.0420 H   0  0  0  0  0  0  0  0  0  0  0  0
   -6.6825   13.8234   -6.4594 H   0  0  0  0  0  0  0  0  0  0  0  0
   -3.1038   20.8274   -3.6625 S   0  0  0  0  0  0  0  0  0  0  0  0
   -4.3288   21.3889   -2.9247 O   0  0  0  0  0  0  0  0  0  0  0  0
   -2.9880   21.8999   -4.7563 O   0  0  0  0  0  0  0  0  0  0  0  0
   -1.7032   21.0377   -2.5195 C   0  0  0  0  0  0  0  0  0  0  0  0
   -2.1539   20.7796   -1.0946 C   0  0  0  0  0  0  0  0  0  0  0  0
   -2.8268   19.5618   -1.0335 O   0  0  0  0  0  0  0  0  0  0  0  0
   -3.6011   19.5906   -1.6171 H   0  0  0  0  0  0  0  0  0  0  0  0
   -5.7072   20.3457   -5.1694 N   0  0  0  0  0  0  0  0  0  0  0  0
   -6.2254   20.5874   -4.3679 H   0  0  0  0  0  0  0  0  0  0  0  0
   -5.8413   21.1775   -6.3428 C   0  0  0  0  0  0  0  0  0  0  0  0
   -6.3601   22.5289   -5.9929 C   0  0  0  0  0  0  0  0  0  0  0  0
   -7.3868   22.6506   -5.0497 C   0  0  0  0  0  0  0  0  0  0  0  0
   -7.8838   23.9131   -4.7123 C   0  0  0  0  0  0  0  0  0  0  0  0
   -7.3560   25.0570   -5.3162 C   0  0  0  0  0  0  0  0  0  0  0  0
   -6.3294   24.9385   -6.2600 C   0  0  0  0  0  0  0  0  0  0  0  0
   -5.8314   23.6750   -6.5983 C   0  0  0  0  0  0  0  0  0  0  0  0
 11 10  2  0  0  0
 10 12  1  0  0  0
 10  3  1  0  0  0
 10 13  2  0  0  0
 31 30  2  0  0  0
 31 26  1  0  0  0
  1  2  1  0  0  0
 30 29  1  0  0  0
 25 26  1  0  0  0
 25 23  1  0  0  0
  3  2  2  0  0  0
  3  4  1  0  0  0
  2  8  1  0  0  0
 26 27  2  0  0  0
  4  5  1  0  0  0
  4  6  2  0  0  0
  8 23  1  0  0  0
  8  9  2  0  0  0
 18 16  2  0  0  0
 29 28  2  0  0  0
  6  9  1  0  0  0
  6  7  1  0  0  0
  9 16  1  0  0  0
 17 16  2  0  0  0
 27 28  1  0  0  0
 16 19  1  0  0  0
 19 20  1  0  0  0
 21 20  1  0  0  0
 12 14  1  0  0  0
 12 15  1  0  0  0
 21 22  1  0  0  0
 23 24  1  0  0  0
M  END
> <minimizedAffinity>
-7.71517

$$$$
4QJW_WWO_A_302


 31 32  0  0  0  0  0  0  0  0999 V2000
   -7.1307   20.5538   -4.0311 F   0  0  0  0  0  0  0  0  0  0  0  0
   -6.0543   20.7341   -3.2243 C   0  0  0  0  0  0  0  0  0  0  0  0
   -6.2381   21.3654   -1.9874 C   0  0  0  0  0  0  0  0  0  0  0  0
   -5.1427   21.5634   -1.1362 C   0  0  0  0  0  0  0  0  0  0  0  0
   -5.3020   22.1714    0.0645 F   0  0  0  0  0  0  0  0  0  0  0  0
   -3.8694   21.1335   -1.5173 C   0  0  0  0  0  0  0  0  0  0  0  0
   -2.8224   21.3352   -0.6783 F   0  0  0  0  0  0  0  0  0  0  0  0
   -4.7689   20.2958   -3.6208 C   0  0  0  0  0  0  0  0  0  0  0  0
   -3.6733   20.5006   -2.7556 C   0  0  0  0  0  0  0  0  0  0  0  0
   -7.8852   21.9137   -1.5086 S   0  0  0  0  0  0  0  0  0  0  0  0
   -8.6682   22.6140   -2.6308 O   0  0  0  0  0  0  0  0  0  0  0  0
   -8.9867   20.6833   -0.8900 N   0  0  0  0  0  0  0  0  0  0  0  0
   -7.8523   22.9959   -0.4194 O   0  0  0  0  0  0  0  0  0  0  0  0
   -9.0611   19.9229   -1.5658 H   0  0  0  0  0  0  0  0  0  0  0  0
   -9.9074   21.0958   -0.7396 H   0  0  0  0  0  0  0  0  0  0  0  0
   -2.0158   19.9611   -3.2140 S   0  0  0  0  0  0  0  0  0  0  0  0
   -1.6993   20.6180   -4.5663 O   0  0  0  0  0  0  0  0  0  0  0  0
   -2.0959   18.5012   -3.6857 O   0  0  0  0  0  0  0  0  0  0  0  0
   -0.5070   20.1458   -2.2132 C   0  0  0  0  0  0  0  0  0  0  0  0
    0.5938   19.2619   -2.7673 C   0  0  0  0  0  0  0  0  0  0  0  0
    0.8479   19.6112   -4.0914 O   0  0  0  0  0  0  0  0  0  0  0  0
    0.0419   19.4918   -4.6177 H   0  0  0  0  0  0  0  0  0  0  0  0
   -4.5514   19.6505   -4.8739 N   0  0  0  0  0  0  0  0  0  0  0  0
   -3.6480   19.6867   -5.2636 H   0  0  0  0  0  0  0  0  0  0  0  0
   -5.5800   18.9469   -5.6044 C   0  0  0  0  0  0  0  0  0  0  0  0
   -5.2510   17.5014   -5.7471 C   0  0  0  0  0  0  0  0  0  0  0  0
   -4.5217   16.8574   -4.7412 C   0  0  0  0  0  0  0  0  0  0  0  0
   -4.2053   15.5011   -4.8626 C   0  0  0  0  0  0  0  0  0  0  0  0
   -4.6171   14.7847   -5.9891 C   0  0  0  0  0  0  0  0  0  0  0  0
   -5.3463   15.4260   -6.9970 C   0  0  0  0  0  0  0  0  0  0  0  0
   -5.6634   16.7839   -6.8761 C   0  0  0  0  0  0  0  0  0  0  0  0
 11 10  2  0  0  0
 10 12  1  0  0  0
 10  3  1  0  0  0
 10 13  2  0  0  0
 31 30  2  0  0  0
 31 26  1  0  0  0
  1  2  1  0  0  0
 30 29  1  0  0  0
 25 26  1  0  0  0
 25 23  1  0  0  0
  3  2  2  0  0  0
  3  4  1  0  0  0
  2  8  1  0  0  0
 26 27  2  0  0  0
  4  5  1  0  0  0
  4  6  2  0  0  0
  8 23  1  0  0  0
  8  9  2  0  0  0
 18 16  2  0  0  0
 29 28  2  0  0  0
  6  9  1  0  0  0
  6  7  1  0  0  0
  9 16  1  0  0  0
 17 16  2  0  0  0
 27 28  1  0  0  0
 16 19  1  0  0  0
 19 20  1  0  0  0
 21 20  1  0  0  0
 12 14  1  0  0  0
 12 15  1  0  0  0
 21 22  1  0  0  0
 23 24  1  0  0  0
M  END
> <minimizedAffinity>
-7.65010

$$$$
4QJW_WWO_A_302


 31 32  0  0  0  0  0  0  0  0999 V2000
   -3.3384   20.3767   -4.4850 F   0  0  0  0  0  0  0  0  0  0  0  0
   -2.7107   20.6184   -3.3062 C   0  0  0  0  0  0  0  0  0  0  0  0
   -1.4061   20.1403   -3.1277 C   0  0  0  0  0  0  0  0  0  0  0  0
   -0.7362   20.3768   -1.9197 C   0  0  0  0  0  0  0  0  0  0  0  0
    0.5265   19.9226   -1.7299 F   0  0  0  0  0  0  0  0  0  0  0  0
   -1.3651   21.0869   -0.8943 C   0  0  0  0  0  0  0  0  0  0  0  0
   -0.6987   21.3045    0.2673 F   0  0  0  0  0  0  0  0  0  0  0  0
   -3.3575   21.3378   -2.2738 C   0  0  0  0  0  0  0  0  0  0  0  0
   -2.6732   21.5696   -1.0618 C   0  0  0  0  0  0  0  0  0  0  0  0
   -0.6072   19.2272   -4.4584 S   0  0  0  0  0  0  0  0  0  0  0  0
   -1.2805   17.8875   -4.7971 O   0  0  0  0  0  0  0  0  0  0  0  0
   -0.4443   20.0544   -6.0073 N   0  0  0  0  0  0  0  0  0  0  0  0
    0.8183   18.7852   -4.0965 O   0  0  0  0  0  0  0  0  0  0  0  0
   -1.3600   20.3806   -6.3165 H   0  0  0  0  0  0  0  0  0  0  0  0
   -0.0619   19.4093   -6.6987 H   0  0  0  0  0  0  0  0  0  0  0  0
   -3.4530   22.4803    0.2840 S   0  0  0  0  0  0  0  0  0  0  0  0
   -4.7732   21.7585    0.5945 O   0  0  0  0  0  0  0  0  0  0  0  0
   -4.0363   23.7816   -0.2872 O   0  0  0  0  0  0  0  0  0  0  0  0
   -2.7091   22.8606    1.9009 C   0  0  0  0  0  0  0  0  0  0  0  0
   -3.1632   21.8453    2.9319 C   0  0  0  0  0  0  0  0  0  0  0  0
   -2.8301   20.5638    2.5000 O   0  0  0  0  0  0  0  0  0  0  0  0
   -3.2689   20.3835    1.6540 H   0  0  0  0  0  0  0  0  0  0  0  0
   -4.6849   21.8362   -2.4268 N   0  0  0  0  0  0  0  0  0  0  0  0
   -4.8230   22.8098   -2.3797 H   0  0  0  0  0  0  0  0  0  0  0  0
   -5.8385   20.9950   -2.6467 C   0  0  0  0  0  0  0  0  0  0  0  0
   -6.5346   21.3503   -3.9145 C   0  0  0  0  0  0  0  0  0  0  0  0
   -6.0438   22.3991   -4.7003 C   0  0  0  0  0  0  0  0  0  0  0  0
   -6.6878   22.7438   -5.8923 C   0  0  0  0  0  0  0  0  0  0  0  0
   -7.8236   22.0412   -6.3023 C   0  0  0  0  0  0  0  0  0  0  0  0
   -8.3171   20.9920   -5.5184 C   0  0  0  0  0  0  0  0  0  0  0  0
   -7.6729   20.6464   -4.3249 C   0  0  0  0  0  0  0  0  0  0  0  0
 11 10  2  0  0  0
 10 12  1  0  0  0
 10  3  1  0  0  0
 10 13  2  0  0  0
 31 30  2  0  0  0
 31 26  1  0  0  0
  1  2  1  0  0  0
 30 29  1  0  0  0
 25 26  1  0  0  0
 25 23  1  0  0  0
  3  2  2  0  0  0
  3  4  1  0  0  0
  2  8  1  0  0  0
 26 27  2  0  0  0
  4  5  1  0  0  0
  4  6  2  0  0  0
  8 23  1  0  0  0
  8  9  2  0  0  0
 18 16  2  0  0  0
 29 28  2  0  0  0
  6  9  1  0  0  0
  6  7  1  0  0  0
  9 16  1  0  0  0
 17 16  2  0  0  0
 27 28  1  0  0  0
 16 19  1  0  0  0
 19 20  1  0  0  0
 21 20  1  0  0  0
 12 14  1  0  0  0
 12 15  1  0  0  0
 21 22  1  0  0  0
 23 24  1  0  0  0
M  END
> <minimizedAffinity>
-7.44498

$$$$
4QJW_WWO_A_302


 31 32  0  0  0  0  0  0  0  0999 V2000
   -2.0165   18.5357   -5.0400 F   0  0  0  0  0  0  0  0  0  0  0  0
   -2.5182   19.7069   -4.5725 C   0  0  0  0  0  0  0  0  0  0  0  0
   -1.7729   20.4316   -3.6335 C   0  0  0  0  0  0  0  0  0  0  0  0
   -2.2690   21.6438   -3.1354 C   0  0  0  0  0  0  0  0  0  0  0  0
   -1.5611   22.3588   -2.2273 F   0  0  0  0  0  0  0  0  0  0  0  0
   -3.5033   22.1309   -3.5720 C   0  0  0  0  0  0  0  0  0  0  0  0
   -3.9652   23.3065   -3.0767 F   0  0  0  0  0  0  0  0  0  0  0  0
   -3.7700   20.1903   -5.0206 C   0  0  0  0  0  0  0  0  0  0  0  0
   -4.2595   21.4120   -4.5119 C   0  0  0  0  0  0  0  0  0  0  0  0
   -0.1829   19.7923   -3.0803 S   0  0  0  0  0  0  0  0  0  0  0  0
   -0.2550   18.4047   -2.4228 O   0  0  0  0  0  0  0  0  0  0  0  0
    1.0861   19.6497   -4.2965 N   0  0  0  0  0  0  0  0  0  0  0  0
    0.4373   20.6431   -1.9623 O   0  0  0  0  0  0  0  0  0  0  0  0
    0.7455   19.0917   -5.0794 H   0  0  0  0  0  0  0  0  0  0  0  0
    1.9019   19.1962   -3.8852 H   0  0  0  0  0  0  0  0  0  0  0  0
   -5.8484   22.0709   -5.0504 S   0  0  0  0  0  0  0  0  0  0  0  0
   -5.9255   21.8438   -6.5679 O   0  0  0  0  0  0  0  0  0  0  0  0
   -5.7588   23.6045   -5.0561 O   0  0  0  0  0  0  0  0  0  0  0  0
   -7.4837   21.6064   -4.4006 C   0  0  0  0  0  0  0  0  0  0  0  0
   -8.3147   20.9681   -5.4970 C   0  0  0  0  0  0  0  0  0  0  0  0
   -8.7890   21.9567   -6.3557 O   0  0  0  0  0  0  0  0  0  0  0  0
   -9.3377   22.5822   -5.8571 H   0  0  0  0  0  0  0  0  0  0  0  0
   -4.5509   19.4743   -5.9752 N   0  0  0  0  0  0  0  0  0  0  0  0
   -4.3473   19.6013   -6.9300 H   0  0  0  0  0  0  0  0  0  0  0  0
   -5.6236   18.5734   -5.6222 C   0  0  0  0  0  0  0  0  0  0  0  0
   -5.2197   17.1516   -5.8054 C   0  0  0  0  0  0  0  0  0  0  0  0
   -4.4507   16.5207   -4.8211 C   0  0  0  0  0  0  0  0  0  0  0  0
   -4.0640   15.1867   -4.9806 C   0  0  0  0  0  0  0  0  0  0  0  0
   -4.4450   14.4797   -6.1237 C   0  0  0  0  0  0  0  0  0  0  0  0
   -5.2139   15.1080   -7.1101 C   0  0  0  0  0  0  0  0  0  0  0  0
   -5.6013   16.4435   -6.9511 C   0  0  0  0  0  0  0  0  0  0  0  0
 11 10  2  0  0  0
 10 12  1  0  0  0
 10  3  1  0  0  0
 10 13  2  0  0  0
 31 30  2  0  0  0
 31 26  1  0  0  0
  1  2  1  0  0  0
 30 29  1  0  0  0
 25 26  1  0  0  0
 25 23  1  0  0  0
  3  2  2  0  0  0
  3  4  1  0  0  0
  2  8  1  0  0  0
 26 27  2  0  0  0
  4  5  1  0  0  0
  4  6  2  0  0  0
  8 23  1  0  0  0
  8  9  2  0  0  0
 18 16  2  0  0  0
 29 28  2  0  0  0
  6  9  1  0  0  0
  6  7  1  0  0  0
  9 16  1  0  0  0
 17 16  2  0  0  0
 27 28  1  0  0  0
 16 19  1  0  0  0
 19 20  1  0  0  0
 21 20  1  0  0  0
 12 14  1  0  0  0
 12 15  1  0  0  0
 21 22  1  0  0  0
 23 24  1  0  0  0
M  END
> <minimizedAffinity>
-7.44042

$$$$
4QJW_WWO_A_302


 31 32  0  0  0  0  0  0  0  0999 V2000
   -5.6197   18.1463   -5.6706 F   0  0  0  0  0  0  0  0  0  0  0  0
   -4.3282   18.1502   -5.2533 C   0  0  0  0  0  0  0  0  0  0  0  0
   -3.6143   16.9450   -5.2618 C   0  0  0  0  0  0  0  0  0  0  0  0
   -2.2794   16.9225   -4.8358 C   0  0  0  0  0  0  0  0  0  0  0  0
   -1.5731   15.7658   -4.8383 F   0  0  0  0  0  0  0  0  0  0  0  0
   -1.6596   18.0972   -4.4031 C   0  0  0  0  0  0  0  0  0  0  0  0
   -0.3666   18.0532   -3.9946 F   0  0  0  0  0  0  0  0  0  0  0  0
   -3.7106   19.3455   -4.8160 C   0  0  0  0  0  0  0  0  0  0  0  0
   -2.3662   19.3107   -4.3892 C   0  0  0  0  0  0  0  0  0  0  0  0
   -4.4256   15.4384   -5.8230 S   0  0  0  0  0  0  0  0  0  0  0  0
   -5.6009   14.9885   -4.9404 O   0  0  0  0  0  0  0  0  0  0  0  0
   -5.0704   15.4440   -7.4644 N   0  0  0  0  0  0  0  0  0  0  0  0
   -3.4990   14.2149   -5.7683 O   0  0  0  0  0  0  0  0  0  0  0  0
   -5.7018   16.2368   -7.5789 H   0  0  0  0  0  0  0  0  0  0  0  0
   -5.5800   14.5765   -7.6324 H   0  0  0  0  0  0  0  0  0  0  0  0
   -1.5339   20.8057   -3.8226 S   0  0  0  0  0  0  0  0  0  0  0  0
   -0.7360   21.3438   -5.0202 O   0  0  0  0  0  0  0  0  0  0  0  0
   -0.3525   20.3930   -2.9315 O   0  0  0  0  0  0  0  0  0  0  0  0
   -2.3260   22.2596   -3.0670 C   0  0  0  0  0  0  0  0  0  0  0  0
   -2.1760   23.4632   -3.9775 C   0  0  0  0  0  0  0  0  0  0  0  0
   -0.8806   23.9645   -3.8754 O   0  0  0  0  0  0  0  0  0  0  0  0
   -0.7078   24.2295   -2.9584 H   0  0  0  0  0  0  0  0  0  0  0  0
   -4.4124   20.5869   -4.7959 N   0  0  0  0  0  0  0  0  0  0  0  0
   -4.3817   21.1238   -3.9713 H   0  0  0  0  0  0  0  0  0  0  0  0
   -5.1656   21.1021   -5.9158 C   0  0  0  0  0  0  0  0  0  0  0  0
   -6.5974   21.3041   -5.5589 C   0  0  0  0  0  0  0  0  0  0  0  0
   -7.4094   22.0907   -6.3838 C   0  0  0  0  0  0  0  0  0  0  0  0
   -8.7550   22.2892   -6.0604 C   0  0  0  0  0  0  0  0  0  0  0  0
   -9.2926   21.7021   -4.9123 C   0  0  0  0  0  0  0  0  0  0  0  0
   -8.4830   20.9152   -4.0852 C   0  0  0  0  0  0  0  0  0  0  0  0
   -7.1358   20.7160   -4.4083 C   0  0  0  0  0  0  0  0  0  0  0  0
 11 10  2  0  0  0
 10 12  1  0  0  0
 10  3  1  0  0  0
 10 13  2  0  0  0
 31 30  2  0  0  0
 31 26  1  0  0  0
  1  2  1  0  0  0
 30 29  1  0  0  0
 25 26  1  0  0  0
 25 23  1  0  0  0
  3  2  2  0  0  0
  3  4  1  0  0  0
  2  8  1  0  0  0
 26 27  2  0  0  0
  4  5  1  0  0  0
  4  6  2  0  0  0
  8 23  1  0  0  0
  8  9  2  0  0  0
 18 16  2  0  0  0
 29 28  2  0  0  0
  6  9  1  0  0  0
  6  7  1  0  0  0
  9 16  1  0  0  0
 17 16  2  0  0  0
 27 28  1  0  0  0
 16 19  1  0  0  0
 19 20  1  0  0  0
 21 20  1  0  0  0
 12 14  1  0  0  0
 12 15  1  0  0  0
 21 22  1  0  0  0
 23 24  1  0  0  0
M  END
> <minimizedAffinity>
-7.41666

$$$$
