3V51_I76_A_701


 34 38  0  0  0  0  0  0  0  0999 V2000
   13.1743   15.2014   63.7387 C   0  0  0  0  0  0  0  0  0  0  0  0
   12.6097   14.7048   64.9130 C   0  0  0  0  0  0  0  0  0  0  0  0
   12.3190   15.8471   62.8218 C   0  0  0  0  0  0  0  0  0  0  0  0
   10.9440   15.9346   63.0607 C   0  0  0  0  0  0  0  0  0  0  0  0
   10.3857   15.4053   64.2094 C   0  0  0  0  0  0  0  0  0  0  0  0
    9.0234   15.4951   64.4365 C   0  0  0  0  0  0  0  0  0  0  0  0
   11.2337   14.7994   65.1519 C   0  0  0  0  0  0  0  0  0  0  0  0
   10.6912   14.2715   66.3053 C   0  0  0  0  0  0  0  0  0  0  0  0
    9.3278   14.3564   66.5330 C   0  0  0  0  0  0  0  0  0  0  0  0
    8.4833   14.9715   65.5997 C   0  0  0  0  0  0  0  0  0  0  0  0
   16.5353   15.7522   62.9857 N   0  0  0  0  0  0  0  0  0  0  0  0
   15.3917   16.1642   63.2554 N   0  0  0  0  0  0  0  0  0  0  0  0
   16.5897   14.4310   62.9289 C   0  0  0  0  0  0  0  0  0  0  0  0
   17.6038   13.5818   62.6817 N   0  0  0  0  0  0  0  0  0  0  0  0
   17.3853   12.2770   62.7081 C   0  0  0  0  0  0  0  0  0  0  0  0
   16.1846   11.7674   62.9662 N   0  0  0  0  0  0  0  0  0  0  0  0
   15.1279   12.5726   63.2300 C   0  0  0  0  0  0  0  0  0  0  0  0
   13.9484   11.9863   63.4774 N   0  0  0  0  0  0  0  0  0  0  0  0
   15.3112   13.9615   63.2209 C   0  0  0  0  0  0  0  0  0  0  0  0
   14.5553   15.1321   63.4482 C   0  0  0  0  0  0  0  0  0  0  0  0
   13.8758   11.0045   63.4712 H   0  0  0  0  0  0  0  0  0  0  0  0
   13.1545   12.5374   63.6653 H   0  0  0  0  0  0  0  0  0  0  0  0
   17.5589   17.9951   63.2913 C   0  0  0  0  0  0  0  0  0  0  0  0
   17.7264   16.5916   62.7124 C   0  0  0  0  0  0  0  0  0  0  0  0
   17.9840   16.6601   61.1891 C   0  0  0  0  0  0  0  0  0  0  0  0
    7.1505   15.0098   65.9041 O   0  0  0  0  0  0  0  0  0  0  0  0
    6.1122   15.1773   64.8959 C   0  0  0  0  0  0  0  0  0  0  0  0
    5.8034   14.0147   64.1440 C   0  0  0  0  0  0  0  0  0  0  0  0
    6.2095   13.8747   62.8131 C   0  0  0  0  0  0  0  0  0  0  0  0
    5.8402   12.7295   62.1155 C   0  0  0  0  0  0  0  0  0  0  0  0
    6.3482   12.5604   60.4792 Cl  0  0  0  0  0  0  0  0  0  0  0  0
    5.0783   11.7267   62.6943 C   0  0  0  0  0  0  0  0  0  0  0  0
    4.6633   11.8705   64.0192 C   0  0  0  0  0  0  0  0  0  0  0  0
    5.0264   13.0053   64.7124 C   0  0  0  0  0  0  0  0  0  0  0  0
 25 24  1  0  0  0
 24 11  1  0  0  0
 24 23  1  0  0  0
 14 15  2  0  0  0
 14 13  1  0  0  0
 15 16  1  0  0  0
 11 13  1  0  0  0
 11 12  1  0  0  0
 13 19  2  0  0  0
  3  4  2  0  0  0
  3  1  1  0  0  0
 16 17  2  0  0  0
 12 20  2  0  0  0
 19 17  1  0  0  0
 19 20  1  0  0  0
 17 18  1  0  0  0
  4  5  1  0  0  0
 20  1  1  0  0  0
  1  2  2  0  0  0
  5  6  2  0  0  0
  5  7  1  0  0  0
  6 10  1  0  0  0
  2  7  1  0  0  0
 31 30  1  0  0  0
  7  8  2  0  0  0
 29 28  2  0  0  0
 29 30  1  0  0  0
 27 28  1  0  0  0
 27 26  1  0  0  0
 10 26  1  0  0  0
 10  9  2  0  0  0
 28 34  1  0  0  0
 30 32  2  0  0  0
  8  9  1  0  0  0
 34 33  2  0  0  0
 32 33  1  0  0  0
 18 21  1  0  0  0
 18 22  1  0  0  0
M  END
> <minimizedAffinity>
-12.56696

$$$$
3V51_I76_A_701


 34 38  0  0  0  0  0  0  0  0999 V2000
   13.1041   15.1166   63.9072 C   0  0  0  0  0  0  0  0  0  0  0  0
   12.6856   14.4707   65.0699 C   0  0  0  0  0  0  0  0  0  0  0  0
   12.1303   15.8004   63.1501 C   0  0  0  0  0  0  0  0  0  0  0  0
   10.7838   15.7818   63.5266 C   0  0  0  0  0  0  0  0  0  0  0  0
   10.3706   15.1063   64.6600 C   0  0  0  0  0  0  0  0  0  0  0  0
    9.0353   15.0919   65.0239 C   0  0  0  0  0  0  0  0  0  0  0  0
   11.3377   14.4590   65.4472 C   0  0  0  0  0  0  0  0  0  0  0  0
   10.9406   13.7854   66.5839 C   0  0  0  0  0  0  0  0  0  0  0  0
    9.6046   13.7660   66.9480 C   0  0  0  0  0  0  0  0  0  0  0  0
    8.6414   14.4218   66.1704 C   0  0  0  0  0  0  0  0  0  0  0  0
   16.3159   15.9360   62.8208 N   0  0  0  0  0  0  0  0  0  0  0  0
   15.1739   16.2547   63.2012 N   0  0  0  0  0  0  0  0  0  0  0  0
   16.4755   14.6233   62.7647 C   0  0  0  0  0  0  0  0  0  0  0  0
   17.5280   13.8585   62.4214 N   0  0  0  0  0  0  0  0  0  0  0  0
   17.4238   12.5405   62.4752 C   0  0  0  0  0  0  0  0  0  0  0  0
   16.3017   11.9359   62.8538 N   0  0  0  0  0  0  0  0  0  0  0  0
   15.2122   12.6535   63.2179 C   0  0  0  0  0  0  0  0  0  0  0  0
   14.1165   11.9741   63.5841 N   0  0  0  0  0  0  0  0  0  0  0  0
   15.2761   14.0526   63.1845 C   0  0  0  0  0  0  0  0  0  0  0  0
   14.4505   15.1589   63.4809 C   0  0  0  0  0  0  0  0  0  0  0  0
   14.1266   10.9897   63.5895 H   0  0  0  0  0  0  0  0  0  0  0  0
   13.3016   12.4595   63.8477 H   0  0  0  0  0  0  0  0  0  0  0  0
   17.3148   18.1772   63.2092 C   0  0  0  0  0  0  0  0  0  0  0  0
   17.3991   16.8682   62.4266 C   0  0  0  0  0  0  0  0  0  0  0  0
   17.3325   17.1399   60.9057 C   0  0  0  0  0  0  0  0  0  0  0  0
    7.3457   14.3501   66.6025 O   0  0  0  0  0  0  0  0  0  0  0  0
    6.2039   14.5272   65.7152 C   0  0  0  0  0  0  0  0  0  0  0  0
    4.9732   14.8142   66.3598 C   0  0  0  0  0  0  0  0  0  0  0  0
    3.9652   15.5434   65.7210 C   0  0  0  0  0  0  0  0  0  0  0  0
    2.7972   15.8286   66.4202 C   0  0  0  0  0  0  0  0  0  0  0  0
    1.5576   16.7216   65.6264 Cl  0  0  0  0  0  0  0  0  0  0  0  0
    2.6029   15.4193   67.7301 C   0  0  0  0  0  0  0  0  0  0  0  0
    3.6129   14.7008   68.3721 C   0  0  0  0  0  0  0  0  0  0  0  0
    4.7722   14.4183   67.6820 C   0  0  0  0  0  0  0  0  0  0  0  0
 25 24  1  0  0  0
 24 11  1  0  0  0
 24 23  1  0  0  0
 14 15  2  0  0  0
 14 13  1  0  0  0
 15 16  1  0  0  0
 11 13  1  0  0  0
 11 12  1  0  0  0
 13 19  2  0  0  0
  3  4  2  0  0  0
  3  1  1  0  0  0
 16 17  2  0  0  0
 12 20  2  0  0  0
 19 17  1  0  0  0
 19 20  1  0  0  0
 17 18  1  0  0  0
  4  5  1  0  0  0
 20  1  1  0  0  0
  1  2  2  0  0  0
  5  6  2  0  0  0
  5  7  1  0  0  0
  6 10  1  0  0  0
  2  7  1  0  0  0
 31 30  1  0  0  0
  7  8  2  0  0  0
 29 28  2  0  0  0
 29 30  1  0  0  0
 27 28  1  0  0  0
 27 26  1  0  0  0
 10 26  1  0  0  0
 10  9  2  0  0  0
 28 34  1  0  0  0
 30 32  2  0  0  0
  8  9  1  0  0  0
 34 33  2  0  0  0
 32 33  1  0  0  0
 18 21  1  0  0  0
 18 22  1  0  0  0
M  END
> <minimizedAffinity>
-12.56066

$$$$
3V51_I76_A_701


 34 38  0  0  0  0  0  0  0  0999 V2000
   13.5311   15.2765   63.6517 C   0  0  0  0  0  0  0  0  0  0  0  0
   13.1017   14.7274   64.8593 C   0  0  0  0  0  0  0  0  0  0  0  0
   12.5576   15.8564   62.8120 C   0  0  0  0  0  0  0  0  0  0  0  0
   11.2028   15.8296   63.1573 C   0  0  0  0  0  0  0  0  0  0  0  0
   10.7803   15.2485   64.3386 C   0  0  0  0  0  0  0  0  0  0  0  0
    9.4371   15.2251   64.6712 C   0  0  0  0  0  0  0  0  0  0  0  0
   11.7454   14.7076   65.2048 C   0  0  0  0  0  0  0  0  0  0  0  0
   11.3389   14.1292   66.3896 C   0  0  0  0  0  0  0  0  0  0  0  0
    9.9950   14.1008   66.7228 C   0  0  0  0  0  0  0  0  0  0  0  0
    9.0334   14.6512   65.8655 C   0  0  0  0  0  0  0  0  0  0  0  0
   16.8986   14.7152   62.9360 N   0  0  0  0  0  0  0  0  0  0  0  0
   15.7869   14.3308   63.3446 N   0  0  0  0  0  0  0  0  0  0  0  0
   16.8838   15.9873   62.5706 C   0  0  0  0  0  0  0  0  0  0  0  0
   17.8406   16.7917   62.0728 N   0  0  0  0  0  0  0  0  0  0  0  0
   17.5466   18.0447   61.7650 C   0  0  0  0  0  0  0  0  0  0  0  0
   16.3275   18.5466   61.9378 N   0  0  0  0  0  0  0  0  0  0  0  0
   15.3223   17.7824   62.4279 C   0  0  0  0  0  0  0  0  0  0  0  0
   14.1218   18.3590   62.5777 N   0  0  0  0  0  0  0  0  0  0  0  0
   15.5829   16.4470   62.7618 C   0  0  0  0  0  0  0  0  0  0  0  0
   14.8863   15.3222   63.2547 C   0  0  0  0  0  0  0  0  0  0  0  0
   13.9940   19.3024   62.3266 H   0  0  0  0  0  0  0  0  0  0  0  0
   13.3676   17.8392   62.9387 H   0  0  0  0  0  0  0  0  0  0  0  0
   18.5851   13.6799   61.4342 C   0  0  0  0  0  0  0  0  0  0  0  0
   18.1381   13.9040   62.8774 C   0  0  0  0  0  0  0  0  0  0  0  0
   17.9164   12.5513   63.5932 C   0  0  0  0  0  0  0  0  0  0  0  0
    7.7296   14.5784   66.2722 O   0  0  0  0  0  0  0  0  0  0  0  0
    6.6082   14.8954   65.3978 C   0  0  0  0  0  0  0  0  0  0  0  0
    5.3457   14.9851   66.0384 C   0  0  0  0  0  0  0  0  0  0  0  0
    4.2580   15.6163   65.4266 C   0  0  0  0  0  0  0  0  0  0  0  0
    3.0574   15.7090   66.1225 C   0  0  0  0  0  0  0  0  0  0  0  0
    1.7203   16.4820   65.3617 Cl  0  0  0  0  0  0  0  0  0  0  0  0
    2.9062   15.2022   67.4037 C   0  0  0  0  0  0  0  0  0  0  0  0
    3.9945   14.5818   68.0194 C   0  0  0  0  0  0  0  0  0  0  0  0
    5.1861   14.4900   67.3326 C   0  0  0  0  0  0  0  0  0  0  0  0
 25 24  1  0  0  0
 24 11  1  0  0  0
 24 23  1  0  0  0
 14 15  2  0  0  0
 14 13  1  0  0  0
 15 16  1  0  0  0
 11 13  1  0  0  0
 11 12  1  0  0  0
 13 19  2  0  0  0
  3  4  2  0  0  0
  3  1  1  0  0  0
 16 17  2  0  0  0
 12 20  2  0  0  0
 19 17  1  0  0  0
 19 20  1  0  0  0
 17 18  1  0  0  0
  4  5  1  0  0  0
 20  1  1  0  0  0
  1  2  2  0  0  0
  5  6  2  0  0  0
  5  7  1  0  0  0
  6 10  1  0  0  0
  2  7  1  0  0  0
 31 30  1  0  0  0
  7  8  2  0  0  0
 29 28  2  0  0  0
 29 30  1  0  0  0
 27 28  1  0  0  0
 27 26  1  0  0  0
 10 26  1  0  0  0
 10  9  2  0  0  0
 28 34  1  0  0  0
 30 32  2  0  0  0
  8  9  1  0  0  0
 34 33  2  0  0  0
 32 33  1  0  0  0
 18 21  1  0  0  0
 18 22  1  0  0  0
M  END
> <minimizedAffinity>
-11.87829

$$$$
3V51_I76_A_701


 34 38  0  0  0  0  0  0  0  0999 V2000
   13.4662   15.3003   63.6586 C   0  0  0  0  0  0  0  0  0  0  0  0
   12.9390   14.7978   64.8476 C   0  0  0  0  0  0  0  0  0  0  0  0
   12.5741   15.9076   62.7506 C   0  0  0  0  0  0  0  0  0  0  0  0
   11.2013   15.9521   63.0130 C   0  0  0  0  0  0  0  0  0  0  0  0
   10.6810   15.4168   64.1767 C   0  0  0  0  0  0  0  0  0  0  0  0
    9.3207   15.4639   64.4272 C   0  0  0  0  0  0  0  0  0  0  0  0
   11.5650   14.8494   65.1100 C   0  0  0  0  0  0  0  0  0  0  0  0
   11.0606   14.3161   66.2781 C   0  0  0  0  0  0  0  0  0  0  0  0
    9.6993   14.3582   66.5292 C   0  0  0  0  0  0  0  0  0  0  0  0
    8.8187   14.9351   65.6049 C   0  0  0  0  0  0  0  0  0  0  0  0
   16.8360   14.5600   63.1454 N   0  0  0  0  0  0  0  0  0  0  0  0
   15.6828   14.2354   63.4849 N   0  0  0  0  0  0  0  0  0  0  0  0
   16.9113   15.8310   62.7842 C   0  0  0  0  0  0  0  0  0  0  0  0
   17.9379   16.5833   62.3478 N   0  0  0  0  0  0  0  0  0  0  0  0
   17.7303   17.8502   62.0270 C   0  0  0  0  0  0  0  0  0  0  0  0
   16.5316   18.4166   62.1277 N   0  0  0  0  0  0  0  0  0  0  0  0
   15.4592   17.7072   62.5536 C   0  0  0  0  0  0  0  0  0  0  0  0
   14.2843   18.3471   62.6326 N   0  0  0  0  0  0  0  0  0  0  0  0
   15.6275   16.3596   62.8980 C   0  0  0  0  0  0  0  0  0  0  0  0
   14.8434   15.2736   63.3442 C   0  0  0  0  0  0  0  0  0  0  0  0
   14.2225   19.2959   62.3776 H   0  0  0  0  0  0  0  0  0  0  0  0
   13.4831   17.8683   62.9457 H   0  0  0  0  0  0  0  0  0  0  0  0
   18.6442   13.5617   61.7651 C   0  0  0  0  0  0  0  0  0  0  0  0
   18.0318   13.6836   63.1590 C   0  0  0  0  0  0  0  0  0  0  0  0
   17.6561   12.2887   63.7107 C   0  0  0  0  0  0  0  0  0  0  0  0
    7.4908   14.9325   65.9326 O   0  0  0  0  0  0  0  0  0  0  0  0
    6.4356   15.2005   64.9646 C   0  0  0  0  0  0  0  0  0  0  0  0
    6.0072   14.0797   64.2079 C   0  0  0  0  0  0  0  0  0  0  0  0
    6.3732   13.9184   62.8678 C   0  0  0  0  0  0  0  0  0  0  0  0
    5.8873   12.8197   62.1669 C   0  0  0  0  0  0  0  0  0  0  0  0
    6.3461   12.6236   60.5191 Cl  0  0  0  0  0  0  0  0  0  0  0  0
    5.0480   11.8841   62.7512 C   0  0  0  0  0  0  0  0  0  0  0  0
    4.6734   12.0502   64.0856 C   0  0  0  0  0  0  0  0  0  0  0  0
    5.1522   13.1391   64.7821 C   0  0  0  0  0  0  0  0  0  0  0  0
 25 24  1  0  0  0
 24 11  1  0  0  0
 24 23  1  0  0  0
 14 15  2  0  0  0
 14 13  1  0  0  0
 15 16  1  0  0  0
 11 13  1  0  0  0
 11 12  1  0  0  0
 13 19  2  0  0  0
  3  4  2  0  0  0
  3  1  1  0  0  0
 16 17  2  0  0  0
 12 20  2  0  0  0
 19 17  1  0  0  0
 19 20  1  0  0  0
 17 18  1  0  0  0
  4  5  1  0  0  0
 20  1  1  0  0  0
  1  2  2  0  0  0
  5  6  2  0  0  0
  5  7  1  0  0  0
  6 10  1  0  0  0
  2  7  1  0  0  0
 31 30  1  0  0  0
  7  8  2  0  0  0
 29 28  2  0  0  0
 29 30  1  0  0  0
 27 28  1  0  0  0
 27 26  1  0  0  0
 10 26  1  0  0  0
 10  9  2  0  0  0
 28 34  1  0  0  0
 30 32  2  0  0  0
  8  9  1  0  0  0
 34 33  2  0  0  0
 32 33  1  0  0  0
 18 21  1  0  0  0
 18 22  1  0  0  0
M  END
> <minimizedAffinity>
-11.83476

$$$$
3V51_I76_A_701


 34 38  0  0  0  0  0  0  0  0999 V2000
   12.0177   15.5530   64.1061 C   0  0  0  0  0  0  0  0  0  0  0  0
   10.8342   15.5526   63.3689 C   0  0  0  0  0  0  0  0  0  0  0  0
   11.9513   15.1412   65.4533 C   0  0  0  0  0  0  0  0  0  0  0  0
   10.7294   14.7986   66.0407 C   0  0  0  0  0  0  0  0  0  0  0  0
    9.5540   14.8381   65.3137 C   0  0  0  0  0  0  0  0  0  0  0  0
    8.3490   14.4989   65.9040 C   0  0  0  0  0  0  0  0  0  0  0  0
    9.6136   15.2032   63.9582 C   0  0  0  0  0  0  0  0  0  0  0  0
    8.4492   15.2419   63.2190 C   0  0  0  0  0  0  0  0  0  0  0  0
    7.2416   14.9070   63.8083 C   0  0  0  0  0  0  0  0  0  0  0  0
    7.1832   14.5307   65.1565 C   0  0  0  0  0  0  0  0  0  0  0  0
   14.8124   17.0464   62.6478 N   0  0  0  0  0  0  0  0  0  0  0  0
   13.6475   17.0953   63.0849 N   0  0  0  0  0  0  0  0  0  0  0  0
   15.3303   15.8320   62.7410 C   0  0  0  0  0  0  0  0  0  0  0  0
   16.5363   15.3397   62.4038 N   0  0  0  0  0  0  0  0  0  0  0  0
   16.8084   14.0645   62.6295 C   0  0  0  0  0  0  0  0  0  0  0  0
   15.9212   13.2396   63.1775 N   0  0  0  0  0  0  0  0  0  0  0  0
   14.6941   13.6801   63.5444 C   0  0  0  0  0  0  0  0  0  0  0  0
   13.8525   12.7893   64.0871 N   0  0  0  0  0  0  0  0  0  0  0  0
   14.3616   15.0244   63.3324 C   0  0  0  0  0  0  0  0  0  0  0  0
   13.2751   15.8965   63.5609 C   0  0  0  0  0  0  0  0  0  0  0  0
   14.1383   11.8557   64.2136 H   0  0  0  0  0  0  0  0  0  0  0  0
   12.9485   13.0685   64.3593 H   0  0  0  0  0  0  0  0  0  0  0  0
   16.0677   17.8168   60.6472 C   0  0  0  0  0  0  0  0  0  0  0  0
   15.5697   18.1705   62.0471 C   0  0  0  0  0  0  0  0  0  0  0  0
   16.7544   18.5562   62.9632 C   0  0  0  0  0  0  0  0  0  0  0  0
    5.9496   14.2178   65.6574 O   0  0  0  0  0  0  0  0  0  0  0  0
    5.5112   14.6152   66.9887 C   0  0  0  0  0  0  0  0  0  0  0  0
    4.1424   14.9722   67.0954 C   0  0  0  0  0  0  0  0  0  0  0  0
    3.6486   16.1541   66.5340 C   0  0  0  0  0  0  0  0  0  0  0  0
    2.3053   16.4698   66.7082 C   0  0  0  0  0  0  0  0  0  0  0  0
    1.7020   17.9231   66.0097 Cl  0  0  0  0  0  0  0  0  0  0  0  0
    1.4428   15.6550   67.4247 C   0  0  0  0  0  0  0  0  0  0  0  0
    1.9373   14.4807   67.9947 C   0  0  0  0  0  0  0  0  0  0  0  0
    3.2687   14.1662   67.8251 C   0  0  0  0  0  0  0  0  0  0  0  0
 25 24  1  0  0  0
 24 11  1  0  0  0
 24 23  1  0  0  0
 14 15  2  0  0  0
 14 13  1  0  0  0
 15 16  1  0  0  0
 11 13  1  0  0  0
 11 12  1  0  0  0
 13 19  2  0  0  0
  3  4  2  0  0  0
  3  1  1  0  0  0
 16 17  2  0  0  0
 12 20  2  0  0  0
 19 17  1  0  0  0
 19 20  1  0  0  0
 17 18  1  0  0  0
  4  5  1  0  0  0
 20  1  1  0  0  0
  1  2  2  0  0  0
  5  6  2  0  0  0
  5  7  1  0  0  0
  6 10  1  0  0  0
  2  7  1  0  0  0
 31 30  1  0  0  0
  7  8  2  0  0  0
 29 28  2  0  0  0
 29 30  1  0  0  0
 27 28  1  0  0  0
 27 26  1  0  0  0
 10 26  1  0  0  0
 10  9  2  0  0  0
 28 34  1  0  0  0
 30 32  2  0  0  0
  8  9  1  0  0  0
 34 33  2  0  0  0
 32 33  1  0  0  0
 18 21  1  0  0  0
 18 22  1  0  0  0
M  END
> <minimizedAffinity>
-10.51328

$$$$
3V51_I76_A_701


 34 38  0  0  0  0  0  0  0  0999 V2000
   13.4552   15.0640   64.0803 C   0  0  0  0  0  0  0  0  0  0  0  0
   12.3651   15.2442   63.2297 C   0  0  0  0  0  0  0  0  0  0  0  0
   13.1952   14.9278   65.4598 C   0  0  0  0  0  0  0  0  0  0  0  0
   11.8926   15.0264   65.9587 C   0  0  0  0  0  0  0  0  0  0  0  0
   10.8208   15.2440   65.1130 C   0  0  0  0  0  0  0  0  0  0  0  0
    9.5351   15.3419   65.6160 C   0  0  0  0  0  0  0  0  0  0  0  0
   11.0618   15.3363   63.7318 C   0  0  0  0  0  0  0  0  0  0  0  0
   10.0010   15.5482   62.8754 C   0  0  0  0  0  0  0  0  0  0  0  0
    8.7141   15.6507   63.3766 C   0  0  0  0  0  0  0  0  0  0  0  0
    8.4716   15.5462   64.7524 C   0  0  0  0  0  0  0  0  0  0  0  0
   16.7225   15.5423   62.9565 N   0  0  0  0  0  0  0  0  0  0  0  0
   15.6334   15.9777   63.3743 N   0  0  0  0  0  0  0  0  0  0  0  0
   16.7236   14.2234   62.8451 C   0  0  0  0  0  0  0  0  0  0  0  0
   17.6714   13.3545   62.4488 N   0  0  0  0  0  0  0  0  0  0  0  0
   17.4119   12.0569   62.4528 C   0  0  0  0  0  0  0  0  0  0  0  0
   16.2325   11.5741   62.8319 N   0  0  0  0  0  0  0  0  0  0  0  0
   15.2426   12.3997   63.2481 C   0  0  0  0  0  0  0  0  0  0  0  0
   14.0803   11.8401   63.6112 N   0  0  0  0  0  0  0  0  0  0  0  0
   15.4722   13.7816   63.2685 C   0  0  0  0  0  0  0  0  0  0  0  0
   14.7895   14.9645   63.6264 C   0  0  0  0  0  0  0  0  0  0  0  0
   13.9731   10.8620   63.5776 H   0  0  0  0  0  0  0  0  0  0  0  0
   13.3336   12.4070   63.9117 H   0  0  0  0  0  0  0  0  0  0  0  0
   17.8936   17.7086   63.2838 C   0  0  0  0  0  0  0  0  0  0  0  0
   17.9022   16.3554   62.5755 C   0  0  0  0  0  0  0  0  0  0  0  0
   17.9371   16.5460   61.0413 C   0  0  0  0  0  0  0  0  0  0  0  0
    7.1712   15.6608   65.1606 O   0  0  0  0  0  0  0  0  0  0  0  0
    6.3063   14.5096   65.3825 C   0  0  0  0  0  0  0  0  0  0  0  0
    5.2273   14.7250   66.2779 C   0  0  0  0  0  0  0  0  0  0  0  0
    5.1693   14.0863   67.5207 C   0  0  0  0  0  0  0  0  0  0  0  0
    4.0649   14.3057   68.3372 C   0  0  0  0  0  0  0  0  0  0  0  0
    4.0020   13.5213   69.8685 Cl  0  0  0  0  0  0  0  0  0  0  0  0
    3.0183   15.1308   67.9565 C   0  0  0  0  0  0  0  0  0  0  0  0
    3.0702   15.7600   66.7116 C   0  0  0  0  0  0  0  0  0  0  0  0
    4.1628   15.5430   65.8997 C   0  0  0  0  0  0  0  0  0  0  0  0
 25 24  1  0  0  0
 24 11  1  0  0  0
 24 23  1  0  0  0
 14 15  2  0  0  0
 14 13  1  0  0  0
 15 16  1  0  0  0
 11 13  1  0  0  0
 11 12  1  0  0  0
 13 19  2  0  0  0
  3  4  2  0  0  0
  3  1  1  0  0  0
 16 17  2  0  0  0
 12 20  2  0  0  0
 19 17  1  0  0  0
 19 20  1  0  0  0
 17 18  1  0  0  0
  4  5  1  0  0  0
 20  1  1  0  0  0
  1  2  2  0  0  0
  5  6  2  0  0  0
  5  7  1  0  0  0
  6 10  1  0  0  0
  2  7  1  0  0  0
 31 30  1  0  0  0
  7  8  2  0  0  0
 29 28  2  0  0  0
 29 30  1  0  0  0
 27 28  1  0  0  0
 27 26  1  0  0  0
 10 26  1  0  0  0
 10  9  2  0  0  0
 28 34  1  0  0  0
 30 32  2  0  0  0
  8  9  1  0  0  0
 34 33  2  0  0  0
 32 33  1  0  0  0
 18 21  1  0  0  0
 18 22  1  0  0  0
M  END
> <minimizedAffinity>
-10.40836

$$$$
3V51_I76_A_701


 34 38  0  0  0  0  0  0  0  0999 V2000
   16.2069   15.4472   62.6436 C   0  0  0  0  0  0  0  0  0  0  0  0
   14.9696   16.0395   62.3936 C   0  0  0  0  0  0  0  0  0  0  0  0
   16.2542   14.4009   63.5881 C   0  0  0  0  0  0  0  0  0  0  0  0
   15.1077   14.0120   64.2877 C   0  0  0  0  0  0  0  0  0  0  0  0
   13.8919   14.6305   64.0624 C   0  0  0  0  0  0  0  0  0  0  0  0
   12.7627   14.2400   64.7609 C   0  0  0  0  0  0  0  0  0  0  0  0
   13.8225   15.6437   63.0913 C   0  0  0  0  0  0  0  0  0  0  0  0
   12.6147   16.2662   62.8521 C   0  0  0  0  0  0  0  0  0  0  0  0
   11.4842   15.8802   63.5526 C   0  0  0  0  0  0  0  0  0  0  0  0
   11.5500   14.8614   64.5120 C   0  0  0  0  0  0  0  0  0  0  0  0
   19.2094   15.6253   60.8772 N   0  0  0  0  0  0  0  0  0  0  0  0
   18.2462   14.9847   61.3379 N   0  0  0  0  0  0  0  0  0  0  0  0
   19.1385   16.9139   61.1707 C   0  0  0  0  0  0  0  0  0  0  0  0
   19.9436   17.9502   60.8736 N   0  0  0  0  0  0  0  0  0  0  0  0
   19.6207   19.1670   61.2812 C   0  0  0  0  0  0  0  0  0  0  0  0
   18.5203   19.4058   61.9883 N   0  0  0  0  0  0  0  0  0  0  0  0
   17.6681   18.4036   62.3109 C   0  0  0  0  0  0  0  0  0  0  0  0
   16.5816   18.7208   63.0287 N   0  0  0  0  0  0  0  0  0  0  0  0
   17.9633   17.0986   61.8954 C   0  0  0  0  0  0  0  0  0  0  0  0
   17.3943   15.8086   61.9685 C   0  0  0  0  0  0  0  0  0  0  0  0
   16.4228   19.6553   63.2944 H   0  0  0  0  0  0  0  0  0  0  0  0
   15.9424   18.0192   63.2902 H   0  0  0  0  0  0  0  0  0  0  0  0
   20.4415   15.6786   58.7207 C   0  0  0  0  0  0  0  0  0  0  0  0
   20.3505   15.0632   60.1156 C   0  0  0  0  0  0  0  0  0  0  0  0
   20.2152   13.5255   60.0227 C   0  0  0  0  0  0  0  0  0  0  0  0
   10.3864   14.5451   65.1574 O   0  0  0  0  0  0  0  0  0  0  0  0
    9.3387   15.5213   65.4254 C   0  0  0  0  0  0  0  0  0  0  0  0
    8.0303   15.1274   65.0441 C   0  0  0  0  0  0  0  0  0  0  0  0
    7.0386   14.8659   65.9949 C   0  0  0  0  0  0  0  0  0  0  0  0
    5.7869   14.4428   65.5604 C   0  0  0  0  0  0  0  0  0  0  0  0
    4.5686   14.1281   66.7353 Cl  0  0  0  0  0  0  0  0  0  0  0  0
    5.4931   14.2661   64.2174 C   0  0  0  0  0  0  0  0  0  0  0  0
    6.4857   14.5164   63.2683 C   0  0  0  0  0  0  0  0  0  0  0  0
    7.7276   14.9341   63.6964 C   0  0  0  0  0  0  0  0  0  0  0  0
 25 24  1  0  0  0
 24 11  1  0  0  0
 24 23  1  0  0  0
 14 15  2  0  0  0
 14 13  1  0  0  0
 15 16  1  0  0  0
 11 13  1  0  0  0
 11 12  1  0  0  0
 13 19  2  0  0  0
  3  4  2  0  0  0
  3  1  1  0  0  0
 16 17  2  0  0  0
 12 20  2  0  0  0
 19 17  1  0  0  0
 19 20  1  0  0  0
 17 18  1  0  0  0
  4  5  1  0  0  0
 20  1  1  0  0  0
  1  2  2  0  0  0
  5  6  2  0  0  0
  5  7  1  0  0  0
  6 10  1  0  0  0
  2  7  1  0  0  0
 31 30  1  0  0  0
  7  8  2  0  0  0
 29 28  2  0  0  0
 29 30  1  0  0  0
 27 28  1  0  0  0
 27 26  1  0  0  0
 10 26  1  0  0  0
 10  9  2  0  0  0
 28 34  1  0  0  0
 30 32  2  0  0  0
  8  9  1  0  0  0
 34 33  2  0  0  0
 32 33  1  0  0  0
 18 21  1  0  0  0
 18 22  1  0  0  0
M  END
> <minimizedAffinity>
-10.06323

$$$$
3V51_I76_A_701


 34 38  0  0  0  0  0  0  0  0999 V2000
    8.5557   14.7497   65.1271 C   0  0  0  0  0  0  0  0  0  0  0  0
    9.1867   15.2942   64.0092 C   0  0  0  0  0  0  0  0  0  0  0  0
    9.3572   14.4341   66.2438 C   0  0  0  0  0  0  0  0  0  0  0  0
   10.7438   14.6111   66.2062 C   0  0  0  0  0  0  0  0  0  0  0  0
   11.3670   15.1152   65.0798 C   0  0  0  0  0  0  0  0  0  0  0  0
   12.7403   15.2854   65.0511 C   0  0  0  0  0  0  0  0  0  0  0  0
   10.5743   15.4757   63.9771 C   0  0  0  0  0  0  0  0  0  0  0  0
   11.1821   15.9851   62.8481 C   0  0  0  0  0  0  0  0  0  0  0  0
   12.5564   16.1524   62.8152 C   0  0  0  0  0  0  0  0  0  0  0  0
   13.3461   15.8050   63.9190 C   0  0  0  0  0  0  0  0  0  0  0  0
    5.1990   14.4479   66.0262 N   0  0  0  0  0  0  0  0  0  0  0  0
    6.3768   14.7619   66.2803 N   0  0  0  0  0  0  0  0  0  0  0  0
    5.0647   13.9605   64.8030 C   0  0  0  0  0  0  0  0  0  0  0  0
    3.9918   13.5142   64.1248 N   0  0  0  0  0  0  0  0  0  0  0  0
    4.1348   13.0922   62.8788 C   0  0  0  0  0  0  0  0  0  0  0  0
    5.3151   13.0861   62.2667 N   0  0  0  0  0  0  0  0  0  0  0  0
    6.4289   13.5305   62.8963 C   0  0  0  0  0  0  0  0  0  0  0  0
    7.5831   13.4903   62.2163 N   0  0  0  0  0  0  0  0  0  0  0  0
    6.3268   13.9943   64.2144 C   0  0  0  0  0  0  0  0  0  0  0  0
    7.1602   14.5455   65.2118 C   0  0  0  0  0  0  0  0  0  0  0  0
    7.5978   13.1544   61.2910 H   0  0  0  0  0  0  0  0  0  0  0  0
    8.4162   13.7967   62.6421 H   0  0  0  0  0  0  0  0  0  0  0  0
    3.3020   15.8691   66.7700 C   0  0  0  0  0  0  0  0  0  0  0  0
    4.0468   14.5483   66.9537 C   0  0  0  0  0  0  0  0  0  0  0  0
    4.5318   14.3973   68.4143 C   0  0  0  0  0  0  0  0  0  0  0  0
   14.6943   16.0017   63.7999 O   0  0  0  0  0  0  0  0  0  0  0  0
   15.4524   15.6002   62.6223 C   0  0  0  0  0  0  0  0  0  0  0  0
   16.5173   14.6952   62.8657 C   0  0  0  0  0  0  0  0  0  0  0  0
   17.8493   15.0535   62.6344 C   0  0  0  0  0  0  0  0  0  0  0  0
   18.8461   14.1083   62.8524 C   0  0  0  0  0  0  0  0  0  0  0  0
   20.4843   14.5572   62.5715 Cl  0  0  0  0  0  0  0  0  0  0  0  0
   18.5618   12.8225   63.2848 C   0  0  0  0  0  0  0  0  0  0  0  0
   17.2318   12.4607   63.5054 C   0  0  0  0  0  0  0  0  0  0  0  0
   16.2417   13.3950   63.2885 C   0  0  0  0  0  0  0  0  0  0  0  0
 25 24  1  0  0  0
 24 11  1  0  0  0
 24 23  1  0  0  0
 14 15  2  0  0  0
 14 13  1  0  0  0
 15 16  1  0  0  0
 11 13  1  0  0  0
 11 12  1  0  0  0
 13 19  2  0  0  0
  3  4  2  0  0  0
  3  1  1  0  0  0
 16 17  2  0  0  0
 12 20  2  0  0  0
 19 17  1  0  0  0
 19 20  1  0  0  0
 17 18  1  0  0  0
  4  5  1  0  0  0
 20  1  1  0  0  0
  1  2  2  0  0  0
  5  6  2  0  0  0
  5  7  1  0  0  0
  6 10  1  0  0  0
  2  7  1  0  0  0
 31 30  1  0  0  0
  7  8  2  0  0  0
 29 28  2  0  0  0
 29 30  1  0  0  0
 27 28  1  0  0  0
 27 26  1  0  0  0
 10 26  1  0  0  0
 10  9  2  0  0  0
 28 34  1  0  0  0
 30 32  2  0  0  0
  8  9  1  0  0  0
 34 33  2  0  0  0
 32 33  1  0  0  0
 18 21  1  0  0  0
 18 22  1  0  0  0
M  END
> <minimizedAffinity>
-9.74269

$$$$
