1SV3_ANN_A_347


 12 12  0  0  0  0  0  0  0  0999 V2000
   48.8545   31.7826    3.4084 C   0  0  0  0  0  0  0  0  0  0  0  0
   49.0691   32.6800    4.4486 C   0  0  0  0  0  0  0  0  0  0  0  0
   50.2642   33.3861    4.5534 C   0  0  0  0  0  0  0  0  0  0  0  0
   51.2670   33.2022    3.6076 C   0  0  0  0  0  0  0  0  0  0  0  0
   51.0622   32.3040    2.5709 C   0  0  0  0  0  0  0  0  0  0  0  0
   49.8636   31.5998    2.4630 C   0  0  0  0  0  0  0  0  0  0  0  0
   52.5638   33.9582    3.6984 C   0  0  0  0  0  0  0  0  0  0  0  0
   53.2196   33.9930    4.7332 O   0  0  0  0  0  0  0  0  0  0  0  0
   53.0070   34.5950    2.6301 O   0  0  0  0  0  0  0  0  0  0  0  0
   52.9138   33.5445    5.4969 H   0  0  0  0  0  0  0  0  0  0  0  0
   46.3726   31.7447    3.3591 C   0  0  0  0  0  0  0  0  0  0  0  0
   47.6538   31.1033    3.3477 O   0  0  0  0  0  0  0  0  0  0  0  0
 11 12  1  0  0  0
 12  1  1  0  0  0
  1  2  2  0  0  0
  1  6  1  0  0  0
  2  3  1  0  0  0
  3  4  2  0  0  0
  4  5  1  0  0  0
  4  7  1  0  0  0
  5  6  2  0  0  0
  7  8  1  0  0  0
  7  9  2  0  0  0
  8 10  1  0  0  0
M  END
> <minimizedAffinity>
-5.88549

$$$$
1SV3_ANN_A_347


 12 12  0  0  0  0  0  0  0  0999 V2000
   48.5859   31.5518    3.7569 C   0  0  0  0  0  0  0  0  0  0  0  0
   48.9914   32.4889    4.7008 C   0  0  0  0  0  0  0  0  0  0  0  0
   50.1646   33.2187    4.5307 C   0  0  0  0  0  0  0  0  0  0  0  0
   50.9517   33.0188    3.4018 C   0  0  0  0  0  0  0  0  0  0  0  0
   50.5566   32.0811    2.4594 C   0  0  0  0  0  0  0  0  0  0  0  0
   49.3793   31.3531    2.6270 C   0  0  0  0  0  0  0  0  0  0  0  0
   52.2201   33.7997    3.1954 C   0  0  0  0  0  0  0  0  0  0  0  0
   52.4706   34.3546    2.1317 O   0  0  0  0  0  0  0  0  0  0  0  0
   53.0813   33.8926    4.1919 O   0  0  0  0  0  0  0  0  0  0  0  0
   51.8661   34.2949    1.4183 H   0  0  0  0  0  0  0  0  0  0  0  0
   47.2639   29.8378    4.9727 C   0  0  0  0  0  0  0  0  0  0  0  0
   47.4158   30.8502    3.9703 O   0  0  0  0  0  0  0  0  0  0  0  0
 11 12  1  0  0  0
 12  1  1  0  0  0
  1  2  2  0  0  0
  1  6  1  0  0  0
  2  3  1  0  0  0
  3  4  2  0  0  0
  4  5  1  0  0  0
  4  7  1  0  0  0
  5  6  2  0  0  0
  7  8  1  0  0  0
  7  9  2  0  0  0
  8 10  1  0  0  0
M  END
> <minimizedAffinity>
-5.79002

$$$$
1SV3_ANN_A_347


 12 12  0  0  0  0  0  0  0  0999 V2000
   48.6050   31.5343    3.7588 C   0  0  0  0  0  0  0  0  0  0  0  0
   49.3785   31.3508    2.6180 C   0  0  0  0  0  0  0  0  0  0  0  0
   50.5426   32.0862    2.4132 C   0  0  0  0  0  0  0  0  0  0  0  0
   50.9512   33.0209    3.3583 C   0  0  0  0  0  0  0  0  0  0  0  0
   50.1811   33.2136    4.4955 C   0  0  0  0  0  0  0  0  0  0  0  0
   49.0174   32.4741    4.7033 C   0  0  0  0  0  0  0  0  0  0  0  0
   52.2079   33.8227    3.1599 C   0  0  0  0  0  0  0  0  0  0  0  0
   52.4735   34.3514    2.0867 O   0  0  0  0  0  0  0  0  0  0  0  0
   53.0414   33.9633    4.1741 O   0  0  0  0  0  0  0  0  0  0  0  0
   51.8886   34.2577    1.3607 H   0  0  0  0  0  0  0  0  0  0  0  0
   47.2266   29.9006    5.0217 C   0  0  0  0  0  0  0  0  0  0  0  0
   47.4570   30.7832    3.9168 O   0  0  0  0  0  0  0  0  0  0  0  0
 11 12  1  0  0  0
 12  1  1  0  0  0
  1  2  2  0  0  0
  1  6  1  0  0  0
  2  3  1  0  0  0
  3  4  2  0  0  0
  4  5  1  0  0  0
  4  7  1  0  0  0
  5  6  2  0  0  0
  7  8  1  0  0  0
  7  9  2  0  0  0
  8 10  1  0  0  0
M  END
> <minimizedAffinity>
-5.77390

$$$$
1SV3_ANN_A_347


 12 12  0  0  0  0  0  0  0  0999 V2000
   50.9385   32.5411    3.3442 C   0  0  0  0  0  0  0  0  0  0  0  0
   50.1796   33.0814    4.3764 C   0  0  0  0  0  0  0  0  0  0  0  0
   48.8371   32.7477    4.5319 C   0  0  0  0  0  0  0  0  0  0  0  0
   48.2335   31.8588    3.6490 C   0  0  0  0  0  0  0  0  0  0  0  0
   48.9830   31.3209    2.6134 C   0  0  0  0  0  0  0  0  0  0  0  0
   50.3288   31.6513    2.4598 C   0  0  0  0  0  0  0  0  0  0  0  0
   46.7862   31.4804    3.8013 C   0  0  0  0  0  0  0  0  0  0  0  0
   45.9144   31.9624    3.0873 O   0  0  0  0  0  0  0  0  0  0  0  0
   46.4510   30.5999    4.7263 O   0  0  0  0  0  0  0  0  0  0  0  0
   46.1417   32.5881    2.4279 H   0  0  0  0  0  0  0  0  0  0  0  0
   52.7912   34.1606    3.6734 C   0  0  0  0  0  0  0  0  0  0  0  0
   52.2659   32.9039    3.2288 O   0  0  0  0  0  0  0  0  0  0  0  0
 11 12  1  0  0  0
 12  1  1  0  0  0
  1  2  2  0  0  0
  1  6  1  0  0  0
  2  3  1  0  0  0
  3  4  2  0  0  0
  4  5  1  0  0  0
  4  7  1  0  0  0
  5  6  2  0  0  0
  7  8  1  0  0  0
  7  9  2  0  0  0
  8 10  1  0  0  0
M  END
> <minimizedAffinity>
-5.58700

$$$$
1SV3_ANN_A_347


 12 12  0  0  0  0  0  0  0  0999 V2000
   50.9525   32.5775    3.4384 C   0  0  0  0  0  0  0  0  0  0  0  0
   50.3696   31.6905    2.5402 C   0  0  0  0  0  0  0  0  0  0  0  0
   49.0335   31.3193    2.6616 C   0  0  0  0  0  0  0  0  0  0  0  0
   48.2572   31.8386    3.6919 C   0  0  0  0  0  0  0  0  0  0  0  0
   48.8338   32.7190    4.5952 C   0  0  0  0  0  0  0  0  0  0  0  0
   50.1709   33.0946    4.4715 C   0  0  0  0  0  0  0  0  0  0  0  0
   46.8105   31.4554    3.8389 C   0  0  0  0  0  0  0  0  0  0  0  0
   46.4383   30.6530    4.6872 O   0  0  0  0  0  0  0  0  0  0  0  0
   45.9200   32.0055    3.0342 O   0  0  0  0  0  0  0  0  0  0  0  0
   47.0623   30.2569    5.2632 H   0  0  0  0  0  0  0  0  0  0  0  0
   52.7958   34.2406    3.4508 C   0  0  0  0  0  0  0  0  0  0  0  0
   52.2823   32.9141    3.2789 O   0  0  0  0  0  0  0  0  0  0  0  0
 11 12  1  0  0  0
 12  1  1  0  0  0
  1  2  2  0  0  0
  1  6  1  0  0  0
  2  3  1  0  0  0
  3  4  2  0  0  0
  4  5  1  0  0  0
  4  7  1  0  0  0
  5  6  2  0  0  0
  7  8  1  0  0  0
  7  9  2  0  0  0
  8 10  1  0  0  0
M  END
> <minimizedAffinity>
-5.56028

$$$$
1SV3_ANN_A_347


 12 12  0  0  0  0  0  0  0  0999 V2000
   49.1166   31.7954    3.8084 C   0  0  0  0  0  0  0  0  0  0  0  0
   50.2242   32.0382    3.0035 C   0  0  0  0  0  0  0  0  0  0  0  0
   51.2004   32.9553    3.3823 C   0  0  0  0  0  0  0  0  0  0  0  0
   51.0796   33.6449    4.5839 C   0  0  0  0  0  0  0  0  0  0  0  0
   49.9742   33.4123    5.3887 C   0  0  0  0  0  0  0  0  0  0  0  0
   48.9983   32.4905    5.0119 C   0  0  0  0  0  0  0  0  0  0  0  0
   52.1248   34.6363    5.0151 C   0  0  0  0  0  0  0  0  0  0  0  0
   52.2026   35.7516    4.5131 O   0  0  0  0  0  0  0  0  0  0  0  0
   52.9754   34.2937    5.9651 O   0  0  0  0  0  0  0  0  0  0  0  0
   51.6038   36.0045    3.8383 H   0  0  0  0  0  0  0  0  0  0  0  0
   47.6242   29.8570    4.2311 C   0  0  0  0  0  0  0  0  0  0  0  0
   48.1731   30.8783    3.3895 O   0  0  0  0  0  0  0  0  0  0  0  0
 11 12  1  0  0  0
 12  1  1  0  0  0
  1  2  2  0  0  0
  1  6  1  0  0  0
  2  3  1  0  0  0
  3  4  2  0  0  0
  4  5  1  0  0  0
  4  7  1  0  0  0
  5  6  2  0  0  0
  7  8  1  0  0  0
  7  9  2  0  0  0
  8 10  1  0  0  0
M  END
> <minimizedAffinity>
-5.18080

$$$$
1SV3_ANN_A_347


 12 12  0  0  0  0  0  0  0  0999 V2000
   49.4307   31.8597    3.8334 C   0  0  0  0  0  0  0  0  0  0  0  0
   49.0952   32.4555    5.0441 C   0  0  0  0  0  0  0  0  0  0  0  0
   49.8357   33.5198    5.5507 C   0  0  0  0  0  0  0  0  0  0  0  0
   50.9296   34.0064    4.8433 C   0  0  0  0  0  0  0  0  0  0  0  0
   51.2737   33.4127    3.6381 C   0  0  0  0  0  0  0  0  0  0  0  0
   50.5297   32.3496    3.1279 C   0  0  0  0  0  0  0  0  0  0  0  0
   51.7404   35.1584    5.3693 C   0  0  0  0  0  0  0  0  0  0  0  0
   52.8503   34.9946    5.8626 O   0  0  0  0  0  0  0  0  0  0  0  0
   51.2418   36.3784    5.2896 O   0  0  0  0  0  0  0  0  0  0  0  0
   53.2132   34.1329    5.9239 H   0  0  0  0  0  0  0  0  0  0  0  0
   47.9429   29.9114    4.2264 C   0  0  0  0  0  0  0  0  0  0  0  0
   48.6678   30.8049    3.3726 O   0  0  0  0  0  0  0  0  0  0  0  0
 11 12  1  0  0  0
 12  1  1  0  0  0
  1  2  2  0  0  0
  1  6  1  0  0  0
  2  3  1  0  0  0
  3  4  2  0  0  0
  4  5  1  0  0  0
  4  7  1  0  0  0
  5  6  2  0  0  0
  7  8  1  0  0  0
  7  9  2  0  0  0
  8 10  1  0  0  0
M  END
> <minimizedAffinity>
-5.05717

$$$$
1SV3_ANN_A_347


 12 12  0  0  0  0  0  0  0  0999 V2000
   49.2768   36.1507    5.5765 C   0  0  0  0  0  0  0  0  0  0  0  0
   49.8037   36.6960    6.7420 C   0  0  0  0  0  0  0  0  0  0  0  0
   51.0392   36.2839    7.2333 C   0  0  0  0  0  0  0  0  0  0  0  0
   51.7698   35.3137    6.5559 C   0  0  0  0  0  0  0  0  0  0  0  0
   51.2473   34.7609    5.3962 C   0  0  0  0  0  0  0  0  0  0  0  0
   50.0119   35.1765    4.9011 C   0  0  0  0  0  0  0  0  0  0  0  0
   53.1088   34.8574    7.0660 C   0  0  0  0  0  0  0  0  0  0  0  0
   53.8771   34.2052    6.3685 O   0  0  0  0  0  0  0  0  0  0  0  0
   53.4648   35.1759    8.2968 O   0  0  0  0  0  0  0  0  0  0  0  0
   53.6340   33.9740    5.4937 H   0  0  0  0  0  0  0  0  0  0  0  0
   46.9727   36.9744    5.9967 C   0  0  0  0  0  0  0  0  0  0  0  0
   48.0461   36.5894    5.1293 O   0  0  0  0  0  0  0  0  0  0  0  0
 11 12  1  0  0  0
 12  1  1  0  0  0
  1  2  2  0  0  0
  1  6  1  0  0  0
  2  3  1  0  0  0
  3  4  2  0  0  0
  4  5  1  0  0  0
  4  7  1  0  0  0
  5  6  2  0  0  0
  7  8  1  0  0  0
  7  9  2  0  0  0
  8 10  1  0  0  0
M  END
> <minimizedAffinity>
-4.96776

$$$$
1SV3_ANN_A_347


 12 12  0  0  0  0  0  0  0  0999 V2000
   50.3264   35.2658    6.2212 C   0  0  0  0  0  0  0  0  0  0  0  0
   49.4714   34.2695    5.7633 C   0  0  0  0  0  0  0  0  0  0  0  0
   49.8185   33.4667    4.6803 C   0  0  0  0  0  0  0  0  0  0  0  0
   51.0383   33.6520    4.0386 C   0  0  0  0  0  0  0  0  0  0  0  0
   51.8932   34.6482    4.4861 C   0  0  0  0  0  0  0  0  0  0  0  0
   51.5480   35.4496    5.5736 C   0  0  0  0  0  0  0  0  0  0  0  0
   51.4357   32.7930    2.8701 C   0  0  0  0  0  0  0  0  0  0  0  0
   51.5917   31.5825    2.9823 O   0  0  0  0  0  0  0  0  0  0  0  0
   51.6141   33.3616    1.6919 O   0  0  0  0  0  0  0  0  0  0  0  0
   51.4675   31.1693    3.8141 H   0  0  0  0  0  0  0  0  0  0  0  0
   48.6285   35.9968    7.8785 C   0  0  0  0  0  0  0  0  0  0  0  0
   49.9375   36.0387    7.2975 O   0  0  0  0  0  0  0  0  0  0  0  0
 11 12  1  0  0  0
 12  1  1  0  0  0
  1  2  2  0  0  0
  1  6  1  0  0  0
  2  3  1  0  0  0
  3  4  2  0  0  0
  4  5  1  0  0  0
  4  7  1  0  0  0
  5  6  2  0  0  0
  7  8  1  0  0  0
  7  9  2  0  0  0
  8 10  1  0  0  0
M  END
> <minimizedAffinity>
-4.80649

$$$$
1SV3_ANN_A_347


 12 12  0  0  0  0  0  0  0  0999 V2000
   50.9263   34.8717    5.5370 C   0  0  0  0  0  0  0  0  0  0  0  0
   51.6506   34.5351    4.3989 C   0  0  0  0  0  0  0  0  0  0  0  0
   51.2593   33.4755    3.5854 C   0  0  0  0  0  0  0  0  0  0  0  0
   50.1260   32.7349    3.9034 C   0  0  0  0  0  0  0  0  0  0  0  0
   49.4023   33.0611    5.0406 C   0  0  0  0  0  0  0  0  0  0  0  0
   49.7912   34.1252    5.8534 C   0  0  0  0  0  0  0  0  0  0  0  0
   49.6822   31.5895    3.0360 C   0  0  0  0  0  0  0  0  0  0  0  0
   48.9392   30.7107    3.4576 O   0  0  0  0  0  0  0  0  0  0  0  0
   50.1017   31.5368    1.7852 O   0  0  0  0  0  0  0  0  0  0  0  0
   48.6359   30.7389    4.3437 H   0  0  0  0  0  0  0  0  0  0  0  0
   50.4717   36.8158    7.0128 C   0  0  0  0  0  0  0  0  0  0  0  0
   51.3548   35.9295    6.3145 O   0  0  0  0  0  0  0  0  0  0  0  0
 11 12  1  0  0  0
 12  1  1  0  0  0
  1  2  2  0  0  0
  1  6  1  0  0  0
  2  3  1  0  0  0
  3  4  2  0  0  0
  4  5  1  0  0  0
  4  7  1  0  0  0
  5  6  2  0  0  0
  7  8  1  0  0  0
  7  9  2  0  0  0
  8 10  1  0  0  0
M  END
> <minimizedAffinity>
-4.78195

$$$$
