1D6W_00R_A_380


 41 45  0  0  0  0  0  0  0  0999 V2000
   17.6027  -16.0189   22.5005 N   0  0  0  0  0  0  0  0  0  0  0  0
   18.8084  -16.2515   21.8375 C   0  0  0  0  0  0  0  0  0  0  0  0
   19.4657  -17.3002   21.8154 O   0  0  0  0  0  0  0  0  0  0  0  0
   19.1478  -15.0751   21.1700 N   0  0  0  0  0  0  0  0  0  0  0  0
   18.1398  -14.1476   21.4234 N   0  0  0  0  0  0  0  0  0  0  0  0
   17.1914  -14.7107   22.2668 C   0  0  0  0  0  0  0  0  0  0  0  0
   16.1595  -14.1948   22.6894 O   0  0  0  0  0  0  0  0  0  0  0  0
   20.4715  -14.6895   20.7275 C   0  0  0  0  0  0  0  0  0  0  0  0
   20.4782  -13.3667   19.9971 C   0  0  0  0  0  0  0  0  0  0  0  0
   19.3706  -12.5896   19.9944 C   0  0  0  0  0  0  0  0  0  0  0  0
   18.0545  -12.9102   20.6605 C   0  0  0  0  0  0  0  0  0  0  0  0
   16.8870  -13.0752   19.6551 C   0  0  0  0  0  0  0  0  0  0  0  0
   16.9374  -12.5591   18.2909 O   0  0  0  0  0  0  0  0  0  0  0  0
   15.5435  -13.7843   20.1635 N   0  0  0  0  0  0  0  0  0  0  0  0
   15.4635  -14.1907   21.0567 H   0  0  0  0  0  0  0  0  0  0  0  0
   13.8403  -12.2786   18.8638 C   0  0  0  0  0  0  0  0  0  0  0  0
   14.4273  -13.7811   19.1827 C   0  0  0  0  0  0  0  0  0  0  0  0
   13.2447  -14.7188   19.5948 C   0  0  0  0  0  0  0  0  0  0  0  0
   12.1615  -14.0438   20.6495 C   0  0  0  0  0  0  0  0  0  0  0  0
   12.8891  -12.7313   21.3222 C   0  0  0  0  0  0  0  0  0  0  0  0
   13.2768  -11.6270   20.2790 C   0  0  0  0  0  0  0  0  0  0  0  0
   12.1207  -12.2710   22.1747 C   0  0  0  0  0  0  0  0  0  0  0  0
   11.5385  -12.9446   23.2585 N   0  0  0  0  0  0  0  0  0  0  0  0
   10.8047  -12.0705   24.0064 C   0  0  0  0  0  0  0  0  0  0  0  0
   10.8910  -10.8653   23.4836 N   0  0  0  0  0  0  0  0  0  0  0  0
   11.7650  -11.0073   22.2917 C   0  0  0  0  0  0  0  0  0  0  0  0
   10.1244  -12.5147   25.0674 N   0  0  0  0  0  0  0  0  0  0  0  0
   11.6435  -13.9044   23.4508 H   0  0  0  0  0  0  0  0  0  0  0  0
   10.1742  -13.4645   25.3217 H   0  0  0  0  0  0  0  0  0  0  0  0
    9.5734  -11.8921   25.5947 H   0  0  0  0  0  0  0  0  0  0  0  0
   16.8355  -16.9975   23.2540 C   0  0  0  0  0  0  0  0  0  0  0  0
   16.9900  -16.8461   24.7446 C   0  0  0  0  0  0  0  0  0  0  0  0
   18.5067  -17.5427   25.3827 S   0  0  0  0  0  0  0  0  0  0  0  0
   18.2540  -17.7938   26.8156 O   0  0  0  0  0  0  0  0  0  0  0  0
   18.8017  -18.7255   24.5894 O   0  0  0  0  0  0  0  0  0  0  0  0
   19.7482  -16.2853   25.2174 C   0  0  0  0  0  0  0  0  0  0  0  0
   19.4312  -14.9314   25.3766 C   0  0  0  0  0  0  0  0  0  0  0  0
   20.4089  -13.9612   25.1875 C   0  0  0  0  0  0  0  0  0  0  0  0
   21.7024  -14.3185   24.8485 C   0  0  0  0  0  0  0  0  0  0  0  0
   22.0468  -15.6527   24.6982 C   0  0  0  0  0  0  0  0  0  0  0  0
   21.0719  -16.6286   24.8828 C   0  0  0  0  0  0  0  0  0  0  0  0
 16 17  1  0  0  0
 16 21  1  0  0  0
 17 18  1  0  0  0
 17 14  1  0  0  0
 18 19  1  0  0  0
 19 20  1  0  0  0
 21 20  1  0  0  0
 20 22  1  0  0  0
  2  1  1  0  0  0
  6  1  1  0  0  0
  1 31  1  0  0  0
  4  2  1  0  0  0
  3  2  2  0  0  0
  8  4  1  0  0  0
  4  5  1  0  0  0
 11  5  1  0  0  0
  5  6  1  0  0  0
  6  7  2  0  0  0
  9  8  1  0  0  0
  9 10  2  0  0  0
 10 11  1  0  0  0
 12 11  1  0  0  0
 13 12  2  0  0  0
 12 14  1  0  0  0
 22 26  2  0  0  0
 22 23  1  0  0  0
 23 24  1  0  0  0
 25 24  2  0  0  0
 24 27  1  0  0  0
 26 25  1  0  0  0
 31 32  1  0  0  0
 32 33  1  0  0  0
 36 33  1  0  0  0
 33 34  2  0  0  0
 33 35  2  0  0  0
 41 36  2  0  0  0
 36 37  1  0  0  0
 38 37  2  0  0  0
 39 38  1  0  0  0
 40 39  2  0  0  0
 40 41  1  0  0  0
 14 15  1  0  0  0
 23 28  1  0  0  0
 27 29  1  0  0  0
 27 30  1  0  0  0
M  END
> <minimizedAffinity>
-10.12948

$$$$
1D6W_00R_A_380


 41 45  0  0  0  0  0  0  0  0999 V2000
   15.6477  -17.8386   21.6498 N   0  0  0  0  0  0  0  0  0  0  0  0
   14.3385  -17.7863   22.1298 C   0  0  0  0  0  0  0  0  0  0  0  0
   13.9583  -17.9341   23.2985 O   0  0  0  0  0  0  0  0  0  0  0  0
   13.5092  -17.5133   21.0424 N   0  0  0  0  0  0  0  0  0  0  0  0
   14.3236  -17.3897   19.9191 N   0  0  0  0  0  0  0  0  0  0  0  0
   15.6461  -17.6148   20.2768 C   0  0  0  0  0  0  0  0  0  0  0  0
   16.6385  -17.5744   19.5535 O   0  0  0  0  0  0  0  0  0  0  0  0
   12.0906  -17.7900   20.9528 C   0  0  0  0  0  0  0  0  0  0  0  0
   11.4891  -17.3268   19.6463 C   0  0  0  0  0  0  0  0  0  0  0  0
   12.2935  -16.9128   18.6401 C   0  0  0  0  0  0  0  0  0  0  0  0
   13.8010  -16.8441   18.6742 C   0  0  0  0  0  0  0  0  0  0  0  0
   14.3481  -15.4000   18.5452 C   0  0  0  0  0  0  0  0  0  0  0  0
   15.5621  -15.0763   17.8027 O   0  0  0  0  0  0  0  0  0  0  0  0
   13.5802  -14.2266   19.3196 N   0  0  0  0  0  0  0  0  0  0  0  0
   12.7338  -14.3737   19.8004 H   0  0  0  0  0  0  0  0  0  0  0  0
   15.1899  -12.5766   20.5621 C   0  0  0  0  0  0  0  0  0  0  0  0
   14.2444  -12.8990   19.2560 C   0  0  0  0  0  0  0  0  0  0  0  0
   13.2393  -11.7187   19.0446 C   0  0  0  0  0  0  0  0  0  0  0  0
   12.5246  -11.1617   20.4304 C   0  0  0  0  0  0  0  0  0  0  0  0
   12.7319  -12.3157   21.5837 C   0  0  0  0  0  0  0  0  0  0  0  0
   14.2364  -12.6050   21.9167 C   0  0  0  0  0  0  0  0  0  0  0  0
   12.1272  -11.9473   22.5973 C   0  0  0  0  0  0  0  0  0  0  0  0
   11.4220  -12.7427   23.5126 N   0  0  0  0  0  0  0  0  0  0  0  0
   10.9525  -11.9681   24.5331 C   0  0  0  0  0  0  0  0  0  0  0  0
   11.3268  -10.7200   24.3450 N   0  0  0  0  0  0  0  0  0  0  0  0
   12.1052  -10.7213   23.0806 C   0  0  0  0  0  0  0  0  0  0  0  0
   10.2099  -12.5205   25.4970 N   0  0  0  0  0  0  0  0  0  0  0  0
   11.2862  -13.7143   23.4309 H   0  0  0  0  0  0  0  0  0  0  0  0
   10.0248  -13.4873   25.4828 H   0  0  0  0  0  0  0  0  0  0  0  0
    9.8479  -11.9606   26.2214 H   0  0  0  0  0  0  0  0  0  0  0  0
   16.8486  -18.0146   22.4506 C   0  0  0  0  0  0  0  0  0  0  0  0
   17.3333  -16.7326   23.0749 C   0  0  0  0  0  0  0  0  0  0  0  0
   19.0878  -16.4572   22.8772 S   0  0  0  0  0  0  0  0  0  0  0  0
   19.5705  -16.0183   24.2017 O   0  0  0  0  0  0  0  0  0  0  0  0
   19.6639  -17.7002   22.3888 O   0  0  0  0  0  0  0  0  0  0  0  0
   19.2617  -15.1247   21.7180 C   0  0  0  0  0  0  0  0  0  0  0  0
   18.1582  -14.6326   21.0116 C   0  0  0  0  0  0  0  0  0  0  0  0
   18.3289  -13.6257   20.0683 C   0  0  0  0  0  0  0  0  0  0  0  0
   19.5828  -13.0943   19.8212 C   0  0  0  0  0  0  0  0  0  0  0  0
   20.6905  -13.5535   20.5164 C   0  0  0  0  0  0  0  0  0  0  0  0
   20.5269  -14.5637   21.4597 C   0  0  0  0  0  0  0  0  0  0  0  0
 16 17  1  0  0  0
 16 21  1  0  0  0
 17 18  1  0  0  0
 17 14  1  0  0  0
 18 19  1  0  0  0
 19 20  1  0  0  0
 21 20  1  0  0  0
 20 22  1  0  0  0
  2  1  1  0  0  0
  6  1  1  0  0  0
  1 31  1  0  0  0
  4  2  1  0  0  0
  3  2  2  0  0  0
  8  4  1  0  0  0
  4  5  1  0  0  0
 11  5  1  0  0  0
  5  6  1  0  0  0
  6  7  2  0  0  0
  9  8  1  0  0  0
  9 10  2  0  0  0
 10 11  1  0  0  0
 12 11  1  0  0  0
 13 12  2  0  0  0
 12 14  1  0  0  0
 22 26  2  0  0  0
 22 23  1  0  0  0
 23 24  1  0  0  0
 25 24  2  0  0  0
 24 27  1  0  0  0
 26 25  1  0  0  0
 31 32  1  0  0  0
 32 33  1  0  0  0
 36 33  1  0  0  0
 33 34  2  0  0  0
 33 35  2  0  0  0
 41 36  2  0  0  0
 36 37  1  0  0  0
 38 37  2  0  0  0
 39 38  1  0  0  0
 40 39  2  0  0  0
 40 41  1  0  0  0
 14 15  1  0  0  0
 23 28  1  0  0  0
 27 29  1  0  0  0
 27 30  1  0  0  0
M  END
> <minimizedAffinity>
-10.07486

$$$$
1D6W_00R_A_380


 41 45  0  0  0  0  0  0  0  0999 V2000
   15.4553  -18.2667   21.5548 N   0  0  0  0  0  0  0  0  0  0  0  0
   14.1302  -18.1519   21.9768 C   0  0  0  0  0  0  0  0  0  0  0  0
   13.6993  -18.2276   23.1347 O   0  0  0  0  0  0  0  0  0  0  0  0
   13.3538  -17.9120   20.8435 N   0  0  0  0  0  0  0  0  0  0  0  0
   14.2158  -17.8705   19.7501 N   0  0  0  0  0  0  0  0  0  0  0  0
   15.5154  -18.1147   20.1733 C   0  0  0  0  0  0  0  0  0  0  0  0
   16.5366  -18.1406   19.4906 O   0  0  0  0  0  0  0  0  0  0  0  0
   11.9321  -18.1521   20.7094 C   0  0  0  0  0  0  0  0  0  0  0  0
   11.3978  -17.7404   19.3572 C   0  0  0  0  0  0  0  0  0  0  0  0
   12.2541  -17.4026   18.3655 C   0  0  0  0  0  0  0  0  0  0  0  0
   13.7604  -17.3756   18.4585 C   0  0  0  0  0  0  0  0  0  0  0  0
   14.3566  -15.9567   18.2790 C   0  0  0  0  0  0  0  0  0  0  0  0
   15.3563  -15.6399   17.2640 O   0  0  0  0  0  0  0  0  0  0  0  0
   13.9012  -14.8087   19.2994 N   0  0  0  0  0  0  0  0  0  0  0  0
   13.2002  -14.9483   19.9764 H   0  0  0  0  0  0  0  0  0  0  0  0
   15.5153  -13.1044   20.4602 C   0  0  0  0  0  0  0  0  0  0  0  0
   14.6188  -13.5168   19.1448 C   0  0  0  0  0  0  0  0  0  0  0  0
   13.6712  -12.3281   18.7748 C   0  0  0  0  0  0  0  0  0  0  0  0
   12.9160  -11.6175   20.0656 C   0  0  0  0  0  0  0  0  0  0  0  0
   13.0251  -12.6629   21.3304 C   0  0  0  0  0  0  0  0  0  0  0  0
   14.5003  -12.9708   21.7628 C   0  0  0  0  0  0  0  0  0  0  0  0
   12.3894  -12.1790   22.2742 C   0  0  0  0  0  0  0  0  0  0  0  0
   11.5524  -12.8494   23.1784 N   0  0  0  0  0  0  0  0  0  0  0  0
   11.0882  -11.9733   24.1160 C   0  0  0  0  0  0  0  0  0  0  0  0
   11.5890  -10.7777   23.8857 N   0  0  0  0  0  0  0  0  0  0  0  0
   12.4486  -10.9279   22.6843 C   0  0  0  0  0  0  0  0  0  0  0  0
   10.2333  -12.3958   25.0521 N   0  0  0  0  0  0  0  0  0  0  0  0
   11.3327  -13.8083   23.1420 H   0  0  0  0  0  0  0  0  0  0  0  0
    9.9605  -13.3413   25.0790 H   0  0  0  0  0  0  0  0  0  0  0  0
    9.8762  -11.7614   25.7149 H   0  0  0  0  0  0  0  0  0  0  0  0
   16.6172  -18.4353   22.4125 C   0  0  0  0  0  0  0  0  0  0  0  0
   17.1058  -17.1392   23.0040 C   0  0  0  0  0  0  0  0  0  0  0  0
   18.5202  -16.4519   22.1555 S   0  0  0  0  0  0  0  0  0  0  0  0
   19.3043  -17.6131   21.6899 O   0  0  0  0  0  0  0  0  0  0  0  0
   18.0098  -15.5872   21.1033 O   0  0  0  0  0  0  0  0  0  0  0  0
   19.4558  -15.5624   23.3734 C   0  0  0  0  0  0  0  0  0  0  0  0
   18.9595  -15.3710   24.6680 C   0  0  0  0  0  0  0  0  0  0  0  0
   19.6860  -14.6234   25.5879 C   0  0  0  0  0  0  0  0  0  0  0  0
   20.9052  -14.0676   25.2411 C   0  0  0  0  0  0  0  0  0  0  0  0
   21.4265  -14.2532   23.9702 C   0  0  0  0  0  0  0  0  0  0  0  0
   20.7026  -14.9978   23.0436 C   0  0  0  0  0  0  0  0  0  0  0  0
 16 17  1  0  0  0
 16 21  1  0  0  0
 17 18  1  0  0  0
 17 14  1  0  0  0
 18 19  1  0  0  0
 19 20  1  0  0  0
 21 20  1  0  0  0
 20 22  1  0  0  0
  2  1  1  0  0  0
  6  1  1  0  0  0
  1 31  1  0  0  0
  4  2  1  0  0  0
  3  2  2  0  0  0
  8  4  1  0  0  0
  4  5  1  0  0  0
 11  5  1  0  0  0
  5  6  1  0  0  0
  6  7  2  0  0  0
  9  8  1  0  0  0
  9 10  2  0  0  0
 10 11  1  0  0  0
 12 11  1  0  0  0
 13 12  2  0  0  0
 12 14  1  0  0  0
 22 26  2  0  0  0
 22 23  1  0  0  0
 23 24  1  0  0  0
 25 24  2  0  0  0
 24 27  1  0  0  0
 26 25  1  0  0  0
 31 32  1  0  0  0
 32 33  1  0  0  0
 36 33  1  0  0  0
 33 34  2  0  0  0
 33 35  2  0  0  0
 41 36  2  0  0  0
 36 37  1  0  0  0
 38 37  2  0  0  0
 39 38  1  0  0  0
 40 39  2  0  0  0
 40 41  1  0  0  0
 14 15  1  0  0  0
 23 28  1  0  0  0
 27 29  1  0  0  0
 27 30  1  0  0  0
M  END
> <minimizedAffinity>
-9.79063

$$$$
1D6W_00R_A_380


 41 45  0  0  0  0  0  0  0  0999 V2000
   17.6154  -16.0816   22.5338 N   0  0  0  0  0  0  0  0  0  0  0  0
   18.7852  -16.3512   21.8223 C   0  0  0  0  0  0  0  0  0  0  0  0
   19.3988  -17.4245   21.7606 O   0  0  0  0  0  0  0  0  0  0  0  0
   19.1460  -15.1789   21.1588 N   0  0  0  0  0  0  0  0  0  0  0  0
   18.1861  -14.2165   21.4633 N   0  0  0  0  0  0  0  0  0  0  0  0
   17.2481  -14.7548   22.3341 C   0  0  0  0  0  0  0  0  0  0  0  0
   16.2542  -14.2053   22.8029 O   0  0  0  0  0  0  0  0  0  0  0  0
   20.4666  -14.8389   20.6717 C   0  0  0  0  0  0  0  0  0  0  0  0
   20.4987  -13.5063   19.9601 C   0  0  0  0  0  0  0  0  0  0  0  0
   19.4236  -12.6862   20.0103 C   0  0  0  0  0  0  0  0  0  0  0  0
   18.1217  -12.9651   20.7215 C   0  0  0  0  0  0  0  0  0  0  0  0
   16.9117  -13.0684   19.7590 C   0  0  0  0  0  0  0  0  0  0  0  0
   17.0451  -12.9923   18.3076 O   0  0  0  0  0  0  0  0  0  0  0  0
   15.4466  -13.1962   20.3944 N   0  0  0  0  0  0  0  0  0  0  0  0
   15.2950  -13.2956   21.3620 H   0  0  0  0  0  0  0  0  0  0  0  0
   13.6698  -11.6587   19.2384 C   0  0  0  0  0  0  0  0  0  0  0  0
   14.3344  -13.1529   19.4101 C   0  0  0  0  0  0  0  0  0  0  0  0
   13.2017  -14.1876   19.7172 C   0  0  0  0  0  0  0  0  0  0  0  0
   12.0818  -13.6790   20.8256 C   0  0  0  0  0  0  0  0  0  0  0  0
   12.7375  -12.4044   21.6318 C   0  0  0  0  0  0  0  0  0  0  0  0
   13.0692  -11.1825   20.7072 C   0  0  0  0  0  0  0  0  0  0  0  0
   11.9439  -12.0725   22.5199 C   0  0  0  0  0  0  0  0  0  0  0  0
   11.4713  -12.8540   23.5845 N   0  0  0  0  0  0  0  0  0  0  0  0
   10.6617  -12.1031   24.3861 C   0  0  0  0  0  0  0  0  0  0  0  0
   10.5953  -10.8751   23.9160 N   0  0  0  0  0  0  0  0  0  0  0  0
   11.4484  -10.8646   22.7007 C   0  0  0  0  0  0  0  0  0  0  0  0
   10.0648  -12.6673   25.4402 N   0  0  0  0  0  0  0  0  0  0  0  0
   11.6909  -13.8024   23.7314 H   0  0  0  0  0  0  0  0  0  0  0  0
   10.2300  -13.6148   25.6506 H   0  0  0  0  0  0  0  0  0  0  0  0
    9.4599  -12.1356   26.0063 H   0  0  0  0  0  0  0  0  0  0  0  0
   16.8385  -17.0408   23.3023 C   0  0  0  0  0  0  0  0  0  0  0  0
   16.3827  -18.2202   22.4839 C   0  0  0  0  0  0  0  0  0  0  0  0
   14.6530  -18.1593   22.0397 S   0  0  0  0  0  0  0  0  0  0  0  0
   14.1658  -19.5481   22.1573 O   0  0  0  0  0  0  0  0  0  0  0  0
   14.0157  -17.2021   22.9302 O   0  0  0  0  0  0  0  0  0  0  0  0
   14.5862  -17.6560   20.3392 C   0  0  0  0  0  0  0  0  0  0  0  0
   13.4852  -17.9718   19.5347 C   0  0  0  0  0  0  0  0  0  0  0  0
   13.4805  -17.6148   18.1911 C   0  0  0  0  0  0  0  0  0  0  0  0
   14.5539  -16.9405   17.6354 C   0  0  0  0  0  0  0  0  0  0  0  0
   15.6509  -16.6031   18.4127 C   0  0  0  0  0  0  0  0  0  0  0  0
   15.6633  -16.9605   19.7577 C   0  0  0  0  0  0  0  0  0  0  0  0
 16 17  1  0  0  0
 16 21  1  0  0  0
 17 18  1  0  0  0
 17 14  1  0  0  0
 18 19  1  0  0  0
 19 20  1  0  0  0
 21 20  1  0  0  0
 20 22  1  0  0  0
  2  1  1  0  0  0
  6  1  1  0  0  0
  1 31  1  0  0  0
  4  2  1  0  0  0
  3  2  2  0  0  0
  8  4  1  0  0  0
  4  5  1  0  0  0
 11  5  1  0  0  0
  5  6  1  0  0  0
  6  7  2  0  0  0
  9  8  1  0  0  0
  9 10  2  0  0  0
 10 11  1  0  0  0
 12 11  1  0  0  0
 13 12  2  0  0  0
 12 14  1  0  0  0
 22 26  2  0  0  0
 22 23  1  0  0  0
 23 24  1  0  0  0
 25 24  2  0  0  0
 24 27  1  0  0  0
 26 25  1  0  0  0
 31 32  1  0  0  0
 32 33  1  0  0  0
 36 33  1  0  0  0
 33 34  2  0  0  0
 33 35  2  0  0  0
 41 36  2  0  0  0
 36 37  1  0  0  0
 38 37  2  0  0  0
 39 38  1  0  0  0
 40 39  2  0  0  0
 40 41  1  0  0  0
 14 15  1  0  0  0
 23 28  1  0  0  0
 27 29  1  0  0  0
 27 30  1  0  0  0
M  END
> <minimizedAffinity>
-9.59647

$$$$
1D6W_00R_A_380


 41 45  0  0  0  0  0  0  0  0999 V2000
   16.1537  -14.3991   20.3723 N   0  0  0  0  0  0  0  0  0  0  0  0
   16.7706  -13.2107   19.9795 C   0  0  0  0  0  0  0  0  0  0  0  0
   16.2233  -12.1714   19.5888 O   0  0  0  0  0  0  0  0  0  0  0  0
   18.1460  -13.3906   20.1233 N   0  0  0  0  0  0  0  0  0  0  0  0
   18.3477  -14.6787   20.6136 N   0  0  0  0  0  0  0  0  0  0  0  0
   17.1246  -15.3222   20.7470 C   0  0  0  0  0  0  0  0  0  0  0  0
   16.9139  -16.4588   21.1633 O   0  0  0  0  0  0  0  0  0  0  0  0
   19.1858  -12.6372   19.4539 C   0  0  0  0  0  0  0  0  0  0  0  0
   20.5738  -13.0645   19.8711 C   0  0  0  0  0  0  0  0  0  0  0  0
   20.7424  -14.1788   20.6199 C   0  0  0  0  0  0  0  0  0  0  0  0
   19.6484  -15.0880   21.1248 C   0  0  0  0  0  0  0  0  0  0  0  0
   19.5422  -15.1133   22.6706 C   0  0  0  0  0  0  0  0  0  0  0  0
   19.6355  -13.9099   23.4909 O   0  0  0  0  0  0  0  0  0  0  0  0
   19.3917  -16.5334   23.3967 N   0  0  0  0  0  0  0  0  0  0  0  0
   19.2801  -17.3749   22.8980 H   0  0  0  0  0  0  0  0  0  0  0  0
   19.6921  -17.9478   25.5799 C   0  0  0  0  0  0  0  0  0  0  0  0
   19.4334  -16.4820   24.8811 C   0  0  0  0  0  0  0  0  0  0  0  0
   18.1572  -15.8305   25.5094 C   0  0  0  0  0  0  0  0  0  0  0  0
   16.8761  -16.8621   25.7001 C   0  0  0  0  0  0  0  0  0  0  0  0
   17.1600  -18.1732   24.7487 C   0  0  0  0  0  0  0  0  0  0  0  0
   18.4577  -18.9613   25.1396 C   0  0  0  0  0  0  0  0  0  0  0  0
   16.1690  -18.9094   24.8175 C   0  0  0  0  0  0  0  0  0  0  0  0
   15.9396  -19.9575   25.7210 N   0  0  0  0  0  0  0  0  0  0  0  0
   14.6976  -20.4833   25.5141 C   0  0  0  0  0  0  0  0  0  0  0  0
   14.0991  -19.8268   24.5424 N   0  0  0  0  0  0  0  0  0  0  0  0
   15.0680  -18.7912   24.1026 C   0  0  0  0  0  0  0  0  0  0  0  0
   14.2907  -21.5284   26.2407 N   0  0  0  0  0  0  0  0  0  0  0  0
   16.5790  -20.2674   26.4025 H   0  0  0  0  0  0  0  0  0  0  0  0
   14.8763  -21.9000   26.9395 H   0  0  0  0  0  0  0  0  0  0  0  0
   13.4054  -21.9269   26.0772 H   0  0  0  0  0  0  0  0  0  0  0  0
   14.7215  -14.6326   20.4639 C   0  0  0  0  0  0  0  0  0  0  0  0
   14.0532  -13.7882   21.5170 C   0  0  0  0  0  0  0  0  0  0  0  0
   12.6187  -12.9036   20.9230 S   0  0  0  0  0  0  0  0  0  0  0  0
   13.1197  -12.0032   19.8655 O   0  0  0  0  0  0  0  0  0  0  0  0
   11.6537  -13.8989   20.4830 O   0  0  0  0  0  0  0  0  0  0  0  0
   12.0237  -11.9345   22.2855 C   0  0  0  0  0  0  0  0  0  0  0  0
   12.5620  -10.6730   22.5646 C   0  0  0  0  0  0  0  0  0  0  0  0
   12.1181   -9.9566   23.6704 C   0  0  0  0  0  0  0  0  0  0  0  0
   11.1393  -10.4740   24.5010 C   0  0  0  0  0  0  0  0  0  0  0  0
   10.5793  -11.7148   24.2398 C   0  0  0  0  0  0  0  0  0  0  0  0
   11.0217  -12.4385   23.1363 C   0  0  0  0  0  0  0  0  0  0  0  0
 16 17  1  0  0  0
 16 21  1  0  0  0
 17 18  1  0  0  0
 17 14  1  0  0  0
 18 19  1  0  0  0
 19 20  1  0  0  0
 21 20  1  0  0  0
 20 22  1  0  0  0
  2  1  1  0  0  0
  6  1  1  0  0  0
  1 31  1  0  0  0
  4  2  1  0  0  0
  3  2  2  0  0  0
  8  4  1  0  0  0
  4  5  1  0  0  0
 11  5  1  0  0  0
  5  6  1  0  0  0
  6  7  2  0  0  0
  9  8  1  0  0  0
  9 10  2  0  0  0
 10 11  1  0  0  0
 12 11  1  0  0  0
 13 12  2  0  0  0
 12 14  1  0  0  0
 22 26  2  0  0  0
 22 23  1  0  0  0
 23 24  1  0  0  0
 25 24  2  0  0  0
 24 27  1  0  0  0
 26 25  1  0  0  0
 31 32  1  0  0  0
 32 33  1  0  0  0
 36 33  1  0  0  0
 33 34  2  0  0  0
 33 35  2  0  0  0
 41 36  2  0  0  0
 36 37  1  0  0  0
 38 37  2  0  0  0
 39 38  1  0  0  0
 40 39  2  0  0  0
 40 41  1  0  0  0
 14 15  1  0  0  0
 23 28  1  0  0  0
 27 29  1  0  0  0
 27 30  1  0  0  0
M  END
> <minimizedAffinity>
-9.32412

$$$$
1D6W_00R_A_380


 41 45  0  0  0  0  0  0  0  0999 V2000
   19.2046  -16.2661   23.0401 N   0  0  0  0  0  0  0  0  0  0  0  0
   20.0799  -16.2086   21.9548 C   0  0  0  0  0  0  0  0  0  0  0  0
   20.9245  -17.0504   21.6230 O   0  0  0  0  0  0  0  0  0  0  0  0
   19.8221  -15.0172   21.2774 N   0  0  0  0  0  0  0  0  0  0  0  0
   18.7863  -14.3725   21.9496 N   0  0  0  0  0  0  0  0  0  0  0  0
   18.4133  -15.1222   23.0571 C   0  0  0  0  0  0  0  0  0  0  0  0
   17.5271  -14.8726   23.8707 O   0  0  0  0  0  0  0  0  0  0  0  0
   20.7273  -14.3224   20.3860 C   0  0  0  0  0  0  0  0  0  0  0  0
   20.1126  -13.0792   19.7861 C   0  0  0  0  0  0  0  0  0  0  0  0
   18.9289  -12.6174   20.2513 C   0  0  0  0  0  0  0  0  0  0  0  0
   18.0995  -13.2371   21.3498 C   0  0  0  0  0  0  0  0  0  0  0  0
   16.7210  -13.7468   20.8586 C   0  0  0  0  0  0  0  0  0  0  0  0
   16.4648  -15.1455   20.5300 O   0  0  0  0  0  0  0  0  0  0  0  0
   15.5507  -12.6749   20.6397 N   0  0  0  0  0  0  0  0  0  0  0  0
   15.6481  -11.7261   20.8837 H   0  0  0  0  0  0  0  0  0  0  0  0
   13.2901  -12.0654   19.4670 C   0  0  0  0  0  0  0  0  0  0  0  0
   14.3071  -13.2237   20.0398 C   0  0  0  0  0  0  0  0  0  0  0  0
   13.5201  -14.1649   21.0106 C   0  0  0  0  0  0  0  0  0  0  0  0
   12.5202  -13.3828   22.0736 C   0  0  0  0  0  0  0  0  0  0  0  0
   12.9864  -11.8061   22.1116 C   0  0  0  0  0  0  0  0  0  0  0  0
   12.8567  -11.0814   20.7274 C   0  0  0  0  0  0  0  0  0  0  0  0
   12.3022  -11.2321   22.9667 C   0  0  0  0  0  0  0  0  0  0  0  0
   12.4511   -9.9230   23.4480 N   0  0  0  0  0  0  0  0  0  0  0  0
   11.4560   -9.6413   24.3381 C   0  0  0  0  0  0  0  0  0  0  0  0
   10.6586  -10.6829   24.4494 N   0  0  0  0  0  0  0  0  0  0  0  0
   11.2163  -11.7137   23.5377 C   0  0  0  0  0  0  0  0  0  0  0  0
   11.4345   -8.4561   24.9551 N   0  0  0  0  0  0  0  0  0  0  0  0
   13.1665   -9.3006   23.1832 H   0  0  0  0  0  0  0  0  0  0  0  0
   12.1202   -7.7808   24.7479 H   0  0  0  0  0  0  0  0  0  0  0  0
   10.7330   -8.2583   25.6169 H   0  0  0  0  0  0  0  0  0  0  0  0
   19.0650  -17.3737   23.9717 C   0  0  0  0  0  0  0  0  0  0  0  0
   18.3601  -18.5622   23.3724 C   0  0  0  0  0  0  0  0  0  0  0  0
   16.6585  -18.7243   23.8930 S   0  0  0  0  0  0  0  0  0  0  0  0
   16.5040  -20.1336   24.3053 O   0  0  0  0  0  0  0  0  0  0  0  0
   16.4370  -17.7438   24.9442 O   0  0  0  0  0  0  0  0  0  0  0  0
   15.6605  -18.4202   22.4573 C   0  0  0  0  0  0  0  0  0  0  0  0
   14.3349  -17.9873   22.5771 C   0  0  0  0  0  0  0  0  0  0  0  0
   13.5559  -17.8091   21.4395 C   0  0  0  0  0  0  0  0  0  0  0  0
   14.0788  -18.0488   20.1806 C   0  0  0  0  0  0  0  0  0  0  0  0
   15.3926  -18.4649   20.0325 C   0  0  0  0  0  0  0  0  0  0  0  0
   16.1768  -18.6483   21.1676 C   0  0  0  0  0  0  0  0  0  0  0  0
 16 17  1  0  0  0
 16 21  1  0  0  0
 17 18  1  0  0  0
 17 14  1  0  0  0
 18 19  1  0  0  0
 19 20  1  0  0  0
 21 20  1  0  0  0
 20 22  1  0  0  0
  2  1  1  0  0  0
  6  1  1  0  0  0
  1 31  1  0  0  0
  4  2  1  0  0  0
  3  2  2  0  0  0
  8  4  1  0  0  0
  4  5  1  0  0  0
 11  5  1  0  0  0
  5  6  1  0  0  0
  6  7  2  0  0  0
  9  8  1  0  0  0
  9 10  2  0  0  0
 10 11  1  0  0  0
 12 11  1  0  0  0
 13 12  2  0  0  0
 12 14  1  0  0  0
 22 26  2  0  0  0
 22 23  1  0  0  0
 23 24  1  0  0  0
 25 24  2  0  0  0
 24 27  1  0  0  0
 26 25  1  0  0  0
 31 32  1  0  0  0
 32 33  1  0  0  0
 36 33  1  0  0  0
 33 34  2  0  0  0
 33 35  2  0  0  0
 41 36  2  0  0  0
 36 37  1  0  0  0
 38 37  2  0  0  0
 39 38  1  0  0  0
 40 39  2  0  0  0
 40 41  1  0  0  0
 14 15  1  0  0  0
 23 28  1  0  0  0
 27 29  1  0  0  0
 27 30  1  0  0  0
M  END
> <minimizedAffinity>
-9.29511

$$$$
1D6W_00R_A_380


 41 45  0  0  0  0  0  0  0  0999 V2000
   14.2203  -17.3603   21.0204 N   0  0  0  0  0  0  0  0  0  0  0  0
   14.9120  -17.6582   19.8457 C   0  0  0  0  0  0  0  0  0  0  0  0
   14.7218  -17.1832   18.7186 O   0  0  0  0  0  0  0  0  0  0  0  0
   15.8939  -18.5941   20.1691 N   0  0  0  0  0  0  0  0  0  0  0  0
   15.7965  -18.8435   21.5361 N   0  0  0  0  0  0  0  0  0  0  0  0
   14.7478  -18.1062   22.0695 C   0  0  0  0  0  0  0  0  0  0  0  0
   14.3778  -18.0627   23.2403 O   0  0  0  0  0  0  0  0  0  0  0  0
   16.5474  -19.5055   19.2530 C   0  0  0  0  0  0  0  0  0  0  0  0
   17.5959  -20.3577   19.9293 C   0  0  0  0  0  0  0  0  0  0  0  0
   17.6954  -20.3641   21.2787 C   0  0  0  0  0  0  0  0  0  0  0  0
   16.8451  -19.5689   22.2395 C   0  0  0  0  0  0  0  0  0  0  0  0
   17.6549  -18.5257   23.0501 C   0  0  0  0  0  0  0  0  0  0  0  0
   17.6192  -18.4535   24.5073 O   0  0  0  0  0  0  0  0  0  0  0  0
   18.5129  -17.4394   22.2437 N   0  0  0  0  0  0  0  0  0  0  0  0
   18.6115  -17.4620   21.2644 H   0  0  0  0  0  0  0  0  0  0  0  0
   18.0652  -15.4241   23.8546 C   0  0  0  0  0  0  0  0  0  0  0  0
   19.1485  -16.3951   23.0883 C   0  0  0  0  0  0  0  0  0  0  0  0
   20.1696  -15.5073   22.3029 C   0  0  0  0  0  0  0  0  0  0  0  0
   19.4925  -14.2493   21.4661 C   0  0  0  0  0  0  0  0  0  0  0  0
   17.8843  -14.5646   21.3284 C   0  0  0  0  0  0  0  0  0  0  0  0
   17.1449  -14.6612   22.7075 C   0  0  0  0  0  0  0  0  0  0  0  0
   17.3848  -13.6744   20.6307 C   0  0  0  0  0  0  0  0  0  0  0  0
   17.3948  -13.5732   19.2317 N   0  0  0  0  0  0  0  0  0  0  0  0
   16.6776  -12.4799   18.8417 C   0  0  0  0  0  0  0  0  0  0  0  0
   16.1865  -11.8754   19.9032 N   0  0  0  0  0  0  0  0  0  0  0  0
   16.6466  -12.6737   21.0675 C   0  0  0  0  0  0  0  0  0  0  0  0
   16.5956  -12.1691   17.5446 N   0  0  0  0  0  0  0  0  0  0  0  0
   17.8509  -14.1976   18.6223 H   0  0  0  0  0  0  0  0  0  0  0  0
   17.0303  -12.7424   16.8726 H   0  0  0  0  0  0  0  0  0  0  0  0
   16.1004  -11.3668   17.2610 H   0  0  0  0  0  0  0  0  0  0  0  0
   13.1664  -16.3694   21.1675 C   0  0  0  0  0  0  0  0  0  0  0  0
   13.6841  -14.9550   21.1715 C   0  0  0  0  0  0  0  0  0  0  0  0
   12.5830  -13.7861   20.3878 S   0  0  0  0  0  0  0  0  0  0  0  0
   13.3307  -13.2527   19.2319 O   0  0  0  0  0  0  0  0  0  0  0  0
   11.3616  -14.5035   20.0577 O   0  0  0  0  0  0  0  0  0  0  0  0
   12.3110  -12.4838   21.5624 C   0  0  0  0  0  0  0  0  0  0  0  0
   13.1637  -11.3755   21.6229 C   0  0  0  0  0  0  0  0  0  0  0  0
   12.9628  -10.3953   22.5882 C   0  0  0  0  0  0  0  0  0  0  0  0
   11.9196  -10.4972   23.4922 C   0  0  0  0  0  0  0  0  0  0  0  0
   11.0520  -11.5772   23.4457 C   0  0  0  0  0  0  0  0  0  0  0  0
   11.2496  -12.5636   22.4839 C   0  0  0  0  0  0  0  0  0  0  0  0
 16 17  1  0  0  0
 16 21  1  0  0  0
 17 18  1  0  0  0
 17 14  1  0  0  0
 18 19  1  0  0  0
 19 20  1  0  0  0
 21 20  1  0  0  0
 20 22  1  0  0  0
  2  1  1  0  0  0
  6  1  1  0  0  0
  1 31  1  0  0  0
  4  2  1  0  0  0
  3  2  2  0  0  0
  8  4  1  0  0  0
  4  5  1  0  0  0
 11  5  1  0  0  0
  5  6  1  0  0  0
  6  7  2  0  0  0
  9  8  1  0  0  0
  9 10  2  0  0  0
 10 11  1  0  0  0
 12 11  1  0  0  0
 13 12  2  0  0  0
 12 14  1  0  0  0
 22 26  2  0  0  0
 22 23  1  0  0  0
 23 24  1  0  0  0
 25 24  2  0  0  0
 24 27  1  0  0  0
 26 25  1  0  0  0
 31 32  1  0  0  0
 32 33  1  0  0  0
 36 33  1  0  0  0
 33 34  2  0  0  0
 33 35  2  0  0  0
 41 36  2  0  0  0
 36 37  1  0  0  0
 38 37  2  0  0  0
 39 38  1  0  0  0
 40 39  2  0  0  0
 40 41  1  0  0  0
 14 15  1  0  0  0
 23 28  1  0  0  0
 27 29  1  0  0  0
 27 30  1  0  0  0
M  END
> <minimizedAffinity>
-9.22308

$$$$
1D6W_00R_A_380


 41 45  0  0  0  0  0  0  0  0999 V2000
   13.7292  -15.3818   20.1922 N   0  0  0  0  0  0  0  0  0  0  0  0
   13.9747  -16.0822   19.0105 C   0  0  0  0  0  0  0  0  0  0  0  0
   14.5007  -15.6525   17.9757 O   0  0  0  0  0  0  0  0  0  0  0  0
   13.5315  -17.3902   19.2044 N   0  0  0  0  0  0  0  0  0  0  0  0
   13.0354  -17.4728   20.5034 N   0  0  0  0  0  0  0  0  0  0  0  0
   13.1278  -16.2303   21.1162 C   0  0  0  0  0  0  0  0  0  0  0  0
   12.8018  -15.9305   22.2622 O   0  0  0  0  0  0  0  0  0  0  0  0
   13.1761  -18.3392   18.1701 C   0  0  0  0  0  0  0  0  0  0  0  0
   12.7759  -19.6851   18.7284 C   0  0  0  0  0  0  0  0  0  0  0  0
   12.5839  -19.8357   20.0593 C   0  0  0  0  0  0  0  0  0  0  0  0
   12.7422  -18.7637   21.1101 C   0  0  0  0  0  0  0  0  0  0  0  0
   13.8808  -19.0618   22.1180 C   0  0  0  0  0  0  0  0  0  0  0  0
   13.6318  -19.5047   23.4862 O   0  0  0  0  0  0  0  0  0  0  0  0
   15.3919  -18.8054   21.6520 N   0  0  0  0  0  0  0  0  0  0  0  0
   15.6266  -18.5489   20.7309 H   0  0  0  0  0  0  0  0  0  0  0  0
   16.3436  -17.8335   23.8896 C   0  0  0  0  0  0  0  0  0  0  0  0
   16.4118  -18.9848   22.7176 C   0  0  0  0  0  0  0  0  0  0  0  0
   17.8722  -19.0680   22.1624 C   0  0  0  0  0  0  0  0  0  0  0  0
   18.5919  -17.6028   21.8859 C   0  0  0  0  0  0  0  0  0  0  0  0
   17.3974  -16.4733   21.8420 C   0  0  0  0  0  0  0  0  0  0  0  0
   16.5973  -16.3556   23.1851 C   0  0  0  0  0  0  0  0  0  0  0  0
   17.9155  -15.3891   21.5502 C   0  0  0  0  0  0  0  0  0  0  0  0
   17.2786  -14.1502   21.3859 N   0  0  0  0  0  0  0  0  0  0  0  0
   18.2068  -13.1828   21.1321 C   0  0  0  0  0  0  0  0  0  0  0  0
   19.4105  -13.7163   21.1404 N   0  0  0  0  0  0  0  0  0  0  0  0
   19.2074  -15.1589   21.4269 C   0  0  0  0  0  0  0  0  0  0  0  0
   17.8099  -11.9286   20.8972 N   0  0  0  0  0  0  0  0  0  0  0  0
   16.3073  -14.0009   21.4450 H   0  0  0  0  0  0  0  0  0  0  0  0
   16.8529  -11.7003   20.9328 H   0  0  0  0  0  0  0  0  0  0  0  0
   18.4745  -11.2329   20.6885 H   0  0  0  0  0  0  0  0  0  0  0  0
   14.1083  -14.0055   20.4682 C   0  0  0  0  0  0  0  0  0  0  0  0
   13.2338  -13.0012   19.7646 C   0  0  0  0  0  0  0  0  0  0  0  0
   13.4046  -11.3370   20.3925 S   0  0  0  0  0  0  0  0  0  0  0  0
   14.8312  -11.1920   20.7442 O   0  0  0  0  0  0  0  0  0  0  0  0
   12.9281  -10.4367   19.3544 O   0  0  0  0  0  0  0  0  0  0  0  0
   12.4246  -11.2521   21.8696 C   0  0  0  0  0  0  0  0  0  0  0  0
   12.6137  -10.2279   22.8046 C   0  0  0  0  0  0  0  0  0  0  0  0
   11.8721  -10.2139   23.9805 C   0  0  0  0  0  0  0  0  0  0  0  0
   10.9376  -11.2018   24.2381 C   0  0  0  0  0  0  0  0  0  0  0  0
   10.7203  -12.2200   23.3230 C   0  0  0  0  0  0  0  0  0  0  0  0
   11.4618  -12.2416   22.1455 C   0  0  0  0  0  0  0  0  0  0  0  0
 16 17  1  0  0  0
 16 21  1  0  0  0
 17 18  1  0  0  0
 17 14  1  0  0  0
 18 19  1  0  0  0
 19 20  1  0  0  0
 21 20  1  0  0  0
 20 22  1  0  0  0
  2  1  1  0  0  0
  6  1  1  0  0  0
  1 31  1  0  0  0
  4  2  1  0  0  0
  3  2  2  0  0  0
  8  4  1  0  0  0
  4  5  1  0  0  0
 11  5  1  0  0  0
  5  6  1  0  0  0
  6  7  2  0  0  0
  9  8  1  0  0  0
  9 10  2  0  0  0
 10 11  1  0  0  0
 12 11  1  0  0  0
 13 12  2  0  0  0
 12 14  1  0  0  0
 22 26  2  0  0  0
 22 23  1  0  0  0
 23 24  1  0  0  0
 25 24  2  0  0  0
 24 27  1  0  0  0
 26 25  1  0  0  0
 31 32  1  0  0  0
 32 33  1  0  0  0
 36 33  1  0  0  0
 33 34  2  0  0  0
 33 35  2  0  0  0
 41 36  2  0  0  0
 36 37  1  0  0  0
 38 37  2  0  0  0
 39 38  1  0  0  0
 40 39  2  0  0  0
 40 41  1  0  0  0
 14 15  1  0  0  0
 23 28  1  0  0  0
 27 29  1  0  0  0
 27 30  1  0  0  0
M  END
> <minimizedAffinity>
-9.21570

$$$$
1D6W_00R_A_380


 41 45  0  0  0  0  0  0  0  0999 V2000
   15.9709  -13.6532   20.9328 N   0  0  0  0  0  0  0  0  0  0  0  0
   15.4134  -12.4179   20.6006 C   0  0  0  0  0  0  0  0  0  0  0  0
   15.9602  -11.4804   20.0054 O   0  0  0  0  0  0  0  0  0  0  0  0
   14.0928  -12.4254   21.0487 N   0  0  0  0  0  0  0  0  0  0  0  0
   13.8596  -13.6674   21.6347 N   0  0  0  0  0  0  0  0  0  0  0  0
   15.0214  -14.4265   21.5930 C   0  0  0  0  0  0  0  0  0  0  0  0
   15.1854  -15.5739   22.0006 O   0  0  0  0  0  0  0  0  0  0  0  0
   13.2725  -11.2644   21.3248 C   0  0  0  0  0  0  0  0  0  0  0  0
   11.8715  -11.6314   21.7555 C   0  0  0  0  0  0  0  0  0  0  0  0
   11.5663  -12.9185   22.0400 C   0  0  0  0  0  0  0  0  0  0  0  0
   12.5072  -14.0963   21.9625 C   0  0  0  0  0  0  0  0  0  0  0  0
   12.0899  -15.1403   20.8961 C   0  0  0  0  0  0  0  0  0  0  0  0
   11.4831  -14.7713   19.6211 O   0  0  0  0  0  0  0  0  0  0  0  0
   12.2734  -16.6934   21.2435 N   0  0  0  0  0  0  0  0  0  0  0  0
   12.7151  -17.0042   22.0667 H   0  0  0  0  0  0  0  0  0  0  0  0
   11.3601  -19.1130   20.8328 C   0  0  0  0  0  0  0  0  0  0  0  0
   11.7252  -17.6285   20.2272 C   0  0  0  0  0  0  0  0  0  0  0  0
   12.6562  -17.7960   18.9810 C   0  0  0  0  0  0  0  0  0  0  0  0
   13.8727  -18.9032   19.1698 C   0  0  0  0  0  0  0  0  0  0  0  0
   14.0334  -19.1808   20.7827 C   0  0  0  0  0  0  0  0  0  0  0  0
   12.7463  -19.7821   21.4458 C   0  0  0  0  0  0  0  0  0  0  0  0
   14.9964  -19.9404   20.9396 C   0  0  0  0  0  0  0  0  0  0  0  0
   16.2648  -19.8516   20.3472 N   0  0  0  0  0  0  0  0  0  0  0  0
   17.0706  -20.8420   20.8285 C   0  0  0  0  0  0  0  0  0  0  0  0
   16.4069  -21.5573   21.7124 N   0  0  0  0  0  0  0  0  0  0  0  0
   15.0540  -20.9498   21.7850 C   0  0  0  0  0  0  0  0  0  0  0  0
   18.3158  -20.9695   20.3606 N   0  0  0  0  0  0  0  0  0  0  0  0
   16.5334  -19.1759   19.6835 H   0  0  0  0  0  0  0  0  0  0  0  0
   18.6570  -20.3348   19.6899 H   0  0  0  0  0  0  0  0  0  0  0  0
   18.8919  -21.6983   20.6866 H   0  0  0  0  0  0  0  0  0  0  0  0
   17.3043  -14.1148   20.5821 C   0  0  0  0  0  0  0  0  0  0  0  0
   18.3632  -13.6415   21.5430 C   0  0  0  0  0  0  0  0  0  0  0  0
   19.7800  -14.7261   21.6400 S   0  0  0  0  0  0  0  0  0  0  0  0
   19.2302  -16.0963   21.6276 O   0  0  0  0  0  0  0  0  0  0  0  0
   20.6484  -14.3971   20.5205 O   0  0  0  0  0  0  0  0  0  0  0  0
   20.5465  -14.4155   23.2102 C   0  0  0  0  0  0  0  0  0  0  0  0
   21.9337  -14.5133   23.3691 C   0  0  0  0  0  0  0  0  0  0  0  0
   22.5056  -14.3197   24.6215 C   0  0  0  0  0  0  0  0  0  0  0  0
   21.7174  -14.0226   25.7198 C   0  0  0  0  0  0  0  0  0  0  0  0
   20.3425  -13.9062   25.5877 C   0  0  0  0  0  0  0  0  0  0  0  0
   19.7634  -14.1020   24.3374 C   0  0  0  0  0  0  0  0  0  0  0  0
 16 17  1  0  0  0
 16 21  1  0  0  0
 17 18  1  0  0  0
 17 14  1  0  0  0
 18 19  1  0  0  0
 19 20  1  0  0  0
 21 20  1  0  0  0
 20 22  1  0  0  0
  2  1  1  0  0  0
  6  1  1  0  0  0
  1 31  1  0  0  0
  4  2  1  0  0  0
  3  2  2  0  0  0
  8  4  1  0  0  0
  4  5  1  0  0  0
 11  5  1  0  0  0
  5  6  1  0  0  0
  6  7  2  0  0  0
  9  8  1  0  0  0
  9 10  2  0  0  0
 10 11  1  0  0  0
 12 11  1  0  0  0
 13 12  2  0  0  0
 12 14  1  0  0  0
 22 26  2  0  0  0
 22 23  1  0  0  0
 23 24  1  0  0  0
 25 24  2  0  0  0
 24 27  1  0  0  0
 26 25  1  0  0  0
 31 32  1  0  0  0
 32 33  1  0  0  0
 36 33  1  0  0  0
 33 34  2  0  0  0
 33 35  2  0  0  0
 41 36  2  0  0  0
 36 37  1  0  0  0
 38 37  2  0  0  0
 39 38  1  0  0  0
 40 39  2  0  0  0
 40 41  1  0  0  0
 14 15  1  0  0  0
 23 28  1  0  0  0
 27 29  1  0  0  0
 27 30  1  0  0  0
M  END
> <minimizedAffinity>
-9.09080

$$$$
1D6W_00R_A_380


 41 45  0  0  0  0  0  0  0  0999 V2000
   16.1944  -17.5171   22.5679 N   0  0  0  0  0  0  0  0  0  0  0  0
   15.8035  -18.1915   23.7254 C   0  0  0  0  0  0  0  0  0  0  0  0
   16.2420  -18.0354   24.8724 O   0  0  0  0  0  0  0  0  0  0  0  0
   14.7939  -19.0831   23.3644 N   0  0  0  0  0  0  0  0  0  0  0  0
   14.5739  -18.9309   21.9974 N   0  0  0  0  0  0  0  0  0  0  0  0
   15.4522  -17.9839   21.4879 C   0  0  0  0  0  0  0  0  0  0  0  0
   15.5368  -17.5824   20.3298 O   0  0  0  0  0  0  0  0  0  0  0  0
   14.3931  -20.2684   24.0934 C   0  0  0  0  0  0  0  0  0  0  0  0
   13.2342  -20.9872   23.4428 C   0  0  0  0  0  0  0  0  0  0  0  0
   12.8216  -20.6251   22.2061 C   0  0  0  0  0  0  0  0  0  0  0  0
   13.4058  -19.5210   21.3587 C   0  0  0  0  0  0  0  0  0  0  0  0
   12.4062  -18.3690   21.0852 C   0  0  0  0  0  0  0  0  0  0  0  0
   11.1295  -18.5719   20.4077 O   0  0  0  0  0  0  0  0  0  0  0  0
   12.8292  -16.8824   21.5067 N   0  0  0  0  0  0  0  0  0  0  0  0
   13.6559  -16.6872   22.0044 H   0  0  0  0  0  0  0  0  0  0  0  0
   11.9945  -15.4271   19.4961 C   0  0  0  0  0  0  0  0  0  0  0  0
   11.8773  -15.8211   21.0883 C   0  0  0  0  0  0  0  0  0  0  0  0
   11.9901  -14.5201   21.9499 C   0  0  0  0  0  0  0  0  0  0  0  0
   13.1810  -13.4741   21.4712 C   0  0  0  0  0  0  0  0  0  0  0  0
   14.2094  -14.3164   20.5029 C   0  0  0  0  0  0  0  0  0  0  0  0
   13.5302  -14.8773   19.2060 C   0  0  0  0  0  0  0  0  0  0  0  0
   15.1488  -13.5674   20.2104 C   0  0  0  0  0  0  0  0  0  0  0  0
   16.2255  -13.1834   21.0234 N   0  0  0  0  0  0  0  0  0  0  0  0
   17.0869  -12.4007   20.3113 C   0  0  0  0  0  0  0  0  0  0  0  0
   16.6435  -12.2688   19.0786 N   0  0  0  0  0  0  0  0  0  0  0  0
   15.3802  -13.0470   19.0218 C   0  0  0  0  0  0  0  0  0  0  0  0
   18.1642  -11.8854   20.9108 N   0  0  0  0  0  0  0  0  0  0  0  0
   16.3422  -13.4403   21.9666 H   0  0  0  0  0  0  0  0  0  0  0  0
   18.3476  -12.0917   21.8558 H   0  0  0  0  0  0  0  0  0  0  0  0
   18.7746  -11.2994   20.4075 H   0  0  0  0  0  0  0  0  0  0  0  0
   17.1626  -16.4351   22.4911 C   0  0  0  0  0  0  0  0  0  0  0  0
   18.5838  -16.9032   22.6630 C   0  0  0  0  0  0  0  0  0  0  0  0
   19.8013  -15.7157   22.1148 S   0  0  0  0  0  0  0  0  0  0  0  0
   20.8412  -16.5053   21.4257 O   0  0  0  0  0  0  0  0  0  0  0  0
   19.1080  -14.7447   21.2829 O   0  0  0  0  0  0  0  0  0  0  0  0
   20.4912  -14.9880   23.5791 C   0  0  0  0  0  0  0  0  0  0  0  0
   19.6714  -14.5719   24.6345 C   0  0  0  0  0  0  0  0  0  0  0  0
   20.2303  -13.9540   25.7475 C   0  0  0  0  0  0  0  0  0  0  0  0
   21.5967  -13.7495   25.8302 C   0  0  0  0  0  0  0  0  0  0  0  0
   22.4331  -14.1643   24.8056 C   0  0  0  0  0  0  0  0  0  0  0  0
   21.8795  -14.7804   23.6872 C   0  0  0  0  0  0  0  0  0  0  0  0
 16 17  1  0  0  0
 16 21  1  0  0  0
 17 18  1  0  0  0
 17 14  1  0  0  0
 18 19  1  0  0  0
 19 20  1  0  0  0
 21 20  1  0  0  0
 20 22  1  0  0  0
  2  1  1  0  0  0
  6  1  1  0  0  0
  1 31  1  0  0  0
  4  2  1  0  0  0
  3  2  2  0  0  0
  8  4  1  0  0  0
  4  5  1  0  0  0
 11  5  1  0  0  0
  5  6  1  0  0  0
  6  7  2  0  0  0
  9  8  1  0  0  0
  9 10  2  0  0  0
 10 11  1  0  0  0
 12 11  1  0  0  0
 13 12  2  0  0  0
 12 14  1  0  0  0
 22 26  2  0  0  0
 22 23  1  0  0  0
 23 24  1  0  0  0
 25 24  2  0  0  0
 24 27  1  0  0  0
 26 25  1  0  0  0
 31 32  1  0  0  0
 32 33  1  0  0  0
 36 33  1  0  0  0
 33 34  2  0  0  0
 33 35  2  0  0  0
 41 36  2  0  0  0
 36 37  1  0  0  0
 38 37  2  0  0  0
 39 38  1  0  0  0
 40 39  2  0  0  0
 40 41  1  0  0  0
 14 15  1  0  0  0
 23 28  1  0  0  0
 27 29  1  0  0  0
 27 30  1  0  0  0
M  END
> <minimizedAffinity>
-8.99319

$$$$
