4B7P_9UN_A_1226


 36 39  0  0  0  0  0  0  0  0999 V2000
    8.3037    3.5524   10.7090 C   0  0  0  0  0  0  0  0  0  0  0  0
    7.0723    4.0841   11.0754 C   0  0  0  0  0  0  0  0  0  0  0  0
    5.9604    3.2829   11.0727 C   0  0  0  0  0  0  0  0  0  0  0  0
    6.0450    1.9368   10.8038 C   0  0  0  0  0  0  0  0  0  0  0  0
    7.2822    1.3574   10.4908 C   0  0  0  0  0  0  0  0  0  0  0  0
    8.3969    2.1933   10.4477 C   0  0  0  0  0  0  0  0  0  0  0  0
    9.5817    1.6375   10.1169 O   0  0  0  0  0  0  0  0  0  0  0  0
    6.9739    5.4248   11.3297 O   0  0  0  0  0  0  0  0  0  0  0  0
   10.3532    2.1677   10.0775 H   0  0  0  0  0  0  0  0  0  0  0  0
    7.7433    5.9596   11.3280 H   0  0  0  0  0  0  0  0  0  0  0  0
    4.6674    3.8813   11.4133 C   0  0  0  0  0  0  0  0  0  0  0  0
    4.4065    4.5176   12.5558 O   0  0  0  0  0  0  0  0  0  0  0  0
    3.0035    5.0037   12.5310 N   0  0  0  0  0  0  0  0  0  0  0  0
    2.5239    4.5912   11.3638 C   0  0  0  0  0  0  0  0  0  0  0  0
    3.5123    3.9291   10.6355 C   0  0  0  0  0  0  0  0  0  0  0  0
    1.1287    4.8275   10.9038 C   0  0  0  0  0  0  0  0  0  0  0  0
    0.9251    4.9532    9.6962 O   0  0  0  0  0  0  0  0  0  0  0  0
    0.1898    4.8589   11.8595 N   0  0  0  0  0  0  0  0  0  0  0  0
    0.4653    4.7480   12.7981 H   0  0  0  0  0  0  0  0  0  0  0  0
   -1.2262    5.0515   11.5610 C   0  0  0  0  0  0  0  0  0  0  0  0
   -1.8342    5.8663   12.7393 C   0  0  0  0  0  0  0  0  0  0  0  0
   -3.3743    5.8345   12.5725 C   0  0  0  0  0  0  0  0  0  0  0  0
   -3.8588    4.4342   12.6123 N   0  0  0  0  0  0  0  0  0  0  0  0
   -3.3502    3.7065   11.4502 C   0  0  0  0  0  0  0  0  0  0  0  0
   -1.8203    3.6408   11.5354 C   0  0  0  0  0  0  0  0  0  0  0  0
   -5.3614    4.3854   12.5666 C   0  0  0  0  0  0  0  0  0  0  0  0
    4.9297    1.1934   10.9121 O   0  0  0  0  0  0  0  0  0  0  0  0
    4.4205    0.5557    9.8332 C   0  0  0  0  0  0  0  0  0  0  0  0
    3.6814   -0.5837   10.1599 C   0  0  0  0  0  0  0  0  0  0  0  0
    3.0861   -1.2784    9.1215 C   0  0  0  0  0  0  0  0  0  0  0  0
    3.3041   -0.8709    7.8282 C   0  0  0  0  0  0  0  0  0  0  0  0
    4.0389    0.2754    7.4954 C   0  0  0  0  0  0  0  0  0  0  0  0
    4.6297    1.0102    8.5252 C   0  0  0  0  0  0  0  0  0  0  0  0
    2.6562   -1.6378    6.8603 N   0  0  0  0  0  0  0  0  0  0  0  0
    1.4349   -1.5833    6.8647 O   0  0  0  0  0  0  0  0  0  0  0  0
    3.2962   -2.3511    6.0914 O   0  0  0  0  0  0  0  0  0  0  0  0
  1  2  2  0  0  0
  1  6  1  0  0  0
  2  3  1  0  0  0
  2  8  1  0  0  0
  3  4  2  0  0  0
  3 11  1  0  0  0
  4  5  1  0  0  0
  4 27  1  0  0  0
  5  6  2  0  0  0
  6  7  1  0  0  0
 27 28  1  0  0  0
 28 29  2  0  0  0
 28 33  1  0  0  0
 29 30  1  0  0  0
 30 31  2  0  0  0
 31 32  1  0  0  0
 31 34  1  0  0  0
 32 33  2  0  0  0
 34 35  2  0  0  0
 34 36  1  0  0  0
 11 12  1  0  0  0
 11 15  2  0  0  0
 12 13  1  0  0  0
 13 14  2  0  0  0
 14 15  1  0  0  0
 14 16  1  0  0  0
 16 17  2  0  0  0
 16 18  1  0  0  0
 18 20  1  0  0  0
 20 21  1  0  0  0
 20 25  1  0  0  0
 21 22  1  0  0  0
 22 23  1  0  0  0
 23 24  1  0  0  0
 23 26  1  0  0  0
 24 25  1  0  0  0
  7  9  1  0  0  0
  8 10  1  0  0  0
 18 19  1  0  0  0
M  CHG 1  34   1
M  CHG 1  36  -1
M  END
> <minimizedAffinity>
-10.27240

$$$$
4B7P_9UN_A_1226


 36 39  0  0  0  0  0  0  0  0999 V2000
    8.1280    3.6477   11.2874 C   0  0  0  0  0  0  0  0  0  0  0  0
    6.8575    4.1250   11.5903 C   0  0  0  0  0  0  0  0  0  0  0  0
    5.7574    3.3718   11.2734 C   0  0  0  0  0  0  0  0  0  0  0  0
    5.8794    2.1086   10.7432 C   0  0  0  0  0  0  0  0  0  0  0  0
    7.1484    1.5736   10.4828 C   0  0  0  0  0  0  0  0  0  0  0  0
    8.2575    2.3702   10.7630 C   0  0  0  0  0  0  0  0  0  0  0  0
    9.4769    1.8632   10.4834 O   0  0  0  0  0  0  0  0  0  0  0  0
    6.7238    5.3862   12.1033 O   0  0  0  0  0  0  0  0  0  0  0  0
   10.2459    2.3693   10.6579 H   0  0  0  0  0  0  0  0  0  0  0  0
    7.4856    5.8890   12.3152 H   0  0  0  0  0  0  0  0  0  0  0  0
    4.4294    3.9211   11.5570 C   0  0  0  0  0  0  0  0  0  0  0  0
    4.0985    4.5558   12.6822 O   0  0  0  0  0  0  0  0  0  0  0  0
    2.6796    4.9857   12.5976 N   0  0  0  0  0  0  0  0  0  0  0  0
    2.2633    4.5450   11.4164 C   0  0  0  0  0  0  0  0  0  0  0  0
    3.3051    3.9168   10.7340 C   0  0  0  0  0  0  0  0  0  0  0  0
    0.8793    4.7221   10.8997 C   0  0  0  0  0  0  0  0  0  0  0  0
    0.6754    4.5365    9.6998 O   0  0  0  0  0  0  0  0  0  0  0  0
   -0.0515    5.0504   11.8062 N   0  0  0  0  0  0  0  0  0  0  0  0
    0.2233    5.1760   12.7432 H   0  0  0  0  0  0  0  0  0  0  0  0
   -1.4576    5.2288   11.4566 C   0  0  0  0  0  0  0  0  0  0  0  0
   -1.9855    6.4333   12.2887 C   0  0  0  0  0  0  0  0  0  0  0  0
   -3.5274    6.4540   12.1385 C   0  0  0  0  0  0  0  0  0  0  0  0
   -4.1026    5.1864   12.6479 N   0  0  0  0  0  0  0  0  0  0  0  0
   -3.6678    4.0759   11.8012 C   0  0  0  0  0  0  0  0  0  0  0  0
   -2.1441    3.9369   11.9076 C   0  0  0  0  0  0  0  0  0  0  0  0
   -5.6057    5.2294   12.6175 C   0  0  0  0  0  0  0  0  0  0  0  0
    4.7608    1.3890   10.5455 O   0  0  0  0  0  0  0  0  0  0  0  0
    4.5908    0.6811    9.4053 C   0  0  0  0  0  0  0  0  0  0  0  0
    4.2506    1.4732    8.3061 C   0  0  0  0  0  0  0  0  0  0  0  0
    4.0973    0.8398    7.0852 C   0  0  0  0  0  0  0  0  0  0  0  0
    4.2093   -0.5275    7.0188 C   0  0  0  0  0  0  0  0  0  0  0  0
    4.5570   -1.3260    8.1170 C   0  0  0  0  0  0  0  0  0  0  0  0
    4.7430   -0.7101    9.3562 C   0  0  0  0  0  0  0  0  0  0  0  0
    4.0398   -1.0630    5.7424 N   0  0  0  0  0  0  0  0  0  0  0  0
    3.5118   -2.1644    5.6907 O   0  0  0  0  0  0  0  0  0  0  0  0
    4.4465   -0.4634    4.7500 O   0  0  0  0  0  0  0  0  0  0  0  0
  1  2  2  0  0  0
  1  6  1  0  0  0
  2  3  1  0  0  0
  2  8  1  0  0  0
  3  4  2  0  0  0
  3 11  1  0  0  0
  4  5  1  0  0  0
  4 27  1  0  0  0
  5  6  2  0  0  0
  6  7  1  0  0  0
 27 28  1  0  0  0
 28 29  2  0  0  0
 28 33  1  0  0  0
 29 30  1  0  0  0
 30 31  2  0  0  0
 31 32  1  0  0  0
 31 34  1  0  0  0
 32 33  2  0  0  0
 34 35  2  0  0  0
 34 36  1  0  0  0
 11 12  1  0  0  0
 11 15  2  0  0  0
 12 13  1  0  0  0
 13 14  2  0  0  0
 14 15  1  0  0  0
 14 16  1  0  0  0
 16 17  2  0  0  0
 16 18  1  0  0  0
 18 20  1  0  0  0
 20 21  1  0  0  0
 20 25  1  0  0  0
 21 22  1  0  0  0
 22 23  1  0  0  0
 23 24  1  0  0  0
 23 26  1  0  0  0
 24 25  1  0  0  0
  7  9  1  0  0  0
  8 10  1  0  0  0
 18 19  1  0  0  0
M  CHG 1  34   1
M  CHG 1  36  -1
M  END
> <minimizedAffinity>
-9.39808

$$$$
4B7P_9UN_A_1226


 36 39  0  0  0  0  0  0  0  0999 V2000
    8.3056    3.7005   10.6791 C   0  0  0  0  0  0  0  0  0  0  0  0
    6.9516    4.0006   10.7801 C   0  0  0  0  0  0  0  0  0  0  0  0
    6.0350    2.9838   10.8428 C   0  0  0  0  0  0  0  0  0  0  0  0
    6.4257    1.6663   10.9008 C   0  0  0  0  0  0  0  0  0  0  0  0
    7.7865    1.3329   10.8629 C   0  0  0  0  0  0  0  0  0  0  0  0
    8.7060    2.3743   10.7482 C   0  0  0  0  0  0  0  0  0  0  0  0
   10.0140    2.0477   10.6822 O   0  0  0  0  0  0  0  0  0  0  0  0
    6.5510    5.3068   10.7079 O   0  0  0  0  0  0  0  0  0  0  0  0
   10.6616    2.7206   10.6046 H   0  0  0  0  0  0  0  0  0  0  0  0
    7.1896    5.9911   10.6655 H   0  0  0  0  0  0  0  0  0  0  0  0
    4.6122    3.3281   10.8971 C   0  0  0  0  0  0  0  0  0  0  0  0
    4.0297    3.9775   11.9057 O   0  0  0  0  0  0  0  0  0  0  0  0
    2.5894    4.1638   11.5954 N   0  0  0  0  0  0  0  0  0  0  0  0
    2.4202    3.5799   10.4151 C   0  0  0  0  0  0  0  0  0  0  0  0
    3.6327    3.0835    9.9367 C   0  0  0  0  0  0  0  0  0  0  0  0
    1.1149    3.4930    9.7061 C   0  0  0  0  0  0  0  0  0  0  0  0
    0.2027    4.2363   10.0682 O   0  0  0  0  0  0  0  0  0  0  0  0
    1.0489    2.6135    8.6971 N   0  0  0  0  0  0  0  0  0  0  0  0
    1.8415    2.0663    8.4930 H   0  0  0  0  0  0  0  0  0  0  0  0
   -0.1540    2.4364    7.8892 C   0  0  0  0  0  0  0  0  0  0  0  0
   -0.4253    0.9063    7.8039 C   0  0  0  0  0  0  0  0  0  0  0  0
   -1.5220    0.6940    6.7302 C   0  0  0  0  0  0  0  0  0  0  0  0
   -1.0540    1.2065    5.4205 N   0  0  0  0  0  0  0  0  0  0  0  0
   -0.8893    2.6579    5.4927 C   0  0  0  0  0  0  0  0  0  0  0  0
    0.2139    2.9831    6.5072 C   0  0  0  0  0  0  0  0  0  0  0  0
   -2.0561    0.9085    4.3392 C   0  0  0  0  0  0  0  0  0  0  0  0
    5.4772    0.7261   11.0573 O   0  0  0  0  0  0  0  0  0  0  0  0
    4.9665    0.0789    9.9848 C   0  0  0  0  0  0  0  0  0  0  0  0
    3.7193   -0.5009   10.2289 C   0  0  0  0  0  0  0  0  0  0  0  0
    3.0991   -1.1496    9.1754 C   0  0  0  0  0  0  0  0  0  0  0  0
    3.7562   -1.2610    7.9744 C   0  0  0  0  0  0  0  0  0  0  0  0
    5.0044   -0.6754    7.7223 C   0  0  0  0  0  0  0  0  0  0  0  0
    5.6419    0.0074    8.7601 C   0  0  0  0  0  0  0  0  0  0  0  0
    3.0417   -1.9298    6.9811 N   0  0  0  0  0  0  0  0  0  0  0  0
    3.3212   -3.1095    6.8241 O   0  0  0  0  0  0  0  0  0  0  0  0
    2.2188   -1.3345    6.2896 O   0  0  0  0  0  0  0  0  0  0  0  0
  1  2  2  0  0  0
  1  6  1  0  0  0
  2  3  1  0  0  0
  2  8  1  0  0  0
  3  4  2  0  0  0
  3 11  1  0  0  0
  4  5  1  0  0  0
  4 27  1  0  0  0
  5  6  2  0  0  0
  6  7  1  0  0  0
 27 28  1  0  0  0
 28 29  2  0  0  0
 28 33  1  0  0  0
 29 30  1  0  0  0
 30 31  2  0  0  0
 31 32  1  0  0  0
 31 34  1  0  0  0
 32 33  2  0  0  0
 34 35  2  0  0  0
 34 36  1  0  0  0
 11 12  1  0  0  0
 11 15  2  0  0  0
 12 13  1  0  0  0
 13 14  2  0  0  0
 14 15  1  0  0  0
 14 16  1  0  0  0
 16 17  2  0  0  0
 16 18  1  0  0  0
 18 20  1  0  0  0
 20 21  1  0  0  0
 20 25  1  0  0  0
 21 22  1  0  0  0
 22 23  1  0  0  0
 23 24  1  0  0  0
 23 26  1  0  0  0
 24 25  1  0  0  0
  7  9  1  0  0  0
  8 10  1  0  0  0
 18 19  1  0  0  0
M  CHG 1  34   1
M  CHG 1  36  -1
M  END
> <minimizedAffinity>
-8.47612

$$$$
4B7P_9UN_A_1226


 36 39  0  0  0  0  0  0  0  0999 V2000
    3.4401    0.3988    6.0689 C   0  0  0  0  0  0  0  0  0  0  0  0
    2.6808    1.3184    6.7839 C   0  0  0  0  0  0  0  0  0  0  0  0
    2.9557    1.5405    8.1080 C   0  0  0  0  0  0  0  0  0  0  0  0
    4.0268    0.9426    8.7300 C   0  0  0  0  0  0  0  0  0  0  0  0
    4.8490    0.0570    8.0201 C   0  0  0  0  0  0  0  0  0  0  0  0
    4.5281   -0.1988    6.6879 C   0  0  0  0  0  0  0  0  0  0  0  0
    5.3045   -1.0749    6.0157 O   0  0  0  0  0  0  0  0  0  0  0  0
    1.6038    1.9071    6.1796 O   0  0  0  0  0  0  0  0  0  0  0  0
    5.1198   -1.2721    5.1186 H   0  0  0  0  0  0  0  0  0  0  0  0
    1.4288    1.7456    5.2734 H   0  0  0  0  0  0  0  0  0  0  0  0
    2.1076    2.4764    8.8501 C   0  0  0  0  0  0  0  0  0  0  0  0
    2.1770    3.8041    8.7470 O   0  0  0  0  0  0  0  0  0  0  0  0
    1.1506    4.4137    9.6303 N   0  0  0  0  0  0  0  0  0  0  0  0
    0.5554    3.3825   10.2178 C   0  0  0  0  0  0  0  0  0  0  0  0
    1.0853    2.1803    9.7494 C   0  0  0  0  0  0  0  0  0  0  0  0
   -0.5369    3.5091   11.2202 C   0  0  0  0  0  0  0  0  0  0  0  0
   -0.7413    2.5652   11.9837 O   0  0  0  0  0  0  0  0  0  0  0  0
   -1.2023    4.6723   11.2241 N   0  0  0  0  0  0  0  0  0  0  0  0
   -0.9558    5.3613   10.5654 H   0  0  0  0  0  0  0  0  0  0  0  0
   -2.2789    4.9562   12.1682 C   0  0  0  0  0  0  0  0  0  0  0  0
   -3.5658    4.2831   11.6089 C   0  0  0  0  0  0  0  0  0  0  0  0
   -4.7591    4.8080   12.4461 C   0  0  0  0  0  0  0  0  0  0  0  0
   -4.8550    6.2819   12.3219 N   0  0  0  0  0  0  0  0  0  0  0  0
   -3.6795    6.9026   12.9319 C   0  0  0  0  0  0  0  0  0  0  0  0
   -2.4310    6.4795   12.1480 C   0  0  0  0  0  0  0  0  0  0  0  0
   -6.0736    6.8017   13.0340 C   0  0  0  0  0  0  0  0  0  0  0  0
    4.2939    1.2793   10.0041 O   0  0  0  0  0  0  0  0  0  0  0  0
    5.4112    1.9774   10.3113 C   0  0  0  0  0  0  0  0  0  0  0  0
    6.5128    1.1657   10.5922 C   0  0  0  0  0  0  0  0  0  0  0  0
    7.7129    1.7935   10.8767 C   0  0  0  0  0  0  0  0  0  0  0  0
    7.7545    3.1647   10.9447 C   0  0  0  0  0  0  0  0  0  0  0  0
    6.6540    3.9837   10.6572 C   0  0  0  0  0  0  0  0  0  0  0  0
    5.4364    3.3772   10.3419 C   0  0  0  0  0  0  0  0  0  0  0  0
    9.0115    3.6942   11.2348 N   0  0  0  0  0  0  0  0  0  0  0  0
    9.7384    3.9023   10.2741 O   0  0  0  0  0  0  0  0  0  0  0  0
    9.3590    3.8879   12.3972 O   0  0  0  0  0  0  0  0  0  0  0  0
  1  2  2  0  0  0
  1  6  1  0  0  0
  2  3  1  0  0  0
  2  8  1  0  0  0
  3  4  2  0  0  0
  3 11  1  0  0  0
  4  5  1  0  0  0
  4 27  1  0  0  0
  5  6  2  0  0  0
  6  7  1  0  0  0
 27 28  1  0  0  0
 28 29  2  0  0  0
 28 33  1  0  0  0
 29 30  1  0  0  0
 30 31  2  0  0  0
 31 32  1  0  0  0
 31 34  1  0  0  0
 32 33  2  0  0  0
 34 35  2  0  0  0
 34 36  1  0  0  0
 11 12  1  0  0  0
 11 15  2  0  0  0
 12 13  1  0  0  0
 13 14  2  0  0  0
 14 15  1  0  0  0
 14 16  1  0  0  0
 16 17  2  0  0  0
 16 18  1  0  0  0
 18 20  1  0  0  0
 20 21  1  0  0  0
 20 25  1  0  0  0
 21 22  1  0  0  0
 22 23  1  0  0  0
 23 24  1  0  0  0
 23 26  1  0  0  0
 24 25  1  0  0  0
  7  9  1  0  0  0
  8 10  1  0  0  0
 18 19  1  0  0  0
M  CHG 1  34   1
M  CHG 1  36  -1
M  END
> <minimizedAffinity>
-8.45330

$$$$
4B7P_9UN_A_1226


 36 39  0  0  0  0  0  0  0  0999 V2000
    6.0294    3.8158   11.8259 C   0  0  0  0  0  0  0  0  0  0  0  0
    4.6902    4.1900   11.8174 C   0  0  0  0  0  0  0  0  0  0  0  0
    3.8608    3.7173   10.8343 C   0  0  0  0  0  0  0  0  0  0  0  0
    4.2975    2.8048    9.9024 C   0  0  0  0  0  0  0  0  0  0  0  0
    5.6265    2.3603    9.9211 C   0  0  0  0  0  0  0  0  0  0  0  0
    6.4727    2.8875   10.8954 C   0  0  0  0  0  0  0  0  0  0  0  0
    7.7594    2.4795   10.8920 O   0  0  0  0  0  0  0  0  0  0  0  0
    4.2489    5.1088   12.7300 O   0  0  0  0  0  0  0  0  0  0  0  0
    8.3580    2.8120   11.5316 H   0  0  0  0  0  0  0  0  0  0  0  0
    4.8280    5.4226   13.3964 H   0  0  0  0  0  0  0  0  0  0  0  0
    2.4671    4.1681   10.8196 C   0  0  0  0  0  0  0  0  0  0  0  0
    2.0572    5.3412   10.3355 O   0  0  0  0  0  0  0  0  0  0  0  0
    0.5814    5.4336   10.4724 N   0  0  0  0  0  0  0  0  0  0  0  0
    0.2249    4.2970   11.0587 C   0  0  0  0  0  0  0  0  0  0  0  0
    1.3381    3.4812   11.2613 C   0  0  0  0  0  0  0  0  0  0  0  0
   -1.1748    3.9494   11.4244 C   0  0  0  0  0  0  0  0  0  0  0  0
   -1.4731    2.7595   11.5287 O   0  0  0  0  0  0  0  0  0  0  0  0
   -2.0024    4.9815   11.6383 N   0  0  0  0  0  0  0  0  0  0  0  0
   -1.6576    5.8966   11.5250 H   0  0  0  0  0  0  0  0  0  0  0  0
   -3.3961    4.7998   12.0330 C   0  0  0  0  0  0  0  0  0  0  0  0
   -4.2736    5.2420   10.8261 C   0  0  0  0  0  0  0  0  0  0  0  0
   -5.7377    5.3188   11.3272 C   0  0  0  0  0  0  0  0  0  0  0  0
   -5.8445    6.3050   12.4286 N   0  0  0  0  0  0  0  0  0  0  0  0
   -5.0865    5.8310   13.5861 C   0  0  0  0  0  0  0  0  0  0  0  0
   -3.6014    5.7562   13.2108 C   0  0  0  0  0  0  0  0  0  0  0  0
   -7.2764    6.4801   12.8543 C   0  0  0  0  0  0  0  0  0  0  0  0
    3.4052    2.3117    9.0257 O   0  0  0  0  0  0  0  0  0  0  0  0
    3.5919    1.0947    8.4651 C   0  0  0  0  0  0  0  0  0  0  0  0
    3.2026    0.0377    9.2913 C   0  0  0  0  0  0  0  0  0  0  0  0
    3.3181   -1.2450    8.7848 C   0  0  0  0  0  0  0  0  0  0  0  0
    3.8716   -1.4292    7.5413 C   0  0  0  0  0  0  0  0  0  0  0  0
    4.2574   -0.3720    6.7058 C   0  0  0  0  0  0  0  0  0  0  0  0
    4.1281    0.9344    7.1814 C   0  0  0  0  0  0  0  0  0  0  0  0
    3.9383   -2.7588    7.1263 N   0  0  0  0  0  0  0  0  0  0  0  0
    3.7446   -2.9573    5.9356 O   0  0  0  0  0  0  0  0  0  0  0  0
    4.1366   -3.6610    7.9363 O   0  0  0  0  0  0  0  0  0  0  0  0
  1  2  2  0  0  0
  1  6  1  0  0  0
  2  3  1  0  0  0
  2  8  1  0  0  0
  3  4  2  0  0  0
  3 11  1  0  0  0
  4  5  1  0  0  0
  4 27  1  0  0  0
  5  6  2  0  0  0
  6  7  1  0  0  0
 27 28  1  0  0  0
 28 29  2  0  0  0
 28 33  1  0  0  0
 29 30  1  0  0  0
 30 31  2  0  0  0
 31 32  1  0  0  0
 31 34  1  0  0  0
 32 33  2  0  0  0
 34 35  2  0  0  0
 34 36  1  0  0  0
 11 12  1  0  0  0
 11 15  2  0  0  0
 12 13  1  0  0  0
 13 14  2  0  0  0
 14 15  1  0  0  0
 14 16  1  0  0  0
 16 17  2  0  0  0
 16 18  1  0  0  0
 18 20  1  0  0  0
 20 21  1  0  0  0
 20 25  1  0  0  0
 21 22  1  0  0  0
 22 23  1  0  0  0
 23 24  1  0  0  0
 23 26  1  0  0  0
 24 25  1  0  0  0
  7  9  1  0  0  0
  8 10  1  0  0  0
 18 19  1  0  0  0
M  CHG 1  34   1
M  CHG 1  36  -1
M  END
> <minimizedAffinity>
-7.91658

$$$$
4B7P_9UN_A_1226


 36 39  0  0  0  0  0  0  0  0999 V2000
   -2.4307   -0.3983    6.0931 C   0  0  0  0  0  0  0  0  0  0  0  0
   -1.9806    0.4714    7.0803 C   0  0  0  0  0  0  0  0  0  0  0  0
   -0.7408    1.0438    6.9652 C   0  0  0  0  0  0  0  0  0  0  0  0
    0.0388    0.8519    5.8485 C   0  0  0  0  0  0  0  0  0  0  0  0
   -0.4126    0.0294    4.8073 C   0  0  0  0  0  0  0  0  0  0  0  0
   -1.6536   -0.5869    4.9597 C   0  0  0  0  0  0  0  0  0  0  0  0
   -2.0720   -1.4018    3.9683 O   0  0  0  0  0  0  0  0  0  0  0  0
   -2.7410    0.6573    8.2024 O   0  0  0  0  0  0  0  0  0  0  0  0
   -2.9009   -1.8337    4.0351 H   0  0  0  0  0  0  0  0  0  0  0  0
   -3.5869    0.2593    8.2663 H   0  0  0  0  0  0  0  0  0  0  0  0
   -0.2710    1.9157    8.0445 C   0  0  0  0  0  0  0  0  0  0  0  0
   -1.0276    2.8175    8.6712 O   0  0  0  0  0  0  0  0  0  0  0  0
   -0.2149    3.4911    9.7157 N   0  0  0  0  0  0  0  0  0  0  0  0
    0.9900    2.9432    9.6114 C   0  0  0  0  0  0  0  0  0  0  0  0
    0.9945    1.9558    8.6262 C   0  0  0  0  0  0  0  0  0  0  0  0
    2.1574    3.3275   10.4501 C   0  0  0  0  0  0  0  0  0  0  0  0
    1.9924    4.1749   11.3278 O   0  0  0  0  0  0  0  0  0  0  0  0
    3.3061    2.6880   10.1909 N   0  0  0  0  0  0  0  0  0  0  0  0
    3.3261    2.0266    9.4619 H   0  0  0  0  0  0  0  0  0  0  0  0
    4.5291    2.9352   10.9488 C   0  0  0  0  0  0  0  0  0  0  0  0
    5.1501    4.2511   10.3967 C   0  0  0  0  0  0  0  0  0  0  0  0
    6.5751    4.3714   10.9929 C   0  0  0  0  0  0  0  0  0  0  0  0
    7.3946    3.2058   10.5845 N   0  0  0  0  0  0  0  0  0  0  0  0
    6.8489    1.9887   11.1845 C   0  0  0  0  0  0  0  0  0  0  0  0
    5.4406    1.7480   10.6269 C   0  0  0  0  0  0  0  0  0  0  0  0
    8.8145    3.3570   11.0567 C   0  0  0  0  0  0  0  0  0  0  0  0
    1.2024    1.5199    5.7604 O   0  0  0  0  0  0  0  0  0  0  0  0
    2.3315    0.8862    5.3686 C   0  0  0  0  0  0  0  0  0  0  0  0
    2.8357    0.0064    6.3294 C   0  0  0  0  0  0  0  0  0  0  0  0
    3.9673   -0.7192    6.0000 C   0  0  0  0  0  0  0  0  0  0  0  0
    4.5821   -0.4940    4.7926 C   0  0  0  0  0  0  0  0  0  0  0  0
    4.0766    0.3824    3.8226 C   0  0  0  0  0  0  0  0  0  0  0  0
    2.9214    1.1088    4.1182 C   0  0  0  0  0  0  0  0  0  0  0  0
    5.7110   -1.2789    4.5602 N   0  0  0  0  0  0  0  0  0  0  0  0
    5.6497   -2.4338    4.9566 O   0  0  0  0  0  0  0  0  0  0  0  0
    6.7100   -0.8014    4.0277 O   0  0  0  0  0  0  0  0  0  0  0  0
  1  2  2  0  0  0
  1  6  1  0  0  0
  2  3  1  0  0  0
  2  8  1  0  0  0
  3  4  2  0  0  0
  3 11  1  0  0  0
  4  5  1  0  0  0
  4 27  1  0  0  0
  5  6  2  0  0  0
  6  7  1  0  0  0
 27 28  1  0  0  0
 28 29  2  0  0  0
 28 33  1  0  0  0
 29 30  1  0  0  0
 30 31  2  0  0  0
 31 32  1  0  0  0
 31 34  1  0  0  0
 32 33  2  0  0  0
 34 35  2  0  0  0
 34 36  1  0  0  0
 11 12  1  0  0  0
 11 15  2  0  0  0
 12 13  1  0  0  0
 13 14  2  0  0  0
 14 15  1  0  0  0
 14 16  1  0  0  0
 16 17  2  0  0  0
 16 18  1  0  0  0
 18 20  1  0  0  0
 20 21  1  0  0  0
 20 25  1  0  0  0
 21 22  1  0  0  0
 22 23  1  0  0  0
 23 24  1  0  0  0
 23 26  1  0  0  0
 24 25  1  0  0  0
  7  9  1  0  0  0
  8 10  1  0  0  0
 18 19  1  0  0  0
M  CHG 1  34   1
M  CHG 1  36  -1
M  END
> <minimizedAffinity>
-7.84900

$$$$
4B7P_9UN_A_1226


 36 39  0  0  0  0  0  0  0  0999 V2000
    6.6629    3.0914   11.6070 C   0  0  0  0  0  0  0  0  0  0  0  0
    5.4069    3.6752   11.4843 C   0  0  0  0  0  0  0  0  0  0  0  0
    4.4523    3.0723   10.7075 C   0  0  0  0  0  0  0  0  0  0  0  0
    4.6737    1.8509   10.1152 C   0  0  0  0  0  0  0  0  0  0  0  0
    5.9087    1.2065   10.2701 C   0  0  0  0  0  0  0  0  0  0  0  0
    6.8881    1.8545   11.0211 C   0  0  0  0  0  0  0  0  0  0  0  0
    8.0862    1.2448   11.1435 O   0  0  0  0  0  0  0  0  0  0  0  0
    5.1809    4.8973   12.0563 O   0  0  0  0  0  0  0  0  0  0  0  0
    8.7693    1.6498   11.6407 H   0  0  0  0  0  0  0  0  0  0  0  0
    5.8433    5.2968   12.5850 H   0  0  0  0  0  0  0  0  0  0  0  0
    3.1551    3.7352   10.5546 C   0  0  0  0  0  0  0  0  0  0  0  0
    2.9568    4.8579    9.8627 O   0  0  0  0  0  0  0  0  0  0  0  0
    1.5157    5.2123    9.9154 N   0  0  0  0  0  0  0  0  0  0  0  0
    0.9631    4.2679   10.6673 C   0  0  0  0  0  0  0  0  0  0  0  0
    1.9193    3.3288   11.0539 C   0  0  0  0  0  0  0  0  0  0  0  0
   -0.4810    4.2221   11.0227 C   0  0  0  0  0  0  0  0  0  0  0  0
   -1.0327    3.1232   11.0851 O   0  0  0  0  0  0  0  0  0  0  0  0
   -1.0644    5.4019   11.2746 N   0  0  0  0  0  0  0  0  0  0  0  0
   -0.5272    6.2229   11.1934 H   0  0  0  0  0  0  0  0  0  0  0  0
   -2.4665    5.5156   11.6648 C   0  0  0  0  0  0  0  0  0  0  0  0
   -3.0026    6.8450   11.0587 C   0  0  0  0  0  0  0  0  0  0  0  0
   -4.3908    7.1114   11.6930 C   0  0  0  0  0  0  0  0  0  0  0  0
   -4.2599    7.2338   13.1643 N   0  0  0  0  0  0  0  0  0  0  0  0
   -3.8410    5.9507   13.7274 C   0  0  0  0  0  0  0  0  0  0  0  0
   -2.4456    5.6052   13.1930 C   0  0  0  0  0  0  0  0  0  0  0  0
   -5.5759    7.6055   13.7905 C   0  0  0  0  0  0  0  0  0  0  0  0
    3.6604    1.2735    9.4460 O   0  0  0  0  0  0  0  0  0  0  0  0
    3.8084    0.9130    8.1505 C   0  0  0  0  0  0  0  0  0  0  0  0
    3.2915    1.8490    7.2517 C   0  0  0  0  0  0  0  0  0  0  0  0
    3.4353    1.5847    5.9009 C   0  0  0  0  0  0  0  0  0  0  0  0
    4.0029    0.3982    5.5050 C   0  0  0  0  0  0  0  0  0  0  0  0
    4.5292   -0.5410    6.4025 C   0  0  0  0  0  0  0  0  0  0  0  0
    4.4207   -0.2880    7.7713 C   0  0  0  0  0  0  0  0  0  0  0  0
    4.1022    0.2341    4.1238 N   0  0  0  0  0  0  0  0  0  0  0  0
    3.3340    0.9045    3.4493 O   0  0  0  0  0  0  0  0  0  0  0  0
    4.8913   -0.5752    3.6420 O   0  0  0  0  0  0  0  0  0  0  0  0
  1  2  2  0  0  0
  1  6  1  0  0  0
  2  3  1  0  0  0
  2  8  1  0  0  0
  3  4  2  0  0  0
  3 11  1  0  0  0
  4  5  1  0  0  0
  4 27  1  0  0  0
  5  6  2  0  0  0
  6  7  1  0  0  0
 27 28  1  0  0  0
 28 29  2  0  0  0
 28 33  1  0  0  0
 29 30  1  0  0  0
 30 31  2  0  0  0
 31 32  1  0  0  0
 31 34  1  0  0  0
 32 33  2  0  0  0
 34 35  2  0  0  0
 34 36  1  0  0  0
 11 12  1  0  0  0
 11 15  2  0  0  0
 12 13  1  0  0  0
 13 14  2  0  0  0
 14 15  1  0  0  0
 14 16  1  0  0  0
 16 17  2  0  0  0
 16 18  1  0  0  0
 18 20  1  0  0  0
 20 21  1  0  0  0
 20 25  1  0  0  0
 21 22  1  0  0  0
 22 23  1  0  0  0
 23 24  1  0  0  0
 23 26  1  0  0  0
 24 25  1  0  0  0
  7  9  1  0  0  0
  8 10  1  0  0  0
 18 19  1  0  0  0
M  CHG 1  34   1
M  CHG 1  36  -1
M  END
> <minimizedAffinity>
-7.75622

$$$$
4B7P_9UN_A_1226


 36 39  0  0  0  0  0  0  0  0999 V2000
    3.9283   -0.3848    5.1527 C   0  0  0  0  0  0  0  0  0  0  0  0
    3.0746    0.2098    6.0752 C   0  0  0  0  0  0  0  0  0  0  0  0
    3.3963    0.1895    7.4072 C   0  0  0  0  0  0  0  0  0  0  0  0
    4.5921   -0.3259    7.8503 C   0  0  0  0  0  0  0  0  0  0  0  0
    5.5022   -0.8777    6.9384 C   0  0  0  0  0  0  0  0  0  0  0  0
    5.1404   -0.8962    5.5923 C   0  0  0  0  0  0  0  0  0  0  0  0
    6.0064   -1.4551    4.7207 O   0  0  0  0  0  0  0  0  0  0  0  0
    1.8758    0.7115    5.6476 O   0  0  0  0  0  0  0  0  0  0  0  0
    5.7978   -1.4860    3.8077 H   0  0  0  0  0  0  0  0  0  0  0  0
    1.6702    0.7186    4.7335 H   0  0  0  0  0  0  0  0  0  0  0  0
    2.4545    0.7780    8.3624 C   0  0  0  0  0  0  0  0  0  0  0  0
    1.9199    0.1265    9.3959 O   0  0  0  0  0  0  0  0  0  0  0  0
    1.0345    1.0520   10.1474 N   0  0  0  0  0  0  0  0  0  0  0  0
    1.0951    2.1962    9.4767 C   0  0  0  0  0  0  0  0  0  0  0  0
    1.9728    2.0851    8.3984 C   0  0  0  0  0  0  0  0  0  0  0  0
    0.3396    3.4230    9.8486 C   0  0  0  0  0  0  0  0  0  0  0  0
    0.7360    4.5061    9.4181 O   0  0  0  0  0  0  0  0  0  0  0  0
   -0.7442    3.2389   10.6150 N   0  0  0  0  0  0  0  0  0  0  0  0
   -0.9699    2.3255   10.9048 H   0  0  0  0  0  0  0  0  0  0  0  0
   -1.6028    4.3418   11.0362 C   0  0  0  0  0  0  0  0  0  0  0  0
   -1.1683    4.7334   12.4784 C   0  0  0  0  0  0  0  0  0  0  0  0
   -2.2429    5.7011   13.0344 C   0  0  0  0  0  0  0  0  0  0  0  0
   -3.5640    5.0295   13.0605 N   0  0  0  0  0  0  0  0  0  0  0  0
   -3.9980    4.7486   11.6924 C   0  0  0  0  0  0  0  0  0  0  0  0
   -3.0176    3.7571   11.0537 C   0  0  0  0  0  0  0  0  0  0  0  0
   -4.6006    5.9103   13.7023 C   0  0  0  0  0  0  0  0  0  0  0  0
    4.8834   -0.2269    9.1592 O   0  0  0  0  0  0  0  0  0  0  0  0
    5.7117    0.7440    9.6080 C   0  0  0  0  0  0  0  0  0  0  0  0
    6.9497    0.2616   10.0392 C   0  0  0  0  0  0  0  0  0  0  0  0
    7.8793    1.1886   10.4770 C   0  0  0  0  0  0  0  0  0  0  0  0
    7.5275    2.5147   10.5403 C   0  0  0  0  0  0  0  0  0  0  0  0
    6.2894    3.0047   10.1027 C   0  0  0  0  0  0  0  0  0  0  0  0
    5.3412    2.0943    9.6319 C   0  0  0  0  0  0  0  0  0  0  0  0
    8.5380    3.3630   10.9920 N   0  0  0  0  0  0  0  0  0  0  0  0
    8.6309    3.4849   12.2049 O   0  0  0  0  0  0  0  0  0  0  0  0
    9.2484    3.9735   10.1970 O   0  0  0  0  0  0  0  0  0  0  0  0
  1  2  2  0  0  0
  1  6  1  0  0  0
  2  3  1  0  0  0
  2  8  1  0  0  0
  3  4  2  0  0  0
  3 11  1  0  0  0
  4  5  1  0  0  0
  4 27  1  0  0  0
  5  6  2  0  0  0
  6  7  1  0  0  0
 27 28  1  0  0  0
 28 29  2  0  0  0
 28 33  1  0  0  0
 29 30  1  0  0  0
 30 31  2  0  0  0
 31 32  1  0  0  0
 31 34  1  0  0  0
 32 33  2  0  0  0
 34 35  2  0  0  0
 34 36  1  0  0  0
 11 12  1  0  0  0
 11 15  2  0  0  0
 12 13  1  0  0  0
 13 14  2  0  0  0
 14 15  1  0  0  0
 14 16  1  0  0  0
 16 17  2  0  0  0
 16 18  1  0  0  0
 18 20  1  0  0  0
 20 21  1  0  0  0
 20 25  1  0  0  0
 21 22  1  0  0  0
 22 23  1  0  0  0
 23 24  1  0  0  0
 23 26  1  0  0  0
 24 25  1  0  0  0
  7  9  1  0  0  0
  8 10  1  0  0  0
 18 19  1  0  0  0
M  CHG 1  34   1
M  CHG 1  36  -1
M  END
> <minimizedAffinity>
-7.75390

$$$$
4B7P_9UN_A_1226


 36 39  0  0  0  0  0  0  0  0999 V2000
   -3.2208    2.8608   10.8674 C   0  0  0  0  0  0  0  0  0  0  0  0
   -2.0093    3.4796   11.1550 C   0  0  0  0  0  0  0  0  0  0  0  0
   -1.0017    3.4613   10.2263 C   0  0  0  0  0  0  0  0  0  0  0  0
   -1.1877    2.9234    8.9743 C   0  0  0  0  0  0  0  0  0  0  0  0
   -2.4180    2.3462    8.6314 C   0  0  0  0  0  0  0  0  0  0  0  0
   -3.4178    2.3265    9.6026 C   0  0  0  0  0  0  0  0  0  0  0  0
   -4.5913    1.7434    9.2788 O   0  0  0  0  0  0  0  0  0  0  0  0
   -1.8081    4.0041   12.4025 O   0  0  0  0  0  0  0  0  0  0  0  0
   -5.2870    1.7109    9.9056 H   0  0  0  0  0  0  0  0  0  0  0  0
   -2.5069    4.0095   13.0268 H   0  0  0  0  0  0  0  0  0  0  0  0
    0.2812    4.0762   10.5753 C   0  0  0  0  0  0  0  0  0  0  0  0
    0.5530    5.3765   10.4578 O   0  0  0  0  0  0  0  0  0  0  0  0
    1.9396    5.6267   10.9270 N   0  0  0  0  0  0  0  0  0  0  0  0
    2.4003    4.4302   11.2718 C   0  0  0  0  0  0  0  0  0  0  0  0
    1.4134    3.4590   11.1034 C   0  0  0  0  0  0  0  0  0  0  0  0
    3.7751    4.1805   11.7833 C   0  0  0  0  0  0  0  0  0  0  0  0
    4.0709    4.6113   12.8980 O   0  0  0  0  0  0  0  0  0  0  0  0
    4.5830    3.4722   10.9824 N   0  0  0  0  0  0  0  0  0  0  0  0
    4.2424    3.1772   10.1071 H   0  0  0  0  0  0  0  0  0  0  0  0
    5.9492    3.1218   11.3591 C   0  0  0  0  0  0  0  0  0  0  0  0
    6.8563    4.3189   10.9516 C   0  0  0  0  0  0  0  0  0  0  0  0
    8.3261    3.8478   11.0877 C   0  0  0  0  0  0  0  0  0  0  0  0
    8.5713    2.6903   10.1950 N   0  0  0  0  0  0  0  0  0  0  0  0
    7.7780    1.5472   10.6455 C   0  0  0  0  0  0  0  0  0  0  0  0
    6.2895    1.8921   10.5129 C   0  0  0  0  0  0  0  0  0  0  0  0
   10.0202    2.2877   10.2251 C   0  0  0  0  0  0  0  0  0  0  0  0
   -0.1874    3.0249    8.0814 O   0  0  0  0  0  0  0  0  0  0  0  0
    0.7776    2.0789    8.0190 C   0  0  0  0  0  0  0  0  0  0  0  0
    1.9992    2.5631    7.5451 C   0  0  0  0  0  0  0  0  0  0  0  0
    3.0589    1.6750    7.4864 C   0  0  0  0  0  0  0  0  0  0  0  0
    2.8517    0.3585    7.8188 C   0  0  0  0  0  0  0  0  0  0  0  0
    1.6301   -0.1308    8.3013 C   0  0  0  0  0  0  0  0  0  0  0  0
    0.5502    0.7493    8.3951 C   0  0  0  0  0  0  0  0  0  0  0  0
    3.9849   -0.4490    7.7278 N   0  0  0  0  0  0  0  0  0  0  0  0
    3.8266   -1.6265    8.0159 O   0  0  0  0  0  0  0  0  0  0  0  0
    5.0739    0.0284    7.4182 O   0  0  0  0  0  0  0  0  0  0  0  0
  1  2  2  0  0  0
  1  6  1  0  0  0
  2  3  1  0  0  0
  2  8  1  0  0  0
  3  4  2  0  0  0
  3 11  1  0  0  0
  4  5  1  0  0  0
  4 27  1  0  0  0
  5  6  2  0  0  0
  6  7  1  0  0  0
 27 28  1  0  0  0
 28 29  2  0  0  0
 28 33  1  0  0  0
 29 30  1  0  0  0
 30 31  2  0  0  0
 31 32  1  0  0  0
 31 34  1  0  0  0
 32 33  2  0  0  0
 34 35  2  0  0  0
 34 36  1  0  0  0
 11 12  1  0  0  0
 11 15  2  0  0  0
 12 13  1  0  0  0
 13 14  2  0  0  0
 14 15  1  0  0  0
 14 16  1  0  0  0
 16 17  2  0  0  0
 16 18  1  0  0  0
 18 20  1  0  0  0
 20 21  1  0  0  0
 20 25  1  0  0  0
 21 22  1  0  0  0
 22 23  1  0  0  0
 23 24  1  0  0  0
 23 26  1  0  0  0
 24 25  1  0  0  0
  7  9  1  0  0  0
  8 10  1  0  0  0
 18 19  1  0  0  0
M  CHG 1  34   1
M  CHG 1  36  -1
M  END
> <minimizedAffinity>
-7.44529

$$$$
