3MV0_149_1_2001


 16 16  0  0  0  0  0  0  0  0999 V2000
  -10.5633  -29.3261  -28.8417 C   0  0  0  0  0  0  0  0  0  0  0  0
  -11.6171  -28.4481  -28.1394 C   0  0  0  0  0  0  0  0  0  0  0  0
  -11.1269  -28.0145  -26.7455 C   0  0  0  0  0  0  0  0  0  0  0  0
  -10.6025  -29.2270  -25.9716 C   0  0  0  0  0  0  0  0  0  0  0  0
   -9.3156  -29.7277  -26.6769 C   0  0  0  0  0  0  0  0  0  0  0  0
  -10.6443  -29.5234  -30.0289 O   0  0  0  0  0  0  0  0  0  0  0  0
  -11.8626  -27.2780  -28.9320 O   0  0  0  0  0  0  0  0  0  0  0  0
  -12.2134  -27.4224  -26.0344 O   0  0  0  0  0  0  0  0  0  0  0  0
  -11.5914  -30.2743  -25.9684 O   0  0  0  0  0  0  0  0  0  0  0  0
   -9.5170  -29.8863  -28.1351 O   0  0  0  0  0  0  0  0  0  0  0  0
  -11.0404  -26.7716  -29.0244 H   0  0  0  0  0  0  0  0  0  0  0  0
  -12.9298  -28.0696  -25.9412 H   0  0  0  0  0  0  0  0  0  0  0  0
  -11.7923  -30.5320  -26.8817 H   0  0  0  0  0  0  0  0  0  0  0  0
   -8.9028  -31.0918  -26.1122 C   0  0  0  0  0  0  0  0  0  0  0  0
   -9.0348  -31.0786  -24.6916 O   0  0  0  0  0  0  0  0  0  0  0  0
   -8.4629  -30.3887  -24.3202 H   0  0  0  0  0  0  0  0  0  0  0  0
  1  2  1  0  0  0
  1  6  2  0  0  0
  1 10  1  0  0  0
  2  3  1  0  0  0
  2  7  1  0  0  0
  3  4  1  0  0  0
  3  8  1  0  0  0
  4  5  1  0  0  0
  4  9  1  0  0  0
  5 14  1  0  0  0
  5 10  1  0  0  0
 14 15  1  0  0  0
  7 11  1  0  0  0
  8 12  1  0  0  0
  9 13  1  0  0  0
 15 16  1  0  0  0
M  END
> <minimizedAffinity>
-6.58982

$$$$
3MV0_149_1_2001


 16 16  0  0  0  0  0  0  0  0999 V2000
  -11.2630  -28.9530  -29.0175 C   0  0  0  0  0  0  0  0  0  0  0  0
  -10.1116  -29.4093  -28.1006 C   0  0  0  0  0  0  0  0  0  0  0  0
  -10.6363  -29.7572  -26.6953 C   0  0  0  0  0  0  0  0  0  0  0  0
  -11.5363  -28.6324  -26.1765 C   0  0  0  0  0  0  0  0  0  0  0  0
  -12.8162  -28.5986  -27.0511 C   0  0  0  0  0  0  0  0  0  0  0  0
  -11.0960  -28.9106  -30.2113 O   0  0  0  0  0  0  0  0  0  0  0  0
   -9.4880  -30.5708  -28.6661 O   0  0  0  0  0  0  0  0  0  0  0  0
   -9.5266  -29.9310  -25.8150 O   0  0  0  0  0  0  0  0  0  0  0  0
  -10.8507  -27.3694  -26.2727 O   0  0  0  0  0  0  0  0  0  0  0  0
  -12.4919  -28.5991  -28.4958 O   0  0  0  0  0  0  0  0  0  0  0  0
  -10.1394  -31.2862  -28.7350 H   0  0  0  0  0  0  0  0  0  0  0  0
   -9.0125  -29.1094  -25.7767 H   0  0  0  0  0  0  0  0  0  0  0  0
  -10.6157  -27.1987  -27.1982 H   0  0  0  0  0  0  0  0  0  0  0  0
  -13.6226  -27.3290  -26.7548 C   0  0  0  0  0  0  0  0  0  0  0  0
  -13.5742  -27.0499  -25.3564 O   0  0  0  0  0  0  0  0  0  0  0  0
  -13.9528  -27.7954  -24.8646 H   0  0  0  0  0  0  0  0  0  0  0  0
  1  2  1  0  0  0
  1  6  2  0  0  0
  1 10  1  0  0  0
  2  3  1  0  0  0
  2  7  1  0  0  0
  3  4  1  0  0  0
  3  8  1  0  0  0
  4  5  1  0  0  0
  4  9  1  0  0  0
  5 14  1  0  0  0
  5 10  1  0  0  0
 14 15  1  0  0  0
  7 11  1  0  0  0
  8 12  1  0  0  0
  9 13  1  0  0  0
 15 16  1  0  0  0
M  END
> <minimizedAffinity>
-6.28674

$$$$
3MV0_149_1_2001


 16 16  0  0  0  0  0  0  0  0999 V2000
  -11.0364  -27.5051  -26.4805 C   0  0  0  0  0  0  0  0  0  0  0  0
  -10.1453  -28.5277  -25.7491 C   0  0  0  0  0  0  0  0  0  0  0  0
   -9.1800  -29.2146  -26.7327 C   0  0  0  0  0  0  0  0  0  0  0  0
   -9.9465  -29.7115  -27.9615 C   0  0  0  0  0  0  0  0  0  0  0  0
  -10.4535  -28.4732  -28.7450 C   0  0  0  0  0  0  0  0  0  0  0  0
  -11.6468  -26.6813  -25.8452 O   0  0  0  0  0  0  0  0  0  0  0  0
   -9.3807  -27.8531  -24.7402 O   0  0  0  0  0  0  0  0  0  0  0  0
   -8.5550  -30.3172  -26.0767 O   0  0  0  0  0  0  0  0  0  0  0  0
  -11.0679  -30.5163  -27.5499 O   0  0  0  0  0  0  0  0  0  0  0  0
  -11.1420  -27.5083  -27.8577 O   0  0  0  0  0  0  0  0  0  0  0  0
   -8.8163  -27.1829  -25.1563 H   0  0  0  0  0  0  0  0  0  0  0  0
   -9.2327  -30.9492  -25.7901 H   0  0  0  0  0  0  0  0  0  0  0  0
  -11.6571  -29.9874  -26.9896 H   0  0  0  0  0  0  0  0  0  0  0  0
  -11.4508  -28.9063  -29.8257 C   0  0  0  0  0  0  0  0  0  0  0  0
  -10.8693  -29.9352  -30.6250 O   0  0  0  0  0  0  0  0  0  0  0  0
  -10.0620  -29.6004  -31.0459 H   0  0  0  0  0  0  0  0  0  0  0  0
  1  2  1  0  0  0
  1  6  2  0  0  0
  1 10  1  0  0  0
  2  3  1  0  0  0
  2  7  1  0  0  0
  3  4  1  0  0  0
  3  8  1  0  0  0
  4  5  1  0  0  0
  4  9  1  0  0  0
  5 14  1  0  0  0
  5 10  1  0  0  0
 14 15  1  0  0  0
  7 11  1  0  0  0
  8 12  1  0  0  0
  9 13  1  0  0  0
 15 16  1  0  0  0
M  END
> <minimizedAffinity>
-6.20729

$$$$
3MV0_149_1_2001


 16 16  0  0  0  0  0  0  0  0999 V2000
  -12.3510  -28.5422  -26.4251 C   0  0  0  0  0  0  0  0  0  0  0  0
  -12.4881  -28.2411  -27.9302 C   0  0  0  0  0  0  0  0  0  0  0  0
  -11.6544  -29.2313  -28.7644 C   0  0  0  0  0  0  0  0  0  0  0  0
  -10.2346  -29.3295  -28.2000 C   0  0  0  0  0  0  0  0  0  0  0  0
  -10.3173  -29.9999  -26.8043 C   0  0  0  0  0  0  0  0  0  0  0  0
  -13.1363  -28.0626  -25.6453 O   0  0  0  0  0  0  0  0  0  0  0  0
  -13.8661  -28.3547  -28.3120 O   0  0  0  0  0  0  0  0  0  0  0  0
  -11.6051  -28.7741  -30.1154 O   0  0  0  0  0  0  0  0  0  0  0  0
   -9.6638  -28.0133  -28.0716 O   0  0  0  0  0  0  0  0  0  0  0  0
  -11.3462  -29.3628  -25.9512 O   0  0  0  0  0  0  0  0  0  0  0  0
  -14.1756  -29.2580  -28.1411 H   0  0  0  0  0  0  0  0  0  0  0  0
  -11.1938  -27.8961  -30.1448 H   0  0  0  0  0  0  0  0  0  0  0  0
  -10.2144  -27.4785  -27.4786 H   0  0  0  0  0  0  0  0  0  0  0  0
   -8.9711  -29.8777  -26.0812 C   0  0  0  0  0  0  0  0  0  0  0  0
   -8.9651  -28.6947  -25.2834 O   0  0  0  0  0  0  0  0  0  0  0  0
   -9.0978  -27.9204  -25.8523 H   0  0  0  0  0  0  0  0  0  0  0  0
  1  2  1  0  0  0
  1  6  2  0  0  0
  1 10  1  0  0  0
  2  3  1  0  0  0
  2  7  1  0  0  0
  3  4  1  0  0  0
  3  8  1  0  0  0
  4  5  1  0  0  0
  4  9  1  0  0  0
  5 14  1  0  0  0
  5 10  1  0  0  0
 14 15  1  0  0  0
  7 11  1  0  0  0
  8 12  1  0  0  0
  9 13  1  0  0  0
 15 16  1  0  0  0
M  END
> <minimizedAffinity>
-6.18853

$$$$
3MV0_149_1_2001


 16 16  0  0  0  0  0  0  0  0999 V2000
  -12.1990  -28.2632  -28.0963 C   0  0  0  0  0  0  0  0  0  0  0  0
  -11.5520  -29.2460  -27.1012 C   0  0  0  0  0  0  0  0  0  0  0  0
  -12.5720  -30.2993  -26.6309 C   0  0  0  0  0  0  0  0  0  0  0  0
  -13.8694  -29.6156  -26.1911 C   0  0  0  0  0  0  0  0  0  0  0  0
  -14.5336  -28.9921  -27.4458 C   0  0  0  0  0  0  0  0  0  0  0  0
  -11.4998  -27.5544  -28.7771 O   0  0  0  0  0  0  0  0  0  0  0  0
  -10.4544  -29.9127  -27.7403 O   0  0  0  0  0  0  0  0  0  0  0  0
  -12.0166  -31.0278  -25.5367 O   0  0  0  0  0  0  0  0  0  0  0  0
  -13.5798  -28.5808  -25.2320 O   0  0  0  0  0  0  0  0  0  0  0  0
  -13.5715  -28.1854  -28.2306 O   0  0  0  0  0  0  0  0  0  0  0  0
  -10.7800  -30.4087  -28.5077 H   0  0  0  0  0  0  0  0  0  0  0  0
  -11.8192  -30.4176  -24.8089 H   0  0  0  0  0  0  0  0  0  0  0  0
  -12.9854  -27.9266  -25.6316 H   0  0  0  0  0  0  0  0  0  0  0  0
  -15.6843  -28.0692  -27.0284 C   0  0  0  0  0  0  0  0  0  0  0  0
  -15.1533  -26.8813  -26.4430 O   0  0  0  0  0  0  0  0  0  0  0  0
  -14.6258  -27.1132  -25.6627 H   0  0  0  0  0  0  0  0  0  0  0  0
  1  2  1  0  0  0
  1  6  2  0  0  0
  1 10  1  0  0  0
  2  3  1  0  0  0
  2  7  1  0  0  0
  3  4  1  0  0  0
  3  8  1  0  0  0
  4  5  1  0  0  0
  4  9  1  0  0  0
  5 14  1  0  0  0
  5 10  1  0  0  0
 14 15  1  0  0  0
  7 11  1  0  0  0
  8 12  1  0  0  0
  9 13  1  0  0  0
 15 16  1  0  0  0
M  END
> <minimizedAffinity>
-6.07910

$$$$
3MV0_149_1_2001


 16 16  0  0  0  0  0  0  0  0999 V2000
  -13.0111  -28.2278  -27.6693 C   0  0  0  0  0  0  0  0  0  0  0  0
  -12.3099  -27.9295  -26.3298 C   0  0  0  0  0  0  0  0  0  0  0  0
  -10.8024  -27.6977  -26.5412 C   0  0  0  0  0  0  0  0  0  0  0  0
  -10.2133  -28.8189  -27.4016 C   0  0  0  0  0  0  0  0  0  0  0  0
  -10.8099  -28.6949  -28.8274 C   0  0  0  0  0  0  0  0  0  0  0  0
  -14.2130  -28.1581  -27.7437 O   0  0  0  0  0  0  0  0  0  0  0  0
  -12.8853  -26.7521  -25.7463 O   0  0  0  0  0  0  0  0  0  0  0  0
  -10.1533  -27.6741  -25.2705 O   0  0  0  0  0  0  0  0  0  0  0  0
  -10.5577  -30.1010  -26.8426 O   0  0  0  0  0  0  0  0  0  0  0  0
  -12.2846  -28.5657  -28.7942 O   0  0  0  0  0  0  0  0  0  0  0  0
  -12.7573  -25.9992  -26.3444 H   0  0  0  0  0  0  0  0  0  0  0  0
  -10.2927  -28.5220  -24.8204 H   0  0  0  0  0  0  0  0  0  0  0  0
  -11.5230  -30.1895  -26.8073 H   0  0  0  0  0  0  0  0  0  0  0  0
  -10.4696  -29.9425  -29.6505 C   0  0  0  0  0  0  0  0  0  0  0  0
  -11.0856  -29.8484  -30.9341 O   0  0  0  0  0  0  0  0  0  0  0  0
  -12.0475  -29.7843  -30.8272 H   0  0  0  0  0  0  0  0  0  0  0  0
  1  2  1  0  0  0
  1  6  2  0  0  0
  1 10  1  0  0  0
  2  3  1  0  0  0
  2  7  1  0  0  0
  3  4  1  0  0  0
  3  8  1  0  0  0
  4  5  1  0  0  0
  4  9  1  0  0  0
  5 14  1  0  0  0
  5 10  1  0  0  0
 14 15  1  0  0  0
  7 11  1  0  0  0
  8 12  1  0  0  0
  9 13  1  0  0  0
 15 16  1  0  0  0
M  END
> <minimizedAffinity>
-5.94409

$$$$
3MV0_149_1_2001


 16 16  0  0  0  0  0  0  0  0999 V2000
  -12.5745  -27.2159  -26.2522 C   0  0  0  0  0  0  0  0  0  0  0  0
  -13.6888  -28.2793  -26.2057 C   0  0  0  0  0  0  0  0  0  0  0  0
  -13.1002  -29.6773  -25.9404 C   0  0  0  0  0  0  0  0  0  0  0  0
  -11.9244  -29.9410  -26.8850 C   0  0  0  0  0  0  0  0  0  0  0  0
  -10.7732  -28.9761  -26.5006 C   0  0  0  0  0  0  0  0  0  0  0  0
  -12.8596  -26.0468  -26.1690 O   0  0  0  0  0  0  0  0  0  0  0  0
  -14.6098  -27.9542  -25.1551 O   0  0  0  0  0  0  0  0  0  0  0  0
  -14.1164  -30.6568  -26.1512 O   0  0  0  0  0  0  0  0  0  0  0  0
  -12.3239  -29.6993  -28.2476 O   0  0  0  0  0  0  0  0  0  0  0  0
  -11.2478  -27.5789  -26.3784 O   0  0  0  0  0  0  0  0  0  0  0  0
  -14.1422  -27.9493  -24.3053 H   0  0  0  0  0  0  0  0  0  0  0  0
  -14.4312  -30.6042  -27.0672 H   0  0  0  0  0  0  0  0  0  0  0  0
  -12.6171  -28.7793  -28.3403 H   0  0  0  0  0  0  0  0  0  0  0  0
   -9.6811  -29.0050  -27.5760 C   0  0  0  0  0  0  0  0  0  0  0  0
   -9.9608  -28.0154  -28.5651 O   0  0  0  0  0  0  0  0  0  0  0  0
  -10.8211  -28.2002  -28.9732 H   0  0  0  0  0  0  0  0  0  0  0  0
  1  2  1  0  0  0
  1  6  2  0  0  0
  1 10  1  0  0  0
  2  3  1  0  0  0
  2  7  1  0  0  0
  3  4  1  0  0  0
  3  8  1  0  0  0
  4  5  1  0  0  0
  4  9  1  0  0  0
  5 14  1  0  0  0
  5 10  1  0  0  0
 14 15  1  0  0  0
  7 11  1  0  0  0
  8 12  1  0  0  0
  9 13  1  0  0  0
 15 16  1  0  0  0
M  END
> <minimizedAffinity>
-5.87049

$$$$
3MV0_149_1_2001


 16 16  0  0  0  0  0  0  0  0999 V2000
  -10.9608  -28.1033  -26.3795 C   0  0  0  0  0  0  0  0  0  0  0  0
  -10.5260  -28.8331  -27.6652 C   0  0  0  0  0  0  0  0  0  0  0  0
  -11.6730  -28.8627  -28.6921 C   0  0  0  0  0  0  0  0  0  0  0  0
  -12.9655  -29.3392  -28.0236 C   0  0  0  0  0  0  0  0  0  0  0  0
  -13.4080  -28.2561  -27.0061 C   0  0  0  0  0  0  0  0  0  0  0  0
  -10.1271  -27.7385  -25.5878 O   0  0  0  0  0  0  0  0  0  0  0  0
   -9.4030  -28.1505  -28.2402 O   0  0  0  0  0  0  0  0  0  0  0  0
  -11.3239  -29.7508  -29.7532 O   0  0  0  0  0  0  0  0  0  0  0  0
  -12.7342  -30.5836  -27.3362 O   0  0  0  0  0  0  0  0  0  0  0  0
  -12.2935  -27.8495  -26.1202 O   0  0  0  0  0  0  0  0  0  0  0  0
   -9.6570  -27.2414  -28.4635 H   0  0  0  0  0  0  0  0  0  0  0  0
  -11.1831  -30.6416  -29.3961 H   0  0  0  0  0  0  0  0  0  0  0  0
  -12.0460  -30.4587  -26.6641 H   0  0  0  0  0  0  0  0  0  0  0  0
  -14.5352  -28.7969  -26.1189 C   0  0  0  0  0  0  0  0  0  0  0  0
  -15.3255  -29.7218  -26.8644 O   0  0  0  0  0  0  0  0  0  0  0  0
  -15.7076  -29.2732  -27.6348 H   0  0  0  0  0  0  0  0  0  0  0  0
  1  2  1  0  0  0
  1  6  2  0  0  0
  1 10  1  0  0  0
  2  3  1  0  0  0
  2  7  1  0  0  0
  3  4  1  0  0  0
  3  8  1  0  0  0
  4  5  1  0  0  0
  4  9  1  0  0  0
  5 14  1  0  0  0
  5 10  1  0  0  0
 14 15  1  0  0  0
  7 11  1  0  0  0
  8 12  1  0  0  0
  9 13  1  0  0  0
 15 16  1  0  0  0
M  END
> <minimizedAffinity>
-5.76534

$$$$
3MV0_149_1_2001


 16 16  0  0  0  0  0  0  0  0999 V2000
  -14.1767  -29.2865  -26.6480 C   0  0  0  0  0  0  0  0  0  0  0  0
  -14.1447  -28.0958  -25.6703 C   0  0  0  0  0  0  0  0  0  0  0  0
  -13.3832  -26.9056  -26.2825 C   0  0  0  0  0  0  0  0  0  0  0  0
  -12.0419  -27.3760  -26.8517 C   0  0  0  0  0  0  0  0  0  0  0  0
  -12.3309  -28.2945  -28.0670 C   0  0  0  0  0  0  0  0  0  0  0  0
  -14.9541  -30.1904  -26.4645 O   0  0  0  0  0  0  0  0  0  0  0  0
  -15.4884  -27.6882  -25.3768 O   0  0  0  0  0  0  0  0  0  0  0  0
  -13.1593  -25.9264  -25.2687 O   0  0  0  0  0  0  0  0  0  0  0  0
  -11.3135  -28.1124  -25.8508 O   0  0  0  0  0  0  0  0  0  0  0  0
  -13.3340  -29.3337  -27.7414 O   0  0  0  0  0  0  0  0  0  0  0  0
  -15.9289  -27.4127  -26.1959 H   0  0  0  0  0  0  0  0  0  0  0  0
  -12.6335  -26.3164  -24.5530 H   0  0  0  0  0  0  0  0  0  0  0  0
  -11.8360  -28.8799  -25.5700 H   0  0  0  0  0  0  0  0  0  0  0  0
  -11.0465  -29.0073  -28.5051 C   0  0  0  0  0  0  0  0  0  0  0  0
   -9.9866  -28.0577  -28.6085 O   0  0  0  0  0  0  0  0  0  0  0  0
  -10.2207  -27.3820  -29.2639 H   0  0  0  0  0  0  0  0  0  0  0  0
  1  2  1  0  0  0
  1  6  2  0  0  0
  1 10  1  0  0  0
  2  3  1  0  0  0
  2  7  1  0  0  0
  3  4  1  0  0  0
  3  8  1  0  0  0
  4  5  1  0  0  0
  4  9  1  0  0  0
  5 14  1  0  0  0
  5 10  1  0  0  0
 14 15  1  0  0  0
  7 11  1  0  0  0
  8 12  1  0  0  0
  9 13  1  0  0  0
 15 16  1  0  0  0
M  END
> <minimizedAffinity>
-5.69989

$$$$
3MV0_149_1_2001


 16 16  0  0  0  0  0  0  0  0999 V2000
  -11.7818  -30.1502  -26.2012 C   0  0  0  0  0  0  0  0  0  0  0  0
  -10.6070  -29.6941  -27.0881 C   0  0  0  0  0  0  0  0  0  0  0  0
  -10.7225  -28.1951  -27.4208 C   0  0  0  0  0  0  0  0  0  0  0  0
  -12.1351  -27.8734  -27.9160 C   0  0  0  0  0  0  0  0  0  0  0  0
  -13.1156  -28.0655  -26.7302 C   0  0  0  0  0  0  0  0  0  0  0  0
  -11.7156  -31.2025  -25.6154 O   0  0  0  0  0  0  0  0  0  0  0  0
   -9.3729  -29.9239  -26.3939 O   0  0  0  0  0  0  0  0  0  0  0  0
   -9.7713  -27.8694  -28.4337 O   0  0  0  0  0  0  0  0  0  0  0  0
  -12.4946  -28.7629  -28.9903 O   0  0  0  0  0  0  0  0  0  0  0  0
  -12.9108  -29.3679  -26.0562 O   0  0  0  0  0  0  0  0  0  0  0  0
   -9.3647  -29.4110  -25.5706 H   0  0  0  0  0  0  0  0  0  0  0  0
   -9.9529  -28.3947  -29.2287 H   0  0  0  0  0  0  0  0  0  0  0  0
  -12.4598  -29.6800  -28.6761 H   0  0  0  0  0  0  0  0  0  0  0  0
  -14.5633  -28.0231  -27.2323 C   0  0  0  0  0  0  0  0  0  0  0  0
  -15.0319  -29.3535  -27.4471 O   0  0  0  0  0  0  0  0  0  0  0  0
  -14.4730  -29.7902  -28.1089 H   0  0  0  0  0  0  0  0  0  0  0  0
  1  2  1  0  0  0
  1  6  2  0  0  0
  1 10  1  0  0  0
  2  3  1  0  0  0
  2  7  1  0  0  0
  3  4  1  0  0  0
  3  8  1  0  0  0
  4  5  1  0  0  0
  4  9  1  0  0  0
  5 14  1  0  0  0
  5 10  1  0  0  0
 14 15  1  0  0  0
  7 11  1  0  0  0
  8 12  1  0  0  0
  9 13  1  0  0  0
 15 16  1  0  0  0
M  END
> <minimizedAffinity>
-5.61479

$$$$
