4TPW_33R_A_302


 31 33  0  0  0  0  0  0  0  0999 V2000
   -2.4124    1.7059    2.0067 C   0  0  0  0  0  0  0  0  0  0  0  0
   -2.9434    2.3271    0.9260 N   0  0  0  0  0  0  0  0  0  0  0  0
   -3.2242    1.7256    3.3037 C   0  0  0  0  0  0  0  0  0  0  0  0
   -4.0168    2.6786    3.5528 O   0  0  0  0  0  0  0  0  0  0  0  0
   -3.0815    0.7461    4.1483 O   0  0  0  0  0  0  0  0  0  0  0  0
   -2.4919    0.0438    3.9559 H   0  0  0  0  0  0  0  0  0  0  0  0
   -2.3249    2.4451   -0.2608 N   0  0  0  0  0  0  0  0  0  0  0  0
   -1.3668    2.2411   -0.3594 H   0  0  0  0  0  0  0  0  0  0  0  0
   -3.1116    2.8791   -1.3792 C   0  0  0  0  0  0  0  0  0  0  0  0
   -4.1283    2.2182   -1.9508 N   0  0  0  0  0  0  0  0  0  0  0  0
   -4.7073    2.8328   -3.0056 C   0  0  0  0  0  0  0  0  0  0  0  0
   -4.1850    4.0674   -3.3543 C   0  0  0  0  0  0  0  0  0  0  0  0
   -2.9025    4.3413   -2.2268 S   0  0  0  0  0  0  0  0  0  0  0  0
   -5.8138    2.2224   -3.6813 C   0  0  0  0  0  0  0  0  0  0  0  0
   -6.7183    0.3476   -4.8814 C   0  0  0  0  0  0  0  0  0  0  0  0
   -8.1024    2.2651   -4.4069 C   0  0  0  0  0  0  0  0  0  0  0  0
   -7.0425    2.8777   -3.7666 C   0  0  0  0  0  0  0  0  0  0  0  0
   -9.2689    0.2020   -5.7971 Cl  0  0  0  0  0  0  0  0  0  0  0  0
   -9.5982    3.0829   -4.4977 Cl  0  0  0  0  0  0  0  0  0  0  0  0
   -5.6624    0.9569   -4.2408 C   0  0  0  0  0  0  0  0  0  0  0  0
   -7.9424    0.9947   -4.9777 C   0  0  0  0  0  0  0  0  0  0  0  0
   -0.9342    1.3042    2.0303 C   0  0  0  0  0  0  0  0  0  0  0  0
    0.4293    3.2722    1.5661 C   0  0  0  0  0  0  0  0  0  0  0  0
    1.8936    4.2675    3.1976 C   0  0  0  0  0  0  0  0  0  0  0  0
    1.5190    3.3116    4.1069 C   0  0  0  0  0  0  0  0  0  0  0  0
    0.5845    2.3146    3.7574 C   0  0  0  0  0  0  0  0  0  0  0  0
    0.0433    2.3020    2.4808 C   0  0  0  0  0  0  0  0  0  0  0  0
    1.3482    4.2586    1.9228 C   0  0  0  0  0  0  0  0  0  0  0  0
    0.2300    1.3075    4.7954 N   0  0  0  0  0  0  0  0  0  0  0  0
   -0.6797    1.4991    5.5619 O   0  0  0  0  0  0  0  0  0  0  0  0
    0.8504    0.2763    4.8551 O   0  0  0  0  0  0  0  0  0  0  0  0
 25 24  2  0  0  0
 25 26  1  0  0  0
 24 28  1  0  0  0
 31 29  2  0  0  0
 29 30  2  0  0  0
 29 26  1  0  0  0
 26 27  2  0  0  0
 28 23  2  0  0  0
 27 23  1  0  0  0
 27 22  1  0  0  0
 22  1  1  0  0  0
  4  3  2  0  0  0
  3  1  1  0  0  0
  3  5  1  0  0  0
  1  2  2  0  0  0
  2  7  1  0  0  0
  7  9  1  0  0  0
  9 10  2  0  0  0
  9 13  1  0  0  0
 10 11  1  0  0  0
 20 15  2  0  0  0
 20 14  1  0  0  0
 13 12  1  0  0  0
 15 21  1  0  0  0
 11 14  1  0  0  0
 11 12  2  0  0  0
 14 17  2  0  0  0
 21 18  1  0  0  0
 21 16  2  0  0  0
 17 16  1  0  0  0
 16 19  1  0  0  0
  7  8  1  0  0  0
  5  6  1  0  0  0
M  END
> <minimizedAffinity>
-6.83896

$$$$
4TPW_33R_A_302


 31 33  0  0  0  0  0  0  0  0999 V2000
   -0.6457    1.7849    6.1252 C   0  0  0  0  0  0  0  0  0  0  0  0
   -1.9924    1.6663    6.0345 N   0  0  0  0  0  0  0  0  0  0  0  0
   -0.0899    2.7558    7.1693 C   0  0  0  0  0  0  0  0  0  0  0  0
    0.2686    2.3404    8.3083 O   0  0  0  0  0  0  0  0  0  0  0  0
    0.0037    4.0176    6.8659 O   0  0  0  0  0  0  0  0  0  0  0  0
   -0.2643    4.3171    6.0194 H   0  0  0  0  0  0  0  0  0  0  0  0
   -2.6271    0.9023    5.1297 N   0  0  0  0  0  0  0  0  0  0  0  0
   -2.3546   -0.0298    4.9680 H   0  0  0  0  0  0  0  0  0  0  0  0
   -3.7162    1.4945    4.4079 C   0  0  0  0  0  0  0  0  0  0  0  0
   -3.8041    1.6607    3.0804 N   0  0  0  0  0  0  0  0  0  0  0  0
   -4.9317    2.2597    2.6385 C   0  0  0  0  0  0  0  0  0  0  0  0
   -5.8541    2.6152    3.6087 C   0  0  0  0  0  0  0  0  0  0  0  0
   -5.1365    2.1255    5.1041 S   0  0  0  0  0  0  0  0  0  0  0  0
   -5.1365    2.4724    1.2361 C   0  0  0  0  0  0  0  0  0  0  0  0
   -6.6471    2.6587   -0.6230 C   0  0  0  0  0  0  0  0  0  0  0  0
   -4.2755    2.9463   -0.9547 C   0  0  0  0  0  0  0  0  0  0  0  0
   -4.0556    2.7264    0.3914 C   0  0  0  0  0  0  0  0  0  0  0  0
   -5.8791    3.1759   -3.1740 Cl  0  0  0  0  0  0  0  0  0  0  0  0
   -2.9394    3.2582   -1.9707 Cl  0  0  0  0  0  0  0  0  0  0  0  0
   -6.4285    2.4421    0.7194 C   0  0  0  0  0  0  0  0  0  0  0  0
   -5.5775    2.9049   -1.4726 C   0  0  0  0  0  0  0  0  0  0  0  0
    0.2639    1.2416    5.0186 C   0  0  0  0  0  0  0  0  0  0  0  0
   -0.4918    1.7065    2.7468 C   0  0  0  0  0  0  0  0  0  0  0  0
    0.4852    3.4184    1.3644 C   0  0  0  0  0  0  0  0  0  0  0  0
    1.3524    3.7333    2.3792 C   0  0  0  0  0  0  0  0  0  0  0  0
    1.3088    3.0353    3.6040 C   0  0  0  0  0  0  0  0  0  0  0  0
    0.3810    2.0199    3.7798 C   0  0  0  0  0  0  0  0  0  0  0  0
   -0.4464    2.4070    1.5420 C   0  0  0  0  0  0  0  0  0  0  0  0
    2.2847    3.4295    4.6574 N   0  0  0  0  0  0  0  0  0  0  0  0
    3.1442    2.6688    5.0241 O   0  0  0  0  0  0  0  0  0  0  0  0
    2.2255    4.5342    5.1349 O   0  0  0  0  0  0  0  0  0  0  0  0
 25 24  2  0  0  0
 25 26  1  0  0  0
 24 28  1  0  0  0
 31 29  2  0  0  0
 29 30  2  0  0  0
 29 26  1  0  0  0
 26 27  2  0  0  0
 28 23  2  0  0  0
 27 23  1  0  0  0
 27 22  1  0  0  0
 22  1  1  0  0  0
  4  3  2  0  0  0
  3  1  1  0  0  0
  3  5  1  0  0  0
  1  2  2  0  0  0
  2  7  1  0  0  0
  7  9  1  0  0  0
  9 10  2  0  0  0
  9 13  1  0  0  0
 10 11  1  0  0  0
 20 15  2  0  0  0
 20 14  1  0  0  0
 13 12  1  0  0  0
 15 21  1  0  0  0
 11 14  1  0  0  0
 11 12  2  0  0  0
 14 17  2  0  0  0
 21 18  1  0  0  0
 21 16  2  0  0  0
 17 16  1  0  0  0
 16 19  1  0  0  0
  7  8  1  0  0  0
  5  6  1  0  0  0
M  END
> <minimizedAffinity>
-6.81046

$$$$
4TPW_33R_A_302


 31 33  0  0  0  0  0  0  0  0999 V2000
   -2.4664    1.6623    2.2714 C   0  0  0  0  0  0  0  0  0  0  0  0
   -2.9213    2.3432    1.1920 N   0  0  0  0  0  0  0  0  0  0  0  0
   -3.2788    1.7615    3.5643 C   0  0  0  0  0  0  0  0  0  0  0  0
   -3.2465    0.8296    4.4180 O   0  0  0  0  0  0  0  0  0  0  0  0
   -4.0069    2.8204    3.7682 O   0  0  0  0  0  0  0  0  0  0  0  0
   -4.0251    3.5065    3.1303 H   0  0  0  0  0  0  0  0  0  0  0  0
   -2.2868    2.4010    0.0091 N   0  0  0  0  0  0  0  0  0  0  0  0
   -1.3379    2.1520   -0.0736 H   0  0  0  0  0  0  0  0  0  0  0  0
   -3.0426    2.8387   -1.1290 C   0  0  0  0  0  0  0  0  0  0  0  0
   -4.0356    2.1746   -1.7374 N   0  0  0  0  0  0  0  0  0  0  0  0
   -4.5873    2.7941   -2.8040 C   0  0  0  0  0  0  0  0  0  0  0  0
   -4.0652    4.0362   -3.1253 C   0  0  0  0  0  0  0  0  0  0  0  0
   -2.8203    4.3104   -1.9566 S   0  0  0  0  0  0  0  0  0  0  0  0
   -5.6673    2.1807   -3.5188 C   0  0  0  0  0  0  0  0  0  0  0  0
   -6.5224    0.3046   -4.7525 C   0  0  0  0  0  0  0  0  0  0  0  0
   -7.9292    2.2163   -4.3239 C   0  0  0  0  0  0  0  0  0  0  0  0
   -6.8947    2.8317   -3.6460 C   0  0  0  0  0  0  0  0  0  0  0  0
   -9.0389    0.1511   -5.7569 Cl  0  0  0  0  0  0  0  0  0  0  0  0
   -9.4239    3.0288   -4.4658 Cl  0  0  0  0  0  0  0  0  0  0  0  0
   -5.4918    0.9167   -4.0744 C   0  0  0  0  0  0  0  0  0  0  0  0
   -7.7448    0.9474   -4.8905 C   0  0  0  0  0  0  0  0  0  0  0  0
   -1.0400    1.1039    2.2999 C   0  0  0  0  0  0  0  0  0  0  0  0
    0.2517    1.2755    4.3615 C   0  0  0  0  0  0  0  0  0  0  0  0
    1.8403    3.0376    4.7709 C   0  0  0  0  0  0  0  0  0  0  0  0
    1.5553    3.5711    3.5399 C   0  0  0  0  0  0  0  0  0  0  0  0
    0.6081    2.9585    2.6933 C   0  0  0  0  0  0  0  0  0  0  0  0
   -0.0414    1.8077    3.1133 C   0  0  0  0  0  0  0  0  0  0  0  0
    1.1952    1.8836    5.1888 C   0  0  0  0  0  0  0  0  0  0  0  0
    0.3473    3.5977    1.3739 N   0  0  0  0  0  0  0  0  0  0  0  0
    0.8254    3.1512    0.3619 O   0  0  0  0  0  0  0  0  0  0  0  0
   -0.3698    4.5643    1.3164 O   0  0  0  0  0  0  0  0  0  0  0  0
 25 24  2  0  0  0
 25 26  1  0  0  0
 24 28  1  0  0  0
 31 29  2  0  0  0
 29 30  2  0  0  0
 29 26  1  0  0  0
 26 27  2  0  0  0
 28 23  2  0  0  0
 27 23  1  0  0  0
 27 22  1  0  0  0
 22  1  1  0  0  0
  4  3  2  0  0  0
  3  1  1  0  0  0
  3  5  1  0  0  0
  1  2  2  0  0  0
  2  7  1  0  0  0
  7  9  1  0  0  0
  9 10  2  0  0  0
  9 13  1  0  0  0
 10 11  1  0  0  0
 20 15  2  0  0  0
 20 14  1  0  0  0
 13 12  1  0  0  0
 15 21  1  0  0  0
 11 14  1  0  0  0
 11 12  2  0  0  0
 14 17  2  0  0  0
 21 18  1  0  0  0
 21 16  2  0  0  0
 17 16  1  0  0  0
 16 19  1  0  0  0
  7  8  1  0  0  0
  5  6  1  0  0  0
M  END
> <minimizedAffinity>
-6.66256

$$$$
4TPW_33R_A_302


 31 33  0  0  0  0  0  0  0  0999 V2000
   -3.8055    2.2224    5.4533 C   0  0  0  0  0  0  0  0  0  0  0  0
   -2.5696    2.1599    6.0051 N   0  0  0  0  0  0  0  0  0  0  0  0
   -4.8535    3.0836    6.1614 C   0  0  0  0  0  0  0  0  0  0  0  0
   -5.2170    2.8145    7.3420 O   0  0  0  0  0  0  0  0  0  0  0  0
   -5.3674    4.0959    5.5257 O   0  0  0  0  0  0  0  0  0  0  0  0
   -5.0924    4.2884    4.6509 H   0  0  0  0  0  0  0  0  0  0  0  0
   -1.5660    1.4012    5.5334 N   0  0  0  0  0  0  0  0  0  0  0  0
   -1.5177    0.4381    5.7319 H   0  0  0  0  0  0  0  0  0  0  0  0
   -0.5675    2.0458    4.7300 C   0  0  0  0  0  0  0  0  0  0  0  0
   -0.5882    2.2064    3.3991 N   0  0  0  0  0  0  0  0  0  0  0  0
    0.4813    2.8394    2.8689 C   0  0  0  0  0  0  0  0  0  0  0  0
    1.4542    3.2492    3.7657 C   0  0  0  0  0  0  0  0  0  0  0  0
    0.8741    2.7396    5.3132 S   0  0  0  0  0  0  0  0  0  0  0  0
    0.5548    3.0786    1.4578 C   0  0  0  0  0  0  0  0  0  0  0  0
   -0.3778    2.7803   -0.7364 C   0  0  0  0  0  0  0  0  0  0  0  0
    1.6294    4.0843   -0.4394 C   0  0  0  0  0  0  0  0  0  0  0  0
    1.5858    3.8504    0.9214 C   0  0  0  0  0  0  0  0  0  0  0  0
    0.6856    3.8199   -3.0064 Cl  0  0  0  0  0  0  0  0  0  0  0  0
    2.8978    5.0337   -1.0752 Cl  0  0  0  0  0  0  0  0  0  0  0  0
   -0.4230    2.5492    0.6206 C   0  0  0  0  0  0  0  0  0  0  0  0
    0.6480    3.5407   -1.2802 C   0  0  0  0  0  0  0  0  0  0  0  0
   -4.2334    1.2193    4.3772 C   0  0  0  0  0  0  0  0  0  0  0  0
   -3.7244    2.0984    2.1600 C   0  0  0  0  0  0  0  0  0  0  0  0
   -5.4250    2.7648    0.5914 C   0  0  0  0  0  0  0  0  0  0  0  0
   -6.3905    2.4226    1.5034 C   0  0  0  0  0  0  0  0  0  0  0  0
   -6.0347    1.9068    2.7670 C   0  0  0  0  0  0  0  0  0  0  0  0
   -4.6953    1.7478    3.0883 C   0  0  0  0  0  0  0  0  0  0  0  0
   -4.0856    2.6005    0.9103 C   0  0  0  0  0  0  0  0  0  0  0  0
   -7.1375    1.5624    3.7065 N   0  0  0  0  0  0  0  0  0  0  0  0
   -7.6428    2.4031    4.4064 O   0  0  0  0  0  0  0  0  0  0  0  0
   -7.5437    0.4289    3.7515 O   0  0  0  0  0  0  0  0  0  0  0  0
 25 24  2  0  0  0
 25 26  1  0  0  0
 24 28  1  0  0  0
 31 29  2  0  0  0
 29 30  2  0  0  0
 29 26  1  0  0  0
 26 27  2  0  0  0
 28 23  2  0  0  0
 27 23  1  0  0  0
 27 22  1  0  0  0
 22  1  1  0  0  0
  4  3  2  0  0  0
  3  1  1  0  0  0
  3  5  1  0  0  0
  1  2  2  0  0  0
  2  7  1  0  0  0
  7  9  1  0  0  0
  9 10  2  0  0  0
  9 13  1  0  0  0
 10 11  1  0  0  0
 20 15  2  0  0  0
 20 14  1  0  0  0
 13 12  1  0  0  0
 15 21  1  0  0  0
 11 14  1  0  0  0
 11 12  2  0  0  0
 14 17  2  0  0  0
 21 18  1  0  0  0
 21 16  2  0  0  0
 17 16  1  0  0  0
 16 19  1  0  0  0
  7  8  1  0  0  0
  5  6  1  0  0  0
M  END
> <minimizedAffinity>
-6.54033

$$$$
4TPW_33R_A_302


 31 33  0  0  0  0  0  0  0  0999 V2000
   -4.9626    3.3680   -3.2067 C   0  0  0  0  0  0  0  0  0  0  0  0
   -3.7442    3.3036   -2.6175 N   0  0  0  0  0  0  0  0  0  0  0  0
   -5.2749    4.6044   -4.0523 C   0  0  0  0  0  0  0  0  0  0  0  0
   -4.9586    4.6444   -5.2758 O   0  0  0  0  0  0  0  0  0  0  0  0
   -5.8684    5.6163   -3.4893 O   0  0  0  0  0  0  0  0  0  0  0  0
   -6.0994    5.5784   -2.5820 H   0  0  0  0  0  0  0  0  0  0  0  0
   -3.3485    2.3134   -1.8001 N   0  0  0  0  0  0  0  0  0  0  0  0
   -3.8120    1.4449   -1.7892 H   0  0  0  0  0  0  0  0  0  0  0  0
   -2.2260    2.5680   -0.9439 C   0  0  0  0  0  0  0  0  0  0  0  0
   -2.1233    2.2637    0.3578 N   0  0  0  0  0  0  0  0  0  0  0  0
   -0.9634    2.6189    0.9527 C   0  0  0  0  0  0  0  0  0  0  0  0
   -0.0277    3.2407    0.1425 C   0  0  0  0  0  0  0  0  0  0  0  0
   -0.7773    3.3300   -1.4136 S   0  0  0  0  0  0  0  0  0  0  0  0
   -0.7411    2.3268    2.3379 C   0  0  0  0  0  0  0  0  0  0  0  0
   -1.6087    1.6043    4.4589 C   0  0  0  0  0  0  0  0  0  0  0  0
    0.7308    2.1428    4.2261 C   0  0  0  0  0  0  0  0  0  0  0  0
    0.5334    2.4459    2.8928 C   0  0  0  0  0  0  0  0  0  0  0  0
   -0.1204    1.3421    6.7130 Cl  0  0  0  0  0  0  0  0  0  0  0  0
    2.2986    2.2924    4.8849 Cl  0  0  0  0  0  0  0  0  0  0  0  0
   -1.8053    1.9038    3.1291 C   0  0  0  0  0  0  0  0  0  0  0  0
   -0.3459    1.7268    5.0217 C   0  0  0  0  0  0  0  0  0  0  0  0
   -6.0911    2.4260   -2.7751 C   0  0  0  0  0  0  0  0  0  0  0  0
   -6.3986    0.7346   -4.5050 C   0  0  0  0  0  0  0  0  0  0  0  0
   -8.3950    0.5732   -5.8410 C   0  0  0  0  0  0  0  0  0  0  0  0
   -8.9205    1.6498   -5.1734 C   0  0  0  0  0  0  0  0  0  0  0  0
   -8.1879    2.2890   -4.1516 C   0  0  0  0  0  0  0  0  0  0  0  0
   -6.9237    1.8237   -3.8230 C   0  0  0  0  0  0  0  0  0  0  0  0
   -7.1332    0.1042   -5.5087 C   0  0  0  0  0  0  0  0  0  0  0  0
   -8.8212    3.4545   -3.4748 N   0  0  0  0  0  0  0  0  0  0  0  0
   -9.4661    3.3126   -2.4669 O   0  0  0  0  0  0  0  0  0  0  0  0
   -8.6683    4.5587   -3.9321 O   0  0  0  0  0  0  0  0  0  0  0  0
 25 24  2  0  0  0
 25 26  1  0  0  0
 24 28  1  0  0  0
 31 29  2  0  0  0
 29 30  2  0  0  0
 29 26  1  0  0  0
 26 27  2  0  0  0
 28 23  2  0  0  0
 27 23  1  0  0  0
 27 22  1  0  0  0
 22  1  1  0  0  0
  4  3  2  0  0  0
  3  1  1  0  0  0
  3  5  1  0  0  0
  1  2  2  0  0  0
  2  7  1  0  0  0
  7  9  1  0  0  0
  9 10  2  0  0  0
  9 13  1  0  0  0
 10 11  1  0  0  0
 20 15  2  0  0  0
 20 14  1  0  0  0
 13 12  1  0  0  0
 15 21  1  0  0  0
 11 14  1  0  0  0
 11 12  2  0  0  0
 14 17  2  0  0  0
 21 18  1  0  0  0
 21 16  2  0  0  0
 17 16  1  0  0  0
 16 19  1  0  0  0
  7  8  1  0  0  0
  5  6  1  0  0  0
M  END
> <minimizedAffinity>
-6.51336

$$$$
4TPW_33R_A_302


 31 33  0  0  0  0  0  0  0  0999 V2000
   -0.4661    1.7882    6.1048 C   0  0  0  0  0  0  0  0  0  0  0  0
   -1.7676    1.5744    5.7947 N   0  0  0  0  0  0  0  0  0  0  0  0
   -0.1624    2.7366    7.2667 C   0  0  0  0  0  0  0  0  0  0  0  0
    0.1752    2.2824    8.3972 O   0  0  0  0  0  0  0  0  0  0  0  0
   -0.2615    4.0193    7.0721 O   0  0  0  0  0  0  0  0  0  0  0  0
   -0.5123    4.3476    6.2311 H   0  0  0  0  0  0  0  0  0  0  0  0
   -2.1878    0.8181    4.7668 N   0  0  0  0  0  0  0  0  0  0  0  0
   -1.7910   -0.0649    4.5873 H   0  0  0  0  0  0  0  0  0  0  0  0
   -3.2359    1.3441    3.9405 C   0  0  0  0  0  0  0  0  0  0  0  0
   -3.1368    1.7134    2.6555 N   0  0  0  0  0  0  0  0  0  0  0  0
   -4.2686    2.1934    2.0950 C   0  0  0  0  0  0  0  0  0  0  0  0
   -5.3853    2.2331    2.9135 C   0  0  0  0  0  0  0  0  0  0  0  0
   -4.8415    1.6197    4.4363 S   0  0  0  0  0  0  0  0  0  0  0  0
   -4.2793    2.6021    0.7214 C   0  0  0  0  0  0  0  0  0  0  0  0
   -5.5259    3.1434   -1.2600 C   0  0  0  0  0  0  0  0  0  0  0  0
   -3.1185    3.2908   -1.2644 C   0  0  0  0  0  0  0  0  0  0  0  0
   -3.0861    2.8812    0.0545 C   0  0  0  0  0  0  0  0  0  0  0  0
   -4.4085    3.9289   -3.6051 Cl  0  0  0  0  0  0  0  0  0  0  0  0
   -1.6473    3.6300   -2.0614 Cl  0  0  0  0  0  0  0  0  0  0  0  0
   -5.4941    2.7376    0.0557 C   0  0  0  0  0  0  0  0  0  0  0  0
   -4.3437    3.4163   -1.9340 C   0  0  0  0  0  0  0  0  0  0  0  0
    0.6468    1.3790    5.1347 C   0  0  0  0  0  0  0  0  0  0  0  0
    2.9222    2.2432    5.2890 C   0  0  0  0  0  0  0  0  0  0  0  0
    3.6482    4.2356    4.1491 C   0  0  0  0  0  0  0  0  0  0  0  0
    2.3883    4.3892    3.6294 C   0  0  0  0  0  0  0  0  0  0  0  0
    1.3685    3.4632    3.9324 C   0  0  0  0  0  0  0  0  0  0  0  0
    1.6447    2.3900    4.7659 C   0  0  0  0  0  0  0  0  0  0  0  0
    3.9263    3.1594    4.9779 C   0  0  0  0  0  0  0  0  0  0  0  0
    0.0245    3.6978    3.3356 N   0  0  0  0  0  0  0  0  0  0  0  0
   -0.2726    3.2240    2.2682 O   0  0  0  0  0  0  0  0  0  0  0  0
   -0.7845    4.3549    3.9401 O   0  0  0  0  0  0  0  0  0  0  0  0
 25 24  2  0  0  0
 25 26  1  0  0  0
 24 28  1  0  0  0
 31 29  2  0  0  0
 29 30  2  0  0  0
 29 26  1  0  0  0
 26 27  2  0  0  0
 28 23  2  0  0  0
 27 23  1  0  0  0
 27 22  1  0  0  0
 22  1  1  0  0  0
  4  3  2  0  0  0
  3  1  1  0  0  0
  3  5  1  0  0  0
  1  2  2  0  0  0
  2  7  1  0  0  0
  7  9  1  0  0  0
  9 10  2  0  0  0
  9 13  1  0  0  0
 10 11  1  0  0  0
 20 15  2  0  0  0
 20 14  1  0  0  0
 13 12  1  0  0  0
 15 21  1  0  0  0
 11 14  1  0  0  0
 11 12  2  0  0  0
 14 17  2  0  0  0
 21 18  1  0  0  0
 21 16  2  0  0  0
 17 16  1  0  0  0
 16 19  1  0  0  0
  7  8  1  0  0  0
  5  6  1  0  0  0
M  END
> <minimizedAffinity>
-6.50723

$$$$
4TPW_33R_A_302


 31 33  0  0  0  0  0  0  0  0999 V2000
   -3.4092    3.9572    6.8365 C   0  0  0  0  0  0  0  0  0  0  0  0
   -2.2169    3.3451    7.0353 N   0  0  0  0  0  0  0  0  0  0  0  0
   -3.7174    5.1966    7.6794 C   0  0  0  0  0  0  0  0  0  0  0  0
   -4.6179    6.0095    7.3236 O   0  0  0  0  0  0  0  0  0  0  0  0
   -3.0335    5.4017    8.7671 O   0  0  0  0  0  0  0  0  0  0  0  0
   -2.3678    4.7942    9.0236 H   0  0  0  0  0  0  0  0  0  0  0  0
   -1.8310    2.2170    6.4160 N   0  0  0  0  0  0  0  0  0  0  0  0
   -2.2730    1.3568    6.6005 H   0  0  0  0  0  0  0  0  0  0  0  0
   -0.7514    2.3117    5.4761 C   0  0  0  0  0  0  0  0  0  0  0  0
   -0.8496    2.5621    4.1627 N   0  0  0  0  0  0  0  0  0  0  0  0
    0.3177    2.5890    3.4827 C   0  0  0  0  0  0  0  0  0  0  0  0
    1.4634    2.3654    4.2283 C   0  0  0  0  0  0  0  0  0  0  0  0
    0.8994    2.1118    5.8434 S   0  0  0  0  0  0  0  0  0  0  0  0
    0.3300    2.8639    2.0762 C   0  0  0  0  0  0  0  0  0  0  0  0
    1.4073    3.8746    0.1813 C   0  0  0  0  0  0  0  0  0  0  0  0
   -0.6410    2.6344   -0.1078 C   0  0  0  0  0  0  0  0  0  0  0  0
   -0.6800    2.3734    1.2482 C   0  0  0  0  0  0  0  0  0  0  0  0
    0.4707    3.7438   -2.3624 Cl  0  0  0  0  0  0  0  0  0  0  0  0
   -1.8851    2.0226   -1.1039 Cl  0  0  0  0  0  0  0  0  0  0  0  0
    1.3701    3.6123    1.5328 C   0  0  0  0  0  0  0  0  0  0  0  0
    0.4031    3.3971   -0.6494 C   0  0  0  0  0  0  0  0  0  0  0  0
   -4.5296    3.2550    6.0626 C   0  0  0  0  0  0  0  0  0  0  0  0
   -4.2507    4.3089    3.8810 C   0  0  0  0  0  0  0  0  0  0  0  0
   -4.1100    3.0580    1.8288 C   0  0  0  0  0  0  0  0  0  0  0  0
   -4.2482    1.8922    2.5379 C   0  0  0  0  0  0  0  0  0  0  0  0
   -4.3886    1.9173    3.9411 C   0  0  0  0  0  0  0  0  0  0  0  0
   -4.3893    3.1337    4.6067 C   0  0  0  0  0  0  0  0  0  0  0  0
   -4.1049    4.2742    2.4947 C   0  0  0  0  0  0  0  0  0  0  0  0
   -4.5390    0.6123    4.6424 N   0  0  0  0  0  0  0  0  0  0  0  0
   -5.6060    0.0549    4.6957 O   0  0  0  0  0  0  0  0  0  0  0  0
   -3.5733    0.0970    5.1462 O   0  0  0  0  0  0  0  0  0  0  0  0
 25 24  2  0  0  0
 25 26  1  0  0  0
 24 28  1  0  0  0
 31 29  2  0  0  0
 29 30  2  0  0  0
 29 26  1  0  0  0
 26 27  2  0  0  0
 28 23  2  0  0  0
 27 23  1  0  0  0
 27 22  1  0  0  0
 22  1  1  0  0  0
  4  3  2  0  0  0
  3  1  1  0  0  0
  3  5  1  0  0  0
  1  2  2  0  0  0
  2  7  1  0  0  0
  7  9  1  0  0  0
  9 10  2  0  0  0
  9 13  1  0  0  0
 10 11  1  0  0  0
 20 15  2  0  0  0
 20 14  1  0  0  0
 13 12  1  0  0  0
 15 21  1  0  0  0
 11 14  1  0  0  0
 11 12  2  0  0  0
 14 17  2  0  0  0
 21 18  1  0  0  0
 21 16  2  0  0  0
 17 16  1  0  0  0
 16 19  1  0  0  0
  7  8  1  0  0  0
  5  6  1  0  0  0
M  END
> <minimizedAffinity>
-6.49519

$$$$
4TPW_33R_A_302


 31 33  0  0  0  0  0  0  0  0999 V2000
   -1.2061    2.8404    2.2655 C   0  0  0  0  0  0  0  0  0  0  0  0
   -0.4560    3.0964    1.1666 N   0  0  0  0  0  0  0  0  0  0  0  0
   -0.8590    3.5954    3.5505 C   0  0  0  0  0  0  0  0  0  0  0  0
    0.3324    3.6361    3.9715 O   0  0  0  0  0  0  0  0  0  0  0  0
   -1.8125    4.1918    4.2049 O   0  0  0  0  0  0  0  0  0  0  0  0
   -2.6928    4.1566    3.8859 H   0  0  0  0  0  0  0  0  0  0  0  0
   -0.6013    2.4705   -0.0133 N   0  0  0  0  0  0  0  0  0  0  0  0
   -0.1638    1.6064   -0.1898 H   0  0  0  0  0  0  0  0  0  0  0  0
   -1.4171    3.1075   -1.0066 C   0  0  0  0  0  0  0  0  0  0  0  0
   -2.6209    2.7035   -1.4370 N   0  0  0  0  0  0  0  0  0  0  0  0
   -3.1880    3.4696   -2.3946 C   0  0  0  0  0  0  0  0  0  0  0  0
   -2.4606    4.5762   -2.8009 C   0  0  0  0  0  0  0  0  0  0  0  0
   -1.0099    4.5233   -1.8609 S   0  0  0  0  0  0  0  0  0  0  0  0
   -4.4815    3.1383   -2.9151 C   0  0  0  0  0  0  0  0  0  0  0  0
   -6.3928    1.6823   -2.9183 C   0  0  0  0  0  0  0  0  0  0  0  0
   -6.3428    3.6201   -4.3535 C   0  0  0  0  0  0  0  0  0  0  0  0
   -5.0879    3.9466   -3.8770 C   0  0  0  0  0  0  0  0  0  0  0  0
   -8.5882    2.0408   -4.4728 Cl  0  0  0  0  0  0  0  0  0  0  0  0
   -7.0684    4.6239   -5.5283 Cl  0  0  0  0  0  0  0  0  0  0  0  0
   -5.1429    2.0090   -2.4411 C   0  0  0  0  0  0  0  0  0  0  0  0
   -7.0010    2.4762   -3.8806 C   0  0  0  0  0  0  0  0  0  0  0  0
   -2.1261    1.6164    2.3170 C   0  0  0  0  0  0  0  0  0  0  0  0
   -4.2403    2.3225    1.3274 C   0  0  0  0  0  0  0  0  0  0  0  0
   -6.3197    2.3259    2.5408 C   0  0  0  0  0  0  0  0  0  0  0  0
   -5.6649    1.8563    3.6507 C   0  0  0  0  0  0  0  0  0  0  0  0
   -4.2769    1.6086    3.6147 C   0  0  0  0  0  0  0  0  0  0  0  0
   -3.5700    1.8455    2.4456 C   0  0  0  0  0  0  0  0  0  0  0  0
   -5.6141    2.5574    1.3699 C   0  0  0  0  0  0  0  0  0  0  0  0
   -3.6340    1.1043    4.8596 N   0  0  0  0  0  0  0  0  0  0  0  0
   -3.0736    1.8550    5.6175 O   0  0  0  0  0  0  0  0  0  0  0  0
   -3.6939   -0.0701    5.1222 O   0  0  0  0  0  0  0  0  0  0  0  0
 25 24  2  0  0  0
 25 26  1  0  0  0
 24 28  1  0  0  0
 31 29  2  0  0  0
 29 30  2  0  0  0
 29 26  1  0  0  0
 26 27  2  0  0  0
 28 23  2  0  0  0
 27 23  1  0  0  0
 27 22  1  0  0  0
 22  1  1  0  0  0
  4  3  2  0  0  0
  3  1  1  0  0  0
  3  5  1  0  0  0
  1  2  2  0  0  0
  2  7  1  0  0  0
  7  9  1  0  0  0
  9 10  2  0  0  0
  9 13  1  0  0  0
 10 11  1  0  0  0
 20 15  2  0  0  0
 20 14  1  0  0  0
 13 12  1  0  0  0
 15 21  1  0  0  0
 11 14  1  0  0  0
 11 12  2  0  0  0
 14 17  2  0  0  0
 21 18  1  0  0  0
 21 16  2  0  0  0
 17 16  1  0  0  0
 16 19  1  0  0  0
  7  8  1  0  0  0
  5  6  1  0  0  0
M  END
> <minimizedAffinity>
-6.37994

$$$$
4TPW_33R_A_302


 31 33  0  0  0  0  0  0  0  0999 V2000
   -0.8931    1.8857    5.7375 C   0  0  0  0  0  0  0  0  0  0  0  0
   -2.1846    1.5360    5.5238 N   0  0  0  0  0  0  0  0  0  0  0  0
   -0.5990    2.8239    6.9100 C   0  0  0  0  0  0  0  0  0  0  0  0
    0.0561    2.4168    7.9117 O   0  0  0  0  0  0  0  0  0  0  0  0
   -1.0386    4.0476    6.8601 O   0  0  0  0  0  0  0  0  0  0  0  0
   -1.5234    4.3412    6.1139 H   0  0  0  0  0  0  0  0  0  0  0  0
   -2.6039    0.7709    4.5021 N   0  0  0  0  0  0  0  0  0  0  0  0
   -2.6563   -0.2086    4.5862 H   0  0  0  0  0  0  0  0  0  0  0  0
   -2.9724    1.4334    3.2842 C   0  0  0  0  0  0  0  0  0  0  0  0
   -2.1575    1.7685    2.2738 N   0  0  0  0  0  0  0  0  0  0  0  0
   -2.7436    2.4010    1.2336 C   0  0  0  0  0  0  0  0  0  0  0  0
   -4.1085    2.6126    1.3389 C   0  0  0  0  0  0  0  0  0  0  0  0
   -4.5439    1.9455    2.8740 S   0  0  0  0  0  0  0  0  0  0  0  0
   -1.9683    2.7900    0.0928 C   0  0  0  0  0  0  0  0  0  0  0  0
    0.0740    2.6353   -1.1633 C   0  0  0  0  0  0  0  0  0  0  0  0
   -1.7425    4.0035   -1.9667 C   0  0  0  0  0  0  0  0  0  0  0  0
   -2.4993    3.6543   -0.8650 C   0  0  0  0  0  0  0  0  0  0  0  0
    0.5351    3.9324   -3.5021 Cl  0  0  0  0  0  0  0  0  0  0  0  0
   -2.4119    5.0602   -3.1286 Cl  0  0  0  0  0  0  0  0  0  0  0  0
   -0.6812    2.2848   -0.0663 C   0  0  0  0  0  0  0  0  0  0  0  0
   -0.4428    3.5003   -2.1178 C   0  0  0  0  0  0  0  0  0  0  0  0
    0.1725    1.6370    4.6652 C   0  0  0  0  0  0  0  0  0  0  0  0
    2.5253    1.9313    5.2357 C   0  0  0  0  0  0  0  0  0  0  0  0
    3.7413    3.9588    4.7809 C   0  0  0  0  0  0  0  0  0  0  0  0
    2.6092    4.5068    4.2338 C   0  0  0  0  0  0  0  0  0  0  0  0
    1.4089    3.7684    4.1770 C   0  0  0  0  0  0  0  0  0  0  0  0
    1.3754    2.4776    4.6821 C   0  0  0  0  0  0  0  0  0  0  0  0
    3.7096    2.6659    5.2809 C   0  0  0  0  0  0  0  0  0  0  0  0
    0.2197    4.4311    3.5734 N   0  0  0  0  0  0  0  0  0  0  0  0
   -0.5747    5.0248    4.2577 O   0  0  0  0  0  0  0  0  0  0  0  0
    0.0619    4.3895    2.3796 O   0  0  0  0  0  0  0  0  0  0  0  0
 25 24  2  0  0  0
 25 26  1  0  0  0
 24 28  1  0  0  0
 31 29  2  0  0  0
 29 30  2  0  0  0
 29 26  1  0  0  0
 26 27  2  0  0  0
 28 23  2  0  0  0
 27 23  1  0  0  0
 27 22  1  0  0  0
 22  1  1  0  0  0
  4  3  2  0  0  0
  3  1  1  0  0  0
  3  5  1  0  0  0
  1  2  2  0  0  0
  2  7  1  0  0  0
  7  9  1  0  0  0
  9 10  2  0  0  0
  9 13  1  0  0  0
 10 11  1  0  0  0
 20 15  2  0  0  0
 20 14  1  0  0  0
 13 12  1  0  0  0
 15 21  1  0  0  0
 11 14  1  0  0  0
 11 12  2  0  0  0
 14 17  2  0  0  0
 21 18  1  0  0  0
 21 16  2  0  0  0
 17 16  1  0  0  0
 16 19  1  0  0  0
  7  8  1  0  0  0
  5  6  1  0  0  0
M  END
> <minimizedAffinity>
-6.27461

$$$$
4TPW_33R_A_302


 31 33  0  0  0  0  0  0  0  0999 V2000
   -0.4619    2.8639    1.6898 C   0  0  0  0  0  0  0  0  0  0  0  0
   -0.5043    2.9834    0.3409 N   0  0  0  0  0  0  0  0  0  0  0  0
    0.4803    3.7970    2.4534 C   0  0  0  0  0  0  0  0  0  0  0  0
    0.4150    5.0494    2.2937 O   0  0  0  0  0  0  0  0  0  0  0  0
    1.3532    3.2787    3.2674 O   0  0  0  0  0  0  0  0  0  0  0  0
    1.3948    2.3494    3.3798 H   0  0  0  0  0  0  0  0  0  0  0  0
   -1.2349    2.1973   -0.4675 N   0  0  0  0  0  0  0  0  0  0  0  0
   -0.9189    1.3031   -0.7317 H   0  0  0  0  0  0  0  0  0  0  0  0
   -2.4924    2.7087   -0.9315 C   0  0  0  0  0  0  0  0  0  0  0  0
   -3.3466    2.1023   -1.7682 N   0  0  0  0  0  0  0  0  0  0  0  0
   -4.4662    2.7969   -2.0671 C   0  0  0  0  0  0  0  0  0  0  0  0
   -4.5931    4.0381   -1.4654 C   0  0  0  0  0  0  0  0  0  0  0  0
   -3.1600    4.2187   -0.5142 S   0  0  0  0  0  0  0  0  0  0  0  0
   -5.4552    2.2357   -2.9394 C   0  0  0  0  0  0  0  0  0  0  0  0
   -6.1219    0.4897   -4.4493 C   0  0  0  0  0  0  0  0  0  0  0  0
   -7.6416    2.2893   -3.9304 C   0  0  0  0  0  0  0  0  0  0  0  0
   -6.6949    2.8554   -3.0986 C   0  0  0  0  0  0  0  0  0  0  0  0
   -8.5368    0.3705   -5.6816 Cl  0  0  0  0  0  0  0  0  0  0  0  0
   -9.1534    3.0620   -4.1093 Cl  0  0  0  0  0  0  0  0  0  0  0  0
   -5.1789    1.0524   -3.6181 C   0  0  0  0  0  0  0  0  0  0  0  0
   -7.3554    1.1027   -4.6199 C   0  0  0  0  0  0  0  0  0  0  0  0
   -1.0607    1.6374    2.3858 C   0  0  0  0  0  0  0  0  0  0  0  0
   -3.4956    1.7753    2.3732 C   0  0  0  0  0  0  0  0  0  0  0  0
   -4.8001    2.1150    4.3680 C   0  0  0  0  0  0  0  0  0  0  0  0
   -3.6461    2.1499    5.1084 C   0  0  0  0  0  0  0  0  0  0  0  0
   -2.3893    1.9946    4.4876 C   0  0  0  0  0  0  0  0  0  0  0  0
   -2.3228    1.8076    3.1152 C   0  0  0  0  0  0  0  0  0  0  0  0
   -4.7343    1.9222    2.9965 C   0  0  0  0  0  0  0  0  0  0  0  0
   -1.1802    2.0488    5.3552 N   0  0  0  0  0  0  0  0  0  0  0  0
   -0.7450    1.0537    5.8771 O   0  0  0  0  0  0  0  0  0  0  0  0
   -0.6175    3.1013    5.5204 O   0  0  0  0  0  0  0  0  0  0  0  0
 25 24  2  0  0  0
 25 26  1  0  0  0
 24 28  1  0  0  0
 31 29  2  0  0  0
 29 30  2  0  0  0
 29 26  1  0  0  0
 26 27  2  0  0  0
 28 23  2  0  0  0
 27 23  1  0  0  0
 27 22  1  0  0  0
 22  1  1  0  0  0
  4  3  2  0  0  0
  3  1  1  0  0  0
  3  5  1  0  0  0
  1  2  2  0  0  0
  2  7  1  0  0  0
  7  9  1  0  0  0
  9 10  2  0  0  0
  9 13  1  0  0  0
 10 11  1  0  0  0
 20 15  2  0  0  0
 20 14  1  0  0  0
 13 12  1  0  0  0
 15 21  1  0  0  0
 11 14  1  0  0  0
 11 12  2  0  0  0
 14 17  2  0  0  0
 21 18  1  0  0  0
 21 16  2  0  0  0
 17 16  1  0  0  0
 16 19  1  0  0  0
  7  8  1  0  0  0
  5  6  1  0  0  0
M  END
> <minimizedAffinity>
-6.25015

$$$$
