3BFT_S2P_A_1009


 16 16  0  0  0  0  0  0  0  0999 V2000
  -11.2717   25.8024   41.7180 C   0  0  0  0  0  0  0  0  0  0  0  0
  -12.8403   25.2194   39.7054 C   0  0  0  0  0  0  0  0  0  0  0  0
  -12.0369   26.2118   40.4769 C   0  0  0  0  0  0  0  0  0  0  0  0
  -12.1065   27.4261   39.9271 N   0  0  0  0  0  0  0  0  0  0  0  0
  -12.8340   24.0536   40.1493 O   0  0  0  0  0  0  0  0  0  0  0  0
  -13.4796   25.7145   38.5991 N   0  0  0  0  0  0  0  0  0  0  0  0
  -13.1170   27.4340   38.4731 S   0  0  0  0  0  0  0  0  0  0  0  0
  -12.3488   23.8501   40.9246 H   0  0  0  0  0  0  0  0  0  0  0  0
  -11.3912   26.8712   42.8340 C   0  0  0  0  0  0  0  0  0  0  0  0
  -11.0583   28.3196   42.3755 N   0  0  0  0  0  0  0  0  0  0  0  0
  -10.0764   28.3731   42.1043 H   0  0  0  0  0  0  0  0  0  0  0  0
  -11.2349   28.9681   43.1427 H   0  0  0  0  0  0  0  0  0  0  0  0
  -10.5070   27.2112   45.1179 O   0  0  0  0  0  0  0  0  0  0  0  0
  -10.4673   26.5290   44.0538 C   0  0  0  0  0  0  0  0  0  0  0  0
   -9.7562   25.5194   43.7751 O   0  0  0  0  0  0  0  0  0  0  0  0
   -9.8330   25.1096   42.9360 H   0  0  0  0  0  0  0  0  0  0  0  0
  2  3  1  0  0  0
  2  5  1  0  0  0
  2  6  2  0  0  0
  3  4  2  0  0  0
  3  1  1  0  0  0
  4  7  1  0  0  0
  1  9  1  0  0  0
  9 14  1  0  0  0
  9 10  1  0  0  0
 13 14  2  0  0  0
 14 15  1  0  0  0
  6  7  1  0  0  0
  5  8  1  0  0  0
 15 16  1  0  0  0
 10 11  1  0  0  0
 10 12  1  0  0  0
M  END
> <minimizedAffinity>
-7.57766

$$$$
3BFT_S2P_A_1009


 16 16  0  0  0  0  0  0  0  0999 V2000
  -11.8238   26.3634   42.6337 C   0  0  0  0  0  0  0  0  0  0  0  0
  -12.3026   27.2514   40.2185 C   0  0  0  0  0  0  0  0  0  0  0  0
  -11.8687   26.1564   41.1341 C   0  0  0  0  0  0  0  0  0  0  0  0
  -11.5510   25.0522   40.4549 N   0  0  0  0  0  0  0  0  0  0  0  0
  -12.6188   28.3254   40.7686 O   0  0  0  0  0  0  0  0  0  0  0  0
  -12.3057   26.9350   38.8851 N   0  0  0  0  0  0  0  0  0  0  0  0
  -11.7636   25.2678   38.7103 S   0  0  0  0  0  0  0  0  0  0  0  0
  -12.5695   28.4066   41.7007 H   0  0  0  0  0  0  0  0  0  0  0  0
  -10.3865   26.1863   43.1859 C   0  0  0  0  0  0  0  0  0  0  0  0
   -9.8070   24.7524   43.0224 N   0  0  0  0  0  0  0  0  0  0  0  0
  -10.3548   24.0985   43.5816 H   0  0  0  0  0  0  0  0  0  0  0  0
   -8.8370   24.7398   43.3376 H   0  0  0  0  0  0  0  0  0  0  0  0
  -10.9942   27.5162   45.1798 O   0  0  0  0  0  0  0  0  0  0  0  0
  -10.3076   26.5662   44.7051 C   0  0  0  0  0  0  0  0  0  0  0  0
   -9.5004   25.7885   45.2937 O   0  0  0  0  0  0  0  0  0  0  0  0
   -9.0557   25.1209   44.8094 H   0  0  0  0  0  0  0  0  0  0  0  0
  2  3  1  0  0  0
  2  5  1  0  0  0
  2  6  2  0  0  0
  3  4  2  0  0  0
  3  1  1  0  0  0
  4  7  1  0  0  0
  1  9  1  0  0  0
  9 14  1  0  0  0
  9 10  1  0  0  0
 13 14  2  0  0  0
 14 15  1  0  0  0
  6  7  1  0  0  0
  5  8  1  0  0  0
 15 16  1  0  0  0
 10 11  1  0  0  0
 10 12  1  0  0  0
M  END
> <minimizedAffinity>
-7.44374

$$$$
3BFT_S2P_A_1009


 16 16  0  0  0  0  0  0  0  0999 V2000
  -11.8876   26.3446   42.7638 C   0  0  0  0  0  0  0  0  0  0  0  0
  -12.0390   25.3554   40.3453 C   0  0  0  0  0  0  0  0  0  0  0  0
  -11.9737   26.5296   41.2632 C   0  0  0  0  0  0  0  0  0  0  0  0
  -12.0038   27.6789   40.5851 N   0  0  0  0  0  0  0  0  0  0  0  0
  -12.0174   24.2355   40.8943 O   0  0  0  0  0  0  0  0  0  0  0  0
  -12.1075   25.6571   39.0102 N   0  0  0  0  0  0  0  0  0  0  0  0
  -12.1010   27.4103   38.8376 S   0  0  0  0  0  0  0  0  0  0  0  0
  -11.9685   24.1723   41.8279 H   0  0  0  0  0  0  0  0  0  0  0  0
  -10.4176   26.1937   43.2313 C   0  0  0  0  0  0  0  0  0  0  0  0
   -9.8042   24.7868   42.9800 N   0  0  0  0  0  0  0  0  0  0  0  0
  -10.3004   24.0944   43.5410 H   0  0  0  0  0  0  0  0  0  0  0  0
   -8.8185   24.7939   43.2424 H   0  0  0  0  0  0  0  0  0  0  0  0
   -9.5524   25.7987   45.5136 O   0  0  0  0  0  0  0  0  0  0  0  0
  -10.2677   26.5176   44.7581 C   0  0  0  0  0  0  0  0  0  0  0  0
  -10.9388   27.5539   45.0380 O   0  0  0  0  0  0  0  0  0  0  0  0
  -11.4283   27.9901   44.3686 H   0  0  0  0  0  0  0  0  0  0  0  0
  2  3  1  0  0  0
  2  5  1  0  0  0
  2  6  2  0  0  0
  3  4  2  0  0  0
  3  1  1  0  0  0
  4  7  1  0  0  0
  1  9  1  0  0  0
  9 14  1  0  0  0
  9 10  1  0  0  0
 13 14  2  0  0  0
 14 15  1  0  0  0
  6  7  1  0  0  0
  5  8  1  0  0  0
 15 16  1  0  0  0
 10 11  1  0  0  0
 10 12  1  0  0  0
M  END
> <minimizedAffinity>
-7.02210

$$$$
3BFT_S2P_A_1009


 16 16  0  0  0  0  0  0  0  0999 V2000
  -12.0934   27.1351   39.9858 C   0  0  0  0  0  0  0  0  0  0  0  0
  -11.6159   27.8263   42.4648 C   0  0  0  0  0  0  0  0  0  0  0  0
  -11.5549   26.8194   41.3656 C   0  0  0  0  0  0  0  0  0  0  0  0
  -10.9898   25.6828   41.7785 N   0  0  0  0  0  0  0  0  0  0  0  0
  -12.1316   28.9227   42.1683 O   0  0  0  0  0  0  0  0  0  0  0  0
  -11.0893   27.4200   43.6629 N   0  0  0  0  0  0  0  0  0  0  0  0
  -10.5025   25.7691   43.4786 S   0  0  0  0  0  0  0  0  0  0  0  0
  -12.4555   29.0689   41.3013 H   0  0  0  0  0  0  0  0  0  0  0  0
  -12.4084   25.8416   39.1925 C   0  0  0  0  0  0  0  0  0  0  0  0
  -11.1791   25.2080   38.4812 N   0  0  0  0  0  0  0  0  0  0  0  0
  -10.8360   25.8455   37.7627 H   0  0  0  0  0  0  0  0  0  0  0  0
  -11.4535   24.3254   38.0497 H   0  0  0  0  0  0  0  0  0  0  0  0
  -14.0242   25.1329   37.4602 O   0  0  0  0  0  0  0  0  0  0  0  0
  -13.5144   26.0910   38.1093 C   0  0  0  0  0  0  0  0  0  0  0  0
  -13.7679   27.3295   38.0417 O   0  0  0  0  0  0  0  0  0  0  0  0
  -13.3062   27.9328   38.5902 H   0  0  0  0  0  0  0  0  0  0  0  0
  2  3  1  0  0  0
  2  5  1  0  0  0
  2  6  2  0  0  0
  3  4  2  0  0  0
  3  1  1  0  0  0
  4  7  1  0  0  0
  1  9  1  0  0  0
  9 14  1  0  0  0
  9 10  1  0  0  0
 13 14  2  0  0  0
 14 15  1  0  0  0
  6  7  1  0  0  0
  5  8  1  0  0  0
 15 16  1  0  0  0
 10 11  1  0  0  0
 10 12  1  0  0  0
M  END
> <minimizedAffinity>
-6.57023

$$$$
3BFT_S2P_A_1009


 16 16  0  0  0  0  0  0  0  0999 V2000
  -12.2733   25.5586   40.8295 C   0  0  0  0  0  0  0  0  0  0  0  0
  -11.7858   27.3081   42.7143 C   0  0  0  0  0  0  0  0  0  0  0  0
  -11.5544   25.9696   42.0974 C   0  0  0  0  0  0  0  0  0  0  0  0
  -10.6751   25.2549   42.8029 N   0  0  0  0  0  0  0  0  0  0  0  0
  -12.5970   28.0464   42.1203 O   0  0  0  0  0  0  0  0  0  0  0  0
  -11.0698   27.5604   43.8552 N   0  0  0  0  0  0  0  0  0  0  0  0
  -10.0845   26.1450   44.2150 S   0  0  0  0  0  0  0  0  0  0  0  0
  -13.0211   27.7450   41.3409 H   0  0  0  0  0  0  0  0  0  0  0  0
  -11.5278   26.0635   39.5680 C   0  0  0  0  0  0  0  0  0  0  0  0
  -11.8971   27.5121   39.1395 N   0  0  0  0  0  0  0  0  0  0  0  0
  -12.8777   27.5446   38.8605 H   0  0  0  0  0  0  0  0  0  0  0  0
  -11.3107   27.7943   38.3541 H   0  0  0  0  0  0  0  0  0  0  0  0
  -10.8253   24.7335   37.6056 O   0  0  0  0  0  0  0  0  0  0  0  0
  -11.7787   25.1205   38.3406 C   0  0  0  0  0  0  0  0  0  0  0  0
  -13.0129   24.8498   38.2613 O   0  0  0  0  0  0  0  0  0  0  0  0
  -13.6130   25.2124   38.8828 H   0  0  0  0  0  0  0  0  0  0  0  0
  2  3  1  0  0  0
  2  5  1  0  0  0
  2  6  2  0  0  0
  3  4  2  0  0  0
  3  1  1  0  0  0
  4  7  1  0  0  0
  1  9  1  0  0  0
  9 14  1  0  0  0
  9 10  1  0  0  0
 13 14  2  0  0  0
 14 15  1  0  0  0
  6  7  1  0  0  0
  5  8  1  0  0  0
 15 16  1  0  0  0
 10 11  1  0  0  0
 10 12  1  0  0  0
M  END
> <minimizedAffinity>
-6.51250

$$$$
3BFT_S2P_A_1009


 16 16  0  0  0  0  0  0  0  0999 V2000
  -12.2750   26.3436   42.5240 C   0  0  0  0  0  0  0  0  0  0  0  0
  -12.3784   27.1907   40.0497 C   0  0  0  0  0  0  0  0  0  0  0  0
  -12.0475   26.1275   41.0425 C   0  0  0  0  0  0  0  0  0  0  0  0
  -11.5539   25.0410   40.4446 N   0  0  0  0  0  0  0  0  0  0  0  0
  -12.8464   28.2466   40.5210 O   0  0  0  0  0  0  0  0  0  0  0  0
  -12.1323   26.8686   38.7406 N   0  0  0  0  0  0  0  0  0  0  0  0
  -11.4731   25.2357   38.6866 S   0  0  0  0  0  0  0  0  0  0  0  0
  -12.9641   28.3348   41.4464 H   0  0  0  0  0  0  0  0  0  0  0  0
  -11.1464   27.2019   43.1499 C   0  0  0  0  0  0  0  0  0  0  0  0
  -10.3870   28.1040   42.1359 N   0  0  0  0  0  0  0  0  0  0  0  0
   -9.8905   27.5178   41.4648 H   0  0  0  0  0  0  0  0  0  0  0  0
   -9.7182   28.6895   42.6361 H   0  0  0  0  0  0  0  0  0  0  0  0
   -9.7317   26.5533   45.0713 O   0  0  0  0  0  0  0  0  0  0  0  0
  -10.0881   26.3069   43.8832 C   0  0  0  0  0  0  0  0  0  0  0  0
   -9.7162   25.3746   43.1119 O   0  0  0  0  0  0  0  0  0  0  0  0
  -10.0690   25.3141   42.2459 H   0  0  0  0  0  0  0  0  0  0  0  0
  2  3  1  0  0  0
  2  5  1  0  0  0
  2  6  2  0  0  0
  3  4  2  0  0  0
  3  1  1  0  0  0
  4  7  1  0  0  0
  1  9  1  0  0  0
  9 14  1  0  0  0
  9 10  1  0  0  0
 13 14  2  0  0  0
 14 15  1  0  0  0
  6  7  1  0  0  0
  5  8  1  0  0  0
 15 16  1  0  0  0
 10 11  1  0  0  0
 10 12  1  0  0  0
M  END
> <minimizedAffinity>
-6.34039

$$$$
3BFT_S2P_A_1009


 16 16  0  0  0  0  0  0  0  0999 V2000
  -11.8530   25.3133   41.2021 C   0  0  0  0  0  0  0  0  0  0  0  0
  -10.1532   25.2096   43.1898 C   0  0  0  0  0  0  0  0  0  0  0  0
  -11.3242   25.8445   42.5180 C   0  0  0  0  0  0  0  0  0  0  0  0
  -11.7857   26.8802   43.2222 N   0  0  0  0  0  0  0  0  0  0  0  0
   -9.6543   24.2304   42.5996 O   0  0  0  0  0  0  0  0  0  0  0  0
   -9.7774   25.7801   44.3777 N   0  0  0  0  0  0  0  0  0  0  0  0
  -10.8564   27.1330   44.7081 S   0  0  0  0  0  0  0  0  0  0  0  0
  -10.0141   23.9418   41.7839 H   0  0  0  0  0  0  0  0  0  0  0  0
  -11.6150   26.3213   40.0491 C   0  0  0  0  0  0  0  0  0  0  0  0
  -12.4418   27.6337   40.1613 N   0  0  0  0  0  0  0  0  0  0  0  0
  -13.4354   27.4174   40.0818 H   0  0  0  0  0  0  0  0  0  0  0  0
  -12.1715   28.2710   39.4122 H   0  0  0  0  0  0  0  0  0  0  0  0
  -11.0585   24.9840   38.0451 O   0  0  0  0  0  0  0  0  0  0  0  0
  -11.9243   25.6763   38.6537 C   0  0  0  0  0  0  0  0  0  0  0  0
  -13.1094   25.9599   38.3106 O   0  0  0  0  0  0  0  0  0  0  0  0
  -13.6444   26.4901   38.8680 H   0  0  0  0  0  0  0  0  0  0  0  0
  2  3  1  0  0  0
  2  5  1  0  0  0
  2  6  2  0  0  0
  3  4  2  0  0  0
  3  1  1  0  0  0
  4  7  1  0  0  0
  1  9  1  0  0  0
  9 14  1  0  0  0
  9 10  1  0  0  0
 13 14  2  0  0  0
 14 15  1  0  0  0
  6  7  1  0  0  0
  5  8  1  0  0  0
 15 16  1  0  0  0
 10 11  1  0  0  0
 10 12  1  0  0  0
M  END
> <minimizedAffinity>
-6.22217

$$$$
3BFT_S2P_A_1009


 16 16  0  0  0  0  0  0  0  0999 V2000
  -11.6241   26.6798   40.2477 C   0  0  0  0  0  0  0  0  0  0  0  0
  -11.4994   27.7558   42.6305 C   0  0  0  0  0  0  0  0  0  0  0  0
  -11.2469   26.6072   41.7126 C   0  0  0  0  0  0  0  0  0  0  0  0
  -10.6779   25.5861   42.3571 N   0  0  0  0  0  0  0  0  0  0  0  0
  -12.0320   28.7577   42.1122 O   0  0  0  0  0  0  0  0  0  0  0  0
  -11.1062   27.5666   43.9296 N   0  0  0  0  0  0  0  0  0  0  0  0
  -10.4131   25.9529   44.0690 S   0  0  0  0  0  0  0  0  0  0  0  0
  -12.2519   28.7529   41.2014 H   0  0  0  0  0  0  0  0  0  0  0  0
  -11.5695   25.2822   39.5800 C   0  0  0  0  0  0  0  0  0  0  0  0
  -11.1217   25.2981   38.0908 N   0  0  0  0  0  0  0  0  0  0  0  0
  -11.8146   25.7972   37.5328 H   0  0  0  0  0  0  0  0  0  0  0  0
  -11.0374   24.3402   37.7508 H   0  0  0  0  0  0  0  0  0  0  0  0
  -13.1033   23.4864   40.3122 O   0  0  0  0  0  0  0  0  0  0  0  0
  -12.9581   24.5580   39.6566 C   0  0  0  0  0  0  0  0  0  0  0  0
  -13.8152   25.2171   38.9981 O   0  0  0  0  0  0  0  0  0  0  0  0
  -13.5627   26.0038   38.5561 H   0  0  0  0  0  0  0  0  0  0  0  0
  2  3  1  0  0  0
  2  5  1  0  0  0
  2  6  2  0  0  0
  3  4  2  0  0  0
  3  1  1  0  0  0
  4  7  1  0  0  0
  1  9  1  0  0  0
  9 14  1  0  0  0
  9 10  1  0  0  0
 13 14  2  0  0  0
 14 15  1  0  0  0
  6  7  1  0  0  0
  5  8  1  0  0  0
 15 16  1  0  0  0
 10 11  1  0  0  0
 10 12  1  0  0  0
M  END
> <minimizedAffinity>
-5.63370

$$$$
3BFT_S2P_A_1009


 16 16  0  0  0  0  0  0  0  0999 V2000
  -11.1056   24.9125   41.1652 C   0  0  0  0  0  0  0  0  0  0  0  0
  -10.0702   25.6966   43.4376 C   0  0  0  0  0  0  0  0  0  0  0  0
  -11.1710   25.7402   42.4318 C   0  0  0  0  0  0  0  0  0  0  0  0
  -12.1443   26.5707   42.8121 N   0  0  0  0  0  0  0  0  0  0  0  0
   -9.1139   24.9440   43.1633 O   0  0  0  0  0  0  0  0  0  0  0  0
  -10.2531   26.4862   44.5427 N   0  0  0  0  0  0  0  0  0  0  0  0
  -11.7953   27.3216   44.3772 S   0  0  0  0  0  0  0  0  0  0  0  0
   -9.1167   24.4553   42.3638 H   0  0  0  0  0  0  0  0  0  0  0  0
  -12.4549   24.9376   40.4032 C   0  0  0  0  0  0  0  0  0  0  0  0
  -13.2621   23.6105   40.4810 N   0  0  0  0  0  0  0  0  0  0  0  0
  -12.7423   22.8685   40.0122 H   0  0  0  0  0  0  0  0  0  0  0  0
  -14.1651   23.7345   40.0233 H   0  0  0  0  0  0  0  0  0  0  0  0
  -11.0939   25.3231   38.3753 O   0  0  0  0  0  0  0  0  0  0  0  0
  -12.2491   25.2868   38.8885 C   0  0  0  0  0  0  0  0  0  0  0  0
  -13.3742   25.4912   38.3454 O   0  0  0  0  0  0  0  0  0  0  0  0
  -14.1584   25.4296   38.8546 H   0  0  0  0  0  0  0  0  0  0  0  0
  2  3  1  0  0  0
  2  5  1  0  0  0
  2  6  2  0  0  0
  3  4  2  0  0  0
  3  1  1  0  0  0
  4  7  1  0  0  0
  1  9  1  0  0  0
  9 14  1  0  0  0
  9 10  1  0  0  0
 13 14  2  0  0  0
 14 15  1  0  0  0
  6  7  1  0  0  0
  5  8  1  0  0  0
 15 16  1  0  0  0
 10 11  1  0  0  0
 10 12  1  0  0  0
M  END
> <minimizedAffinity>
-5.15462

$$$$
