3GY4_PBZ_A_1


 16 16  0  0  0  0  0  0  0  0999 V2000
   -1.8043   14.2365   16.6447 C   0  0  0  0  0  0  0  0  0  0  0  0
   -2.1809   16.1778   18.0386 C   0  0  0  0  0  0  0  0  0  0  0  0
   -2.4775   15.4312   16.9029 C   0  0  0  0  0  0  0  0  0  0  0  0
   -0.8343   13.7833   17.5423 C   0  0  0  0  0  0  0  0  0  0  0  0
   -0.5448   14.5367   18.6861 C   0  0  0  0  0  0  0  0  0  0  0  0
   -1.2109   15.7336   18.9275 C   0  0  0  0  0  0  0  0  0  0  0  0
   -0.9335   16.4661   20.0388 N   0  0  0  0  0  0  0  0  0  0  0  0
   -1.4095   17.3122   20.2022 H   0  0  0  0  0  0  0  0  0  0  0  0
   -0.2565   16.1504   20.6801 H   0  0  0  0  0  0  0  0  0  0  0  0
   -2.9092   13.9869   14.4684 N   0  0  0  0  0  0  0  0  0  0  0  0
   -1.6566   12.2217   15.2003 N   0  0  0  0  0  0  0  0  0  0  0  0
   -2.1260   13.4560   15.3975 C   0  0  0  0  0  0  0  0  0  0  0  0
   -3.1202   13.4776   13.6527 H   0  0  0  0  0  0  0  0  0  0  0  0
   -3.2798   14.8903   14.5943 H   0  0  0  0  0  0  0  0  0  0  0  0
   -1.8832   11.7348   14.3752 H   0  0  0  0  0  0  0  0  0  0  0  0
   -1.0839   11.7984   15.8801 H   0  0  0  0  0  0  0  0  0  0  0  0
 10 12  1  0  0  0
 11 12  2  0  0  0
 12  1  1  0  0  0
  1  3  1  0  0  0
  1  4  2  0  0  0
  2  3  2  0  0  0
  2  6  1  0  0  0
  4  5  1  0  0  0
  5  6  2  0  0  0
  6  7  1  0  0  0
 10 13  1  0  0  0
 10 14  1  0  0  0
 11 15  1  0  0  0
 11 16  1  0  0  0
  7  8  1  0  0  0
  7  9  1  0  0  0
M  CHG 1  11   1
M  END
> <minimizedAffinity>
-6.48769

$$$$
3GY4_PBZ_A_1


 16 16  0  0  0  0  0  0  0  0999 V2000
   -1.8231   14.2706   16.6244 C   0  0  0  0  0  0  0  0  0  0  0  0
   -0.5916   14.5182   18.6922 C   0  0  0  0  0  0  0  0  0  0  0  0
   -0.8744   13.8016   17.5340 C   0  0  0  0  0  0  0  0  0  0  0  0
   -2.4832   15.4760   16.8763 C   0  0  0  0  0  0  0  0  0  0  0  0
   -2.1897   16.1949   18.0410 C   0  0  0  0  0  0  0  0  0  0  0  0
   -1.2529   15.7121   18.9487 C   0  0  0  0  0  0  0  0  0  0  0  0
   -0.9641   16.4095   20.0795 N   0  0  0  0  0  0  0  0  0  0  0  0
   -0.2997   16.0606   20.7168 H   0  0  0  0  0  0  0  0  0  0  0  0
   -1.4194   17.2633   20.2610 H   0  0  0  0  0  0  0  0  0  0  0  0
   -2.9049   13.9783   14.4419 N   0  0  0  0  0  0  0  0  0  0  0  0
   -1.6539   12.2309   15.2179 N   0  0  0  0  0  0  0  0  0  0  0  0
   -2.1294   13.4669   15.3882 C   0  0  0  0  0  0  0  0  0  0  0  0
   -3.1058   13.4538   13.6333 H   0  0  0  0  0  0  0  0  0  0  0  0
   -3.2797   14.8824   14.5479 H   0  0  0  0  0  0  0  0  0  0  0  0
   -1.8704   11.7286   14.3994 H   0  0  0  0  0  0  0  0  0  0  0  0
   -1.0867   11.8219   15.9109 H   0  0  0  0  0  0  0  0  0  0  0  0
 10 12  1  0  0  0
 11 12  2  0  0  0
 12  1  1  0  0  0
  1  3  1  0  0  0
  1  4  2  0  0  0
  2  3  2  0  0  0
  2  6  1  0  0  0
  4  5  1  0  0  0
  5  6  2  0  0  0
  6  7  1  0  0  0
 10 13  1  0  0  0
 10 14  1  0  0  0
 11 15  1  0  0  0
 11 16  1  0  0  0
  7  8  1  0  0  0
  7  9  1  0  0  0
M  CHG 1  11   1
M  END
> <minimizedAffinity>
-6.47953

$$$$
3GY4_PBZ_A_1


 16 16  0  0  0  0  0  0  0  0999 V2000
   -1.1715   15.3568   18.0984 C   0  0  0  0  0  0  0  0  0  0  0  0
   -0.7013   13.1730   17.1691 C   0  0  0  0  0  0  0  0  0  0  0  0
   -0.4787   14.1461   18.1380 C   0  0  0  0  0  0  0  0  0  0  0  0
   -2.1042   15.5850   17.0834 C   0  0  0  0  0  0  0  0  0  0  0  0
   -2.3274   14.5991   16.1150 C   0  0  0  0  0  0  0  0  0  0  0  0
   -1.6215   13.4013   16.1545 C   0  0  0  0  0  0  0  0  0  0  0  0
   -1.8380   12.4411   15.2167 N   0  0  0  0  0  0  0  0  0  0  0  0
   -1.3341   11.5961   15.2519 H   0  0  0  0  0  0  0  0  0  0  0  0
   -2.4987   12.5909   14.5023 H   0  0  0  0  0  0  0  0  0  0  0  0
    0.3134   16.5122   19.6730 N   0  0  0  0  0  0  0  0  0  0  0  0
   -1.8535   17.2307   19.5786 N   0  0  0  0  0  0  0  0  0  0  0  0
   -0.8981   16.4048   19.1448 C   0  0  0  0  0  0  0  0  0  0  0  0
    0.4933   17.1969   20.3571 H   0  0  0  0  0  0  0  0  0  0  0  0
    1.0331   15.9072   19.3809 H   0  0  0  0  0  0  0  0  0  0  0  0
   -1.6461   17.9065   20.2638 H   0  0  0  0  0  0  0  0  0  0  0  0
   -2.7652   17.1638   19.2132 H   0  0  0  0  0  0  0  0  0  0  0  0
 10 12  1  0  0  0
 11 12  2  0  0  0
 12  1  1  0  0  0
  1  3  1  0  0  0
  1  4  2  0  0  0
  2  3  2  0  0  0
  2  6  1  0  0  0
  4  5  1  0  0  0
  5  6  2  0  0  0
  6  7  1  0  0  0
 10 13  1  0  0  0
 10 14  1  0  0  0
 11 15  1  0  0  0
 11 16  1  0  0  0
  7  8  1  0  0  0
  7  9  1  0  0  0
M  CHG 1  11   1
M  END
> <minimizedAffinity>
-5.97780

$$$$
3GY4_PBZ_A_1


 16 16  0  0  0  0  0  0  0  0999 V2000
   -0.9364   15.2882   17.9971 C   0  0  0  0  0  0  0  0  0  0  0  0
   -2.0675   14.7798   15.9196 C   0  0  0  0  0  0  0  0  0  0  0  0
   -1.7167   15.6894   16.9119 C   0  0  0  0  0  0  0  0  0  0  0  0
   -0.4954   13.9649   18.0778 C   0  0  0  0  0  0  0  0  0  0  0  0
   -0.8473   13.0563   17.0728 C   0  0  0  0  0  0  0  0  0  0  0  0
   -1.6375   13.4620   16.0025 C   0  0  0  0  0  0  0  0  0  0  0  0
   -1.9787   12.5822   15.0237 N   0  0  0  0  0  0  0  0  0  0  0  0
   -2.5384   12.8776   14.2696 H   0  0  0  0  0  0  0  0  0  0  0  0
   -1.6662   11.6497   15.0692 H   0  0  0  0  0  0  0  0  0  0  0  0
   -1.4421   16.5211   20.0570 N   0  0  0  0  0  0  0  0  0  0  0  0
    0.5633   16.9616   19.0545 N   0  0  0  0  0  0  0  0  0  0  0  0
   -0.5875   16.2846   19.0711 C   0  0  0  0  0  0  0  0  0  0  0  0
   -1.2151   17.1722   20.7597 H   0  0  0  0  0  0  0  0  0  0  0  0
   -2.3036   16.0455   20.0864 H   0  0  0  0  0  0  0  0  0  0  0  0
    0.7650   17.6071   19.7701 H   0  0  0  0  0  0  0  0  0  0  0  0
    1.2100   16.8154   18.3268 H   0  0  0  0  0  0  0  0  0  0  0  0
 10 12  1  0  0  0
 11 12  2  0  0  0
 12  1  1  0  0  0
  1  3  1  0  0  0
  1  4  2  0  0  0
  2  3  2  0  0  0
  2  6  1  0  0  0
  4  5  1  0  0  0
  5  6  2  0  0  0
  6  7  1  0  0  0
 10 13  1  0  0  0
 10 14  1  0  0  0
 11 15  1  0  0  0
 11 16  1  0  0  0
  7  8  1  0  0  0
  7  9  1  0  0  0
M  CHG 1  11   1
M  END
> <minimizedAffinity>
-5.94790

$$$$
3GY4_PBZ_A_1


 16 16  0  0  0  0  0  0  0  0999 V2000
   -2.0938   17.4449   17.3720 C   0  0  0  0  0  0  0  0  0  0  0  0
   -1.7002   16.3994   19.5181 C   0  0  0  0  0  0  0  0  0  0  0  0
   -2.0379   17.5188   18.7644 C   0  0  0  0  0  0  0  0  0  0  0  0
   -1.8201   16.2323   16.7341 C   0  0  0  0  0  0  0  0  0  0  0  0
   -1.4866   15.1084   17.4990 C   0  0  0  0  0  0  0  0  0  0  0  0
   -1.4194   15.1956   18.8855 C   0  0  0  0  0  0  0  0  0  0  0  0
   -1.0981   14.1050   19.6311 N   0  0  0  0  0  0  0  0  0  0  0  0
   -1.0527   14.1753   20.6120 H   0  0  0  0  0  0  0  0  0  0  0  0
   -0.9108   13.2450   19.1900 H   0  0  0  0  0  0  0  0  0  0  0  0
   -3.6978   18.9041   16.2243 N   0  0  0  0  0  0  0  0  0  0  0  0
   -1.5056   19.5474   16.1884 N   0  0  0  0  0  0  0  0  0  0  0  0
   -2.4396   18.6751   16.5751 C   0  0  0  0  0  0  0  0  0  0  0  0
   -3.9250   19.7080   15.7033 H   0  0  0  0  0  0  0  0  0  0  0  0
   -4.4046   18.2703   16.4848 H   0  0  0  0  0  0  0  0  0  0  0  0
   -1.7606   20.3433   15.6681 H   0  0  0  0  0  0  0  0  0  0  0  0
   -0.5619   19.3946   16.4236 H   0  0  0  0  0  0  0  0  0  0  0  0
 10 12  1  0  0  0
 11 12  2  0  0  0
 12  1  1  0  0  0
  1  3  1  0  0  0
  1  4  2  0  0  0
  2  3  2  0  0  0
  2  6  1  0  0  0
  4  5  1  0  0  0
  5  6  2  0  0  0
  6  7  1  0  0  0
 10 13  1  0  0  0
 10 14  1  0  0  0
 11 15  1  0  0  0
 11 16  1  0  0  0
  7  8  1  0  0  0
  7  9  1  0  0  0
M  CHG 1  11   1
M  END
> <minimizedAffinity>
-4.38908

$$$$
3GY4_PBZ_A_1


 16 16  0  0  0  0  0  0  0  0999 V2000
   -1.4854   15.8988   17.8564 C   0  0  0  0  0  0  0  0  0  0  0  0
   -0.5492   18.0891   17.4319 C   0  0  0  0  0  0  0  0  0  0  0  0
   -0.3928   16.7666   17.8340 C   0  0  0  0  0  0  0  0  0  0  0  0
   -2.7423   16.3620   17.4592 C   0  0  0  0  0  0  0  0  0  0  0  0
   -2.8915   17.6924   17.0502 C   0  0  0  0  0  0  0  0  0  0  0  0
   -1.7993   18.5537   17.0450 C   0  0  0  0  0  0  0  0  0  0  0  0
   -1.9409   19.8457   16.6460 N   0  0  0  0  0  0  0  0  0  0  0  0
   -1.1627   20.4487   16.6453 H   0  0  0  0  0  0  0  0  0  0  0  0
   -2.8215   20.1782   16.3577 H   0  0  0  0  0  0  0  0  0  0  0  0
   -1.1483   13.5073   17.4250 N   0  0  0  0  0  0  0  0  0  0  0  0
   -1.2925   14.1530   19.6120 N   0  0  0  0  0  0  0  0  0  0  0  0
   -1.2970   14.4773   18.3168 C   0  0  0  0  0  0  0  0  0  0  0  0
   -1.0251   12.5777   17.7248 H   0  0  0  0  0  0  0  0  0  0  0  0
   -1.1611   13.7167   16.4631 H   0  0  0  0  0  0  0  0  0  0  0  0
   -1.1672   13.2152   19.8841 H   0  0  0  0  0  0  0  0  0  0  0  0
   -1.4144   14.8516   20.2948 H   0  0  0  0  0  0  0  0  0  0  0  0
 10 12  1  0  0  0
 11 12  2  0  0  0
 12  1  1  0  0  0
  1  3  1  0  0  0
  1  4  2  0  0  0
  2  3  2  0  0  0
  2  6  1  0  0  0
  4  5  1  0  0  0
  5  6  2  0  0  0
  6  7  1  0  0  0
 10 13  1  0  0  0
 10 14  1  0  0  0
 11 15  1  0  0  0
 11 16  1  0  0  0
  7  8  1  0  0  0
  7  9  1  0  0  0
M  CHG 1  11   1
M  END
> <minimizedAffinity>
-4.30909

$$$$
3GY4_PBZ_A_1


 16 16  0  0  0  0  0  0  0  0999 V2000
   -1.3269   15.8551   18.1925 C   0  0  0  0  0  0  0  0  0  0  0  0
   -2.2942   17.5833   16.8028 C   0  0  0  0  0  0  0  0  0  0  0  0
   -1.7069   16.3294   16.9363 C   0  0  0  0  0  0  0  0  0  0  0  0
   -1.5510   16.6433   19.3242 C   0  0  0  0  0  0  0  0  0  0  0  0
   -2.1476   17.9017   19.1832 C   0  0  0  0  0  0  0  0  0  0  0  0
   -2.5098   18.3719   17.9253 C   0  0  0  0  0  0  0  0  0  0  0  0
   -3.0916   19.5927   17.7858 N   0  0  0  0  0  0  0  0  0  0  0  0
   -3.3449   19.9181   16.8918 H   0  0  0  0  0  0  0  0  0  0  0  0
   -3.2597   20.1514   18.5788 H   0  0  0  0  0  0  0  0  0  0  0  0
   -0.8854   13.5820   17.3816 N   0  0  0  0  0  0  0  0  0  0  0  0
    0.1133   14.1916   19.3442 N   0  0  0  0  0  0  0  0  0  0  0  0
   -0.6723   14.5039   18.3106 C   0  0  0  0  0  0  0  0  0  0  0  0
   -0.4580   12.6984   17.4578 H   0  0  0  0  0  0  0  0  0  0  0  0
   -1.4710   13.7812   16.6157 H   0  0  0  0  0  0  0  0  0  0  0  0
    0.5282   13.3004   19.3954 H   0  0  0  0  0  0  0  0  0  0  0  0
    0.2775   14.8527   20.0550 H   0  0  0  0  0  0  0  0  0  0  0  0
 10 12  1  0  0  0
 11 12  2  0  0  0
 12  1  1  0  0  0
  1  3  1  0  0  0
  1  4  2  0  0  0
  2  3  2  0  0  0
  2  6  1  0  0  0
  4  5  1  0  0  0
  5  6  2  0  0  0
  6  7  1  0  0  0
 10 13  1  0  0  0
 10 14  1  0  0  0
 11 15  1  0  0  0
 11 16  1  0  0  0
  7  8  1  0  0  0
  7  9  1  0  0  0
M  CHG 1  11   1
M  END
> <minimizedAffinity>
-4.29105

$$$$
3GY4_PBZ_A_1


 16 16  0  0  0  0  0  0  0  0999 V2000
   -0.8095   17.5936   17.5294 C   0  0  0  0  0  0  0  0  0  0  0  0
    0.5264   17.3943   19.5368 C   0  0  0  0  0  0  0  0  0  0  0  0
   -0.5694   17.0066   18.7724 C   0  0  0  0  0  0  0  0  0  0  0  0
    0.0664   18.5692   17.0465 C   0  0  0  0  0  0  0  0  0  0  0  0
    1.1702   18.9505   17.8184 C   0  0  0  0  0  0  0  0  0  0  0  0
    1.3933   18.3699   19.0625 C   0  0  0  0  0  0  0  0  0  0  0  0
    2.4659   18.7366   19.8131 N   0  0  0  0  0  0  0  0  0  0  0  0
    2.6165   18.3208   20.6926 H   0  0  0  0  0  0  0  0  0  0  0  0
    3.0920   19.4181   19.4771 H   0  0  0  0  0  0  0  0  0  0  0  0
   -1.9836   16.0501   16.0267 N   0  0  0  0  0  0  0  0  0  0  0  0
   -3.1236   17.9166   16.6880 N   0  0  0  0  0  0  0  0  0  0  0  0
   -2.0145   17.1744   16.7292 C   0  0  0  0  0  0  0  0  0  0  0  0
   -2.7707   15.7751   15.5031 H   0  0  0  0  0  0  0  0  0  0  0  0
   -1.1737   15.4905   16.0286 H   0  0  0  0  0  0  0  0  0  0  0  0
   -3.8964   17.6178   16.1563 H   0  0  0  0  0  0  0  0  0  0  0  0
   -3.1686   18.7627   17.1894 H   0  0  0  0  0  0  0  0  0  0  0  0
 10 12  1  0  0  0
 11 12  2  0  0  0
 12  1  1  0  0  0
  1  3  1  0  0  0
  1  4  2  0  0  0
  2  3  2  0  0  0
  2  6  1  0  0  0
  4  5  1  0  0  0
  5  6  2  0  0  0
  6  7  1  0  0  0
 10 13  1  0  0  0
 10 14  1  0  0  0
 11 15  1  0  0  0
 11 16  1  0  0  0
  7  8  1  0  0  0
  7  9  1  0  0  0
M  CHG 1  11   1
M  END
> <minimizedAffinity>
-4.04418

$$$$
3GY4_PBZ_A_1


 16 16  0  0  0  0  0  0  0  0999 V2000
   -0.5281   16.5666   18.4204 C   0  0  0  0  0  0  0  0  0  0  0  0
    0.1311   18.5215   17.1566 C   0  0  0  0  0  0  0  0  0  0  0  0
   -0.5982   17.3416   17.2621 C   0  0  0  0  0  0  0  0  0  0  0  0
    0.2722   16.9883   19.4852 C   0  0  0  0  0  0  0  0  0  0  0  0
    0.9990   18.1795   19.3745 C   0  0  0  0  0  0  0  0  0  0  0  0
    0.9339   18.9380   18.2104 C   0  0  0  0  0  0  0  0  0  0  0  0
    1.6368   20.0966   18.1010 N   0  0  0  0  0  0  0  0  0  0  0  0
    1.5852   20.6275   17.2736 H   0  0  0  0  0  0  0  0  0  0  0  0
    2.1975   20.4047   18.8494 H   0  0  0  0  0  0  0  0  0  0  0  0
   -2.0275   14.8753   17.4660 N   0  0  0  0  0  0  0  0  0  0  0  0
   -1.3164   14.5344   19.6105 N   0  0  0  0  0  0  0  0  0  0  0  0
   -1.3088   15.2814   18.5038 C   0  0  0  0  0  0  0  0  0  0  0  0
   -2.5382   14.0354   17.5194 H   0  0  0  0  0  0  0  0  0  0  0  0
   -2.0503   15.4138   16.6421 H   0  0  0  0  0  0  0  0  0  0  0  0
   -1.8360   13.6986   19.6367 H   0  0  0  0  0  0  0  0  0  0  0  0
   -0.8024   14.8195   20.4003 H   0  0  0  0  0  0  0  0  0  0  0  0
 10 12  1  0  0  0
 11 12  2  0  0  0
 12  1  1  0  0  0
  1  3  1  0  0  0
  1  4  2  0  0  0
  2  3  2  0  0  0
  2  6  1  0  0  0
  4  5  1  0  0  0
  5  6  2  0  0  0
  6  7  1  0  0  0
 10 13  1  0  0  0
 10 14  1  0  0  0
 11 15  1  0  0  0
 11 16  1  0  0  0
  7  8  1  0  0  0
  7  9  1  0  0  0
M  CHG 1  11   1
M  END
> <minimizedAffinity>
-4.04114

$$$$
3GY4_PBZ_A_1


 16 16  0  0  0  0  0  0  0  0999 V2000
   -1.4516   17.4088   19.8356 C   0  0  0  0  0  0  0  0  0  0  0  0
   -1.7686   15.6647   18.1890 C   0  0  0  0  0  0  0  0  0  0  0  0
   -1.5439   16.0562   19.5048 C   0  0  0  0  0  0  0  0  0  0  0  0
   -1.5988   18.3748   18.8369 C   0  0  0  0  0  0  0  0  0  0  0  0
   -1.8304   17.9738   17.5159 C   0  0  0  0  0  0  0  0  0  0  0  0
   -1.9066   16.6229   17.1935 C   0  0  0  0  0  0  0  0  0  0  0  0
   -2.1338   16.2308   15.9118 N   0  0  0  0  0  0  0  0  0  0  0  0
   -2.1863   15.2725   15.6921 H   0  0  0  0  0  0  0  0  0  0  0  0
   -2.2459   16.9051   15.2032 H   0  0  0  0  0  0  0  0  0  0  0  0
   -0.3091   18.7680   21.5287 N   0  0  0  0  0  0  0  0  0  0  0  0
   -1.7983   17.2096   22.2866 N   0  0  0  0  0  0  0  0  0  0  0  0
   -1.1855   17.8090   21.2629 C   0  0  0  0  0  0  0  0  0  0  0  0
   -0.1344   19.0304   22.4614 H   0  0  0  0  0  0  0  0  0  0  0  0
    0.1668   19.2175   20.7935 H   0  0  0  0  0  0  0  0  0  0  0  0
   -1.6050   17.4920   23.2097 H   0  0  0  0  0  0  0  0  0  0  0  0
   -2.4436   16.4854   22.1184 H   0  0  0  0  0  0  0  0  0  0  0  0
 10 12  1  0  0  0
 11 12  2  0  0  0
 12  1  1  0  0  0
  1  3  1  0  0  0
  1  4  2  0  0  0
  2  3  2  0  0  0
  2  6  1  0  0  0
  4  5  1  0  0  0
  5  6  2  0  0  0
  6  7  1  0  0  0
 10 13  1  0  0  0
 10 14  1  0  0  0
 11 15  1  0  0  0
 11 16  1  0  0  0
  7  8  1  0  0  0
  7  9  1  0  0  0
M  CHG 1  11   1
M  END
> <minimizedAffinity>
-3.94165

$$$$
