3FJ7_PEQ_A_301


 13 12  0  0  0  0  0  0  0  0999 V2000
  -30.0405    7.0082  -27.1286 O   0  0  0  0  0  0  0  0  0  0  0  0
  -31.6206    7.3074  -27.1974 P   0  0  0  0  0  0  0  0  0  0  0  0
  -31.9131    8.0799  -25.9340 O   0  0  0  0  0  0  0  0  0  0  0  0
  -32.2499    5.9338  -27.2411 O   0  0  0  0  0  0  0  0  0  0  0  0
  -31.7827    8.0958  -28.4744 O   0  0  0  0  0  0  0  0  0  0  0  0
  -32.1081    5.4861  -26.3924 H   0  0  0  0  0  0  0  0  0  0  0  0
  -31.3573    8.9620  -28.3759 H   0  0  0  0  0  0  0  0  0  0  0  0
  -29.4660    6.6924  -25.8623 C   0  0  0  0  0  0  0  0  0  0  0  0
  -28.4943    7.7966  -25.4652 C   0  0  0  0  0  0  0  0  0  0  0  0
  -28.8211    5.3314  -25.8999 C   0  0  0  0  0  0  0  0  0  0  0  0
  -27.6113    5.2150  -26.2022 O   0  0  0  0  0  0  0  0  0  0  0  0
  -29.5406    4.3512  -25.6131 O   0  0  0  0  0  0  0  0  0  0  0  0
  -30.4420    4.4803  -25.3922 H   0  0  0  0  0  0  0  0  0  0  0  0
 10 11  2  0  0  0
 10 12  1  0  0  0
 10  8  1  0  0  0
  8  9  1  0  0  0
  8  1  1  0  0  0
  1  2  1  0  0  0
  2  3  2  0  0  0
  2  4  1  0  0  0
  2  5  1  0  0  0
 12 13  1  0  0  0
  4  6  1  0  0  0
  5  7  1  0  0  0
M  END
> <minimizedAffinity>
-5.99468

$$$$
3FJ7_PEQ_A_301


 13 12  0  0  0  0  0  0  0  0999 V2000
  -30.1437    6.2513  -25.7167 O   0  0  0  0  0  0  0  0  0  0  0  0
  -28.6704    5.6067  -25.6477 P   0  0  0  0  0  0  0  0  0  0  0  0
  -28.0620    6.1908  -24.3958 O   0  0  0  0  0  0  0  0  0  0  0  0
  -28.0111    6.0670  -26.9276 O   0  0  0  0  0  0  0  0  0  0  0  0
  -28.9296    4.1207  -25.5928 O   0  0  0  0  0  0  0  0  0  0  0  0
  -27.8753    7.0269  -26.8943 H   0  0  0  0  0  0  0  0  0  0  0  0
  -29.3519    3.8971  -24.7486 H   0  0  0  0  0  0  0  0  0  0  0  0
  -30.3583    7.3575  -26.5906 C   0  0  0  0  0  0  0  0  0  0  0  0
  -30.3752    8.6435  -25.7739 C   0  0  0  0  0  0  0  0  0  0  0  0
  -31.6166    7.1586  -27.3948 C   0  0  0  0  0  0  0  0  0  0  0  0
  -31.9779    8.0243  -28.2247 O   0  0  0  0  0  0  0  0  0  0  0  0
  -32.2592    6.1057  -27.1976 O   0  0  0  0  0  0  0  0  0  0  0  0
  -31.9553    5.4825  -26.5673 H   0  0  0  0  0  0  0  0  0  0  0  0
 10 11  2  0  0  0
 10 12  1  0  0  0
 10  8  1  0  0  0
  8  9  1  0  0  0
  8  1  1  0  0  0
  1  2  1  0  0  0
  2  3  2  0  0  0
  2  4  1  0  0  0
  2  5  1  0  0  0
 12 13  1  0  0  0
  4  6  1  0  0  0
  5  7  1  0  0  0
M  END
> <minimizedAffinity>
-5.90910

$$$$
3FJ7_PEQ_A_301


 13 12  0  0  0  0  0  0  0  0999 V2000
  -29.4731    6.3710  -26.7691 O   0  0  0  0  0  0  0  0  0  0  0  0
  -28.5605    5.6389  -25.6636 P   0  0  0  0  0  0  0  0  0  0  0  0
  -27.4079    5.0615  -26.4489 O   0  0  0  0  0  0  0  0  0  0  0  0
  -29.4796    4.6006  -25.0621 O   0  0  0  0  0  0  0  0  0  0  0  0
  -28.1862    6.7496  -24.7124 O   0  0  0  0  0  0  0  0  0  0  0  0
  -29.6776    3.9210  -25.7253 H   0  0  0  0  0  0  0  0  0  0  0  0
  -27.5983    7.3762  -25.1625 H   0  0  0  0  0  0  0  0  0  0  0  0
  -30.7932    6.7666  -26.4028 C   0  0  0  0  0  0  0  0  0  0  0  0
  -31.7909    6.1213  -27.3564 C   0  0  0  0  0  0  0  0  0  0  0  0
  -30.9038    8.2687  -26.3690 C   0  0  0  0  0  0  0  0  0  0  0  0
  -30.3736    8.9192  -25.4393 O   0  0  0  0  0  0  0  0  0  0  0  0
  -31.5320    8.8155  -27.3001 O   0  0  0  0  0  0  0  0  0  0  0  0
  -31.9144    8.2931  -27.9775 H   0  0  0  0  0  0  0  0  0  0  0  0
 10 11  2  0  0  0
 10 12  1  0  0  0
 10  8  1  0  0  0
  8  9  1  0  0  0
  8  1  1  0  0  0
  1  2  1  0  0  0
  2  3  2  0  0  0
  2  4  1  0  0  0
  2  5  1  0  0  0
 12 13  1  0  0  0
  4  6  1  0  0  0
  5  7  1  0  0  0
M  END
> <minimizedAffinity>
-5.87049

$$$$
3FJ7_PEQ_A_301


 13 12  0  0  0  0  0  0  0  0999 V2000
  -29.0091    7.2684  -26.3150 O   0  0  0  0  0  0  0  0  0  0  0  0
  -28.6037    5.8465  -25.6788 P   0  0  0  0  0  0  0  0  0  0  0  0
  -28.0682    6.1856  -24.3088 O   0  0  0  0  0  0  0  0  0  0  0  0
  -27.5633    5.3043  -26.6318 O   0  0  0  0  0  0  0  0  0  0  0  0
  -29.8980    5.0696  -25.6789 O   0  0  0  0  0  0  0  0  0  0  0  0
  -26.7622    5.8487  -26.5798 H   0  0  0  0  0  0  0  0  0  0  0  0
  -30.5160    5.4709  -25.0481 H   0  0  0  0  0  0  0  0  0  0  0  0
  -29.9700    8.0677  -25.6287 C   0  0  0  0  0  0  0  0  0  0  0  0
  -31.1798    8.2787  -26.5303 C   0  0  0  0  0  0  0  0  0  0  0  0
  -29.3495    9.3616  -25.1700 C   0  0  0  0  0  0  0  0  0  0  0  0
  -29.9187   10.0605  -24.3004 O   0  0  0  0  0  0  0  0  0  0  0  0
  -28.2599    9.6866  -25.6873 O   0  0  0  0  0  0  0  0  0  0  0  0
  -27.8661    9.1360  -26.3352 H   0  0  0  0  0  0  0  0  0  0  0  0
 10 11  2  0  0  0
 10 12  1  0  0  0
 10  8  1  0  0  0
  8  9  1  0  0  0
  8  1  1  0  0  0
  1  2  1  0  0  0
  2  3  2  0  0  0
  2  4  1  0  0  0
  2  5  1  0  0  0
 12 13  1  0  0  0
  4  6  1  0  0  0
  5  7  1  0  0  0
M  END
> <minimizedAffinity>
-5.86014

$$$$
3FJ7_PEQ_A_301


 13 12  0  0  0  0  0  0  0  0999 V2000
  -30.7956    8.7360  -25.4846 O   0  0  0  0  0  0  0  0  0  0  0  0
  -29.5576    9.5631  -24.8731 P   0  0  0  0  0  0  0  0  0  0  0  0
  -29.1036   10.4531  -26.0046 O   0  0  0  0  0  0  0  0  0  0  0  0
  -28.5597    8.4947  -24.4892 O   0  0  0  0  0  0  0  0  0  0  0  0
  -30.1578   10.2918  -23.6952 O   0  0  0  0  0  0  0  0  0  0  0  0
  -28.2163    8.0700  -25.2908 H   0  0  0  0  0  0  0  0  0  0  0  0
  -30.7856   10.9592  -24.0136 H   0  0  0  0  0  0  0  0  0  0  0  0
  -30.6150    8.0717  -26.7334 C   0  0  0  0  0  0  0  0  0  0  0  0
  -31.8982    8.1806  -27.5474 C   0  0  0  0  0  0  0  0  0  0  0  0
  -30.1801    6.6459  -26.5149 C   0  0  0  0  0  0  0  0  0  0  0  0
  -28.9747    6.3286  -26.6371 O   0  0  0  0  0  0  0  0  0  0  0  0
  -31.0654    5.8205  -26.2060 O   0  0  0  0  0  0  0  0  0  0  0  0
  -31.9567    6.0979  -26.1245 H   0  0  0  0  0  0  0  0  0  0  0  0
 10 11  2  0  0  0
 10 12  1  0  0  0
 10  8  1  0  0  0
  8  9  1  0  0  0
  8  1  1  0  0  0
  1  2  1  0  0  0
  2  3  2  0  0  0
  2  4  1  0  0  0
  2  5  1  0  0  0
 12 13  1  0  0  0
  4  6  1  0  0  0
  5  7  1  0  0  0
M  END
> <minimizedAffinity>
-5.24727

$$$$
3FJ7_PEQ_A_301


 13 12  0  0  0  0  0  0  0  0999 V2000
  -29.3360    7.8087  -25.0345 O   0  0  0  0  0  0  0  0  0  0  0  0
  -29.4664    9.3743  -25.3847 P   0  0  0  0  0  0  0  0  0  0  0  0
  -29.9179   10.0127  -24.0935 O   0  0  0  0  0  0  0  0  0  0  0  0
  -30.4985    9.4160  -26.4882 O   0  0  0  0  0  0  0  0  0  0  0  0
  -28.0771    9.7607  -25.8310 O   0  0  0  0  0  0  0  0  0  0  0  0
  -31.3630    9.1577  -26.1323 H   0  0  0  0  0  0  0  0  0  0  0  0
  -27.4698    9.7120  -25.0762 H   0  0  0  0  0  0  0  0  0  0  0  0
  -29.2386    6.8799  -26.1122 C   0  0  0  0  0  0  0  0  0  0  0  0
  -30.6321    6.3740  -26.4632 C   0  0  0  0  0  0  0  0  0  0  0  0
  -28.2825    5.7682  -25.7662 C   0  0  0  0  0  0  0  0  0  0  0  0
  -27.5457    5.2725  -26.6493 O   0  0  0  0  0  0  0  0  0  0  0  0
  -28.2615    5.3831  -24.5780 O   0  0  0  0  0  0  0  0  0  0  0  0
  -28.8291    5.7798  -23.9468 H   0  0  0  0  0  0  0  0  0  0  0  0
 10 11  2  0  0  0
 10 12  1  0  0  0
 10  8  1  0  0  0
  8  9  1  0  0  0
  8  1  1  0  0  0
  1  2  1  0  0  0
  2  3  2  0  0  0
  2  4  1  0  0  0
  2  5  1  0  0  0
 12 13  1  0  0  0
  4  6  1  0  0  0
  5  7  1  0  0  0
M  END
> <minimizedAffinity>
-4.93419

$$$$
3FJ7_PEQ_A_301


 13 12  0  0  0  0  0  0  0  0999 V2000
  -30.7786    6.7907  -25.7416 O   0  0  0  0  0  0  0  0  0  0  0  0
  -31.3747    7.7562  -26.8832 P   0  0  0  0  0  0  0  0  0  0  0  0
  -30.7789    9.1098  -26.5806 O   0  0  0  0  0  0  0  0  0  0  0  0
  -32.8705    7.6804  -26.6799 O   0  0  0  0  0  0  0  0  0  0  0  0
  -30.8994    7.1280  -28.1708 O   0  0  0  0  0  0  0  0  0  0  0  0
  -33.1041    8.1009  -25.8375 H   0  0  0  0  0  0  0  0  0  0  0  0
  -29.9352    7.2124  -28.2351 H   0  0  0  0  0  0  0  0  0  0  0  0
  -29.4507    6.2956  -25.8995 C   0  0  0  0  0  0  0  0  0  0  0  0
  -29.4306    4.8071  -25.5749 C   0  0  0  0  0  0  0  0  0  0  0  0
  -28.4872    7.0909  -25.0576 C   0  0  0  0  0  0  0  0  0  0  0  0
  -27.9047    6.5532  -24.0880 O   0  0  0  0  0  0  0  0  0  0  0  0
  -28.3011    8.2842  -25.3771 O   0  0  0  0  0  0  0  0  0  0  0  0
  -28.7566    8.6494  -26.1099 H   0  0  0  0  0  0  0  0  0  0  0  0
 10 11  2  0  0  0
 10 12  1  0  0  0
 10  8  1  0  0  0
  8  9  1  0  0  0
  8  1  1  0  0  0
  1  2  1  0  0  0
  2  3  2  0  0  0
  2  4  1  0  0  0
  2  5  1  0  0  0
 12 13  1  0  0  0
  4  6  1  0  0  0
  5  7  1  0  0  0
M  END
> <minimizedAffinity>
-4.70109

$$$$
3FJ7_PEQ_A_301


 13 12  0  0  0  0  0  0  0  0999 V2000
  -31.0956    7.9826  -25.8143 O   0  0  0  0  0  0  0  0  0  0  0  0
  -31.7609    7.1833  -27.0428 P   0  0  0  0  0  0  0  0  0  0  0  0
  -30.9747    7.6288  -28.2520 O   0  0  0  0  0  0  0  0  0  0  0  0
  -33.2010    7.6423  -27.0390 O   0  0  0  0  0  0  0  0  0  0  0  0
  -31.5800    5.7321  -26.6687 O   0  0  0  0  0  0  0  0  0  0  0  0
  -33.2424    8.5791  -27.2872 H   0  0  0  0  0  0  0  0  0  0  0  0
  -30.6367    5.5074  -26.6916 H   0  0  0  0  0  0  0  0  0  0  0  0
  -29.7641    8.4699  -25.9656 C   0  0  0  0  0  0  0  0  0  0  0  0
  -28.7849    7.4046  -25.4886 C   0  0  0  0  0  0  0  0  0  0  0  0
  -29.5973    9.7825  -25.2452 C   0  0  0  0  0  0  0  0  0  0  0  0
  -28.8489   10.6695  -25.7160 O   0  0  0  0  0  0  0  0  0  0  0  0
  -30.2364    9.9352  -24.1827 O   0  0  0  0  0  0  0  0  0  0  0  0
  -30.7861    9.2469  -23.8636 H   0  0  0  0  0  0  0  0  0  0  0  0
 10 11  2  0  0  0
 10 12  1  0  0  0
 10  8  1  0  0  0
  8  9  1  0  0  0
  8  1  1  0  0  0
  1  2  1  0  0  0
  2  3  2  0  0  0
  2  4  1  0  0  0
  2  5  1  0  0  0
 12 13  1  0  0  0
  4  6  1  0  0  0
  5  7  1  0  0  0
M  END
> <minimizedAffinity>
-4.59172

$$$$
3FJ7_PEQ_A_301


 13 12  0  0  0  0  0  0  0  0999 V2000
  -28.3957    7.4159  -24.9460 O   0  0  0  0  0  0  0  0  0  0  0  0
  -28.8745    6.1366  -25.7975 P   0  0  0  0  0  0  0  0  0  0  0  0
  -30.2950    6.4583  -26.1941 O   0  0  0  0  0  0  0  0  0  0  0  0
  -28.7501    4.9852  -24.8263 O   0  0  0  0  0  0  0  0  0  0  0  0
  -27.8939    6.0792  -26.9437 O   0  0  0  0  0  0  0  0  0  0  0  0
  -29.4068    5.0860  -24.1195 H   0  0  0  0  0  0  0  0  0  0  0  0
  -28.0297    6.8445  -27.5241 H   0  0  0  0  0  0  0  0  0  0  0  0
  -29.1043    8.6423  -25.1106 C   0  0  0  0  0  0  0  0  0  0  0  0
  -28.3969    9.4911  -26.1595 C   0  0  0  0  0  0  0  0  0  0  0  0
  -29.2509    9.3488  -23.7881 C   0  0  0  0  0  0  0  0  0  0  0  0
  -29.9904   10.3549  -23.6893 O   0  0  0  0  0  0  0  0  0  0  0  0
  -28.6154    8.8828  -22.8189 O   0  0  0  0  0  0  0  0  0  0  0  0
  -28.0724    8.1279  -22.9340 H   0  0  0  0  0  0  0  0  0  0  0  0
 10 11  2  0  0  0
 10 12  1  0  0  0
 10  8  1  0  0  0
  8  9  1  0  0  0
  8  1  1  0  0  0
  1  2  1  0  0  0
  2  3  2  0  0  0
  2  4  1  0  0  0
  2  5  1  0  0  0
 12 13  1  0  0  0
  4  6  1  0  0  0
  5  7  1  0  0  0
M  END
> <minimizedAffinity>
-4.47585

$$$$
3FJ7_PEQ_A_301


 13 12  0  0  0  0  0  0  0  0999 V2000
  -30.1200    6.9068  -25.6755 O   0  0  0  0  0  0  0  0  0  0  0  0
  -28.5133    6.8164  -25.6406 P   0  0  0  0  0  0  0  0  0  0  0  0
  -28.1465    6.1296  -26.9338 O   0  0  0  0  0  0  0  0  0  0  0  0
  -28.2213    5.9994  -24.4029 O   0  0  0  0  0  0  0  0  0  0  0  0
  -28.0734    8.2569  -25.5409 O   0  0  0  0  0  0  0  0  0  0  0  0
  -28.5287    5.0891  -24.5364 H   0  0  0  0  0  0  0  0  0  0  0  0
  -28.2908    8.7191  -26.3656 H   0  0  0  0  0  0  0  0  0  0  0  0
  -30.7528    7.2335  -26.9109 C   0  0  0  0  0  0  0  0  0  0  0  0
  -31.4247    8.5949  -26.7834 C   0  0  0  0  0  0  0  0  0  0  0  0
  -31.7109    6.1442  -27.3174 C   0  0  0  0  0  0  0  0  0  0  0  0
  -32.7678    6.4289  -27.9260 O   0  0  0  0  0  0  0  0  0  0  0  0
  -31.3966    4.9705  -27.0272 O   0  0  0  0  0  0  0  0  0  0  0  0
  -30.5964    4.7990  -26.5709 H   0  0  0  0  0  0  0  0  0  0  0  0
 10 11  2  0  0  0
 10 12  1  0  0  0
 10  8  1  0  0  0
  8  9  1  0  0  0
  8  1  1  0  0  0
  1  2  1  0  0  0
  2  3  2  0  0  0
  2  4  1  0  0  0
  2  5  1  0  0  0
 12 13  1  0  0  0
  4  6  1  0  0  0
  5  7  1  0  0  0
M  END
> <minimizedAffinity>
-4.41208

$$$$
