5ITP_6DB_A_301


 24 23  0  0  0  0  0  0  0  0999 V2000
  -14.4431   78.7371    1.3900 C   0  0  0  0  0  0  0  0  0  0  0  0
  -14.5487   77.2359    1.5134 C   0  0  0  0  0  0  0  0  0  0  0  0
  -13.5950   76.4978    1.1591 O   0  0  0  0  0  0  0  0  0  0  0  0
  -15.6177   76.7268    1.9525 O   0  0  0  0  0  0  0  0  0  0  0  0
  -16.3265   77.2802    2.2157 H   0  0  0  0  0  0  0  0  0  0  0  0
  -14.5805   79.1589   -0.0008 N   0  0  0  0  0  0  0  0  0  0  0  0
  -14.0692   80.0353   -0.1047 H   0  0  0  0  0  0  0  0  0  0  0  0
  -15.9338   79.3787   -0.5183 C   0  0  0  0  0  0  0  0  0  0  0  0
  -16.1361   78.6060   -1.7746 C   0  0  0  0  0  0  0  0  0  0  0  0
  -15.5244   81.7097   -0.1959 O   0  0  0  0  0  0  0  0  0  0  0  0
  -16.2520   80.8579   -0.7456 C   0  0  0  0  0  0  0  0  0  0  0  0
  -17.2253   81.2120   -1.4555 O   0  0  0  0  0  0  0  0  0  0  0  0
  -17.7665   80.5657   -1.8647 H   0  0  0  0  0  0  0  0  0  0  0  0
  -15.4704   79.3461    2.3744 C   0  0  0  0  0  0  0  0  0  0  0  0
  -14.8315   79.9268    3.6239 C   0  0  0  0  0  0  0  0  0  0  0  0
  -15.3052   79.3484    4.9597 C   0  0  0  0  0  0  0  0  0  0  0  0
  -16.7107   79.7758    5.1889 N   0  0  0  0  0  0  0  0  0  0  0  0
  -17.3126   79.7998    4.4103 H   0  0  0  0  0  0  0  0  0  0  0  0
  -17.2527   80.1545    6.4566 C   0  0  0  0  0  0  0  0  0  0  0  0
  -16.4507   80.4776    7.4430 N   0  0  0  0  0  0  0  0  0  0  0  0
  -18.5350   80.2371    6.5592 N   0  0  0  0  0  0  0  0  0  0  0  0
  -15.4757   80.4022    7.3296 H   0  0  0  0  0  0  0  0  0  0  0  0
  -19.1069   79.9861    5.7981 H   0  0  0  0  0  0  0  0  0  0  0  0
  -18.9425   80.5510    7.3986 H   0  0  0  0  0  0  0  0  0  0  0  0
 10 11  2  0  0  0
  9  8  1  0  0  0
 11 12  1  0  0  0
 11  8  1  0  0  0
  8  6  1  0  0  0
  6  1  1  0  0  0
  3  2  2  0  0  0
  1  2  1  0  0  0
  1 14  1  0  0  0
  2  4  1  0  0  0
 14 15  1  0  0  0
 15 16  1  0  0  0
 16 17  1  0  0  0
 17 19  1  0  0  0
 19 20  2  0  0  0
 19 21  1  0  0  0
  6  7  1  0  0  0
  4  5  1  0  0  0
 17 18  1  0  0  0
 20 22  1  0  0  0
 21 23  1  0  0  0
 21 24  1  0  0  0
 12 13  1  0  0  0
M  END
> <minimizedAffinity>
-8.52325

$$$$
5ITP_6DB_A_301


 24 23  0  0  0  0  0  0  0  0999 V2000
  -14.4527   78.5700    1.2244 C   0  0  0  0  0  0  0  0  0  0  0  0
  -14.5661   77.0870    1.4852 C   0  0  0  0  0  0  0  0  0  0  0  0
  -13.6010   76.3202    1.2396 O   0  0  0  0  0  0  0  0  0  0  0  0
  -15.6525   76.6201    1.9285 O   0  0  0  0  0  0  0  0  0  0  0  0
  -16.3698   77.1948    2.1104 H   0  0  0  0  0  0  0  0  0  0  0  0
  -15.6052   79.0591    0.4738 N   0  0  0  0  0  0  0  0  0  0  0  0
  -16.0916   78.2449    0.0986 H   0  0  0  0  0  0  0  0  0  0  0  0
  -15.3554   79.9726   -0.6445 C   0  0  0  0  0  0  0  0  0  0  0  0
  -15.1623   81.3606   -0.1421 C   0  0  0  0  0  0  0  0  0  0  0  0
  -17.3872   80.7698   -1.6147 O   0  0  0  0  0  0  0  0  0  0  0  0
  -16.4615   79.9376   -1.7011 C   0  0  0  0  0  0  0  0  0  0  0  0
  -16.4504   79.0886   -2.6262 O   0  0  0  0  0  0  0  0  0  0  0  0
  -15.7513   78.4673   -2.6836 H   0  0  0  0  0  0  0  0  0  0  0  0
  -14.2106   79.2533    2.5918 C   0  0  0  0  0  0  0  0  0  0  0  0
  -15.4828   79.7821    3.2309 C   0  0  0  0  0  0  0  0  0  0  0  0
  -15.6788   79.4649    4.7156 C   0  0  0  0  0  0  0  0  0  0  0  0
  -17.0633   79.8448    5.1022 N   0  0  0  0  0  0  0  0  0  0  0  0
  -17.7478   79.8545    4.3947 H   0  0  0  0  0  0  0  0  0  0  0  0
  -17.4741   80.1972    6.4256 C   0  0  0  0  0  0  0  0  0  0  0  0
  -18.7454   80.1695    6.7472 N   0  0  0  0  0  0  0  0  0  0  0  0
  -16.5532   80.4612    7.2882 N   0  0  0  0  0  0  0  0  0  0  0  0
  -19.4221   79.9641    6.0623 H   0  0  0  0  0  0  0  0  0  0  0  0
  -15.6085   80.4734    7.0116 H   0  0  0  0  0  0  0  0  0  0  0  0
  -16.7947   80.6506    8.2236 H   0  0  0  0  0  0  0  0  0  0  0  0
 10 11  2  0  0  0
  9  8  1  0  0  0
 11 12  1  0  0  0
 11  8  1  0  0  0
  8  6  1  0  0  0
  6  1  1  0  0  0
  3  2  2  0  0  0
  1  2  1  0  0  0
  1 14  1  0  0  0
  2  4  1  0  0  0
 14 15  1  0  0  0
 15 16  1  0  0  0
 16 17  1  0  0  0
 17 19  1  0  0  0
 19 20  2  0  0  0
 19 21  1  0  0  0
  6  7  1  0  0  0
  4  5  1  0  0  0
 17 18  1  0  0  0
 20 22  1  0  0  0
 21 23  1  0  0  0
 21 24  1  0  0  0
 12 13  1  0  0  0
M  END
> <minimizedAffinity>
-8.21267

$$$$
5ITP_6DB_A_301


 24 23  0  0  0  0  0  0  0  0999 V2000
  -15.6097   79.9795    0.5032 C   0  0  0  0  0  0  0  0  0  0  0  0
  -15.6706   81.3333   -0.1629 C   0  0  0  0  0  0  0  0  0  0  0  0
  -16.7502   81.7591   -0.6455 O   0  0  0  0  0  0  0  0  0  0  0  0
  -14.6172   82.0237   -0.2542 O   0  0  0  0  0  0  0  0  0  0  0  0
  -13.8141   81.7030    0.1067 H   0  0  0  0  0  0  0  0  0  0  0  0
  -14.3399   79.3156    0.2244 N   0  0  0  0  0  0  0  0  0  0  0  0
  -13.8667   79.8561   -0.4998 H   0  0  0  0  0  0  0  0  0  0  0  0
  -14.3814   77.9221   -0.2274 C   0  0  0  0  0  0  0  0  0  0  0  0
  -15.4995   77.7265   -1.1906 C   0  0  0  0  0  0  0  0  0  0  0  0
  -13.4501   76.3679    1.3289 O   0  0  0  0  0  0  0  0  0  0  0  0
  -14.4922   76.9244    0.9272 C   0  0  0  0  0  0  0  0  0  0  0  0
  -15.6012   76.6591    1.4532 O   0  0  0  0  0  0  0  0  0  0  0  0
  -16.3788   77.0816    1.1454 H   0  0  0  0  0  0  0  0  0  0  0  0
  -15.9320   80.1967    2.0013 C   0  0  0  0  0  0  0  0  0  0  0  0
  -14.7858   79.8160    2.9221 C   0  0  0  0  0  0  0  0  0  0  0  0
  -15.1412   78.9255    4.1154 C   0  0  0  0  0  0  0  0  0  0  0  0
  -15.2590   79.7809    5.3259 N   0  0  0  0  0  0  0  0  0  0  0  0
  -14.4405   80.2152    5.6586 H   0  0  0  0  0  0  0  0  0  0  0  0
  -16.4731   80.0193    6.0424 C   0  0  0  0  0  0  0  0  0  0  0  0
  -16.4312   80.3808    7.3026 N   0  0  0  0  0  0  0  0  0  0  0  0
  -17.5806   79.9403    5.3873 N   0  0  0  0  0  0  0  0  0  0  0  0
  -15.5672   80.4303    7.7720 H   0  0  0  0  0  0  0  0  0  0  0  0
  -17.5747   79.6654    4.4420 H   0  0  0  0  0  0  0  0  0  0  0  0
  -18.4321   80.1550    5.8323 H   0  0  0  0  0  0  0  0  0  0  0  0
 10 11  2  0  0  0
  9  8  1  0  0  0
 11 12  1  0  0  0
 11  8  1  0  0  0
  8  6  1  0  0  0
  6  1  1  0  0  0
  3  2  2  0  0  0
  1  2  1  0  0  0
  1 14  1  0  0  0
  2  4  1  0  0  0
 14 15  1  0  0  0
 15 16  1  0  0  0
 16 17  1  0  0  0
 17 19  1  0  0  0
 19 20  2  0  0  0
 19 21  1  0  0  0
  6  7  1  0  0  0
  4  5  1  0  0  0
 17 18  1  0  0  0
 20 22  1  0  0  0
 21 23  1  0  0  0
 21 24  1  0  0  0
 12 13  1  0  0  0
M  END
> <minimizedAffinity>
-7.94157

$$$$
5ITP_6DB_A_301


 24 23  0  0  0  0  0  0  0  0999 V2000
  -14.8171   77.7263   -0.0080 C   0  0  0  0  0  0  0  0  0  0  0  0
  -14.4496   76.4944   -0.8000 C   0  0  0  0  0  0  0  0  0  0  0  0
  -13.9999   75.4738   -0.2206 O   0  0  0  0  0  0  0  0  0  0  0  0
  -14.5738   76.5093   -2.0566 O   0  0  0  0  0  0  0  0  0  0  0  0
  -14.9094   77.2720   -2.4852 H   0  0  0  0  0  0  0  0  0  0  0  0
  -15.9917   78.3820   -0.5748 N   0  0  0  0  0  0  0  0  0  0  0  0
  -16.3838   77.7517   -1.2745 H   0  0  0  0  0  0  0  0  0  0  0  0
  -15.8039   79.6856   -1.2175 C   0  0  0  0  0  0  0  0  0  0  0  0
  -14.4349   80.2021   -0.9431 C   0  0  0  0  0  0  0  0  0  0  0  0
  -17.1016   80.8440    0.4193 O   0  0  0  0  0  0  0  0  0  0  0  0
  -16.8556   80.7142   -0.7972 C   0  0  0  0  0  0  0  0  0  0  0  0
  -17.4673   81.4043   -1.6495 O   0  0  0  0  0  0  0  0  0  0  0  0
  -17.2763   81.3004   -2.5609 H   0  0  0  0  0  0  0  0  0  0  0  0
  -14.9471   77.2916    1.4717 C   0  0  0  0  0  0  0  0  0  0  0  0
  -14.1669   78.1776    2.4272 C   0  0  0  0  0  0  0  0  0  0  0  0
  -14.7164   79.5898    2.6449 C   0  0  0  0  0  0  0  0  0  0  0  0
  -16.0477   79.4843    3.2984 N   0  0  0  0  0  0  0  0  0  0  0  0
  -16.8105   79.2133    2.7381 H   0  0  0  0  0  0  0  0  0  0  0  0
  -16.3021   79.7473    4.6806 C   0  0  0  0  0  0  0  0  0  0  0  0
  -17.5273   79.9725    5.0910 N   0  0  0  0  0  0  0  0  0  0  0  0
  -15.3066   79.6773    5.4967 N   0  0  0  0  0  0  0  0  0  0  0  0
  -18.2639   80.0197    4.4394 H   0  0  0  0  0  0  0  0  0  0  0  0
  -14.3998   79.5067    5.1534 H   0  0  0  0  0  0  0  0  0  0  0  0
  -15.4532   79.7944    6.4631 H   0  0  0  0  0  0  0  0  0  0  0  0
 10 11  2  0  0  0
  9  8  1  0  0  0
 11 12  1  0  0  0
 11  8  1  0  0  0
  8  6  1  0  0  0
  6  1  1  0  0  0
  3  2  2  0  0  0
  1  2  1  0  0  0
  1 14  1  0  0  0
  2  4  1  0  0  0
 14 15  1  0  0  0
 15 16  1  0  0  0
 16 17  1  0  0  0
 17 19  1  0  0  0
 19 20  2  0  0  0
 19 21  1  0  0  0
  6  7  1  0  0  0
  4  5  1  0  0  0
 17 18  1  0  0  0
 20 22  1  0  0  0
 21 23  1  0  0  0
 21 24  1  0  0  0
 12 13  1  0  0  0
M  END
> <minimizedAffinity>
-6.94561

$$$$
5ITP_6DB_A_301


 24 23  0  0  0  0  0  0  0  0999 V2000
  -15.2670   78.0827    1.0924 C   0  0  0  0  0  0  0  0  0  0  0  0
  -14.3171   77.0370    0.5593 C   0  0  0  0  0  0  0  0  0  0  0  0
  -14.3135   76.7415   -0.6623 O   0  0  0  0  0  0  0  0  0  0  0  0
  -13.5427   76.4418    1.3598 O   0  0  0  0  0  0  0  0  0  0  0  0
  -13.5481   76.6647    2.2698 H   0  0  0  0  0  0  0  0  0  0  0  0
  -15.1502   78.2055    2.5423 N   0  0  0  0  0  0  0  0  0  0  0  0
  -15.8736   77.6177    2.9565 H   0  0  0  0  0  0  0  0  0  0  0  0
  -15.2844   79.5418    3.1286 C   0  0  0  0  0  0  0  0  0  0  0  0
  -13.9422   80.1007    3.4484 C   0  0  0  0  0  0  0  0  0  0  0  0
  -15.6362   79.4780    5.4902 O   0  0  0  0  0  0  0  0  0  0  0  0
  -16.1790   79.5610    4.3696 C   0  0  0  0  0  0  0  0  0  0  0  0
  -17.4279   79.6457    4.2698 O   0  0  0  0  0  0  0  0  0  0  0  0
  -17.8271   79.7077    3.4244 H   0  0  0  0  0  0  0  0  0  0  0  0
  -15.0071   79.3814    0.2917 C   0  0  0  0  0  0  0  0  0  0  0  0
  -16.1896   79.8059   -0.5616 C   0  0  0  0  0  0  0  0  0  0  0  0
  -16.0698   79.5448   -2.0652 C   0  0  0  0  0  0  0  0  0  0  0  0
  -16.3633   78.1098   -2.3214 N   0  0  0  0  0  0  0  0  0  0  0  0
  -16.6944   77.5706   -1.5672 H   0  0  0  0  0  0  0  0  0  0  0  0
  -16.2002   77.4553   -3.5820 C   0  0  0  0  0  0  0  0  0  0  0  0
  -16.8331   77.9026   -4.6403 N   0  0  0  0  0  0  0  0  0  0  0  0
  -15.3627   76.4774   -3.6452 N   0  0  0  0  0  0  0  0  0  0  0  0
  -17.4662   78.6517   -4.5551 H   0  0  0  0  0  0  0  0  0  0  0  0
  -14.9054   76.1675   -2.8303 H   0  0  0  0  0  0  0  0  0  0  0  0
  -15.1803   76.0405   -4.5084 H   0  0  0  0  0  0  0  0  0  0  0  0
 10 11  2  0  0  0
  9  8  1  0  0  0
 11 12  1  0  0  0
 11  8  1  0  0  0
  8  6  1  0  0  0
  6  1  1  0  0  0
  3  2  2  0  0  0
  1  2  1  0  0  0
  1 14  1  0  0  0
  2  4  1  0  0  0
 14 15  1  0  0  0
 15 16  1  0  0  0
 16 17  1  0  0  0
 17 19  1  0  0  0
 19 20  2  0  0  0
 19 21  1  0  0  0
  6  7  1  0  0  0
  4  5  1  0  0  0
 17 18  1  0  0  0
 20 22  1  0  0  0
 21 23  1  0  0  0
 21 24  1  0  0  0
 12 13  1  0  0  0
M  END
> <minimizedAffinity>
-6.92124

$$$$
5ITP_6DB_A_301


 24 23  0  0  0  0  0  0  0  0999 V2000
  -14.8728   77.7799    0.2352 C   0  0  0  0  0  0  0  0  0  0  0  0
  -14.2901   76.5340   -0.3877 C   0  0  0  0  0  0  0  0  0  0  0  0
  -14.3000   76.3795   -1.6350 O   0  0  0  0  0  0  0  0  0  0  0  0
  -13.8155   75.6343    0.3607 O   0  0  0  0  0  0  0  0  0  0  0  0
  -13.8098   75.7529    1.2902 H   0  0  0  0  0  0  0  0  0  0  0  0
  -16.1417   78.1350   -0.3932 N   0  0  0  0  0  0  0  0  0  0  0  0
  -16.5160   77.2886   -0.8219 H   0  0  0  0  0  0  0  0  0  0  0  0
  -16.1266   79.1768   -1.4237 C   0  0  0  0  0  0  0  0  0  0  0  0
  -17.1896   80.1834   -1.1534 C   0  0  0  0  0  0  0  0  0  0  0  0
  -16.0687   79.3840   -3.8025 O   0  0  0  0  0  0  0  0  0  0  0  0
  -16.2714   78.6163   -2.8399 C   0  0  0  0  0  0  0  0  0  0  0  0
  -16.5972   77.4194   -3.0354 O   0  0  0  0  0  0  0  0  0  0  0  0
  -16.7475   76.8498   -2.3068 H   0  0  0  0  0  0  0  0  0  0  0  0
  -14.9317   77.5379    1.7627 C   0  0  0  0  0  0  0  0  0  0  0  0
  -14.3544   78.6848    2.5738 C   0  0  0  0  0  0  0  0  0  0  0  0
  -15.2817   79.8783    2.8167 C   0  0  0  0  0  0  0  0  0  0  0  0
  -16.4005   79.4383    3.6915 N   0  0  0  0  0  0  0  0  0  0  0  0
  -17.0991   78.8734    3.2888 H   0  0  0  0  0  0  0  0  0  0  0  0
  -16.5369   79.7749    5.0744 C   0  0  0  0  0  0  0  0  0  0  0  0
  -17.7198   80.0523    5.5687 N   0  0  0  0  0  0  0  0  0  0  0  0
  -15.4808   79.7183    5.8115 N   0  0  0  0  0  0  0  0  0  0  0  0
  -18.5051   80.0872    4.9760 H   0  0  0  0  0  0  0  0  0  0  0  0
  -14.6086   79.5072    5.4066 H   0  0  0  0  0  0  0  0  0  0  0  0
  -15.5465   79.8862    6.7794 H   0  0  0  0  0  0  0  0  0  0  0  0
 10 11  2  0  0  0
  9  8  1  0  0  0
 11 12  1  0  0  0
 11  8  1  0  0  0
  8  6  1  0  0  0
  6  1  1  0  0  0
  3  2  2  0  0  0
  1  2  1  0  0  0
  1 14  1  0  0  0
  2  4  1  0  0  0
 14 15  1  0  0  0
 15 16  1  0  0  0
 16 17  1  0  0  0
 17 19  1  0  0  0
 19 20  2  0  0  0
 19 21  1  0  0  0
  6  7  1  0  0  0
  4  5  1  0  0  0
 17 18  1  0  0  0
 20 22  1  0  0  0
 21 23  1  0  0  0
 21 24  1  0  0  0
 12 13  1  0  0  0
M  END
> <minimizedAffinity>
-6.39851

$$$$
5ITP_6DB_A_301


 24 23  0  0  0  0  0  0  0  0999 V2000
  -16.2798   79.4198   -1.1145 C   0  0  0  0  0  0  0  0  0  0  0  0
  -17.3265   80.5053   -1.0359 C   0  0  0  0  0  0  0  0  0  0  0  0
  -17.2375   81.5310   -1.7569 O   0  0  0  0  0  0  0  0  0  0  0  0
  -18.2803   80.3843   -0.2172 O   0  0  0  0  0  0  0  0  0  0  0  0
  -18.3434   79.6183    0.3187 H   0  0  0  0  0  0  0  0  0  0  0  0
  -16.0400   79.0230   -2.4986 N   0  0  0  0  0  0  0  0  0  0  0  0
  -16.7234   79.5110   -3.0776 H   0  0  0  0  0  0  0  0  0  0  0  0
  -16.1282   77.5974   -2.8266 C   0  0  0  0  0  0  0  0  0  0  0  0
  -15.0895   76.8331   -2.0829 C   0  0  0  0  0  0  0  0  0  0  0  0
  -16.0790   76.1397   -4.7180 O   0  0  0  0  0  0  0  0  0  0  0  0
  -16.0185   77.3234   -4.3278 C   0  0  0  0  0  0  0  0  0  0  0  0
  -15.8596   78.2593   -5.1498 O   0  0  0  0  0  0  0  0  0  0  0  0
  -15.8153   79.1453   -4.8481 H   0  0  0  0  0  0  0  0  0  0  0  0
  -15.0384   79.9307   -0.3443 C   0  0  0  0  0  0  0  0  0  0  0  0
  -15.3295   80.2621    1.1090 C   0  0  0  0  0  0  0  0  0  0  0  0
  -14.8518   79.2426    2.1462 C   0  0  0  0  0  0  0  0  0  0  0  0
  -14.8462   79.8941    3.4828 N   0  0  0  0  0  0  0  0  0  0  0  0
  -14.1174   80.5263    3.6787 H   0  0  0  0  0  0  0  0  0  0  0  0
  -15.8211   79.6702    4.5044 C   0  0  0  0  0  0  0  0  0  0  0  0
  -17.0716   79.4436    4.1798 N   0  0  0  0  0  0  0  0  0  0  0  0
  -15.4097   79.6250    5.7253 N   0  0  0  0  0  0  0  0  0  0  0  0
  -17.3509   79.4866    3.2367 H   0  0  0  0  0  0  0  0  0  0  0  0
  -14.4634   79.8006    5.9326 H   0  0  0  0  0  0  0  0  0  0  0  0
  -16.0417   79.4150    6.4503 H   0  0  0  0  0  0  0  0  0  0  0  0
 10 11  2  0  0  0
  9  8  1  0  0  0
 11 12  1  0  0  0
 11  8  1  0  0  0
  8  6  1  0  0  0
  6  1  1  0  0  0
  3  2  2  0  0  0
  1  2  1  0  0  0
  1 14  1  0  0  0
  2  4  1  0  0  0
 14 15  1  0  0  0
 15 16  1  0  0  0
 16 17  1  0  0  0
 17 19  1  0  0  0
 19 20  2  0  0  0
 19 21  1  0  0  0
  6  7  1  0  0  0
  4  5  1  0  0  0
 17 18  1  0  0  0
 20 22  1  0  0  0
 21 23  1  0  0  0
 21 24  1  0  0  0
 12 13  1  0  0  0
M  END
> <minimizedAffinity>
-6.29792

$$$$
5ITP_6DB_A_301


 24 23  0  0  0  0  0  0  0  0999 V2000
  -16.2751   79.4723   -1.1291 C   0  0  0  0  0  0  0  0  0  0  0  0
  -17.3758   80.5000   -1.0184 C   0  0  0  0  0  0  0  0  0  0  0  0
  -17.1979   81.6729   -1.4336 O   0  0  0  0  0  0  0  0  0  0  0  0
  -18.4705   80.1757   -0.4789 O   0  0  0  0  0  0  0  0  0  0  0  0
  -18.5996   79.3004   -0.1705 H   0  0  0  0  0  0  0  0  0  0  0  0
  -15.9892   79.1598   -2.5260 N   0  0  0  0  0  0  0  0  0  0  0  0
  -16.5635   79.7776   -3.0995 H   0  0  0  0  0  0  0  0  0  0  0  0
  -16.2311   77.7888   -2.9836 C   0  0  0  0  0  0  0  0  0  0  0  0
  -15.1902   76.8737   -2.4402 C   0  0  0  0  0  0  0  0  0  0  0  0
  -15.3627   77.0985   -5.0988 O   0  0  0  0  0  0  0  0  0  0  0  0
  -16.2997   77.6726   -4.5076 C   0  0  0  0  0  0  0  0  0  0  0  0
  -17.2647   78.1506   -5.1535 O   0  0  0  0  0  0  0  0  0  0  0  0
  -17.9641   78.5801   -4.7015 H   0  0  0  0  0  0  0  0  0  0  0  0
  -15.0757   80.0026   -0.3071 C   0  0  0  0  0  0  0  0  0  0  0  0
  -15.4057   80.2258    1.1585 C   0  0  0  0  0  0  0  0  0  0  0  0
  -14.3665   79.7361    2.1702 C   0  0  0  0  0  0  0  0  0  0  0  0
  -13.7373   78.4974    1.6406 N   0  0  0  0  0  0  0  0  0  0  0  0
  -12.8084   78.5590    1.3203 H   0  0  0  0  0  0  0  0  0  0  0  0
  -14.3815   77.2234    1.5623 C   0  0  0  0  0  0  0  0  0  0  0  0
  -13.8317   76.2513    0.8744 N   0  0  0  0  0  0  0  0  0  0  0  0
  -15.4613   77.0552    2.2461 N   0  0  0  0  0  0  0  0  0  0  0  0
  -13.0065   76.4155    0.3632 H   0  0  0  0  0  0  0  0  0  0  0  0
  -15.8465   77.8075    2.7509 H   0  0  0  0  0  0  0  0  0  0  0  0
  -15.9007   76.1744    2.2635 H   0  0  0  0  0  0  0  0  0  0  0  0
 10 11  2  0  0  0
  9  8  1  0  0  0
 11 12  1  0  0  0
 11  8  1  0  0  0
  8  6  1  0  0  0
  6  1  1  0  0  0
  3  2  2  0  0  0
  1  2  1  0  0  0
  1 14  1  0  0  0
  2  4  1  0  0  0
 14 15  1  0  0  0
 15 16  1  0  0  0
 16 17  1  0  0  0
 17 19  1  0  0  0
 19 20  2  0  0  0
 19 21  1  0  0  0
  6  7  1  0  0  0
  4  5  1  0  0  0
 17 18  1  0  0  0
 20 22  1  0  0  0
 21 23  1  0  0  0
 21 24  1  0  0  0
 12 13  1  0  0  0
M  END
> <minimizedAffinity>
-6.11716

$$$$
5ITP_6DB_A_301


 24 23  0  0  0  0  0  0  0  0999 V2000
  -15.0126   78.0881    1.6016 C   0  0  0  0  0  0  0  0  0  0  0  0
  -13.7126   77.3459    1.4039 C   0  0  0  0  0  0  0  0  0  0  0  0
  -12.6124   77.9280    1.5786 O   0  0  0  0  0  0  0  0  0  0  0  0
  -13.7416   76.1387    1.0343 O   0  0  0  0  0  0  0  0  0  0  0  0
  -14.5637   75.7080    0.9051 H   0  0  0  0  0  0  0  0  0  0  0  0
  -15.3127   78.2493    3.0211 N   0  0  0  0  0  0  0  0  0  0  0  0
  -16.2060   77.7894    3.1972 H   0  0  0  0  0  0  0  0  0  0  0  0
  -15.4117   79.6128    3.5487 C   0  0  0  0  0  0  0  0  0  0  0  0
  -14.0580   80.1360    3.8801 C   0  0  0  0  0  0  0  0  0  0  0  0
  -15.8410   79.5438    5.8973 O   0  0  0  0  0  0  0  0  0  0  0  0
  -16.3350   79.7158    4.7644 C   0  0  0  0  0  0  0  0  0  0  0  0
  -17.5606   79.9549    4.6318 O   0  0  0  0  0  0  0  0  0  0  0  0
  -17.9232   80.0827    3.7773 H   0  0  0  0  0  0  0  0  0  0  0  0
  -14.9124   79.4018    0.7895 C   0  0  0  0  0  0  0  0  0  0  0  0
  -14.5902   79.1762   -0.6774 C   0  0  0  0  0  0  0  0  0  0  0  0
  -15.7583   78.7517   -1.5712 C   0  0  0  0  0  0  0  0  0  0  0  0
  -16.5393   79.9630   -1.9368 N   0  0  0  0  0  0  0  0  0  0  0  0
  -16.5190   80.2516   -2.8778 H   0  0  0  0  0  0  0  0  0  0  0  0
  -17.3174   80.7396   -1.0227 C   0  0  0  0  0  0  0  0  0  0  0  0
  -16.9850   81.9829   -0.7696 N   0  0  0  0  0  0  0  0  0  0  0  0
  -18.3795   80.1992   -0.5309 N   0  0  0  0  0  0  0  0  0  0  0  0
  -16.1662   82.3632   -1.1624 H   0  0  0  0  0  0  0  0  0  0  0  0
  -18.5984   79.2629   -0.7422 H   0  0  0  0  0  0  0  0  0  0  0  0
  -18.9718   80.7228    0.0558 H   0  0  0  0  0  0  0  0  0  0  0  0
 10 11  2  0  0  0
  9  8  1  0  0  0
 11 12  1  0  0  0
 11  8  1  0  0  0
  8  6  1  0  0  0
  6  1  1  0  0  0
  3  2  2  0  0  0
  1  2  1  0  0  0
  1 14  1  0  0  0
  2  4  1  0  0  0
 14 15  1  0  0  0
 15 16  1  0  0  0
 16 17  1  0  0  0
 17 19  1  0  0  0
 19 20  2  0  0  0
 19 21  1  0  0  0
  6  7  1  0  0  0
  4  5  1  0  0  0
 17 18  1  0  0  0
 20 22  1  0  0  0
 21 23  1  0  0  0
 21 24  1  0  0  0
 12 13  1  0  0  0
M  END
> <minimizedAffinity>
-6.06868

$$$$
5ITP_6DB_A_301


 24 23  0  0  0  0  0  0  0  0999 V2000
  -15.5747   79.3036    0.4908 C   0  0  0  0  0  0  0  0  0  0  0  0
  -14.6231   78.2789   -0.0788 C   0  0  0  0  0  0  0  0  0  0  0  0
  -13.3838   78.4881   -0.0764 O   0  0  0  0  0  0  0  0  0  0  0  0
  -15.0881   77.2187   -0.5832 O   0  0  0  0  0  0  0  0  0  0  0  0
  -16.0126   77.0661   -0.5832 H   0  0  0  0  0  0  0  0  0  0  0  0
  -15.1604   79.7162    1.8283 N   0  0  0  0  0  0  0  0  0  0  0  0
  -14.1417   79.7672    1.8289 H   0  0  0  0  0  0  0  0  0  0  0  0
  -15.5562   78.8709    2.9581 C   0  0  0  0  0  0  0  0  0  0  0  0
  -15.0364   79.4384    4.2324 C   0  0  0  0  0  0  0  0  0  0  0  0
  -13.9267   77.1290    3.0837 O   0  0  0  0  0  0  0  0  0  0  0  0
  -15.1074   77.4167    2.8003 C   0  0  0  0  0  0  0  0  0  0  0  0
  -15.8979   76.5336    2.3856 O   0  0  0  0  0  0  0  0  0  0  0  0
  -16.7828   76.7584    2.1751 H   0  0  0  0  0  0  0  0  0  0  0  0
  -15.6906   80.4426   -0.5506 C   0  0  0  0  0  0  0  0  0  0  0  0
  -16.7640   80.1922   -1.5955 C   0  0  0  0  0  0  0  0  0  0  0  0
  -16.2820   79.6732   -2.9526 C   0  0  0  0  0  0  0  0  0  0  0  0
  -16.3885   78.1901   -2.9573 N   0  0  0  0  0  0  0  0  0  0  0  0
  -16.7547   77.7568   -2.1527 H   0  0  0  0  0  0  0  0  0  0  0  0
  -15.9983   77.3468   -4.0439 C   0  0  0  0  0  0  0  0  0  0  0  0
  -16.0749   76.0430   -3.9230 N   0  0  0  0  0  0  0  0  0  0  0  0
  -15.6504   77.9146   -5.1477 N   0  0  0  0  0  0  0  0  0  0  0  0
  -16.3442   75.6433   -3.0645 H   0  0  0  0  0  0  0  0  0  0  0  0
  -15.6034   78.8965   -5.2027 H   0  0  0  0  0  0  0  0  0  0  0  0
  -15.4316   77.3665   -5.9357 H   0  0  0  0  0  0  0  0  0  0  0  0
 10 11  2  0  0  0
  9  8  1  0  0  0
 11 12  1  0  0  0
 11  8  1  0  0  0
  8  6  1  0  0  0
  6  1  1  0  0  0
  3  2  2  0  0  0
  1  2  1  0  0  0
  1 14  1  0  0  0
  2  4  1  0  0  0
 14 15  1  0  0  0
 15 16  1  0  0  0
 16 17  1  0  0  0
 17 19  1  0  0  0
 19 20  2  0  0  0
 19 21  1  0  0  0
  6  7  1  0  0  0
  4  5  1  0  0  0
 17 18  1  0  0  0
 20 22  1  0  0  0
 21 23  1  0  0  0
 21 24  1  0  0  0
 12 13  1  0  0  0
M  END
> <minimizedAffinity>
-5.86933

$$$$
