1GFY_COL_A_301


 21 22  0  0  0  0  0  0  0  0999 V2000
   14.0019   44.7333   16.7185 S   0  0  0  0  0  0  0  0  0  0  0  0
   13.8613   45.4045   18.3686 C   0  0  0  0  0  0  0  0  0  0  0  0
   12.4153   45.4831   18.6908 C   0  0  0  0  0  0  0  0  0  0  0  0
   11.3204   45.1844   17.9560 C   0  0  0  0  0  0  0  0  0  0  0  0
   11.1915   44.4546   16.6649 C   0  0  0  0  0  0  0  0  0  0  0  0
   12.5053   43.6721   16.5878 C   0  0  0  0  0  0  0  0  0  0  0  0
   12.0092   46.3268   20.1486 S   0  0  0  0  0  0  0  0  0  0  0  0
   10.3892   46.1798   19.7677 C   0  0  0  0  0  0  0  0  0  0  0  0
   10.0812   45.6000   18.6244 C   0  0  0  0  0  0  0  0  0  0  0  0
    8.6189   45.5017   18.1571 C   0  0  0  0  0  0  0  0  0  0  0  0
    7.6940   45.1687   18.8417 O   0  0  0  0  0  0  0  0  0  0  0  0
    8.4533   45.8428   16.9402 O   0  0  0  0  0  0  0  0  0  0  0  0
    7.8367   44.9215   19.7341 H   0  0  0  0  0  0  0  0  0  0  0  0
    9.3553   46.7695   20.5929 N   0  0  0  0  0  0  0  0  0  0  0  0
    9.6096   47.3373   21.7775 C   0  0  0  0  0  0  0  0  0  0  0  0
   10.6416   47.1588   22.4446 O   0  0  0  0  0  0  0  0  0  0  0  0
    8.4260   46.7519   20.2684 H   0  0  0  0  0  0  0  0  0  0  0  0
    8.3437   47.9715   22.3321 C   0  0  0  0  0  0  0  0  0  0  0  0
    7.2496   47.1426   22.3113 O   0  0  0  0  0  0  0  0  0  0  0  0
    8.2480   48.9956   22.9219 O   0  0  0  0  0  0  0  0  0  0  0  0
    7.2896   46.3253   21.8548 H   0  0  0  0  0  0  0  0  0  0  0  0
  1  2  1  0  0  0
  1  6  1  0  0  0
  2  3  1  0  0  0
  3  4  2  0  0  0
  3  7  1  0  0  0
  4  5  1  0  0  0
  4  9  1  0  0  0
  5  6  1  0  0  0
  7  8  1  0  0  0
  8  9  2  0  0  0
  8 14  1  0  0  0
  9 10  1  0  0  0
 10 11  1  0  0  0
 10 12  2  0  0  0
 14 15  1  0  0  0
 15 18  1  0  0  0
 15 16  2  0  0  0
 18 19  1  0  0  0
 18 20  2  0  0  0
 11 13  1  0  0  0
 14 17  1  0  0  0
 19 21  1  0  0  0
M  END
> <minimizedAffinity>
-7.88016

$$$$
1GFY_COL_A_301


 21 22  0  0  0  0  0  0  0  0999 V2000
   11.5932   43.1553   14.4453 S   0  0  0  0  0  0  0  0  0  0  0  0
   10.1344   44.0668   14.9291 C   0  0  0  0  0  0  0  0  0  0  0  0
   10.4286   44.7093   16.2336 C   0  0  0  0  0  0  0  0  0  0  0  0
   11.5225   44.6576   17.0265 C   0  0  0  0  0  0  0  0  0  0  0  0
   12.8898   44.1349   16.7557 C   0  0  0  0  0  0  0  0  0  0  0  0
   12.9487   44.1230   15.2257 C   0  0  0  0  0  0  0  0  0  0  0  0
    9.0836   45.4571   17.0296 S   0  0  0  0  0  0  0  0  0  0  0  0
   10.0495   45.7480   18.3614 C   0  0  0  0  0  0  0  0  0  0  0  0
   11.2912   45.3064   18.3230 C   0  0  0  0  0  0  0  0  0  0  0  0
   12.2207   45.4555   19.5395 C   0  0  0  0  0  0  0  0  0  0  0  0
   12.5907   46.4954   20.0051 O   0  0  0  0  0  0  0  0  0  0  0  0
   12.5609   44.3406   20.0551 O   0  0  0  0  0  0  0  0  0  0  0  0
   12.3294   47.3044   19.6112 H   0  0  0  0  0  0  0  0  0  0  0  0
    9.5233   46.3532   19.5674 N   0  0  0  0  0  0  0  0  0  0  0  0
    8.6828   45.7159   20.3906 C   0  0  0  0  0  0  0  0  0  0  0  0
    8.0195   44.7101   20.0904 O   0  0  0  0  0  0  0  0  0  0  0  0
    9.7956   47.2725   19.7910 H   0  0  0  0  0  0  0  0  0  0  0  0
    8.4174   46.5667   21.6227 C   0  0  0  0  0  0  0  0  0  0  0  0
    9.5453   47.1328   22.1629 O   0  0  0  0  0  0  0  0  0  0  0  0
    7.3670   46.9254   22.0397 O   0  0  0  0  0  0  0  0  0  0  0  0
   10.3922   46.8731   21.8574 H   0  0  0  0  0  0  0  0  0  0  0  0
  1  2  1  0  0  0
  1  6  1  0  0  0
  2  3  1  0  0  0
  3  4  2  0  0  0
  3  7  1  0  0  0
  4  5  1  0  0  0
  4  9  1  0  0  0
  5  6  1  0  0  0
  7  8  1  0  0  0
  8  9  2  0  0  0
  8 14  1  0  0  0
  9 10  1  0  0  0
 10 11  1  0  0  0
 10 12  2  0  0  0
 14 15  1  0  0  0
 15 18  1  0  0  0
 15 16  2  0  0  0
 18 19  1  0  0  0
 18 20  2  0  0  0
 11 13  1  0  0  0
 14 17  1  0  0  0
 19 21  1  0  0  0
M  END
> <minimizedAffinity>
-6.27660

$$$$
1GFY_COL_A_301


 21 22  0  0  0  0  0  0  0  0999 V2000
    9.5905   45.6994   14.4970 S   0  0  0  0  0  0  0  0  0  0  0  0
   11.0582   46.5998   14.0193 C   0  0  0  0  0  0  0  0  0  0  0  0
   12.0410   46.4574   15.1215 C   0  0  0  0  0  0  0  0  0  0  0  0
   11.9529   45.8385   16.3204 C   0  0  0  0  0  0  0  0  0  0  0  0
   10.9328   44.8910   16.8473 C   0  0  0  0  0  0  0  0  0  0  0  0
   10.2676   44.3685   15.5710 C   0  0  0  0  0  0  0  0  0  0  0  0
   13.4614   47.4423   15.0014 S   0  0  0  0  0  0  0  0  0  0  0  0
   13.9296   46.9307   16.5213 C   0  0  0  0  0  0  0  0  0  0  0  0
   13.1171   46.1194   17.1694 C   0  0  0  0  0  0  0  0  0  0  0  0
   13.4304   45.6702   18.6069 C   0  0  0  0  0  0  0  0  0  0  0  0
   12.8906   46.0811   19.5942 O   0  0  0  0  0  0  0  0  0  0  0  0
   14.3283   44.7676   18.6698 O   0  0  0  0  0  0  0  0  0  0  0  0
   12.2328   46.7450   19.5266 H   0  0  0  0  0  0  0  0  0  0  0  0
   15.1202   47.4452   17.1659 N   0  0  0  0  0  0  0  0  0  0  0  0
   16.3521   47.0282   16.8512 C   0  0  0  0  0  0  0  0  0  0  0  0
   16.6134   45.9784   16.2418 O   0  0  0  0  0  0  0  0  0  0  0  0
   15.0189   48.1307   17.8651 H   0  0  0  0  0  0  0  0  0  0  0  0
   17.3865   47.8458   17.6087 C   0  0  0  0  0  0  0  0  0  0  0  0
   17.2536   47.7863   18.9738 O   0  0  0  0  0  0  0  0  0  0  0  0
   18.3624   48.3584   17.1719 O   0  0  0  0  0  0  0  0  0  0  0  0
   16.4952   47.3883   19.3537 H   0  0  0  0  0  0  0  0  0  0  0  0
  1  2  1  0  0  0
  1  6  1  0  0  0
  2  3  1  0  0  0
  3  4  2  0  0  0
  3  7  1  0  0  0
  4  5  1  0  0  0
  4  9  1  0  0  0
  5  6  1  0  0  0
  7  8  1  0  0  0
  8  9  2  0  0  0
  8 14  1  0  0  0
  9 10  1  0  0  0
 10 11  1  0  0  0
 10 12  2  0  0  0
 14 15  1  0  0  0
 15 18  1  0  0  0
 15 16  2  0  0  0
 18 19  1  0  0  0
 18 20  2  0  0  0
 11 13  1  0  0  0
 14 17  1  0  0  0
 19 21  1  0  0  0
M  END
> <minimizedAffinity>
-5.85990

$$$$
1GFY_COL_A_301


 21 22  0  0  0  0  0  0  0  0999 V2000
   15.8035   46.4118   15.9388 S   0  0  0  0  0  0  0  0  0  0  0  0
   15.2685   46.1201   17.6186 C   0  0  0  0  0  0  0  0  0  0  0  0
   13.8293   45.7635   17.5672 C   0  0  0  0  0  0  0  0  0  0  0  0
   12.9665   45.6854   16.5293 C   0  0  0  0  0  0  0  0  0  0  0  0
   13.2151   45.6979   15.0616 C   0  0  0  0  0  0  0  0  0  0  0  0
   14.6940   45.3126   14.9673 C   0  0  0  0  0  0  0  0  0  0  0  0
   13.0183   45.6667   19.0953 S   0  0  0  0  0  0  0  0  0  0  0  0
   11.5677   45.4435   18.2971 C   0  0  0  0  0  0  0  0  0  0  0  0
   11.5849   45.4758   16.9792 C   0  0  0  0  0  0  0  0  0  0  0  0
   10.2818   45.3656   16.1692 C   0  0  0  0  0  0  0  0  0  0  0  0
    9.4065   44.5728   16.3699 O   0  0  0  0  0  0  0  0  0  0  0  0
   10.1864   46.2377   15.2445 O   0  0  0  0  0  0  0  0  0  0  0  0
    9.4958   43.9396   17.0547 H   0  0  0  0  0  0  0  0  0  0  0  0
   10.3124   45.3386   19.0118 N   0  0  0  0  0  0  0  0  0  0  0  0
    9.9206   46.2361   19.9236 C   0  0  0  0  0  0  0  0  0  0  0  0
   10.6700   47.0488   20.4891 O   0  0  0  0  0  0  0  0  0  0  0  0
    9.7223   44.5746   18.8186 H   0  0  0  0  0  0  0  0  0  0  0  0
    8.5112   45.9154   20.3961 C   0  0  0  0  0  0  0  0  0  0  0  0
    7.7984   45.1260   19.5283 O   0  0  0  0  0  0  0  0  0  0  0  0
    8.0469   46.1135   21.4690 O   0  0  0  0  0  0  0  0  0  0  0  0
    8.1351   44.9483   18.6721 H   0  0  0  0  0  0  0  0  0  0  0  0
  1  2  1  0  0  0
  1  6  1  0  0  0
  2  3  1  0  0  0
  3  4  2  0  0  0
  3  7  1  0  0  0
  4  5  1  0  0  0
  4  9  1  0  0  0
  5  6  1  0  0  0
  7  8  1  0  0  0
  8  9  2  0  0  0
  8 14  1  0  0  0
  9 10  1  0  0  0
 10 11  1  0  0  0
 10 12  2  0  0  0
 14 15  1  0  0  0
 15 18  1  0  0  0
 15 16  2  0  0  0
 18 19  1  0  0  0
 18 20  2  0  0  0
 11 13  1  0  0  0
 14 17  1  0  0  0
 19 21  1  0  0  0
M  END
> <minimizedAffinity>
-5.66870

$$$$
1GFY_COL_A_301


 21 22  0  0  0  0  0  0  0  0999 V2000
   13.5248   42.7448   12.8532 S   0  0  0  0  0  0  0  0  0  0  0  0
   11.8580   43.0458   13.4227 C   0  0  0  0  0  0  0  0  0  0  0  0
   11.9557   43.8415   14.6710 C   0  0  0  0  0  0  0  0  0  0  0  0
   13.0284   44.2764   15.3696 C   0  0  0  0  0  0  0  0  0  0  0  0
   14.4711   44.3115   15.0046 C   0  0  0  0  0  0  0  0  0  0  0  0
   14.4343   44.2168   13.4768 C   0  0  0  0  0  0  0  0  0  0  0  0
   10.4773   44.0585   15.5481 S   0  0  0  0  0  0  0  0  0  0  0  0
   11.3312   44.7957   16.7804 C   0  0  0  0  0  0  0  0  0  0  0  0
   12.6413   44.8722   16.6543 C   0  0  0  0  0  0  0  0  0  0  0  0
   13.5106   45.4570   17.7807 C   0  0  0  0  0  0  0  0  0  0  0  0
   13.4704   46.5893   18.1698 O   0  0  0  0  0  0  0  0  0  0  0  0
   14.2924   44.6015   18.3115 O   0  0  0  0  0  0  0  0  0  0  0  0
   12.8887   47.2030   17.7661 H   0  0  0  0  0  0  0  0  0  0  0  0
   10.6853   45.2300   18.0019 N   0  0  0  0  0  0  0  0  0  0  0  0
    9.3743   45.4869   18.0765 C   0  0  0  0  0  0  0  0  0  0  0  0
    8.6342   45.6962   17.1017 O   0  0  0  0  0  0  0  0  0  0  0  0
   11.2342   45.3409   18.8116 H   0  0  0  0  0  0  0  0  0  0  0  0
    8.9864   45.7955   19.5141 C   0  0  0  0  0  0  0  0  0  0  0  0
    8.2996   44.7826   20.1360 O   0  0  0  0  0  0  0  0  0  0  0  0
    9.3559   46.7023   20.1827 O   0  0  0  0  0  0  0  0  0  0  0  0
    7.9927   44.0503   19.6385 H   0  0  0  0  0  0  0  0  0  0  0  0
  1  2  1  0  0  0
  1  6  1  0  0  0
  2  3  1  0  0  0
  3  4  2  0  0  0
  3  7  1  0  0  0
  4  5  1  0  0  0
  4  9  1  0  0  0
  5  6  1  0  0  0
  7  8  1  0  0  0
  8  9  2  0  0  0
  8 14  1  0  0  0
  9 10  1  0  0  0
 10 11  1  0  0  0
 10 12  2  0  0  0
 14 15  1  0  0  0
 15 18  1  0  0  0
 15 16  2  0  0  0
 18 19  1  0  0  0
 18 20  2  0  0  0
 11 13  1  0  0  0
 14 17  1  0  0  0
 19 21  1  0  0  0
M  END
> <minimizedAffinity>
-5.31455

$$$$
1GFY_COL_A_301


 21 22  0  0  0  0  0  0  0  0999 V2000
    9.2799   46.6437   20.3279 S   0  0  0  0  0  0  0  0  0  0  0  0
    9.2796   45.5265   18.9332 C   0  0  0  0  0  0  0  0  0  0  0  0
   10.6951   45.2934   18.5549 C   0  0  0  0  0  0  0  0  0  0  0  0
   11.8460   45.7996   19.0521 C   0  0  0  0  0  0  0  0  0  0  0  0
   12.1036   46.5764   20.2956 C   0  0  0  0  0  0  0  0  0  0  0  0
   10.8768   46.2549   21.1536 C   0  0  0  0  0  0  0  0  0  0  0  0
   10.9508   44.4300   17.0747 S   0  0  0  0  0  0  0  0  0  0  0  0
   12.5930   44.7040   17.2131 C   0  0  0  0  0  0  0  0  0  0  0  0
   13.0074   45.4255   18.2358 C   0  0  0  0  0  0  0  0  0  0  0  0
   14.4920   45.7974   18.3904 C   0  0  0  0  0  0  0  0  0  0  0  0
   15.0096   46.7815   17.9446 O   0  0  0  0  0  0  0  0  0  0  0  0
   15.1542   44.9564   19.0825 O   0  0  0  0  0  0  0  0  0  0  0  0
   14.5054   47.3876   17.4382 H   0  0  0  0  0  0  0  0  0  0  0  0
   13.5263   44.2755   16.1918 N   0  0  0  0  0  0  0  0  0  0  0  0
   13.7988   45.0082   15.1059 C   0  0  0  0  0  0  0  0  0  0  0  0
   13.0951   45.9388   14.6811 O   0  0  0  0  0  0  0  0  0  0  0  0
   13.9794   43.4083   16.3012 H   0  0  0  0  0  0  0  0  0  0  0  0
   14.9048   44.3478   14.2977 C   0  0  0  0  0  0  0  0  0  0  0  0
   14.9974   42.9909   14.4841 O   0  0  0  0  0  0  0  0  0  0  0  0
   15.5473   44.8294   13.4253 O   0  0  0  0  0  0  0  0  0  0  0  0
   14.5036   42.5767   15.1642 H   0  0  0  0  0  0  0  0  0  0  0  0
  1  2  1  0  0  0
  1  6  1  0  0  0
  2  3  1  0  0  0
  3  4  2  0  0  0
  3  7  1  0  0  0
  4  5  1  0  0  0
  4  9  1  0  0  0
  5  6  1  0  0  0
  7  8  1  0  0  0
  8  9  2  0  0  0
  8 14  1  0  0  0
  9 10  1  0  0  0
 10 11  1  0  0  0
 10 12  2  0  0  0
 14 15  1  0  0  0
 15 18  1  0  0  0
 15 16  2  0  0  0
 18 19  1  0  0  0
 18 20  2  0  0  0
 11 13  1  0  0  0
 14 17  1  0  0  0
 19 21  1  0  0  0
M  END
> <minimizedAffinity>
-5.24347

$$$$
1GFY_COL_A_301


 21 22  0  0  0  0  0  0  0  0999 V2000
   17.1880   51.9877   16.1604 S   0  0  0  0  0  0  0  0  0  0  0  0
   15.7251   51.1399   15.5821 C   0  0  0  0  0  0  0  0  0  0  0  0
   15.7007   49.8078   16.2347 C   0  0  0  0  0  0  0  0  0  0  0  0
   16.5724   49.2126   17.0796 C   0  0  0  0  0  0  0  0  0  0  0  0
   17.7294   49.7741   17.8294 C   0  0  0  0  0  0  0  0  0  0  0  0
   17.4279   51.2752   17.8390 C   0  0  0  0  0  0  0  0  0  0  0  0
   14.5024   48.7008   15.6512 S   0  0  0  0  0  0  0  0  0  0  0  0
   15.1557   47.5041   16.6168 C   0  0  0  0  0  0  0  0  0  0  0  0
   16.2278   47.8063   17.3220 C   0  0  0  0  0  0  0  0  0  0  0  0
   16.9425   46.7398   18.1694 C   0  0  0  0  0  0  0  0  0  0  0  0
   16.8926   46.6561   19.3634 O   0  0  0  0  0  0  0  0  0  0  0  0
   17.5989   45.8977   17.4732 O   0  0  0  0  0  0  0  0  0  0  0  0
   16.4046   47.2853   19.8572 H   0  0  0  0  0  0  0  0  0  0  0  0
   14.6483   46.1477   16.5983 N   0  0  0  0  0  0  0  0  0  0  0  0
   13.6384   45.7411   17.3763 C   0  0  0  0  0  0  0  0  0  0  0  0
   13.2388   46.3351   18.3908 O   0  0  0  0  0  0  0  0  0  0  0  0
   15.0641   45.4972   15.9874 H   0  0  0  0  0  0  0  0  0  0  0  0
   13.2612   44.3089   17.0317 C   0  0  0  0  0  0  0  0  0  0  0  0
   13.9651   43.7856   15.9756 O   0  0  0  0  0  0  0  0  0  0  0  0
   12.5852   43.5682   17.6644 O   0  0  0  0  0  0  0  0  0  0  0  0
   14.5094   44.3419   15.4538 H   0  0  0  0  0  0  0  0  0  0  0  0
  1  2  1  0  0  0
  1  6  1  0  0  0
  2  3  1  0  0  0
  3  4  2  0  0  0
  3  7  1  0  0  0
  4  5  1  0  0  0
  4  9  1  0  0  0
  5  6  1  0  0  0
  7  8  1  0  0  0
  8  9  2  0  0  0
  8 14  1  0  0  0
  9 10  1  0  0  0
 10 11  1  0  0  0
 10 12  2  0  0  0
 14 15  1  0  0  0
 15 18  1  0  0  0
 15 16  2  0  0  0
 18 19  1  0  0  0
 18 20  2  0  0  0
 11 13  1  0  0  0
 14 17  1  0  0  0
 19 21  1  0  0  0
M  END
> <minimizedAffinity>
-5.15908

$$$$
1GFY_COL_A_301


 21 22  0  0  0  0  0  0  0  0999 V2000
   16.3583   43.0680   13.0850 S   0  0  0  0  0  0  0  0  0  0  0  0
   14.7970   42.4334   13.6792 C   0  0  0  0  0  0  0  0  0  0  0  0
   14.1702   43.5005   14.4974 C   0  0  0  0  0  0  0  0  0  0  0  0
   14.6073   44.7326   14.8423 C   0  0  0  0  0  0  0  0  0  0  0  0
   15.7544   45.5308   14.3293 C   0  0  0  0  0  0  0  0  0  0  0  0
   16.0411   44.8764   12.9751 C   0  0  0  0  0  0  0  0  0  0  0  0
   12.7540   43.0416   15.3838 S   0  0  0  0  0  0  0  0  0  0  0  0
   12.7466   44.5396   16.1233 C   0  0  0  0  0  0  0  0  0  0  0  0
   13.7260   45.3712   15.8276 C   0  0  0  0  0  0  0  0  0  0  0  0
   13.8425   46.7357   16.5280 C   0  0  0  0  0  0  0  0  0  0  0  0
   14.3418   46.9233   17.6007 O   0  0  0  0  0  0  0  0  0  0  0  0
   13.3716   47.6992   15.8390 O   0  0  0  0  0  0  0  0  0  0  0  0
   14.6823   46.2015   18.0916 H   0  0  0  0  0  0  0  0  0  0  0  0
   11.7772   44.8815   17.1436 N   0  0  0  0  0  0  0  0  0  0  0  0
   10.4940   45.1402   16.8663 C   0  0  0  0  0  0  0  0  0  0  0  0
   10.0540   45.4296   15.7419 O   0  0  0  0  0  0  0  0  0  0  0  0
   12.0750   44.9254   18.0810 H   0  0  0  0  0  0  0  0  0  0  0  0
    9.7135   45.3383   18.1562 C   0  0  0  0  0  0  0  0  0  0  0  0
    8.3595   45.4716   17.9737 O   0  0  0  0  0  0  0  0  0  0  0  0
   10.1101   45.2127   19.2665 O   0  0  0  0  0  0  0  0  0  0  0  0
    8.0109   45.5728   17.1099 H   0  0  0  0  0  0  0  0  0  0  0  0
  1  2  1  0  0  0
  1  6  1  0  0  0
  2  3  1  0  0  0
  3  4  2  0  0  0
  3  7  1  0  0  0
  4  5  1  0  0  0
  4  9  1  0  0  0
  5  6  1  0  0  0
  7  8  1  0  0  0
  8  9  2  0  0  0
  8 14  1  0  0  0
  9 10  1  0  0  0
 10 11  1  0  0  0
 10 12  2  0  0  0
 14 15  1  0  0  0
 15 18  1  0  0  0
 15 16  2  0  0  0
 18 19  1  0  0  0
 18 20  2  0  0  0
 11 13  1  0  0  0
 14 17  1  0  0  0
 19 21  1  0  0  0
M  END
> <minimizedAffinity>
-5.05965

$$$$
1GFY_COL_A_301


 21 22  0  0  0  0  0  0  0  0999 V2000
   10.6002   45.7868   13.3236 S   0  0  0  0  0  0  0  0  0  0  0  0
   11.1400   44.7382   14.6662 C   0  0  0  0  0  0  0  0  0  0  0  0
   12.1605   45.4943   15.4330 C   0  0  0  0  0  0  0  0  0  0  0  0
   12.6986   46.7187   15.2350 C   0  0  0  0  0  0  0  0  0  0  0  0
   12.2856   47.8210   14.3237 C   0  0  0  0  0  0  0  0  0  0  0  0
   10.8259   47.4753   14.0171 C   0  0  0  0  0  0  0  0  0  0  0  0
   13.0123   44.5986   16.6472 S   0  0  0  0  0  0  0  0  0  0  0  0
   14.0048   45.9174   16.9060 C   0  0  0  0  0  0  0  0  0  0  0  0
   13.8185   46.9797   16.1476 C   0  0  0  0  0  0  0  0  0  0  0  0
   14.7436   48.2034   16.2610 C   0  0  0  0  0  0  0  0  0  0  0  0
   14.6625   49.0579   17.0967 O   0  0  0  0  0  0  0  0  0  0  0  0
   15.6611   48.2270   15.3765 O   0  0  0  0  0  0  0  0  0  0  0  0
   13.9806   49.0225   17.7383 H   0  0  0  0  0  0  0  0  0  0  0  0
   15.1106   45.8679   17.8401 N   0  0  0  0  0  0  0  0  0  0  0  0
   14.9544   45.5562   19.1319 C   0  0  0  0  0  0  0  0  0  0  0  0
   13.8753   45.5872   19.7454 O   0  0  0  0  0  0  0  0  0  0  0  0
   16.0155   46.0723   17.5105 H   0  0  0  0  0  0  0  0  0  0  0  0
   16.3113   45.4665   19.8123 C   0  0  0  0  0  0  0  0  0  0  0  0
   16.8079   44.1896   19.8996 O   0  0  0  0  0  0  0  0  0  0  0  0
   17.0359   46.3603   20.0985 O   0  0  0  0  0  0  0  0  0  0  0  0
   16.2633   43.4592   19.6812 H   0  0  0  0  0  0  0  0  0  0  0  0
  1  2  1  0  0  0
  1  6  1  0  0  0
  2  3  1  0  0  0
  3  4  2  0  0  0
  3  7  1  0  0  0
  4  5  1  0  0  0
  4  9  1  0  0  0
  5  6  1  0  0  0
  7  8  1  0  0  0
  8  9  2  0  0  0
  8 14  1  0  0  0
  9 10  1  0  0  0
 10 11  1  0  0  0
 10 12  2  0  0  0
 14 15  1  0  0  0
 15 18  1  0  0  0
 15 16  2  0  0  0
 18 19  1  0  0  0
 18 20  2  0  0  0
 11 13  1  0  0  0
 14 17  1  0  0  0
 19 21  1  0  0  0
M  END
> <minimizedAffinity>
-4.95265

$$$$
