5LZ5_7K4_A_503


 25 27  0  0  0  0  0  0  0  0999 V2000
   25.7912    1.1180   -1.3870 C   0  0  0  0  0  0  0  0  0  0  0  0
   26.4390    1.8325   -2.5712 C   0  0  0  0  0  0  0  0  0  0  0  0
   27.1399    3.1337   -2.1107 C   0  0  0  0  0  0  0  0  0  0  0  0
   26.0739    4.1277   -2.1265 N   0  0  0  0  0  0  0  0  0  0  0  0
   25.3468    2.4302   -3.4897 C   0  0  0  0  0  0  0  0  0  0  0  0
   25.0228    3.7615   -2.8708 C   0  0  0  0  0  0  0  0  0  0  0  0
   23.9925    4.4072   -3.0079 O   0  0  0  0  0  0  0  0  0  0  0  0
   27.4241    0.6185   -4.5763 C   0  0  0  0  0  0  0  0  0  0  0  0
   28.3201   -0.2686   -5.1380 C   0  0  0  0  0  0  0  0  0  0  0  0
   29.2272   -0.9298   -4.3460 C   0  0  0  0  0  0  0  0  0  0  0  0
   29.2436   -0.7092   -2.9901 C   0  0  0  0  0  0  0  0  0  0  0  0
   28.3528    0.1750   -2.4203 C   0  0  0  0  0  0  0  0  0  0  0  0
   27.4273    0.8535   -3.2051 C   0  0  0  0  0  0  0  0  0  0  0  0
   26.2080    5.4252   -1.4867 C   0  0  0  0  0  0  0  0  0  0  0  0
   26.4745    6.5318   -2.4676 C   0  0  0  0  0  0  0  0  0  0  0  0
   25.7422    7.6881   -2.0469 O   0  0  0  0  0  0  0  0  0  0  0  0
   24.7631    8.1769   -2.8701 C   0  0  0  0  0  0  0  0  0  0  0  0
   23.4226    8.2459   -4.8568 C   0  0  0  0  0  0  0  0  0  0  0  0
   22.7513    9.3264   -4.3452 C   0  0  0  0  0  0  0  0  0  0  0  0
   23.0575    9.8563   -3.1058 C   0  0  0  0  0  0  0  0  0  0  0  0
   24.0760    9.2717   -2.3635 C   0  0  0  0  0  0  0  0  0  0  0  0
   24.4329    7.6659   -4.1191 C   0  0  0  0  0  0  0  0  0  0  0  0
   21.7605    9.8951   -5.0688 F   0  0  0  0  0  0  0  0  0  0  0  0
   22.3353   10.9935   -2.5925 C   0  0  0  0  0  0  0  0  0  0  0  0
   21.7665   11.8907   -2.1871 N   0  0  0  0  0  0  0  0  0  0  0  0
 23 19  1  0  0  0
 18 19  2  0  0  0
 18 22  1  0  0  0
 19 20  1  0  0  0
 22 17  2  0  0  0
  1  2  1  0  0  0
 20 24  1  0  0  0
 20 21  2  0  0  0
 17 21  1  0  0  0
 17 16  1  0  0  0
 24 25  3  0  0  0
 15 16  1  0  0  0
 15 14  1  0  0  0
  2  5  1  0  0  0
  2 13  1  0  0  0
  2  3  1  0  0  0
  5  6  1  0  0  0
 13  8  2  0  0  0
 13 12  1  0  0  0
  7  6  2  0  0  0
  6  4  1  0  0  0
  8  9  1  0  0  0
 12 11  2  0  0  0
  4  3  1  0  0  0
  4 14  1  0  0  0
  9 10  2  0  0  0
 11 10  1  0  0  0
M  END
> <minimizedAffinity>
-8.88941

$$$$
5LZ5_7K4_A_503


 25 27  0  0  0  0  0  0  0  0999 V2000
   27.0324    2.0924   -4.3850 C   0  0  0  0  0  0  0  0  0  0  0  0
   27.0786    2.0337   -2.8596 C   0  0  0  0  0  0  0  0  0  0  0  0
   26.4217    3.2919   -2.2417 C   0  0  0  0  0  0  0  0  0  0  0  0
   27.5025    4.2696   -2.2115 N   0  0  0  0  0  0  0  0  0  0  0  0
   28.5327    2.2244   -2.3670 C   0  0  0  0  0  0  0  0  0  0  0  0
   28.7174    3.7153   -2.3097 C   0  0  0  0  0  0  0  0  0  0  0  0
   29.7752    4.3293   -2.3466 O   0  0  0  0  0  0  0  0  0  0  0  0
   26.6993   -0.4775   -2.9824 C   0  0  0  0  0  0  0  0  0  0  0  0
   26.0410   -1.6260   -2.5917 C   0  0  0  0  0  0  0  0  0  0  0  0
   25.0392   -1.5637   -1.6537 C   0  0  0  0  0  0  0  0  0  0  0  0
   24.6895   -0.3550   -1.1022 C   0  0  0  0  0  0  0  0  0  0  0  0
   25.3415    0.7972   -1.4860 C   0  0  0  0  0  0  0  0  0  0  0  0
   26.3578    0.7545   -2.4337 C   0  0  0  0  0  0  0  0  0  0  0  0
   27.2676    5.6849   -1.9819 C   0  0  0  0  0  0  0  0  0  0  0  0
   25.8472    6.0902   -2.2575 C   0  0  0  0  0  0  0  0  0  0  0  0
   25.8104    7.5133   -2.4119 O   0  0  0  0  0  0  0  0  0  0  0  0
   24.8063    8.0634   -3.1633 C   0  0  0  0  0  0  0  0  0  0  0  0
   23.4152    8.2964   -5.1021 C   0  0  0  0  0  0  0  0  0  0  0  0
   22.7473    9.3186   -4.4783 C   0  0  0  0  0  0  0  0  0  0  0  0
   23.0802    9.7379   -3.2039 C   0  0  0  0  0  0  0  0  0  0  0  0
   24.1224    9.1000   -2.5428 C   0  0  0  0  0  0  0  0  0  0  0  0
   24.4490    7.6636   -4.4449 C   0  0  0  0  0  0  0  0  0  0  0  0
   21.7333    9.9391   -5.1229 F   0  0  0  0  0  0  0  0  0  0  0  0
   22.3610   10.8157   -2.5722 C   0  0  0  0  0  0  0  0  0  0  0  0
   21.7936   11.6653   -2.0730 N   0  0  0  0  0  0  0  0  0  0  0  0
 23 19  1  0  0  0
 18 19  2  0  0  0
 18 22  1  0  0  0
 19 20  1  0  0  0
 22 17  2  0  0  0
  1  2  1  0  0  0
 20 24  1  0  0  0
 20 21  2  0  0  0
 17 21  1  0  0  0
 17 16  1  0  0  0
 24 25  3  0  0  0
 15 16  1  0  0  0
 15 14  1  0  0  0
  2  5  1  0  0  0
  2 13  1  0  0  0
  2  3  1  0  0  0
  5  6  1  0  0  0
 13  8  2  0  0  0
 13 12  1  0  0  0
  7  6  2  0  0  0
  6  4  1  0  0  0
  8  9  1  0  0  0
 12 11  2  0  0  0
  4  3  1  0  0  0
  4 14  1  0  0  0
  9 10  2  0  0  0
 11 10  1  0  0  0
M  END
> <minimizedAffinity>
-8.78040

$$$$
5LZ5_7K4_A_503


 25 27  0  0  0  0  0  0  0  0999 V2000
   27.8217    1.3706   -4.5347 C   0  0  0  0  0  0  0  0  0  0  0  0
   28.0466    1.3266   -3.0248 C   0  0  0  0  0  0  0  0  0  0  0  0
   26.7912    1.8242   -2.2681 C   0  0  0  0  0  0  0  0  0  0  0  0
   26.9610    3.2714   -2.2257 N   0  0  0  0  0  0  0  0  0  0  0  0
   29.0582    2.4209   -2.6089 C   0  0  0  0  0  0  0  0  0  0  0  0
   28.2237    3.6603   -2.4430 C   0  0  0  0  0  0  0  0  0  0  0  0
   28.6084    4.8207   -2.4953 O   0  0  0  0  0  0  0  0  0  0  0  0
   28.1777   -0.6019   -1.3730 C   0  0  0  0  0  0  0  0  0  0  0  0
   28.4919   -1.9076   -1.0541 C   0  0  0  0  0  0  0  0  0  0  0  0
   29.0178   -2.7449   -2.0079 C   0  0  0  0  0  0  0  0  0  0  0  0
   29.2330   -2.2827   -3.2837 C   0  0  0  0  0  0  0  0  0  0  0  0
   28.9221   -0.9804   -3.6114 C   0  0  0  0  0  0  0  0  0  0  0  0
   28.3893   -0.1179   -2.6600 C   0  0  0  0  0  0  0  0  0  0  0  0
   25.8795    4.1734   -1.8687 C   0  0  0  0  0  0  0  0  0  0  0  0
   25.3919    4.9860   -3.0347 C   0  0  0  0  0  0  0  0  0  0  0  0
   25.7816    6.3478   -2.8246 O   0  0  0  0  0  0  0  0  0  0  0  0
   24.8511    7.3322   -3.0255 C   0  0  0  0  0  0  0  0  0  0  0  0
   23.8280    9.4691   -2.6576 C   0  0  0  0  0  0  0  0  0  0  0  0
   22.8817    9.1586   -3.6000 C   0  0  0  0  0  0  0  0  0  0  0  0
   22.8889    7.9504   -4.2715 C   0  0  0  0  0  0  0  0  0  0  0  0
   23.8869    7.0298   -3.9774 C   0  0  0  0  0  0  0  0  0  0  0  0
   24.8185    8.5550   -2.3668 C   0  0  0  0  0  0  0  0  0  0  0  0
   21.9104   10.0553   -3.8851 F   0  0  0  0  0  0  0  0  0  0  0  0
   21.8811    7.6503   -5.2575 C   0  0  0  0  0  0  0  0  0  0  0  0
   21.0861    7.4145   -6.0356 N   0  0  0  0  0  0  0  0  0  0  0  0
 23 19  1  0  0  0
 18 19  2  0  0  0
 18 22  1  0  0  0
 19 20  1  0  0  0
 22 17  2  0  0  0
  1  2  1  0  0  0
 20 24  1  0  0  0
 20 21  2  0  0  0
 17 21  1  0  0  0
 17 16  1  0  0  0
 24 25  3  0  0  0
 15 16  1  0  0  0
 15 14  1  0  0  0
  2  5  1  0  0  0
  2 13  1  0  0  0
  2  3  1  0  0  0
  5  6  1  0  0  0
 13  8  2  0  0  0
 13 12  1  0  0  0
  7  6  2  0  0  0
  6  4  1  0  0  0
  8  9  1  0  0  0
 12 11  2  0  0  0
  4  3  1  0  0  0
  4 14  1  0  0  0
  9 10  2  0  0  0
 11 10  1  0  0  0
M  END
> <minimizedAffinity>
-8.29665

$$$$
5LZ5_7K4_A_503


 25 27  0  0  0  0  0  0  0  0999 V2000
   22.2073   10.1846   -5.4643 C   0  0  0  0  0  0  0  0  0  0  0  0
   21.8853    8.7877   -4.9376 C   0  0  0  0  0  0  0  0  0  0  0  0
   22.2373    8.6732   -3.4345 C   0  0  0  0  0  0  0  0  0  0  0  0
   23.6515    8.3198   -3.4340 N   0  0  0  0  0  0  0  0  0  0  0  0
   22.8822    7.7593   -5.5227 C   0  0  0  0  0  0  0  0  0  0  0  0
   24.0714    7.8251   -4.6053 C   0  0  0  0  0  0  0  0  0  0  0  0
   25.2209    7.4942   -4.8631 O   0  0  0  0  0  0  0  0  0  0  0  0
   19.5765    8.0311   -4.1882 C   0  0  0  0  0  0  0  0  0  0  0  0
   18.2348    7.8109   -4.4263 C   0  0  0  0  0  0  0  0  0  0  0  0
   17.6954    8.0944   -5.6575 C   0  0  0  0  0  0  0  0  0  0  0  0
   18.4925    8.5982   -6.6566 C   0  0  0  0  0  0  0  0  0  0  0  0
   19.8334    8.8216   -6.4280 C   0  0  0  0  0  0  0  0  0  0  0  0
   20.3976    8.5409   -5.1888 C   0  0  0  0  0  0  0  0  0  0  0  0
   24.4742    8.3973   -2.2391 C   0  0  0  0  0  0  0  0  0  0  0  0
   25.7402    7.5960   -2.3526 C   0  0  0  0  0  0  0  0  0  0  0  0
   25.5578    6.3685   -1.6382 O   0  0  0  0  0  0  0  0  0  0  0  0
   25.9752    5.2032   -2.2239 C   0  0  0  0  0  0  0  0  0  0  0  0
   25.7075    3.1857   -3.4914 C   0  0  0  0  0  0  0  0  0  0  0  0
   27.0405    2.9181   -3.3140 C   0  0  0  0  0  0  0  0  0  0  0  0
   27.8668    3.7662   -2.6007 C   0  0  0  0  0  0  0  0  0  0  0  0
   27.3234    4.9206   -2.0511 C   0  0  0  0  0  0  0  0  0  0  0  0
   25.1692    4.3320   -2.9461 C   0  0  0  0  0  0  0  0  0  0  0  0
   27.5683    1.7939   -3.8489 F   0  0  0  0  0  0  0  0  0  0  0  0
   29.2650    3.4598   -2.4295 C   0  0  0  0  0  0  0  0  0  0  0  0
   30.3680    3.2191   -2.2942 N   0  0  0  0  0  0  0  0  0  0  0  0
 23 19  1  0  0  0
 18 19  2  0  0  0
 18 22  1  0  0  0
 19 20  1  0  0  0
 22 17  2  0  0  0
  1  2  1  0  0  0
 20 24  1  0  0  0
 20 21  2  0  0  0
 17 21  1  0  0  0
 17 16  1  0  0  0
 24 25  3  0  0  0
 15 16  1  0  0  0
 15 14  1  0  0  0
  2  5  1  0  0  0
  2 13  1  0  0  0
  2  3  1  0  0  0
  5  6  1  0  0  0
 13  8  2  0  0  0
 13 12  1  0  0  0
  7  6  2  0  0  0
  6  4  1  0  0  0
  8  9  1  0  0  0
 12 11  2  0  0  0
  4  3  1  0  0  0
  4 14  1  0  0  0
  9 10  2  0  0  0
 11 10  1  0  0  0
M  END
> <minimizedAffinity>
-7.88816

$$$$
5LZ5_7K4_A_503


 25 27  0  0  0  0  0  0  0  0999 V2000
   21.0778    7.5656   -5.7031 C   0  0  0  0  0  0  0  0  0  0  0  0
   21.3783    7.2181   -4.2466 C   0  0  0  0  0  0  0  0  0  0  0  0
   22.1432    5.8758   -4.1491 C   0  0  0  0  0  0  0  0  0  0  0  0
   21.0860    4.8723   -4.1439 N   0  0  0  0  0  0  0  0  0  0  0  0
   20.0710    6.8324   -3.5145 C   0  0  0  0  0  0  0  0  0  0  0  0
   19.8868    5.3718   -3.8192 C   0  0  0  0  0  0  0  0  0  0  0  0
   18.8410    4.7375   -3.7847 O   0  0  0  0  0  0  0  0  0  0  0  0
   23.5497    8.2327   -3.3977 C   0  0  0  0  0  0  0  0  0  0  0  0
   24.2741    9.2827   -2.8703 C   0  0  0  0  0  0  0  0  0  0  0  0
   23.6591   10.4816   -2.6028 C   0  0  0  0  0  0  0  0  0  0  0  0
   22.3185   10.6378   -2.8597 C   0  0  0  0  0  0  0  0  0  0  0  0
   21.5870    9.5950   -3.3865 C   0  0  0  0  0  0  0  0  0  0  0  0
   22.1915    8.3742   -3.6639 C   0  0  0  0  0  0  0  0  0  0  0  0
   21.3503    3.4600   -4.3594 C   0  0  0  0  0  0  0  0  0  0  0  0
   21.6627    2.7265   -3.0858 C   0  0  0  0  0  0  0  0  0  0  0  0
   22.8638    3.2784   -2.5352 O   0  0  0  0  0  0  0  0  0  0  0  0
   24.0669    2.7940   -2.9745 C   0  0  0  0  0  0  0  0  0  0  0  0
   25.5102    1.2495   -4.1059 C   0  0  0  0  0  0  0  0  0  0  0  0
   26.5863    2.0200   -3.7479 C   0  0  0  0  0  0  0  0  0  0  0  0
   26.4411    3.1779   -3.0070 C   0  0  0  0  0  0  0  0  0  0  0  0
   25.1649    3.5652   -2.6180 C   0  0  0  0  0  0  0  0  0  0  0  0
   24.2438    1.6350   -3.7198 C   0  0  0  0  0  0  0  0  0  0  0  0
   27.8282    1.6418   -4.1266 F   0  0  0  0  0  0  0  0  0  0  0  0
   27.5904    3.9688   -2.6443 C   0  0  0  0  0  0  0  0  0  0  0  0
   28.4975    4.5917   -2.3578 N   0  0  0  0  0  0  0  0  0  0  0  0
 23 19  1  0  0  0
 18 19  2  0  0  0
 18 22  1  0  0  0
 19 20  1  0  0  0
 22 17  2  0  0  0
  1  2  1  0  0  0
 20 24  1  0  0  0
 20 21  2  0  0  0
 17 21  1  0  0  0
 17 16  1  0  0  0
 24 25  3  0  0  0
 15 16  1  0  0  0
 15 14  1  0  0  0
  2  5  1  0  0  0
  2 13  1  0  0  0
  2  3  1  0  0  0
  5  6  1  0  0  0
 13  8  2  0  0  0
 13 12  1  0  0  0
  7  6  2  0  0  0
  6  4  1  0  0  0
  8  9  1  0  0  0
 12 11  2  0  0  0
  4  3  1  0  0  0
  4 14  1  0  0  0
  9 10  2  0  0  0
 11 10  1  0  0  0
M  END
> <minimizedAffinity>
-7.87029

$$$$
5LZ5_7K4_A_503


 25 27  0  0  0  0  0  0  0  0999 V2000
   25.2213   -0.3274   -3.4019 C   0  0  0  0  0  0  0  0  0  0  0  0
   25.0604    0.9315   -4.2515 C   0  0  0  0  0  0  0  0  0  0  0  0
   26.2554    1.8926   -4.0403 C   0  0  0  0  0  0  0  0  0  0  0  0
   25.8755    2.6674   -2.8654 N   0  0  0  0  0  0  0  0  0  0  0  0
   23.9142    1.8056   -3.6894 C   0  0  0  0  0  0  0  0  0  0  0  0
   24.5622    2.6247   -2.6081 C   0  0  0  0  0  0  0  0  0  0  0  0
   24.0089    3.1609   -1.6574 O   0  0  0  0  0  0  0  0  0  0  0  0
   23.7244    0.4954   -6.3704 C   0  0  0  0  0  0  0  0  0  0  0  0
   23.6342    0.0870   -7.6858 C   0  0  0  0  0  0  0  0  0  0  0  0
   24.7557   -0.3365   -8.3568 C   0  0  0  0  0  0  0  0  0  0  0  0
   25.9718   -0.3549   -7.7179 C   0  0  0  0  0  0  0  0  0  0  0  0
   26.0716    0.0512   -6.4045 C   0  0  0  0  0  0  0  0  0  0  0  0
   24.9481    0.4830   -5.7087 C   0  0  0  0  0  0  0  0  0  0  0  0
   26.8244    3.4873   -2.1318 C   0  0  0  0  0  0  0  0  0  0  0  0
   28.1806    3.5252   -2.7777 C   0  0  0  0  0  0  0  0  0  0  0  0
   29.0677    2.7110   -2.0027 O   0  0  0  0  0  0  0  0  0  0  0  0
   28.9893    1.3503   -2.1350 C   0  0  0  0  0  0  0  0  0  0  0  0
   28.6076   -0.8925   -1.3784 C   0  0  0  0  0  0  0  0  0  0  0  0
   28.8928   -1.3479   -2.6398 C   0  0  0  0  0  0  0  0  0  0  0  0
   29.2287   -0.4875   -3.6681 C   0  0  0  0  0  0  0  0  0  0  0  0
   29.2764    0.8764   -3.4080 C   0  0  0  0  0  0  0  0  0  0  0  0
   28.6545    0.4613   -1.1213 C   0  0  0  0  0  0  0  0  0  0  0  0
   28.8466   -2.6757   -2.8918 F   0  0  0  0  0  0  0  0  0  0  0  0
   29.5242   -0.9940   -4.9850 C   0  0  0  0  0  0  0  0  0  0  0  0
   29.7578   -1.3945   -6.0233 N   0  0  0  0  0  0  0  0  0  0  0  0
 23 19  1  0  0  0
 18 19  2  0  0  0
 18 22  1  0  0  0
 19 20  1  0  0  0
 22 17  2  0  0  0
  1  2  1  0  0  0
 20 24  1  0  0  0
 20 21  2  0  0  0
 17 21  1  0  0  0
 17 16  1  0  0  0
 24 25  3  0  0  0
 15 16  1  0  0  0
 15 14  1  0  0  0
  2  5  1  0  0  0
  2 13  1  0  0  0
  2  3  1  0  0  0
  5  6  1  0  0  0
 13  8  2  0  0  0
 13 12  1  0  0  0
  7  6  2  0  0  0
  6  4  1  0  0  0
  8  9  1  0  0  0
 12 11  2  0  0  0
  4  3  1  0  0  0
  4 14  1  0  0  0
  9 10  2  0  0  0
 11 10  1  0  0  0
M  END
> <minimizedAffinity>
-7.40767

$$$$
5LZ5_7K4_A_503


 25 27  0  0  0  0  0  0  0  0999 V2000
   24.9362   -0.3483   -3.3731 C   0  0  0  0  0  0  0  0  0  0  0  0
   24.8569    0.9363   -4.1952 C   0  0  0  0  0  0  0  0  0  0  0  0
   26.0689    1.8529   -3.8996 C   0  0  0  0  0  0  0  0  0  0  0  0
   25.6547    2.6094   -2.7244 N   0  0  0  0  0  0  0  0  0  0  0  0
   23.7115    1.8322   -3.6670 C   0  0  0  0  0  0  0  0  0  0  0  0
   24.3294    2.6023   -2.5333 C   0  0  0  0  0  0  0  0  0  0  0  0
   23.7460    3.1316   -1.5969 O   0  0  0  0  0  0  0  0  0  0  0  0
   25.9548    0.1396   -6.3457 C   0  0  0  0  0  0  0  0  0  0  0  0
   25.8959   -0.2250   -7.6757 C   0  0  0  0  0  0  0  0  0  0  0  0
   24.6963   -0.2076   -8.3449 C   0  0  0  0  0  0  0  0  0  0  0  0
   23.5505    0.1744   -7.6902 C   0  0  0  0  0  0  0  0  0  0  0  0
   23.5996    0.5400   -6.3620 C   0  0  0  0  0  0  0  0  0  0  0  0
   24.8040    0.5289   -5.6678 C   0  0  0  0  0  0  0  0  0  0  0  0
   26.5905    3.3794   -1.9230 C   0  0  0  0  0  0  0  0  0  0  0  0
   27.9403    3.5088   -2.5703 C   0  0  0  0  0  0  0  0  0  0  0  0
   28.8405    2.6123   -1.9097 O   0  0  0  0  0  0  0  0  0  0  0  0
   28.9431    1.3285   -2.3751 C   0  0  0  0  0  0  0  0  0  0  0  0
   29.3201   -0.3635   -4.0314 C   0  0  0  0  0  0  0  0  0  0  0  0
   29.0987   -1.3225   -3.0768 C   0  0  0  0  0  0  0  0  0  0  0  0
   28.7985   -0.9944   -1.7681 C   0  0  0  0  0  0  0  0  0  0  0  0
   28.7207    0.3478   -1.4179 C   0  0  0  0  0  0  0  0  0  0  0  0
   29.2433    0.9683   -3.6829 C   0  0  0  0  0  0  0  0  0  0  0  0
   29.1742   -2.6287   -3.4188 F   0  0  0  0  0  0  0  0  0  0  0  0
   28.5701   -2.0236   -0.7849 C   0  0  0  0  0  0  0  0  0  0  0  0
   28.3897   -2.8361   -0.0102 N   0  0  0  0  0  0  0  0  0  0  0  0
 23 19  1  0  0  0
 18 19  2  0  0  0
 18 22  1  0  0  0
 19 20  1  0  0  0
 22 17  2  0  0  0
  1  2  1  0  0  0
 20 24  1  0  0  0
 20 21  2  0  0  0
 17 21  1  0  0  0
 17 16  1  0  0  0
 24 25  3  0  0  0
 15 16  1  0  0  0
 15 14  1  0  0  0
  2  5  1  0  0  0
  2 13  1  0  0  0
  2  3  1  0  0  0
  5  6  1  0  0  0
 13  8  2  0  0  0
 13 12  1  0  0  0
  7  6  2  0  0  0
  6  4  1  0  0  0
  8  9  1  0  0  0
 12 11  2  0  0  0
  4  3  1  0  0  0
  4 14  1  0  0  0
  9 10  2  0  0  0
 11 10  1  0  0  0
M  END
> <minimizedAffinity>
-7.35174

$$$$
5LZ5_7K4_A_503


 25 27  0  0  0  0  0  0  0  0999 V2000
   24.6623    1.7617   -3.4919 C   0  0  0  0  0  0  0  0  0  0  0  0
   24.9355    2.0610   -2.0195 C   0  0  0  0  0  0  0  0  0  0  0  0
   25.1814    3.5740   -1.8033 C   0  0  0  0  0  0  0  0  0  0  0  0
   26.6043    3.7376   -2.0745 N   0  0  0  0  0  0  0  0  0  0  0  0
   26.3222    1.5064   -1.6157 C   0  0  0  0  0  0  0  0  0  0  0  0
   27.2887    2.5886   -2.0093 C   0  0  0  0  0  0  0  0  0  0  0  0
   28.4847    2.4627   -2.2352 O   0  0  0  0  0  0  0  0  0  0  0  0
   22.5234    2.2662   -1.2418 C   0  0  0  0  0  0  0  0  0  0  0  0
   21.4382    1.8121   -0.5198 C   0  0  0  0  0  0  0  0  0  0  0  0
   21.5353    0.6613    0.2242 C   0  0  0  0  0  0  0  0  0  0  0  0
   22.7159   -0.0408    0.2515 C   0  0  0  0  0  0  0  0  0  0  0  0
   23.8049    0.4049   -0.4664 C   0  0  0  0  0  0  0  0  0  0  0  0
   23.7262    1.5672   -1.2252 C   0  0  0  0  0  0  0  0  0  0  0  0
   27.2146    5.0402   -2.2785 C   0  0  0  0  0  0  0  0  0  0  0  0
   26.2832    6.1748   -1.9573 C   0  0  0  0  0  0  0  0  0  0  0  0
   26.0622    6.9249   -3.1569 O   0  0  0  0  0  0  0  0  0  0  0  0
   24.9370    7.7004   -3.2447 C   0  0  0  0  0  0  0  0  0  0  0  0
   23.4881    9.5118   -2.6380 C   0  0  0  0  0  0  0  0  0  0  0  0
   22.6067    9.1085   -3.6077 C   0  0  0  0  0  0  0  0  0  0  0  0
   22.8562    8.0112   -4.4104 C   0  0  0  0  0  0  0  0  0  0  0  0
   24.0361    7.3020   -4.2230 C   0  0  0  0  0  0  0  0  0  0  0  0
   24.6592    8.8077   -2.4531 C   0  0  0  0  0  0  0  0  0  0  0  0
   21.4583    9.7992   -3.7890 F   0  0  0  0  0  0  0  0  0  0  0  0
   21.9114    7.6093   -5.4223 C   0  0  0  0  0  0  0  0  0  0  0  0
   21.1655    7.2931   -6.2202 N   0  0  0  0  0  0  0  0  0  0  0  0
 23 19  1  0  0  0
 18 19  2  0  0  0
 18 22  1  0  0  0
 19 20  1  0  0  0
 22 17  2  0  0  0
  1  2  1  0  0  0
 20 24  1  0  0  0
 20 21  2  0  0  0
 17 21  1  0  0  0
 17 16  1  0  0  0
 24 25  3  0  0  0
 15 16  1  0  0  0
 15 14  1  0  0  0
  2  5  1  0  0  0
  2 13  1  0  0  0
  2  3  1  0  0  0
  5  6  1  0  0  0
 13  8  2  0  0  0
 13 12  1  0  0  0
  7  6  2  0  0  0
  6  4  1  0  0  0
  8  9  1  0  0  0
 12 11  2  0  0  0
  4  3  1  0  0  0
  4 14  1  0  0  0
  9 10  2  0  0  0
 11 10  1  0  0  0
M  END
> <minimizedAffinity>
-7.30834

$$$$
5LZ5_7K4_A_503


 25 27  0  0  0  0  0  0  0  0999 V2000
   19.1925    3.2654   -4.6866 C   0  0  0  0  0  0  0  0  0  0  0  0
   19.7315    4.1977   -3.6037 C   0  0  0  0  0  0  0  0  0  0  0  0
   21.2518    3.9855   -3.4035 C   0  0  0  0  0  0  0  0  0  0  0  0
   21.3272    2.8813   -2.4548 N   0  0  0  0  0  0  0  0  0  0  0  0
   19.2159    3.7495   -2.2156 C   0  0  0  0  0  0  0  0  0  0  0  0
   20.1877    2.6890   -1.7784 C   0  0  0  0  0  0  0  0  0  0  0  0
   19.9920    1.8025   -0.9580 O   0  0  0  0  0  0  0  0  0  0  0  0
   20.2259    6.6913   -3.6554 C   0  0  0  0  0  0  0  0  0  0  0  0
   19.9295    7.9793   -4.0532 C   0  0  0  0  0  0  0  0  0  0  0  0
   18.8270    8.2251   -4.8351 C   0  0  0  0  0  0  0  0  0  0  0  0
   18.0152    7.1868   -5.2228 C   0  0  0  0  0  0  0  0  0  0  0  0
   18.3034    5.8972   -4.8306 C   0  0  0  0  0  0  0  0  0  0  0  0
   19.4144    5.6284   -4.0392 C   0  0  0  0  0  0  0  0  0  0  0  0
   22.5583    2.1521   -2.2031 C   0  0  0  0  0  0  0  0  0  0  0  0
   23.7333    2.7219   -2.9465 C   0  0  0  0  0  0  0  0  0  0  0  0
   24.4075    3.6410   -2.0798 O   0  0  0  0  0  0  0  0  0  0  0  0
   25.7671    3.7638   -2.1880 C   0  0  0  0  0  0  0  0  0  0  0  0
   27.8552    4.9420   -2.1705 C   0  0  0  0  0  0  0  0  0  0  0  0
   28.5016    3.7649   -2.4473 C   0  0  0  0  0  0  0  0  0  0  0  0
   27.8164    2.5742   -2.6005 C   0  0  0  0  0  0  0  0  0  0  0  0
   26.4334    2.5787   -2.4686 C   0  0  0  0  0  0  0  0  0  0  0  0
   26.4826    4.9453   -2.0392 C   0  0  0  0  0  0  0  0  0  0  0  0
   29.8477    3.7618   -2.5760 F   0  0  0  0  0  0  0  0  0  0  0  0
   28.5218    1.3512   -2.8916 C   0  0  0  0  0  0  0  0  0  0  0  0
   29.0786    0.3865   -3.1203 N   0  0  0  0  0  0  0  0  0  0  0  0
 23 19  1  0  0  0
 18 19  2  0  0  0
 18 22  1  0  0  0
 19 20  1  0  0  0
 22 17  2  0  0  0
  1  2  1  0  0  0
 20 24  1  0  0  0
 20 21  2  0  0  0
 17 21  1  0  0  0
 17 16  1  0  0  0
 24 25  3  0  0  0
 15 16  1  0  0  0
 15 14  1  0  0  0
  2  5  1  0  0  0
  2 13  1  0  0  0
  2  3  1  0  0  0
  5  6  1  0  0  0
 13  8  2  0  0  0
 13 12  1  0  0  0
  7  6  2  0  0  0
  6  4  1  0  0  0
  8  9  1  0  0  0
 12 11  2  0  0  0
  4  3  1  0  0  0
  4 14  1  0  0  0
  9 10  2  0  0  0
 11 10  1  0  0  0
M  END
> <minimizedAffinity>
-7.30138

$$$$
5LZ5_7K4_A_503


 25 27  0  0  0  0  0  0  0  0999 V2000
   19.0446    3.4229   -4.6918 C   0  0  0  0  0  0  0  0  0  0  0  0
   19.7156    4.3411   -3.6725 C   0  0  0  0  0  0  0  0  0  0  0  0
   21.2167    3.9930   -3.5246 C   0  0  0  0  0  0  0  0  0  0  0  0
   21.2303    2.9245   -2.5333 N   0  0  0  0  0  0  0  0  0  0  0  0
   19.2220    3.9984   -2.2468 C   0  0  0  0  0  0  0  0  0  0  0  0
   20.1087    2.8679   -1.8040 C   0  0  0  0  0  0  0  0  0  0  0  0
   19.8673    2.0367   -0.9391 O   0  0  0  0  0  0  0  0  0  0  0  0
   18.4845    6.1014   -5.0329 C   0  0  0  0  0  0  0  0  0  0  0  0
   18.3131    7.4013   -5.4642 C   0  0  0  0  0  0  0  0  0  0  0  0
   19.1606    8.3914   -5.0296 C   0  0  0  0  0  0  0  0  0  0  0  0
   20.1831    8.0884   -4.1635 C   0  0  0  0  0  0  0  0  0  0  0  0
   20.3619    6.7931   -3.7273 C   0  0  0  0  0  0  0  0  0  0  0  0
   19.5147    5.7775   -4.1559 C   0  0  0  0  0  0  0  0  0  0  0  0
   22.3978    2.0917   -2.3002 C   0  0  0  0  0  0  0  0  0  0  0  0
   23.6671    2.7159   -2.8071 C   0  0  0  0  0  0  0  0  0  0  0  0
   24.2198    1.8546   -3.8087 O   0  0  0  0  0  0  0  0  0  0  0  0
   25.5751    1.6600   -3.8278 C   0  0  0  0  0  0  0  0  0  0  0  0
   27.5973    0.4702   -4.3216 C   0  0  0  0  0  0  0  0  0  0  0  0
   28.3157    1.4912   -3.7545 C   0  0  0  0  0  0  0  0  0  0  0  0
   27.7004    2.6060   -3.2168 C   0  0  0  0  0  0  0  0  0  0  0  0
   26.3140    2.6869   -3.2561 C   0  0  0  0  0  0  0  0  0  0  0  0
   26.2214    0.5516   -4.3606 C   0  0  0  0  0  0  0  0  0  0  0  0
   29.6651    1.4112   -3.7164 F   0  0  0  0  0  0  0  0  0  0  0  0
   28.4807    3.6646   -2.6264 C   0  0  0  0  0  0  0  0  0  0  0  0
   29.0966    4.4989   -2.1600 N   0  0  0  0  0  0  0  0  0  0  0  0
 23 19  1  0  0  0
 18 19  2  0  0  0
 18 22  1  0  0  0
 19 20  1  0  0  0
 22 17  2  0  0  0
  1  2  1  0  0  0
 20 24  1  0  0  0
 20 21  2  0  0  0
 17 21  1  0  0  0
 17 16  1  0  0  0
 24 25  3  0  0  0
 15 16  1  0  0  0
 15 14  1  0  0  0
  2  5  1  0  0  0
  2 13  1  0  0  0
  2  3  1  0  0  0
  5  6  1  0  0  0
 13  8  2  0  0  0
 13 12  1  0  0  0
  7  6  2  0  0  0
  6  4  1  0  0  0
  8  9  1  0  0  0
 12 11  2  0  0  0
  4  3  1  0  0  0
  4 14  1  0  0  0
  9 10  2  0  0  0
 11 10  1  0  0  0
M  END
> <minimizedAffinity>
-7.06326

$$$$
