3HUC_G97_A_362


 30 33  0  0  0  0  0  0  0  0999 V2000
   23.4750   -0.7471  -19.8813 C   0  0  0  0  0  0  0  0  0  0  0  0
   23.4996    0.3455  -20.6796 N   0  0  0  0  0  0  0  0  0  0  0  0
   22.9985   -0.6727  -18.6226 N   0  0  0  0  0  0  0  0  0  0  0  0
   22.5240    0.4828  -18.1381 C   0  0  0  0  0  0  0  0  0  0  0  0
   22.0247    0.5191  -16.8360 C   0  0  0  0  0  0  0  0  0  0  0  0
   21.5121    1.7021  -16.3082 C   0  0  0  0  0  0  0  0  0  0  0  0
   21.5135    2.8601  -17.1073 C   0  0  0  0  0  0  0  0  0  0  0  0
   22.0193    2.8224  -18.4147 C   0  0  0  0  0  0  0  0  0  0  0  0
   22.5287    1.6287  -18.9412 C   0  0  0  0  0  0  0  0  0  0  0  0
   23.0357    1.5371  -20.2484 C   0  0  0  0  0  0  0  0  0  0  0  0
   23.3677   -3.1656  -19.8805 C   0  0  0  0  0  0  0  0  0  0  0  0
   23.8309   -4.4051  -20.3202 C   0  0  0  0  0  0  0  0  0  0  0  0
   24.9116   -4.4375  -21.1931 C   0  0  0  0  0  0  0  0  0  0  0  0
   25.5157   -3.2598  -21.6390 C   0  0  0  0  0  0  0  0  0  0  0  0
   25.0501   -2.0184  -21.1951 C   0  0  0  0  0  0  0  0  0  0  0  0
   23.9734   -1.9749  -20.3061 C   0  0  0  0  0  0  0  0  0  0  0  0
   21.0618    1.6658  -15.0376 N   0  0  0  0  0  0  0  0  0  0  0  0
   19.9067    2.1507  -14.5645 C   0  0  0  0  0  0  0  0  0  0  0  0
   19.0485    2.7108  -15.2552 O   0  0  0  0  0  0  0  0  0  0  0  0
   21.6520    1.2315  -14.3801 H   0  0  0  0  0  0  0  0  0  0  0  0
   19.6651    1.9946  -13.1973 C   0  0  0  0  0  0  0  0  0  0  0  0
   20.3612    1.0519  -12.4420 C   0  0  0  0  0  0  0  0  0  0  0  0
   23.0667    2.6088  -21.0684 N   0  0  0  0  0  0  0  0  0  0  0  0
   23.6816    3.3438  -20.8430 H   0  0  0  0  0  0  0  0  0  0  0  0
   22.3048    2.7377  -22.1831 C   0  0  0  0  0  0  0  0  0  0  0  0
   21.0231    3.0949  -22.1860 C   0  0  0  0  0  0  0  0  0  0  0  0
   20.6599    3.0923  -23.4716 C   0  0  0  0  0  0  0  0  0  0  0  0
   21.7254    2.7272  -24.2032 N   0  0  0  0  0  0  0  0  0  0  0  0
   22.6894    2.5199  -23.4497 N   0  0  0  0  0  0  0  0  0  0  0  0
   21.7394    2.6379  -25.1835 H   0  0  0  0  0  0  0  0  0  0  0  0
 12 11  2  0  0  0
 11 16  1  0  0  0
 12 13  1  0  0  0
 13 14  2  0  0  0
 14 15  1  0  0  0
 16 15  2  0  0  0
 16  1  1  0  0  0
  2  1  2  0  0  0
  1  3  1  0  0  0
  2 10  1  0  0  0
  3  4  2  0  0  0
  9  4  1  0  0  0
  4  5  1  0  0  0
  5  6  2  0  0  0
  7  6  1  0  0  0
  6 17  1  0  0  0
 17 18  1  0  0  0
 19 18  2  0  0  0
 18 21  1  0  0  0
 21 22  2  0  0  0
  8  7  2  0  0  0
  9  8  1  0  0  0
 10  9  2  0  0  0
 23 10  1  0  0  0
 25 23  1  0  0  0
 29 25  2  0  0  0
 26 25  1  0  0  0
 27 26  2  0  0  0
 28 27  1  0  0  0
 28 29  1  0  0  0
 17 20  1  0  0  0
 23 24  1  0  0  0
 28 30  1  0  0  0
M  END
> <minimizedAffinity>
-10.58831

$$$$
3HUC_G97_A_362


 30 33  0  0  0  0  0  0  0  0999 V2000
   22.2097    0.7659  -17.4627 C   0  0  0  0  0  0  0  0  0  0  0  0
   22.3348    1.8393  -18.2777 N   0  0  0  0  0  0  0  0  0  0  0  0
   22.5888   -0.4609  -17.8726 N   0  0  0  0  0  0  0  0  0  0  0  0
   23.1126   -0.6429  -19.0923 C   0  0  0  0  0  0  0  0  0  0  0  0
   23.5080   -1.9242  -19.4771 C   0  0  0  0  0  0  0  0  0  0  0  0
   24.0684   -2.1436  -20.7336 C   0  0  0  0  0  0  0  0  0  0  0  0
   24.2218   -1.0534  -21.6095 C   0  0  0  0  0  0  0  0  0  0  0  0
   23.8204    0.2332  -21.2221 C   0  0  0  0  0  0  0  0  0  0  0  0
   23.2621    0.4480  -19.9557 C   0  0  0  0  0  0  0  0  0  0  0  0
   22.8552    1.7193  -19.5169 C   0  0  0  0  0  0  0  0  0  0  0  0
   20.9729    2.0413  -15.8182 C   0  0  0  0  0  0  0  0  0  0  0  0
   20.3784    2.1565  -14.5622 C   0  0  0  0  0  0  0  0  0  0  0  0
   20.4729    1.0845  -13.6830 C   0  0  0  0  0  0  0  0  0  0  0  0
   21.1317   -0.0921  -14.0467 C   0  0  0  0  0  0  0  0  0  0  0  0
   21.7284   -0.2041  -15.3062 C   0  0  0  0  0  0  0  0  0  0  0  0
   21.6517    0.8729  -16.1925 C   0  0  0  0  0  0  0  0  0  0  0  0
   24.4118   -3.4106  -21.0425 N   0  0  0  0  0  0  0  0  0  0  0  0
   23.7787   -4.5381  -20.6946 C   0  0  0  0  0  0  0  0  0  0  0  0
   22.7403   -4.5790  -20.0257 O   0  0  0  0  0  0  0  0  0  0  0  0
   25.2239   -3.5194  -21.5882 H   0  0  0  0  0  0  0  0  0  0  0  0
   24.3360   -5.7410  -21.1354 C   0  0  0  0  0  0  0  0  0  0  0  0
   23.6373   -6.5925  -21.9901 C   0  0  0  0  0  0  0  0  0  0  0  0
   22.9742    2.8080  -20.3059 N   0  0  0  0  0  0  0  0  0  0  0  0
   23.8645    3.2191  -20.3927 H   0  0  0  0  0  0  0  0  0  0  0  0
   21.9455    3.3718  -20.9867 C   0  0  0  0  0  0  0  0  0  0  0  0
   21.3465    2.8248  -22.0414 C   0  0  0  0  0  0  0  0  0  0  0  0
   20.4057    3.7006  -22.4054 C   0  0  0  0  0  0  0  0  0  0  0  0
   20.4694    4.7496  -21.5692 N   0  0  0  0  0  0  0  0  0  0  0  0
   21.3704    4.5579  -20.7375 N   0  0  0  0  0  0  0  0  0  0  0  0
   19.8919    5.5459  -21.6096 H   0  0  0  0  0  0  0  0  0  0  0  0
 12 11  2  0  0  0
 11 16  1  0  0  0
 12 13  1  0  0  0
 13 14  2  0  0  0
 14 15  1  0  0  0
 16 15  2  0  0  0
 16  1  1  0  0  0
  2  1  2  0  0  0
  1  3  1  0  0  0
  2 10  1  0  0  0
  3  4  2  0  0  0
  9  4  1  0  0  0
  4  5  1  0  0  0
  5  6  2  0  0  0
  7  6  1  0  0  0
  6 17  1  0  0  0
 17 18  1  0  0  0
 19 18  2  0  0  0
 18 21  1  0  0  0
 21 22  2  0  0  0
  8  7  2  0  0  0
  9  8  1  0  0  0
 10  9  2  0  0  0
 23 10  1  0  0  0
 25 23  1  0  0  0
 29 25  2  0  0  0
 26 25  1  0  0  0
 27 26  2  0  0  0
 28 27  1  0  0  0
 28 29  1  0  0  0
 17 20  1  0  0  0
 23 24  1  0  0  0
 28 30  1  0  0  0
M  END
> <minimizedAffinity>
-10.15971

$$$$
3HUC_G97_A_362


 30 33  0  0  0  0  0  0  0  0999 V2000
   23.3591   -1.0541  -19.5275 C   0  0  0  0  0  0  0  0  0  0  0  0
   23.0285   -0.8305  -18.2342 N   0  0  0  0  0  0  0  0  0  0  0  0
   23.3295   -0.0544  -20.4311 N   0  0  0  0  0  0  0  0  0  0  0  0
   22.9859    1.1880  -20.0656 C   0  0  0  0  0  0  0  0  0  0  0  0
   22.9809    2.2010  -21.0247 C   0  0  0  0  0  0  0  0  0  0  0  0
   22.6413    3.5056  -20.6731 C   0  0  0  0  0  0  0  0  0  0  0  0
   22.2969    3.7823  -19.3374 C   0  0  0  0  0  0  0  0  0  0  0  0
   22.2990    2.7618  -18.3755 C   0  0  0  0  0  0  0  0  0  0  0  0
   22.6460    1.4532  -18.7343 C   0  0  0  0  0  0  0  0  0  0  0  0
   22.6743    0.3991  -17.8056 C   0  0  0  0  0  0  0  0  0  0  0  0
   24.8260   -2.4942  -20.8062 C   0  0  0  0  0  0  0  0  0  0  0  0
   25.2055   -3.7604  -21.2499 C   0  0  0  0  0  0  0  0  0  0  0  0
   24.4428   -4.8553  -20.8619 C   0  0  0  0  0  0  0  0  0  0  0  0
   23.3296   -4.7026  -20.0323 C   0  0  0  0  0  0  0  0  0  0  0  0
   22.9503   -3.4315  -19.5903 C   0  0  0  0  0  0  0  0  0  0  0  0
   23.7017   -2.3223  -19.9862 C   0  0  0  0  0  0  0  0  0  0  0  0
   22.6426    4.4289  -21.6560 N   0  0  0  0  0  0  0  0  0  0  0  0
   21.6319    4.7593  -22.4699 C   0  0  0  0  0  0  0  0  0  0  0  0
   20.5048    4.2544  -22.4253 O   0  0  0  0  0  0  0  0  0  0  0  0
   23.4864    4.9178  -21.7913 H   0  0  0  0  0  0  0  0  0  0  0  0
   21.8810    5.7518  -23.4210 C   0  0  0  0  0  0  0  0  0  0  0  0
   22.5432    5.4624  -24.6132 C   0  0  0  0  0  0  0  0  0  0  0  0
   22.3556    0.5946  -16.5087 N   0  0  0  0  0  0  0  0  0  0  0  0
   22.5738    1.4665  -16.1069 H   0  0  0  0  0  0  0  0  0  0  0  0
   21.7540   -0.3334  -15.7235 C   0  0  0  0  0  0  0  0  0  0  0  0
   21.2597   -0.0931  -14.5118 C   0  0  0  0  0  0  0  0  0  0  0  0
   20.7714   -1.2637  -14.0923 C   0  0  0  0  0  0  0  0  0  0  0  0
   20.9915   -2.1741  -15.0549 N   0  0  0  0  0  0  0  0  0  0  0  0
   21.5663   -1.6303  -16.0109 N   0  0  0  0  0  0  0  0  0  0  0  0
   20.7368   -3.1240  -15.0093 H   0  0  0  0  0  0  0  0  0  0  0  0
 12 11  2  0  0  0
 11 16  1  0  0  0
 12 13  1  0  0  0
 13 14  2  0  0  0
 14 15  1  0  0  0
 16 15  2  0  0  0
 16  1  1  0  0  0
  2  1  2  0  0  0
  1  3  1  0  0  0
  2 10  1  0  0  0
  3  4  2  0  0  0
  9  4  1  0  0  0
  4  5  1  0  0  0
  5  6  2  0  0  0
  7  6  1  0  0  0
  6 17  1  0  0  0
 17 18  1  0  0  0
 19 18  2  0  0  0
 18 21  1  0  0  0
 21 22  2  0  0  0
  8  7  2  0  0  0
  9  8  1  0  0  0
 10  9  2  0  0  0
 23 10  1  0  0  0
 25 23  1  0  0  0
 29 25  2  0  0  0
 26 25  1  0  0  0
 27 26  2  0  0  0
 28 27  1  0  0  0
 28 29  1  0  0  0
 17 20  1  0  0  0
 23 24  1  0  0  0
 28 30  1  0  0  0
M  END
> <minimizedAffinity>
-9.76858

$$$$
3HUC_G97_A_362


 30 33  0  0  0  0  0  0  0  0999 V2000
   22.9465   -0.2463  -18.5918 C   0  0  0  0  0  0  0  0  0  0  0  0
   22.6958    1.0562  -18.8612 N   0  0  0  0  0  0  0  0  0  0  0  0
   22.6127   -0.7824  -17.4010 N   0  0  0  0  0  0  0  0  0  0  0  0
   22.0108   -0.0405  -16.4616 C   0  0  0  0  0  0  0  0  0  0  0  0
   21.6660   -0.6327  -15.2465 C   0  0  0  0  0  0  0  0  0  0  0  0
   21.0271    0.1086  -14.2549 C   0  0  0  0  0  0  0  0  0  0  0  0
   20.7425    1.4651  -14.4969 C   0  0  0  0  0  0  0  0  0  0  0  0
   21.0932    2.0594  -15.7177 C   0  0  0  0  0  0  0  0  0  0  0  0
   21.7310    1.3074  -16.7124 C   0  0  0  0  0  0  0  0  0  0  0  0
   22.0919    1.8538  -17.9556 C   0  0  0  0  0  0  0  0  0  0  0  0
   24.5262   -0.5343  -20.4036 C   0  0  0  0  0  0  0  0  0  0  0  0
   25.2070   -1.3489  -21.3074 C   0  0  0  0  0  0  0  0  0  0  0  0
   24.9383   -2.7124  -21.3039 C   0  0  0  0  0  0  0  0  0  0  0  0
   24.0214   -3.2656  -20.4073 C   0  0  0  0  0  0  0  0  0  0  0  0
   23.3389   -2.4460  -19.5031 C   0  0  0  0  0  0  0  0  0  0  0  0
   23.5909   -1.0719  -19.5080 C   0  0  0  0  0  0  0  0  0  0  0  0
   20.7388   -0.5259  -13.1004 N   0  0  0  0  0  0  0  0  0  0  0  0
   19.5297   -0.8470  -12.6228 C   0  0  0  0  0  0  0  0  0  0  0  0
   18.4639   -0.6102  -13.2018 O   0  0  0  0  0  0  0  0  0  0  0  0
   21.5082   -0.7834  -12.5428 H   0  0  0  0  0  0  0  0  0  0  0  0
   19.4878   -1.5042  -11.3907 C   0  0  0  0  0  0  0  0  0  0  0  0
   20.6267   -1.6257  -10.5958 C   0  0  0  0  0  0  0  0  0  0  0  0
   21.8483    3.1474  -18.2537 N   0  0  0  0  0  0  0  0  0  0  0  0
   21.1377    3.6097  -17.7531 H   0  0  0  0  0  0  0  0  0  0  0  0
   22.5199    3.8513  -19.1987 C   0  0  0  0  0  0  0  0  0  0  0  0
   22.1264    3.9875  -20.4624 C   0  0  0  0  0  0  0  0  0  0  0  0
   23.0650    4.7392  -21.0443 C   0  0  0  0  0  0  0  0  0  0  0  0
   23.9976    5.0265  -20.1216 N   0  0  0  0  0  0  0  0  0  0  0  0
   23.6791    4.5076  -19.0402 N   0  0  0  0  0  0  0  0  0  0  0  0
   24.8071    5.5645  -20.2784 H   0  0  0  0  0  0  0  0  0  0  0  0
 12 11  2  0  0  0
 11 16  1  0  0  0
 12 13  1  0  0  0
 13 14  2  0  0  0
 14 15  1  0  0  0
 16 15  2  0  0  0
 16  1  1  0  0  0
  2  1  2  0  0  0
  1  3  1  0  0  0
  2 10  1  0  0  0
  3  4  2  0  0  0
  9  4  1  0  0  0
  4  5  1  0  0  0
  5  6  2  0  0  0
  7  6  1  0  0  0
  6 17  1  0  0  0
 17 18  1  0  0  0
 19 18  2  0  0  0
 18 21  1  0  0  0
 21 22  2  0  0  0
  8  7  2  0  0  0
  9  8  1  0  0  0
 10  9  2  0  0  0
 23 10  1  0  0  0
 25 23  1  0  0  0
 29 25  2  0  0  0
 26 25  1  0  0  0
 27 26  2  0  0  0
 28 27  1  0  0  0
 28 29  1  0  0  0
 17 20  1  0  0  0
 23 24  1  0  0  0
 28 30  1  0  0  0
M  END
> <minimizedAffinity>
-9.76522

$$$$
3HUC_G97_A_362


 30 33  0  0  0  0  0  0  0  0999 V2000
   22.2548    0.6198  -17.5972 C   0  0  0  0  0  0  0  0  0  0  0  0
   22.9500   -0.4235  -18.1072 N   0  0  0  0  0  0  0  0  0  0  0  0
   22.0287    1.7258  -18.3338 N   0  0  0  0  0  0  0  0  0  0  0  0
   22.4750    1.8110  -19.5943 C   0  0  0  0  0  0  0  0  0  0  0  0
   22.2093    2.9648  -20.3320 C   0  0  0  0  0  0  0  0  0  0  0  0
   22.6481    3.0782  -21.6494 C   0  0  0  0  0  0  0  0  0  0  0  0
   23.3693    2.0134  -22.2200 C   0  0  0  0  0  0  0  0  0  0  0  0
   23.6386    0.8559  -21.4754 C   0  0  0  0  0  0  0  0  0  0  0  0
   23.1904    0.7461  -20.1530 C   0  0  0  0  0  0  0  0  0  0  0  0
   23.4246   -0.3969  -19.3701 C   0  0  0  0  0  0  0  0  0  0  0  0
   21.1379    1.7455  -15.7679 C   0  0  0  0  0  0  0  0  0  0  0  0
   20.6280    1.7492  -14.4702 C   0  0  0  0  0  0  0  0  0  0  0  0
   20.7723    0.6031  -13.6977 C   0  0  0  0  0  0  0  0  0  0  0  0
   21.3972   -0.5374  -14.2071 C   0  0  0  0  0  0  0  0  0  0  0  0
   21.9091   -0.5377  -15.5082 C   0  0  0  0  0  0  0  0  0  0  0  0
   21.7821    0.6141  -16.2884 C   0  0  0  0  0  0  0  0  0  0  0  0
   22.3686    4.2286  -22.2952 N   0  0  0  0  0  0  0  0  0  0  0  0
   21.3667    4.4636  -23.1519 C   0  0  0  0  0  0  0  0  0  0  0  0
   20.5133    3.6302  -23.4753 O   0  0  0  0  0  0  0  0  0  0  0  0
   22.9726    4.9850  -22.1155 H   0  0  0  0  0  0  0  0  0  0  0  0
   21.2877    5.7462  -23.7000 C   0  0  0  0  0  0  0  0  0  0  0  0
   22.0967    6.1277  -24.7694 C   0  0  0  0  0  0  0  0  0  0  0  0
   24.1092   -1.4543  -19.8548 N   0  0  0  0  0  0  0  0  0  0  0  0
   25.0068   -1.2916  -20.2251 H   0  0  0  0  0  0  0  0  0  0  0  0
   23.6396   -2.7267  -19.8645 C   0  0  0  0  0  0  0  0  0  0  0  0
   23.9654   -3.6463  -20.7692 C   0  0  0  0  0  0  0  0  0  0  0  0
   23.2856   -4.7415  -20.4185 C   0  0  0  0  0  0  0  0  0  0  0  0
   22.5661   -4.4501  -19.3225 N   0  0  0  0  0  0  0  0  0  0  0  0
   22.7731   -3.2707  -18.9968 N   0  0  0  0  0  0  0  0  0  0  0  0
   21.9681   -5.0744  -18.8514 H   0  0  0  0  0  0  0  0  0  0  0  0
 12 11  2  0  0  0
 11 16  1  0  0  0
 12 13  1  0  0  0
 13 14  2  0  0  0
 14 15  1  0  0  0
 16 15  2  0  0  0
 16  1  1  0  0  0
  2  1  2  0  0  0
  1  3  1  0  0  0
  2 10  1  0  0  0
  3  4  2  0  0  0
  9  4  1  0  0  0
  4  5  1  0  0  0
  5  6  2  0  0  0
  7  6  1  0  0  0
  6 17  1  0  0  0
 17 18  1  0  0  0
 19 18  2  0  0  0
 18 21  1  0  0  0
 21 22  2  0  0  0
  8  7  2  0  0  0
  9  8  1  0  0  0
 10  9  2  0  0  0
 23 10  1  0  0  0
 25 23  1  0  0  0
 29 25  2  0  0  0
 26 25  1  0  0  0
 27 26  2  0  0  0
 28 27  1  0  0  0
 28 29  1  0  0  0
 17 20  1  0  0  0
 23 24  1  0  0  0
 28 30  1  0  0  0
M  END
> <minimizedAffinity>
-9.40585

$$$$
3HUC_G97_A_362


 30 33  0  0  0  0  0  0  0  0999 V2000
   23.0563   -0.4148  -18.6748 C   0  0  0  0  0  0  0  0  0  0  0  0
   22.6659   -0.7926  -17.4351 N   0  0  0  0  0  0  0  0  0  0  0  0
   22.8300    0.8375  -19.1188 N   0  0  0  0  0  0  0  0  0  0  0  0
   22.2260    1.7420  -18.3362 C   0  0  0  0  0  0  0  0  0  0  0  0
   22.0218    3.0331  -18.8236 C   0  0  0  0  0  0  0  0  0  0  0  0
   21.4089    3.9997  -18.0293 C   0  0  0  0  0  0  0  0  0  0  0  0
   20.9932    3.6499  -16.7316 C   0  0  0  0  0  0  0  0  0  0  0  0
   21.1961    2.3505  -16.2449 C   0  0  0  0  0  0  0  0  0  0  0  0
   21.8173    1.3846  -17.0466 C   0  0  0  0  0  0  0  0  0  0  0  0
   22.0533    0.0732  -16.6008 C   0  0  0  0  0  0  0  0  0  0  0  0
   23.2870   -2.6553  -19.5624 C   0  0  0  0  0  0  0  0  0  0  0  0
   23.8621   -3.5575  -20.4564 C   0  0  0  0  0  0  0  0  0  0  0  0
   24.8250   -3.0901  -21.3428 C   0  0  0  0  0  0  0  0  0  0  0  0
   25.2020   -1.7454  -21.3568 C   0  0  0  0  0  0  0  0  0  0  0  0
   24.6247   -0.8432  -20.4579 C   0  0  0  0  0  0  0  0  0  0  0  0
   23.6662   -1.3054  -19.5528 C   0  0  0  0  0  0  0  0  0  0  0  0
   21.2302    5.2210  -18.5726 N   0  0  0  0  0  0  0  0  0  0  0  0
   21.8768    6.3539  -18.2701 C   0  0  0  0  0  0  0  0  0  0  0  0
   22.7747    6.4422  -17.4255 O   0  0  0  0  0  0  0  0  0  0  0  0
   20.5432    5.2875  -19.2747 H   0  0  0  0  0  0  0  0  0  0  0  0
   21.5076    7.5030  -18.9737 C   0  0  0  0  0  0  0  0  0  0  0  0
   21.4853    7.5226  -20.3676 C   0  0  0  0  0  0  0  0  0  0  0  0
   21.6806   -0.3292  -15.3675 N   0  0  0  0  0  0  0  0  0  0  0  0
   21.6308    0.3502  -14.6566 H   0  0  0  0  0  0  0  0  0  0  0  0
   21.3702   -1.6094  -15.0448 C   0  0  0  0  0  0  0  0  0  0  0  0
   21.3715   -2.0992  -13.8077 C   0  0  0  0  0  0  0  0  0  0  0  0
   21.0196   -3.3815  -13.9365 C   0  0  0  0  0  0  0  0  0  0  0  0
   20.8252   -3.6295  -15.2420 N   0  0  0  0  0  0  0  0  0  0  0  0
   21.0296   -2.5922  -15.8920 N   0  0  0  0  0  0  0  0  0  0  0  0
   20.5618   -4.4980  -15.6236 H   0  0  0  0  0  0  0  0  0  0  0  0
 12 11  2  0  0  0
 11 16  1  0  0  0
 12 13  1  0  0  0
 13 14  2  0  0  0
 14 15  1  0  0  0
 16 15  2  0  0  0
 16  1  1  0  0  0
  2  1  2  0  0  0
  1  3  1  0  0  0
  2 10  1  0  0  0
  3  4  2  0  0  0
  9  4  1  0  0  0
  4  5  1  0  0  0
  5  6  2  0  0  0
  7  6  1  0  0  0
  6 17  1  0  0  0
 17 18  1  0  0  0
 19 18  2  0  0  0
 18 21  1  0  0  0
 21 22  2  0  0  0
  8  7  2  0  0  0
  9  8  1  0  0  0
 10  9  2  0  0  0
 23 10  1  0  0  0
 25 23  1  0  0  0
 29 25  2  0  0  0
 26 25  1  0  0  0
 27 26  2  0  0  0
 28 27  1  0  0  0
 28 29  1  0  0  0
 17 20  1  0  0  0
 23 24  1  0  0  0
 28 30  1  0  0  0
M  END
> <minimizedAffinity>
-9.40449

$$$$
3HUC_G97_A_362


 30 33  0  0  0  0  0  0  0  0999 V2000
   21.4359   -2.0047  -13.9881 C   0  0  0  0  0  0  0  0  0  0  0  0
   20.5760   -2.9975  -14.3150 N   0  0  0  0  0  0  0  0  0  0  0  0
   22.2878   -2.1415  -12.9524 N   0  0  0  0  0  0  0  0  0  0  0  0
   22.3126   -3.2708  -12.2319 C   0  0  0  0  0  0  0  0  0  0  0  0
   23.2180   -3.3830  -11.1765 C   0  0  0  0  0  0  0  0  0  0  0  0
   23.2774   -4.5495  -10.4171 C   0  0  0  0  0  0  0  0  0  0  0  0
   22.4047   -5.6084  -10.7277 C   0  0  0  0  0  0  0  0  0  0  0  0
   21.4927   -5.4922  -11.7867 C   0  0  0  0  0  0  0  0  0  0  0  0
   21.4413   -4.3186  -12.5495 C   0  0  0  0  0  0  0  0  0  0  0  0
   20.5539   -4.1581  -13.6270 C   0  0  0  0  0  0  0  0  0  0  0  0
   22.0763   -0.7022  -15.9256 C   0  0  0  0  0  0  0  0  0  0  0  0
   22.0743    0.4926  -16.6444 C   0  0  0  0  0  0  0  0  0  0  0  0
   21.4370    1.5973  -16.0926 C   0  0  0  0  0  0  0  0  0  0  0  0
   20.7956    1.5176  -14.8545 C   0  0  0  0  0  0  0  0  0  0  0  0
   20.8006    0.3186  -14.1352 C   0  0  0  0  0  0  0  0  0  0  0  0
   21.4507   -0.7943  -14.6742 C   0  0  0  0  0  0  0  0  0  0  0  0
   24.1658   -4.5800   -9.4030 N   0  0  0  0  0  0  0  0  0  0  0  0
   25.3365   -5.2285   -9.3598 C   0  0  0  0  0  0  0  0  0  0  0  0
   25.7942   -5.9076  -10.2854 O   0  0  0  0  0  0  0  0  0  0  0  0
   23.9251   -4.0646   -8.5994 H   0  0  0  0  0  0  0  0  0  0  0  0
   26.0849   -5.1102   -8.1860 C   0  0  0  0  0  0  0  0  0  0  0  0
   27.3676   -4.5642   -8.1971 C   0  0  0  0  0  0  0  0  0  0  0  0
   19.6901   -5.1336  -13.9792 N   0  0  0  0  0  0  0  0  0  0  0  0
   19.9659   -5.7598  -14.6871 H   0  0  0  0  0  0  0  0  0  0  0  0
   18.4665   -5.3064  -13.4203 C   0  0  0  0  0  0  0  0  0  0  0  0
   17.7148   -6.3945  -13.5669 C   0  0  0  0  0  0  0  0  0  0  0  0
   16.6027   -6.1508  -12.8681 C   0  0  0  0  0  0  0  0  0  0  0  0
   16.7111   -4.9253  -12.3295 N   0  0  0  0  0  0  0  0  0  0  0  0
   17.8025   -4.4301  -12.6517 N   0  0  0  0  0  0  0  0  0  0  0  0
   16.0314   -4.4882  -11.7671 H   0  0  0  0  0  0  0  0  0  0  0  0
 12 11  2  0  0  0
 11 16  1  0  0  0
 12 13  1  0  0  0
 13 14  2  0  0  0
 14 15  1  0  0  0
 16 15  2  0  0  0
 16  1  1  0  0  0
  2  1  2  0  0  0
  1  3  1  0  0  0
  2 10  1  0  0  0
  3  4  2  0  0  0
  9  4  1  0  0  0
  4  5  1  0  0  0
  5  6  2  0  0  0
  7  6  1  0  0  0
  6 17  1  0  0  0
 17 18  1  0  0  0
 19 18  2  0  0  0
 18 21  1  0  0  0
 21 22  2  0  0  0
  8  7  2  0  0  0
  9  8  1  0  0  0
 10  9  2  0  0  0
 23 10  1  0  0  0
 25 23  1  0  0  0
 29 25  2  0  0  0
 26 25  1  0  0  0
 27 26  2  0  0  0
 28 27  1  0  0  0
 28 29  1  0  0  0
 17 20  1  0  0  0
 23 24  1  0  0  0
 28 30  1  0  0  0
M  END
> <minimizedAffinity>
-9.40418

$$$$
3HUC_G97_A_362


 30 33  0  0  0  0  0  0  0  0999 V2000
   22.8266    1.8300  -20.4028 C   0  0  0  0  0  0  0  0  0  0  0  0
   23.2053    0.5307  -20.3904 N   0  0  0  0  0  0  0  0  0  0  0  0
   22.2973    2.4061  -19.3051 N   0  0  0  0  0  0  0  0  0  0  0  0
   22.1479    1.7083  -18.1711 C   0  0  0  0  0  0  0  0  0  0  0  0
   21.6105    2.3414  -17.0502 C   0  0  0  0  0  0  0  0  0  0  0  0
   21.4551    1.6467  -15.8526 C   0  0  0  0  0  0  0  0  0  0  0  0
   21.8421    0.2953  -15.7952 C   0  0  0  0  0  0  0  0  0  0  0  0
   22.3787   -0.3403  -16.9242 C   0  0  0  0  0  0  0  0  0  0  0  0
   22.5369    0.3650  -18.1238 C   0  0  0  0  0  0  0  0  0  0  0  0
   23.0799   -0.2235  -19.2784 C   0  0  0  0  0  0  0  0  0  0  0  0
   22.9789    2.0027  -22.8127 C   0  0  0  0  0  0  0  0  0  0  0  0
   23.0475    2.7672  -23.9767 C   0  0  0  0  0  0  0  0  0  0  0  0
   23.0652    4.1519  -23.8605 C   0  0  0  0  0  0  0  0  0  0  0  0
   22.9988    4.7729  -22.6113 C   0  0  0  0  0  0  0  0  0  0  0  0
   22.9317    4.0036  -21.4456 C   0  0  0  0  0  0  0  0  0  0  0  0
   22.9278    2.6106  -21.5502 C   0  0  0  0  0  0  0  0  0  0  0  0
   20.9140    2.3187  -14.8162 N   0  0  0  0  0  0  0  0  0  0  0  0
   19.6639    2.7863  -14.7071 C   0  0  0  0  0  0  0  0  0  0  0  0
   18.7893    2.6514  -15.5697 O   0  0  0  0  0  0  0  0  0  0  0  0
   21.5082    2.4851  -14.0490 H   0  0  0  0  0  0  0  0  0  0  0  0
   19.3389    3.4602  -13.5273 C   0  0  0  0  0  0  0  0  0  0  0  0
   19.3425    2.8068  -12.2957 C   0  0  0  0  0  0  0  0  0  0  0  0
   23.4718   -1.5150  -19.2927 N   0  0  0  0  0  0  0  0  0  0  0  0
   23.1306   -2.1080  -18.5848 H   0  0  0  0  0  0  0  0  0  0  0  0
   24.3056   -2.0482  -20.2201 C   0  0  0  0  0  0  0  0  0  0  0  0
   24.4169   -3.3487  -20.4785 C   0  0  0  0  0  0  0  0  0  0  0  0
   25.3401   -3.4388  -21.4399 C   0  0  0  0  0  0  0  0  0  0  0  0
   25.7633   -2.1968  -21.7266 N   0  0  0  0  0  0  0  0  0  0  0  0
   25.1577   -1.3816  -21.0133 N   0  0  0  0  0  0  0  0  0  0  0  0
   26.4469   -1.9689  -22.3975 H   0  0  0  0  0  0  0  0  0  0  0  0
 12 11  2  0  0  0
 11 16  1  0  0  0
 12 13  1  0  0  0
 13 14  2  0  0  0
 14 15  1  0  0  0
 16 15  2  0  0  0
 16  1  1  0  0  0
  2  1  2  0  0  0
  1  3  1  0  0  0
  2 10  1  0  0  0
  3  4  2  0  0  0
  9  4  1  0  0  0
  4  5  1  0  0  0
  5  6  2  0  0  0
  7  6  1  0  0  0
  6 17  1  0  0  0
 17 18  1  0  0  0
 19 18  2  0  0  0
 18 21  1  0  0  0
 21 22  2  0  0  0
  8  7  2  0  0  0
  9  8  1  0  0  0
 10  9  2  0  0  0
 23 10  1  0  0  0
 25 23  1  0  0  0
 29 25  2  0  0  0
 26 25  1  0  0  0
 27 26  2  0  0  0
 28 27  1  0  0  0
 28 29  1  0  0  0
 17 20  1  0  0  0
 23 24  1  0  0  0
 28 30  1  0  0  0
M  END
> <minimizedAffinity>
-9.37664

$$$$
3HUC_G97_A_362


 30 33  0  0  0  0  0  0  0  0999 V2000
   22.3367    0.4157  -17.5306 C   0  0  0  0  0  0  0  0  0  0  0  0
   22.3941   -0.5204  -16.5547 N   0  0  0  0  0  0  0  0  0  0  0  0
   21.7182    1.5949  -17.3215 N   0  0  0  0  0  0  0  0  0  0  0  0
   21.1588    1.8731  -16.1362 C   0  0  0  0  0  0  0  0  0  0  0  0
   20.5405    3.1098  -15.9508 C   0  0  0  0  0  0  0  0  0  0  0  0
   19.9617    3.4341  -14.7258 C   0  0  0  0  0  0  0  0  0  0  0  0
   20.0048    2.4913  -13.6824 C   0  0  0  0  0  0  0  0  0  0  0  0
   20.6236    1.2472  -13.8720 C   0  0  0  0  0  0  0  0  0  0  0  0
   21.2080    0.9292  -15.1044 C   0  0  0  0  0  0  0  0  0  0  0  0
   21.8495   -0.2985  -15.3401 C   0  0  0  0  0  0  0  0  0  0  0  0
   23.4163   -1.0638  -19.1138 C   0  0  0  0  0  0  0  0  0  0  0  0
   23.9287   -1.3224  -20.3845 C   0  0  0  0  0  0  0  0  0  0  0  0
   23.8905   -0.3084  -21.3339 C   0  0  0  0  0  0  0  0  0  0  0  0
   23.3377    0.9393  -21.0365 C   0  0  0  0  0  0  0  0  0  0  0  0
   22.8261    1.1963  -19.7609 C   0  0  0  0  0  0  0  0  0  0  0  0
   22.8726    0.1886  -18.7945 C   0  0  0  0  0  0  0  0  0  0  0  0
   19.3680    4.6407  -14.6249 N   0  0  0  0  0  0  0  0  0  0  0  0
   18.0612    4.9198  -14.7122 C   0  0  0  0  0  0  0  0  0  0  0  0
   17.1765    4.0756  -14.8913 O   0  0  0  0  0  0  0  0  0  0  0  0
   19.9660    5.4070  -14.4687 H   0  0  0  0  0  0  0  0  0  0  0  0
   17.6877    6.2593  -14.5783 C   0  0  0  0  0  0  0  0  0  0  0  0
   17.4609    7.0628  -15.6948 C   0  0  0  0  0  0  0  0  0  0  0  0
   21.9274   -1.2475  -14.3835 N   0  0  0  0  0  0  0  0  0  0  0  0
   22.7161   -1.2442  -13.7943 H   0  0  0  0  0  0  0  0  0  0  0  0
   20.9885   -2.2053  -14.1819 C   0  0  0  0  0  0  0  0  0  0  0  0
   20.3560   -2.4140  -13.0301 C   0  0  0  0  0  0  0  0  0  0  0  0
   19.5329   -3.4405  -13.2614 C   0  0  0  0  0  0  0  0  0  0  0  0
   19.6977   -3.8252  -14.5376 N   0  0  0  0  0  0  0  0  0  0  0  0
   20.5494   -3.1021  -15.0778 N   0  0  0  0  0  0  0  0  0  0  0  0
   19.2180   -4.5648  -14.9758 H   0  0  0  0  0  0  0  0  0  0  0  0
 12 11  2  0  0  0
 11 16  1  0  0  0
 12 13  1  0  0  0
 13 14  2  0  0  0
 14 15  1  0  0  0
 16 15  2  0  0  0
 16  1  1  0  0  0
  2  1  2  0  0  0
  1  3  1  0  0  0
  2 10  1  0  0  0
  3  4  2  0  0  0
  9  4  1  0  0  0
  4  5  1  0  0  0
  5  6  2  0  0  0
  7  6  1  0  0  0
  6 17  1  0  0  0
 17 18  1  0  0  0
 19 18  2  0  0  0
 18 21  1  0  0  0
 21 22  2  0  0  0
  8  7  2  0  0  0
  9  8  1  0  0  0
 10  9  2  0  0  0
 23 10  1  0  0  0
 25 23  1  0  0  0
 29 25  2  0  0  0
 26 25  1  0  0  0
 27 26  2  0  0  0
 28 27  1  0  0  0
 28 29  1  0  0  0
 17 20  1  0  0  0
 23 24  1  0  0  0
 28 30  1  0  0  0
M  END
> <minimizedAffinity>
-9.12886

$$$$
3HUC_G97_A_362


 30 33  0  0  0  0  0  0  0  0999 V2000
   21.6207    0.2315  -15.5395 C   0  0  0  0  0  0  0  0  0  0  0  0
   20.7253    0.9527  -14.8254 N   0  0  0  0  0  0  0  0  0  0  0  0
   22.1808   -0.8808  -15.0237 N   0  0  0  0  0  0  0  0  0  0  0  0
   21.8518   -1.3062  -13.7965 C   0  0  0  0  0  0  0  0  0  0  0  0
   22.4402   -2.4700  -13.3010 C   0  0  0  0  0  0  0  0  0  0  0  0
   22.1087   -2.9454  -12.0341 C   0  0  0  0  0  0  0  0  0  0  0  0
   21.1771   -2.2286  -11.2610 C   0  0  0  0  0  0  0  0  0  0  0  0
   20.5896   -1.0569  -11.7595 C   0  0  0  0  0  0  0  0  0  0  0  0
   20.9234   -0.5868  -13.0359 C   0  0  0  0  0  0  0  0  0  0  0  0
   20.3539    0.5748  -13.5843 C   0  0  0  0  0  0  0  0  0  0  0  0
   21.9127    1.9654  -17.2035 C   0  0  0  0  0  0  0  0  0  0  0  0
   22.3468    2.3866  -18.4598 C   0  0  0  0  0  0  0  0  0  0  0  0
   22.9006    1.4460  -19.3198 C   0  0  0  0  0  0  0  0  0  0  0  0
   23.0391    0.1101  -18.9367 C   0  0  0  0  0  0  0  0  0  0  0  0
   22.6014   -0.3098  -17.6769 C   0  0  0  0  0  0  0  0  0  0  0  0
   22.0300    0.6248  -16.8099 C   0  0  0  0  0  0  0  0  0  0  0  0
   22.7292   -4.0670  -11.6150 N   0  0  0  0  0  0  0  0  0  0  0  0
   23.7484   -4.1647  -10.7520 C   0  0  0  0  0  0  0  0  0  0  0  0
   24.2777   -3.2035  -10.1835 O   0  0  0  0  0  0  0  0  0  0  0  0
   22.3932   -4.9140  -11.9876 H   0  0  0  0  0  0  0  0  0  0  0  0
   24.2269   -5.4482  -10.4773 C   0  0  0  0  0  0  0  0  0  0  0  0
   25.5803   -5.7585  -10.6022 C   0  0  0  0  0  0  0  0  0  0  0  0
   19.4539    1.3096  -12.8974 N   0  0  0  0  0  0  0  0  0  0  0  0
   19.7823    1.8587  -12.1491 H   0  0  0  0  0  0  0  0  0  0  0  0
   18.1261    1.3400  -13.1721 C   0  0  0  0  0  0  0  0  0  0  0  0
   17.2353    0.4735  -12.6967 C   0  0  0  0  0  0  0  0  0  0  0  0
   16.0634    0.8549  -13.2122 C   0  0  0  0  0  0  0  0  0  0  0  0
   16.2810    1.9303  -13.9868 N   0  0  0  0  0  0  0  0  0  0  0  0
   17.4885    2.2157  -13.9636 N   0  0  0  0  0  0  0  0  0  0  0  0
   15.5907    2.4160  -14.4936 H   0  0  0  0  0  0  0  0  0  0  0  0
 12 11  2  0  0  0
 11 16  1  0  0  0
 12 13  1  0  0  0
 13 14  2  0  0  0
 14 15  1  0  0  0
 16 15  2  0  0  0
 16  1  1  0  0  0
  2  1  2  0  0  0
  1  3  1  0  0  0
  2 10  1  0  0  0
  3  4  2  0  0  0
  9  4  1  0  0  0
  4  5  1  0  0  0
  5  6  2  0  0  0
  7  6  1  0  0  0
  6 17  1  0  0  0
 17 18  1  0  0  0
 19 18  2  0  0  0
 18 21  1  0  0  0
 21 22  2  0  0  0
  8  7  2  0  0  0
  9  8  1  0  0  0
 10  9  2  0  0  0
 23 10  1  0  0  0
 25 23  1  0  0  0
 29 25  2  0  0  0
 26 25  1  0  0  0
 27 26  2  0  0  0
 28 27  1  0  0  0
 28 29  1  0  0  0
 17 20  1  0  0  0
 23 24  1  0  0  0
 28 30  1  0  0  0
M  END
> <minimizedAffinity>
-8.97494

$$$$
