5FL5_82E_A_266


 24 26  0  0  0  0  0  0  0  0999 V2000
  -30.5236   -0.7309   -1.5835 C   0  0  0  0  0  0  0  0  0  0  0  0
  -31.7657   -0.4111   -2.0096 N   0  0  0  0  0  0  0  0  0  0  0  0
  -31.9018    0.9594   -1.7900 N   0  0  0  0  0  0  0  0  0  0  0  0
  -30.6838    1.3377   -1.2292 N   0  0  0  0  0  0  0  0  0  0  0  0
  -29.8263    0.3175   -1.0408 C   0  0  0  0  0  0  0  0  0  0  0  0
  -30.5098    2.6198   -0.8570 C   0  0  0  0  0  0  0  0  0  0  0  0
  -29.2620    3.0965   -0.4473 C   0  0  0  0  0  0  0  0  0  0  0  0
  -29.0480    4.3960   -0.0188 C   0  0  0  0  0  0  0  0  0  0  0  0
  -30.0996    5.3056    0.0369 C   0  0  0  0  0  0  0  0  0  0  0  0
  -31.3685    4.8743   -0.3631 C   0  0  0  0  0  0  0  0  0  0  0  0
  -31.5592    3.5553   -0.7901 C   0  0  0  0  0  0  0  0  0  0  0  0
  -29.9105    6.6093    0.4470 O   0  0  0  0  0  0  0  0  0  0  0  0
  -28.6195    7.2564    0.4391 C   0  0  0  0  0  0  0  0  0  0  0  0
  -28.6703   -4.1426   -1.7509 C   0  0  0  0  0  0  0  0  0  0  0  0
  -30.0368   -4.4736   -1.6532 C   0  0  0  0  0  0  0  0  0  0  0  0
  -30.8532   -3.3234   -1.5659 C   0  0  0  0  0  0  0  0  0  0  0  0
  -30.0791   -2.1558   -1.6016 C   0  0  0  0  0  0  0  0  0  0  0  0
  -28.3973   -2.4545   -1.7204 S   0  0  0  0  0  0  0  0  0  0  0  0
  -26.0273   -4.4491   -1.8630 N   0  0  0  0  0  0  0  0  0  0  0  0
  -27.4205   -5.2243   -1.9320 S   0  0  0  0  0  0  0  0  0  0  0  0
  -27.5674   -6.0211   -3.1116 O   0  0  0  0  0  0  0  0  0  0  0  0
  -27.5170   -6.0720   -0.7587 O   0  0  0  0  0  0  0  0  0  0  0  0
  -25.9848   -3.9022   -1.0031 H   0  0  0  0  0  0  0  0  0  0  0  0
  -25.9446   -3.8263   -2.6665 H   0  0  0  0  0  0  0  0  0  0  0  0
 13 12  1  0  0  0
 12  9  1  0  0  0
  9  8  2  0  0  0
  9 10  1  0  0  0
  8  7  1  0  0  0
 10 11  2  0  0  0
  7  6  2  0  0  0
 11  6  1  0  0  0
  6  4  1  0  0  0
  4  5  1  0  0  0
  4  3  1  0  0  0
  5  1  2  0  0  0
  3  2  2  0  0  0
  1  2  1  0  0  0
  1 17  1  0  0  0
 17 16  2  0  0  0
 17 18  1  0  0  0
 16 15  1  0  0  0
 18 14  1  0  0  0
 22 20  2  0  0  0
 15 14  2  0  0  0
 14 20  1  0  0  0
 20 21  2  0  0  0
 20 19  1  0  0  0
 19 23  1  0  0  0
 19 24  1  0  0  0
M  END
> <minimizedAffinity>
-7.22006

$$$$
5FL5_82E_A_266


 24 26  0  0  0  0  0  0  0  0999 V2000
  -30.1997   -0.1385   -1.2964 C   0  0  0  0  0  0  0  0  0  0  0  0
  -31.5502   -0.1405   -1.2447 N   0  0  0  0  0  0  0  0  0  0  0  0
  -31.9248    1.1869   -1.0382 N   0  0  0  0  0  0  0  0  0  0  0  0
  -30.7160    1.8774   -0.9799 N   0  0  0  0  0  0  0  0  0  0  0  0
  -29.6292    1.0904   -1.0860 C   0  0  0  0  0  0  0  0  0  0  0  0
  -30.7352    3.2025   -0.7430 C   0  0  0  0  0  0  0  0  0  0  0  0
  -29.5730    3.8980   -0.3995 C   0  0  0  0  0  0  0  0  0  0  0  0
  -29.5554    5.2520   -0.1088 C   0  0  0  0  0  0  0  0  0  0  0  0
  -30.7304    5.9970   -0.1335 C   0  0  0  0  0  0  0  0  0  0  0  0
  -31.9201    5.3441   -0.4716 C   0  0  0  0  0  0  0  0  0  0  0  0
  -31.9118    3.9745   -0.7592 C   0  0  0  0  0  0  0  0  0  0  0  0
  -30.7378    7.3496    0.1388 O   0  0  0  0  0  0  0  0  0  0  0  0
  -30.1990    8.3368   -0.7670 C   0  0  0  0  0  0  0  0  0  0  0  0
  -28.8144   -3.7668   -1.1579 C   0  0  0  0  0  0  0  0  0  0  0  0
  -27.8736   -3.0454   -1.9200 C   0  0  0  0  0  0  0  0  0  0  0  0
  -28.2486   -1.6920   -2.0774 C   0  0  0  0  0  0  0  0  0  0  0  0
  -29.4622   -1.4297   -1.4277 C   0  0  0  0  0  0  0  0  0  0  0  0
  -30.1371   -2.8034   -0.6602 S   0  0  0  0  0  0  0  0  0  0  0  0
  -28.9672   -5.5089    0.8504 N   0  0  0  0  0  0  0  0  0  0  0  0
  -28.6833   -5.3635   -0.7132 S   0  0  0  0  0  0  0  0  0  0  0  0
  -27.4337   -5.9320   -1.1172 O   0  0  0  0  0  0  0  0  0  0  0  0
  -29.7659   -6.0164   -1.4249 O   0  0  0  0  0  0  0  0  0  0  0  0
  -29.8683   -5.0862    1.0732 H   0  0  0  0  0  0  0  0  0  0  0  0
  -28.2310   -5.0364    1.3750 H   0  0  0  0  0  0  0  0  0  0  0  0
 13 12  1  0  0  0
 12  9  1  0  0  0
  9  8  2  0  0  0
  9 10  1  0  0  0
  8  7  1  0  0  0
 10 11  2  0  0  0
  7  6  2  0  0  0
 11  6  1  0  0  0
  6  4  1  0  0  0
  4  5  1  0  0  0
  4  3  1  0  0  0
  5  1  2  0  0  0
  3  2  2  0  0  0
  1  2  1  0  0  0
  1 17  1  0  0  0
 17 16  2  0  0  0
 17 18  1  0  0  0
 16 15  1  0  0  0
 18 14  1  0  0  0
 22 20  2  0  0  0
 15 14  2  0  0  0
 14 20  1  0  0  0
 20 21  2  0  0  0
 20 19  1  0  0  0
 19 23  1  0  0  0
 19 24  1  0  0  0
M  END
> <minimizedAffinity>
-7.03056

$$$$
5FL5_82E_A_266


 24 26  0  0  0  0  0  0  0  0999 V2000
  -30.5843   -0.2230   -0.9666 C   0  0  0  0  0  0  0  0  0  0  0  0
  -30.1896    0.7080   -0.0699 N   0  0  0  0  0  0  0  0  0  0  0  0
  -31.1162    1.7457   -0.1663 N   0  0  0  0  0  0  0  0  0  0  0  0
  -32.0047    1.3193   -1.1512 N   0  0  0  0  0  0  0  0  0  0  0  0
  -31.6844    0.1340   -1.7028 C   0  0  0  0  0  0  0  0  0  0  0  0
  -33.0129    2.1345   -1.5143 C   0  0  0  0  0  0  0  0  0  0  0  0
  -34.0061    1.7137   -2.4023 C   0  0  0  0  0  0  0  0  0  0  0  0
  -35.0372    2.5320   -2.8327 C   0  0  0  0  0  0  0  0  0  0  0  0
  -35.1233    3.8509   -2.3975 C   0  0  0  0  0  0  0  0  0  0  0  0
  -34.1509    4.3182   -1.5075 C   0  0  0  0  0  0  0  0  0  0  0  0
  -33.1177    3.4720   -1.0891 C   0  0  0  0  0  0  0  0  0  0  0  0
  -36.1478    4.6826   -2.8004 O   0  0  0  0  0  0  0  0  0  0  0  0
  -36.5961    5.8123   -2.0207 C   0  0  0  0  0  0  0  0  0  0  0  0
  -28.9258   -3.7365   -1.0503 C   0  0  0  0  0  0  0  0  0  0  0  0
  -28.0546   -2.9038   -1.7812 C   0  0  0  0  0  0  0  0  0  0  0  0
  -28.5337   -1.5765   -1.8571 C   0  0  0  0  0  0  0  0  0  0  0  0
  -29.7532   -1.4446   -1.1795 C   0  0  0  0  0  0  0  0  0  0  0  0
  -30.3096   -2.9066   -0.4834 S   0  0  0  0  0  0  0  0  0  0  0  0
  -28.8940   -5.5904    0.8612 N   0  0  0  0  0  0  0  0  0  0  0  0
  -28.6668   -5.3408   -0.6985 S   0  0  0  0  0  0  0  0  0  0  0  0
  -27.3916   -5.7931   -1.1645 O   0  0  0  0  0  0  0  0  0  0  0  0
  -29.7195   -6.0326   -1.4181 O   0  0  0  0  0  0  0  0  0  0  0  0
  -29.8165   -5.2478    1.1295 H   0  0  0  0  0  0  0  0  0  0  0  0
  -28.1790   -5.0936    1.3927 H   0  0  0  0  0  0  0  0  0  0  0  0
 13 12  1  0  0  0
 12  9  1  0  0  0
  9  8  2  0  0  0
  9 10  1  0  0  0
  8  7  1  0  0  0
 10 11  2  0  0  0
  7  6  2  0  0  0
 11  6  1  0  0  0
  6  4  1  0  0  0
  4  5  1  0  0  0
  4  3  1  0  0  0
  5  1  2  0  0  0
  3  2  2  0  0  0
  1  2  1  0  0  0
  1 17  1  0  0  0
 17 16  2  0  0  0
 17 18  1  0  0  0
 16 15  1  0  0  0
 18 14  1  0  0  0
 22 20  2  0  0  0
 15 14  2  0  0  0
 14 20  1  0  0  0
 20 21  2  0  0  0
 20 19  1  0  0  0
 19 23  1  0  0  0
 19 24  1  0  0  0
M  END
> <minimizedAffinity>
-6.84043

$$$$
5FL5_82E_A_266


 24 26  0  0  0  0  0  0  0  0999 V2000
  -30.0382   -0.5153   -1.2255 C   0  0  0  0  0  0  0  0  0  0  0  0
  -29.0228    0.3730   -1.1449 N   0  0  0  0  0  0  0  0  0  0  0  0
  -29.6221    1.6305   -1.0796 N   0  0  0  0  0  0  0  0  0  0  0  0
  -30.9880    1.3608   -1.1341 N   0  0  0  0  0  0  0  0  0  0  0  0
  -31.2840    0.0552   -1.2731 C   0  0  0  0  0  0  0  0  0  0  0  0
  -31.8545    2.3912   -1.1336 C   0  0  0  0  0  0  0  0  0  0  0  0
  -31.4635    3.6716   -0.7338 C   0  0  0  0  0  0  0  0  0  0  0  0
  -32.3317    4.7493   -0.6801 C   0  0  0  0  0  0  0  0  0  0  0  0
  -33.6726    4.5961   -1.0186 C   0  0  0  0  0  0  0  0  0  0  0  0
  -34.1115    3.3319   -1.4250 C   0  0  0  0  0  0  0  0  0  0  0  0
  -33.2149    2.2583   -1.4689 C   0  0  0  0  0  0  0  0  0  0  0  0
  -34.5549    5.6564   -0.9866 O   0  0  0  0  0  0  0  0  0  0  0  0
  -35.8472    5.6235   -1.6301 C   0  0  0  0  0  0  0  0  0  0  0  0
  -28.5294   -4.0649   -1.7021 C   0  0  0  0  0  0  0  0  0  0  0  0
  -29.9258   -4.2545   -1.7309 C   0  0  0  0  0  0  0  0  0  0  0  0
  -30.6267   -3.0407   -1.5514 C   0  0  0  0  0  0  0  0  0  0  0  0
  -29.7389   -1.9681   -1.3935 C   0  0  0  0  0  0  0  0  0  0  0  0
  -28.0914   -2.4318   -1.4447 S   0  0  0  0  0  0  0  0  0  0  0  0
  -25.9282   -4.5953   -1.9121 N   0  0  0  0  0  0  0  0  0  0  0  0
  -27.3846   -5.2471   -1.9390 S   0  0  0  0  0  0  0  0  0  0  0  0
  -27.6407   -6.0126   -3.1208 O   0  0  0  0  0  0  0  0  0  0  0  0
  -27.5128   -6.0992   -0.7719 O   0  0  0  0  0  0  0  0  0  0  0  0
  -25.8087   -4.0656   -1.0487 H   0  0  0  0  0  0  0  0  0  0  0  0
  -25.8203   -3.9712   -2.7116 H   0  0  0  0  0  0  0  0  0  0  0  0
 13 12  1  0  0  0
 12  9  1  0  0  0
  9  8  2  0  0  0
  9 10  1  0  0  0
  8  7  1  0  0  0
 10 11  2  0  0  0
  7  6  2  0  0  0
 11  6  1  0  0  0
  6  4  1  0  0  0
  4  5  1  0  0  0
  4  3  1  0  0  0
  5  1  2  0  0  0
  3  2  2  0  0  0
  1  2  1  0  0  0
  1 17  1  0  0  0
 17 16  2  0  0  0
 17 18  1  0  0  0
 16 15  1  0  0  0
 18 14  1  0  0  0
 22 20  2  0  0  0
 15 14  2  0  0  0
 14 20  1  0  0  0
 20 21  2  0  0  0
 20 19  1  0  0  0
 19 23  1  0  0  0
 19 24  1  0  0  0
M  END
> <minimizedAffinity>
-6.80192

$$$$
5FL5_82E_A_266


 24 26  0  0  0  0  0  0  0  0999 V2000
  -30.9824   -0.3748   -1.5158 C   0  0  0  0  0  0  0  0  0  0  0  0
  -32.2937   -0.6233   -1.7283 N   0  0  0  0  0  0  0  0  0  0  0  0
  -32.9405    0.6045   -1.5907 N   0  0  0  0  0  0  0  0  0  0  0  0
  -31.9145    1.4992   -1.2938 N   0  0  0  0  0  0  0  0  0  0  0  0
  -30.7006    0.9270   -1.1908 C   0  0  0  0  0  0  0  0  0  0  0  0
  -32.2241    2.7879   -1.0571 C   0  0  0  0  0  0  0  0  0  0  0  0
  -33.4934    3.2966   -1.3438 C   0  0  0  0  0  0  0  0  0  0  0  0
  -33.8412    4.6236   -1.1533 C   0  0  0  0  0  0  0  0  0  0  0  0
  -32.9107    5.5369   -0.6672 C   0  0  0  0  0  0  0  0  0  0  0  0
  -31.6256    5.0744   -0.3660 C   0  0  0  0  0  0  0  0  0  0  0  0
  -31.2984    3.7290   -0.5692 C   0  0  0  0  0  0  0  0  0  0  0  0
  -33.2357    6.8611   -0.4558 O   0  0  0  0  0  0  0  0  0  0  0  0
  -34.5965    7.3245   -0.3194 C   0  0  0  0  0  0  0  0  0  0  0  0
  -29.0185   -3.7117   -1.1818 C   0  0  0  0  0  0  0  0  0  0  0  0
  -28.0724   -2.7758   -1.6461 C   0  0  0  0  0  0  0  0  0  0  0  0
  -28.6443   -1.4977   -1.8364 C   0  0  0  0  0  0  0  0  0  0  0  0
  -30.0068   -1.5046   -1.5087 C   0  0  0  0  0  0  0  0  0  0  0  0
  -30.5789   -3.0358   -0.9990 S   0  0  0  0  0  0  0  0  0  0  0  0
  -28.9263   -5.5118    0.7784 N   0  0  0  0  0  0  0  0  0  0  0  0
  -28.7033   -5.2957   -0.7869 S   0  0  0  0  0  0  0  0  0  0  0  0
  -27.4111   -5.7140   -1.2379 O   0  0  0  0  0  0  0  0  0  0  0  0
  -29.7282   -6.0437   -1.4902 O   0  0  0  0  0  0  0  0  0  0  0  0
  -29.8614   -5.1957    1.0355 H   0  0  0  0  0  0  0  0  0  0  0  0
  -28.2314   -4.9758    1.2981 H   0  0  0  0  0  0  0  0  0  0  0  0
 13 12  1  0  0  0
 12  9  1  0  0  0
  9  8  2  0  0  0
  9 10  1  0  0  0
  8  7  1  0  0  0
 10 11  2  0  0  0
  7  6  2  0  0  0
 11  6  1  0  0  0
  6  4  1  0  0  0
  4  5  1  0  0  0
  4  3  1  0  0  0
  5  1  2  0  0  0
  3  2  2  0  0  0
  1  2  1  0  0  0
  1 17  1  0  0  0
 17 16  2  0  0  0
 17 18  1  0  0  0
 16 15  1  0  0  0
 18 14  1  0  0  0
 22 20  2  0  0  0
 15 14  2  0  0  0
 14 20  1  0  0  0
 20 21  2  0  0  0
 20 19  1  0  0  0
 19 23  1  0  0  0
 19 24  1  0  0  0
M  END
> <minimizedAffinity>
-6.72555

$$$$
5FL5_82E_A_266


 24 26  0  0  0  0  0  0  0  0999 V2000
  -32.9133    0.1837   -1.6284 C   0  0  0  0  0  0  0  0  0  0  0  0
  -33.6188   -0.7787   -0.9938 N   0  0  0  0  0  0  0  0  0  0  0  0
  -32.7535   -1.8654   -0.8703 N   0  0  0  0  0  0  0  0  0  0  0  0
  -31.5729   -1.4314   -1.4696 N   0  0  0  0  0  0  0  0  0  0  0  0
  -31.6460   -0.1930   -1.9918 C   0  0  0  0  0  0  0  0  0  0  0  0
  -30.5339   -2.2837   -1.5511 C   0  0  0  0  0  0  0  0  0  0  0  0
  -29.2161   -1.8226   -1.6060 C   0  0  0  0  0  0  0  0  0  0  0  0
  -28.1217   -2.6621   -1.7304 C   0  0  0  0  0  0  0  0  0  0  0  0
  -28.2928   -4.0399   -1.8227 C   0  0  0  0  0  0  0  0  0  0  0  0
  -29.5945   -4.5491   -1.7728 C   0  0  0  0  0  0  0  0  0  0  0  0
  -30.6840   -3.6796   -1.6488 C   0  0  0  0  0  0  0  0  0  0  0  0
  -27.2187   -4.8988   -1.9336 O   0  0  0  0  0  0  0  0  0  0  0  0
  -25.8567   -4.4401   -2.0740 C   0  0  0  0  0  0  0  0  0  0  0  0
  -34.2245    3.8214   -2.0160 C   0  0  0  0  0  0  0  0  0  0  0  0
  -34.9890    3.0591   -2.9220 C   0  0  0  0  0  0  0  0  0  0  0  0
  -34.6149    1.6964   -2.9115 C   0  0  0  0  0  0  0  0  0  0  0  0
  -33.5788    1.4683   -1.9960 C   0  0  0  0  0  0  0  0  0  0  0  0
  -33.0623    2.8836   -1.1824 S   0  0  0  0  0  0  0  0  0  0  0  0
  -33.0725    6.0363   -1.0892 N   0  0  0  0  0  0  0  0  0  0  0  0
  -34.4190    5.4437   -1.7075 S   0  0  0  0  0  0  0  0  0  0  0  0
  -35.5736    5.7020   -0.9024 O   0  0  0  0  0  0  0  0  0  0  0  0
  -34.6022    6.0315   -3.0211 O   0  0  0  0  0  0  0  0  0  0  0  0
  -32.2904    5.8197   -1.7071 H   0  0  0  0  0  0  0  0  0  0  0  0
  -32.9071    5.6200   -0.1728 H   0  0  0  0  0  0  0  0  0  0  0  0
 13 12  1  0  0  0
 12  9  1  0  0  0
  9  8  2  0  0  0
  9 10  1  0  0  0
  8  7  1  0  0  0
 10 11  2  0  0  0
  7  6  2  0  0  0
 11  6  1  0  0  0
  6  4  1  0  0  0
  4  5  1  0  0  0
  4  3  1  0  0  0
  5  1  2  0  0  0
  3  2  2  0  0  0
  1  2  1  0  0  0
  1 17  1  0  0  0
 17 16  2  0  0  0
 17 18  1  0  0  0
 16 15  1  0  0  0
 18 14  1  0  0  0
 22 20  2  0  0  0
 15 14  2  0  0  0
 14 20  1  0  0  0
 20 21  2  0  0  0
 20 19  1  0  0  0
 19 23  1  0  0  0
 19 24  1  0  0  0
M  END
> <minimizedAffinity>
-6.21836

$$$$
5FL5_82E_A_266


 24 26  0  0  0  0  0  0  0  0999 V2000
  -31.1608    1.4309   -1.1427 C   0  0  0  0  0  0  0  0  0  0  0  0
  -32.2131    0.9635   -1.8503 N   0  0  0  0  0  0  0  0  0  0  0  0
  -31.9328   -0.3783   -2.1070 N   0  0  0  0  0  0  0  0  0  0  0  0
  -30.6919   -0.5881   -1.5092 N   0  0  0  0  0  0  0  0  0  0  0  0
  -30.1608    0.5135   -0.9469 C   0  0  0  0  0  0  0  0  0  0  0  0
  -30.1143   -1.7993   -1.6182 C   0  0  0  0  0  0  0  0  0  0  0  0
  -30.8755   -2.9709   -1.6291 C   0  0  0  0  0  0  0  0  0  0  0  0
  -30.3199   -4.2376   -1.6991 C   0  0  0  0  0  0  0  0  0  0  0  0
  -28.9393   -4.4037   -1.7492 C   0  0  0  0  0  0  0  0  0  0  0  0
  -28.1351   -3.2594   -1.7402 C   0  0  0  0  0  0  0  0  0  0  0  0
  -28.7208   -1.9905   -1.6668 C   0  0  0  0  0  0  0  0  0  0  0  0
  -28.3613   -5.6537   -1.8329 O   0  0  0  0  0  0  0  0  0  0  0  0
  -26.9486   -5.8532   -2.0564 C   0  0  0  0  0  0  0  0  0  0  0  0
  -30.2669    5.0489   -0.0409 C   0  0  0  0  0  0  0  0  0  0  0  0
  -31.6649    5.0564   -0.2201 C   0  0  0  0  0  0  0  0  0  0  0  0
  -32.1492    3.7981   -0.6434 C   0  0  0  0  0  0  0  0  0  0  0  0
  -31.1023    2.8753   -0.7703 C   0  0  0  0  0  0  0  0  0  0  0  0
  -29.5647    3.5313   -0.4001 S   0  0  0  0  0  0  0  0  0  0  0  0
  -29.1517    7.3844   -0.6680 N   0  0  0  0  0  0  0  0  0  0  0  0
  -29.3522    6.3243    0.5078 S   0  0  0  0  0  0  0  0  0  0  0  0
  -28.1212    5.8887    1.0936 O   0  0  0  0  0  0  0  0  0  0  0  0
  -30.1827    6.9399    1.5256 O   0  0  0  0  0  0  0  0  0  0  0  0
  -30.0618    7.6537   -1.0418 H   0  0  0  0  0  0  0  0  0  0  0  0
  -28.5894    6.9672   -1.4098 H   0  0  0  0  0  0  0  0  0  0  0  0
 13 12  1  0  0  0
 12  9  1  0  0  0
  9  8  2  0  0  0
  9 10  1  0  0  0
  8  7  1  0  0  0
 10 11  2  0  0  0
  7  6  2  0  0  0
 11  6  1  0  0  0
  6  4  1  0  0  0
  4  5  1  0  0  0
  4  3  1  0  0  0
  5  1  2  0  0  0
  3  2  2  0  0  0
  1  2  1  0  0  0
  1 17  1  0  0  0
 17 16  2  0  0  0
 17 18  1  0  0  0
 16 15  1  0  0  0
 18 14  1  0  0  0
 22 20  2  0  0  0
 15 14  2  0  0  0
 14 20  1  0  0  0
 20 21  2  0  0  0
 20 19  1  0  0  0
 19 23  1  0  0  0
 19 24  1  0  0  0
M  END
> <minimizedAffinity>
-6.20881

$$$$
5FL5_82E_A_266


 24 26  0  0  0  0  0  0  0  0999 V2000
  -31.5931   -0.7416   -0.6557 C   0  0  0  0  0  0  0  0  0  0  0  0
  -32.8557   -1.0089   -1.0572 N   0  0  0  0  0  0  0  0  0  0  0  0
  -33.4480    0.2302   -1.2994 N   0  0  0  0  0  0  0  0  0  0  0  0
  -32.4453    1.1513   -1.0036 N   0  0  0  0  0  0  0  0  0  0  0  0
  -31.3037    0.5950   -0.5575 C   0  0  0  0  0  0  0  0  0  0  0  0
  -32.7212    2.4656   -1.0994 C   0  0  0  0  0  0  0  0  0  0  0  0
  -31.8571    3.4312   -0.5768 C   0  0  0  0  0  0  0  0  0  0  0  0
  -32.1215    4.7900   -0.6181 C   0  0  0  0  0  0  0  0  0  0  0  0
  -33.2997    5.2653   -1.1859 C   0  0  0  0  0  0  0  0  0  0  0  0
  -34.1968    4.3360   -1.7223 C   0  0  0  0  0  0  0  0  0  0  0  0
  -33.9073    2.9679   -1.6662 C   0  0  0  0  0  0  0  0  0  0  0  0
  -33.5807    6.6145   -1.2518 O   0  0  0  0  0  0  0  0  0  0  0  0
  -32.6219    7.5962   -1.7015 C   0  0  0  0  0  0  0  0  0  0  0  0
  -29.3809   -3.9128   -0.2653 C   0  0  0  0  0  0  0  0  0  0  0  0
  -29.4084   -3.3265    1.0161 C   0  0  0  0  0  0  0  0  0  0  0  0
  -30.1709   -2.1368    1.0356 C   0  0  0  0  0  0  0  0  0  0  0  0
  -30.6989   -1.8594   -0.2325 C   0  0  0  0  0  0  0  0  0  0  0  0
  -30.2612   -3.0109   -1.4216 S   0  0  0  0  0  0  0  0  0  0  0  0
  -28.5088   -6.2593    0.6427 N   0  0  0  0  0  0  0  0  0  0  0  0
  -28.6386   -5.3472   -0.6603 S   0  0  0  0  0  0  0  0  0  0  0  0
  -27.3924   -5.1391   -1.3324 O   0  0  0  0  0  0  0  0  0  0  0  0
  -29.5750   -5.9904   -1.5626 O   0  0  0  0  0  0  0  0  0  0  0  0
  -29.4266   -6.3691    1.0738 H   0  0  0  0  0  0  0  0  0  0  0  0
  -27.8725   -5.8165    1.3057 H   0  0  0  0  0  0  0  0  0  0  0  0
 13 12  1  0  0  0
 12  9  1  0  0  0
  9  8  2  0  0  0
  9 10  1  0  0  0
  8  7  1  0  0  0
 10 11  2  0  0  0
  7  6  2  0  0  0
 11  6  1  0  0  0
  6  4  1  0  0  0
  4  5  1  0  0  0
  4  3  1  0  0  0
  5  1  2  0  0  0
  3  2  2  0  0  0
  1  2  1  0  0  0
  1 17  1  0  0  0
 17 16  2  0  0  0
 17 18  1  0  0  0
 16 15  1  0  0  0
 18 14  1  0  0  0
 22 20  2  0  0  0
 15 14  2  0  0  0
 14 20  1  0  0  0
 20 21  2  0  0  0
 20 19  1  0  0  0
 19 23  1  0  0  0
 19 24  1  0  0  0
M  END
> <minimizedAffinity>
-6.15327

$$$$
5FL5_82E_A_266


 24 26  0  0  0  0  0  0  0  0999 V2000
  -30.8474   -0.7812    1.2574 C   0  0  0  0  0  0  0  0  0  0  0  0
  -30.4418    0.0713    2.2245 N   0  0  0  0  0  0  0  0  0  0  0  0
  -31.1391    1.2584    2.0019 N   0  0  0  0  0  0  0  0  0  0  0  0
  -31.9189    0.9905    0.8788 N   0  0  0  0  0  0  0  0  0  0  0  0
  -31.7320   -0.2381    0.3617 C   0  0  0  0  0  0  0  0  0  0  0  0
  -32.6922    1.9709    0.3755 C   0  0  0  0  0  0  0  0  0  0  0  0
  -33.4881    2.7678    1.2022 C   0  0  0  0  0  0  0  0  0  0  0  0
  -34.3276    3.7595    0.7227 C   0  0  0  0  0  0  0  0  0  0  0  0
  -34.4279    4.0029   -0.6437 C   0  0  0  0  0  0  0  0  0  0  0  0
  -33.6502    3.2298   -1.5117 C   0  0  0  0  0  0  0  0  0  0  0  0
  -32.8112    2.2322   -1.0023 C   0  0  0  0  0  0  0  0  0  0  0  0
  -35.2462    4.9937   -1.1461 O   0  0  0  0  0  0  0  0  0  0  0  0
  -35.0074    5.6429   -2.4137 C   0  0  0  0  0  0  0  0  0  0  0  0
  -29.2704   -4.1832    0.2366 C   0  0  0  0  0  0  0  0  0  0  0  0
  -29.4074   -4.2499    1.6377 C   0  0  0  0  0  0  0  0  0  0  0  0
  -29.9600   -3.0634    2.1707 C   0  0  0  0  0  0  0  0  0  0  0  0
  -30.2259   -2.1346    1.1557 C   0  0  0  0  0  0  0  0  0  0  0  0
  -29.7960   -2.6881   -0.4065 S   0  0  0  0  0  0  0  0  0  0  0  0
  -27.4431   -4.9033   -1.5618 N   0  0  0  0  0  0  0  0  0  0  0  0
  -28.7172   -5.4071   -0.7435 S   0  0  0  0  0  0  0  0  0  0  0  0
  -29.7529   -5.9363   -1.5774 O   0  0  0  0  0  0  0  0  0  0  0  0
  -28.2738   -6.4285    0.1864 O   0  0  0  0  0  0  0  0  0  0  0  0
  -26.7447   -4.5396   -0.9135 H   0  0  0  0  0  0  0  0  0  0  0  0
  -27.7239   -4.1657   -2.2080 H   0  0  0  0  0  0  0  0  0  0  0  0
 13 12  1  0  0  0
 12  9  1  0  0  0
  9  8  2  0  0  0
  9 10  1  0  0  0
  8  7  1  0  0  0
 10 11  2  0  0  0
  7  6  2  0  0  0
 11  6  1  0  0  0
  6  4  1  0  0  0
  4  5  1  0  0  0
  4  3  1  0  0  0
  5  1  2  0  0  0
  3  2  2  0  0  0
  1  2  1  0  0  0
  1 17  1  0  0  0
 17 16  2  0  0  0
 17 18  1  0  0  0
 16 15  1  0  0  0
 18 14  1  0  0  0
 22 20  2  0  0  0
 15 14  2  0  0  0
 14 20  1  0  0  0
 20 21  2  0  0  0
 20 19  1  0  0  0
 19 23  1  0  0  0
 19 24  1  0  0  0
M  END
> <minimizedAffinity>
-6.14809

$$$$
5FL5_82E_A_266


 24 26  0  0  0  0  0  0  0  0999 V2000
  -31.5486   -0.5849   -0.6052 C   0  0  0  0  0  0  0  0  0  0  0  0
  -30.9324    0.6180   -0.6116 N   0  0  0  0  0  0  0  0  0  0  0  0
  -31.8749    1.5254   -1.0946 N   0  0  0  0  0  0  0  0  0  0  0  0
  -33.0028    0.7460   -1.3431 N   0  0  0  0  0  0  0  0  0  0  0  0
  -32.8269   -0.5662   -1.1005 C   0  0  0  0  0  0  0  0  0  0  0  0
  -34.0957    1.3326   -1.8667 C   0  0  0  0  0  0  0  0  0  0  0  0
  -35.2121    0.5839   -2.2478 C   0  0  0  0  0  0  0  0  0  0  0  0
  -36.3399    1.1419   -2.8265 C   0  0  0  0  0  0  0  0  0  0  0  0
  -36.4062    2.5098   -3.0733 C   0  0  0  0  0  0  0  0  0  0  0  0
  -35.3119    3.3010   -2.7092 C   0  0  0  0  0  0  0  0  0  0  0  0
  -34.1831    2.7127   -2.1276 C   0  0  0  0  0  0  0  0  0  0  0  0
  -37.5232    3.0923   -3.6362 O   0  0  0  0  0  0  0  0  0  0  0  0
  -38.3601    4.0329   -2.9289 C   0  0  0  0  0  0  0  0  0  0  0  0
  -29.5275   -3.8939   -0.3449 C   0  0  0  0  0  0  0  0  0  0  0  0
  -29.8099   -3.5326    0.9878 C   0  0  0  0  0  0  0  0  0  0  0  0
  -30.5368   -2.3230    1.0636 C   0  0  0  0  0  0  0  0  0  0  0  0
  -30.7838   -1.8060   -0.2152 C   0  0  0  0  0  0  0  0  0  0  0  0
  -30.1302   -2.7619   -1.4764 S   0  0  0  0  0  0  0  0  0  0  0  0
  -28.4258   -6.1867    0.4433 N   0  0  0  0  0  0  0  0  0  0  0  0
  -28.7469   -5.2796   -0.8298 S   0  0  0  0  0  0  0  0  0  0  0  0
  -27.5934   -4.9944   -1.6274 O   0  0  0  0  0  0  0  0  0  0  0  0
  -29.7334   -5.9751   -1.6347 O   0  0  0  0  0  0  0  0  0  0  0  0
  -29.2848   -6.3532    0.9675 H   0  0  0  0  0  0  0  0  0  0  0  0
  -27.7506   -5.7086    1.0398 H   0  0  0  0  0  0  0  0  0  0  0  0
 13 12  1  0  0  0
 12  9  1  0  0  0
  9  8  2  0  0  0
  9 10  1  0  0  0
  8  7  1  0  0  0
 10 11  2  0  0  0
  7  6  2  0  0  0
 11  6  1  0  0  0
  6  4  1  0  0  0
  4  5  1  0  0  0
  4  3  1  0  0  0
  5  1  2  0  0  0
  3  2  2  0  0  0
  1  2  1  0  0  0
  1 17  1  0  0  0
 17 16  2  0  0  0
 17 18  1  0  0  0
 16 15  1  0  0  0
 18 14  1  0  0  0
 22 20  2  0  0  0
 15 14  2  0  0  0
 14 20  1  0  0  0
 20 21  2  0  0  0
 20 19  1  0  0  0
 19 23  1  0  0  0
 19 24  1  0  0  0
M  END
> <minimizedAffinity>
-5.99893

$$$$
