1KPM_VIT_A_401


 32 33  0  0  0  0  0  0  0  0999 V2000
   15.4331   22.6074   46.5179 C   0  0  0  0  0  0  0  0  0  0  0  0
   15.1421   22.3220   45.1414 C   0  0  0  0  0  0  0  0  0  0  0  0
   16.1621   21.8414   44.2712 C   0  0  0  0  0  0  0  0  0  0  0  0
   17.4999   21.6375   44.7572 C   0  0  0  0  0  0  0  0  0  0  0  0
   17.8032   21.9236   46.1465 C   0  0  0  0  0  0  0  0  0  0  0  0
   16.7668   22.4084   47.0186 C   0  0  0  0  0  0  0  0  0  0  0  0
   14.3444   23.0742   47.4591 C   0  0  0  0  0  0  0  0  0  0  0  0
   15.8142   21.5674   42.9122 O   0  0  0  0  0  0  0  0  0  0  0  0
   14.8958   22.4184   42.0622 C   0  0  0  0  0  0  0  0  0  0  0  0
   13.7052   22.5129   44.5122 C   0  0  0  0  0  0  0  0  0  0  0  0
   13.6021   22.8057   42.9564 C   0  0  0  0  0  0  0  0  0  0  0  0
   18.5510   21.1903   43.7435 C   0  0  0  0  0  0  0  0  0  0  0  0
   19.1810   21.6484   46.3929 C   0  0  0  0  0  0  0  0  0  0  0  0
   16.8990   22.6382   48.4149 O   0  0  0  0  0  0  0  0  0  0  0  0
   14.9426   23.5545   41.0747 C   0  0  0  0  0  0  0  0  0  0  0  0
   16.1688   22.9563   48.9085 H   0  0  0  0  0  0  0  0  0  0  0  0
   13.8225   20.9709   41.7640 C   0  0  0  0  0  0  0  0  0  0  0  0
   12.5161   19.6515   40.9733 C   0  0  0  0  0  0  0  0  0  0  0  0
   11.4089   19.5940   39.4470 C   0  0  0  0  0  0  0  0  0  0  0  0
   11.8709   18.6218   38.0035 C   0  0  0  0  0  0  0  0  0  0  0  0
   13.2188   18.2573   37.4239 C   0  0  0  0  0  0  0  0  0  0  0  0
   11.1949   19.6318   36.9995 C   0  0  0  0  0  0  0  0  0  0  0  0
   10.3934   19.5272   35.8493 C   0  0  0  0  0  0  0  0  0  0  0  0
    9.2030   20.0936   35.4231 C   0  0  0  0  0  0  0  0  0  0  0  0
    6.5330   20.7661   35.5050 C   0  0  0  0  0  0  0  0  0  0  0  0
    7.7360   20.0061   36.0802 C   0  0  0  0  0  0  0  0  0  0  0  0
    7.7438   20.6400   37.4980 C   0  0  0  0  0  0  0  0  0  0  0  0
    7.8042   19.5662   38.6090 C   0  0  0  0  0  0  0  0  0  0  0  0
    6.6300   18.6303   38.4707 C   0  0  0  0  0  0  0  0  0  0  0  0
    7.1031   17.1507   38.4935 C   0  0  0  0  0  0  0  0  0  0  0  0
    6.2496   16.2913   37.5274 C   0  0  0  0  0  0  0  0  0  0  0  0
    8.5757   17.0670   38.0491 C   0  0  0  0  0  0  0  0  0  0  0  0
 25 26  1  0  0  0
  1  2  2  0  0  0
  1  6  1  0  0  0
  1  7  1  0  0  0
  2  3  1  0  0  0
  2 10  1  0  0  0
  3  4  2  0  0  0
  3  8  1  0  0  0
  4  5  1  0  0  0
  4 12  1  0  0  0
  5  6  2  0  0  0
  5 13  1  0  0  0
  6 14  1  0  0  0
  8  9  1  0  0  0
  9 11  1  0  0  0
  9 15  1  0  0  0
  9 17  1  0  0  0
 10 11  1  0  0  0
 17 18  1  0  0  0
 18 19  1  0  0  0
 19 20  1  0  0  0
 20 21  1  0  0  0
 20 22  1  0  0  0
 22 23  1  0  0  0
 23 24  1  0  0  0
 24 26  1  0  0  0
 26 27  1  0  0  0
 27 28  1  0  0  0
 28 29  1  0  0  0
 29 30  1  0  0  0
 30 31  1  0  0  0
 30 32  1  0  0  0
 14 16  1  0  0  0
M  END
> <minimizedAffinity>
-9.23924

$$$$
1KPM_VIT_A_401


 32 33  0  0  0  0  0  0  0  0999 V2000
   14.4981   22.6824   46.0364 C   0  0  0  0  0  0  0  0  0  0  0  0
   14.4784   22.3892   44.6312 C   0  0  0  0  0  0  0  0  0  0  0  0
   15.6246   21.8362   43.9918 C   0  0  0  0  0  0  0  0  0  0  0  0
   16.8203   21.5657   44.7432 C   0  0  0  0  0  0  0  0  0  0  0  0
   16.8494   21.8591   46.1635 C   0  0  0  0  0  0  0  0  0  0  0  0
   15.6870   22.4173   46.8014 C   0  0  0  0  0  0  0  0  0  0  0  0
   13.2693   23.2269   46.7312 C   0  0  0  0  0  0  0  0  0  0  0  0
   15.5466   21.5579   42.5920 O   0  0  0  0  0  0  0  0  0  0  0  0
   14.8733   22.4441   41.5665 C   0  0  0  0  0  0  0  0  0  0  0  0
   13.2145   22.6497   43.7193 C   0  0  0  0  0  0  0  0  0  0  0  0
   13.4493   22.9200   42.1738 C   0  0  0  0  0  0  0  0  0  0  0  0
   18.0283   21.0416   43.9695 C   0  0  0  0  0  0  0  0  0  0  0  0
   18.1290   21.5109   46.6891 C   0  0  0  0  0  0  0  0  0  0  0  0
   15.5441   22.6643   48.1937 O   0  0  0  0  0  0  0  0  0  0  0  0
   15.1881   23.5578   40.6029 C   0  0  0  0  0  0  0  0  0  0  0  0
   14.7485   23.0320   48.5250 H   0  0  0  0  0  0  0  0  0  0  0  0
   13.8002   21.0544   41.0630 C   0  0  0  0  0  0  0  0  0  0  0  0
   12.3729   19.9145   40.2051 C   0  0  0  0  0  0  0  0  0  0  0  0
   12.2075   18.9337   38.6022 C   0  0  0  0  0  0  0  0  0  0  0  0
   10.9154   19.3198   37.4090 C   0  0  0  0  0  0  0  0  0  0  0  0
   10.8512   20.3289   36.2850 C   0  0  0  0  0  0  0  0  0  0  0  0
    9.9117   19.8057   38.5232 C   0  0  0  0  0  0  0  0  0  0  0  0
    8.5145   19.8695   38.6646 C   0  0  0  0  0  0  0  0  0  0  0  0
    7.5152   18.9679   38.9930 C   0  0  0  0  0  0  0  0  0  0  0  0
    6.3544   16.4945   38.6422 C   0  0  0  0  0  0  0  0  0  0  0  0
    6.8073   17.8483   38.0782 C   0  0  0  0  0  0  0  0  0  0  0  0
    7.8013   17.3228   37.0068 C   0  0  0  0  0  0  0  0  0  0  0  0
    7.2804   17.5625   35.5708 C   0  0  0  0  0  0  0  0  0  0  0  0
    7.9528   18.7792   34.9866 C   0  0  0  0  0  0  0  0  0  0  0  0
    6.9021   19.8641   34.6225 C   0  0  0  0  0  0  0  0  0  0  0  0
    5.4739   19.2639   34.6324 C   0  0  0  0  0  0  0  0  0  0  0  0
    6.9570   21.0094   35.6513 C   0  0  0  0  0  0  0  0  0  0  0  0
 25 26  1  0  0  0
  1  2  2  0  0  0
  1  6  1  0  0  0
  1  7  1  0  0  0
  2  3  1  0  0  0
  2 10  1  0  0  0
  3  4  2  0  0  0
  3  8  1  0  0  0
  4  5  1  0  0  0
  4 12  1  0  0  0
  5  6  2  0  0  0
  5 13  1  0  0  0
  6 14  1  0  0  0
  8  9  1  0  0  0
  9 11  1  0  0  0
  9 15  1  0  0  0
  9 17  1  0  0  0
 10 11  1  0  0  0
 17 18  1  0  0  0
 18 19  1  0  0  0
 19 20  1  0  0  0
 20 21  1  0  0  0
 20 22  1  0  0  0
 22 23  1  0  0  0
 23 24  1  0  0  0
 24 26  1  0  0  0
 26 27  1  0  0  0
 27 28  1  0  0  0
 28 29  1  0  0  0
 29 30  1  0  0  0
 30 31  1  0  0  0
 30 32  1  0  0  0
 14 16  1  0  0  0
M  END
> <minimizedAffinity>
-8.86966

$$$$
1KPM_VIT_A_401


 32 33  0  0  0  0  0  0  0  0999 V2000
   15.8813   25.6914   37.5894 C   0  0  0  0  0  0  0  0  0  0  0  0
   16.0752   24.3125   37.2397 C   0  0  0  0  0  0  0  0  0  0  0  0
   16.4369   23.3586   38.2335 C   0  0  0  0  0  0  0  0  0  0  0  0
   16.6164   23.7623   39.6019 C   0  0  0  0  0  0  0  0  0  0  0  0
   16.4229   25.1534   39.9642 C   0  0  0  0  0  0  0  0  0  0  0  0
   16.0572   26.1103   38.9541 C   0  0  0  0  0  0  0  0  0  0  0  0
   15.4522   26.7015   36.5479 C   0  0  0  0  0  0  0  0  0  0  0  0
   16.6103   21.9984   37.8301 O   0  0  0  0  0  0  0  0  0  0  0  0
   17.2781   21.5512   36.5478 C   0  0  0  0  0  0  0  0  0  0  0  0
   15.9018   23.7700   35.7658 C   0  0  0  0  0  0  0  0  0  0  0  0
   16.7194   22.4779   35.3427 C   0  0  0  0  0  0  0  0  0  0  0  0
   17.0751   22.6932   40.5913 C   0  0  0  0  0  0  0  0  0  0  0  0
   16.6550   25.3113   41.3628 C   0  0  0  0  0  0  0  0  0  0  0  0
   15.7454   27.4780   39.1824 O   0  0  0  0  0  0  0  0  0  0  0  0
   18.6254   21.1337   36.0200 C   0  0  0  0  0  0  0  0  0  0  0  0
   15.5165   28.0328   38.4628 H   0  0  0  0  0  0  0  0  0  0  0  0
   15.7701   20.6347   36.0765 C   0  0  0  0  0  0  0  0  0  0  0  0
   13.9728   19.7170   36.0844 C   0  0  0  0  0  0  0  0  0  0  0  0
   13.1304   18.4020   37.1426 C   0  0  0  0  0  0  0  0  0  0  0  0
   11.7481   18.8231   38.2171 C   0  0  0  0  0  0  0  0  0  0  0  0
   10.6209   19.8190   38.0647 C   0  0  0  0  0  0  0  0  0  0  0  0
   12.6893   19.3630   39.3605 C   0  0  0  0  0  0  0  0  0  0  0  0
   12.5131   20.0671   40.5645 C   0  0  0  0  0  0  0  0  0  0  0  0
   13.2328   20.2038   41.7404 C   0  0  0  0  0  0  0  0  0  0  0  0
   12.6812   22.8000   42.4776 C   0  0  0  0  0  0  0  0  0  0  0  0
   13.2169   21.4019   42.8154 C   0  0  0  0  0  0  0  0  0  0  0  0
   14.6687   21.8041   43.1930 C   0  0  0  0  0  0  0  0  0  0  0  0
   14.7507   22.3931   44.6204 C   0  0  0  0  0  0  0  0  0  0  0  0
   16.1751   22.3303   45.1112 C   0  0  0  0  0  0  0  0  0  0  0  0
   16.9789   21.2584   44.3248 C   0  0  0  0  0  0  0  0  0  0  0  0
   18.3858   21.7933   43.9581 C   0  0  0  0  0  0  0  0  0  0  0  0
   17.1477   19.9947   45.1896 C   0  0  0  0  0  0  0  0  0  0  0  0
 25 26  1  0  0  0
  1  2  2  0  0  0
  1  6  1  0  0  0
  1  7  1  0  0  0
  2  3  1  0  0  0
  2 10  1  0  0  0
  3  4  2  0  0  0
  3  8  1  0  0  0
  4  5  1  0  0  0
  4 12  1  0  0  0
  5  6  2  0  0  0
  5 13  1  0  0  0
  6 14  1  0  0  0
  8  9  1  0  0  0
  9 11  1  0  0  0
  9 15  1  0  0  0
  9 17  1  0  0  0
 10 11  1  0  0  0
 17 18  1  0  0  0
 18 19  1  0  0  0
 19 20  1  0  0  0
 20 21  1  0  0  0
 20 22  1  0  0  0
 22 23  1  0  0  0
 23 24  1  0  0  0
 24 26  1  0  0  0
 26 27  1  0  0  0
 27 28  1  0  0  0
 28 29  1  0  0  0
 29 30  1  0  0  0
 30 31  1  0  0  0
 30 32  1  0  0  0
 14 16  1  0  0  0
M  END
> <minimizedAffinity>
-8.83583

$$$$
1KPM_VIT_A_401


 32 33  0  0  0  0  0  0  0  0999 V2000
   14.6510   22.7364   46.1799 C   0  0  0  0  0  0  0  0  0  0  0  0
   14.5760   22.4555   44.7740 C   0  0  0  0  0  0  0  0  0  0  0  0
   15.6763   21.8563   44.0967 C   0  0  0  0  0  0  0  0  0  0  0  0
   16.8804   21.5260   44.8099 C   0  0  0  0  0  0  0  0  0  0  0  0
   16.9652   21.8066   46.2304 C   0  0  0  0  0  0  0  0  0  0  0  0
   15.8490   22.4118   46.9068 C   0  0  0  0  0  0  0  0  0  0  0  0
   13.4695   23.3303   46.9151 C   0  0  0  0  0  0  0  0  0  0  0  0
   15.5439   21.5928   42.6981 O   0  0  0  0  0  0  0  0  0  0  0  0
   14.8812   22.5166   41.6992 C   0  0  0  0  0  0  0  0  0  0  0  0
   13.2985   22.7800   43.9025 C   0  0  0  0  0  0  0  0  0  0  0  0
   13.4990   23.0515   42.3523 C   0  0  0  0  0  0  0  0  0  0  0  0
   18.0396   20.9540   43.9966 C   0  0  0  0  0  0  0  0  0  0  0  0
   18.2428   21.3968   46.7148 C   0  0  0  0  0  0  0  0  0  0  0  0
   15.7591   22.6540   48.3044 O   0  0  0  0  0  0  0  0  0  0  0  0
   15.2173   23.6225   40.7338 C   0  0  0  0  0  0  0  0  0  0  0  0
   14.9913   23.0547   48.6620 H   0  0  0  0  0  0  0  0  0  0  0  0
   13.7315   21.1809   41.2194 C   0  0  0  0  0  0  0  0  0  0  0  0
   12.8032   19.6699   40.2561 C   0  0  0  0  0  0  0  0  0  0  0  0
   11.3016   19.5066   39.1261 C   0  0  0  0  0  0  0  0  0  0  0  0
   11.4740   18.9066   37.4371 C   0  0  0  0  0  0  0  0  0  0  0  0
   11.8000   19.6183   36.1437 C   0  0  0  0  0  0  0  0  0  0  0  0
    9.9649   18.4596   37.3500 C   0  0  0  0  0  0  0  0  0  0  0  0
    8.7796   19.0043   36.8260 C   0  0  0  0  0  0  0  0  0  0  0  0
    7.4542   18.6053   36.7660 C   0  0  0  0  0  0  0  0  0  0  0  0
    6.3836   18.9086   39.2859 C   0  0  0  0  0  0  0  0  0  0  0  0
    6.4688   18.1495   37.9546 C   0  0  0  0  0  0  0  0  0  0  0  0
    6.9041   16.7672   38.5130 C   0  0  0  0  0  0  0  0  0  0  0  0
    7.2571   15.7740   37.3817 C   0  0  0  0  0  0  0  0  0  0  0  0
    7.5599   14.4209   37.9742 C   0  0  0  0  0  0  0  0  0  0  0  0
    7.2705   13.2944   36.9443 C   0  0  0  0  0  0  0  0  0  0  0  0
    5.9881   12.5171   37.3336 C   0  0  0  0  0  0  0  0  0  0  0  0
    7.0638   13.9068   35.5458 C   0  0  0  0  0  0  0  0  0  0  0  0
 25 26  1  0  0  0
  1  2  2  0  0  0
  1  6  1  0  0  0
  1  7  1  0  0  0
  2  3  1  0  0  0
  2 10  1  0  0  0
  3  4  2  0  0  0
  3  8  1  0  0  0
  4  5  1  0  0  0
  4 12  1  0  0  0
  5  6  2  0  0  0
  5 13  1  0  0  0
  6 14  1  0  0  0
  8  9  1  0  0  0
  9 11  1  0  0  0
  9 15  1  0  0  0
  9 17  1  0  0  0
 10 11  1  0  0  0
 17 18  1  0  0  0
 18 19  1  0  0  0
 19 20  1  0  0  0
 20 21  1  0  0  0
 20 22  1  0  0  0
 22 23  1  0  0  0
 23 24  1  0  0  0
 24 26  1  0  0  0
 26 27  1  0  0  0
 27 28  1  0  0  0
 28 29  1  0  0  0
 29 30  1  0  0  0
 30 31  1  0  0  0
 30 32  1  0  0  0
 14 16  1  0  0  0
M  END
> <minimizedAffinity>
-8.39368

$$$$
1KPM_VIT_A_401


 32 33  0  0  0  0  0  0  0  0999 V2000
    7.6050   17.7218   37.1765 C   0  0  0  0  0  0  0  0  0  0  0  0
    8.9605   18.1360   37.4045 C   0  0  0  0  0  0  0  0  0  0  0  0
    9.4301   19.3828   36.9009 C   0  0  0  0  0  0  0  0  0  0  0  0
    8.5545   20.2447   36.1539 C   0  0  0  0  0  0  0  0  0  0  0  0
    7.1834   19.8342   35.9184 C   0  0  0  0  0  0  0  0  0  0  0  0
    6.7173   18.5733   36.4309 C   0  0  0  0  0  0  0  0  0  0  0  0
    7.0864   16.4202   37.7475 C   0  0  0  0  0  0  0  0  0  0  0  0
   10.7869   19.7474   37.1636 O   0  0  0  0  0  0  0  0  0  0  0  0
   11.9654   18.7992   37.1183 C   0  0  0  0  0  0  0  0  0  0  0  0
    9.9992   17.2613   38.2126 C   0  0  0  0  0  0  0  0  0  0  0  0
   11.5413   17.4364   37.8839 C   0  0  0  0  0  0  0  0  0  0  0  0
    9.1553   21.5292   35.5868 C   0  0  0  0  0  0  0  0  0  0  0  0
    6.5147   20.8416   35.1615 C   0  0  0  0  0  0  0  0  0  0  0  0
    5.3824   18.0912   36.3568 O   0  0  0  0  0  0  0  0  0  0  0  0
   13.0286   18.3063   36.1724 C   0  0  0  0  0  0  0  0  0  0  0  0
    5.1658   17.2544   36.7186 H   0  0  0  0  0  0  0  0  0  0  0  0
   12.3824   19.2272   38.8443 C   0  0  0  0  0  0  0  0  0  0  0  0
   12.5671   20.1619   40.6233 C   0  0  0  0  0  0  0  0  0  0  0  0
   13.9965   20.8229   41.6618 C   0  0  0  0  0  0  0  0  0  0  0  0
   13.6929   21.6915   43.2096 C   0  0  0  0  0  0  0  0  0  0  0  0
   12.4347   21.8880   44.0244 C   0  0  0  0  0  0  0  0  0  0  0  0
   14.0694   23.0941   42.5966 C   0  0  0  0  0  0  0  0  0  0  0  0
   15.0391   24.0795   42.8514 C   0  0  0  0  0  0  0  0  0  0  0  0
   16.3302   24.3276   42.4145 C   0  0  0  0  0  0  0  0  0  0  0  0
   16.5265   22.9619   40.0303 C   0  0  0  0  0  0  0  0  0  0  0  0
   17.1836   23.5823   41.2710 C   0  0  0  0  0  0  0  0  0  0  0  0
   17.8400   22.2962   41.8429 C   0  0  0  0  0  0  0  0  0  0  0  0
   18.3678   22.5091   43.2806 C   0  0  0  0  0  0  0  0  0  0  0  0
   18.6461   21.1718   43.9193 C   0  0  0  0  0  0  0  0  0  0  0  0
   17.8726   21.0331   45.2595 C   0  0  0  0  0  0  0  0  0  0  0  0
   17.4279   22.4236   45.7779 C   0  0  0  0  0  0  0  0  0  0  0  0
   16.6164   20.1664   45.0493 C   0  0  0  0  0  0  0  0  0  0  0  0
 25 26  1  0  0  0
  1  2  2  0  0  0
  1  6  1  0  0  0
  1  7  1  0  0  0
  2  3  1  0  0  0
  2 10  1  0  0  0
  3  4  2  0  0  0
  3  8  1  0  0  0
  4  5  1  0  0  0
  4 12  1  0  0  0
  5  6  2  0  0  0
  5 13  1  0  0  0
  6 14  1  0  0  0
  8  9  1  0  0  0
  9 11  1  0  0  0
  9 15  1  0  0  0
  9 17  1  0  0  0
 10 11  1  0  0  0
 17 18  1  0  0  0
 18 19  1  0  0  0
 19 20  1  0  0  0
 20 21  1  0  0  0
 20 22  1  0  0  0
 22 23  1  0  0  0
 23 24  1  0  0  0
 24 26  1  0  0  0
 26 27  1  0  0  0
 27 28  1  0  0  0
 28 29  1  0  0  0
 29 30  1  0  0  0
 30 31  1  0  0  0
 30 32  1  0  0  0
 14 16  1  0  0  0
M  END
> <minimizedAffinity>
-8.33314

$$$$
1KPM_VIT_A_401


 32 33  0  0  0  0  0  0  0  0999 V2000
    8.3424   21.0613   35.6456 C   0  0  0  0  0  0  0  0  0  0  0  0
    9.4071   20.3551   36.3004 C   0  0  0  0  0  0  0  0  0  0  0  0
   10.7615   20.5711   35.9164 C   0  0  0  0  0  0  0  0  0  0  0  0
   11.0833   21.4977   34.8649 C   0  0  0  0  0  0  0  0  0  0  0  0
   10.0139   22.2153   34.1975 C   0  0  0  0  0  0  0  0  0  0  0  0
    8.6486   21.9913   34.5919 C   0  0  0  0  0  0  0  0  0  0  0  0
    6.9054   20.8712   36.0792 C   0  0  0  0  0  0  0  0  0  0  0  0
   11.7813   19.8460   36.6071 O   0  0  0  0  0  0  0  0  0  0  0  0
   11.6838   18.3948   37.0249 C   0  0  0  0  0  0  0  0  0  0  0  0
    9.1574   19.3177   37.4658 C   0  0  0  0  0  0  0  0  0  0  0  0
   10.2201   18.1588   37.6769 C   0  0  0  0  0  0  0  0  0  0  0  0
   12.5521   21.6172   34.4642 C   0  0  0  0  0  0  0  0  0  0  0  0
   10.5719   23.0680   33.1993 C   0  0  0  0  0  0  0  0  0  0  0  0
    7.5165   22.6903   34.0924 O   0  0  0  0  0  0  0  0  0  0  0  0
   12.0308   17.0146   36.5322 C   0  0  0  0  0  0  0  0  0  0  0  0
    6.6593   22.4788   34.4063 H   0  0  0  0  0  0  0  0  0  0  0  0
   11.9973   18.8684   38.7609 C   0  0  0  0  0  0  0  0  0  0  0  0
   12.2563   19.8989   40.4765 C   0  0  0  0  0  0  0  0  0  0  0  0
   13.7068   20.7345   41.3464 C   0  0  0  0  0  0  0  0  0  0  0  0
   13.4867   21.5555   42.9338 C   0  0  0  0  0  0  0  0  0  0  0  0
   12.2497   21.8559   43.7495 C   0  0  0  0  0  0  0  0  0  0  0  0
   14.0292   22.9336   42.3940 C   0  0  0  0  0  0  0  0  0  0  0  0
   14.9480   23.9004   42.8383 C   0  0  0  0  0  0  0  0  0  0  0  0
   16.2343   24.2735   42.4839 C   0  0  0  0  0  0  0  0  0  0  0  0
   17.0353   22.9767   40.1893 C   0  0  0  0  0  0  0  0  0  0  0  0
   17.3267   23.4754   41.6114 C   0  0  0  0  0  0  0  0  0  0  0  0
   17.6416   22.1041   42.2688 C   0  0  0  0  0  0  0  0  0  0  0  0
   18.8004   22.2060   43.2875 C   0  0  0  0  0  0  0  0  0  0  0  0
   18.2479   22.1389   44.6889 C   0  0  0  0  0  0  0  0  0  0  0  0
   16.9650   21.2637   44.7308 C   0  0  0  0  0  0  0  0  0  0  0  0
   17.3100   19.8115   45.1461 C   0  0  0  0  0  0  0  0  0  0  0  0
   15.9725   21.8418   45.7574 C   0  0  0  0  0  0  0  0  0  0  0  0
 25 26  1  0  0  0
  1  2  2  0  0  0
  1  6  1  0  0  0
  1  7  1  0  0  0
  2  3  1  0  0  0
  2 10  1  0  0  0
  3  4  2  0  0  0
  3  8  1  0  0  0
  4  5  1  0  0  0
  4 12  1  0  0  0
  5  6  2  0  0  0
  5 13  1  0  0  0
  6 14  1  0  0  0
  8  9  1  0  0  0
  9 11  1  0  0  0
  9 15  1  0  0  0
  9 17  1  0  0  0
 10 11  1  0  0  0
 17 18  1  0  0  0
 18 19  1  0  0  0
 19 20  1  0  0  0
 20 21  1  0  0  0
 20 22  1  0  0  0
 22 23  1  0  0  0
 23 24  1  0  0  0
 24 26  1  0  0  0
 26 27  1  0  0  0
 27 28  1  0  0  0
 28 29  1  0  0  0
 29 30  1  0  0  0
 30 31  1  0  0  0
 30 32  1  0  0  0
 14 16  1  0  0  0
M  END
> <minimizedAffinity>
-8.32256

$$$$
1KPM_VIT_A_401


 32 33  0  0  0  0  0  0  0  0999 V2000
   14.4976   22.6649   46.0293 C   0  0  0  0  0  0  0  0  0  0  0  0
   14.4892   22.3624   44.6260 C   0  0  0  0  0  0  0  0  0  0  0  0
   15.6413   21.8074   43.9990 C   0  0  0  0  0  0  0  0  0  0  0  0
   16.8318   21.5443   44.7613 C   0  0  0  0  0  0  0  0  0  0  0  0
   16.8495   21.8472   46.1798 C   0  0  0  0  0  0  0  0  0  0  0  0
   15.6812   22.4073   46.8051 C   0  0  0  0  0  0  0  0  0  0  0  0
   13.2625   23.2115   46.7112 C   0  0  0  0  0  0  0  0  0  0  0  0
   15.5745   21.5197   42.6006 O   0  0  0  0  0  0  0  0  0  0  0  0
   14.9074   22.3977   41.5641 C   0  0  0  0  0  0  0  0  0  0  0  0
   13.2317   22.6143   43.7028 C   0  0  0  0  0  0  0  0  0  0  0  0
   13.4778   22.8748   42.1574 C   0  0  0  0  0  0  0  0  0  0  0  0
   18.0466   21.0175   44.0004 C   0  0  0  0  0  0  0  0  0  0  0  0
   18.1257   21.5050   46.7174 C   0  0  0  0  0  0  0  0  0  0  0  0
   15.5272   22.6632   48.1946 O   0  0  0  0  0  0  0  0  0  0  0  0
   15.2273   23.5056   40.5955 C   0  0  0  0  0  0  0  0  0  0  0  0
   14.7283   23.0316   48.5174 H   0  0  0  0  0  0  0  0  0  0  0  0
   13.8408   21.0026   41.0617 C   0  0  0  0  0  0  0  0  0  0  0  0
   12.3591   19.8700   40.2907 C   0  0  0  0  0  0  0  0  0  0  0  0
   12.0297   19.0132   38.6427 C   0  0  0  0  0  0  0  0  0  0  0  0
   13.3868   18.5290   37.5627 C   0  0  0  0  0  0  0  0  0  0  0  0
   14.3793   19.3440   36.7651 C   0  0  0  0  0  0  0  0  0  0  0  0
   12.4268   17.8286   36.5269 C   0  0  0  0  0  0  0  0  0  0  0  0
   12.5231   16.7491   35.6316 C   0  0  0  0  0  0  0  0  0  0  0  0
   13.4746   15.7810   35.3542 C   0  0  0  0  0  0  0  0  0  0  0  0
   15.7595   15.5326   33.8358 C   0  0  0  0  0  0  0  0  0  0  0  0
   15.0624   15.9393   35.1413 C   0  0  0  0  0  0  0  0  0  0  0  0
   15.8305   14.9969   36.1077 C   0  0  0  0  0  0  0  0  0  0  0  0
   16.5881   15.7857   37.2008 C   0  0  0  0  0  0  0  0  0  0  0  0
   17.9831   15.2324   37.3472 C   0  0  0  0  0  0  0  0  0  0  0  0
   19.0274   16.3820   37.3850 C   0  0  0  0  0  0  0  0  0  0  0  0
   20.4670   15.8118   37.3335 C   0  0  0  0  0  0  0  0  0  0  0  0
   18.8264   17.3093   36.1713 C   0  0  0  0  0  0  0  0  0  0  0  0
 25 26  1  0  0  0
  1  2  2  0  0  0
  1  6  1  0  0  0
  1  7  1  0  0  0
  2  3  1  0  0  0
  2 10  1  0  0  0
  3  4  2  0  0  0
  3  8  1  0  0  0
  4  5  1  0  0  0
  4 12  1  0  0  0
  5  6  2  0  0  0
  5 13  1  0  0  0
  6 14  1  0  0  0
  8  9  1  0  0  0
  9 11  1  0  0  0
  9 15  1  0  0  0
  9 17  1  0  0  0
 10 11  1  0  0  0
 17 18  1  0  0  0
 18 19  1  0  0  0
 19 20  1  0  0  0
 20 21  1  0  0  0
 20 22  1  0  0  0
 22 23  1  0  0  0
 23 24  1  0  0  0
 24 26  1  0  0  0
 26 27  1  0  0  0
 27 28  1  0  0  0
 28 29  1  0  0  0
 29 30  1  0  0  0
 30 31  1  0  0  0
 30 32  1  0  0  0
 14 16  1  0  0  0
M  END
> <minimizedAffinity>
-8.31030

$$$$
1KPM_VIT_A_401


 32 33  0  0  0  0  0  0  0  0999 V2000
   14.7387   15.0461   35.1344 C   0  0  0  0  0  0  0  0  0  0  0  0
   14.0180   16.1960   35.6029 C   0  0  0  0  0  0  0  0  0  0  0  0
   12.6539   16.3906   35.2426 C   0  0  0  0  0  0  0  0  0  0  0  0
   11.9782   15.4398   34.4018 C   0  0  0  0  0  0  0  0  0  0  0  0
   12.6986   14.2752   33.9236 C   0  0  0  0  0  0  0  0  0  0  0  0
   14.0762   14.0863   34.2925 C   0  0  0  0  0  0  0  0  0  0  0  0
   16.1740   14.8092   35.5505 C   0  0  0  0  0  0  0  0  0  0  0  0
   11.9837   17.5496   35.7431 O   0  0  0  0  0  0  0  0  0  0  0  0
   12.5967   18.9291   35.8496 C   0  0  0  0  0  0  0  0  0  0  0  0
   14.6704   17.2966   36.5302 C   0  0  0  0  0  0  0  0  0  0  0  0
   14.0842   18.7696   36.4701 C   0  0  0  0  0  0  0  0  0  0  0  0
   10.5391   15.7590   34.0025 C   0  0  0  0  0  0  0  0  0  0  0  0
   11.8296   13.4849   33.1141 C   0  0  0  0  0  0  0  0  0  0  0  0
   14.8707   12.9512   33.9760 O   0  0  0  0  0  0  0  0  0  0  0  0
   12.7206   20.2123   35.0709 C   0  0  0  0  0  0  0  0  0  0  0  0
   15.7635   12.9110   34.2576 H   0  0  0  0  0  0  0  0  0  0  0  0
   12.2308   18.9589   37.6389 C   0  0  0  0  0  0  0  0  0  0  0  0
   11.7990   19.5364   39.5237 C   0  0  0  0  0  0  0  0  0  0  0  0
   12.7677   19.7495   41.1283 C   0  0  0  0  0  0  0  0  0  0  0  0
   13.4289   21.3551   41.6050 C   0  0  0  0  0  0  0  0  0  0  0  0
   14.8389   21.9005   41.6175 C   0  0  0  0  0  0  0  0  0  0  0  0
   12.9857   21.1878   43.1085 C   0  0  0  0  0  0  0  0  0  0  0  0
   12.4810   22.0331   44.1120 C   0  0  0  0  0  0  0  0  0  0  0  0
   12.9709   22.5573   45.2971 C   0  0  0  0  0  0  0  0  0  0  0  0
   14.9905   24.1880   44.3748 C   0  0  0  0  0  0  0  0  0  0  0  0
   14.1903   23.5810   45.5355 C   0  0  0  0  0  0  0  0  0  0  0  0
   15.3602   22.8630   46.2620 C   0  0  0  0  0  0  0  0  0  0  0  0
   16.4698   22.4279   45.2769 C   0  0  0  0  0  0  0  0  0  0  0  0
   16.5956   20.9253   45.2900 C   0  0  0  0  0  0  0  0  0  0  0  0
   18.0775   20.4979   45.1031 C   0  0  0  0  0  0  0  0  0  0  0  0
   18.6759   21.1495   43.8313 C   0  0  0  0  0  0  0  0  0  0  0  0
   18.9081   20.9497   46.3194 C   0  0  0  0  0  0  0  0  0  0  0  0
 25 26  1  0  0  0
  1  2  2  0  0  0
  1  6  1  0  0  0
  1  7  1  0  0  0
  2  3  1  0  0  0
  2 10  1  0  0  0
  3  4  2  0  0  0
  3  8  1  0  0  0
  4  5  1  0  0  0
  4 12  1  0  0  0
  5  6  2  0  0  0
  5 13  1  0  0  0
  6 14  1  0  0  0
  8  9  1  0  0  0
  9 11  1  0  0  0
  9 15  1  0  0  0
  9 17  1  0  0  0
 10 11  1  0  0  0
 17 18  1  0  0  0
 18 19  1  0  0  0
 19 20  1  0  0  0
 20 21  1  0  0  0
 20 22  1  0  0  0
 22 23  1  0  0  0
 23 24  1  0  0  0
 24 26  1  0  0  0
 26 27  1  0  0  0
 27 28  1  0  0  0
 28 29  1  0  0  0
 29 30  1  0  0  0
 30 31  1  0  0  0
 30 32  1  0  0  0
 14 16  1  0  0  0
M  END
> <minimizedAffinity>
-8.18520

$$$$
1KPM_VIT_A_401


 32 33  0  0  0  0  0  0  0  0999 V2000
   12.9755   19.6812   34.1136 C   0  0  0  0  0  0  0  0  0  0  0  0
   12.5404   19.2519   35.4126 C   0  0  0  0  0  0  0  0  0  0  0  0
   13.2462   18.2305   36.1105 C   0  0  0  0  0  0  0  0  0  0  0  0
   14.4038   17.6116   35.5236 C   0  0  0  0  0  0  0  0  0  0  0  0
   14.8503   18.0387   34.2114 C   0  0  0  0  0  0  0  0  0  0  0  0
   14.1317   19.0714   33.5135 C   0  0  0  0  0  0  0  0  0  0  0  0
   12.2581   20.7973   33.3862 C   0  0  0  0  0  0  0  0  0  0  0  0
   12.7725   17.8474   37.4034 O   0  0  0  0  0  0  0  0  0  0  0  0
   11.3160   17.6947   37.7847 C   0  0  0  0  0  0  0  0  0  0  0  0
   11.2819   19.8693   36.1419 C   0  0  0  0  0  0  0  0  0  0  0  0
   10.5072   18.9664   37.1914 C   0  0  0  0  0  0  0  0  0  0  0  0
   15.0598   16.4748   36.3046 C   0  0  0  0  0  0  0  0  0  0  0  0
   16.0053   17.2881   33.8407 C   0  0  0  0  0  0  0  0  0  0  0  0
   14.5099   19.6498   32.2717 O   0  0  0  0  0  0  0  0  0  0  0  0
   10.2356   16.6484   37.8634 C   0  0  0  0  0  0  0  0  0  0  0  0
   13.9807   20.3204   31.8867 H   0  0  0  0  0  0  0  0  0  0  0  0
   11.5371   18.9061   39.1337 C   0  0  0  0  0  0  0  0  0  0  0  0
   12.2928   20.2695   40.4154 C   0  0  0  0  0  0  0  0  0  0  0  0
   13.1810   20.2154   42.0787 C   0  0  0  0  0  0  0  0  0  0  0  0
   12.9639   21.5316   43.2882 C   0  0  0  0  0  0  0  0  0  0  0  0
   12.6010   22.9911   43.1343 C   0  0  0  0  0  0  0  0  0  0  0  0
   14.4711   21.4767   43.7467 C   0  0  0  0  0  0  0  0  0  0  0  0
   15.2160   21.9789   44.8280 C   0  0  0  0  0  0  0  0  0  0  0  0
   16.5636   22.1441   45.1040 C   0  0  0  0  0  0  0  0  0  0  0  0
   18.7623   20.7190   45.9542 C   0  0  0  0  0  0  0  0  0  0  0  0
   17.7920   21.1374   44.8410 C   0  0  0  0  0  0  0  0  0  0  0  0
   18.8230   21.7879   43.8788 C   0  0  0  0  0  0  0  0  0  0  0  0
   18.1824   22.8966   43.0118 C   0  0  0  0  0  0  0  0  0  0  0  0
   17.7515   22.3166   41.6884 C   0  0  0  0  0  0  0  0  0  0  0  0
   16.7983   23.2935   40.9463 C   0  0  0  0  0  0  0  0  0  0  0  0
   15.6064   22.5238   40.3241 C   0  0  0  0  0  0  0  0  0  0  0  0
   16.2429   24.3339   41.9374 C   0  0  0  0  0  0  0  0  0  0  0  0
 25 26  1  0  0  0
  1  2  2  0  0  0
  1  6  1  0  0  0
  1  7  1  0  0  0
  2  3  1  0  0  0
  2 10  1  0  0  0
  3  4  2  0  0  0
  3  8  1  0  0  0
  4  5  1  0  0  0
  4 12  1  0  0  0
  5  6  2  0  0  0
  5 13  1  0  0  0
  6 14  1  0  0  0
  8  9  1  0  0  0
  9 11  1  0  0  0
  9 15  1  0  0  0
  9 17  1  0  0  0
 10 11  1  0  0  0
 17 18  1  0  0  0
 18 19  1  0  0  0
 19 20  1  0  0  0
 20 21  1  0  0  0
 20 22  1  0  0  0
 22 23  1  0  0  0
 23 24  1  0  0  0
 24 26  1  0  0  0
 26 27  1  0  0  0
 27 28  1  0  0  0
 28 29  1  0  0  0
 29 30  1  0  0  0
 30 31  1  0  0  0
 30 32  1  0  0  0
 14 16  1  0  0  0
M  END
> <minimizedAffinity>
-8.12197

$$$$
1KPM_VIT_A_401


 32 33  0  0  0  0  0  0  0  0999 V2000
    6.9343   16.6178   37.2848 C   0  0  0  0  0  0  0  0  0  0  0  0
    8.2649   17.1557   37.2481 C   0  0  0  0  0  0  0  0  0  0  0  0
    8.5838   18.2373   36.3783 C   0  0  0  0  0  0  0  0  0  0  0  0
    7.5788   18.8056   35.5212 C   0  0  0  0  0  0  0  0  0  0  0  0
    6.2318   18.2683   35.5513 C   0  0  0  0  0  0  0  0  0  0  0  0
    5.9182   17.1758   36.4332 C   0  0  0  0  0  0  0  0  0  0  0  0
    6.5769   15.4996   38.2393 C   0  0  0  0  0  0  0  0  0  0  0  0
    9.9228   18.7374   36.3881 O   0  0  0  0  0  0  0  0  0  0  0  0
   11.1684   17.8828   36.4789 C   0  0  0  0  0  0  0  0  0  0  0  0
    9.4380   16.6014   38.1500 C   0  0  0  0  0  0  0  0  0  0  0  0
   10.9265   16.7655   37.6262 C   0  0  0  0  0  0  0  0  0  0  0  0
    8.0196   19.9132   34.5665 C   0  0  0  0  0  0  0  0  0  0  0  0
    5.4192   18.9852   34.6235 C   0  0  0  0  0  0  0  0  0  0  0  0
    4.6269   16.6169   36.6334 O   0  0  0  0  0  0  0  0  0  0  0  0
   12.1848   17.2072   35.5965 C   0  0  0  0  0  0  0  0  0  0  0  0
    4.5126   15.9032   37.2297 H   0  0  0  0  0  0  0  0  0  0  0  0
   11.6934   18.7979   37.9699 C   0  0  0  0  0  0  0  0  0  0  0  0
   11.7434   19.7355   39.7563 C   0  0  0  0  0  0  0  0  0  0  0  0
   12.9966   19.9149   41.1548 C   0  0  0  0  0  0  0  0  0  0  0  0
   13.6306   21.5323   41.6287 C   0  0  0  0  0  0  0  0  0  0  0  0
   15.0006   22.1569   41.4914 C   0  0  0  0  0  0  0  0  0  0  0  0
   13.3949   21.2704   43.1652 C   0  0  0  0  0  0  0  0  0  0  0  0
   12.5370   21.7793   44.1558 C   0  0  0  0  0  0  0  0  0  0  0  0
   12.6479   22.7197   45.1670 C   0  0  0  0  0  0  0  0  0  0  0  0
   15.0055   24.0320   44.6121 C   0  0  0  0  0  0  0  0  0  0  0  0
   13.9207   23.6009   45.6087 C   0  0  0  0  0  0  0  0  0  0  0  0
   14.8209   22.7935   46.5833 C   0  0  0  0  0  0  0  0  0  0  0  0
   16.3236   22.9890   46.2756 C   0  0  0  0  0  0  0  0  0  0  0  0
   17.0239   21.6542   46.3113 C   0  0  0  0  0  0  0  0  0  0  0  0
   17.0362   21.0039   44.9004 C   0  0  0  0  0  0  0  0  0  0  0  0
   18.1918   21.5809   44.0450 C   0  0  0  0  0  0  0  0  0  0  0  0
   17.2375   19.4820   45.0292 C   0  0  0  0  0  0  0  0  0  0  0  0
 25 26  1  0  0  0
  1  2  2  0  0  0
  1  6  1  0  0  0
  1  7  1  0  0  0
  2  3  1  0  0  0
  2 10  1  0  0  0
  3  4  2  0  0  0
  3  8  1  0  0  0
  4  5  1  0  0  0
  4 12  1  0  0  0
  5  6  2  0  0  0
  5 13  1  0  0  0
  6 14  1  0  0  0
  8  9  1  0  0  0
  9 11  1  0  0  0
  9 15  1  0  0  0
  9 17  1  0  0  0
 10 11  1  0  0  0
 17 18  1  0  0  0
 18 19  1  0  0  0
 19 20  1  0  0  0
 20 21  1  0  0  0
 20 22  1  0  0  0
 22 23  1  0  0  0
 23 24  1  0  0  0
 24 26  1  0  0  0
 26 27  1  0  0  0
 27 28  1  0  0  0
 28 29  1  0  0  0
 29 30  1  0  0  0
 30 31  1  0  0  0
 30 32  1  0  0  0
 14 16  1  0  0  0
M  END
> <minimizedAffinity>
-8.11782

$$$$
