3GT9_516_A_1


 38 42  0  0  0  0  0  0  0  0999 V2000
   80.5414   61.7568   14.9252 O   0  0  0  0  0  0  0  0  0  0  0  0
   80.8826   62.1490   13.8189 C   0  0  0  0  0  0  0  0  0  0  0  0
   80.2358   63.1413   13.1946 N   0  0  0  0  0  0  0  0  0  0  0  0
   79.0626   63.7480   13.8169 C   0  0  0  0  0  0  0  0  0  0  0  0
   78.6674   64.9167   12.9168 C   0  0  0  0  0  0  0  0  0  0  0  0
   79.8348   65.1295   12.0252 C   0  0  0  0  0  0  0  0  0  0  0  0
   80.5259   63.7764   11.9131 C   0  0  0  0  0  0  0  0  0  0  0  0
   77.9168   62.7854   13.9969 C   0  0  0  0  0  0  0  0  0  0  0  0
   77.5940   61.4959   12.9863 S   0  0  0  0  0  0  0  0  0  0  0  0
   76.3074   61.1682   13.9965 C   0  0  0  0  0  0  0  0  0  0  0  0
   76.1641   61.9988   15.0390 C   0  0  0  0  0  0  0  0  0  0  0  0
   77.0972   62.9395   15.0268 N   0  0  0  0  0  0  0  0  0  0  0  0
   75.0643   61.8996   16.0643 C   0  0  0  0  0  0  0  0  0  0  0  0
   73.8675   61.3070   15.6591 C   0  0  0  0  0  0  0  0  0  0  0  0
   72.8006   61.1834   16.5418 C   0  0  0  0  0  0  0  0  0  0  0  0
   72.9256   61.6602   17.8414 C   0  0  0  0  0  0  0  0  0  0  0  0
   74.1138   62.2570   18.2535 C   0  0  0  0  0  0  0  0  0  0  0  0
   74.2059   62.7248   19.5619 C   0  0  0  0  0  0  0  0  0  0  0  0
   75.1915   62.3841   17.3737 C   0  0  0  0  0  0  0  0  0  0  0  0
   76.3661   62.9919   17.8387 C   0  0  0  0  0  0  0  0  0  0  0  0
   76.4562   63.4595   19.1481 C   0  0  0  0  0  0  0  0  0  0  0  0
   75.3739   63.3272   20.0102 C   0  0  0  0  0  0  0  0  0  0  0  0
   82.0474   61.4930   13.1293 C   0  0  0  0  0  0  0  0  0  0  0  0
   81.5361   60.3533   12.2428 C   0  0  0  0  0  0  0  0  0  0  0  0
   81.6354   58.9888   12.9254 C   0  0  0  0  0  0  0  0  0  0  0  0
   81.0753   57.8846   12.0369 C   0  0  0  0  0  0  0  0  0  0  0  0
   81.7844   57.8493   10.6862 C   0  0  0  0  0  0  0  0  0  0  0  0
   81.7363   59.2133   10.0048 C   0  0  0  0  0  0  0  0  0  0  0  0
   82.2925   60.3011   10.9187 C   0  0  0  0  0  0  0  0  0  0  0  0
   83.0250   61.0101   14.0963 N   0  0  0  0  0  0  0  0  0  0  0  0
   84.3418   61.1681   13.9611 C   0  0  0  0  0  0  0  0  0  0  0  0
   84.8621   61.6996   12.9949 O   0  0  0  0  0  0  0  0  0  0  0  0
   82.6938   60.5401   14.8954 H   0  0  0  0  0  0  0  0  0  0  0  0
   85.1992   60.6256   15.0680 C   0  0  0  0  0  0  0  0  0  0  0  0
   85.2129   61.5932   16.2420 C   0  0  0  0  0  0  0  0  0  0  0  0
   86.5544   60.3779   14.6090 N   0  0  0  0  0  0  0  0  0  0  0  0
   86.8229   59.2159   13.7826 C   0  0  0  0  0  0  0  0  0  0  0  0
   87.1393   60.2933   15.4404 H   0  0  0  0  0  0  0  0  0  0  0  0
  1  2  2  0  0  0
  2 23  1  0  0  0
  2  3  1  0  0  0
 23 24  1  0  0  0
 23 30  1  0  0  0
 24 25  1  0  0  0
 24 29  1  0  0  0
 25 26  1  0  0  0
 26 27  1  0  0  0
 27 28  1  0  0  0
 28 29  1  0  0  0
 30 31  1  0  0  0
 31 32  2  0  0  0
 31 34  1  0  0  0
 34 35  1  0  0  0
 34 36  1  0  0  0
 36 37  1  0  0  0
  3  4  1  0  0  0
  3  7  1  0  0  0
  4  5  1  0  0  0
  4  8  1  0  0  0
  5  6  1  0  0  0
  6  7  1  0  0  0
  8  9  1  0  0  0
  8 12  2  0  0  0
  9 10  1  0  0  0
 10 11  2  0  0  0
 11 12  1  0  0  0
 11 13  1  0  0  0
 13 14  2  0  0  0
 13 19  1  0  0  0
 14 15  1  0  0  0
 15 16  2  0  0  0
 16 17  1  0  0  0
 17 18  2  0  0  0
 17 19  1  0  0  0
 18 22  1  0  0  0
 19 20  2  0  0  0
 20 21  1  0  0  0
 21 22  2  0  0  0
 30 33  1  0  0  0
 36 38  1  0  0  0
M  END
> <minimizedAffinity>
-8.48065

$$$$
3GT9_516_A_1


 38 42  0  0  0  0  0  0  0  0999 V2000
   80.8080   62.0141   14.7778 O   0  0  0  0  0  0  0  0  0  0  0  0
   80.9743   61.9836   13.5671 C   0  0  0  0  0  0  0  0  0  0  0  0
   80.2759   62.7732   12.7416 N   0  0  0  0  0  0  0  0  0  0  0  0
   79.2528   63.6640   13.2814 C   0  0  0  0  0  0  0  0  0  0  0  0
   78.7633   64.5034   12.1032 C   0  0  0  0  0  0  0  0  0  0  0  0
   79.7715   64.2936   11.0344 C   0  0  0  0  0  0  0  0  0  0  0  0
   80.3731   62.9181   11.2927 C   0  0  0  0  0  0  0  0  0  0  0  0
   78.1124   62.9329   13.9424 C   0  0  0  0  0  0  0  0  0  0  0  0
   77.3250   61.6140   13.2874 S   0  0  0  0  0  0  0  0  0  0  0  0
   76.3966   61.6187   14.6735 C   0  0  0  0  0  0  0  0  0  0  0  0
   76.6984   62.5698   15.5689 C   0  0  0  0  0  0  0  0  0  0  0  0
   77.6897   63.3334   15.1328 N   0  0  0  0  0  0  0  0  0  0  0  0
   75.9791   62.7686   16.8780 C   0  0  0  0  0  0  0  0  0  0  0  0
   76.7551   62.7655   18.0379 C   0  0  0  0  0  0  0  0  0  0  0  0
   76.1682   62.9350   19.2866 C   0  0  0  0  0  0  0  0  0  0  0  0
   74.7919   63.1046   19.3813 C   0  0  0  0  0  0  0  0  0  0  0  0
   74.0088   63.1046   18.2303 C   0  0  0  0  0  0  0  0  0  0  0  0
   72.6330   63.2761   18.3603 C   0  0  0  0  0  0  0  0  0  0  0  0
   74.5904   62.9363   16.9714 C   0  0  0  0  0  0  0  0  0  0  0  0
   73.7575   62.9451   15.8436 C   0  0  0  0  0  0  0  0  0  0  0  0
   72.3812   63.1166   15.9757 C   0  0  0  0  0  0  0  0  0  0  0  0
   71.8182   63.2806   17.2360 C   0  0  0  0  0  0  0  0  0  0  0  0
   81.9756   61.0251   12.9829 C   0  0  0  0  0  0  0  0  0  0  0  0
   81.2403   59.8096   12.4102 C   0  0  0  0  0  0  0  0  0  0  0  0
   80.3109   59.1514   13.4303 C   0  0  0  0  0  0  0  0  0  0  0  0
   79.5598   57.9764   12.8157 C   0  0  0  0  0  0  0  0  0  0  0  0
   80.5249   56.9435   12.2410 C   0  0  0  0  0  0  0  0  0  0  0  0
   81.4921   57.5863   11.2518 C   0  0  0  0  0  0  0  0  0  0  0  0
   82.2224   58.7649   11.8884 C   0  0  0  0  0  0  0  0  0  0  0  0
   82.9603   60.6236   13.9794 N   0  0  0  0  0  0  0  0  0  0  0  0
   84.1812   61.1513   14.0697 C   0  0  0  0  0  0  0  0  0  0  0  0
   84.6094   61.9968   13.3026 O   0  0  0  0  0  0  0  0  0  0  0  0
   82.7094   59.9221   14.6230 H   0  0  0  0  0  0  0  0  0  0  0  0
   85.0561   60.6318   15.1739 C   0  0  0  0  0  0  0  0  0  0  0  0
   85.0334   61.5905   16.3551 C   0  0  0  0  0  0  0  0  0  0  0  0
   86.4199   60.4364   14.7152 N   0  0  0  0  0  0  0  0  0  0  0  0
   86.7054   59.3749   13.7681 C   0  0  0  0  0  0  0  0  0  0  0  0
   86.9894   60.2582   15.5425 H   0  0  0  0  0  0  0  0  0  0  0  0
  1  2  2  0  0  0
  2 23  1  0  0  0
  2  3  1  0  0  0
 23 24  1  0  0  0
 23 30  1  0  0  0
 24 25  1  0  0  0
 24 29  1  0  0  0
 25 26  1  0  0  0
 26 27  1  0  0  0
 27 28  1  0  0  0
 28 29  1  0  0  0
 30 31  1  0  0  0
 31 32  2  0  0  0
 31 34  1  0  0  0
 34 35  1  0  0  0
 34 36  1  0  0  0
 36 37  1  0  0  0
  3  4  1  0  0  0
  3  7  1  0  0  0
  4  5  1  0  0  0
  4  8  1  0  0  0
  5  6  1  0  0  0
  6  7  1  0  0  0
  8  9  1  0  0  0
  8 12  2  0  0  0
  9 10  1  0  0  0
 10 11  2  0  0  0
 11 12  1  0  0  0
 11 13  1  0  0  0
 13 14  2  0  0  0
 13 19  1  0  0  0
 14 15  1  0  0  0
 15 16  2  0  0  0
 16 17  1  0  0  0
 17 18  2  0  0  0
 17 19  1  0  0  0
 18 22  1  0  0  0
 19 20  2  0  0  0
 20 21  1  0  0  0
 21 22  2  0  0  0
 30 33  1  0  0  0
 36 38  1  0  0  0
M  END
> <minimizedAffinity>
-8.02521

$$$$
3GT9_516_A_1


 38 42  0  0  0  0  0  0  0  0999 V2000
   79.1782   62.0984   14.7393 O   0  0  0  0  0  0  0  0  0  0  0  0
   78.1756   62.1892   14.0459 C   0  0  0  0  0  0  0  0  0  0  0  0
   77.7903   61.1969   13.2339 N   0  0  0  0  0  0  0  0  0  0  0  0
   78.6034   59.9889   13.1269 C   0  0  0  0  0  0  0  0  0  0  0  0
   77.8132   59.0282   12.2410 C   0  0  0  0  0  0  0  0  0  0  0  0
   76.4444   59.5988   12.1776 C   0  0  0  0  0  0  0  0  0  0  0  0
   76.6082   61.0993   12.3837 C   0  0  0  0  0  0  0  0  0  0  0  0
   79.9793   60.2426   12.5662 C   0  0  0  0  0  0  0  0  0  0  0  0
   80.2844   60.9835   11.1011 S   0  0  0  0  0  0  0  0  0  0  0  0
   81.9009   60.7773   11.4584 C   0  0  0  0  0  0  0  0  0  0  0  0
   82.1632   60.1889   12.6341 C   0  0  0  0  0  0  0  0  0  0  0  0
   81.0422   59.8742   13.2667 N   0  0  0  0  0  0  0  0  0  0  0  0
   83.5475   59.8890   13.1484 C   0  0  0  0  0  0  0  0  0  0  0  0
   84.2518   58.8616   12.5192 C   0  0  0  0  0  0  0  0  0  0  0  0
   85.5319   58.5169   12.9376 C   0  0  0  0  0  0  0  0  0  0  0  0
   86.1150   59.2002   13.9983 C   0  0  0  0  0  0  0  0  0  0  0  0
   85.4186   60.2235   14.6352 C   0  0  0  0  0  0  0  0  0  0  0  0
   86.0312   60.8874   15.6950 C   0  0  0  0  0  0  0  0  0  0  0  0
   84.1324   60.5774   14.2204 C   0  0  0  0  0  0  0  0  0  0  0  0
   83.4745   61.6158   14.8946 C   0  0  0  0  0  0  0  0  0  0  0  0
   84.0891   62.2787   15.9548 C   0  0  0  0  0  0  0  0  0  0  0  0
   85.3685   61.9128   16.3565 C   0  0  0  0  0  0  0  0  0  0  0  0
   77.3592   63.4519   14.0893 C   0  0  0  0  0  0  0  0  0  0  0  0
   78.1469   64.5885   13.4307 C   0  0  0  0  0  0  0  0  0  0  0  0
   77.3329   65.8777   13.3166 C   0  0  0  0  0  0  0  0  0  0  0  0
   78.1597   67.0005   12.7017 C   0  0  0  0  0  0  0  0  0  0  0  0
   78.7044   66.6001   11.3337 C   0  0  0  0  0  0  0  0  0  0  0  0
   79.4845   65.2917   11.4146 C   0  0  0  0  0  0  0  0  0  0  0  0
   78.6383   64.1884   12.0427 C   0  0  0  0  0  0  0  0  0  0  0  0
   76.9903   63.7909   15.4579 N   0  0  0  0  0  0  0  0  0  0  0  0
   76.0128   63.1866   16.1335 C   0  0  0  0  0  0  0  0  0  0  0  0
   75.3039   62.3148   15.6598 O   0  0  0  0  0  0  0  0  0  0  0  0
   77.4920   64.5076   15.9095 H   0  0  0  0  0  0  0  0  0  0  0  0
   75.7862   63.6505   17.5435 C   0  0  0  0  0  0  0  0  0  0  0  0
   76.6496   62.8468   18.5043 C   0  0  0  0  0  0  0  0  0  0  0  0
   74.3870   63.5372   17.9150 N   0  0  0  0  0  0  0  0  0  0  0  0
   74.0088   62.6424   18.9928 C   0  0  0  0  0  0  0  0  0  0  0  0
   73.8821   63.2312   17.0832 H   0  0  0  0  0  0  0  0  0  0  0  0
  1  2  2  0  0  0
  2 23  1  0  0  0
  2  3  1  0  0  0
 23 24  1  0  0  0
 23 30  1  0  0  0
 24 25  1  0  0  0
 24 29  1  0  0  0
 25 26  1  0  0  0
 26 27  1  0  0  0
 27 28  1  0  0  0
 28 29  1  0  0  0
 30 31  1  0  0  0
 31 32  2  0  0  0
 31 34  1  0  0  0
 34 35  1  0  0  0
 34 36  1  0  0  0
 36 37  1  0  0  0
  3  4  1  0  0  0
  3  7  1  0  0  0
  4  5  1  0  0  0
  4  8  1  0  0  0
  5  6  1  0  0  0
  6  7  1  0  0  0
  8  9  1  0  0  0
  8 12  2  0  0  0
  9 10  1  0  0  0
 10 11  2  0  0  0
 11 12  1  0  0  0
 11 13  1  0  0  0
 13 14  2  0  0  0
 13 19  1  0  0  0
 14 15  1  0  0  0
 15 16  2  0  0  0
 16 17  1  0  0  0
 17 18  2  0  0  0
 17 19  1  0  0  0
 18 22  1  0  0  0
 19 20  2  0  0  0
 20 21  1  0  0  0
 21 22  2  0  0  0
 30 33  1  0  0  0
 36 38  1  0  0  0
M  END
> <minimizedAffinity>
-7.73629

$$$$
3GT9_516_A_1


 38 42  0  0  0  0  0  0  0  0999 V2000
   80.4326   61.2994   14.8067 O   0  0  0  0  0  0  0  0  0  0  0  0
   80.8450   61.7239   13.7372 C   0  0  0  0  0  0  0  0  0  0  0  0
   80.3420   62.8325   13.1799 N   0  0  0  0  0  0  0  0  0  0  0  0
   79.2406   63.5367   13.8301 C   0  0  0  0  0  0  0  0  0  0  0  0
   79.0154   64.8079   13.0143 C   0  0  0  0  0  0  0  0  0  0  0  0
   80.2200   64.9346   12.1564 C   0  0  0  0  0  0  0  0  0  0  0  0
   80.7381   63.5165   11.9531 C   0  0  0  0  0  0  0  0  0  0  0  0
   77.9792   62.7166   13.9230 C   0  0  0  0  0  0  0  0  0  0  0  0
   77.0239   62.5976   15.2874 S   0  0  0  0  0  0  0  0  0  0  0  0
   76.0444   61.5973   14.3802 C   0  0  0  0  0  0  0  0  0  0  0  0
   76.4383   61.3942   13.1149 C   0  0  0  0  0  0  0  0  0  0  0  0
   77.5666   62.0406   12.8605 N   0  0  0  0  0  0  0  0  0  0  0  0
   75.7157   60.5153   12.1268 C   0  0  0  0  0  0  0  0  0  0  0  0
   74.5282   61.0090   11.5849 C   0  0  0  0  0  0  0  0  0  0  0  0
   73.7968   60.2579   10.6720 C   0  0  0  0  0  0  0  0  0  0  0  0
   74.2509   58.9984   10.2985 C   0  0  0  0  0  0  0  0  0  0  0  0
   75.4320   58.4955   10.8371 C   0  0  0  0  0  0  0  0  0  0  0  0
   75.8586   57.2300   10.4425 C   0  0  0  0  0  0  0  0  0  0  0  0
   76.1740   59.2440   11.7540 C   0  0  0  0  0  0  0  0  0  0  0  0
   77.3569   58.6923   12.2658 C   0  0  0  0  0  0  0  0  0  0  0  0
   77.7819   57.4258   11.8698 C   0  0  0  0  0  0  0  0  0  0  0  0
   77.0307   56.6932   10.9582 C   0  0  0  0  0  0  0  0  0  0  0  0
   81.9334   60.9769   13.0160 C   0  0  0  0  0  0  0  0  0  0  0  0
   81.3255   59.7782   12.2815 C   0  0  0  0  0  0  0  0  0  0  0  0
   82.0756   58.4758   12.5619 C   0  0  0  0  0  0  0  0  0  0  0  0
   81.4179   57.2964   11.8554 C   0  0  0  0  0  0  0  0  0  0  0  0
   81.3244   57.5357   10.3512 C   0  0  0  0  0  0  0  0  0  0  0  0
   80.6173   58.8528   10.0475 C   0  0  0  0  0  0  0  0  0  0  0  0
   81.2886   60.0141   10.7744 C   0  0  0  0  0  0  0  0  0  0  0  0
   82.9791   60.5540   13.9388 N   0  0  0  0  0  0  0  0  0  0  0  0
   83.9914   61.3334   14.3196 C   0  0  0  0  0  0  0  0  0  0  0  0
   84.1644   62.4664   13.9035 O   0  0  0  0  0  0  0  0  0  0  0  0
   82.9354   59.6400   14.3020 H   0  0  0  0  0  0  0  0  0  0  0  0
   84.9652   60.7386   15.2955 C   0  0  0  0  0  0  0  0  0  0  0  0
   85.0287   61.5885   16.5558 C   0  0  0  0  0  0  0  0  0  0  0  0
   86.2878   60.6157   14.7088 N   0  0  0  0  0  0  0  0  0  0  0  0
   86.4886   59.7085   13.5943 C   0  0  0  0  0  0  0  0  0  0  0  0
   86.9170   60.3160   15.4536 H   0  0  0  0  0  0  0  0  0  0  0  0
  1  2  2  0  0  0
  2 23  1  0  0  0
  2  3  1  0  0  0
 23 24  1  0  0  0
 23 30  1  0  0  0
 24 25  1  0  0  0
 24 29  1  0  0  0
 25 26  1  0  0  0
 26 27  1  0  0  0
 27 28  1  0  0  0
 28 29  1  0  0  0
 30 31  1  0  0  0
 31 32  2  0  0  0
 31 34  1  0  0  0
 34 35  1  0  0  0
 34 36  1  0  0  0
 36 37  1  0  0  0
  3  4  1  0  0  0
  3  7  1  0  0  0
  4  5  1  0  0  0
  4  8  1  0  0  0
  5  6  1  0  0  0
  6  7  1  0  0  0
  8  9  1  0  0  0
  8 12  2  0  0  0
  9 10  1  0  0  0
 10 11  2  0  0  0
 11 12  1  0  0  0
 11 13  1  0  0  0
 13 14  2  0  0  0
 13 19  1  0  0  0
 14 15  1  0  0  0
 15 16  2  0  0  0
 16 17  1  0  0  0
 17 18  2  0  0  0
 17 19  1  0  0  0
 18 22  1  0  0  0
 19 20  2  0  0  0
 20 21  1  0  0  0
 21 22  2  0  0  0
 30 33  1  0  0  0
 36 38  1  0  0  0
M  END
> <minimizedAffinity>
-7.42253

$$$$
3GT9_516_A_1


 38 42  0  0  0  0  0  0  0  0999 V2000
   80.6990   62.5525   13.5819 O   0  0  0  0  0  0  0  0  0  0  0  0
   80.8870   62.0482   12.4844 C   0  0  0  0  0  0  0  0  0  0  0  0
   80.2020   62.4417   11.4034 N   0  0  0  0  0  0  0  0  0  0  0  0
   79.1678   63.4643   11.5315 C   0  0  0  0  0  0  0  0  0  0  0  0
   78.6978   63.7662   10.1102 C   0  0  0  0  0  0  0  0  0  0  0  0
   79.7254   63.1605    9.2269 C   0  0  0  0  0  0  0  0  0  0  0  0
   80.3248   62.0038   10.0167 C   0  0  0  0  0  0  0  0  0  0  0  0
   78.0171   63.0435   12.4095 C   0  0  0  0  0  0  0  0  0  0  0  0
   77.2744   61.5492   12.3478 S   0  0  0  0  0  0  0  0  0  0  0  0
   76.2985   62.1058   13.5810 C   0  0  0  0  0  0  0  0  0  0  0  0
   76.5536   63.3525   14.0030 C   0  0  0  0  0  0  0  0  0  0  0  0
   77.5469   63.8925   13.3119 N   0  0  0  0  0  0  0  0  0  0  0  0
   75.7861   64.0593   15.0903 C   0  0  0  0  0  0  0  0  0  0  0  0
   74.9033   65.0655   14.6955 C   0  0  0  0  0  0  0  0  0  0  0  0
   74.1627   65.7713   15.6367 C   0  0  0  0  0  0  0  0  0  0  0  0
   74.3069   65.4747   16.9870 C   0  0  0  0  0  0  0  0  0  0  0  0
   75.1884   64.4758   17.3909 C   0  0  0  0  0  0  0  0  0  0  0  0
   75.3098   64.2042   18.7513 C   0  0  0  0  0  0  0  0  0  0  0  0
   75.9355   63.7606   16.4518 C   0  0  0  0  0  0  0  0  0  0  0  0
   76.8082   62.7640   16.9106 C   0  0  0  0  0  0  0  0  0  0  0  0
   76.9284   62.4938   18.2721 C   0  0  0  0  0  0  0  0  0  0  0  0
   76.1794   63.2162   19.1937 C   0  0  0  0  0  0  0  0  0  0  0  0
   81.9003   60.9457   12.3417 C   0  0  0  0  0  0  0  0  0  0  0  0
   81.1830   59.6398   11.9864 C   0  0  0  0  0  0  0  0  0  0  0  0
   80.3501   59.0932   13.1462 C   0  0  0  0  0  0  0  0  0  0  0  0
   79.6125   57.8213   12.7453 C   0  0  0  0  0  0  0  0  0  0  0  0
   80.5825   56.7542   12.2460 C   0  0  0  0  0  0  0  0  0  0  0  0
   81.4556   57.2911   11.1161 C   0  0  0  0  0  0  0  0  0  0  0  0
   82.1737   58.5688   11.5399 C   0  0  0  0  0  0  0  0  0  0  0  0
   82.6899   60.7988   13.5579 N   0  0  0  0  0  0  0  0  0  0  0  0
   83.9775   61.1315   13.6504 C   0  0  0  0  0  0  0  0  0  0  0  0
   84.6336   61.5570   12.7148 O   0  0  0  0  0  0  0  0  0  0  0  0
   82.2468   60.4326   14.3572 H   0  0  0  0  0  0  0  0  0  0  0  0
   84.6267   60.9330   14.9897 C   0  0  0  0  0  0  0  0  0  0  0  0
   84.5296   62.2087   15.8130 C   0  0  0  0  0  0  0  0  0  0  0  0
   86.0159   60.5356   14.8460 N   0  0  0  0  0  0  0  0  0  0  0  0
   86.3282   59.2405   14.2711 C   0  0  0  0  0  0  0  0  0  0  0  0
   86.4288   60.5546   15.7785 H   0  0  0  0  0  0  0  0  0  0  0  0
  1  2  2  0  0  0
  2 23  1  0  0  0
  2  3  1  0  0  0
 23 24  1  0  0  0
 23 30  1  0  0  0
 24 25  1  0  0  0
 24 29  1  0  0  0
 25 26  1  0  0  0
 26 27  1  0  0  0
 27 28  1  0  0  0
 28 29  1  0  0  0
 30 31  1  0  0  0
 31 32  2  0  0  0
 31 34  1  0  0  0
 34 35  1  0  0  0
 34 36  1  0  0  0
 36 37  1  0  0  0
  3  4  1  0  0  0
  3  7  1  0  0  0
  4  5  1  0  0  0
  4  8  1  0  0  0
  5  6  1  0  0  0
  6  7  1  0  0  0
  8  9  1  0  0  0
  8 12  2  0  0  0
  9 10  1  0  0  0
 10 11  2  0  0  0
 11 12  1  0  0  0
 11 13  1  0  0  0
 13 14  2  0  0  0
 13 19  1  0  0  0
 14 15  1  0  0  0
 15 16  2  0  0  0
 16 17  1  0  0  0
 17 18  2  0  0  0
 17 19  1  0  0  0
 18 22  1  0  0  0
 19 20  2  0  0  0
 20 21  1  0  0  0
 21 22  2  0  0  0
 30 33  1  0  0  0
 36 38  1  0  0  0
M  END
> <minimizedAffinity>
-7.19383

$$$$
3GT9_516_A_1


 38 42  0  0  0  0  0  0  0  0999 V2000
   78.5404   62.1653   15.0734 O   0  0  0  0  0  0  0  0  0  0  0  0
   77.5975   62.1993   14.2962 C   0  0  0  0  0  0  0  0  0  0  0  0
   77.4323   61.2662   13.3504 N   0  0  0  0  0  0  0  0  0  0  0  0
   78.4201   60.2015   13.2001 C   0  0  0  0  0  0  0  0  0  0  0  0
   77.8573   59.2530   12.1438 C   0  0  0  0  0  0  0  0  0  0  0  0
   76.4299   59.6348   12.0032 C   0  0  0  0  0  0  0  0  0  0  0  0
   76.3535   61.1089   12.3802 C   0  0  0  0  0  0  0  0  0  0  0  0
   79.7862   60.7049   12.8099 C   0  0  0  0  0  0  0  0  0  0  0  0
   80.1202   61.5539   11.4113 S   0  0  0  0  0  0  0  0  0  0  0  0
   81.6992   61.6008   11.9477 C   0  0  0  0  0  0  0  0  0  0  0  0
   81.9268   61.0092   13.1290 C   0  0  0  0  0  0  0  0  0  0  0  0
   80.8129   60.4844   13.6184 N   0  0  0  0  0  0  0  0  0  0  0  0
   83.2771   60.9180   13.7917 C   0  0  0  0  0  0  0  0  0  0  0  0
   83.5690   61.8643   14.7751 C   0  0  0  0  0  0  0  0  0  0  0  0
   84.7953   61.8545   15.4298 C   0  0  0  0  0  0  0  0  0  0  0  0
   85.7437   60.8942   15.0973 C   0  0  0  0  0  0  0  0  0  0  0  0
   85.4635   59.9489   14.1145 C   0  0  0  0  0  0  0  0  0  0  0  0
   86.4357   59.0012   13.8049 C   0  0  0  0  0  0  0  0  0  0  0  0
   84.2333   59.9506   13.4526 C   0  0  0  0  0  0  0  0  0  0  0  0
   84.0007   58.9764   12.4716 C   0  0  0  0  0  0  0  0  0  0  0  0
   84.9747   58.0291   12.1631 C   0  0  0  0  0  0  0  0  0  0  0  0
   86.1944   58.0428   12.8296 C   0  0  0  0  0  0  0  0  0  0  0  0
   76.6038   63.3248   14.3889 C   0  0  0  0  0  0  0  0  0  0  0  0
   77.0261   64.4539   13.4441 C   0  0  0  0  0  0  0  0  0  0  0  0
   78.5369   64.4912   13.2122 C   0  0  0  0  0  0  0  0  0  0  0  0
   78.9183   65.5939   12.2318 C   0  0  0  0  0  0  0  0  0  0  0  0
   78.4267   66.9558   12.7136 C   0  0  0  0  0  0  0  0  0  0  0  0
   76.9274   66.9310   12.9938 C   0  0  0  0  0  0  0  0  0  0  0  0
   76.5718   65.8127   13.9688 C   0  0  0  0  0  0  0  0  0  0  0  0
   76.4806   63.8036   15.7599 N   0  0  0  0  0  0  0  0  0  0  0  0
   75.6596   63.2656   16.6620 C   0  0  0  0  0  0  0  0  0  0  0  0
   74.9013   62.3423   16.4187 O   0  0  0  0  0  0  0  0  0  0  0  0
   77.0357   64.5685   16.0357 H   0  0  0  0  0  0  0  0  0  0  0  0
   75.6803   63.8743   18.0345 C   0  0  0  0  0  0  0  0  0  0  0  0
   76.6418   63.1097   18.9320 C   0  0  0  0  0  0  0  0  0  0  0  0
   74.3526   63.8889   18.6224 N   0  0  0  0  0  0  0  0  0  0  0  0
   74.0443   62.9705   19.7026 C   0  0  0  0  0  0  0  0  0  0  0  0
   73.6918   63.6957   17.8698 H   0  0  0  0  0  0  0  0  0  0  0  0
  1  2  2  0  0  0
  2 23  1  0  0  0
  2  3  1  0  0  0
 23 24  1  0  0  0
 23 30  1  0  0  0
 24 25  1  0  0  0
 24 29  1  0  0  0
 25 26  1  0  0  0
 26 27  1  0  0  0
 27 28  1  0  0  0
 28 29  1  0  0  0
 30 31  1  0  0  0
 31 32  2  0  0  0
 31 34  1  0  0  0
 34 35  1  0  0  0
 34 36  1  0  0  0
 36 37  1  0  0  0
  3  4  1  0  0  0
  3  7  1  0  0  0
  4  5  1  0  0  0
  4  8  1  0  0  0
  5  6  1  0  0  0
  6  7  1  0  0  0
  8  9  1  0  0  0
  8 12  2  0  0  0
  9 10  1  0  0  0
 10 11  2  0  0  0
 11 12  1  0  0  0
 11 13  1  0  0  0
 13 14  2  0  0  0
 13 19  1  0  0  0
 14 15  1  0  0  0
 15 16  2  0  0  0
 16 17  1  0  0  0
 17 18  2  0  0  0
 17 19  1  0  0  0
 18 22  1  0  0  0
 19 20  2  0  0  0
 20 21  1  0  0  0
 21 22  2  0  0  0
 30 33  1  0  0  0
 36 38  1  0  0  0
M  END
> <minimizedAffinity>
-7.11741

$$$$
3GT9_516_A_1


 38 42  0  0  0  0  0  0  0  0999 V2000
   84.5245   59.5078   10.3536 O   0  0  0  0  0  0  0  0  0  0  0  0
   84.3318   58.8214   11.3465 C   0  0  0  0  0  0  0  0  0  0  0  0
   83.2919   57.9822   11.4300 N   0  0  0  0  0  0  0  0  0  0  0  0
   82.3283   57.9088   10.3355 C   0  0  0  0  0  0  0  0  0  0  0  0
   81.3724   56.7729   10.6935 C   0  0  0  0  0  0  0  0  0  0  0  0
   82.0442   56.0346   11.7919 C   0  0  0  0  0  0  0  0  0  0  0  0
   82.9329   57.0522   12.4958 C   0  0  0  0  0  0  0  0  0  0  0  0
   81.5829   59.1990   10.1083 C   0  0  0  0  0  0  0  0  0  0  0  0
   81.1024   59.7659    8.6130 S   0  0  0  0  0  0  0  0  0  0  0  0
   80.4529   61.0636    9.4360 C   0  0  0  0  0  0  0  0  0  0  0  0
   80.5968   61.0343   10.7686 C   0  0  0  0  0  0  0  0  0  0  0  0
   81.2612   59.9530   11.1496 N   0  0  0  0  0  0  0  0  0  0  0  0
   80.1042   62.1082   11.7039 C   0  0  0  0  0  0  0  0  0  0  0  0
   80.8276   63.3010   11.7413 C   0  0  0  0  0  0  0  0  0  0  0  0
   80.4443   64.3392   12.5826 C   0  0  0  0  0  0  0  0  0  0  0  0
   79.3305   64.1854   13.3997 C   0  0  0  0  0  0  0  0  0  0  0  0
   78.6051   62.9975   13.3729 C   0  0  0  0  0  0  0  0  0  0  0  0
   77.4949   62.8756   14.2046 C   0  0  0  0  0  0  0  0  0  0  0  0
   78.9824   61.9496   12.5295 C   0  0  0  0  0  0  0  0  0  0  0  0
   78.2175   60.7748   12.5397 C   0  0  0  0  0  0  0  0  0  0  0  0
   77.1071   60.6547   13.3727 C   0  0  0  0  0  0  0  0  0  0  0  0
   76.7465   61.7060   14.2075 C   0  0  0  0  0  0  0  0  0  0  0  0
   85.2740   58.9302   12.5141 C   0  0  0  0  0  0  0  0  0  0  0  0
   84.6377   59.8028   13.6002 C   0  0  0  0  0  0  0  0  0  0  0  0
   84.0584   61.1036   13.0436 C   0  0  0  0  0  0  0  0  0  0  0  0
   83.3917   61.9253   14.1404 C   0  0  0  0  0  0  0  0  0  0  0  0
   84.3667   62.2271   15.2748 C   0  0  0  0  0  0  0  0  0  0  0  0
   84.9914   60.9456   15.8177 C   0  0  0  0  0  0  0  0  0  0  0  0
   85.6421   60.1378   14.6989 C   0  0  0  0  0  0  0  0  0  0  0  0
   86.5646   59.4645   12.0982 N   0  0  0  0  0  0  0  0  0  0  0  0
   87.6075   58.7053   11.7617 C   0  0  0  0  0  0  0  0  0  0  0  0
   87.5973   57.4868   11.8050 O   0  0  0  0  0  0  0  0  0  0  0  0
   86.6724   60.4424   12.0638 H   0  0  0  0  0  0  0  0  0  0  0  0
   88.8531   59.4278   11.3362 C   0  0  0  0  0  0  0  0  0  0  0  0
   89.2582   60.4418   12.3957 C   0  0  0  0  0  0  0  0  0  0  0  0
   88.6653   60.0896   10.0574 N   0  0  0  0  0  0  0  0  0  0  0  0
   88.1151   59.3396    8.9438 C   0  0  0  0  0  0  0  0  0  0  0  0
   89.5797   60.4322    9.7625 H   0  0  0  0  0  0  0  0  0  0  0  0
  1  2  2  0  0  0
  2 23  1  0  0  0
  2  3  1  0  0  0
 23 24  1  0  0  0
 23 30  1  0  0  0
 24 25  1  0  0  0
 24 29  1  0  0  0
 25 26  1  0  0  0
 26 27  1  0  0  0
 27 28  1  0  0  0
 28 29  1  0  0  0
 30 31  1  0  0  0
 31 32  2  0  0  0
 31 34  1  0  0  0
 34 35  1  0  0  0
 34 36  1  0  0  0
 36 37  1  0  0  0
  3  4  1  0  0  0
  3  7  1  0  0  0
  4  5  1  0  0  0
  4  8  1  0  0  0
  5  6  1  0  0  0
  6  7  1  0  0  0
  8  9  1  0  0  0
  8 12  2  0  0  0
  9 10  1  0  0  0
 10 11  2  0  0  0
 11 12  1  0  0  0
 11 13  1  0  0  0
 13 14  2  0  0  0
 13 19  1  0  0  0
 14 15  1  0  0  0
 15 16  2  0  0  0
 16 17  1  0  0  0
 17 18  2  0  0  0
 17 19  1  0  0  0
 18 22  1  0  0  0
 19 20  2  0  0  0
 20 21  1  0  0  0
 21 22  2  0  0  0
 30 33  1  0  0  0
 36 38  1  0  0  0
M  END
> <minimizedAffinity>
-7.04265

$$$$
3GT9_516_A_1


 38 42  0  0  0  0  0  0  0  0999 V2000
   74.7173   62.1225   15.0697 O   0  0  0  0  0  0  0  0  0  0  0  0
   73.7276   62.2911   15.7670 C   0  0  0  0  0  0  0  0  0  0  0  0
   72.8372   63.2553   15.5024 N   0  0  0  0  0  0  0  0  0  0  0  0
   73.0646   64.1669   14.3848 C   0  0  0  0  0  0  0  0  0  0  0  0
   71.8098   65.0318   14.2867 C   0  0  0  0  0  0  0  0  0  0  0  0
   70.7972   64.3392   15.1222 C   0  0  0  0  0  0  0  0  0  0  0  0
   71.5824   63.5707   16.1775 C   0  0  0  0  0  0  0  0  0  0  0  0
   74.3007   65.0142   14.5468 C   0  0  0  0  0  0  0  0  0  0  0  0
   74.5457   66.1067   15.7856 S   0  0  0  0  0  0  0  0  0  0  0  0
   76.0250   66.4110   15.0770 C   0  0  0  0  0  0  0  0  0  0  0  0
   76.2948   65.7002   13.9727 C   0  0  0  0  0  0  0  0  0  0  0  0
   75.2852   64.8982   13.6672 N   0  0  0  0  0  0  0  0  0  0  0  0
   77.5602   65.8266   13.1644 C   0  0  0  0  0  0  0  0  0  0  0  0
   77.7293   66.9982   12.4252 C   0  0  0  0  0  0  0  0  0  0  0  0
   78.8651   67.1905   11.6471 C   0  0  0  0  0  0  0  0  0  0  0  0
   79.8412   66.2020   11.6007 C   0  0  0  0  0  0  0  0  0  0  0  0
   79.6794   65.0279   12.3309 C   0  0  0  0  0  0  0  0  0  0  0  0
   80.6757   64.0575   12.2618 C   0  0  0  0  0  0  0  0  0  0  0  0
   78.5419   64.8270   13.1166 C   0  0  0  0  0  0  0  0  0  0  0  0
   78.4279   63.6276   13.8335 C   0  0  0  0  0  0  0  0  0  0  0  0
   79.4257   62.6578   13.7629 C   0  0  0  0  0  0  0  0  0  0  0  0
   80.5503   62.8725   12.9746 C   0  0  0  0  0  0  0  0  0  0  0  0
   73.5077   61.4066   16.9637 C   0  0  0  0  0  0  0  0  0  0  0  0
   74.4613   61.8256   18.0867 C   0  0  0  0  0  0  0  0  0  0  0  0
   73.8614   62.8976   18.9969 C   0  0  0  0  0  0  0  0  0  0  0  0
   74.8150   63.2571   20.1300 C   0  0  0  0  0  0  0  0  0  0  0  0
   76.1646   63.7214   19.5898 C   0  0  0  0  0  0  0  0  0  0  0  0
   76.7633   62.6855   18.6434 C   0  0  0  0  0  0  0  0  0  0  0  0
   75.7852   62.3362   17.5258 C   0  0  0  0  0  0  0  0  0  0  0  0
   73.6864   60.0022   16.6176 N   0  0  0  0  0  0  0  0  0  0  0  0
   72.7238   59.2376   16.1019 C   0  0  0  0  0  0  0  0  0  0  0  0
   71.5856   59.6275   15.9036 O   0  0  0  0  0  0  0  0  0  0  0  0
   74.5689   59.5947   16.7736 H   0  0  0  0  0  0  0  0  0  0  0  0
   73.0933   57.8172   15.7850 C   0  0  0  0  0  0  0  0  0  0  0  0
   71.8383   56.9876   15.5584 C   0  0  0  0  0  0  0  0  0  0  0  0
   73.8931   57.2333   16.8471 N   0  0  0  0  0  0  0  0  0  0  0  0
   74.0111   55.7898   16.9355 C   0  0  0  0  0  0  0  0  0  0  0  0
   73.4951   57.5539   17.7299 H   0  0  0  0  0  0  0  0  0  0  0  0
  1  2  2  0  0  0
  2 23  1  0  0  0
  2  3  1  0  0  0
 23 24  1  0  0  0
 23 30  1  0  0  0
 24 25  1  0  0  0
 24 29  1  0  0  0
 25 26  1  0  0  0
 26 27  1  0  0  0
 27 28  1  0  0  0
 28 29  1  0  0  0
 30 31  1  0  0  0
 31 32  2  0  0  0
 31 34  1  0  0  0
 34 35  1  0  0  0
 34 36  1  0  0  0
 36 37  1  0  0  0
  3  4  1  0  0  0
  3  7  1  0  0  0
  4  5  1  0  0  0
  4  8  1  0  0  0
  5  6  1  0  0  0
  6  7  1  0  0  0
  8  9  1  0  0  0
  8 12  2  0  0  0
  9 10  1  0  0  0
 10 11  2  0  0  0
 11 12  1  0  0  0
 11 13  1  0  0  0
 13 14  2  0  0  0
 13 19  1  0  0  0
 14 15  1  0  0  0
 15 16  2  0  0  0
 16 17  1  0  0  0
 17 18  2  0  0  0
 17 19  1  0  0  0
 18 22  1  0  0  0
 19 20  2  0  0  0
 20 21  1  0  0  0
 21 22  2  0  0  0
 30 33  1  0  0  0
 36 38  1  0  0  0
M  END
> <minimizedAffinity>
-6.89092

$$$$
3GT9_516_A_1


 38 42  0  0  0  0  0  0  0  0999 V2000
   80.5039   61.4913   14.9335 O   0  0  0  0  0  0  0  0  0  0  0  0
   80.8296   61.7852   13.7926 C   0  0  0  0  0  0  0  0  0  0  0  0
   80.2927   62.8338   13.1563 N   0  0  0  0  0  0  0  0  0  0  0  0
   79.2564   63.6275   13.8106 C   0  0  0  0  0  0  0  0  0  0  0  0
   78.9763   64.8032   12.8771 C   0  0  0  0  0  0  0  0  0  0  0  0
   80.1062   64.8097   11.9146 C   0  0  0  0  0  0  0  0  0  0  0  0
   80.5916   63.3681   11.8316 C   0  0  0  0  0  0  0  0  0  0  0  0
   77.9993   62.8474   14.0989 C   0  0  0  0  0  0  0  0  0  0  0  0
   77.2198   62.8171   15.5752 S   0  0  0  0  0  0  0  0  0  0  0  0
   76.1132   61.8035   14.8462 C   0  0  0  0  0  0  0  0  0  0  0  0
   76.3413   61.5321   13.5533 C   0  0  0  0  0  0  0  0  0  0  0  0
   77.4426   62.1351   13.1298 N   0  0  0  0  0  0  0  0  0  0  0  0
   75.4822   60.6291   12.7064 C   0  0  0  0  0  0  0  0  0  0  0  0
   75.8506   59.2851   12.6326 C   0  0  0  0  0  0  0  0  0  0  0  0
   75.1156   58.3872   11.8671 C   0  0  0  0  0  0  0  0  0  0  0  0
   74.0038   58.8344   11.1629 C   0  0  0  0  0  0  0  0  0  0  0  0
   73.6310   60.1741   11.2266 C   0  0  0  0  0  0  0  0  0  0  0  0
   72.5126   60.5896   10.5085 C   0  0  0  0  0  0  0  0  0  0  0  0
   74.3630   61.0830   11.9945 C   0  0  0  0  0  0  0  0  0  0  0  0
   73.9450   62.4208   12.0258 C   0  0  0  0  0  0  0  0  0  0  0  0
   72.8258   62.8346   11.3065 C   0  0  0  0  0  0  0  0  0  0  0  0
   72.1097   61.9179   10.5455 C   0  0  0  0  0  0  0  0  0  0  0  0
   81.8465   60.9412   13.0740 C   0  0  0  0  0  0  0  0  0  0  0  0
   81.1484   59.7328   12.4427 C   0  0  0  0  0  0  0  0  0  0  0  0
   80.0541   59.1526   13.3391 C   0  0  0  0  0  0  0  0  0  0  0  0
   79.3481   57.9836   12.6627 C   0  0  0  0  0  0  0  0  0  0  0  0
   80.3394   56.8920   12.2698 C   0  0  0  0  0  0  0  0  0  0  0  0
   81.4659   57.4567   11.4099 C   0  0  0  0  0  0  0  0  0  0  0  0
   82.1483   58.6309   12.1050 C   0  0  0  0  0  0  0  0  0  0  0  0
   82.9116   60.5221   13.9761 N   0  0  0  0  0  0  0  0  0  0  0  0
   83.9483   61.2921   14.3073 C   0  0  0  0  0  0  0  0  0  0  0  0
   84.1286   62.4112   13.8580 O   0  0  0  0  0  0  0  0  0  0  0  0
   82.8628   59.6183   14.3632 H   0  0  0  0  0  0  0  0  0  0  0  0
   84.9401   60.7038   15.2689 C   0  0  0  0  0  0  0  0  0  0  0  0
   85.0704   61.5933   16.4964 C   0  0  0  0  0  0  0  0  0  0  0  0
   86.2374   60.5252   14.6415 N   0  0  0  0  0  0  0  0  0  0  0  0
   86.4579   59.3782   13.7807 C   0  0  0  0  0  0  0  0  0  0  0  0
   86.9260   60.4707   15.3921 H   0  0  0  0  0  0  0  0  0  0  0  0
  1  2  2  0  0  0
  2 23  1  0  0  0
  2  3  1  0  0  0
 23 24  1  0  0  0
 23 30  1  0  0  0
 24 25  1  0  0  0
 24 29  1  0  0  0
 25 26  1  0  0  0
 26 27  1  0  0  0
 27 28  1  0  0  0
 28 29  1  0  0  0
 30 31  1  0  0  0
 31 32  2  0  0  0
 31 34  1  0  0  0
 34 35  1  0  0  0
 34 36  1  0  0  0
 36 37  1  0  0  0
  3  4  1  0  0  0
  3  7  1  0  0  0
  4  5  1  0  0  0
  4  8  1  0  0  0
  5  6  1  0  0  0
  6  7  1  0  0  0
  8  9  1  0  0  0
  8 12  2  0  0  0
  9 10  1  0  0  0
 10 11  2  0  0  0
 11 12  1  0  0  0
 11 13  1  0  0  0
 13 14  2  0  0  0
 13 19  1  0  0  0
 14 15  1  0  0  0
 15 16  2  0  0  0
 16 17  1  0  0  0
 17 18  2  0  0  0
 17 19  1  0  0  0
 18 22  1  0  0  0
 19 20  2  0  0  0
 20 21  1  0  0  0
 21 22  2  0  0  0
 30 33  1  0  0  0
 36 38  1  0  0  0
M  END
> <minimizedAffinity>
-6.87184

$$$$
3GT9_516_A_1


 38 42  0  0  0  0  0  0  0  0999 V2000
   83.8962   60.5500   11.3112 O   0  0  0  0  0  0  0  0  0  0  0  0
   84.0245   59.5786   12.0420 C   0  0  0  0  0  0  0  0  0  0  0  0
   83.1234   58.5886   12.0600 N   0  0  0  0  0  0  0  0  0  0  0  0
   81.9280   58.6793   11.2265 C   0  0  0  0  0  0  0  0  0  0  0  0
   81.2047   57.3435   11.3831 C   0  0  0  0  0  0  0  0  0  0  0  0
   82.1972   56.4388   12.0152 C   0  0  0  0  0  0  0  0  0  0  0  0
   83.1328   57.3384   12.8129 C   0  0  0  0  0  0  0  0  0  0  0  0
   81.0301   59.8330   11.5935 C   0  0  0  0  0  0  0  0  0  0  0  0
   80.2621   60.0057   13.0661 S   0  0  0  0  0  0  0  0  0  0  0  0
   79.6462   61.4300   12.4536 C   0  0  0  0  0  0  0  0  0  0  0  0
   80.0291   61.7368   11.2060 C   0  0  0  0  0  0  0  0  0  0  0  0
   80.8253   60.8004   10.7111 N   0  0  0  0  0  0  0  0  0  0  0  0
   79.5808   62.9626   10.4528 C   0  0  0  0  0  0  0  0  0  0  0  0
   79.0947   62.7724    9.1585 C   0  0  0  0  0  0  0  0  0  0  0  0
   78.6679   63.8517    8.3933 C   0  0  0  0  0  0  0  0  0  0  0  0
   78.7308   65.1358    8.9217 C   0  0  0  0  0  0  0  0  0  0  0  0
   79.2184   65.3361   10.2102 C   0  0  0  0  0  0  0  0  0  0  0  0
   79.2688   66.6352   10.7092 C   0  0  0  0  0  0  0  0  0  0  0  0
   79.6481   64.2571   10.9866 C   0  0  0  0  0  0  0  0  0  0  0  0
   80.1295   64.5127   12.2782 C   0  0  0  0  0  0  0  0  0  0  0  0
   80.1794   65.8132   12.7756 C   0  0  0  0  0  0  0  0  0  0  0  0
   79.7500   66.8759   11.9893 C   0  0  0  0  0  0  0  0  0  0  0  0
   85.2142   59.4959   12.9589 C   0  0  0  0  0  0  0  0  0  0  0  0
   85.1686   60.6580   13.9557 C   0  0  0  0  0  0  0  0  0  0  0  0
   85.4723   60.2156   15.3873 C   0  0  0  0  0  0  0  0  0  0  0  0
   85.4661   61.4012   16.3449 C   0  0  0  0  0  0  0  0  0  0  0  0
   84.1341   62.1440   16.2957 C   0  0  0  0  0  0  0  0  0  0  0  0
   83.7882   62.5578   14.8687 C   0  0  0  0  0  0  0  0  0  0  0  0
   83.8117   61.3554   13.9299 C   0  0  0  0  0  0  0  0  0  0  0  0
   86.4600   59.4992   12.2027 N   0  0  0  0  0  0  0  0  0  0  0  0
   87.6245   59.0714   12.6907 C   0  0  0  0  0  0  0  0  0  0  0  0
   87.7710   58.6695   13.8326 O   0  0  0  0  0  0  0  0  0  0  0  0
   86.4406   59.8370   11.2781 H   0  0  0  0  0  0  0  0  0  0  0  0
   88.8021   59.1271   11.7609 C   0  0  0  0  0  0  0  0  0  0  0  0
   88.8927   57.8410   10.9529 C   0  0  0  0  0  0  0  0  0  0  0  0
   90.0379   59.3463   12.4912 N   0  0  0  0  0  0  0  0  0  0  0  0
   90.6634   60.6549   12.4518 C   0  0  0  0  0  0  0  0  0  0  0  0
   90.7197   58.6796   12.1292 H   0  0  0  0  0  0  0  0  0  0  0  0
  1  2  2  0  0  0
  2 23  1  0  0  0
  2  3  1  0  0  0
 23 24  1  0  0  0
 23 30  1  0  0  0
 24 25  1  0  0  0
 24 29  1  0  0  0
 25 26  1  0  0  0
 26 27  1  0  0  0
 27 28  1  0  0  0
 28 29  1  0  0  0
 30 31  1  0  0  0
 31 32  2  0  0  0
 31 34  1  0  0  0
 34 35  1  0  0  0
 34 36  1  0  0  0
 36 37  1  0  0  0
  3  4  1  0  0  0
  3  7  1  0  0  0
  4  5  1  0  0  0
  4  8  1  0  0  0
  5  6  1  0  0  0
  6  7  1  0  0  0
  8  9  1  0  0  0
  8 12  2  0  0  0
  9 10  1  0  0  0
 10 11  2  0  0  0
 11 12  1  0  0  0
 11 13  1  0  0  0
 13 14  2  0  0  0
 13 19  1  0  0  0
 14 15  1  0  0  0
 15 16  2  0  0  0
 16 17  1  0  0  0
 17 18  2  0  0  0
 17 19  1  0  0  0
 18 22  1  0  0  0
 19 20  2  0  0  0
 20 21  1  0  0  0
 21 22  2  0  0  0
 30 33  1  0  0  0
 36 38  1  0  0  0
M  END
> <minimizedAffinity>
-6.80750

$$$$
