2QWB_SIA_A_800


 28 28  0  0  0  0  0  0  0  0999 V2000
   24.8409   16.4440   61.8554 C   0  0  0  0  0  0  0  0  0  0  0  0
   23.9208   16.5516   63.1174 C   0  0  0  0  0  0  0  0  0  0  0  0
   24.3865   17.5948   64.1094 C   0  0  0  0  0  0  0  0  0  0  0  0
   25.3103   18.6401   63.4600 C   0  0  0  0  0  0  0  0  0  0  0  0
   26.5519   17.9982   62.9219 C   0  0  0  0  0  0  0  0  0  0  0  0
   24.3680   17.2656   60.7939 O   0  0  0  0  0  0  0  0  0  0  0  0
   23.3136   18.2455   64.6750 O   0  0  0  0  0  0  0  0  0  0  0  0
   26.2030   16.8510   62.1388 O   0  0  0  0  0  0  0  0  0  0  0  0
   23.4551   17.0199   60.5769 H   0  0  0  0  0  0  0  0  0  0  0  0
   22.8207   18.7165   63.9850 H   0  0  0  0  0  0  0  0  0  0  0  0
   25.4931   20.8507   64.4750 C   0  0  0  0  0  0  0  0  0  0  0  0
   25.9442   21.7442   65.5597 C   0  0  0  0  0  0  0  0  0  0  0  0
   25.7593   19.5508   64.5334 N   0  0  0  0  0  0  0  0  0  0  0  0
   24.8452   21.3541   63.5557 O   0  0  0  0  0  0  0  0  0  0  0  0
   26.2611   19.1903   65.2999 H   0  0  0  0  0  0  0  0  0  0  0  0
   24.8013   14.9875   61.4125 C   0  0  0  0  0  0  0  0  0  0  0  0
   24.3090   14.0757   62.1196 O   0  0  0  0  0  0  0  0  0  0  0  0
   25.3310   14.7930   60.3004 O   0  0  0  0  0  0  0  0  0  0  0  0
   25.6826   15.5141   59.8164 H   0  0  0  0  0  0  0  0  0  0  0  0
   27.3975   18.9224   62.0294 C   0  0  0  0  0  0  0  0  0  0  0  0
   26.5441   19.7867   61.3657 O   0  0  0  0  0  0  0  0  0  0  0  0
   25.9218   19.2751   60.8255 H   0  0  0  0  0  0  0  0  0  0  0  0
   28.2013   18.0846   61.0033 C   0  0  0  0  0  0  0  0  0  0  0  0
   29.5032   18.5656   61.2099 O   0  0  0  0  0  0  0  0  0  0  0  0
   29.5141   19.5286   61.0944 H   0  0  0  0  0  0  0  0  0  0  0  0
   27.6860   18.3753   59.5683 C   0  0  0  0  0  0  0  0  0  0  0  0
   26.7478   17.4159   59.2806 O   0  0  0  0  0  0  0  0  0  0  0  0
   27.1536   16.5372   59.3451 H   0  0  0  0  0  0  0  0  0  0  0  0
 16  1  1  0  0  0
 16 17  2  0  0  0
 16 18  1  0  0  0
  1  2  1  0  0  0
  1  6  1  0  0  0
  1  8  1  0  0  0
  2  3  1  0  0  0
  3  4  1  0  0  0
  3  7  1  0  0  0
  4  5  1  0  0  0
  4 13  1  0  0  0
  5 20  1  0  0  0
  5  8  1  0  0  0
 20 23  1  0  0  0
 20 21  1  0  0  0
 23 26  1  0  0  0
 23 24  1  0  0  0
 26 27  1  0  0  0
 11 12  1  0  0  0
 11 13  1  0  0  0
 11 14  2  0  0  0
 13 15  1  0  0  0
 18 19  1  0  0  0
  6  9  1  0  0  0
  7 10  1  0  0  0
 21 22  1  0  0  0
 24 25  1  0  0  0
 27 28  1  0  0  0
M  END
> <minimizedAffinity>
-7.28837

$$$$
2QWB_SIA_A_800


 28 28  0  0  0  0  0  0  0  0999 V2000
   24.7718   18.5853   64.5473 C   0  0  0  0  0  0  0  0  0  0  0  0
   23.6215   17.6081   64.1319 C   0  0  0  0  0  0  0  0  0  0  0  0
   23.9845   16.7208   62.9614 C   0  0  0  0  0  0  0  0  0  0  0  0
   25.5073   16.6001   62.7765 C   0  0  0  0  0  0  0  0  0  0  0  0
   26.1202   17.9359   62.4880 C   0  0  0  0  0  0  0  0  0  0  0  0
   25.5824   18.0287   65.5762 O   0  0  0  0  0  0  0  0  0  0  0  0
   23.4586   15.4590   63.1225 O   0  0  0  0  0  0  0  0  0  0  0  0
   25.6465   18.9001   63.4351 O   0  0  0  0  0  0  0  0  0  0  0  0
   25.0275   17.8052   66.3397 H   0  0  0  0  0  0  0  0  0  0  0  0
   23.8407   15.0481   63.9137 H   0  0  0  0  0  0  0  0  0  0  0  0
   26.5326   14.7202   61.6079 C   0  0  0  0  0  0  0  0  0  0  0  0
   26.7435   13.9109   60.3919 C   0  0  0  0  0  0  0  0  0  0  0  0
   25.7354   15.7818   61.5675 N   0  0  0  0  0  0  0  0  0  0  0  0
   27.0917   14.3500   62.6418 O   0  0  0  0  0  0  0  0  0  0  0  0
   25.2918   16.0259   60.7232 H   0  0  0  0  0  0  0  0  0  0  0  0
   24.1006   19.8479   65.0712 C   0  0  0  0  0  0  0  0  0  0  0  0
   24.7435   20.7985   65.5781 O   0  0  0  0  0  0  0  0  0  0  0  0
   22.8577   19.8256   64.9735 O   0  0  0  0  0  0  0  0  0  0  0  0
   22.4315   19.0872   64.5849 H   0  0  0  0  0  0  0  0  0  0  0  0
   27.6569   17.9462   62.5531 C   0  0  0  0  0  0  0  0  0  0  0  0
   28.0524   17.1648   63.6248 O   0  0  0  0  0  0  0  0  0  0  0  0
   27.6790   17.5263   64.4438 H   0  0  0  0  0  0  0  0  0  0  0  0
   28.1736   19.3952   62.7385 C   0  0  0  0  0  0  0  0  0  0  0  0
   27.5814   20.0442   61.6445 O   0  0  0  0  0  0  0  0  0  0  0  0
   27.8325   19.5905   60.8247 H   0  0  0  0  0  0  0  0  0  0  0  0
   29.7240   19.4137   62.6665 C   0  0  0  0  0  0  0  0  0  0  0  0
   30.0847   18.5755   61.6415 O   0  0  0  0  0  0  0  0  0  0  0  0
   29.7442   17.6844   61.8174 H   0  0  0  0  0  0  0  0  0  0  0  0
 16  1  1  0  0  0
 16 17  2  0  0  0
 16 18  1  0  0  0
  1  2  1  0  0  0
  1  6  1  0  0  0
  1  8  1  0  0  0
  2  3  1  0  0  0
  3  4  1  0  0  0
  3  7  1  0  0  0
  4  5  1  0  0  0
  4 13  1  0  0  0
  5 20  1  0  0  0
  5  8  1  0  0  0
 20 23  1  0  0  0
 20 21  1  0  0  0
 23 26  1  0  0  0
 23 24  1  0  0  0
 26 27  1  0  0  0
 11 12  1  0  0  0
 11 13  1  0  0  0
 11 14  2  0  0  0
 13 15  1  0  0  0
 18 19  1  0  0  0
  6  9  1  0  0  0
  7 10  1  0  0  0
 21 22  1  0  0  0
 24 25  1  0  0  0
 27 28  1  0  0  0
M  END
> <minimizedAffinity>
-7.23170

$$$$
2QWB_SIA_A_800


 28 28  0  0  0  0  0  0  0  0999 V2000
   26.1382   15.9938   60.7552 C   0  0  0  0  0  0  0  0  0  0  0  0
   24.9329   15.7799   61.7310 C   0  0  0  0  0  0  0  0  0  0  0  0
   24.9754   16.6870   62.9412 C   0  0  0  0  0  0  0  0  0  0  0  0
   25.8563   17.9264   62.7055 C   0  0  0  0  0  0  0  0  0  0  0  0
   27.2756   17.5320   62.4347 C   0  0  0  0  0  0  0  0  0  0  0  0
   25.8172   16.9230   59.7261 O   0  0  0  0  0  0  0  0  0  0  0  0
   23.7095   17.1048   63.2841 O   0  0  0  0  0  0  0  0  0  0  0  0
   27.3101   16.5013   61.4410 O   0  0  0  0  0  0  0  0  0  0  0  0
   25.0341   16.6139   59.2442 H   0  0  0  0  0  0  0  0  0  0  0  0
   23.3330   17.6256   62.5576 H   0  0  0  0  0  0  0  0  0  0  0  0
   25.7152   20.0057   63.9733 C   0  0  0  0  0  0  0  0  0  0  0  0
   25.7391   20.7492   65.2480 C   0  0  0  0  0  0  0  0  0  0  0  0
   25.8834   18.6882   63.9713 N   0  0  0  0  0  0  0  0  0  0  0  0
   25.5027   20.6485   62.9437 O   0  0  0  0  0  0  0  0  0  0  0  0
   26.0277   18.2142   64.8220 H   0  0  0  0  0  0  0  0  0  0  0  0
   26.4338   14.6384   60.1270 C   0  0  0  0  0  0  0  0  0  0  0  0
   27.5985   14.2459   59.8756 O   0  0  0  0  0  0  0  0  0  0  0  0
   25.4082   13.9801   59.8631 O   0  0  0  0  0  0  0  0  0  0  0  0
   24.5629   14.3248   60.0746 H   0  0  0  0  0  0  0  0  0  0  0  0
   28.1597   18.6850   61.9299 C   0  0  0  0  0  0  0  0  0  0  0  0
   28.5738   18.3850   60.6438 O   0  0  0  0  0  0  0  0  0  0  0  0
   29.0757   17.5550   60.6510 H   0  0  0  0  0  0  0  0  0  0  0  0
   29.3920   18.8566   62.8535 C   0  0  0  0  0  0  0  0  0  0  0  0
   29.0084   18.1021   63.9727 O   0  0  0  0  0  0  0  0  0  0  0  0
   28.1596   18.4302   64.3083 H   0  0  0  0  0  0  0  0  0  0  0  0
   29.5887   20.3582   63.1940 C   0  0  0  0  0  0  0  0  0  0  0  0
   28.6244   21.0516   62.5067 O   0  0  0  0  0  0  0  0  0  0  0  0
   28.7207   20.8835   61.5562 H   0  0  0  0  0  0  0  0  0  0  0  0
 16  1  1  0  0  0
 16 17  2  0  0  0
 16 18  1  0  0  0
  1  2  1  0  0  0
  1  6  1  0  0  0
  1  8  1  0  0  0
  2  3  1  0  0  0
  3  4  1  0  0  0
  3  7  1  0  0  0
  4  5  1  0  0  0
  4 13  1  0  0  0
  5 20  1  0  0  0
  5  8  1  0  0  0
 20 23  1  0  0  0
 20 21  1  0  0  0
 23 26  1  0  0  0
 23 24  1  0  0  0
 26 27  1  0  0  0
 11 12  1  0  0  0
 11 13  1  0  0  0
 11 14  2  0  0  0
 13 15  1  0  0  0
 18 19  1  0  0  0
  6  9  1  0  0  0
  7 10  1  0  0  0
 21 22  1  0  0  0
 24 25  1  0  0  0
 27 28  1  0  0  0
M  END
> <minimizedAffinity>
-7.19142

$$$$
2QWB_SIA_A_800


 28 28  0  0  0  0  0  0  0  0999 V2000
   24.5461   15.8220   61.6735 C   0  0  0  0  0  0  0  0  0  0  0  0
   23.9001   16.5829   62.8796 C   0  0  0  0  0  0  0  0  0  0  0  0
   24.8884   17.4315   63.6493 C   0  0  0  0  0  0  0  0  0  0  0  0
   26.1365   17.7678   62.8146 C   0  0  0  0  0  0  0  0  0  0  0  0
   26.8743   16.5231   62.4275 C   0  0  0  0  0  0  0  0  0  0  0  0
   24.4283   16.5647   60.4653 O   0  0  0  0  0  0  0  0  0  0  0  0
   24.3051   18.6074   64.0635 O   0  0  0  0  0  0  0  0  0  0  0  0
   25.9573   15.5665   61.8842 O   0  0  0  0  0  0  0  0  0  0  0  0
   23.4929   16.7543   60.2921 H   0  0  0  0  0  0  0  0  0  0  0  0
   24.0361   19.1253   63.2887 H   0  0  0  0  0  0  0  0  0  0  0  0
   27.6295   19.6440   63.2637 C   0  0  0  0  0  0  0  0  0  0  0  0
   28.5388   20.3907   64.1547 C   0  0  0  0  0  0  0  0  0  0  0  0
   27.0545   18.5252   63.6903 N   0  0  0  0  0  0  0  0  0  0  0  0
   27.4110   20.1177   62.1473 O   0  0  0  0  0  0  0  0  0  0  0  0
   27.2420   18.1973   64.5995 H   0  0  0  0  0  0  0  0  0  0  0  0
   23.7834   14.5119   61.5283 C   0  0  0  0  0  0  0  0  0  0  0  0
   23.2730   13.9114   62.5044 O   0  0  0  0  0  0  0  0  0  0  0  0
   23.7461   14.0873   60.3565 O   0  0  0  0  0  0  0  0  0  0  0  0
   24.1455   14.5799   59.6667 H   0  0  0  0  0  0  0  0  0  0  0  0
   27.9755   16.7497   61.3778 C   0  0  0  0  0  0  0  0  0  0  0  0
   27.5780   16.1525   60.1941 O   0  0  0  0  0  0  0  0  0  0  0  0
   27.4433   15.2031   60.3402 H   0  0  0  0  0  0  0  0  0  0  0  0
   29.3094   16.1263   61.8604 C   0  0  0  0  0  0  0  0  0  0  0  0
   28.8611   15.2472   62.8579 O   0  0  0  0  0  0  0  0  0  0  0  0
   28.3442   15.7397   63.5145 H   0  0  0  0  0  0  0  0  0  0  0  0
   30.2347   17.2370   62.4256 C   0  0  0  0  0  0  0  0  0  0  0  0
   30.2485   18.2516   61.5017 O   0  0  0  0  0  0  0  0  0  0  0  0
   30.5728   17.9117   60.6530 H   0  0  0  0  0  0  0  0  0  0  0  0
 16  1  1  0  0  0
 16 17  2  0  0  0
 16 18  1  0  0  0
  1  2  1  0  0  0
  1  6  1  0  0  0
  1  8  1  0  0  0
  2  3  1  0  0  0
  3  4  1  0  0  0
  3  7  1  0  0  0
  4  5  1  0  0  0
  4 13  1  0  0  0
  5 20  1  0  0  0
  5  8  1  0  0  0
 20 23  1  0  0  0
 20 21  1  0  0  0
 23 26  1  0  0  0
 23 24  1  0  0  0
 26 27  1  0  0  0
 11 12  1  0  0  0
 11 13  1  0  0  0
 11 14  2  0  0  0
 13 15  1  0  0  0
 18 19  1  0  0  0
  6  9  1  0  0  0
  7 10  1  0  0  0
 21 22  1  0  0  0
 24 25  1  0  0  0
 27 28  1  0  0  0
M  END
> <minimizedAffinity>
-7.14844

$$$$
2QWB_SIA_A_800


 28 28  0  0  0  0  0  0  0  0999 V2000
   25.2124   16.3061   61.7164 C   0  0  0  0  0  0  0  0  0  0  0  0
   26.1677   15.0718   61.5949 C   0  0  0  0  0  0  0  0  0  0  0  0
   27.6325   15.4497   61.5722 C   0  0  0  0  0  0  0  0  0  0  0  0
   27.8805   16.8438   62.1745 C   0  0  0  0  0  0  0  0  0  0  0  0
   27.1686   17.9018   61.3891 C   0  0  0  0  0  0  0  0  0  0  0  0
   24.8796   16.5760   63.0735 O   0  0  0  0  0  0  0  0  0  0  0  0
   28.3859   14.5297   62.2654 O   0  0  0  0  0  0  0  0  0  0  0  0
   25.8080   17.5107   61.1729 O   0  0  0  0  0  0  0  0  0  0  0  0
   24.4769   15.7880   63.4706 H   0  0  0  0  0  0  0  0  0  0  0  0
   28.1132   14.5239   63.1962 H   0  0  0  0  0  0  0  0  0  0  0  0
   30.1482   17.0075   63.0585 C   0  0  0  0  0  0  0  0  0  0  0  0
   31.5862   17.2936   62.8897 C   0  0  0  0  0  0  0  0  0  0  0  0
   29.3221   17.1319   62.0260 N   0  0  0  0  0  0  0  0  0  0  0  0
   29.7706   16.6247   64.1673 O   0  0  0  0  0  0  0  0  0  0  0  0
   29.6739   17.4192   61.1525 H   0  0  0  0  0  0  0  0  0  0  0  0
   23.9430   15.9490   60.9546 C   0  0  0  0  0  0  0  0  0  0  0  0
   23.6354   14.7682   60.6629 O   0  0  0  0  0  0  0  0  0  0  0  0
   23.2648   16.9430   60.6277 O   0  0  0  0  0  0  0  0  0  0  0  0
   23.5446   17.8027   60.8742 H   0  0  0  0  0  0  0  0  0  0  0  0
   27.1463   19.2796   62.0725 C   0  0  0  0  0  0  0  0  0  0  0  0
   28.3848   19.8723   61.8978 O   0  0  0  0  0  0  0  0  0  0  0  0
   29.0703   19.3118   62.2939 H   0  0  0  0  0  0  0  0  0  0  0  0
   26.8469   19.1208   63.5844 C   0  0  0  0  0  0  0  0  0  0  0  0
   25.4619   19.3429   63.6189 O   0  0  0  0  0  0  0  0  0  0  0  0
   25.2626   20.2045   63.2204 H   0  0  0  0  0  0  0  0  0  0  0  0
   27.6353   20.1869   64.3914 C   0  0  0  0  0  0  0  0  0  0  0  0
   27.1250   21.4108   64.0382 O   0  0  0  0  0  0  0  0  0  0  0  0
   27.2242   21.5387   63.0818 H   0  0  0  0  0  0  0  0  0  0  0  0
 16  1  1  0  0  0
 16 17  2  0  0  0
 16 18  1  0  0  0
  1  2  1  0  0  0
  1  6  1  0  0  0
  1  8  1  0  0  0
  2  3  1  0  0  0
  3  4  1  0  0  0
  3  7  1  0  0  0
  4  5  1  0  0  0
  4 13  1  0  0  0
  5 20  1  0  0  0
  5  8  1  0  0  0
 20 23  1  0  0  0
 20 21  1  0  0  0
 23 26  1  0  0  0
 23 24  1  0  0  0
 26 27  1  0  0  0
 11 12  1  0  0  0
 11 13  1  0  0  0
 11 14  2  0  0  0
 13 15  1  0  0  0
 18 19  1  0  0  0
  6  9  1  0  0  0
  7 10  1  0  0  0
 21 22  1  0  0  0
 24 25  1  0  0  0
 27 28  1  0  0  0
M  END
> <minimizedAffinity>
-6.94830

$$$$
2QWB_SIA_A_800


 28 28  0  0  0  0  0  0  0  0999 V2000
   26.4615   18.1123   62.1485 C   0  0  0  0  0  0  0  0  0  0  0  0
   25.1652   17.2587   62.3530 C   0  0  0  0  0  0  0  0  0  0  0  0
   24.6482   17.2883   63.7746 C   0  0  0  0  0  0  0  0  0  0  0  0
   25.1697   18.5073   64.5553 C   0  0  0  0  0  0  0  0  0  0  0  0
   26.6636   18.4786   64.6595 C   0  0  0  0  0  0  0  0  0  0  0  0
   26.1532   19.4327   61.7161 O   0  0  0  0  0  0  0  0  0  0  0  0
   23.2721   17.3079   63.7943 O   0  0  0  0  0  0  0  0  0  0  0  0
   27.2337   18.2301   63.3695 O   0  0  0  0  0  0  0  0  0  0  0  0
   25.6345   19.3921   60.8975 H   0  0  0  0  0  0  0  0  0  0  0  0
   22.9541   18.1172   63.3644 H   0  0  0  0  0  0  0  0  0  0  0  0
   23.6032   19.0758   66.3368 C   0  0  0  0  0  0  0  0  0  0  0  0
   23.1106   18.9369   67.7211 C   0  0  0  0  0  0  0  0  0  0  0  0
   24.6661   18.3858   65.9392 N   0  0  0  0  0  0  0  0  0  0  0  0
   22.9739   19.8181   65.5809 O   0  0  0  0  0  0  0  0  0  0  0  0
   25.1233   17.7871   66.5731 H   0  0  0  0  0  0  0  0  0  0  0  0
   27.2759   17.4128   61.0684 C   0  0  0  0  0  0  0  0  0  0  0  0
   28.0745   16.4781   61.3184 O   0  0  0  0  0  0  0  0  0  0  0  0
   27.0917   17.8809   59.9274 O   0  0  0  0  0  0  0  0  0  0  0  0
   26.4812   18.5804   59.8009 H   0  0  0  0  0  0  0  0  0  0  0  0
   27.2789   19.7853   65.1885 C   0  0  0  0  0  0  0  0  0  0  0  0
   26.9532   19.9088   66.5281 O   0  0  0  0  0  0  0  0  0  0  0  0
   25.9883   19.9281   66.6258 H   0  0  0  0  0  0  0  0  0  0  0  0
   26.7228   20.9959   64.3974 C   0  0  0  0  0  0  0  0  0  0  0  0
   27.7058   21.1583   63.4094 O   0  0  0  0  0  0  0  0  0  0  0  0
   28.5723   21.2703   63.8308 H   0  0  0  0  0  0  0  0  0  0  0  0
   26.6164   22.2307   65.3319 C   0  0  0  0  0  0  0  0  0  0  0  0
   26.7651   23.3422   64.5410 O   0  0  0  0  0  0  0  0  0  0  0  0
   27.6233   23.3060   64.0904 H   0  0  0  0  0  0  0  0  0  0  0  0
 16  1  1  0  0  0
 16 17  2  0  0  0
 16 18  1  0  0  0
  1  2  1  0  0  0
  1  6  1  0  0  0
  1  8  1  0  0  0
  2  3  1  0  0  0
  3  4  1  0  0  0
  3  7  1  0  0  0
  4  5  1  0  0  0
  4 13  1  0  0  0
  5 20  1  0  0  0
  5  8  1  0  0  0
 20 23  1  0  0  0
 20 21  1  0  0  0
 23 26  1  0  0  0
 23 24  1  0  0  0
 26 27  1  0  0  0
 11 12  1  0  0  0
 11 13  1  0  0  0
 11 14  2  0  0  0
 13 15  1  0  0  0
 18 19  1  0  0  0
  6  9  1  0  0  0
  7 10  1  0  0  0
 21 22  1  0  0  0
 24 25  1  0  0  0
 27 28  1  0  0  0
M  END
> <minimizedAffinity>
-6.90229

$$$$
2QWB_SIA_A_800


 28 28  0  0  0  0  0  0  0  0999 V2000
   28.7775   20.8899   64.3894 C   0  0  0  0  0  0  0  0  0  0  0  0
   29.9671   20.2842   63.5716 C   0  0  0  0  0  0  0  0  0  0  0  0
   29.6011   19.0137   62.8362 C   0  0  0  0  0  0  0  0  0  0  0  0
   28.0822   18.8817   62.6283 C   0  0  0  0  0  0  0  0  0  0  0  0
   27.3644   18.8204   63.9414 C   0  0  0  0  0  0  0  0  0  0  0  0
   28.0652   21.8614   63.6315 O   0  0  0  0  0  0  0  0  0  0  0  0
   30.2201   18.9638   61.6078 O   0  0  0  0  0  0  0  0  0  0  0  0
   27.8229   19.8765   64.7931 O   0  0  0  0  0  0  0  0  0  0  0  0
   28.6756   22.5580   63.3435 H   0  0  0  0  0  0  0  0  0  0  0  0
   29.9116   19.7025   61.0601 H   0  0  0  0  0  0  0  0  0  0  0  0
   27.3741   17.5150   60.7358 C   0  0  0  0  0  0  0  0  0  0  0  0
   27.1482   16.2030   60.0988 C   0  0  0  0  0  0  0  0  0  0  0  0
   27.8439   17.5772   61.9766 N   0  0  0  0  0  0  0  0  0  0  0  0
   27.1433   18.5213   60.0631 O   0  0  0  0  0  0  0  0  0  0  0  0
   28.0352   16.7454   62.4673 H   0  0  0  0  0  0  0  0  0  0  0  0
   29.3888   21.5628   65.6111 C   0  0  0  0  0  0  0  0  0  0  0  0
   29.9247   20.9183   66.5445 O   0  0  0  0  0  0  0  0  0  0  0  0
   29.2750   22.8046   65.6020 O   0  0  0  0  0  0  0  0  0  0  0  0
   28.8648   23.2322   64.8762 H   0  0  0  0  0  0  0  0  0  0  0  0
   25.8366   18.9554   63.8259 C   0  0  0  0  0  0  0  0  0  0  0  0
   25.5549   20.0785   63.0677 O   0  0  0  0  0  0  0  0  0  0  0  0
   25.9298   20.8622   63.4991 H   0  0  0  0  0  0  0  0  0  0  0  0
   25.2054   19.0983   65.2338 C   0  0  0  0  0  0  0  0  0  0  0  0
   25.8816   18.0956   65.9452 O   0  0  0  0  0  0  0  0  0  0  0  0
   25.7631   17.2442   65.4957 H   0  0  0  0  0  0  0  0  0  0  0  0
   23.6775   18.8364   65.1540 C   0  0  0  0  0  0  0  0  0  0  0  0
   23.0808   20.0422   64.8835 O   0  0  0  0  0  0  0  0  0  0  0  0
   23.3002   20.6760   65.5842 H   0  0  0  0  0  0  0  0  0  0  0  0
 16  1  1  0  0  0
 16 17  2  0  0  0
 16 18  1  0  0  0
  1  2  1  0  0  0
  1  6  1  0  0  0
  1  8  1  0  0  0
  2  3  1  0  0  0
  3  4  1  0  0  0
  3  7  1  0  0  0
  4  5  1  0  0  0
  4 13  1  0  0  0
  5 20  1  0  0  0
  5  8  1  0  0  0
 20 23  1  0  0  0
 20 21  1  0  0  0
 23 26  1  0  0  0
 23 24  1  0  0  0
 26 27  1  0  0  0
 11 12  1  0  0  0
 11 13  1  0  0  0
 11 14  2  0  0  0
 13 15  1  0  0  0
 18 19  1  0  0  0
  6  9  1  0  0  0
  7 10  1  0  0  0
 21 22  1  0  0  0
 24 25  1  0  0  0
 27 28  1  0  0  0
M  END
> <minimizedAffinity>
-6.76870

$$$$
2QWB_SIA_A_800


 28 28  0  0  0  0  0  0  0  0999 V2000
   29.0096   17.7504   62.1214 C   0  0  0  0  0  0  0  0  0  0  0  0
   29.1765   16.2615   61.6676 C   0  0  0  0  0  0  0  0  0  0  0  0
   27.9644   15.4064   61.9655 C   0  0  0  0  0  0  0  0  0  0  0  0
   26.6926   16.2511   62.1571 C   0  0  0  0  0  0  0  0  0  0  0  0
   26.8374   17.1822   63.3212 C   0  0  0  0  0  0  0  0  0  0  0  0
   28.5178   18.5657   61.0636 O   0  0  0  0  0  0  0  0  0  0  0  0
   27.7437   14.5009   60.9526 O   0  0  0  0  0  0  0  0  0  0  0  0
   28.0841   17.8811   63.2294 O   0  0  0  0  0  0  0  0  0  0  0  0
   29.1152   18.5024   60.3020 H   0  0  0  0  0  0  0  0  0  0  0  0
   27.5543   14.9769   60.1289 H   0  0  0  0  0  0  0  0  0  0  0  0
   24.6885   14.9677   61.6208 C   0  0  0  0  0  0  0  0  0  0  0  0
   23.6106   14.0325   61.9970 C   0  0  0  0  0  0  0  0  0  0  0  0
   25.6025   15.3209   62.5174 N   0  0  0  0  0  0  0  0  0  0  0  0
   24.7153   15.3656   60.4548 O   0  0  0  0  0  0  0  0  0  0  0  0
   25.5532   14.9591   63.4317 H   0  0  0  0  0  0  0  0  0  0  0  0
   30.3946   18.2394   62.5236 C   0  0  0  0  0  0  0  0  0  0  0  0
   30.7842   18.2707   63.7156 O   0  0  0  0  0  0  0  0  0  0  0  0
   31.0817   18.6301   61.5591 O   0  0  0  0  0  0  0  0  0  0  0  0
   30.7376   18.5825   60.6889 H   0  0  0  0  0  0  0  0  0  0  0  0
   25.7251   18.2402   63.4182 C   0  0  0  0  0  0  0  0  0  0  0  0
   25.8049   19.0589   62.3051 O   0  0  0  0  0  0  0  0  0  0  0  0
   26.6748   19.4873   62.2805 H   0  0  0  0  0  0  0  0  0  0  0  0
   25.9012   19.0834   64.7061 C   0  0  0  0  0  0  0  0  0  0  0  0
   26.3207   18.1074   65.6228 O   0  0  0  0  0  0  0  0  0  0  0  0
   25.6677   17.3908   65.6535 H   0  0  0  0  0  0  0  0  0  0  0  0
   24.5444   19.7229   65.1054 C   0  0  0  0  0  0  0  0  0  0  0  0
   24.3596   20.8081   64.2858 O   0  0  0  0  0  0  0  0  0  0  0  0
   25.0963   21.4286   64.4000 H   0  0  0  0  0  0  0  0  0  0  0  0
 16  1  1  0  0  0
 16 17  2  0  0  0
 16 18  1  0  0  0
  1  2  1  0  0  0
  1  6  1  0  0  0
  1  8  1  0  0  0
  2  3  1  0  0  0
  3  4  1  0  0  0
  3  7  1  0  0  0
  4  5  1  0  0  0
  4 13  1  0  0  0
  5 20  1  0  0  0
  5  8  1  0  0  0
 20 23  1  0  0  0
 20 21  1  0  0  0
 23 26  1  0  0  0
 23 24  1  0  0  0
 26 27  1  0  0  0
 11 12  1  0  0  0
 11 13  1  0  0  0
 11 14  2  0  0  0
 13 15  1  0  0  0
 18 19  1  0  0  0
  6  9  1  0  0  0
  7 10  1  0  0  0
 21 22  1  0  0  0
 24 25  1  0  0  0
 27 28  1  0  0  0
M  END
> <minimizedAffinity>
-6.61703

$$$$
2QWB_SIA_A_800


 28 28  0  0  0  0  0  0  0  0999 V2000
   28.1634   19.4278   63.4311 C   0  0  0  0  0  0  0  0  0  0  0  0
   26.7263   19.3706   62.8129 C   0  0  0  0  0  0  0  0  0  0  0  0
   26.5413   18.2313   61.8348 C   0  0  0  0  0  0  0  0  0  0  0  0
   27.5796   17.1149   62.0429 C   0  0  0  0  0  0  0  0  0  0  0  0
   28.9696   17.6272   61.8223 C   0  0  0  0  0  0  0  0  0  0  0  0
   28.2282   18.7227   64.6656 O   0  0  0  0  0  0  0  0  0  0  0  0
   25.2816   17.6884   61.9486 O   0  0  0  0  0  0  0  0  0  0  0  0
   29.1576   18.8452   62.5517 O   0  0  0  0  0  0  0  0  0  0  0  0
   27.5734   19.0877   65.2812 H   0  0  0  0  0  0  0  0  0  0  0  0
   25.1694   17.3151   62.8368 H   0  0  0  0  0  0  0  0  0  0  0  0
   26.7910   14.9358   61.2811 C   0  0  0  0  0  0  0  0  0  0  0  0
   26.5634   13.9415   60.2143 C   0  0  0  0  0  0  0  0  0  0  0  0
   27.3498   16.1048   60.9892 N   0  0  0  0  0  0  0  0  0  0  0  0
   26.4147   14.6464   62.4182 O   0  0  0  0  0  0  0  0  0  0  0  0
   27.6135   16.3004   60.0611 H   0  0  0  0  0  0  0  0  0  0  0  0
   28.4699   20.8984   63.6816 C   0  0  0  0  0  0  0  0  0  0  0  0
   28.0735   21.5104   64.7024 O   0  0  0  0  0  0  0  0  0  0  0  0
   29.1216   21.4325   62.7624 O   0  0  0  0  0  0  0  0  0  0  0  0
   29.3912   20.9243   62.0227 H   0  0  0  0  0  0  0  0  0  0  0  0
   30.0734   16.6522   62.2661 C   0  0  0  0  0  0  0  0  0  0  0  0
   29.6334   15.9806   63.3935 O   0  0  0  0  0  0  0  0  0  0  0  0
   29.4465   16.6201   64.0985 H   0  0  0  0  0  0  0  0  0  0  0  0
   31.3738   17.4299   62.5903 C   0  0  0  0  0  0  0  0  0  0  0  0
   32.2888   16.8170   61.7208 O   0  0  0  0  0  0  0  0  0  0  0  0
   32.2978   15.8606   61.8825 H   0  0  0  0  0  0  0  0  0  0  0  0
   31.7505   17.2257   64.0822 C   0  0  0  0  0  0  0  0  0  0  0  0
   31.1259   18.2216   64.7901 O   0  0  0  0  0  0  0  0  0  0  0  0
   31.4196   19.0854   64.4607 H   0  0  0  0  0  0  0  0  0  0  0  0
 16  1  1  0  0  0
 16 17  2  0  0  0
 16 18  1  0  0  0
  1  2  1  0  0  0
  1  6  1  0  0  0
  1  8  1  0  0  0
  2  3  1  0  0  0
  3  4  1  0  0  0
  3  7  1  0  0  0
  4  5  1  0  0  0
  4 13  1  0  0  0
  5 20  1  0  0  0
  5  8  1  0  0  0
 20 23  1  0  0  0
 20 21  1  0  0  0
 23 26  1  0  0  0
 23 24  1  0  0  0
 26 27  1  0  0  0
 11 12  1  0  0  0
 11 13  1  0  0  0
 11 14  2  0  0  0
 13 15  1  0  0  0
 18 19  1  0  0  0
  6  9  1  0  0  0
  7 10  1  0  0  0
 21 22  1  0  0  0
 24 25  1  0  0  0
 27 28  1  0  0  0
M  END
> <minimizedAffinity>
-6.51713

$$$$
2QWB_SIA_A_800


 28 28  0  0  0  0  0  0  0  0999 V2000
   26.3288   16.8870   61.4371 C   0  0  0  0  0  0  0  0  0  0  0  0
   27.6097   17.4455   60.7313 C   0  0  0  0  0  0  0  0  0  0  0  0
   28.1859   18.6652   61.4165 C   0  0  0  0  0  0  0  0  0  0  0  0
   27.7293   18.7763   62.8817 C   0  0  0  0  0  0  0  0  0  0  0  0
   26.2409   18.9172   62.9704 C   0  0  0  0  0  0  0  0  0  0  0  0
   26.6531   15.8662   62.3742 O   0  0  0  0  0  0  0  0  0  0  0  0
   29.5617   18.6401   61.3842 O   0  0  0  0  0  0  0  0  0  0  0  0
   25.6113   17.9194   62.1587 O   0  0  0  0  0  0  0  0  0  0  0  0
   27.1362   15.1556   61.9239 H   0  0  0  0  0  0  0  0  0  0  0  0
   29.8826   17.8667   61.8740 H   0  0  0  0  0  0  0  0  0  0  0  0
   29.0697   20.0288   64.4896 C   0  0  0  0  0  0  0  0  0  0  0  0
   29.6224   21.2960   65.0062 C   0  0  0  0  0  0  0  0  0  0  0  0
   28.2866   20.0358   63.4168 N   0  0  0  0  0  0  0  0  0  0  0  0
   29.3915   18.9898   65.0687 O   0  0  0  0  0  0  0  0  0  0  0  0
   28.0753   20.8891   62.9736 H   0  0  0  0  0  0  0  0  0  0  0  0
   25.4522   16.2958   60.3411 C   0  0  0  0  0  0  0  0  0  0  0  0
   24.2104   16.4685   60.2975 O   0  0  0  0  0  0  0  0  0  0  0  0
   26.0854   15.6046   59.5188 O   0  0  0  0  0  0  0  0  0  0  0  0
   27.0141   15.5114   59.6018 H   0  0  0  0  0  0  0  0  0  0  0  0
   25.6823   18.7678   64.3958 C   0  0  0  0  0  0  0  0  0  0  0  0
   24.8684   17.6489   64.4293 O   0  0  0  0  0  0  0  0  0  0  0  0
   24.1435   17.7572   63.7940 H   0  0  0  0  0  0  0  0  0  0  0  0
   24.8648   20.0257   64.7833 C   0  0  0  0  0  0  0  0  0  0  0  0
   25.8298   20.7876   65.4594 O   0  0  0  0  0  0  0  0  0  0  0  0
   26.2025   20.2655   66.1869 H   0  0  0  0  0  0  0  0  0  0  0  0
   23.6821   19.6211   65.7036 C   0  0  0  0  0  0  0  0  0  0  0  0
   22.5621   19.5691   64.9123 O   0  0  0  0  0  0  0  0  0  0  0  0
   22.4165   20.4352   64.5007 H   0  0  0  0  0  0  0  0  0  0  0  0
 16  1  1  0  0  0
 16 17  2  0  0  0
 16 18  1  0  0  0
  1  2  1  0  0  0
  1  6  1  0  0  0
  1  8  1  0  0  0
  2  3  1  0  0  0
  3  4  1  0  0  0
  3  7  1  0  0  0
  4  5  1  0  0  0
  4 13  1  0  0  0
  5 20  1  0  0  0
  5  8  1  0  0  0
 20 23  1  0  0  0
 20 21  1  0  0  0
 23 26  1  0  0  0
 23 24  1  0  0  0
 26 27  1  0  0  0
 11 12  1  0  0  0
 11 13  1  0  0  0
 11 14  2  0  0  0
 13 15  1  0  0  0
 18 19  1  0  0  0
  6  9  1  0  0  0
  7 10  1  0  0  0
 21 22  1  0  0  0
 24 25  1  0  0  0
 27 28  1  0  0  0
M  END
> <minimizedAffinity>
-6.51115

$$$$
