1IY7_CXA_A_500


 20 20  0  0  0  0  0  0  0  0999 V2000
    5.3014   -9.5746   15.3632 C   0  0  0  0  0  0  0  0  0  0  0  0
    3.8625   -8.9788   15.3700 C   0  0  0  0  0  0  0  0  0  0  0  0
    3.0092   -9.6379   16.1800 O   0  0  0  0  0  0  0  0  0  0  0  0
    3.5081   -8.0351   14.7336 O   0  0  0  0  0  0  0  0  0  0  0  0
    3.3072  -10.3775   16.6720 H   0  0  0  0  0  0  0  0  0  0  0  0
    5.4685  -10.2328   16.7005 N   0  0  0  0  0  0  0  0  0  0  0  0
    6.2103  -10.9228   16.5822 H   0  0  0  0  0  0  0  0  0  0  0  0
    5.8609   -9.3512   18.1617 S   0  0  0  0  0  0  0  0  0  0  0  0
    6.9556   -8.0583   18.0335 N   0  0  0  0  0  0  0  0  0  0  0  0
    6.5195  -10.2188   19.0914 O   0  0  0  0  0  0  0  0  0  0  0  0
    4.7066   -8.5842   18.5240 O   0  0  0  0  0  0  0  0  0  0  0  0
    7.8745   -8.4155   17.7721 H   0  0  0  0  0  0  0  0  0  0  0  0
    7.0203   -7.5773   18.9307 H   0  0  0  0  0  0  0  0  0  0  0  0
    5.4853  -10.5263   14.1023 C   0  0  0  0  0  0  0  0  0  0  0  0
    5.4684   -9.8608   12.7308 C   0  0  0  0  0  0  0  0  0  0  0  0
    6.5716   -9.0924   12.2555 C   0  0  0  0  0  0  0  0  0  0  0  0
    6.5253   -8.4696   10.9768 C   0  0  0  0  0  0  0  0  0  0  0  0
    5.3777   -8.6070   10.1585 C   0  0  0  0  0  0  0  0  0  0  0  0
    4.2850   -9.3665   10.6169 C   0  0  0  0  0  0  0  0  0  0  0  0
    4.3363   -9.9846   11.8852 C   0  0  0  0  0  0  0  0  0  0  0  0
 15 16  2  0  0  0
 15 20  1  0  0  0
 15 14  1  0  0  0
 16 17  1  0  0  0
 17 18  2  0  0  0
 18 19  1  0  0  0
 19 20  2  0  0  0
 14  1  1  0  0  0
  1  2  1  0  0  0
  1  6  1  0  0  0
  2  3  1  0  0  0
  2  4  2  0  0  0
  6  8  1  0  0  0
  8  9  1  0  0  0
  8 10  2  0  0  0
  8 11  2  0  0  0
  3  5  1  0  0  0
  6  7  1  0  0  0
  9 12  1  0  0  0
  9 13  1  0  0  0
M  END
> <minimizedAffinity>
-8.50348

$$$$
1IY7_CXA_A_500


 20 20  0  0  0  0  0  0  0  0999 V2000
    5.2341   -9.4927   15.5763 C   0  0  0  0  0  0  0  0  0  0  0  0
    3.7386   -9.0582   15.5929 C   0  0  0  0  0  0  0  0  0  0  0  0
    3.4772   -7.9931   14.8082 O   0  0  0  0  0  0  0  0  0  0  0  0
    2.8781   -9.5870   16.2261 O   0  0  0  0  0  0  0  0  0  0  0  0
    4.1676   -7.5915   14.3182 H   0  0  0  0  0  0  0  0  0  0  0  0
    5.5118  -10.0244   16.9510 N   0  0  0  0  0  0  0  0  0  0  0  0
    6.2953  -10.6693   16.8487 H   0  0  0  0  0  0  0  0  0  0  0  0
    5.9078   -8.9993   18.3144 S   0  0  0  0  0  0  0  0  0  0  0  0
    6.8511   -9.6699   19.5582 N   0  0  0  0  0  0  0  0  0  0  0  0
    4.7107   -8.6254   19.0058 O   0  0  0  0  0  0  0  0  0  0  0  0
    6.8585   -8.0287   17.8606 O   0  0  0  0  0  0  0  0  0  0  0  0
    6.3257  -10.4112   20.0215 H   0  0  0  0  0  0  0  0  0  0  0  0
    7.0854   -8.9445   20.2360 H   0  0  0  0  0  0  0  0  0  0  0  0
    5.4863  -10.5127   14.3823 C   0  0  0  0  0  0  0  0  0  0  0  0
    5.4590   -9.9382   12.9704 C   0  0  0  0  0  0  0  0  0  0  0  0
    4.3344  -10.1117   12.1110 C   0  0  0  0  0  0  0  0  0  0  0  0
    4.3395   -9.5772   10.7921 C   0  0  0  0  0  0  0  0  0  0  0  0
    5.4666   -8.8638   10.3166 C   0  0  0  0  0  0  0  0  0  0  0  0
    6.5801   -8.6840   11.1584 C   0  0  0  0  0  0  0  0  0  0  0  0
    6.5698   -9.2139   12.4671 C   0  0  0  0  0  0  0  0  0  0  0  0
 15 16  2  0  0  0
 15 20  1  0  0  0
 15 14  1  0  0  0
 16 17  1  0  0  0
 17 18  2  0  0  0
 18 19  1  0  0  0
 19 20  2  0  0  0
 14  1  1  0  0  0
  1  2  1  0  0  0
  1  6  1  0  0  0
  2  3  1  0  0  0
  2  4  2  0  0  0
  6  8  1  0  0  0
  8  9  1  0  0  0
  8 10  2  0  0  0
  8 11  2  0  0  0
  3  5  1  0  0  0
  6  7  1  0  0  0
  9 12  1  0  0  0
  9 13  1  0  0  0
M  END
> <minimizedAffinity>
-8.18497

$$$$
1IY7_CXA_A_500


 20 20  0  0  0  0  0  0  0  0999 V2000
    5.5206   -9.2941   17.0435 C   0  0  0  0  0  0  0  0  0  0  0  0
    4.6311   -9.0996   18.3070 C   0  0  0  0  0  0  0  0  0  0  0  0
    5.0568   -8.1116   19.1200 O   0  0  0  0  0  0  0  0  0  0  0  0
    3.6617   -9.7422   18.5684 O   0  0  0  0  0  0  0  0  0  0  0  0
    5.8212   -7.6178   18.8967 H   0  0  0  0  0  0  0  0  0  0  0  0
    6.0834  -10.6795   17.1596 N   0  0  0  0  0  0  0  0  0  0  0  0
    6.7527  -10.7747   16.3957 H   0  0  0  0  0  0  0  0  0  0  0  0
    6.9024  -11.2657   18.5921 S   0  0  0  0  0  0  0  0  0  0  0  0
    8.3374  -12.1491   18.3750 N   0  0  0  0  0  0  0  0  0  0  0  0
    6.0671  -12.2032   19.2807 O   0  0  0  0  0  0  0  0  0  0  0  0
    7.4782  -10.1323   19.2522 O   0  0  0  0  0  0  0  0  0  0  0  0
    8.1275  -13.0274   17.9007 H   0  0  0  0  0  0  0  0  0  0  0  0
    8.7568  -12.3451   19.2838 H   0  0  0  0  0  0  0  0  0  0  0  0
    4.6662   -9.0082   15.7328 C   0  0  0  0  0  0  0  0  0  0  0  0
    5.2875   -9.4223   14.4037 C   0  0  0  0  0  0  0  0  0  0  0  0
    4.9648  -10.6624   13.7780 C   0  0  0  0  0  0  0  0  0  0  0  0
    5.5693  -11.0317   12.5438 C   0  0  0  0  0  0  0  0  0  0  0  0
    6.5022  -10.1676   11.9206 C   0  0  0  0  0  0  0  0  0  0  0  0
    6.8247   -8.9397   12.5282 C   0  0  0  0  0  0  0  0  0  0  0  0
    6.2206   -8.5762   13.7514 C   0  0  0  0  0  0  0  0  0  0  0  0
 15 16  2  0  0  0
 15 20  1  0  0  0
 15 14  1  0  0  0
 16 17  1  0  0  0
 17 18  2  0  0  0
 18 19  1  0  0  0
 19 20  2  0  0  0
 14  1  1  0  0  0
  1  2  1  0  0  0
  1  6  1  0  0  0
  2  3  1  0  0  0
  2  4  2  0  0  0
  6  8  1  0  0  0
  8  9  1  0  0  0
  8 10  2  0  0  0
  8 11  2  0  0  0
  3  5  1  0  0  0
  6  7  1  0  0  0
  9 12  1  0  0  0
  9 13  1  0  0  0
M  END
> <minimizedAffinity>
-7.35619

$$$$
1IY7_CXA_A_500


 20 20  0  0  0  0  0  0  0  0999 V2000
    5.5888  -10.1369   17.8177 C   0  0  0  0  0  0  0  0  0  0  0  0
    5.7742   -8.6976   18.3829 C   0  0  0  0  0  0  0  0  0  0  0  0
    6.9863   -8.1672   18.1222 O   0  0  0  0  0  0  0  0  0  0  0  0
    4.9508   -8.0898   18.9943 O   0  0  0  0  0  0  0  0  0  0  0  0
    7.6199   -8.6611   17.6399 H   0  0  0  0  0  0  0  0  0  0  0  0
    5.5586   -9.9805   16.3263 N   0  0  0  0  0  0  0  0  0  0  0  0
    5.6110  -10.9250   15.9447 H   0  0  0  0  0  0  0  0  0  0  0  0
    4.2523   -9.1881   15.4707 S   0  0  0  0  0  0  0  0  0  0  0  0
    3.6580   -9.9391   14.0673 N   0  0  0  0  0  0  0  0  0  0  0  0
    4.6943   -7.9194   14.9751 O   0  0  0  0  0  0  0  0  0  0  0  0
    3.0710   -9.3228   16.2698 O   0  0  0  0  0  0  0  0  0  0  0  0
    4.3833   -9.9421   13.3502 H   0  0  0  0  0  0  0  0  0  0  0  0
    2.8446   -9.4269   13.7261 H   0  0  0  0  0  0  0  0  0  0  0  0
    6.7287  -11.0901   18.3847 C   0  0  0  0  0  0  0  0  0  0  0  0
    6.3972  -11.8846   19.6429 C   0  0  0  0  0  0  0  0  0  0  0  0
    5.8108  -13.1828   19.5783 C   0  0  0  0  0  0  0  0  0  0  0  0
    5.4981  -13.8981   20.7682 C   0  0  0  0  0  0  0  0  0  0  0  0
    5.7672  -13.3258   22.0352 C   0  0  0  0  0  0  0  0  0  0  0  0
    6.3492  -12.0465   22.1097 C   0  0  0  0  0  0  0  0  0  0  0  0
    6.6601  -11.3414   20.9266 C   0  0  0  0  0  0  0  0  0  0  0  0
 15 16  2  0  0  0
 15 20  1  0  0  0
 15 14  1  0  0  0
 16 17  1  0  0  0
 17 18  2  0  0  0
 18 19  1  0  0  0
 19 20  2  0  0  0
 14  1  1  0  0  0
  1  2  1  0  0  0
  1  6  1  0  0  0
  2  3  1  0  0  0
  2  4  2  0  0  0
  6  8  1  0  0  0
  8  9  1  0  0  0
  8 10  2  0  0  0
  8 11  2  0  0  0
  3  5  1  0  0  0
  6  7  1  0  0  0
  9 12  1  0  0  0
  9 13  1  0  0  0
M  END
> <minimizedAffinity>
-7.34842

$$$$
1IY7_CXA_A_500


 20 20  0  0  0  0  0  0  0  0999 V2000
    5.2255   -9.5908   17.5025 C   0  0  0  0  0  0  0  0  0  0  0  0
    6.2461   -9.2903   18.6397 C   0  0  0  0  0  0  0  0  0  0  0  0
    5.9785   -8.1569   19.3196 O   0  0  0  0  0  0  0  0  0  0  0  0
    7.1873   -9.9689   18.9132 O   0  0  0  0  0  0  0  0  0  0  0  0
    5.2337   -7.6372   19.0892 H   0  0  0  0  0  0  0  0  0  0  0  0
    3.8875   -9.6694   18.1758 N   0  0  0  0  0  0  0  0  0  0  0  0
    3.2340   -9.9938   17.4629 H   0  0  0  0  0  0  0  0  0  0  0  0
    3.5820  -10.6537   19.5915 S   0  0  0  0  0  0  0  0  0  0  0  0
    3.9705   -9.9958   21.1089 N   0  0  0  0  0  0  0  0  0  0  0  0
    4.3965  -11.8308   19.5506 O   0  0  0  0  0  0  0  0  0  0  0  0
    2.1624  -10.7172   19.7727 O   0  0  0  0  0  0  0  0  0  0  0  0
    4.9804   -9.8702   21.1766 H   0  0  0  0  0  0  0  0  0  0  0  0
    3.6565  -10.6288   21.8445 H   0  0  0  0  0  0  0  0  0  0  0  0
    5.3543   -8.4938   16.3581 C   0  0  0  0  0  0  0  0  0  0  0  0
    5.1987   -8.9784   14.9210 C   0  0  0  0  0  0  0  0  0  0  0  0
    4.0558   -9.7186   14.4979 C   0  0  0  0  0  0  0  0  0  0  0  0
    3.9412  -10.1716   13.1537 C   0  0  0  0  0  0  0  0  0  0  0  0
    4.9656   -9.8907   12.2173 C   0  0  0  0  0  0  0  0  0  0  0  0
    6.0961   -9.1575   12.6241 C   0  0  0  0  0  0  0  0  0  0  0  0
    6.2045   -8.7080   13.9580 C   0  0  0  0  0  0  0  0  0  0  0  0
 15 16  2  0  0  0
 15 20  1  0  0  0
 15 14  1  0  0  0
 16 17  1  0  0  0
 17 18  2  0  0  0
 18 19  1  0  0  0
 19 20  2  0  0  0
 14  1  1  0  0  0
  1  2  1  0  0  0
  1  6  1  0  0  0
  2  3  1  0  0  0
  2  4  2  0  0  0
  6  8  1  0  0  0
  8  9  1  0  0  0
  8 10  2  0  0  0
  8 11  2  0  0  0
  3  5  1  0  0  0
  6  7  1  0  0  0
  9 12  1  0  0  0
  9 13  1  0  0  0
M  END
> <minimizedAffinity>
-7.08684

$$$$
1IY7_CXA_A_500


 20 20  0  0  0  0  0  0  0  0999 V2000
    3.9424   -9.0346   10.1829 C   0  0  0  0  0  0  0  0  0  0  0  0
    2.9040   -9.4098    9.0845 C   0  0  0  0  0  0  0  0  0  0  0  0
    1.6260   -9.1822    9.4495 O   0  0  0  0  0  0  0  0  0  0  0  0
    3.1714   -9.8598    8.0134 O   0  0  0  0  0  0  0  0  0  0  0  0
    1.4366   -8.8279   10.2960 H   0  0  0  0  0  0  0  0  0  0  0  0
    4.3476   -7.6216    9.8847 N   0  0  0  0  0  0  0  0  0  0  0  0
    3.8109   -7.0356   10.5241 H   0  0  0  0  0  0  0  0  0  0  0  0
    6.0016   -7.0556    9.9876 S   0  0  0  0  0  0  0  0  0  0  0  0
    6.5775   -6.5738   11.5116 N   0  0  0  0  0  0  0  0  0  0  0  0
    6.1567   -5.8626    9.2107 O   0  0  0  0  0  0  0  0  0  0  0  0
    6.8564   -8.1920    9.8149 O   0  0  0  0  0  0  0  0  0  0  0  0
    6.0709   -5.7438   11.8197 H   0  0  0  0  0  0  0  0  0  0  0  0
    7.5727   -6.3602   11.4470 H   0  0  0  0  0  0  0  0  0  0  0  0
    3.3155   -9.2790   11.6240 C   0  0  0  0  0  0  0  0  0  0  0  0
    4.2440   -9.8512   12.6892 C   0  0  0  0  0  0  0  0  0  0  0  0
    4.0455   -9.5903   14.0769 C   0  0  0  0  0  0  0  0  0  0  0  0
    4.9349  -10.1251   15.0506 C   0  0  0  0  0  0  0  0  0  0  0  0
    6.0318  -10.9261   14.6501 C   0  0  0  0  0  0  0  0  0  0  0  0
    6.2344  -11.1926   13.2830 C   0  0  0  0  0  0  0  0  0  0  0  0
    5.3480  -10.6620   12.3206 C   0  0  0  0  0  0  0  0  0  0  0  0
 15 16  2  0  0  0
 15 20  1  0  0  0
 15 14  1  0  0  0
 16 17  1  0  0  0
 17 18  2  0  0  0
 18 19  1  0  0  0
 19 20  2  0  0  0
 14  1  1  0  0  0
  1  2  1  0  0  0
  1  6  1  0  0  0
  2  3  1  0  0  0
  2  4  2  0  0  0
  6  8  1  0  0  0
  8  9  1  0  0  0
  8 10  2  0  0  0
  8 11  2  0  0  0
  3  5  1  0  0  0
  6  7  1  0  0  0
  9 12  1  0  0  0
  9 13  1  0  0  0
M  END
> <minimizedAffinity>
-7.07628

$$$$
1IY7_CXA_A_500


 20 20  0  0  0  0  0  0  0  0999 V2000
    5.2216   -9.2365   15.8031 C   0  0  0  0  0  0  0  0  0  0  0  0
    3.7072   -9.0178   15.5130 C   0  0  0  0  0  0  0  0  0  0  0  0
    3.4680   -8.0954   14.5589 O   0  0  0  0  0  0  0  0  0  0  0  0
    2.8149   -9.5878   16.0608 O   0  0  0  0  0  0  0  0  0  0  0  0
    4.1832   -7.6583   14.1401 H   0  0  0  0  0  0  0  0  0  0  0  0
    5.9436   -8.6438   14.6297 N   0  0  0  0  0  0  0  0  0  0  0  0
    6.8867   -8.4351   14.9576 H   0  0  0  0  0  0  0  0  0  0  0  0
    6.1394   -9.4776   13.1023 S   0  0  0  0  0  0  0  0  0  0  0  0
    5.7286  -11.1251   13.0442 N   0  0  0  0  0  0  0  0  0  0  0  0
    7.5222   -9.4935   12.7305 O   0  0  0  0  0  0  0  0  0  0  0  0
    5.1196   -8.9989   12.2175 O   0  0  0  0  0  0  0  0  0  0  0  0
    6.3677  -11.6559   13.6360 H   0  0  0  0  0  0  0  0  0  0  0  0
    5.7986  -11.4592   12.0830 H   0  0  0  0  0  0  0  0  0  0  0  0
    5.5939   -8.6194   17.2209 C   0  0  0  0  0  0  0  0  0  0  0  0
    5.9398   -9.6062   18.3304 C   0  0  0  0  0  0  0  0  0  0  0  0
    5.9036   -9.2323   19.7059 C   0  0  0  0  0  0  0  0  0  0  0  0
    6.2445  -10.1686   20.7219 C   0  0  0  0  0  0  0  0  0  0  0  0
    6.6252  -11.4880   20.3763 C   0  0  0  0  0  0  0  0  0  0  0  0
    6.6606  -11.8681   19.0216 C   0  0  0  0  0  0  0  0  0  0  0  0
    6.3191  -10.9366   18.0171 C   0  0  0  0  0  0  0  0  0  0  0  0
 15 16  2  0  0  0
 15 20  1  0  0  0
 15 14  1  0  0  0
 16 17  1  0  0  0
 17 18  2  0  0  0
 18 19  1  0  0  0
 19 20  2  0  0  0
 14  1  1  0  0  0
  1  2  1  0  0  0
  1  6  1  0  0  0
  2  3  1  0  0  0
  2  4  2  0  0  0
  6  8  1  0  0  0
  8  9  1  0  0  0
  8 10  2  0  0  0
  8 11  2  0  0  0
  3  5  1  0  0  0
  6  7  1  0  0  0
  9 12  1  0  0  0
  9 13  1  0  0  0
M  END
> <minimizedAffinity>
-6.65383

$$$$
1IY7_CXA_A_500


 20 20  0  0  0  0  0  0  0  0999 V2000
    5.2814  -10.5447   20.6108 C   0  0  0  0  0  0  0  0  0  0  0  0
    6.7130  -11.0927   20.3358 C   0  0  0  0  0  0  0  0  0  0  0  0
    7.6840  -10.4126   20.9786 O   0  0  0  0  0  0  0  0  0  0  0  0
    6.9687  -12.0189   19.6302 O   0  0  0  0  0  0  0  0  0  0  0  0
    7.4624   -9.6874   21.5289 H   0  0  0  0  0  0  0  0  0  0  0  0
    5.1975   -9.2492   19.8596 N   0  0  0  0  0  0  0  0  0  0  0  0
    5.9655   -8.6744   20.2062 H   0  0  0  0  0  0  0  0  0  0  0  0
    5.2704   -9.1462   18.1130 S   0  0  0  0  0  0  0  0  0  0  0  0
    5.8454  -10.5019   17.2658 N   0  0  0  0  0  0  0  0  0  0  0  0
    6.1974   -8.1263   17.7241 O   0  0  0  0  0  0  0  0  0  0  0  0
    3.9242   -9.1768   17.6241 O   0  0  0  0  0  0  0  0  0  0  0  0
    6.8290  -10.6512   17.4905 H   0  0  0  0  0  0  0  0  0  0  0  0
    5.7460  -10.3435   16.2630 H   0  0  0  0  0  0  0  0  0  0  0  0
    4.1988  -11.6398   20.2130 C   0  0  0  0  0  0  0  0  0  0  0  0
    2.7442  -11.3171   20.5356 C   0  0  0  0  0  0  0  0  0  0  0  0
    2.3162  -11.0287   21.8649 C   0  0  0  0  0  0  0  0  0  0  0  0
    0.9497  -10.7440   22.1418 C   0  0  0  0  0  0  0  0  0  0  0  0
   -0.0044  -10.7439   21.0954 C   0  0  0  0  0  0  0  0  0  0  0  0
    0.4085  -11.0238   19.7793 C   0  0  0  0  0  0  0  0  0  0  0  0
    1.7658  -11.3032   19.5088 C   0  0  0  0  0  0  0  0  0  0  0  0
 15 16  2  0  0  0
 15 20  1  0  0  0
 15 14  1  0  0  0
 16 17  1  0  0  0
 17 18  2  0  0  0
 18 19  1  0  0  0
 19 20  2  0  0  0
 14  1  1  0  0  0
  1  2  1  0  0  0
  1  6  1  0  0  0
  2  3  1  0  0  0
  2  4  2  0  0  0
  6  8  1  0  0  0
  8  9  1  0  0  0
  8 10  2  0  0  0
  8 11  2  0  0  0
  3  5  1  0  0  0
  6  7  1  0  0  0
  9 12  1  0  0  0
  9 13  1  0  0  0
M  END
> <minimizedAffinity>
-6.32296

$$$$
1IY7_CXA_A_500


 20 20  0  0  0  0  0  0  0  0999 V2000
    5.3750   -7.7224   10.4823 C   0  0  0  0  0  0  0  0  0  0  0  0
    6.0386   -6.3731   10.0766 C   0  0  0  0  0  0  0  0  0  0  0  0
    6.7700   -5.8136   11.0617 O   0  0  0  0  0  0  0  0  0  0  0  0
    5.9329   -5.8504    9.0105 O   0  0  0  0  0  0  0  0  0  0  0  0
    6.8408   -6.2403   11.8929 H   0  0  0  0  0  0  0  0  0  0  0  0
    4.6365   -8.1880    9.2627 N   0  0  0  0  0  0  0  0  0  0  0  0
    5.3348   -8.6287    8.6639 H   0  0  0  0  0  0  0  0  0  0  0  0
    3.2857   -9.3005    9.3252 S   0  0  0  0  0  0  0  0  0  0  0  0
    1.8639   -8.7735   10.0915 N   0  0  0  0  0  0  0  0  0  0  0  0
    3.6403  -10.4534   10.0972 O   0  0  0  0  0  0  0  0  0  0  0  0
    2.7551   -9.4073    7.9989 O   0  0  0  0  0  0  0  0  0  0  0  0
    2.0449   -8.6351   11.0858 H   0  0  0  0  0  0  0  0  0  0  0  0
    1.1337   -9.4757    9.9734 H   0  0  0  0  0  0  0  0  0  0  0  0
    6.4805   -8.7217   11.0382 C   0  0  0  0  0  0  0  0  0  0  0  0
    6.1667   -9.4329   12.3497 C   0  0  0  0  0  0  0  0  0  0  0  0
    6.2154  -10.8534   12.4637 C   0  0  0  0  0  0  0  0  0  0  0  0
    5.9045  -11.4939   13.6959 C   0  0  0  0  0  0  0  0  0  0  0  0
    5.5416  -10.7237   14.8275 C   0  0  0  0  0  0  0  0  0  0  0  0
    5.4941   -9.3208   14.7263 C   0  0  0  0  0  0  0  0  0  0  0  0
    5.8058   -8.6895   13.5025 C   0  0  0  0  0  0  0  0  0  0  0  0
 15 16  2  0  0  0
 15 20  1  0  0  0
 15 14  1  0  0  0
 16 17  1  0  0  0
 17 18  2  0  0  0
 18 19  1  0  0  0
 19 20  2  0  0  0
 14  1  1  0  0  0
  1  2  1  0  0  0
  1  6  1  0  0  0
  2  3  1  0  0  0
  2  4  2  0  0  0
  6  8  1  0  0  0
  8  9  1  0  0  0
  8 10  2  0  0  0
  8 11  2  0  0  0
  3  5  1  0  0  0
  6  7  1  0  0  0
  9 12  1  0  0  0
  9 13  1  0  0  0
M  END
> <minimizedAffinity>
-6.21361

$$$$
1IY7_CXA_A_500


 20 20  0  0  0  0  0  0  0  0999 V2000
    5.5885   -9.1693   14.6983 C   0  0  0  0  0  0  0  0  0  0  0  0
    4.5207  -10.0274   13.9576 C   0  0  0  0  0  0  0  0  0  0  0  0
    5.0189  -11.1546   13.4101 O   0  0  0  0  0  0  0  0  0  0  0  0
    3.3657   -9.7491   13.8586 O   0  0  0  0  0  0  0  0  0  0  0  0
    5.9298  -11.3556   13.4990 H   0  0  0  0  0  0  0  0  0  0  0  0
    6.0176   -8.1247   13.7112 N   0  0  0  0  0  0  0  0  0  0  0  0
    6.8884   -7.7371   14.0745 H   0  0  0  0  0  0  0  0  0  0  0  0
    6.3127   -8.4667   12.0193 S   0  0  0  0  0  0  0  0  0  0  0  0
    4.9891   -8.9469   11.0687 N   0  0  0  0  0  0  0  0  0  0  0  0
    7.1995   -9.5844   11.8964 O   0  0  0  0  0  0  0  0  0  0  0  0
    6.5688   -7.2175   11.3666 O   0  0  0  0  0  0  0  0  0  0  0  0
    4.6497   -9.8530   11.3914 H   0  0  0  0  0  0  0  0  0  0  0  0
    5.2796   -9.0203   10.0937 H   0  0  0  0  0  0  0  0  0  0  0  0
    4.9855   -8.6175   16.0627 C   0  0  0  0  0  0  0  0  0  0  0  0
    5.4775   -9.2751   17.3471 C   0  0  0  0  0  0  0  0  0  0  0  0
    5.3963   -8.6140   18.6078 C   0  0  0  0  0  0  0  0  0  0  0  0
    5.8755   -9.2443   19.7903 C   0  0  0  0  0  0  0  0  0  0  0  0
    6.4407  -10.5412   19.7274 C   0  0  0  0  0  0  0  0  0  0  0  0
    6.5221  -11.2038   18.4884 C   0  0  0  0  0  0  0  0  0  0  0  0
    6.0432  -10.5756   17.3182 C   0  0  0  0  0  0  0  0  0  0  0  0
 15 16  2  0  0  0
 15 20  1  0  0  0
 15 14  1  0  0  0
 16 17  1  0  0  0
 17 18  2  0  0  0
 18 19  1  0  0  0
 19 20  2  0  0  0
 14  1  1  0  0  0
  1  2  1  0  0  0
  1  6  1  0  0  0
  2  3  1  0  0  0
  2  4  2  0  0  0
  6  8  1  0  0  0
  8  9  1  0  0  0
  8 10  2  0  0  0
  8 11  2  0  0  0
  3  5  1  0  0  0
  6  7  1  0  0  0
  9 12  1  0  0  0
  9 13  1  0  0  0
M  END
> <minimizedAffinity>
-6.15186

$$$$
