2USN_IN8_A_300


 31 33  0  0  0  0  0  0  0  0999 V2000
   27.5364   46.2364   48.6442 C   0  0  0  0  0  0  0  0  0  0  0  0
   25.3226   45.5596   49.5053 C   0  0  0  0  0  0  0  0  0  0  0  0
   24.2983   44.6693   49.6394 C   0  0  0  0  0  0  0  0  0  0  0  0
   24.4565   43.3917   49.2016 C   0  0  0  0  0  0  0  0  0  0  0  0
   25.5783   43.0412   48.5171 C   0  0  0  0  0  0  0  0  0  0  0  0
   26.5780   43.9442   48.3420 C   0  0  0  0  0  0  0  0  0  0  0  0
   26.4822   45.2126   48.8674 C   0  0  0  0  0  0  0  0  0  0  0  0
   27.0115   47.7353   46.7598 C   0  0  0  0  0  0  0  0  0  0  0  0
   26.3117   48.4740   47.4784 O   0  0  0  0  0  0  0  0  0  0  0  0
   27.5934   46.6158   47.2432 N   0  0  0  0  0  0  0  0  0  0  0  0
   28.0782   46.0305   46.6173 H   0  0  0  0  0  0  0  0  0  0  0  0
   27.2931   47.9929   45.4075 O   0  0  0  0  0  0  0  0  0  0  0  0
   26.1540   47.8440   44.6240 C   0  0  0  0  0  0  0  0  0  0  0  0
   24.8660   43.8122   44.8940 C   0  0  0  0  0  0  0  0  0  0  0  0
   26.0027   44.1275   44.2075 C   0  0  0  0  0  0  0  0  0  0  0  0
   26.4291   45.4352   44.1194 C   0  0  0  0  0  0  0  0  0  0  0  0
   24.1620   44.8203   45.5069 C   0  0  0  0  0  0  0  0  0  0  0  0
   25.7025   46.4230   44.6874 C   0  0  0  0  0  0  0  0  0  0  0  0
   24.5865   46.1243   45.3944 C   0  0  0  0  0  0  0  0  0  0  0  0
   28.9473   45.7120   48.9821 C   0  0  0  0  0  0  0  0  0  0  0  0
   29.9828   46.5330   48.2048 C   0  0  0  0  0  0  0  0  0  0  0  0
   30.1752   47.8446   48.5873 N   0  0  0  0  0  0  0  0  0  0  0  0
   30.7211   45.9839   47.1646 O   0  0  0  0  0  0  0  0  0  0  0  0
   29.6240   48.1699   49.3353 H   0  0  0  0  0  0  0  0  0  0  0  0
   31.0958   48.7883   48.0094 C   0  0  0  0  0  0  0  0  0  0  0  0
   32.1311   50.4956   46.6562 C   0  0  0  0  0  0  0  0  0  0  0  0
   30.5550   49.7673   46.6444 S   0  0  0  0  0  0  0  0  0  0  0  0
   32.3043   48.9702   48.3774 N   0  0  0  0  0  0  0  0  0  0  0  0
   32.8933   49.9768   47.6264 N   0  0  0  0  0  0  0  0  0  0  0  0
   32.7016   51.8149   45.5988 S   0  0  0  0  0  0  0  0  0  0  0  0
   31.7239   52.1391   44.7108 H   0  0  0  0  0  0  0  0  0  0  0  0
 25 27  1  0  0  0
 25 28  2  0  0  0
 25 22  1  0  0  0
 26 27  1  0  0  0
 26 29  2  0  0  0
 26 30  1  0  0  0
 21 22  1  0  0  0
 21 23  2  0  0  0
 21 20  1  0  0  0
  2  3  2  0  0  0
  2  7  1  0  0  0
  3  4  1  0  0  0
  4  5  2  0  0  0
  5  6  1  0  0  0
  6  7  2  0  0  0
  8 12  1  0  0  0
  8  9  2  0  0  0
  8 10  1  0  0  0
 13 12  1  0  0  0
 13 18  1  0  0  0
 14 15  2  0  0  0
 14 17  1  0  0  0
 15 16  1  0  0  0
 16 18  2  0  0  0
 17 19  2  0  0  0
 28 29  1  0  0  0
 20  1  1  0  0  0
  1  7  1  0  0  0
  1 10  1  0  0  0
 18 19  1  0  0  0
 22 24  1  0  0  0
 30 31  1  0  0  0
 10 11  1  0  0  0
M  END
> <minimizedAffinity>
-8.01302

$$$$
2USN_IN8_A_300


 31 33  0  0  0  0  0  0  0  0999 V2000
   27.4281   45.6657   48.4934 C   0  0  0  0  0  0  0  0  0  0  0  0
   25.2290   44.8683   49.2862 C   0  0  0  0  0  0  0  0  0  0  0  0
   24.2842   43.8998   49.4573 C   0  0  0  0  0  0  0  0  0  0  0  0
   24.5913   42.6046   49.1800 C   0  0  0  0  0  0  0  0  0  0  0  0
   25.7879   42.2958   48.6119 C   0  0  0  0  0  0  0  0  0  0  0  0
   26.7102   43.2699   48.3972 C   0  0  0  0  0  0  0  0  0  0  0  0
   26.4594   44.5718   48.7663 C   0  0  0  0  0  0  0  0  0  0  0  0
   27.0423   46.9373   46.4180 C   0  0  0  0  0  0  0  0  0  0  0  0
   26.3163   47.7644   47.0017 O   0  0  0  0  0  0  0  0  0  0  0  0
   27.5736   45.8759   47.0634 N   0  0  0  0  0  0  0  0  0  0  0  0
   28.0826   45.2148   46.5407 H   0  0  0  0  0  0  0  0  0  0  0  0
   27.4069   47.0298   45.0642 O   0  0  0  0  0  0  0  0  0  0  0  0
   26.3193   46.7735   44.2364 C   0  0  0  0  0  0  0  0  0  0  0  0
   25.2855   50.3950   42.2862 C   0  0  0  0  0  0  0  0  0  0  0  0
   24.4993   49.9033   43.2877 C   0  0  0  0  0  0  0  0  0  0  0  0
   24.8317   48.7292   43.9284 C   0  0  0  0  0  0  0  0  0  0  0  0
   26.4214   49.7053   41.9376 C   0  0  0  0  0  0  0  0  0  0  0  0
   25.9266   48.0361   43.5446 C   0  0  0  0  0  0  0  0  0  0  0  0
   26.7316   48.5235   42.5705 C   0  0  0  0  0  0  0  0  0  0  0  0
   28.8464   45.3367   49.0033 C   0  0  0  0  0  0  0  0  0  0  0  0
   29.8604   46.2037   48.2478 C   0  0  0  0  0  0  0  0  0  0  0  0
   29.9332   47.5400   48.5835 N   0  0  0  0  0  0  0  0  0  0  0  0
   30.6949   45.6728   47.2730 O   0  0  0  0  0  0  0  0  0  0  0  0
   29.3180   47.8509   49.2865 H   0  0  0  0  0  0  0  0  0  0  0  0
   30.8124   48.5281   48.0157 C   0  0  0  0  0  0  0  0  0  0  0  0
   31.7770   50.2853   46.6741 C   0  0  0  0  0  0  0  0  0  0  0  0
   30.2386   49.4807   46.6455 S   0  0  0  0  0  0  0  0  0  0  0  0
   32.0066   48.7687   48.3964 N   0  0  0  0  0  0  0  0  0  0  0  0
   32.5535   49.8036   47.6520 N   0  0  0  0  0  0  0  0  0  0  0  0
   32.2931   51.6320   45.6232 S   0  0  0  0  0  0  0  0  0  0  0  0
   31.3100   51.9087   44.7251 H   0  0  0  0  0  0  0  0  0  0  0  0
 25 27  1  0  0  0
 25 28  2  0  0  0
 25 22  1  0  0  0
 26 27  1  0  0  0
 26 29  2  0  0  0
 26 30  1  0  0  0
 21 22  1  0  0  0
 21 23  2  0  0  0
 21 20  1  0  0  0
  2  3  2  0  0  0
  2  7  1  0  0  0
  3  4  1  0  0  0
  4  5  2  0  0  0
  5  6  1  0  0  0
  6  7  2  0  0  0
  8 12  1  0  0  0
  8  9  2  0  0  0
  8 10  1  0  0  0
 13 12  1  0  0  0
 13 18  1  0  0  0
 14 15  2  0  0  0
 14 17  1  0  0  0
 15 16  1  0  0  0
 16 18  2  0  0  0
 17 19  2  0  0  0
 28 29  1  0  0  0
 20  1  1  0  0  0
  1  7  1  0  0  0
  1 10  1  0  0  0
 18 19  1  0  0  0
 22 24  1  0  0  0
 30 31  1  0  0  0
 10 11  1  0  0  0
M  END
> <minimizedAffinity>
-7.23026

$$$$
2USN_IN8_A_300


 31 33  0  0  0  0  0  0  0  0999 V2000
   27.1961   45.0136   48.3984 C   0  0  0  0  0  0  0  0  0  0  0  0
   25.1297   45.2641   49.7279 C   0  0  0  0  0  0  0  0  0  0  0  0
   24.1536   46.0139   50.3152 C   0  0  0  0  0  0  0  0  0  0  0  0
   24.0789   47.3458   50.0516 C   0  0  0  0  0  0  0  0  0  0  0  0
   25.0489   47.9485   49.3129 C   0  0  0  0  0  0  0  0  0  0  0  0
   26.0484   47.2069   48.7684 C   0  0  0  0  0  0  0  0  0  0  0  0
   26.0851   45.8414   48.9368 C   0  0  0  0  0  0  0  0  0  0  0  0
   26.4717   42.8384   47.4946 C   0  0  0  0  0  0  0  0  0  0  0  0
   26.2377   43.3271   46.3728 O   0  0  0  0  0  0  0  0  0  0  0  0
   26.8909   43.5994   48.5293 N   0  0  0  0  0  0  0  0  0  0  0  0
   26.9943   43.1763   49.4121 H   0  0  0  0  0  0  0  0  0  0  0  0
   26.3587   41.4704   47.7945 O   0  0  0  0  0  0  0  0  0  0  0  0
   25.0748   41.0064   47.5301 C   0  0  0  0  0  0  0  0  0  0  0  0
   23.4186   39.2168   51.0002 C   0  0  0  0  0  0  0  0  0  0  0  0
   23.8185   40.5216   51.0222 C   0  0  0  0  0  0  0  0  0  0  0  0
   24.3536   41.1104   49.8969 C   0  0  0  0  0  0  0  0  0  0  0  0
   23.5468   38.5051   49.8321 C   0  0  0  0  0  0  0  0  0  0  0  0
   24.5174   40.3862   48.7677 C   0  0  0  0  0  0  0  0  0  0  0  0
   24.1016   39.0979   48.7213 C   0  0  0  0  0  0  0  0  0  0  0  0
   28.5133   45.2198   49.1744 C   0  0  0  0  0  0  0  0  0  0  0  0
   29.4609   46.0774   48.3275 C   0  0  0  0  0  0  0  0  0  0  0  0
   29.6864   47.3752   48.7382 N   0  0  0  0  0  0  0  0  0  0  0  0
   30.0912   45.5735   47.1973 O   0  0  0  0  0  0  0  0  0  0  0  0
   29.2132   47.6678   49.5504 H   0  0  0  0  0  0  0  0  0  0  0  0
   30.5395   48.3469   48.1060 C   0  0  0  0  0  0  0  0  0  0  0  0
   31.4272   50.1054   46.7139 C   0  0  0  0  0  0  0  0  0  0  0  0
   29.8645   49.3569   46.8259 S   0  0  0  0  0  0  0  0  0  0  0  0
   31.7748   48.5343   48.3663 N   0  0  0  0  0  0  0  0  0  0  0  0
   32.2813   49.5695   47.5941 N   0  0  0  0  0  0  0  0  0  0  0  0
   31.8834   51.4616   45.6476 S   0  0  0  0  0  0  0  0  0  0  0  0
   30.8243   51.7977   44.8634 H   0  0  0  0  0  0  0  0  0  0  0  0
 25 27  1  0  0  0
 25 28  2  0  0  0
 25 22  1  0  0  0
 26 27  1  0  0  0
 26 29  2  0  0  0
 26 30  1  0  0  0
 21 22  1  0  0  0
 21 23  2  0  0  0
 21 20  1  0  0  0
  2  3  2  0  0  0
  2  7  1  0  0  0
  3  4  1  0  0  0
  4  5  2  0  0  0
  5  6  1  0  0  0
  6  7  2  0  0  0
  8 12  1  0  0  0
  8  9  2  0  0  0
  8 10  1  0  0  0
 13 12  1  0  0  0
 13 18  1  0  0  0
 14 15  2  0  0  0
 14 17  1  0  0  0
 15 16  1  0  0  0
 16 18  2  0  0  0
 17 19  2  0  0  0
 28 29  1  0  0  0
 20  1  1  0  0  0
  1  7  1  0  0  0
  1 10  1  0  0  0
 18 19  1  0  0  0
 22 24  1  0  0  0
 30 31  1  0  0  0
 10 11  1  0  0  0
M  END
> <minimizedAffinity>
-7.09714

$$$$
2USN_IN8_A_300


 31 33  0  0  0  0  0  0  0  0999 V2000
   25.1101   44.4059   48.8136 C   0  0  0  0  0  0  0  0  0  0  0  0
   25.0437   41.9768   49.2556 C   0  0  0  0  0  0  0  0  0  0  0  0
   24.5506   40.8774   49.8943 C   0  0  0  0  0  0  0  0  0  0  0  0
   23.4381   40.9919   50.6677 C   0  0  0  0  0  0  0  0  0  0  0  0
   22.8996   42.2176   50.9077 C   0  0  0  0  0  0  0  0  0  0  0  0
   23.4223   43.3190   50.3084 C   0  0  0  0  0  0  0  0  0  0  0  0
   24.4845   43.2119   49.4398 C   0  0  0  0  0  0  0  0  0  0  0  0
   24.0964   46.4708   47.9294 C   0  0  0  0  0  0  0  0  0  0  0  0
   24.8309   47.1907   48.6323 O   0  0  0  0  0  0  0  0  0  0  0  0
   24.1440   45.1224   47.9990 N   0  0  0  0  0  0  0  0  0  0  0  0
   23.4943   44.6016   47.4737 H   0  0  0  0  0  0  0  0  0  0  0  0
   23.1807   46.9669   46.9862 O   0  0  0  0  0  0  0  0  0  0  0  0
   23.2284   46.2286   45.8088 C   0  0  0  0  0  0  0  0  0  0  0  0
   26.5685   47.4672   43.5073 C   0  0  0  0  0  0  0  0  0  0  0  0
   26.3921   46.1482   43.8106 C   0  0  0  0  0  0  0  0  0  0  0  0
   25.3067   45.7385   44.5545 C   0  0  0  0  0  0  0  0  0  0  0  0
   25.6373   48.3772   43.9457 C   0  0  0  0  0  0  0  0  0  0  0  0
   24.4229   46.6492   45.0192 C   0  0  0  0  0  0  0  0  0  0  0  0
   24.5690   47.9586   44.7051 C   0  0  0  0  0  0  0  0  0  0  0  0
   26.2573   44.0332   47.8519 C   0  0  0  0  0  0  0  0  0  0  0  0
   27.4560   44.9480   48.1291 C   0  0  0  0  0  0  0  0  0  0  0  0
   28.1822   45.3951   47.0444 N   0  0  0  0  0  0  0  0  0  0  0  0
   27.7980   45.3363   49.4178 O   0  0  0  0  0  0  0  0  0  0  0  0
   27.8834   45.0874   46.1583 H   0  0  0  0  0  0  0  0  0  0  0  0
   29.3299   46.2633   47.0701 C   0  0  0  0  0  0  0  0  0  0  0  0
   30.8071   48.1675   46.9703 C   0  0  0  0  0  0  0  0  0  0  0  0
   29.0990   47.9781   46.7229 S   0  0  0  0  0  0  0  0  0  0  0  0
   30.5327   45.9008   47.2958 N   0  0  0  0  0  0  0  0  0  0  0  0
   31.3815   46.9979   47.2758 N   0  0  0  0  0  0  0  0  0  0  0  0
   31.7270   49.6957   46.9165 S   0  0  0  0  0  0  0  0  0  0  0  0
   30.8922   50.7157   46.5812 H   0  0  0  0  0  0  0  0  0  0  0  0
 25 27  1  0  0  0
 25 28  2  0  0  0
 25 22  1  0  0  0
 26 27  1  0  0  0
 26 29  2  0  0  0
 26 30  1  0  0  0
 21 22  1  0  0  0
 21 23  2  0  0  0
 21 20  1  0  0  0
  2  3  2  0  0  0
  2  7  1  0  0  0
  3  4  1  0  0  0
  4  5  2  0  0  0
  5  6  1  0  0  0
  6  7  2  0  0  0
  8 12  1  0  0  0
  8  9  2  0  0  0
  8 10  1  0  0  0
 13 12  1  0  0  0
 13 18  1  0  0  0
 14 15  2  0  0  0
 14 17  1  0  0  0
 15 16  1  0  0  0
 16 18  2  0  0  0
 17 19  2  0  0  0
 28 29  1  0  0  0
 20  1  1  0  0  0
  1  7  1  0  0  0
  1 10  1  0  0  0
 18 19  1  0  0  0
 22 24  1  0  0  0
 30 31  1  0  0  0
 10 11  1  0  0  0
M  END
> <minimizedAffinity>
-7.00415

$$$$
2USN_IN8_A_300


 31 33  0  0  0  0  0  0  0  0999 V2000
   25.1845   44.2836   47.1730 C   0  0  0  0  0  0  0  0  0  0  0  0
   26.2780   44.0676   44.9690 C   0  0  0  0  0  0  0  0  0  0  0  0
   26.6392   44.5516   43.7462 C   0  0  0  0  0  0  0  0  0  0  0  0
   26.4548   45.8687   43.4633 C   0  0  0  0  0  0  0  0  0  0  0  0
   25.7948   46.6677   44.3440 C   0  0  0  0  0  0  0  0  0  0  0  0
   25.3922   46.1712   45.5428 C   0  0  0  0  0  0  0  0  0  0  0  0
   25.6609   44.8674   45.8918 C   0  0  0  0  0  0  0  0  0  0  0  0
   23.2789   44.9163   48.6019 C   0  0  0  0  0  0  0  0  0  0  0  0
   22.8118   43.7617   48.5745 O   0  0  0  0  0  0  0  0  0  0  0  0
   24.3922   45.2504   47.9131 N   0  0  0  0  0  0  0  0  0  0  0  0
   24.6795   46.1920   47.9128 H   0  0  0  0  0  0  0  0  0  0  0  0
   22.7323   45.9670   49.3579 O   0  0  0  0  0  0  0  0  0  0  0  0
   23.7217   46.6364   50.0696 C   0  0  0  0  0  0  0  0  0  0  0  0
   22.8928   46.4628   54.2253 C   0  0  0  0  0  0  0  0  0  0  0  0
   23.5640   45.4438   53.6138 C   0  0  0  0  0  0  0  0  0  0  0  0
   23.8402   45.4958   52.2645 C   0  0  0  0  0  0  0  0  0  0  0  0
   22.5094   47.5474   53.4741 C   0  0  0  0  0  0  0  0  0  0  0  0
   23.4169   46.5467   51.5277 C   0  0  0  0  0  0  0  0  0  0  0  0
   22.7728   47.5783   52.1240 C   0  0  0  0  0  0  0  0  0  0  0  0
   26.3459   43.9026   48.1142 C   0  0  0  0  0  0  0  0  0  0  0  0
   27.3080   45.0913   48.2237 C   0  0  0  0  0  0  0  0  0  0  0  0
   28.3910   45.1170   47.3692 N   0  0  0  0  0  0  0  0  0  0  0  0
   27.0988   46.1212   49.1315 O   0  0  0  0  0  0  0  0  0  0  0  0
   28.4777   44.3594   46.7464 H   0  0  0  0  0  0  0  0  0  0  0  0
   29.4075   46.1331   47.2909 C   0  0  0  0  0  0  0  0  0  0  0  0
   30.5966   48.2189   47.0598 C   0  0  0  0  0  0  0  0  0  0  0  0
   28.9147   47.7971   46.9706 S   0  0  0  0  0  0  0  0  0  0  0  0
   30.6639   45.9393   47.4038 N   0  0  0  0  0  0  0  0  0  0  0  0
   31.3502   47.1410   47.3081 N   0  0  0  0  0  0  0  0  0  0  0  0
   31.2913   49.8570   46.9250 S   0  0  0  0  0  0  0  0  0  0  0  0
   30.2985   50.7510   46.6706 H   0  0  0  0  0  0  0  0  0  0  0  0
 25 27  1  0  0  0
 25 28  2  0  0  0
 25 22  1  0  0  0
 26 27  1  0  0  0
 26 29  2  0  0  0
 26 30  1  0  0  0
 21 22  1  0  0  0
 21 23  2  0  0  0
 21 20  1  0  0  0
  2  3  2  0  0  0
  2  7  1  0  0  0
  3  4  1  0  0  0
  4  5  2  0  0  0
  5  6  1  0  0  0
  6  7  2  0  0  0
  8 12  1  0  0  0
  8  9  2  0  0  0
  8 10  1  0  0  0
 13 12  1  0  0  0
 13 18  1  0  0  0
 14 15  2  0  0  0
 14 17  1  0  0  0
 15 16  1  0  0  0
 16 18  2  0  0  0
 17 19  2  0  0  0
 28 29  1  0  0  0
 20  1  1  0  0  0
  1  7  1  0  0  0
  1 10  1  0  0  0
 18 19  1  0  0  0
 22 24  1  0  0  0
 30 31  1  0  0  0
 10 11  1  0  0  0
M  END
> <minimizedAffinity>
-6.89512

$$$$
2USN_IN8_A_300


 31 33  0  0  0  0  0  0  0  0999 V2000
   28.2055   47.2220   46.7576 C   0  0  0  0  0  0  0  0  0  0  0  0
   28.3419   48.8809   44.9330 C   0  0  0  0  0  0  0  0  0  0  0  0
   27.9891   49.3598   43.7057 C   0  0  0  0  0  0  0  0  0  0  0  0
   26.9572   48.7860   43.0315 C   0  0  0  0  0  0  0  0  0  0  0  0
   26.3682   47.6609   43.5185 C   0  0  0  0  0  0  0  0  0  0  0  0
   26.7543   47.1567   44.7195 C   0  0  0  0  0  0  0  0  0  0  0  0
   27.7260   47.7820   45.4670 C   0  0  0  0  0  0  0  0  0  0  0  0
   29.6916   48.3318   48.3802 C   0  0  0  0  0  0  0  0  0  0  0  0
   28.7965   48.3737   49.2456 O   0  0  0  0  0  0  0  0  0  0  0  0
   29.4649   47.8336   47.1450 N   0  0  0  0  0  0  0  0  0  0  0  0
   30.1860   47.8875   46.4770 H   0  0  0  0  0  0  0  0  0  0  0  0
   31.0129   48.7584   48.5956 O   0  0  0  0  0  0  0  0  0  0  0  0
   31.7173   48.8234   47.3984 C   0  0  0  0  0  0  0  0  0  0  0  0
   34.3496   52.1485   47.4395 C   0  0  0  0  0  0  0  0  0  0  0  0
   33.8614   51.6421   48.6092 C   0  0  0  0  0  0  0  0  0  0  0  0
   33.0089   50.5591   48.6031 C   0  0  0  0  0  0  0  0  0  0  0  0
   33.9865   51.5507   46.2570 C   0  0  0  0  0  0  0  0  0  0  0  0
   32.6226   50.0093   47.4306 C   0  0  0  0  0  0  0  0  0  0  0  0
   33.1184   50.4831   46.2626 C   0  0  0  0  0  0  0  0  0  0  0  0
   28.4966   45.7095   46.6710 C   0  0  0  0  0  0  0  0  0  0  0  0
   27.6778   44.9828   47.7445 C   0  0  0  0  0  0  0  0  0  0  0  0
   27.0309   43.8210   47.3765 N   0  0  0  0  0  0  0  0  0  0  0  0
   27.5975   45.4547   49.0481 O   0  0  0  0  0  0  0  0  0  0  0  0
   27.1334   43.5388   46.4389 H   0  0  0  0  0  0  0  0  0  0  0  0
   26.2221   42.9777   48.2169 C   0  0  0  0  0  0  0  0  0  0  0  0
   24.4425   42.0505   49.5553 C   0  0  0  0  0  0  0  0  0  0  0  0
   24.6159   43.5413   48.6824 S   0  0  0  0  0  0  0  0  0  0  0  0
   26.5726   41.8472   48.6947 N   0  0  0  0  0  0  0  0  0  0  0  0
   25.5391   41.2927   49.4355 N   0  0  0  0  0  0  0  0  0  0  0  0
   22.9985   41.5028   50.4493 S   0  0  0  0  0  0  0  0  0  0  0  0
   22.0444   42.4711   50.4065 H   0  0  0  0  0  0  0  0  0  0  0  0
 25 27  1  0  0  0
 25 28  2  0  0  0
 25 22  1  0  0  0
 26 27  1  0  0  0
 26 29  2  0  0  0
 26 30  1  0  0  0
 21 22  1  0  0  0
 21 23  2  0  0  0
 21 20  1  0  0  0
  2  3  2  0  0  0
  2  7  1  0  0  0
  3  4  1  0  0  0
  4  5  2  0  0  0
  5  6  1  0  0  0
  6  7  2  0  0  0
  8 12  1  0  0  0
  8  9  2  0  0  0
  8 10  1  0  0  0
 13 12  1  0  0  0
 13 18  1  0  0  0
 14 15  2  0  0  0
 14 17  1  0  0  0
 15 16  1  0  0  0
 16 18  2  0  0  0
 17 19  2  0  0  0
 28 29  1  0  0  0
 20  1  1  0  0  0
  1  7  1  0  0  0
  1 10  1  0  0  0
 18 19  1  0  0  0
 22 24  1  0  0  0
 30 31  1  0  0  0
 10 11  1  0  0  0
M  END
> <minimizedAffinity>
-6.68265

$$$$
2USN_IN8_A_300


 31 33  0  0  0  0  0  0  0  0999 V2000
   26.8706   45.1357   47.6292 C   0  0  0  0  0  0  0  0  0  0  0  0
   26.9088   44.2660   45.3179 C   0  0  0  0  0  0  0  0  0  0  0  0
   26.7334   44.4015   43.9722 C   0  0  0  0  0  0  0  0  0  0  0  0
   26.5007   45.6333   43.4454 C   0  0  0  0  0  0  0  0  0  0  0  0
   26.3136   46.7005   44.2675 C   0  0  0  0  0  0  0  0  0  0  0  0
   26.4409   46.5536   45.6120 C   0  0  0  0  0  0  0  0  0  0  0  0
   26.7784   45.3369   46.1594 C   0  0  0  0  0  0  0  0  0  0  0  0
   25.8038   43.1437   48.6125 C   0  0  0  0  0  0  0  0  0  0  0  0
   26.8731   42.5046   48.6003 O   0  0  0  0  0  0  0  0  0  0  0  0
   25.7186   44.3983   48.1184 N   0  0  0  0  0  0  0  0  0  0  0  0
   24.8356   44.8325   48.0886 H   0  0  0  0  0  0  0  0  0  0  0  0
   24.6034   42.6559   49.1560 O   0  0  0  0  0  0  0  0  0  0  0  0
   24.1091   41.5968   48.4026 C   0  0  0  0  0  0  0  0  0  0  0  0
   23.3240   38.3687   51.0390 C   0  0  0  0  0  0  0  0  0  0  0  0
   23.4953   38.1416   49.7040 C   0  0  0  0  0  0  0  0  0  0  0  0
   23.7548   39.1856   48.8425 C   0  0  0  0  0  0  0  0  0  0  0  0
   23.4283   39.6550   51.5101 C   0  0  0  0  0  0  0  0  0  0  0  0
   23.8088   40.4519   49.3116 C   0  0  0  0  0  0  0  0  0  0  0  0
   23.6672   40.6914   50.6372 C   0  0  0  0  0  0  0  0  0  0  0  0
   26.8622   46.4678   48.4073 C   0  0  0  0  0  0  0  0  0  0  0  0
   28.3096   46.9028   48.6650 C   0  0  0  0  0  0  0  0  0  0  0  0
   28.7549   48.0456   48.0332 N   0  0  0  0  0  0  0  0  0  0  0  0
   29.1467   46.1931   49.5160 O   0  0  0  0  0  0  0  0  0  0  0  0
   28.1096   48.5045   47.4482 H   0  0  0  0  0  0  0  0  0  0  0  0
   30.0622   48.6388   48.1380 C   0  0  0  0  0  0  0  0  0  0  0  0
   31.9145   50.1808   48.2337 C   0  0  0  0  0  0  0  0  0  0  0  0
   30.2071   50.3921   47.9998 S   0  0  0  0  0  0  0  0  0  0  0  0
   31.1576   48.0030   48.2956 N   0  0  0  0  0  0  0  0  0  0  0  0
   32.2224   48.8874   48.3878 N   0  0  0  0  0  0  0  0  0  0  0  0
   33.1415   51.4720   48.3419 S   0  0  0  0  0  0  0  0  0  0  0  0
   32.5473   52.6795   48.1457 H   0  0  0  0  0  0  0  0  0  0  0  0
 25 27  1  0  0  0
 25 28  2  0  0  0
 25 22  1  0  0  0
 26 27  1  0  0  0
 26 29  2  0  0  0
 26 30  1  0  0  0
 21 22  1  0  0  0
 21 23  2  0  0  0
 21 20  1  0  0  0
  2  3  2  0  0  0
  2  7  1  0  0  0
  3  4  1  0  0  0
  4  5  2  0  0  0
  5  6  1  0  0  0
  6  7  2  0  0  0
  8 12  1  0  0  0
  8  9  2  0  0  0
  8 10  1  0  0  0
 13 12  1  0  0  0
 13 18  1  0  0  0
 14 15  2  0  0  0
 14 17  1  0  0  0
 15 16  1  0  0  0
 16 18  2  0  0  0
 17 19  2  0  0  0
 28 29  1  0  0  0
 20  1  1  0  0  0
  1  7  1  0  0  0
  1 10  1  0  0  0
 18 19  1  0  0  0
 22 24  1  0  0  0
 30 31  1  0  0  0
 10 11  1  0  0  0
M  END
> <minimizedAffinity>
-6.58443

$$$$
2USN_IN8_A_300


 31 33  0  0  0  0  0  0  0  0999 V2000
   30.2753   48.1346   46.4877 C   0  0  0  0  0  0  0  0  0  0  0  0
   32.1375   49.1940   47.7165 C   0  0  0  0  0  0  0  0  0  0  0  0
   32.7078   50.2402   48.3799 C   0  0  0  0  0  0  0  0  0  0  0  0
   31.9522   51.3235   48.7030 C   0  0  0  0  0  0  0  0  0  0  0  0
   30.6724   51.4191   48.2524 C   0  0  0  0  0  0  0  0  0  0  0  0
   30.1209   50.3958   47.5494 C   0  0  0  0  0  0  0  0  0  0  0  0
   30.8351   49.2460   47.3005 C   0  0  0  0  0  0  0  0  0  0  0  0
   28.3655   48.7076   45.0395 C   0  0  0  0  0  0  0  0  0  0  0  0
   29.1114   48.9737   44.0780 O   0  0  0  0  0  0  0  0  0  0  0  0
   28.8585   48.3422   46.2432 N   0  0  0  0  0  0  0  0  0  0  0  0
   28.2288   48.2106   46.9885 H   0  0  0  0  0  0  0  0  0  0  0  0
   26.9620   48.7267   44.9736 O   0  0  0  0  0  0  0  0  0  0  0  0
   26.5071   48.0630   43.8396 C   0  0  0  0  0  0  0  0  0  0  0  0
   25.0112   44.2347   44.8854 C   0  0  0  0  0  0  0  0  0  0  0  0
   24.3509   45.3629   45.2780 C   0  0  0  0  0  0  0  0  0  0  0  0
   24.8294   46.6099   44.9379 C   0  0  0  0  0  0  0  0  0  0  0  0
   26.1539   44.3645   44.1338 C   0  0  0  0  0  0  0  0  0  0  0  0
   25.9797   46.7250   44.2380 C   0  0  0  0  0  0  0  0  0  0  0  0
   26.6329   45.6152   43.8183 C   0  0  0  0  0  0  0  0  0  0  0  0
   30.3693   46.7735   47.2079 C   0  0  0  0  0  0  0  0  0  0  0  0
   29.0723   46.5332   47.9893 C   0  0  0  0  0  0  0  0  0  0  0  0
   28.1742   45.6228   47.4714 N   0  0  0  0  0  0  0  0  0  0  0  0
   28.8069   47.1863   49.1858 O   0  0  0  0  0  0  0  0  0  0  0  0
   28.4258   45.1907   46.6233 H   0  0  0  0  0  0  0  0  0  0  0  0
   26.9088   45.2372   48.0386 C   0  0  0  0  0  0  0  0  0  0  0  0
   25.0415   43.9965   48.9286 C   0  0  0  0  0  0  0  0  0  0  0  0
   26.5834   43.5206   48.2876 S   0  0  0  0  0  0  0  0  0  0  0  0
   25.9637   46.0325   48.3598 N   0  0  0  0  0  0  0  0  0  0  0  0
   24.9013   45.3273   48.9061 N   0  0  0  0  0  0  0  0  0  0  0  0
   23.7950   42.9182   49.6127 S   0  0  0  0  0  0  0  0  0  0  0  0
   24.2031   41.6256   49.5013 H   0  0  0  0  0  0  0  0  0  0  0  0
 25 27  1  0  0  0
 25 28  2  0  0  0
 25 22  1  0  0  0
 26 27  1  0  0  0
 26 29  2  0  0  0
 26 30  1  0  0  0
 21 22  1  0  0  0
 21 23  2  0  0  0
 21 20  1  0  0  0
  2  3  2  0  0  0
  2  7  1  0  0  0
  3  4  1  0  0  0
  4  5  2  0  0  0
  5  6  1  0  0  0
  6  7  2  0  0  0
  8 12  1  0  0  0
  8  9  2  0  0  0
  8 10  1  0  0  0
 13 12  1  0  0  0
 13 18  1  0  0  0
 14 15  2  0  0  0
 14 17  1  0  0  0
 15 16  1  0  0  0
 16 18  2  0  0  0
 17 19  2  0  0  0
 28 29  1  0  0  0
 20  1  1  0  0  0
  1  7  1  0  0  0
  1 10  1  0  0  0
 18 19  1  0  0  0
 22 24  1  0  0  0
 30 31  1  0  0  0
 10 11  1  0  0  0
M  END
> <minimizedAffinity>
-6.57342

$$$$
2USN_IN8_A_300


 31 33  0  0  0  0  0  0  0  0999 V2000
   26.7817   47.0864   47.1200 C   0  0  0  0  0  0  0  0  0  0  0  0
   26.5309   46.5268   44.7275 C   0  0  0  0  0  0  0  0  0  0  0  0
   26.4716   45.6398   43.6933 C   0  0  0  0  0  0  0  0  0  0  0  0
   26.4137   44.3065   43.9538 C   0  0  0  0  0  0  0  0  0  0  0  0
   26.5470   43.8563   45.2303 C   0  0  0  0  0  0  0  0  0  0  0  0
   26.6548   44.7411   46.2555 C   0  0  0  0  0  0  0  0  0  0  0  0
   26.6112   46.0970   46.0240 C   0  0  0  0  0  0  0  0  0  0  0  0
   26.4853   49.5257   46.9317 C   0  0  0  0  0  0  0  0  0  0  0  0
   25.4879   49.5115   47.6779 O   0  0  0  0  0  0  0  0  0  0  0  0
   27.1299   48.3905   46.5832 N   0  0  0  0  0  0  0  0  0  0  0  0
   27.8692   48.4500   45.9358 H   0  0  0  0  0  0  0  0  0  0  0  0
   27.0568   50.6970   46.4066 O   0  0  0  0  0  0  0  0  0  0  0  0
   28.0555   50.3956   45.4873 C   0  0  0  0  0  0  0  0  0  0  0  0
   26.4819   50.4401   41.5491 C   0  0  0  0  0  0  0  0  0  0  0  0
   26.0444   51.3416   42.4758 C   0  0  0  0  0  0  0  0  0  0  0  0
   26.5546   51.3353   43.7561 C   0  0  0  0  0  0  0  0  0  0  0  0
   27.4497   49.5350   41.9119 C   0  0  0  0  0  0  0  0  0  0  0  0
   27.4725   50.4100   44.1136 C   0  0  0  0  0  0  0  0  0  0  0  0
   27.9363   49.5253   43.1989 C   0  0  0  0  0  0  0  0  0  0  0  0
   27.9372   46.7163   48.0728 C   0  0  0  0  0  0  0  0  0  0  0  0
   29.1964   47.4811   47.6485 C   0  0  0  0  0  0  0  0  0  0  0  0
   29.7471   48.3593   48.5591 N   0  0  0  0  0  0  0  0  0  0  0  0
   29.7831   47.2922   46.4041 O   0  0  0  0  0  0  0  0  0  0  0  0
   29.2856   48.4420   49.4247 H   0  0  0  0  0  0  0  0  0  0  0  0
   30.9244   49.1676   48.3786 C   0  0  0  0  0  0  0  0  0  0  0  0
   32.4560   50.9920   47.9996 C   0  0  0  0  0  0  0  0  0  0  0  0
   30.7233   50.8878   48.0398 S   0  0  0  0  0  0  0  0  0  0  0  0
   32.1287   48.7463   48.4110 N   0  0  0  0  0  0  0  0  0  0  0  0
   33.0151   49.7979   48.2299 N   0  0  0  0  0  0  0  0  0  0  0  0
   33.4279   52.4701   47.7649 S   0  0  0  0  0  0  0  0  0  0  0  0
   32.6001   53.5277   47.5508 H   0  0  0  0  0  0  0  0  0  0  0  0
 25 27  1  0  0  0
 25 28  2  0  0  0
 25 22  1  0  0  0
 26 27  1  0  0  0
 26 29  2  0  0  0
 26 30  1  0  0  0
 21 22  1  0  0  0
 21 23  2  0  0  0
 21 20  1  0  0  0
  2  3  2  0  0  0
  2  7  1  0  0  0
  3  4  1  0  0  0
  4  5  2  0  0  0
  5  6  1  0  0  0
  6  7  2  0  0  0
  8 12  1  0  0  0
  8  9  2  0  0  0
  8 10  1  0  0  0
 13 12  1  0  0  0
 13 18  1  0  0  0
 14 15  2  0  0  0
 14 17  1  0  0  0
 15 16  1  0  0  0
 16 18  2  0  0  0
 17 19  2  0  0  0
 28 29  1  0  0  0
 20  1  1  0  0  0
  1  7  1  0  0  0
  1 10  1  0  0  0
 18 19  1  0  0  0
 22 24  1  0  0  0
 30 31  1  0  0  0
 10 11  1  0  0  0
M  END
> <minimizedAffinity>
-6.55850

$$$$
2USN_IN8_A_300


 31 33  0  0  0  0  0  0  0  0999 V2000
   25.0673   44.3850   48.2483 C   0  0  0  0  0  0  0  0  0  0  0  0
   23.5637   43.0695   49.7005 C   0  0  0  0  0  0  0  0  0  0  0  0
   22.8506   42.8814   50.8476 C   0  0  0  0  0  0  0  0  0  0  0  0
   22.7153   43.9063   51.7308 C   0  0  0  0  0  0  0  0  0  0  0  0
   23.3954   45.0677   51.5345 C   0  0  0  0  0  0  0  0  0  0  0  0
   24.1449   45.2356   50.4139 C   0  0  0  0  0  0  0  0  0  0  0  0
   24.2122   44.2493   49.4564 C   0  0  0  0  0  0  0  0  0  0  0  0
   24.2321   43.8575   45.9906 C   0  0  0  0  0  0  0  0  0  0  0  0
   24.1100   45.0629   45.7009 O   0  0  0  0  0  0  0  0  0  0  0  0
   24.6432   43.4575   47.2139 N   0  0  0  0  0  0  0  0  0  0  0  0
   24.6560   42.4935   47.4133 H   0  0  0  0  0  0  0  0  0  0  0  0
   23.9920   42.8052   45.0910 O   0  0  0  0  0  0  0  0  0  0  0  0
   22.7763   42.1865   45.3606 C   0  0  0  0  0  0  0  0  0  0  0  0
   22.5236   38.5139   43.2546 C   0  0  0  0  0  0  0  0  0  0  0  0
   22.9916   38.5419   44.5364 C   0  0  0  0  0  0  0  0  0  0  0  0
   23.0723   39.7314   45.2279 C   0  0  0  0  0  0  0  0  0  0  0  0
   22.1220   39.6909   42.6709 C   0  0  0  0  0  0  0  0  0  0  0  0
   22.7178   40.8885   44.6264 C   0  0  0  0  0  0  0  0  0  0  0  0
   22.2268   40.8748   43.3642 C   0  0  0  0  0  0  0  0  0  0  0  0
   26.5432   44.0348   48.5295 C   0  0  0  0  0  0  0  0  0  0  0  0
   27.4325   45.1672   48.0028 C   0  0  0  0  0  0  0  0  0  0  0  0
   28.7445   45.1995   48.4287 N   0  0  0  0  0  0  0  0  0  0  0  0
   26.9537   46.1208   47.1140 O   0  0  0  0  0  0  0  0  0  0  0  0
   29.0213   44.4911   49.0538 H   0  0  0  0  0  0  0  0  0  0  0  0
   29.7516   46.1582   48.0568 C   0  0  0  0  0  0  0  0  0  0  0  0
   31.1061   48.1425   47.8428 C   0  0  0  0  0  0  0  0  0  0  0  0
   29.6735   47.7777   48.7534 S   0  0  0  0  0  0  0  0  0  0  0  0
   30.7022   45.9562   47.2294 N   0  0  0  0  0  0  0  0  0  0  0  0
   31.5058   47.0825   47.1301 N   0  0  0  0  0  0  0  0  0  0  0  0
   32.0190   49.6756   47.8645 S   0  0  0  0  0  0  0  0  0  0  0  0
   31.3836   50.5703   48.6678 H   0  0  0  0  0  0  0  0  0  0  0  0
 25 27  1  0  0  0
 25 28  2  0  0  0
 25 22  1  0  0  0
 26 27  1  0  0  0
 26 29  2  0  0  0
 26 30  1  0  0  0
 21 22  1  0  0  0
 21 23  2  0  0  0
 21 20  1  0  0  0
  2  3  2  0  0  0
  2  7  1  0  0  0
  3  4  1  0  0  0
  4  5  2  0  0  0
  5  6  1  0  0  0
  6  7  2  0  0  0
  8 12  1  0  0  0
  8  9  2  0  0  0
  8 10  1  0  0  0
 13 12  1  0  0  0
 13 18  1  0  0  0
 14 15  2  0  0  0
 14 17  1  0  0  0
 15 16  1  0  0  0
 16 18  2  0  0  0
 17 19  2  0  0  0
 28 29  1  0  0  0
 20  1  1  0  0  0
  1  7  1  0  0  0
  1 10  1  0  0  0
 18 19  1  0  0  0
 22 24  1  0  0  0
 30 31  1  0  0  0
 10 11  1  0  0  0
M  END
> <minimizedAffinity>
-6.54662

$$$$
