5VSF_9HG_A_3006


 30 33  0  0  0  0  0  0  0  0999 V2000
   20.9929  -14.7042   -2.8701 C   0  0  0  0  0  0  0  0  0  0  0  0
   21.1884  -13.4583   -2.2691 C   0  0  0  0  0  0  0  0  0  0  0  0
   21.9546  -12.4957   -2.9452 C   0  0  0  0  0  0  0  0  0  0  0  0
   22.4876  -12.7996   -4.1453 N   0  0  0  0  0  0  0  0  0  0  0  0
   21.5380  -14.9494   -4.0823 N   0  0  0  0  0  0  0  0  0  0  0  0
   22.2831  -14.0078   -4.7037 C   0  0  0  0  0  0  0  0  0  0  0  0
   20.2386  -15.6976   -2.2378 C   0  0  0  0  0  0  0  0  0  0  0  0
   20.6158  -13.1975   -1.0256 C   0  0  0  0  0  0  0  0  0  0  0  0
   19.6722  -15.4298   -0.9945 C   0  0  0  0  0  0  0  0  0  0  0  0
   19.8666  -14.1929   -0.3953 C   0  0  0  0  0  0  0  0  0  0  0  0
   23.1406  -13.2473   -6.8972 C   0  0  0  0  0  0  0  0  0  0  0  0
   22.8424  -14.3064   -5.9414 N   0  0  0  0  0  0  0  0  0  0  0  0
   25.1671  -16.7954   -7.0377 C   0  0  0  0  0  0  0  0  0  0  0  0
   23.0144  -15.9159   -7.7433 C   0  0  0  0  0  0  0  0  0  0  0  0
   24.0508  -16.9847   -8.0595 C   0  0  0  0  0  0  0  0  0  0  0  0
   24.5905  -15.9518   -5.9037 C   0  0  0  0  0  0  0  0  0  0  0  0
   23.1225  -15.7069   -6.2422 C   0  0  0  0  0  0  0  0  0  0  0  0
   19.0660  -17.7481   -0.6923 C   0  0  0  0  0  0  0  0  0  0  0  0
   18.9178  -16.3688   -0.3360 O   0  0  0  0  0  0  0  0  0  0  0  0
   19.8754  -12.9989    1.7122 C   0  0  0  0  0  0  0  0  0  0  0  0
   19.2994  -13.9695    0.8266 O   0  0  0  0  0  0  0  0  0  0  0  0
   22.1905  -11.2624   -2.4337 N   0  0  0  0  0  0  0  0  0  0  0  0
   21.7610  -10.9845   -1.5925 H   0  0  0  0  0  0  0  0  0  0  0  0
   24.9015   -6.4690   -3.3775 C   0  0  0  0  0  0  0  0  0  0  0  0
   24.2382   -9.9748   -2.2035 C   0  0  0  0  0  0  0  0  0  0  0  0
   22.2509   -9.0999   -3.3618 C   0  0  0  0  0  0  0  0  0  0  0  0
   25.0379   -8.7926   -2.7535 C   0  0  0  0  0  0  0  0  0  0  0  0
   23.1166   -7.9645   -3.9006 C   0  0  0  0  0  0  0  0  0  0  0  0
   23.0911  -10.3435   -3.1429 C   0  0  0  0  0  0  0  0  0  0  0  0
   24.1463   -7.6385   -2.9041 N   0  0  0  0  0  0  0  0  0  0  0  0
 15 14  1  0  0  0
 15 13  1  0  0  0
 14 17  1  0  0  0
 13 16  1  0  0  0
 11 12  1  0  0  0
 17 16  1  0  0  0
 17 12  1  0  0  0
 12  6  1  0  0  0
  6  4  2  0  0  0
  6  5  1  0  0  0
 28 26  1  0  0  0
 28 30  1  0  0  0
  4  3  1  0  0  0
  5  1  2  0  0  0
 24 30  1  0  0  0
 26 29  1  0  0  0
 30 27  1  0  0  0
 29 22  1  0  0  0
 29 25  1  0  0  0
  3 22  1  0  0  0
  3  2  2  0  0  0
  1  7  1  0  0  0
  1  2  1  0  0  0
 27 25  1  0  0  0
  7  9  2  0  0  0
  2  8  1  0  0  0
  9 10  1  0  0  0
  9 19  1  0  0  0
 18 19  1  0  0  0
  8 10  2  0  0  0
 10 21  1  0  0  0
 21 20  1  0  0  0
 22 23  1  0  0  0
M  END
> <minimizedAffinity>
-7.86600

$$$$
5VSF_9HG_A_3006


 30 33  0  0  0  0  0  0  0  0999 V2000
   23.8941  -10.6646   -4.3420 C   0  0  0  0  0  0  0  0  0  0  0  0
   22.8511  -10.8401   -3.4293 C   0  0  0  0  0  0  0  0  0  0  0  0
   22.2777  -12.1147   -3.2967 C   0  0  0  0  0  0  0  0  0  0  0  0
   22.7383  -13.1284   -4.0562 N   0  0  0  0  0  0  0  0  0  0  0  0
   24.3266  -11.7203   -5.0668 N   0  0  0  0  0  0  0  0  0  0  0  0
   23.7459  -12.9332   -4.9280 C   0  0  0  0  0  0  0  0  0  0  0  0
   24.4983   -9.4151   -4.5124 C   0  0  0  0  0  0  0  0  0  0  0  0
   22.4122   -9.7569   -2.6703 C   0  0  0  0  0  0  0  0  0  0  0  0
   24.0522   -8.3375   -3.7521 C   0  0  0  0  0  0  0  0  0  0  0  0
   23.0152   -8.5098   -2.8457 C   0  0  0  0  0  0  0  0  0  0  0  0
   25.6336  -14.1627   -5.9528 C   0  0  0  0  0  0  0  0  0  0  0  0
   24.2076  -13.9892   -5.7062 N   0  0  0  0  0  0  0  0  0  0  0  0
   23.4446  -17.2285   -7.0197 C   0  0  0  0  0  0  0  0  0  0  0  0
   23.3484  -14.9195   -7.7709 C   0  0  0  0  0  0  0  0  0  0  0  0
   23.0019  -16.3438   -8.1804 C   0  0  0  0  0  0  0  0  0  0  0  0
   23.6213  -16.3152   -5.8096 C   0  0  0  0  0  0  0  0  0  0  0  0
   23.2201  -14.9121   -6.2570 C   0  0  0  0  0  0  0  0  0  0  0  0
   25.9315   -6.8741   -3.3523 C   0  0  0  0  0  0  0  0  0  0  0  0
   24.6169   -7.0926   -3.8771 O   0  0  0  0  0  0  0  0  0  0  0  0
   22.9485   -7.3260   -0.7335 C   0  0  0  0  0  0  0  0  0  0  0  0
   22.6019   -7.4282   -2.1218 O   0  0  0  0  0  0  0  0  0  0  0  0
   21.2641  -12.3708   -2.4334 N   0  0  0  0  0  0  0  0  0  0  0  0
   20.6081  -11.6692   -2.2173 H   0  0  0  0  0  0  0  0  0  0  0  0
   18.6318  -16.8176   -0.3086 C   0  0  0  0  0  0  0  0  0  0  0  0
   20.3906  -14.6104   -2.7873 C   0  0  0  0  0  0  0  0  0  0  0  0
   20.2733  -13.4762   -0.6064 C   0  0  0  0  0  0  0  0  0  0  0  0
   19.9653  -15.9078   -2.0977 C   0  0  0  0  0  0  0  0  0  0  0  0
   19.8830  -14.8120    0.0201 C   0  0  0  0  0  0  0  0  0  0  0  0
   21.1511  -13.7022   -1.8224 C   0  0  0  0  0  0  0  0  0  0  0  0
   19.1032  -15.5848   -0.9567 N   0  0  0  0  0  0  0  0  0  0  0  0
 15 14  1  0  0  0
 15 13  1  0  0  0
 14 17  1  0  0  0
 13 16  1  0  0  0
 11 12  1  0  0  0
 17 16  1  0  0  0
 17 12  1  0  0  0
 12  6  1  0  0  0
  6  4  2  0  0  0
  6  5  1  0  0  0
 28 26  1  0  0  0
 28 30  1  0  0  0
  4  3  1  0  0  0
  5  1  2  0  0  0
 24 30  1  0  0  0
 26 29  1  0  0  0
 30 27  1  0  0  0
 29 22  1  0  0  0
 29 25  1  0  0  0
  3 22  1  0  0  0
  3  2  2  0  0  0
  1  7  1  0  0  0
  1  2  1  0  0  0
 27 25  1  0  0  0
  7  9  2  0  0  0
  2  8  1  0  0  0
  9 10  1  0  0  0
  9 19  1  0  0  0
 18 19  1  0  0  0
  8 10  2  0  0  0
 10 21  1  0  0  0
 21 20  1  0  0  0
 22 23  1  0  0  0
M  END
> <minimizedAffinity>
-7.13259

$$$$
5VSF_9HG_A_3006


 30 33  0  0  0  0  0  0  0  0999 V2000
   21.3628  -12.9409   -2.2503 C   0  0  0  0  0  0  0  0  0  0  0  0
   21.3875  -13.9520   -3.2140 C   0  0  0  0  0  0  0  0  0  0  0  0
   22.1255  -13.7453   -4.3902 C   0  0  0  0  0  0  0  0  0  0  0  0
   22.7793  -12.5795   -4.5634 N   0  0  0  0  0  0  0  0  0  0  0  0
   22.0497  -11.7978   -2.4697 N   0  0  0  0  0  0  0  0  0  0  0  0
   22.7406  -11.6210   -3.6183 C   0  0  0  0  0  0  0  0  0  0  0  0
   20.6420  -13.0969   -1.0622 C   0  0  0  0  0  0  0  0  0  0  0  0
   20.6917  -15.1375   -2.9846 C   0  0  0  0  0  0  0  0  0  0  0  0
   19.9475  -14.2833   -0.8419 C   0  0  0  0  0  0  0  0  0  0  0  0
   19.9699  -15.2884   -1.7990 C   0  0  0  0  0  0  0  0  0  0  0  0
   24.5765  -10.3593   -4.6965 C   0  0  0  0  0  0  0  0  0  0  0  0
   23.4185  -10.4227   -3.8138 N   0  0  0  0  0  0  0  0  0  0  0  0
   23.4981   -6.8729   -3.3735 C   0  0  0  0  0  0  0  0  0  0  0  0
   23.9316   -8.8567   -2.0386 C   0  0  0  0  0  0  0  0  0  0  0  0
   23.8578   -7.3382   -1.9664 C   0  0  0  0  0  0  0  0  0  0  0  0
   22.9450   -8.0880   -4.1135 C   0  0  0  0  0  0  0  0  0  0  0  0
   22.9277   -9.2403   -3.1127 C   0  0  0  0  0  0  0  0  0  0  0  0
   19.3545  -13.5417    1.3788 C   0  0  0  0  0  0  0  0  0  0  0  0
   19.2308  -14.4881    0.3108 O   0  0  0  0  0  0  0  0  0  0  0  0
   19.9326  -17.5506   -0.9337 C   0  0  0  0  0  0  0  0  0  0  0  0
   19.2724  -16.4355   -1.5492 O   0  0  0  0  0  0  0  0  0  0  0  0
   22.2034  -14.6754   -5.3737 N   0  0  0  0  0  0  0  0  0  0  0  0
   21.3888  -15.1233   -5.6977 H   0  0  0  0  0  0  0  0  0  0  0  0
   25.7409  -17.0426   -8.9931 C   0  0  0  0  0  0  0  0  0  0  0  0
   23.5690  -14.4431   -7.3701 C   0  0  0  0  0  0  0  0  0  0  0  0
   23.4915  -16.5233   -6.0574 C   0  0  0  0  0  0  0  0  0  0  0  0
   24.7616  -15.0128   -8.1399 C   0  0  0  0  0  0  0  0  0  0  0  0
   24.7032  -17.0154   -6.8440 C   0  0  0  0  0  0  0  0  0  0  0  0
   23.5116  -15.0104   -5.9526 C   0  0  0  0  0  0  0  0  0  0  0  0
   24.6364  -16.4720   -8.2078 N   0  0  0  0  0  0  0  0  0  0  0  0
 15 14  1  0  0  0
 15 13  1  0  0  0
 14 17  1  0  0  0
 13 16  1  0  0  0
 11 12  1  0  0  0
 17 16  1  0  0  0
 17 12  1  0  0  0
 12  6  1  0  0  0
  6  4  2  0  0  0
  6  5  1  0  0  0
 28 26  1  0  0  0
 28 30  1  0  0  0
  4  3  1  0  0  0
  5  1  2  0  0  0
 24 30  1  0  0  0
 26 29  1  0  0  0
 30 27  1  0  0  0
 29 22  1  0  0  0
 29 25  1  0  0  0
  3 22  1  0  0  0
  3  2  2  0  0  0
  1  7  1  0  0  0
  1  2  1  0  0  0
 27 25  1  0  0  0
  7  9  2  0  0  0
  2  8  1  0  0  0
  9 10  1  0  0  0
  9 19  1  0  0  0
 18 19  1  0  0  0
  8 10  2  0  0  0
 10 21  1  0  0  0
 21 20  1  0  0  0
 22 23  1  0  0  0
M  END
> <minimizedAffinity>
-6.96575

$$$$
5VSF_9HG_A_3006


 30 33  0  0  0  0  0  0  0  0999 V2000
   21.0773  -14.6942   -2.9860 C   0  0  0  0  0  0  0  0  0  0  0  0
   21.2332  -13.4196   -2.4359 C   0  0  0  0  0  0  0  0  0  0  0  0
   21.9451  -12.4529   -3.1637 C   0  0  0  0  0  0  0  0  0  0  0  0
   22.4656  -12.7801   -4.3631 N   0  0  0  0  0  0  0  0  0  0  0  0
   21.6074  -14.9627   -4.2000 N   0  0  0  0  0  0  0  0  0  0  0  0
   22.3000  -14.0158   -4.8719 C   0  0  0  0  0  0  0  0  0  0  0  0
   20.3778  -15.6927   -2.3011 C   0  0  0  0  0  0  0  0  0  0  0  0
   20.6758  -13.1354   -1.1906 C   0  0  0  0  0  0  0  0  0  0  0  0
   19.8262  -15.4014   -1.0565 C   0  0  0  0  0  0  0  0  0  0  0  0
   19.9814  -14.1358   -0.5078 C   0  0  0  0  0  0  0  0  0  0  0  0
   23.1307  -13.2979   -7.0899 C   0  0  0  0  0  0  0  0  0  0  0  0
   22.8459  -14.3381   -6.1096 N   0  0  0  0  0  0  0  0  0  0  0  0
   25.2053  -16.8650   -7.0310 C   0  0  0  0  0  0  0  0  0  0  0  0
   23.1211  -15.9575   -7.8897 C   0  0  0  0  0  0  0  0  0  0  0  0
   24.1614  -17.0425   -8.1284 C   0  0  0  0  0  0  0  0  0  0  0  0
   24.5627  -16.0084   -5.9433 C   0  0  0  0  0  0  0  0  0  0  0  0
   23.1259  -15.7438   -6.3854 C   0  0  0  0  0  0  0  0  0  0  0  0
   19.4170  -17.7300   -0.5635 C   0  0  0  0  0  0  0  0  0  0  0  0
   19.1248  -16.3446   -0.3474 O   0  0  0  0  0  0  0  0  0  0  0  0
   20.0520  -12.9456    1.6007 C   0  0  0  0  0  0  0  0  0  0  0  0
   19.4304  -13.8896    0.7172 O   0  0  0  0  0  0  0  0  0  0  0  0
   22.1401  -11.1926   -2.7034 N   0  0  0  0  0  0  0  0  0  0  0  0
   21.3945  -10.6913   -2.3008 H   0  0  0  0  0  0  0  0  0  0  0  0
   27.2266  -10.3489   -4.8558 C   0  0  0  0  0  0  0  0  0  0  0  0
   23.5670   -9.8694   -4.1585 C   0  0  0  0  0  0  0  0  0  0  0  0
   24.4201  -11.7628   -2.8379 C   0  0  0  0  0  0  0  0  0  0  0  0
   25.0126   -9.4790   -4.4702 C   0  0  0  0  0  0  0  0  0  0  0  0
   25.8365  -11.2973   -3.1634 C   0  0  0  0  0  0  0  0  0  0  0  0
   23.4712  -10.5799   -2.8093 C   0  0  0  0  0  0  0  0  0  0  0  0
   25.8407  -10.6885   -4.5009 N   0  0  0  0  0  0  0  0  0  0  0  0
 15 14  1  0  0  0
 15 13  1  0  0  0
 14 17  1  0  0  0
 13 16  1  0  0  0
 11 12  1  0  0  0
 17 16  1  0  0  0
 17 12  1  0  0  0
 12  6  1  0  0  0
  6  4  2  0  0  0
  6  5  1  0  0  0
 28 26  1  0  0  0
 28 30  1  0  0  0
  4  3  1  0  0  0
  5  1  2  0  0  0
 24 30  1  0  0  0
 26 29  1  0  0  0
 30 27  1  0  0  0
 29 22  1  0  0  0
 29 25  1  0  0  0
  3 22  1  0  0  0
  3  2  2  0  0  0
  1  7  1  0  0  0
  1  2  1  0  0  0
 27 25  1  0  0  0
  7  9  2  0  0  0
  2  8  1  0  0  0
  9 10  1  0  0  0
  9 19  1  0  0  0
 18 19  1  0  0  0
  8 10  2  0  0  0
 10 21  1  0  0  0
 21 20  1  0  0  0
 22 23  1  0  0  0
M  END
> <minimizedAffinity>
-6.91825

$$$$
5VSF_9HG_A_3006


 30 33  0  0  0  0  0  0  0  0999 V2000
   22.0816  -14.4754   -4.6110 C   0  0  0  0  0  0  0  0  0  0  0  0
   22.9482  -13.3840   -4.5120 C   0  0  0  0  0  0  0  0  0  0  0  0
   22.9118  -12.5967   -3.3503 C   0  0  0  0  0  0  0  0  0  0  0  0
   22.0400  -12.9058   -2.3699 N   0  0  0  0  0  0  0  0  0  0  0  0
   21.2385  -14.7484   -3.5905 N   0  0  0  0  0  0  0  0  0  0  0  0
   21.2160  -13.9642   -2.4894 C   0  0  0  0  0  0  0  0  0  0  0  0
   22.0778  -15.2902   -5.7475 C   0  0  0  0  0  0  0  0  0  0  0  0
   23.8285  -13.1083   -5.5565 C   0  0  0  0  0  0  0  0  0  0  0  0
   22.9587  -15.0063   -6.7876 C   0  0  0  0  0  0  0  0  0  0  0  0
   23.8194  -13.9216   -6.6914 C   0  0  0  0  0  0  0  0  0  0  0  0
   20.2375  -13.4309   -0.2796 C   0  0  0  0  0  0  0  0  0  0  0  0
   20.3203  -14.2678   -1.4699 N   0  0  0  0  0  0  0  0  0  0  0  0
   18.0809  -16.6560   -0.0268 C   0  0  0  0  0  0  0  0  0  0  0  0
   20.2298  -16.6685   -1.1613 C   0  0  0  0  0  0  0  0  0  0  0  0
   19.1614  -17.5812   -0.5766 C   0  0  0  0  0  0  0  0  0  0  0  0
   18.3001  -15.2888   -0.6693 C   0  0  0  0  0  0  0  0  0  0  0  0
   19.4699  -15.4421   -1.6377 C   0  0  0  0  0  0  0  0  0  0  0  0
   23.2322  -17.1867   -7.7898 C   0  0  0  0  0  0  0  0  0  0  0  0
   22.9987  -15.7797   -7.9210 O   0  0  0  0  0  0  0  0  0  0  0  0
   25.9229  -14.3579   -7.8105 C   0  0  0  0  0  0  0  0  0  0  0  0
   24.6651  -13.6721   -7.7341 O   0  0  0  0  0  0  0  0  0  0  0  0
   23.7198  -11.5224   -3.1733 N   0  0  0  0  0  0  0  0  0  0  0  0
   24.6982  -11.6298   -3.1925 H   0  0  0  0  0  0  0  0  0  0  0  0
   23.7009   -5.9877   -2.4087 C   0  0  0  0  0  0  0  0  0  0  0  0
   23.4736   -9.3098   -4.1469 C   0  0  0  0  0  0  0  0  0  0  0  0
   23.8643   -9.6588   -1.7423 C   0  0  0  0  0  0  0  0  0  0  0  0
   23.1602   -7.8426   -3.8488 C   0  0  0  0  0  0  0  0  0  0  0  0
   23.5092   -8.1922   -1.5145 C   0  0  0  0  0  0  0  0  0  0  0  0
   23.1256  -10.1969   -2.9527 C   0  0  0  0  0  0  0  0  0  0  0  0
   23.9391   -7.4125   -2.6836 N   0  0  0  0  0  0  0  0  0  0  0  0
 15 14  1  0  0  0
 15 13  1  0  0  0
 14 17  1  0  0  0
 13 16  1  0  0  0
 11 12  1  0  0  0
 17 16  1  0  0  0
 17 12  1  0  0  0
 12  6  1  0  0  0
  6  4  2  0  0  0
  6  5  1  0  0  0
 28 26  1  0  0  0
 28 30  1  0  0  0
  4  3  1  0  0  0
  5  1  2  0  0  0
 24 30  1  0  0  0
 26 29  1  0  0  0
 30 27  1  0  0  0
 29 22  1  0  0  0
 29 25  1  0  0  0
  3 22  1  0  0  0
  3  2  2  0  0  0
  1  7  1  0  0  0
  1  2  1  0  0  0
 27 25  1  0  0  0
  7  9  2  0  0  0
  2  8  1  0  0  0
  9 10  1  0  0  0
  9 19  1  0  0  0
 18 19  1  0  0  0
  8 10  2  0  0  0
 10 21  1  0  0  0
 21 20  1  0  0  0
 22 23  1  0  0  0
M  END
> <minimizedAffinity>
-6.88073

$$$$
5VSF_9HG_A_3006


 30 33  0  0  0  0  0  0  0  0999 V2000
   22.0326  -12.0636   -2.5912 C   0  0  0  0  0  0  0  0  0  0  0  0
   22.2825  -12.6122   -3.8516 C   0  0  0  0  0  0  0  0  0  0  0  0
   21.7387  -13.8690   -4.1604 C   0  0  0  0  0  0  0  0  0  0  0  0
   21.0020  -14.5154   -3.2351 N   0  0  0  0  0  0  0  0  0  0  0  0
   21.2739  -12.7492   -1.7074 N   0  0  0  0  0  0  0  0  0  0  0  0
   20.7747  -13.9641   -2.0277 C   0  0  0  0  0  0  0  0  0  0  0  0
   22.5521  -10.8154   -2.2341 C   0  0  0  0  0  0  0  0  0  0  0  0
   23.0527  -11.9015   -4.7702 C   0  0  0  0  0  0  0  0  0  0  0  0
   23.3226  -10.1131   -3.1567 C   0  0  0  0  0  0  0  0  0  0  0  0
   23.5730  -10.6572   -4.4089 C   0  0  0  0  0  0  0  0  0  0  0  0
   19.8381  -14.1049    0.2588 C   0  0  0  0  0  0  0  0  0  0  0  0
   20.0149  -14.6455   -1.0831 N   0  0  0  0  0  0  0  0  0  0  0  0
   18.1485  -17.5627   -0.1846 C   0  0  0  0  0  0  0  0  0  0  0  0
   20.3357  -17.0461   -1.1090 C   0  0  0  0  0  0  0  0  0  0  0  0
   19.4115  -18.2016   -0.7523 C   0  0  0  0  0  0  0  0  0  0  0  0
   18.1615  -16.0983   -0.6151 C   0  0  0  0  0  0  0  0  0  0  0  0
   19.4018  -15.9079   -1.4841 C   0  0  0  0  0  0  0  0  0  0  0  0
   24.4989   -8.6962   -1.5941 C   0  0  0  0  0  0  0  0  0  0  0  0
   23.8494   -8.8814   -2.8572 O   0  0  0  0  0  0  0  0  0  0  0  0
   25.7245   -9.7132   -4.9985 C   0  0  0  0  0  0  0  0  0  0  0  0
   24.3373   -9.9408   -5.2848 O   0  0  0  0  0  0  0  0  0  0  0  0
   21.9310  -14.4706   -5.3601 N   0  0  0  0  0  0  0  0  0  0  0  0
   21.1591  -14.7471   -5.9051 H   0  0  0  0  0  0  0  0  0  0  0  0
   25.9032  -16.7244   -8.5787 C   0  0  0  0  0  0  0  0  0  0  0  0
   23.3807  -14.2534   -7.2980 C   0  0  0  0  0  0  0  0  0  0  0  0
   23.4424  -16.2169   -5.8157 C   0  0  0  0  0  0  0  0  0  0  0  0
   24.6695  -14.7507   -7.9548 C   0  0  0  0  0  0  0  0  0  0  0  0
   24.7430  -16.6365   -6.4949 C   0  0  0  0  0  0  0  0  0  0  0  0
   23.2988  -14.7073   -5.8415 C   0  0  0  0  0  0  0  0  0  0  0  0
   24.7009  -16.2155   -7.9022 N   0  0  0  0  0  0  0  0  0  0  0  0
 15 14  1  0  0  0
 15 13  1  0  0  0
 14 17  1  0  0  0
 13 16  1  0  0  0
 11 12  1  0  0  0
 17 16  1  0  0  0
 17 12  1  0  0  0
 12  6  1  0  0  0
  6  4  2  0  0  0
  6  5  1  0  0  0
 28 26  1  0  0  0
 28 30  1  0  0  0
  4  3  1  0  0  0
  5  1  2  0  0  0
 24 30  1  0  0  0
 26 29  1  0  0  0
 30 27  1  0  0  0
 29 22  1  0  0  0
 29 25  1  0  0  0
  3 22  1  0  0  0
  3  2  2  0  0  0
  1  7  1  0  0  0
  1  2  1  0  0  0
 27 25  1  0  0  0
  7  9  2  0  0  0
  2  8  1  0  0  0
  9 10  1  0  0  0
  9 19  1  0  0  0
 18 19  1  0  0  0
  8 10  2  0  0  0
 10 21  1  0  0  0
 21 20  1  0  0  0
 22 23  1  0  0  0
M  END
> <minimizedAffinity>
-6.41658

$$$$
5VSF_9HG_A_3006


 30 33  0  0  0  0  0  0  0  0999 V2000
   21.7196  -13.0923   -2.4684 C   0  0  0  0  0  0  0  0  0  0  0  0
   21.4965  -14.0859   -3.4248 C   0  0  0  0  0  0  0  0  0  0  0  0
   22.2107  -14.0329   -4.6322 C   0  0  0  0  0  0  0  0  0  0  0  0
   23.0809  -13.0250   -4.8412 N   0  0  0  0  0  0  0  0  0  0  0  0
   22.6156  -12.1134   -2.7247 N   0  0  0  0  0  0  0  0  0  0  0  0
   23.2788  -12.0801   -3.9024 C   0  0  0  0  0  0  0  0  0  0  0  0
   21.0331  -13.0992   -1.2501 C   0  0  0  0  0  0  0  0  0  0  0  0
   20.5837  -15.1045   -3.1578 C   0  0  0  0  0  0  0  0  0  0  0  0
   20.1210  -14.1190   -0.9922 C   0  0  0  0  0  0  0  0  0  0  0  0
   19.8972  -15.1062   -1.9419 C   0  0  0  0  0  0  0  0  0  0  0  0
   23.7347   -9.7981   -4.7449 C   0  0  0  0  0  0  0  0  0  0  0  0
   24.1782  -11.0453   -4.1349 N   0  0  0  0  0  0  0  0  0  0  0  0
   27.6561  -10.6160   -4.8564 C   0  0  0  0  0  0  0  0  0  0  0  0
   26.1139  -12.4576   -4.4886 C   0  0  0  0  0  0  0  0  0  0  0  0
   27.5819  -12.1337   -4.7262 C   0  0  0  0  0  0  0  0  0  0  0  0
   26.3626  -10.0577   -4.2691 C   0  0  0  0  0  0  0  0  0  0  0  0
   25.5691  -11.2509   -3.7432 C   0  0  0  0  0  0  0  0  0  0  0  0
   19.7614  -13.2495    1.2321 C   0  0  0  0  0  0  0  0  0  0  0  0
   19.4271  -14.1744    0.1909 O   0  0  0  0  0  0  0  0  0  0  0  0
   19.4485  -17.3637   -1.1870 C   0  0  0  0  0  0  0  0  0  0  0  0
   18.9913  -16.0869   -1.6548 O   0  0  0  0  0  0  0  0  0  0  0  0
   22.0554  -14.9580   -5.6111 N   0  0  0  0  0  0  0  0  0  0  0  0
   21.1988  -15.4324   -5.7131 H   0  0  0  0  0  0  0  0  0  0  0  0
   25.8890  -18.1271   -8.1564 C   0  0  0  0  0  0  0  0  0  0  0  0
   22.6918  -16.2441   -7.5721 C   0  0  0  0  0  0  0  0  0  0  0  0
   24.1881  -15.9540   -5.6399 C   0  0  0  0  0  0  0  0  0  0  0  0
   23.8700  -16.8265   -8.3545 C   0  0  0  0  0  0  0  0  0  0  0  0
   25.3252  -16.5147   -6.4895 C   0  0  0  0  0  0  0  0  0  0  0  0
   23.1738  -15.2478   -6.5188 C   0  0  0  0  0  0  0  0  0  0  0  0
   24.7752  -17.5071   -7.4234 N   0  0  0  0  0  0  0  0  0  0  0  0
 15 14  1  0  0  0
 15 13  1  0  0  0
 14 17  1  0  0  0
 13 16  1  0  0  0
 11 12  1  0  0  0
 17 16  1  0  0  0
 17 12  1  0  0  0
 12  6  1  0  0  0
  6  4  2  0  0  0
  6  5  1  0  0  0
 28 26  1  0  0  0
 28 30  1  0  0  0
  4  3  1  0  0  0
  5  1  2  0  0  0
 24 30  1  0  0  0
 26 29  1  0  0  0
 30 27  1  0  0  0
 29 22  1  0  0  0
 29 25  1  0  0  0
  3 22  1  0  0  0
  3  2  2  0  0  0
  1  7  1  0  0  0
  1  2  1  0  0  0
 27 25  1  0  0  0
  7  9  2  0  0  0
  2  8  1  0  0  0
  9 10  1  0  0  0
  9 19  1  0  0  0
 18 19  1  0  0  0
  8 10  2  0  0  0
 10 21  1  0  0  0
 21 20  1  0  0  0
 22 23  1  0  0  0
M  END
> <minimizedAffinity>
-6.34987

$$$$
5VSF_9HG_A_3006


 30 33  0  0  0  0  0  0  0  0999 V2000
   21.1590  -13.1803   -2.3496 C   0  0  0  0  0  0  0  0  0  0  0  0
   21.1954  -14.0913   -3.4082 C   0  0  0  0  0  0  0  0  0  0  0  0
   21.8644  -13.7285   -4.5879 C   0  0  0  0  0  0  0  0  0  0  0  0
   22.4424  -12.5138   -4.6726 N   0  0  0  0  0  0  0  0  0  0  0  0
   21.7692  -11.9818   -2.4838 N   0  0  0  0  0  0  0  0  0  0  0  0
   22.3941  -11.6543   -3.6370 C   0  0  0  0  0  0  0  0  0  0  0  0
   20.5049  -13.4929   -1.1538 C   0  0  0  0  0  0  0  0  0  0  0  0
   20.5793  -15.3333   -3.2678 C   0  0  0  0  0  0  0  0  0  0  0  0
   19.8898  -14.7349   -1.0226 C   0  0  0  0  0  0  0  0  0  0  0  0
   19.9238  -15.6406   -2.0739 C   0  0  0  0  0  0  0  0  0  0  0  0
   22.2317   -9.1901   -3.4745 C   0  0  0  0  0  0  0  0  0  0  0  0
   22.9932  -10.4037   -3.7416 N   0  0  0  0  0  0  0  0  0  0  0  0
   26.3897   -9.7672   -2.8145 C   0  0  0  0  0  0  0  0  0  0  0  0
   24.7768   -8.9109   -4.4177 C   0  0  0  0  0  0  0  0  0  0  0  0
   26.2276   -8.7899   -3.9740 C   0  0  0  0  0  0  0  0  0  0  0  0
   25.2109  -10.7345   -2.8830 C   0  0  0  0  0  0  0  0  0  0  0  0
   24.4020  -10.3529   -4.1199 C   0  0  0  0  0  0  0  0  0  0  0  0
   17.8087  -15.1067    0.1453 C   0  0  0  0  0  0  0  0  0  0  0  0
   19.2408  -15.0923    0.1331 O   0  0  0  0  0  0  0  0  0  0  0  0
   19.9310  -17.8664   -1.1181 C   0  0  0  0  0  0  0  0  0  0  0  0
   19.3048  -16.8467   -1.9094 O   0  0  0  0  0  0  0  0  0  0  0  0
   21.9484  -14.5537   -5.6603 N   0  0  0  0  0  0  0  0  0  0  0  0
   21.1343  -14.8194   -6.1460 H   0  0  0  0  0  0  0  0  0  0  0  0
   27.2433  -14.1621   -7.4006 C   0  0  0  0  0  0  0  0  0  0  0  0
   24.3103  -14.5697   -5.0897 C   0  0  0  0  0  0  0  0  0  0  0  0
   23.5125  -14.3312   -7.4056 C   0  0  0  0  0  0  0  0  0  0  0  0
   25.7246  -14.7778   -5.6338 C   0  0  0  0  0  0  0  0  0  0  0  0
   24.9423  -14.5773   -7.8790 C   0  0  0  0  0  0  0  0  0  0  0  0
   23.2623  -15.0488   -6.0930 C   0  0  0  0  0  0  0  0  0  0  0  0
   25.8732  -14.0267   -6.8842 N   0  0  0  0  0  0  0  0  0  0  0  0
 15 14  1  0  0  0
 15 13  1  0  0  0
 14 17  1  0  0  0
 13 16  1  0  0  0
 11 12  1  0  0  0
 17 16  1  0  0  0
 17 12  1  0  0  0
 12  6  1  0  0  0
  6  4  2  0  0  0
  6  5  1  0  0  0
 28 26  1  0  0  0
 28 30  1  0  0  0
  4  3  1  0  0  0
  5  1  2  0  0  0
 24 30  1  0  0  0
 26 29  1  0  0  0
 30 27  1  0  0  0
 29 22  1  0  0  0
 29 25  1  0  0  0
  3 22  1  0  0  0
  3  2  2  0  0  0
  1  7  1  0  0  0
  1  2  1  0  0  0
 27 25  1  0  0  0
  7  9  2  0  0  0
  2  8  1  0  0  0
  9 10  1  0  0  0
  9 19  1  0  0  0
 18 19  1  0  0  0
  8 10  2  0  0  0
 10 21  1  0  0  0
 21 20  1  0  0  0
 22 23  1  0  0  0
M  END
> <minimizedAffinity>
-6.05535

$$$$
5VSF_9HG_A_3006


 30 33  0  0  0  0  0  0  0  0999 V2000
   22.6734  -10.8732   -3.2791 C   0  0  0  0  0  0  0  0  0  0  0  0
   24.0047  -11.2146   -3.5298 C   0  0  0  0  0  0  0  0  0  0  0  0
   24.3701  -12.5698   -3.5041 C   0  0  0  0  0  0  0  0  0  0  0  0
   23.4350  -13.5010   -3.2299 N   0  0  0  0  0  0  0  0  0  0  0  0
   21.7742  -11.8497   -3.0248 N   0  0  0  0  0  0  0  0  0  0  0  0
   22.1579  -13.1456   -2.9929 C   0  0  0  0  0  0  0  0  0  0  0  0
   22.2586   -9.5378   -3.2920 C   0  0  0  0  0  0  0  0  0  0  0  0
   24.9314  -10.2112   -3.8062 C   0  0  0  0  0  0  0  0  0  0  0  0
   23.1912   -8.5412   -3.5666 C   0  0  0  0  0  0  0  0  0  0  0  0
   24.5146   -8.8786   -3.8145 C   0  0  0  0  0  0  0  0  0  0  0  0
   20.4384  -14.7426   -3.7791 C   0  0  0  0  0  0  0  0  0  0  0  0
   21.2058  -14.1185   -2.7086 N   0  0  0  0  0  0  0  0  0  0  0  0
   19.1606  -15.6619   -0.2115 C   0  0  0  0  0  0  0  0  0  0  0  0
   20.1026  -13.4659   -0.6534 C   0  0  0  0  0  0  0  0  0  0  0  0
   19.3015  -14.2588    0.3693 C   0  0  0  0  0  0  0  0  0  0  0  0
   20.2176  -15.7967   -1.3043 C   0  0  0  0  0  0  0  0  0  0  0  0
   21.0098  -14.4920   -1.3113 C   0  0  0  0  0  0  0  0  0  0  0  0
   22.5346   -6.5520   -2.3645 C   0  0  0  0  0  0  0  0  0  0  0  0
   22.8328   -7.2165   -3.5978 O   0  0  0  0  0  0  0  0  0  0  0  0
   26.6282   -8.1647   -4.7581 C   0  0  0  0  0  0  0  0  0  0  0  0
   25.4009   -7.8730   -4.0749 O   0  0  0  0  0  0  0  0  0  0  0  0
   25.6389  -12.9863   -3.7385 N   0  0  0  0  0  0  0  0  0  0  0  0
   26.3829  -12.6382   -3.1958 H   0  0  0  0  0  0  0  0  0  0  0  0
   26.5535  -14.7156   -8.9721 C   0  0  0  0  0  0  0  0  0  0  0  0
   27.2460  -13.6309   -5.4433 C   0  0  0  0  0  0  0  0  0  0  0  0
   24.8166  -13.6752   -5.8340 C   0  0  0  0  0  0  0  0  0  0  0  0
   27.4367  -14.3983   -6.7526 C   0  0  0  0  0  0  0  0  0  0  0  0
   25.0789  -14.4667   -7.1122 C   0  0  0  0  0  0  0  0  0  0  0  0
   25.8963  -13.9606   -4.8077 C   0  0  0  0  0  0  0  0  0  0  0  0
   26.3628  -14.0355   -7.6825 N   0  0  0  0  0  0  0  0  0  0  0  0
 15 14  1  0  0  0
 15 13  1  0  0  0
 14 17  1  0  0  0
 13 16  1  0  0  0
 11 12  1  0  0  0
 17 16  1  0  0  0
 17 12  1  0  0  0
 12  6  1  0  0  0
  6  4  2  0  0  0
  6  5  1  0  0  0
 28 26  1  0  0  0
 28 30  1  0  0  0
  4  3  1  0  0  0
  5  1  2  0  0  0
 24 30  1  0  0  0
 26 29  1  0  0  0
 30 27  1  0  0  0
 29 22  1  0  0  0
 29 25  1  0  0  0
  3 22  1  0  0  0
  3  2  2  0  0  0
  1  7  1  0  0  0
  1  2  1  0  0  0
 27 25  1  0  0  0
  7  9  2  0  0  0
  2  8  1  0  0  0
  9 10  1  0  0  0
  9 19  1  0  0  0
 18 19  1  0  0  0
  8 10  2  0  0  0
 10 21  1  0  0  0
 21 20  1  0  0  0
 22 23  1  0  0  0
M  END
> <minimizedAffinity>
-5.68335

$$$$
5VSF_9HG_A_3006


 30 33  0  0  0  0  0  0  0  0999 V2000
   22.6361  -10.7373   -3.3179 C   0  0  0  0  0  0  0  0  0  0  0  0
   23.8814  -11.0308   -3.8791 C   0  0  0  0  0  0  0  0  0  0  0  0
   24.2057  -12.3720   -4.1378 C   0  0  0  0  0  0  0  0  0  0  0  0
   23.3168  -13.3375   -3.8308 N   0  0  0  0  0  0  0  0  0  0  0  0
   21.7772  -11.7443   -3.0444 N   0  0  0  0  0  0  0  0  0  0  0  0
   22.1223  -13.0279   -3.2916 C   0  0  0  0  0  0  0  0  0  0  0  0
   22.2653   -9.4179   -3.0399 C   0  0  0  0  0  0  0  0  0  0  0  0
   24.7637   -9.9936   -4.1753 C   0  0  0  0  0  0  0  0  0  0  0  0
   23.1536   -8.3877   -3.3366 C   0  0  0  0  0  0  0  0  0  0  0  0
   24.3918   -8.6777   -3.8929 C   0  0  0  0  0  0  0  0  0  0  0  0
   20.4211  -14.6709   -4.0206 C   0  0  0  0  0  0  0  0  0  0  0  0
   21.2175  -14.0363   -2.9780 N   0  0  0  0  0  0  0  0  0  0  0  0
   19.3673  -15.7206   -0.4205 C   0  0  0  0  0  0  0  0  0  0  0  0
   20.1656  -13.4701   -0.8709 C   0  0  0  0  0  0  0  0  0  0  0  0
   19.4533  -14.3184    0.1728 C   0  0  0  0  0  0  0  0  0  0  0  0
   20.3840  -15.7832   -1.5573 C   0  0  0  0  0  0  0  0  0  0  0  0
   21.1008  -14.4358   -1.5790 C   0  0  0  0  0  0  0  0  0  0  0  0
   22.1595   -6.7468   -1.8695 C   0  0  0  0  0  0  0  0  0  0  0  0
   22.8343   -7.0757   -3.0893 O   0  0  0  0  0  0  0  0  0  0  0  0
   26.2753   -7.3050   -3.2331 C   0  0  0  0  0  0  0  0  0  0  0  0
   25.2378   -7.6410   -4.1652 O   0  0  0  0  0  0  0  0  0  0  0  0
   25.3907  -12.7424   -4.6824 N   0  0  0  0  0  0  0  0  0  0  0  0
   25.5158  -12.7206   -5.6587 H   0  0  0  0  0  0  0  0  0  0  0  0
   28.1100  -16.1673   -1.2049 C   0  0  0  0  0  0  0  0  0  0  0  0
   27.0902  -14.4540   -4.3882 C   0  0  0  0  0  0  0  0  0  0  0  0
   25.7974  -13.5386   -2.5048 C   0  0  0  0  0  0  0  0  0  0  0  0
   28.0186  -15.1307   -3.3784 C   0  0  0  0  0  0  0  0  0  0  0  0
   26.7814  -14.2158   -1.5549 C   0  0  0  0  0  0  0  0  0  0  0  0
   26.4872  -13.1766   -3.8061 C   0  0  0  0  0  0  0  0  0  0  0  0
   27.2550  -15.4628   -2.1717 N   0  0  0  0  0  0  0  0  0  0  0  0
 15 14  1  0  0  0
 15 13  1  0  0  0
 14 17  1  0  0  0
 13 16  1  0  0  0
 11 12  1  0  0  0
 17 16  1  0  0  0
 17 12  1  0  0  0
 12  6  1  0  0  0
  6  4  2  0  0  0
  6  5  1  0  0  0
 28 26  1  0  0  0
 28 30  1  0  0  0
  4  3  1  0  0  0
  5  1  2  0  0  0
 24 30  1  0  0  0
 26 29  1  0  0  0
 30 27  1  0  0  0
 29 22  1  0  0  0
 29 25  1  0  0  0
  3 22  1  0  0  0
  3  2  2  0  0  0
  1  7  1  0  0  0
  1  2  1  0  0  0
 27 25  1  0  0  0
  7  9  2  0  0  0
  2  8  1  0  0  0
  9 10  1  0  0  0
  9 19  1  0  0  0
 18 19  1  0  0  0
  8 10  2  0  0  0
 10 21  1  0  0  0
 21 20  1  0  0  0
 22 23  1  0  0  0
M  END
> <minimizedAffinity>
-5.52032

$$$$
