5EWY_5TQ_A_301


 24 26  0  0  0  0  0  0  0  0999 V2000
   21.8076   35.0959   21.6340 N   0  0  0  0  0  0  0  0  0  0  0  0
   21.7522   36.4228   21.5208 C   0  0  0  0  0  0  0  0  0  0  0  0
   27.8620   34.6113   20.6998 C   0  0  0  0  0  0  0  0  0  0  0  0
   27.9681   33.2281   20.7491 C   0  0  0  0  0  0  0  0  0  0  0  0
   26.8470   32.4316   20.9559 C   0  0  0  0  0  0  0  0  0  0  0  0
   25.6066   33.0284   21.1377 C   0  0  0  0  0  0  0  0  0  0  0  0
   25.4660   34.4286   21.0712 C   0  0  0  0  0  0  0  0  0  0  0  0
   26.6144   35.2133   20.8668 C   0  0  0  0  0  0  0  0  0  0  0  0
   26.4851   36.6628   20.7812 C   0  0  0  0  0  0  0  0  0  0  0  0
   24.1884   35.0764   21.2500 C   0  0  0  0  0  0  0  0  0  0  0  0
   24.1595   36.4973   21.1668 C   0  0  0  0  0  0  0  0  0  0  0  0
   25.2794   37.2336   20.9619 N   0  0  0  0  0  0  0  0  0  0  0  0
   22.9680   34.4208   21.4650 C   0  0  0  0  0  0  0  0  0  0  0  0
   22.8784   37.1580   21.3418 C   0  0  0  0  0  0  0  0  0  0  0  0
   27.4970   37.3859   20.5850 O   0  0  0  0  0  0  0  0  0  0  0  0
   29.1632   32.6611   20.5786 F   0  0  0  0  0  0  0  0  0  0  0  0
   25.2086   38.2154   20.9448 H   0  0  0  0  0  0  0  0  0  0  0  0
   20.5509   34.3054   21.8334 C   0  0  0  0  0  0  0  0  0  0  0  0
   19.5394   34.3317   20.6957 C   0  0  0  0  0  0  0  0  0  0  0  0
   19.3598   32.9920   20.0099 C   0  0  0  0  0  0  0  0  0  0  0  0
   20.6723   32.4763   19.4560 C   0  0  0  0  0  0  0  0  0  0  0  0
   21.2345   31.5011   20.0200 O   0  0  0  0  0  0  0  0  0  0  0  0
   21.1764   33.0242   18.4592 O   0  0  0  0  0  0  0  0  0  0  0  0
   20.7426   33.7488   18.0534 H   0  0  0  0  0  0  0  0  0  0  0  0
 22 21  2  0  0  0
 21 23  1  0  0  0
 21 20  1  0  0  0
 16  4  1  0  0  0
  3  4  2  0  0  0
  3  8  1  0  0  0
  4  5  1  0  0  0
 15  9  2  0  0  0
  8  9  1  0  0  0
  8  7  2  0  0  0
  5  6  2  0  0  0
  9 12  1  0  0  0
 20 19  1  0  0  0
  6  7  1  0  0  0
 12 11  1  0  0  0
  7 10  1  0  0  0
 11 10  2  0  0  0
 11 14  1  0  0  0
 10 13  1  0  0  0
 14  2  1  0  0  0
 13  1  1  0  0  0
  1  2  1  0  0  0
  1 18  1  0  0  0
 19 18  1  0  0  0
 12 17  1  0  0  0
 23 24  1  0  0  0
M  END
> <minimizedAffinity>
-8.97519

$$$$
5EWY_5TQ_A_301


 24 26  0  0  0  0  0  0  0  0999 V2000
   21.6007   33.3652   21.9751 N   0  0  0  0  0  0  0  0  0  0  0  0
   21.8078   32.0488   21.9423 C   0  0  0  0  0  0  0  0  0  0  0  0
   27.3270   34.9672   20.4239 C   0  0  0  0  0  0  0  0  0  0  0  0
   27.1833   36.3457   20.5007 C   0  0  0  0  0  0  0  0  0  0  0  0
   25.9692   36.9194   20.8626 C   0  0  0  0  0  0  0  0  0  0  0  0
   24.8784   36.1030   21.1300 C   0  0  0  0  0  0  0  0  0  0  0  0
   25.0012   34.7004   21.0808 C   0  0  0  0  0  0  0  0  0  0  0  0
   26.2368   34.1437   20.7069 C   0  0  0  0  0  0  0  0  0  0  0  0
   26.3855   32.6942   20.6646 C   0  0  0  0  0  0  0  0  0  0  0  0
   23.8864   33.8267   21.3599 C   0  0  0  0  0  0  0  0  0  0  0  0
   24.1193   32.4247   21.2780 C   0  0  0  0  0  0  0  0  0  0  0  0
   25.3220   31.9099   20.9219 N   0  0  0  0  0  0  0  0  0  0  0  0
   22.6023   34.2434   21.7379 C   0  0  0  0  0  0  0  0  0  0  0  0
   23.0050   31.5375   21.5604 C   0  0  0  0  0  0  0  0  0  0  0  0
   27.4860   32.1720   20.3461 O   0  0  0  0  0  0  0  0  0  0  0  0
   28.2336   37.1246   20.2379 F   0  0  0  0  0  0  0  0  0  0  0  0
   25.4206   30.9330   20.8494 H   0  0  0  0  0  0  0  0  0  0  0  0
   20.2695   33.9064   22.3980 C   0  0  0  0  0  0  0  0  0  0  0  0
   20.1922   35.4047   22.6573 C   0  0  0  0  0  0  0  0  0  0  0  0
   19.9014   36.2231   21.4151 C   0  0  0  0  0  0  0  0  0  0  0  0
   20.8113   37.4313   21.3258 C   0  0  0  0  0  0  0  0  0  0  0  0
   21.7302   37.4443   20.4652 O   0  0  0  0  0  0  0  0  0  0  0  0
   20.6417   38.3872   22.1039 O   0  0  0  0  0  0  0  0  0  0  0  0
   19.9521   38.3587   22.7376 H   0  0  0  0  0  0  0  0  0  0  0  0
 22 21  2  0  0  0
 21 23  1  0  0  0
 21 20  1  0  0  0
 16  4  1  0  0  0
  3  4  2  0  0  0
  3  8  1  0  0  0
  4  5  1  0  0  0
 15  9  2  0  0  0
  8  9  1  0  0  0
  8  7  2  0  0  0
  5  6  2  0  0  0
  9 12  1  0  0  0
 20 19  1  0  0  0
  6  7  1  0  0  0
 12 11  1  0  0  0
  7 10  1  0  0  0
 11 10  2  0  0  0
 11 14  1  0  0  0
 10 13  1  0  0  0
 14  2  1  0  0  0
 13  1  1  0  0  0
  1  2  1  0  0  0
  1 18  1  0  0  0
 19 18  1  0  0  0
 12 17  1  0  0  0
 23 24  1  0  0  0
M  END
> <minimizedAffinity>
-8.82614

$$$$
5EWY_5TQ_A_301


 24 26  0  0  0  0  0  0  0  0999 V2000
   21.8598   32.9433   21.7185 N   0  0  0  0  0  0  0  0  0  0  0  0
   22.2159   31.6639   21.8323 C   0  0  0  0  0  0  0  0  0  0  0  0
   27.5132   35.1042   20.6544 C   0  0  0  0  0  0  0  0  0  0  0  0
   27.2074   36.4565   20.5852 C   0  0  0  0  0  0  0  0  0  0  0  0
   25.9021   36.9044   20.7577 C   0  0  0  0  0  0  0  0  0  0  0  0
   24.8860   35.9848   20.9806 C   0  0  0  0  0  0  0  0  0  0  0  0
   25.1707   34.6084   21.0771 C   0  0  0  0  0  0  0  0  0  0  0  0
   26.4967   34.1789   20.8935 C   0  0  0  0  0  0  0  0  0  0  0  0
   26.8113   32.7598   21.0040 C   0  0  0  0  0  0  0  0  0  0  0  0
   24.1360   33.6301   21.3144 C   0  0  0  0  0  0  0  0  0  0  0  0
   24.5331   32.2652   21.3903 C   0  0  0  0  0  0  0  0  0  0  0  0
   25.8197   31.8745   21.2169 N   0  0  0  0  0  0  0  0  0  0  0  0
   22.7774   33.9156   21.5100 C   0  0  0  0  0  0  0  0  0  0  0  0
   23.5000   31.2739   21.6323 C   0  0  0  0  0  0  0  0  0  0  0  0
   27.9936   32.3523   20.8572 O   0  0  0  0  0  0  0  0  0  0  0  0
   28.1872   37.3344   20.3660 F   0  0  0  0  0  0  0  0  0  0  0  0
   26.0354   30.9144   21.2476 H   0  0  0  0  0  0  0  0  0  0  0  0
   20.4354   33.3498   21.9417 C   0  0  0  0  0  0  0  0  0  0  0  0
   19.7303   34.0353   20.7794 C   0  0  0  0  0  0  0  0  0  0  0  0
   19.0838   33.0706   19.8054 C   0  0  0  0  0  0  0  0  0  0  0  0
   20.1236   32.3500   18.9717 C   0  0  0  0  0  0  0  0  0  0  0  0
   19.9565   31.1314   18.7028 O   0  0  0  0  0  0  0  0  0  0  0  0
   21.1258   32.9683   18.5704 O   0  0  0  0  0  0  0  0  0  0  0  0
   21.2322   33.8751   18.7810 H   0  0  0  0  0  0  0  0  0  0  0  0
 22 21  2  0  0  0
 21 23  1  0  0  0
 21 20  1  0  0  0
 16  4  1  0  0  0
  3  4  2  0  0  0
  3  8  1  0  0  0
  4  5  1  0  0  0
 15  9  2  0  0  0
  8  9  1  0  0  0
  8  7  2  0  0  0
  5  6  2  0  0  0
  9 12  1  0  0  0
 20 19  1  0  0  0
  6  7  1  0  0  0
 12 11  1  0  0  0
  7 10  1  0  0  0
 11 10  2  0  0  0
 11 14  1  0  0  0
 10 13  1  0  0  0
 14  2  1  0  0  0
 13  1  1  0  0  0
  1  2  1  0  0  0
  1 18  1  0  0  0
 19 18  1  0  0  0
 12 17  1  0  0  0
 23 24  1  0  0  0
M  END
> <minimizedAffinity>
-8.79892

$$$$
5EWY_5TQ_A_301


 24 26  0  0  0  0  0  0  0  0999 V2000
   22.0527   37.1307   22.6627 N   0  0  0  0  0  0  0  0  0  0  0  0
   21.0865   36.2310   22.8458 C   0  0  0  0  0  0  0  0  0  0  0  0
   26.1368   33.2237   20.2505 C   0  0  0  0  0  0  0  0  0  0  0  0
   27.1971   34.1055   20.0925 C   0  0  0  0  0  0  0  0  0  0  0  0
   27.0816   35.4385   20.4718 C   0  0  0  0  0  0  0  0  0  0  0  0
   25.8816   35.9002   20.9958 C   0  0  0  0  0  0  0  0  0  0  0  0
   24.7961   35.0228   21.1873 C   0  0  0  0  0  0  0  0  0  0  0  0
   24.9346   33.6811   20.7911 C   0  0  0  0  0  0  0  0  0  0  0  0
   23.8263   32.7564   20.9950 C   0  0  0  0  0  0  0  0  0  0  0  0
   23.5389   35.4730   21.7358 C   0  0  0  0  0  0  0  0  0  0  0  0
   22.5066   34.5038   21.8835 C   0  0  0  0  0  0  0  0  0  0  0  0
   22.6651   33.2129   21.5006 N   0  0  0  0  0  0  0  0  0  0  0  0
   23.2610   36.7779   22.1664 C   0  0  0  0  0  0  0  0  0  0  0  0
   21.2394   34.9461   22.4375 C   0  0  0  0  0  0  0  0  0  0  0  0
   23.9312   31.5469   20.6609 O   0  0  0  0  0  0  0  0  0  0  0  0
   28.3456   33.6569   19.5840 F   0  0  0  0  0  0  0  0  0  0  0  0
   21.9082   32.5905   21.5951 H   0  0  0  0  0  0  0  0  0  0  0  0
   21.8601   38.5441   23.1199 C   0  0  0  0  0  0  0  0  0  0  0  0
   22.4587   38.9130   24.4703 C   0  0  0  0  0  0  0  0  0  0  0  0
   21.7277   38.2998   25.6480 C   0  0  0  0  0  0  0  0  0  0  0  0
   20.2956   38.7887   25.7227 C   0  0  0  0  0  0  0  0  0  0  0  0
   19.3574   37.9628   25.5721 O   0  0  0  0  0  0  0  0  0  0  0  0
   20.0678   39.9948   25.9260 O   0  0  0  0  0  0  0  0  0  0  0  0
   20.7798   40.5941   26.0356 H   0  0  0  0  0  0  0  0  0  0  0  0
 22 21  2  0  0  0
 21 23  1  0  0  0
 21 20  1  0  0  0
 16  4  1  0  0  0
  3  4  2  0  0  0
  3  8  1  0  0  0
  4  5  1  0  0  0
 15  9  2  0  0  0
  8  9  1  0  0  0
  8  7  2  0  0  0
  5  6  2  0  0  0
  9 12  1  0  0  0
 20 19  1  0  0  0
  6  7  1  0  0  0
 12 11  1  0  0  0
  7 10  1  0  0  0
 11 10  2  0  0  0
 11 14  1  0  0  0
 10 13  1  0  0  0
 14  2  1  0  0  0
 13  1  1  0  0  0
  1  2  1  0  0  0
  1 18  1  0  0  0
 19 18  1  0  0  0
 12 17  1  0  0  0
 23 24  1  0  0  0
M  END
> <minimizedAffinity>
-7.93905

$$$$
5EWY_5TQ_A_301


 24 26  0  0  0  0  0  0  0  0999 V2000
   22.0905   35.6670   21.7759 N   0  0  0  0  0  0  0  0  0  0  0  0
   22.1694   36.9880   21.6160 C   0  0  0  0  0  0  0  0  0  0  0  0
   27.9937   34.5030   20.5265 C   0  0  0  0  0  0  0  0  0  0  0  0
   27.9555   33.1187   20.6219 C   0  0  0  0  0  0  0  0  0  0  0  0
   26.7705   32.4546   20.9203 C   0  0  0  0  0  0  0  0  0  0  0  0
   25.6132   33.1872   21.1480 C   0  0  0  0  0  0  0  0  0  0  0  0
   25.6180   34.5916   21.0367 C   0  0  0  0  0  0  0  0  0  0  0  0
   26.8290   35.2410   20.7397 C   0  0  0  0  0  0  0  0  0  0  0  0
   26.8490   36.6926   20.6069 C   0  0  0  0  0  0  0  0  0  0  0  0
   24.4290   35.3788   21.2615 C   0  0  0  0  0  0  0  0  0  0  0  0
   24.5459   36.7911   21.1267 C   0  0  0  0  0  0  0  0  0  0  0  0
   25.7233   37.3956   20.8325 N   0  0  0  0  0  0  0  0  0  0  0  0
   23.1609   34.8657   21.5683 C   0  0  0  0  0  0  0  0  0  0  0  0
   23.3545   37.5914   21.3474 C   0  0  0  0  0  0  0  0  0  0  0  0
   27.9184   37.2958   20.3278 O   0  0  0  0  0  0  0  0  0  0  0  0
   29.0716   32.4210   20.4069 F   0  0  0  0  0  0  0  0  0  0  0  0
   25.7560   38.3783   20.7824 H   0  0  0  0  0  0  0  0  0  0  0  0
   20.7712   35.0234   22.0741 C   0  0  0  0  0  0  0  0  0  0  0  0
   19.7199   35.8982   22.7431 C   0  0  0  0  0  0  0  0  0  0  0  0
   19.9825   36.1476   24.2149 C   0  0  0  0  0  0  0  0  0  0  0  0
   19.8313   37.6150   24.5606 C   0  0  0  0  0  0  0  0  0  0  0  0
   18.7977   37.9980   25.1690 O   0  0  0  0  0  0  0  0  0  0  0  0
   20.7242   38.4181   24.2355 O   0  0  0  0  0  0  0  0  0  0  0  0
   21.4861   38.1136   23.7831 H   0  0  0  0  0  0  0  0  0  0  0  0
 22 21  2  0  0  0
 21 23  1  0  0  0
 21 20  1  0  0  0
 16  4  1  0  0  0
  3  4  2  0  0  0
  3  8  1  0  0  0
  4  5  1  0  0  0
 15  9  2  0  0  0
  8  9  1  0  0  0
  8  7  2  0  0  0
  5  6  2  0  0  0
  9 12  1  0  0  0
 20 19  1  0  0  0
  6  7  1  0  0  0
 12 11  1  0  0  0
  7 10  1  0  0  0
 11 10  2  0  0  0
 11 14  1  0  0  0
 10 13  1  0  0  0
 14  2  1  0  0  0
 13  1  1  0  0  0
  1  2  1  0  0  0
  1 18  1  0  0  0
 19 18  1  0  0  0
 12 17  1  0  0  0
 23 24  1  0  0  0
M  END
> <minimizedAffinity>
-7.91972

$$$$
5EWY_5TQ_A_301


 24 26  0  0  0  0  0  0  0  0999 V2000
   22.8249   31.6460   21.7788 N   0  0  0  0  0  0  0  0  0  0  0  0
   21.6434   32.2232   21.9969 C   0  0  0  0  0  0  0  0  0  0  0  0
   25.9214   36.8560   20.7636 C   0  0  0  0  0  0  0  0  0  0  0  0
   27.1612   36.3051   20.4698 C   0  0  0  0  0  0  0  0  0  0  0  0
   27.3502   34.9272   20.4715 C   0  0  0  0  0  0  0  0  0  0  0  0
   26.2898   34.0906   20.7932 C   0  0  0  0  0  0  0  0  0  0  0  0
   25.0154   34.6212   21.0745 C   0  0  0  0  0  0  0  0  0  0  0  0
   24.8500   36.0172   21.0722 C   0  0  0  0  0  0  0  0  0  0  0  0
   23.5348   36.5827   21.3472 C   0  0  0  0  0  0  0  0  0  0  0  0
   23.8932   33.7757   21.4057 C   0  0  0  0  0  0  0  0  0  0  0  0
   22.6508   34.4160   21.6762 C   0  0  0  0  0  0  0  0  0  0  0  0
   22.5129   35.7647   21.6614 N   0  0  0  0  0  0  0  0  0  0  0  0
   23.9166   32.3746   21.4501 C   0  0  0  0  0  0  0  0  0  0  0  0
   21.5151   33.5739   22.0070 C   0  0  0  0  0  0  0  0  0  0  0  0
   23.3586   37.8294   21.3374 O   0  0  0  0  0  0  0  0  0  0  0  0
   28.1770   37.1143   20.1664 F   0  0  0  0  0  0  0  0  0  0  0  0
   21.6389   36.1577   21.8873 H   0  0  0  0  0  0  0  0  0  0  0  0
   22.9426   30.1527   21.7746 C   0  0  0  0  0  0  0  0  0  0  0  0
   23.1978   29.4836   23.1183 C   0  0  0  0  0  0  0  0  0  0  0  0
   21.9513   28.9025   23.7554 C   0  0  0  0  0  0  0  0  0  0  0  0
   21.4215   27.7281   22.9581 C   0  0  0  0  0  0  0  0  0  0  0  0
   22.2318   26.8719   22.5160 O   0  0  0  0  0  0  0  0  0  0  0  0
   20.1991   27.6293   22.7481 O   0  0  0  0  0  0  0  0  0  0  0  0
   19.6120   28.2769   23.0855 H   0  0  0  0  0  0  0  0  0  0  0  0
 22 21  2  0  0  0
 21 23  1  0  0  0
 21 20  1  0  0  0
 16  4  1  0  0  0
  3  4  2  0  0  0
  3  8  1  0  0  0
  4  5  1  0  0  0
 15  9  2  0  0  0
  8  9  1  0  0  0
  8  7  2  0  0  0
  5  6  2  0  0  0
  9 12  1  0  0  0
 20 19  1  0  0  0
  6  7  1  0  0  0
 12 11  1  0  0  0
  7 10  1  0  0  0
 11 10  2  0  0  0
 11 14  1  0  0  0
 10 13  1  0  0  0
 14  2  1  0  0  0
 13  1  1  0  0  0
  1  2  1  0  0  0
  1 18  1  0  0  0
 19 18  1  0  0  0
 12 17  1  0  0  0
 23 24  1  0  0  0
M  END
> <minimizedAffinity>
-7.88538

$$$$
5EWY_5TQ_A_301


 24 26  0  0  0  0  0  0  0  0999 V2000
   21.3659   32.7851   21.8751 N   0  0  0  0  0  0  0  0  0  0  0  0
   20.8186   33.9824   22.0837 C   0  0  0  0  0  0  0  0  0  0  0  0
   26.9798   34.8643   20.4880 C   0  0  0  0  0  0  0  0  0  0  0  0
   27.5849   33.6484   20.2010 C   0  0  0  0  0  0  0  0  0  0  0  0
   26.8707   32.4577   20.2802 C   0  0  0  0  0  0  0  0  0  0  0  0
   25.5392   32.4822   20.6732 C   0  0  0  0  0  0  0  0  0  0  0  0
   24.8938   33.7036   20.9497 C   0  0  0  0  0  0  0  0  0  0  0  0
   25.6377   34.8936   20.8684 C   0  0  0  0  0  0  0  0  0  0  0  0
   24.9820   36.1675   21.1373 C   0  0  0  0  0  0  0  0  0  0  0  0
   23.5092   33.7603   21.3541 C   0  0  0  0  0  0  0  0  0  0  0  0
   22.9567   35.0466   21.6126 C   0  0  0  0  0  0  0  0  0  0  0  0
   23.6918   36.1822   21.5211 N   0  0  0  0  0  0  0  0  0  0  0  0
   22.6538   32.6567   21.4807 C   0  0  0  0  0  0  0  0  0  0  0  0
   21.5636   35.1144   22.0166 C   0  0  0  0  0  0  0  0  0  0  0  0
   25.6238   37.2479   21.0576 O   0  0  0  0  0  0  0  0  0  0  0  0
   28.8655   33.6312   19.8288 F   0  0  0  0  0  0  0  0  0  0  0  0
   23.2691   37.0435   21.7419 H   0  0  0  0  0  0  0  0  0  0  0  0
   20.5236   31.5491   21.9567 C   0  0  0  0  0  0  0  0  0  0  0  0
   21.2413   30.2196   21.7684 C   0  0  0  0  0  0  0  0  0  0  0  0
   21.6871   29.5792   23.0679 C   0  0  0  0  0  0  0  0  0  0  0  0
   22.7261   28.5038   22.8240 C   0  0  0  0  0  0  0  0  0  0  0  0
   22.3859   27.4459   22.2322 O   0  0  0  0  0  0  0  0  0  0  0  0
   23.8944   28.6782   23.2146 O   0  0  0  0  0  0  0  0  0  0  0  0
   24.1281   29.4726   23.6532 H   0  0  0  0  0  0  0  0  0  0  0  0
 22 21  2  0  0  0
 21 23  1  0  0  0
 21 20  1  0  0  0
 16  4  1  0  0  0
  3  4  2  0  0  0
  3  8  1  0  0  0
  4  5  1  0  0  0
 15  9  2  0  0  0
  8  9  1  0  0  0
  8  7  2  0  0  0
  5  6  2  0  0  0
  9 12  1  0  0  0
 20 19  1  0  0  0
  6  7  1  0  0  0
 12 11  1  0  0  0
  7 10  1  0  0  0
 11 10  2  0  0  0
 11 14  1  0  0  0
 10 13  1  0  0  0
 14  2  1  0  0  0
 13  1  1  0  0  0
  1  2  1  0  0  0
  1 18  1  0  0  0
 19 18  1  0  0  0
 12 17  1  0  0  0
 23 24  1  0  0  0
M  END
> <minimizedAffinity>
-7.88084

$$$$
5EWY_5TQ_A_301


 24 26  0  0  0  0  0  0  0  0999 V2000
   21.7414   35.1571   21.7280 N   0  0  0  0  0  0  0  0  0  0  0  0
   21.6996   36.4872   21.6528 C   0  0  0  0  0  0  0  0  0  0  0  0
   27.7587   34.6265   20.5997 C   0  0  0  0  0  0  0  0  0  0  0  0
   27.8487   33.2413   20.6080 C   0  0  0  0  0  0  0  0  0  0  0  0
   26.7241   32.4528   20.8265 C   0  0  0  0  0  0  0  0  0  0  0  0
   25.4973   33.0591   21.0617 C   0  0  0  0  0  0  0  0  0  0  0  0
   25.3727   34.4622   21.0377 C   0  0  0  0  0  0  0  0  0  0  0  0
   26.5244   35.2385   20.8204 C   0  0  0  0  0  0  0  0  0  0  0  0
   26.4111   36.6912   20.7784 C   0  0  0  0  0  0  0  0  0  0  0  0
   24.1093   35.1199   21.2723 C   0  0  0  0  0  0  0  0  0  0  0  0
   24.0961   36.5428   21.2289 C   0  0  0  0  0  0  0  0  0  0  0  0
   25.2186   37.2712   21.0107 N   0  0  0  0  0  0  0  0  0  0  0  0
   22.8875   34.4732   21.5059 C   0  0  0  0  0  0  0  0  0  0  0  0
   22.8292   37.2137   21.4603 C   0  0  0  0  0  0  0  0  0  0  0  0
   27.4259   37.4074   20.5717 O   0  0  0  0  0  0  0  0  0  0  0  0
   29.0309   32.6651   20.3863 F   0  0  0  0  0  0  0  0  0  0  0  0
   25.1599   38.2538   21.0226 H   0  0  0  0  0  0  0  0  0  0  0  0
   20.4812   34.3764   21.9433 C   0  0  0  0  0  0  0  0  0  0  0  0
   20.3420   33.6583   23.2786 C   0  0  0  0  0  0  0  0  0  0  0  0
   20.1314   34.5928   24.4532 C   0  0  0  0  0  0  0  0  0  0  0  0
   19.6453   33.8407   25.6753 C   0  0  0  0  0  0  0  0  0  0  0  0
   20.1202   32.7012   25.9227 O   0  0  0  0  0  0  0  0  0  0  0  0
   18.7841   34.3551   26.4112 O   0  0  0  0  0  0  0  0  0  0  0  0
   18.4428   35.2043   26.2103 H   0  0  0  0  0  0  0  0  0  0  0  0
 22 21  2  0  0  0
 21 23  1  0  0  0
 21 20  1  0  0  0
 16  4  1  0  0  0
  3  4  2  0  0  0
  3  8  1  0  0  0
  4  5  1  0  0  0
 15  9  2  0  0  0
  8  9  1  0  0  0
  8  7  2  0  0  0
  5  6  2  0  0  0
  9 12  1  0  0  0
 20 19  1  0  0  0
  6  7  1  0  0  0
 12 11  1  0  0  0
  7 10  1  0  0  0
 11 10  2  0  0  0
 11 14  1  0  0  0
 10 13  1  0  0  0
 14  2  1  0  0  0
 13  1  1  0  0  0
  1  2  1  0  0  0
  1 18  1  0  0  0
 19 18  1  0  0  0
 12 17  1  0  0  0
 23 24  1  0  0  0
M  END
> <minimizedAffinity>
-7.87175

$$$$
5EWY_5TQ_A_301


 24 26  0  0  0  0  0  0  0  0999 V2000
   25.2004   33.7570   21.1661 N   0  0  0  0  0  0  0  0  0  0  0  0
   26.1398   34.6993   21.2449 C   0  0  0  0  0  0  0  0  0  0  0  0
   20.4059   37.5974   21.3322 C   0  0  0  0  0  0  0  0  0  0  0  0
   19.3865   36.6554   21.3121 C   0  0  0  0  0  0  0  0  0  0  0  0
   19.6706   35.2946   21.2749 C   0  0  0  0  0  0  0  0  0  0  0  0
   20.9925   34.8715   21.2351 C   0  0  0  0  0  0  0  0  0  0  0  0
   22.0473   35.8045   21.2763 C   0  0  0  0  0  0  0  0  0  0  0  0
   21.7354   37.1749   21.3079 C   0  0  0  0  0  0  0  0  0  0  0  0
   22.8143   38.1535   21.3650 C   0  0  0  0  0  0  0  0  0  0  0  0
   23.4308   35.3938   21.2427 C   0  0  0  0  0  0  0  0  0  0  0  0
   24.4174   36.4191   21.2854 C   0  0  0  0  0  0  0  0  0  0  0  0
   24.0932   37.7351   21.3227 N   0  0  0  0  0  0  0  0  0  0  0  0
   23.8840   34.0676   21.2058 C   0  0  0  0  0  0  0  0  0  0  0  0
   25.8121   36.0159   21.2557 C   0  0  0  0  0  0  0  0  0  0  0  0
   22.5600   39.3859   21.4079 O   0  0  0  0  0  0  0  0  0  0  0  0
   18.1187   37.0684   21.3455 F   0  0  0  0  0  0  0  0  0  0  0  0
   24.8147   38.4048   21.3187 H   0  0  0  0  0  0  0  0  0  0  0  0
   25.5866   32.3098   21.1535 C   0  0  0  0  0  0  0  0  0  0  0  0
   24.4714   31.3029   21.3995 C   0  0  0  0  0  0  0  0  0  0  0  0
   23.8661   31.3918   22.7863 C   0  0  0  0  0  0  0  0  0  0  0  0
   23.9929   30.0769   23.5281 C   0  0  0  0  0  0  0  0  0  0  0  0
   22.9570   29.3974   23.7525 O   0  0  0  0  0  0  0  0  0  0  0  0
   25.1131   29.6911   23.9078 O   0  0  0  0  0  0  0  0  0  0  0  0
   25.8724   30.2110   23.7312 H   0  0  0  0  0  0  0  0  0  0  0  0
 22 21  2  0  0  0
 21 23  1  0  0  0
 21 20  1  0  0  0
 16  4  1  0  0  0
  3  4  2  0  0  0
  3  8  1  0  0  0
  4  5  1  0  0  0
 15  9  2  0  0  0
  8  9  1  0  0  0
  8  7  2  0  0  0
  5  6  2  0  0  0
  9 12  1  0  0  0
 20 19  1  0  0  0
  6  7  1  0  0  0
 12 11  1  0  0  0
  7 10  1  0  0  0
 11 10  2  0  0  0
 11 14  1  0  0  0
 10 13  1  0  0  0
 14  2  1  0  0  0
 13  1  1  0  0  0
  1  2  1  0  0  0
  1 18  1  0  0  0
 19 18  1  0  0  0
 12 17  1  0  0  0
 23 24  1  0  0  0
M  END
> <minimizedAffinity>
-7.72670

$$$$
5EWY_5TQ_A_301


 24 26  0  0  0  0  0  0  0  0999 V2000
   20.8791   33.1502   21.1352 N   0  0  0  0  0  0  0  0  0  0  0  0
   20.3827   34.3872   21.1227 C   0  0  0  0  0  0  0  0  0  0  0  0
   26.7936   34.8182   21.1208 C   0  0  0  0  0  0  0  0  0  0  0  0
   27.3642   33.5537   21.0737 C   0  0  0  0  0  0  0  0  0  0  0  0
   26.5712   32.4118   21.0378 C   0  0  0  0  0  0  0  0  0  0  0  0
   25.1887   32.5365   21.0717 C   0  0  0  0  0  0  0  0  0  0  0  0
   24.5821   33.8078   21.0978 C   0  0  0  0  0  0  0  0  0  0  0  0
   25.4044   34.9473   21.1394 C   0  0  0  0  0  0  0  0  0  0  0  0
   24.7936   36.2708   21.1525 C   0  0  0  0  0  0  0  0  0  0  0  0
   23.1478   33.9683   21.1270 C   0  0  0  0  0  0  0  0  0  0  0  0
   22.6400   35.2979   21.1559 C   0  0  0  0  0  0  0  0  0  0  0  0
   23.4525   36.3828   21.1886 N   0  0  0  0  0  0  0  0  0  0  0  0
   22.2126   32.9242   21.0951 C   0  0  0  0  0  0  0  0  0  0  0  0
   21.1984   35.4698   21.1819 C   0  0  0  0  0  0  0  0  0  0  0  0
   25.5092   37.3066   21.1759 O   0  0  0  0  0  0  0  0  0  0  0  0
   28.6929   33.4405   21.0464 F   0  0  0  0  0  0  0  0  0  0  0  0
   23.0496   37.2796   21.2404 H   0  0  0  0  0  0  0  0  0  0  0  0
   19.9586   31.9702   21.0713 C   0  0  0  0  0  0  0  0  0  0  0  0
   18.9318   31.9647   19.9471 C   0  0  0  0  0  0  0  0  0  0  0  0
   19.5419   32.0866   18.5650 C   0  0  0  0  0  0  0  0  0  0  0  0
   19.1728   30.9034   17.6936 C   0  0  0  0  0  0  0  0  0  0  0  0
   18.5777   31.1075   16.6029 O   0  0  0  0  0  0  0  0  0  0  0  0
   19.4571   29.7517   18.0685 O   0  0  0  0  0  0  0  0  0  0  0  0
   19.9002   29.6203   18.8835 H   0  0  0  0  0  0  0  0  0  0  0  0
 22 21  2  0  0  0
 21 23  1  0  0  0
 21 20  1  0  0  0
 16  4  1  0  0  0
  3  4  2  0  0  0
  3  8  1  0  0  0
  4  5  1  0  0  0
 15  9  2  0  0  0
  8  9  1  0  0  0
  8  7  2  0  0  0
  5  6  2  0  0  0
  9 12  1  0  0  0
 20 19  1  0  0  0
  6  7  1  0  0  0
 12 11  1  0  0  0
  7 10  1  0  0  0
 11 10  2  0  0  0
 11 14  1  0  0  0
 10 13  1  0  0  0
 14  2  1  0  0  0
 13  1  1  0  0  0
  1  2  1  0  0  0
  1 18  1  0  0  0
 19 18  1  0  0  0
 12 17  1  0  0  0
 23 24  1  0  0  0
M  END
> <minimizedAffinity>
-7.69205

$$$$
