5ELW_5LD_A_303


 16 16  0  0  0  0  0  0  0  0999 V2000
  -40.6235  -22.5959    9.4574 C   0  0  0  0  0  0  0  0  0  0  0  0
  -39.4613  -21.9744   10.0492 O   0  0  0  0  0  0  0  0  0  0  0  0
  -39.7055  -21.1061   10.4061 H   0  0  0  0  0  0  0  0  0  0  0  0
  -41.6663  -22.8530   10.5357 C   0  0  0  0  0  0  0  0  0  0  0  0
  -41.0219  -21.2415   12.5048 O   0  0  0  0  0  0  0  0  0  0  0  0
  -41.1020  -22.7281   12.2605 P   0  0  0  0  0  0  0  0  0  0  0  0
  -39.7333  -23.3823   12.3882 O   0  0  0  0  0  0  0  0  0  0  0  0
  -42.0883  -23.4547   13.1287 O   0  0  0  0  0  0  0  0  0  0  0  0
  -40.7245  -21.0787   13.4137 H   0  0  0  0  0  0  0  0  0  0  0  0
  -39.4286  -23.3178   13.3068 H   0  0  0  0  0  0  0  0  0  0  0  0
  -41.0505  -21.6764    8.3442 C   0  0  0  0  0  0  0  0  0  0  0  0
  -39.9078  -20.9511    7.7607 N   0  0  0  0  0  0  0  0  0  0  0  0
  -39.6628  -19.6298    8.1259 N   0  0  0  0  0  0  0  0  0  0  0  0
  -38.5931  -19.2830    7.3810 C   0  0  0  0  0  0  0  0  0  0  0  0
  -38.2093  -20.3142    6.6092 N   0  0  0  0  0  0  0  0  0  0  0  0
  -39.0206  -21.3340    6.8537 C   0  0  0  0  0  0  0  0  0  0  0  0
  8  6  2  0  0  0
  5  6  1  0  0  0
  6  7  1  0  0  0
  6  4  1  0  0  0
  4  1  1  0  0  0
 11  1  1  0  0  0
 11 12  1  0  0  0
  1  2  1  0  0  0
 16 12  1  0  0  0
 16 15  2  0  0  0
 12 13  1  0  0  0
 15 14  1  0  0  0
 13 14  2  0  0  0
  5  9  1  0  0  0
  7 10  1  0  0  0
  2  3  1  0  0  0
M  END
> <minimizedAffinity>
-7.31902

$$$$
5ELW_5LD_A_303


 16 16  0  0  0  0  0  0  0  0999 V2000
  -40.9622  -21.2334    8.8043 C   0  0  0  0  0  0  0  0  0  0  0  0
  -41.2934  -20.3113    9.8660 O   0  0  0  0  0  0  0  0  0  0  0  0
  -40.8670  -20.5986   10.6885 H   0  0  0  0  0  0  0  0  0  0  0  0
  -39.4627  -21.1939    8.5469 C   0  0  0  0  0  0  0  0  0  0  0  0
  -40.2260  -20.7940    6.0675 O   0  0  0  0  0  0  0  0  0  0  0  0
  -38.9377  -20.7898    6.8527 P   0  0  0  0  0  0  0  0  0  0  0  0
  -37.9844  -21.8667    6.3535 O   0  0  0  0  0  0  0  0  0  0  0  0
  -38.2275  -19.4673    6.8864 O   0  0  0  0  0  0  0  0  0  0  0  0
  -40.0393  -20.5852    5.1388 H   0  0  0  0  0  0  0  0  0  0  0  0
  -37.7019  -21.6549    5.4500 H   0  0  0  0  0  0  0  0  0  0  0  0
  -41.5137  -22.5651    9.2394 C   0  0  0  0  0  0  0  0  0  0  0  0
  -41.1384  -22.8892   10.6273 N   0  0  0  0  0  0  0  0  0  0  0  0
  -41.8879  -22.3837   11.6867 N   0  0  0  0  0  0  0  0  0  0  0  0
  -41.2441  -22.8373   12.7817 C   0  0  0  0  0  0  0  0  0  0  0  0
  -40.1729  -23.5658   12.4236 N   0  0  0  0  0  0  0  0  0  0  0  0
  -40.1204  -23.5945   11.0991 C   0  0  0  0  0  0  0  0  0  0  0  0
  8  6  2  0  0  0
  5  6  1  0  0  0
  6  7  1  0  0  0
  6  4  1  0  0  0
  4  1  1  0  0  0
 11  1  1  0  0  0
 11 12  1  0  0  0
  1  2  1  0  0  0
 16 12  1  0  0  0
 16 15  2  0  0  0
 12 13  1  0  0  0
 15 14  1  0  0  0
 13 14  2  0  0  0
  5  9  1  0  0  0
  7 10  1  0  0  0
  2  3  1  0  0  0
M  END
> <minimizedAffinity>
-6.89520

$$$$
5ELW_5LD_A_303


 16 16  0  0  0  0  0  0  0  0999 V2000
  -39.9190  -23.0789    9.9883 C   0  0  0  0  0  0  0  0  0  0  0  0
  -38.8942  -22.2441   10.5713 O   0  0  0  0  0  0  0  0  0  0  0  0
  -39.3036  -21.6003   11.1703 H   0  0  0  0  0  0  0  0  0  0  0  0
  -40.6011  -23.8855   11.0840 C   0  0  0  0  0  0  0  0  0  0  0  0
  -42.9172  -22.9706   11.9137 O   0  0  0  0  0  0  0  0  0  0  0  0
  -41.4782  -22.9388   12.3659 P   0  0  0  0  0  0  0  0  0  0  0  0
  -40.9402  -21.5149   12.3931 O   0  0  0  0  0  0  0  0  0  0  0  0
  -41.2219  -23.5973   13.6908 O   0  0  0  0  0  0  0  0  0  0  0  0
  -43.4661  -22.4826   12.5474 H   0  0  0  0  0  0  0  0  0  0  0  0
  -41.4055  -21.0064   13.0757 H   0  0  0  0  0  0  0  0  0  0  0  0
  -40.8114  -22.1434    9.2166 C   0  0  0  0  0  0  0  0  0  0  0  0
  -40.0385  -21.2322    8.3539 N   0  0  0  0  0  0  0  0  0  0  0  0
  -39.1930  -21.7500    7.3760 N   0  0  0  0  0  0  0  0  0  0  0  0
  -38.6301  -20.6553    6.8246 C   0  0  0  0  0  0  0  0  0  0  0  0
  -39.0917  -19.5434    7.4221 N   0  0  0  0  0  0  0  0  0  0  0  0
  -39.9587  -19.9092    8.3561 C   0  0  0  0  0  0  0  0  0  0  0  0
  8  6  2  0  0  0
  5  6  1  0  0  0
  6  7  1  0  0  0
  6  4  1  0  0  0
  4  1  1  0  0  0
 11  1  1  0  0  0
 11 12  1  0  0  0
  1  2  1  0  0  0
 16 12  1  0  0  0
 16 15  2  0  0  0
 12 13  1  0  0  0
 15 14  1  0  0  0
 13 14  2  0  0  0
  5  9  1  0  0  0
  7 10  1  0  0  0
  2  3  1  0  0  0
M  END
> <minimizedAffinity>
-6.25731

$$$$
5ELW_5LD_A_303


 16 16  0  0  0  0  0  0  0  0999 V2000
  -40.3683  -21.4027    9.3958 C   0  0  0  0  0  0  0  0  0  0  0  0
  -41.0840  -20.1479    9.3771 O   0  0  0  0  0  0  0  0  0  0  0  0
  -41.7230  -20.1510    8.6473 H   0  0  0  0  0  0  0  0  0  0  0  0
  -41.3410  -22.5378    9.6819 C   0  0  0  0  0  0  0  0  0  0  0  0
  -40.4229  -22.2671   12.1260 O   0  0  0  0  0  0  0  0  0  0  0  0
  -41.3541  -23.1904   11.3798 P   0  0  0  0  0  0  0  0  0  0  0  0
  -40.8254  -24.6179   11.3718 O   0  0  0  0  0  0  0  0  0  0  0  0
  -42.7726  -23.1834   11.8722 O   0  0  0  0  0  0  0  0  0  0  0  0
  -40.3683  -22.5439   13.0541 H   0  0  0  0  0  0  0  0  0  0  0  0
  -40.8308  -24.9698   12.2758 H   0  0  0  0  0  0  0  0  0  0  0  0
  -39.6501  -21.4777    8.0746 C   0  0  0  0  0  0  0  0  0  0  0  0
  -40.5560  -21.8601    6.9767 N   0  0  0  0  0  0  0  0  0  0  0  0
  -40.9039  -23.1963    6.7954 N   0  0  0  0  0  0  0  0  0  0  0  0
  -41.6898  -23.1784    5.6993 C   0  0  0  0  0  0  0  0  0  0  0  0
  -41.8138  -21.9229    5.2359 N   0  0  0  0  0  0  0  0  0  0  0  0
  -41.1173  -21.1217    6.0301 C   0  0  0  0  0  0  0  0  0  0  0  0
  8  6  2  0  0  0
  5  6  1  0  0  0
  6  7  1  0  0  0
  6  4  1  0  0  0
  4  1  1  0  0  0
 11  1  1  0  0  0
 11 12  1  0  0  0
  1  2  1  0  0  0
 16 12  1  0  0  0
 16 15  2  0  0  0
 12 13  1  0  0  0
 15 14  1  0  0  0
 13 14  2  0  0  0
  5  9  1  0  0  0
  7 10  1  0  0  0
  2  3  1  0  0  0
M  END
> <minimizedAffinity>
-6.07088

$$$$
5ELW_5LD_A_303


 16 16  0  0  0  0  0  0  0  0999 V2000
  -40.1452  -20.8607    9.3952 C   0  0  0  0  0  0  0  0  0  0  0  0
  -39.1946  -21.9318    9.5853 O   0  0  0  0  0  0  0  0  0  0  0  0
  -39.4998  -22.7225    9.1135 H   0  0  0  0  0  0  0  0  0  0  0  0
  -40.2004  -20.4864    7.9210 C   0  0  0  0  0  0  0  0  0  0  0  0
  -38.8804  -22.1230    6.3497 O   0  0  0  0  0  0  0  0  0  0  0  0
  -40.3153  -21.8613    6.7356 P   0  0  0  0  0  0  0  0  0  0  0  0
  -41.1374  -21.4186    5.5332 O   0  0  0  0  0  0  0  0  0  0  0  0
  -41.0015  -23.0099    7.4170 O   0  0  0  0  0  0  0  0  0  0  0  0
  -38.8452  -22.8519    5.7107 H   0  0  0  0  0  0  0  0  0  0  0  0
  -41.2011  -22.1492    4.8983 H   0  0  0  0  0  0  0  0  0  0  0  0
  -41.4365  -21.3565    9.9901 C   0  0  0  0  0  0  0  0  0  0  0  0
  -41.2078  -22.3751   11.0304 N   0  0  0  0  0  0  0  0  0  0  0  0
  -41.1491  -22.0001   12.3703 N   0  0  0  0  0  0  0  0  0  0  0  0
  -40.8891  -23.1550   13.0167 C   0  0  0  0  0  0  0  0  0  0  0  0
  -40.7902  -24.1678   12.1387 N   0  0  0  0  0  0  0  0  0  0  0  0
  -40.9919  -23.6783   10.9231 C   0  0  0  0  0  0  0  0  0  0  0  0
  8  6  2  0  0  0
  5  6  1  0  0  0
  6  7  1  0  0  0
  6  4  1  0  0  0
  4  1  1  0  0  0
 11  1  1  0  0  0
 11 12  1  0  0  0
  1  2  1  0  0  0
 16 12  1  0  0  0
 16 15  2  0  0  0
 12 13  1  0  0  0
 15 14  1  0  0  0
 13 14  2  0  0  0
  5  9  1  0  0  0
  7 10  1  0  0  0
  2  3  1  0  0  0
M  END
> <minimizedAffinity>
-5.64079

$$$$
5ELW_5LD_A_303


 16 16  0  0  0  0  0  0  0  0999 V2000
  -41.0403  -22.3727    7.6375 C   0  0  0  0  0  0  0  0  0  0  0  0
  -42.1326  -22.9675    6.9024 O   0  0  0  0  0  0  0  0  0  0  0  0
  -42.8100  -22.2951    6.7296 H   0  0  0  0  0  0  0  0  0  0  0  0
  -40.3755  -21.3034    6.7825 C   0  0  0  0  0  0  0  0  0  0  0  0
  -38.5838  -19.4110    7.0961 O   0  0  0  0  0  0  0  0  0  0  0  0
  -38.6398  -20.9171    7.1659 P   0  0  0  0  0  0  0  0  0  0  0  0
  -37.7413  -21.5515    6.1133 O   0  0  0  0  0  0  0  0  0  0  0  0
  -38.3190  -21.4953    8.5139 O   0  0  0  0  0  0  0  0  0  0  0  0
  -37.6817  -19.1117    7.2899 H   0  0  0  0  0  0  0  0  0  0  0  0
  -36.8144  -21.3478    6.3141 H   0  0  0  0  0  0  0  0  0  0  0  0
  -41.6395  -21.8919    8.9325 C   0  0  0  0  0  0  0  0  0  0  0  0
  -41.2349  -22.7342   10.0722 N   0  0  0  0  0  0  0  0  0  0  0  0
  -40.6626  -23.9834    9.8454 N   0  0  0  0  0  0  0  0  0  0  0  0
  -40.4660  -24.4772   11.0851 C   0  0  0  0  0  0  0  0  0  0  0  0
  -40.8903  -23.5982   12.0091 N   0  0  0  0  0  0  0  0  0  0  0  0
  -41.3563  -22.5304   11.3761 C   0  0  0  0  0  0  0  0  0  0  0  0
  8  6  2  0  0  0
  5  6  1  0  0  0
  6  7  1  0  0  0
  6  4  1  0  0  0
  4  1  1  0  0  0
 11  1  1  0  0  0
 11 12  1  0  0  0
  1  2  1  0  0  0
 16 12  1  0  0  0
 16 15  2  0  0  0
 12 13  1  0  0  0
 15 14  1  0  0  0
 13 14  2  0  0  0
  5  9  1  0  0  0
  7 10  1  0  0  0
  2  3  1  0  0  0
M  END
> <minimizedAffinity>
-5.44954

$$$$
5ELW_5LD_A_303


 16 16  0  0  0  0  0  0  0  0999 V2000
  -41.1907  -21.1753   10.6572 C   0  0  0  0  0  0  0  0  0  0  0  0
  -42.0523  -20.1653   11.2270 O   0  0  0  0  0  0  0  0  0  0  0  0
  -42.9739  -20.4646   11.1838 H   0  0  0  0  0  0  0  0  0  0  0  0
  -41.2703  -22.4427   11.4961 C   0  0  0  0  0  0  0  0  0  0  0  0
  -38.9097  -23.4762   10.9965 O   0  0  0  0  0  0  0  0  0  0  0  0
  -40.3561  -23.8881   10.8762 P   0  0  0  0  0  0  0  0  0  0  0  0
  -40.7392  -24.1380    9.4242 O   0  0  0  0  0  0  0  0  0  0  0  0
  -40.7415  -25.0770   11.7084 O   0  0  0  0  0  0  0  0  0  0  0  0
  -38.3411  -24.1972   10.6836 H   0  0  0  0  0  0  0  0  0  0  0  0
  -40.2537  -24.9082    9.0897 H   0  0  0  0  0  0  0  0  0  0  0  0
  -41.6264  -21.3152    9.2227 C   0  0  0  0  0  0  0  0  0  0  0  0
  -40.5755  -20.8834    8.2839 N   0  0  0  0  0  0  0  0  0  0  0  0
  -39.7672  -19.7938    8.5979 N   0  0  0  0  0  0  0  0  0  0  0  0
  -38.9699  -19.6627    7.5178 C   0  0  0  0  0  0  0  0  0  0  0  0
  -39.2680  -20.6006    6.6025 N   0  0  0  0  0  0  0  0  0  0  0  0
  -40.2519  -21.3469    7.0852 C   0  0  0  0  0  0  0  0  0  0  0  0
  8  6  2  0  0  0
  5  6  1  0  0  0
  6  7  1  0  0  0
  6  4  1  0  0  0
  4  1  1  0  0  0
 11  1  1  0  0  0
 11 12  1  0  0  0
  1  2  1  0  0  0
 16 12  1  0  0  0
 16 15  2  0  0  0
 12 13  1  0  0  0
 15 14  1  0  0  0
 13 14  2  0  0  0
  5  9  1  0  0  0
  7 10  1  0  0  0
  2  3  1  0  0  0
M  END
> <minimizedAffinity>
-4.99377

$$$$
5ELW_5LD_A_303


 16 16  0  0  0  0  0  0  0  0999 V2000
  -40.3000  -21.3128    6.9612 C   0  0  0  0  0  0  0  0  0  0  0  0
  -39.0288  -21.8648    6.5532 O   0  0  0  0  0  0  0  0  0  0  0  0
  -38.7051  -22.4715    7.2374 H   0  0  0  0  0  0  0  0  0  0  0  0
  -41.3285  -22.4298    7.0657 C   0  0  0  0  0  0  0  0  0  0  0  0
  -40.6605  -24.2925    5.3412 O   0  0  0  0  0  0  0  0  0  0  0  0
  -41.7659  -23.2811    5.5188 P   0  0  0  0  0  0  0  0  0  0  0  0
  -41.7788  -22.2727    4.3785 O   0  0  0  0  0  0  0  0  0  0  0  0
  -43.1368  -23.8717    5.6818 O   0  0  0  0  0  0  0  0  0  0  0  0
  -40.8140  -24.7999    4.5288 H   0  0  0  0  0  0  0  0  0  0  0  0
  -42.0117  -22.7228    3.5514 H   0  0  0  0  0  0  0  0  0  0  0  0
  -40.0233  -20.5608    8.2360 C   0  0  0  0  0  0  0  0  0  0  0  0
  -40.3595  -21.3579    9.4292 N   0  0  0  0  0  0  0  0  0  0  0  0
  -41.5526  -21.1241   10.1084 N   0  0  0  0  0  0  0  0  0  0  0  0
  -41.5060  -21.9844   11.1462 C   0  0  0  0  0  0  0  0  0  0  0  0
  -40.3650  -22.6938   11.1120 N   0  0  0  0  0  0  0  0  0  0  0  0
  -39.6711  -22.3041   10.0515 C   0  0  0  0  0  0  0  0  0  0  0  0
  8  6  2  0  0  0
  5  6  1  0  0  0
  6  7  1  0  0  0
  6  4  1  0  0  0
  4  1  1  0  0  0
 11  1  1  0  0  0
 11 12  1  0  0  0
  1  2  1  0  0  0
 16 12  1  0  0  0
 16 15  2  0  0  0
 12 13  1  0  0  0
 15 14  1  0  0  0
 13 14  2  0  0  0
  5  9  1  0  0  0
  7 10  1  0  0  0
  2  3  1  0  0  0
M  END
> <minimizedAffinity>
-4.96200

$$$$
5ELW_5LD_A_303


 16 16  0  0  0  0  0  0  0  0999 V2000
  -40.4988  -21.9819    7.6317 C   0  0  0  0  0  0  0  0  0  0  0  0
  -40.0961  -20.6335    7.9585 O   0  0  0  0  0  0  0  0  0  0  0  0
  -40.8724  -20.0521    7.9458 H   0  0  0  0  0  0  0  0  0  0  0  0
  -41.4436  -22.5038    8.7048 C   0  0  0  0  0  0  0  0  0  0  0  0
  -41.2548  -24.0711   10.8019 O   0  0  0  0  0  0  0  0  0  0  0  0
  -40.7449  -22.7181   10.3706 P   0  0  0  0  0  0  0  0  0  0  0  0
  -41.2702  -21.6157   11.2797 O   0  0  0  0  0  0  0  0  0  0  0  0
  -39.2506  -22.6141   10.2676 O   0  0  0  0  0  0  0  0  0  0  0  0
  -40.9268  -24.2713   11.6926 H   0  0  0  0  0  0  0  0  0  0  0  0
  -40.8998  -21.7264   12.1693 H   0  0  0  0  0  0  0  0  0  0  0  0
  -41.0707  -21.9067    6.2409 C   0  0  0  0  0  0  0  0  0  0  0  0
  -41.4742  -23.2325    5.7395 N   0  0  0  0  0  0  0  0  0  0  0  0
  -42.8188  -23.5067    5.5019 N   0  0  0  0  0  0  0  0  0  0  0  0
  -42.8189  -24.7952    5.1032 C   0  0  0  0  0  0  0  0  0  0  0  0
  -41.5660  -25.2816    5.0995 N   0  0  0  0  0  0  0  0  0  0  0  0
  -40.7485  -24.3125    5.4875 C   0  0  0  0  0  0  0  0  0  0  0  0
  8  6  2  0  0  0
  5  6  1  0  0  0
  6  7  1  0  0  0
  6  4  1  0  0  0
  4  1  1  0  0  0
 11  1  1  0  0  0
 11 12  1  0  0  0
  1  2  1  0  0  0
 16 12  1  0  0  0
 16 15  2  0  0  0
 12 13  1  0  0  0
 15 14  1  0  0  0
 13 14  2  0  0  0
  5  9  1  0  0  0
  7 10  1  0  0  0
  2  3  1  0  0  0
M  END
> <minimizedAffinity>
-4.44605

$$$$
5ELW_5LD_A_303


 16 16  0  0  0  0  0  0  0  0999 V2000
  -40.8235  -21.7860    6.0198 C   0  0  0  0  0  0  0  0  0  0  0  0
  -39.6829  -22.6172    6.3285 O   0  0  0  0  0  0  0  0  0  0  0  0
  -39.9506  -23.3185    6.9428 H   0  0  0  0  0  0  0  0  0  0  0  0
  -41.8738  -22.6145    5.2939 C   0  0  0  0  0  0  0  0  0  0  0  0
  -43.0238  -24.9577    5.0166 O   0  0  0  0  0  0  0  0  0  0  0  0
  -41.6471  -24.4192    5.3184 P   0  0  0  0  0  0  0  0  0  0  0  0
  -41.1794  -24.8464    6.7027 O   0  0  0  0  0  0  0  0  0  0  0  0
  -40.5985  -24.7725    4.3034 O   0  0  0  0  0  0  0  0  0  0  0  0
  -42.9973  -25.9273    5.0094 H   0  0  0  0  0  0  0  0  0  0  0  0
  -41.0573  -25.8086    6.7201 H   0  0  0  0  0  0  0  0  0  0  0  0
  -41.2568  -21.1908    7.3332 C   0  0  0  0  0  0  0  0  0  0  0  0
  -40.5843  -21.8327    8.4768 N   0  0  0  0  0  0  0  0  0  0  0  0
  -41.1367  -22.9706    9.0594 N   0  0  0  0  0  0  0  0  0  0  0  0
  -40.2986  -23.2495   10.0787 C   0  0  0  0  0  0  0  0  0  0  0  0
  -39.3041  -22.3465   10.1240 N   0  0  0  0  0  0  0  0  0  0  0  0
  -39.4872  -21.4844    9.1336 C   0  0  0  0  0  0  0  0  0  0  0  0
  8  6  2  0  0  0
  5  6  1  0  0  0
  6  7  1  0  0  0
  6  4  1  0  0  0
  4  1  1  0  0  0
 11  1  1  0  0  0
 11 12  1  0  0  0
  1  2  1  0  0  0
 16 12  1  0  0  0
 16 15  2  0  0  0
 12 13  1  0  0  0
 15 14  1  0  0  0
 13 14  2  0  0  0
  5  9  1  0  0  0
  7 10  1  0  0  0
  2  3  1  0  0  0
M  END
> <minimizedAffinity>
-4.42319

$$$$
