3S73_EVF_B_1


 15 16  0  0  0  0  0  0  0  0999 V2000
   17.0160    0.8658   14.8279 S   0  0  0  0  0  0  0  0  0  0  0  0
   16.5883    2.1033   13.7087 C   0  0  0  0  0  0  0  0  0  0  0  0
   15.7898    3.0203   14.3006 N   0  0  0  0  0  0  0  0  0  0  0  0
   14.7249    3.5938   16.5197 C   0  0  0  0  0  0  0  0  0  0  0  0
   14.5832    3.1039   17.8152 C   0  0  0  0  0  0  0  0  0  0  0  0
   15.1965    1.9160   18.2816 C   0  0  0  0  0  0  0  0  0  0  0  0
   15.9279    1.1364   17.3447 C   0  0  0  0  0  0  0  0  0  0  0  0
   16.0908    1.6059   16.0496 C   0  0  0  0  0  0  0  0  0  0  0  0
   15.5231    2.7905   15.6094 C   0  0  0  0  0  0  0  0  0  0  0  0
   15.9254    1.7317   11.2040 N   0  0  0  0  0  0  0  0  0  0  0  0
   17.0727    2.2095   12.1128 S   0  0  0  0  0  0  0  0  0  0  0  0
   17.3615    3.6227   11.7696 O   0  0  0  0  0  0  0  0  0  0  0  0
   18.2255    1.2441   12.0681 O   0  0  0  0  0  0  0  0  0  0  0  0
   15.1555    2.3993   11.2490 H   0  0  0  0  0  0  0  0  0  0  0  0
   15.6011    0.8171   11.5181 H   0  0  0  0  0  0  0  0  0  0  0  0
 11 10  1  0  0  0
  2 11  1  0  0  0
 12 11  2  0  0  0
 11 13  2  0  0  0
  8  1  1  0  0  0
  1  2  1  0  0  0
  3  2  2  0  0  0
  9  3  1  0  0  0
  5  4  1  0  0  0
  4  9  2  0  0  0
  6  5  2  0  0  0
  6  7  1  0  0  0
  7  8  2  0  0  0
  8  9  1  0  0  0
 10 14  1  0  0  0
 10 15  1  0  0  0
M  END
> <minimizedAffinity>
-6.65658

$$$$
3S73_EVF_B_1


 15 16  0  0  0  0  0  0  0  0999 V2000
   16.8050    2.3147   12.5361 S   0  0  0  0  0  0  0  0  0  0  0  0
   17.5468    0.7615   12.6017 C   0  0  0  0  0  0  0  0  0  0  0  0
   17.4772    0.2572   13.8546 N   0  0  0  0  0  0  0  0  0  0  0  0
   16.5855    0.7775   16.1614 C   0  0  0  0  0  0  0  0  0  0  0  0
   15.9358    1.7821   16.8735 C   0  0  0  0  0  0  0  0  0  0  0  0
   15.4909    2.9968   16.2977 C   0  0  0  0  0  0  0  0  0  0  0  0
   15.8048    3.2365   14.9323 C   0  0  0  0  0  0  0  0  0  0  0  0
   16.4446    2.2486   14.1981 C   0  0  0  0  0  0  0  0  0  0  0  0
   16.8409    1.0441   14.7561 C   0  0  0  0  0  0  0  0  0  0  0  0
   18.1865   -1.5694   11.5973 N   0  0  0  0  0  0  0  0  0  0  0  0
   18.2552   -0.0552   11.3274 S   0  0  0  0  0  0  0  0  0  0  0  0
   17.5028    0.2151   10.0787 O   0  0  0  0  0  0  0  0  0  0  0  0
   19.6765    0.4336   11.3904 O   0  0  0  0  0  0  0  0  0  0  0  0
   17.2159   -1.8795   11.5499 H   0  0  0  0  0  0  0  0  0  0  0  0
   18.5615   -1.7668   12.5251 H   0  0  0  0  0  0  0  0  0  0  0  0
 11 10  1  0  0  0
  2 11  1  0  0  0
 12 11  2  0  0  0
 11 13  2  0  0  0
  8  1  1  0  0  0
  1  2  1  0  0  0
  3  2  2  0  0  0
  9  3  1  0  0  0
  5  4  1  0  0  0
  4  9  2  0  0  0
  6  5  2  0  0  0
  6  7  1  0  0  0
  7  8  2  0  0  0
  8  9  1  0  0  0
 10 14  1  0  0  0
 10 15  1  0  0  0
M  END
> <minimizedAffinity>
-6.44490

$$$$
3S73_EVF_B_1


 15 16  0  0  0  0  0  0  0  0999 V2000
   15.6485    3.7401   14.4984 S   0  0  0  0  0  0  0  0  0  0  0  0
   16.6091    2.5798   13.6630 C   0  0  0  0  0  0  0  0  0  0  0  0
   16.8024    1.4845   14.4323 N   0  0  0  0  0  0  0  0  0  0  0  0
   16.2013    0.5031   16.6824 C   0  0  0  0  0  0  0  0  0  0  0  0
   15.5272    0.8175   17.8593 C   0  0  0  0  0  0  0  0  0  0  0  0
   14.8294    2.0315   18.0693 C   0  0  0  0  0  0  0  0  0  0  0  0
   14.8966    3.0190   17.0491 C   0  0  0  0  0  0  0  0  0  0  0  0
   15.5552    2.7280   15.8635 C   0  0  0  0  0  0  0  0  0  0  0  0
   16.2014    1.5219   15.6466 C   0  0  0  0  0  0  0  0  0  0  0  0
   16.2008    2.1923   11.1067 N   0  0  0  0  0  0  0  0  0  0  0  0
   17.2289    2.7309   12.1184 S   0  0  0  0  0  0  0  0  0  0  0  0
   17.4595    4.1624   11.8087 O   0  0  0  0  0  0  0  0  0  0  0  0
   18.4388    1.8386   12.1752 O   0  0  0  0  0  0  0  0  0  0  0  0
   15.3901    2.8108   11.0840 H   0  0  0  0  0  0  0  0  0  0  0  0
   15.9068    1.2565   11.3863 H   0  0  0  0  0  0  0  0  0  0  0  0
 11 10  1  0  0  0
  2 11  1  0  0  0
 12 11  2  0  0  0
 11 13  2  0  0  0
  8  1  1  0  0  0
  1  2  1  0  0  0
  3  2  2  0  0  0
  9  3  1  0  0  0
  5  4  1  0  0  0
  4  9  2  0  0  0
  6  5  2  0  0  0
  6  7  1  0  0  0
  7  8  2  0  0  0
  8  9  1  0  0  0
 10 14  1  0  0  0
 10 15  1  0  0  0
M  END
> <minimizedAffinity>
-6.30439

$$$$
3S73_EVF_B_1


 15 16  0  0  0  0  0  0  0  0999 V2000
   15.3366    3.5732   15.4772 S   0  0  0  0  0  0  0  0  0  0  0  0
   16.2200    2.2658   16.1680 C   0  0  0  0  0  0  0  0  0  0  0  0
   17.5491    2.4555   16.0055 N   0  0  0  0  0  0  0  0  0  0  0  0
   19.2237    4.1024   15.0725 C   0  0  0  0  0  0  0  0  0  0  0  0
   19.2909    5.3071   14.3778 C   0  0  0  0  0  0  0  0  0  0  0  0
   18.1562    6.0654   14.0007 C   0  0  0  0  0  0  0  0  0  0  0  0
   16.8732    5.5179   14.2736 C   0  0  0  0  0  0  0  0  0  0  0  0
   16.7784    4.3228   14.9714 C   0  0  0  0  0  0  0  0  0  0  0  0
   17.8925    3.6051   15.3750 C   0  0  0  0  0  0  0  0  0  0  0  0
   15.9751    0.9808   18.4352 N   0  0  0  0  0  0  0  0  0  0  0  0
   15.5769    0.9355   16.9486 S   0  0  0  0  0  0  0  0  0  0  0  0
   14.0966    0.9792   16.8765 O   0  0  0  0  0  0  0  0  0  0  0  0
   16.2637   -0.2044   16.2473 O   0  0  0  0  0  0  0  0  0  0  0  0
   15.4992    1.7594   18.8911 H   0  0  0  0  0  0  0  0  0  0  0  0
   16.9843    1.1066   18.5132 H   0  0  0  0  0  0  0  0  0  0  0  0
 11 10  1  0  0  0
  2 11  1  0  0  0
 12 11  2  0  0  0
 11 13  2  0  0  0
  8  1  1  0  0  0
  1  2  1  0  0  0
  3  2  2  0  0  0
  9  3  1  0  0  0
  5  4  1  0  0  0
  4  9  2  0  0  0
  6  5  2  0  0  0
  6  7  1  0  0  0
  7  8  2  0  0  0
  8  9  1  0  0  0
 10 14  1  0  0  0
 10 15  1  0  0  0
M  END
> <minimizedAffinity>
-6.24902

$$$$
3S73_EVF_B_1


 15 16  0  0  0  0  0  0  0  0999 V2000
   16.2427    4.2606   14.9232 S   0  0  0  0  0  0  0  0  0  0  0  0
   17.6011    3.3836   14.3295 C   0  0  0  0  0  0  0  0  0  0  0  0
   17.6450    2.1498   14.8816 N   0  0  0  0  0  0  0  0  0  0  0  0
   16.3891    0.6345   16.4671 C   0  0  0  0  0  0  0  0  0  0  0  0
   15.2851    0.6257   17.3154 C   0  0  0  0  0  0  0  0  0  0  0  0
   14.3946    1.7165   17.4636 C   0  0  0  0  0  0  0  0  0  0  0  0
   14.6988    2.9189   16.7692 C   0  0  0  0  0  0  0  0  0  0  0  0
   15.7886    2.9517   15.9116 C   0  0  0  0  0  0  0  0  0  0  0  0
   16.6333    1.8674   15.7382 C   0  0  0  0  0  0  0  0  0  0  0  0
   20.0337    4.2758   13.9580 N   0  0  0  0  0  0  0  0  0  0  0  0
   18.7273    3.9279   13.2212 S   0  0  0  0  0  0  0  0  0  0  0  0
   19.0315    2.8528   12.2466 O   0  0  0  0  0  0  0  0  0  0  0  0
   18.0691    5.1707   12.6872 O   0  0  0  0  0  0  0  0  0  0  0  0
   20.4628    3.4206   14.3114 H   0  0  0  0  0  0  0  0  0  0  0  0
   19.8283    4.9005   14.7377 H   0  0  0  0  0  0  0  0  0  0  0  0
 11 10  1  0  0  0
  2 11  1  0  0  0
 12 11  2  0  0  0
 11 13  2  0  0  0
  8  1  1  0  0  0
  1  2  1  0  0  0
  3  2  2  0  0  0
  9  3  1  0  0  0
  5  4  1  0  0  0
  4  9  2  0  0  0
  6  5  2  0  0  0
  6  7  1  0  0  0
  7  8  2  0  0  0
  8  9  1  0  0  0
 10 14  1  0  0  0
 10 15  1  0  0  0
M  END
> <minimizedAffinity>
-6.23372

$$$$
3S73_EVF_B_1


 15 16  0  0  0  0  0  0  0  0999 V2000
   17.2016    1.0402   13.8828 S   0  0  0  0  0  0  0  0  0  0  0  0
   16.7721    2.4145   12.9372 C   0  0  0  0  0  0  0  0  0  0  0  0
   16.0144    3.2685   13.6620 N   0  0  0  0  0  0  0  0  0  0  0  0
   15.0298    3.5878   15.9676 C   0  0  0  0  0  0  0  0  0  0  0  0
   14.9141    2.9457   17.1976 C   0  0  0  0  0  0  0  0  0  0  0  0
   15.5111    1.6969   17.4956 C   0  0  0  0  0  0  0  0  0  0  0  0
   16.1950    1.0230   16.4475 C   0  0  0  0  0  0  0  0  0  0  0  0
   16.3314    1.6443   15.2148 C   0  0  0  0  0  0  0  0  0  0  0  0
   15.7806    2.8856   14.9409 C   0  0  0  0  0  0  0  0  0  0  0  0
   18.7472    2.7684   11.2565 N   0  0  0  0  0  0  0  0  0  0  0  0
   17.2118    2.7054   11.3514 S   0  0  0  0  0  0  0  0  0  0  0  0
   16.7520    1.5889   10.4909 O   0  0  0  0  0  0  0  0  0  0  0  0
   16.6060    4.0591   11.0994 O   0  0  0  0  0  0  0  0  0  0  0  0
   19.1369    1.8420   11.4303 H   0  0  0  0  0  0  0  0  0  0  0  0
   19.1043    3.4235   11.9520 H   0  0  0  0  0  0  0  0  0  0  0  0
 11 10  1  0  0  0
  2 11  1  0  0  0
 12 11  2  0  0  0
 11 13  2  0  0  0
  8  1  1  0  0  0
  1  2  1  0  0  0
  3  2  2  0  0  0
  9  3  1  0  0  0
  5  4  1  0  0  0
  4  9  2  0  0  0
  6  5  2  0  0  0
  6  7  1  0  0  0
  7  8  2  0  0  0
  8  9  1  0  0  0
 10 14  1  0  0  0
 10 15  1  0  0  0
M  END
> <minimizedAffinity>
-6.20178

$$$$
3S73_EVF_B_1


 15 16  0  0  0  0  0  0  0  0999 V2000
   17.6639    3.4013   12.0769 S   0  0  0  0  0  0  0  0  0  0  0  0
   17.4857    1.7208   12.4106 C   0  0  0  0  0  0  0  0  0  0  0  0
   16.7840    1.5376   13.5520 N   0  0  0  0  0  0  0  0  0  0  0  0
   15.5807    2.8114   15.3732 C   0  0  0  0  0  0  0  0  0  0  0  0
   15.3181    4.1112   15.7978 C   0  0  0  0  0  0  0  0  0  0  0  0
   15.7341    5.2696   15.0980 C   0  0  0  0  0  0  0  0  0  0  0  0
   16.5406    5.0906   13.9413 C   0  0  0  0  0  0  0  0  0  0  0  0
   16.8103    3.8061   13.4926 C   0  0  0  0  0  0  0  0  0  0  0  0
   16.3655    2.6754   14.1581 C   0  0  0  0  0  0  0  0  0  0  0  0
   17.6666   -0.8764   12.1407 N   0  0  0  0  0  0  0  0  0  0  0  0
   18.0666    0.4574   11.4839 S   0  0  0  0  0  0  0  0  0  0  0  0
   17.4500    0.4994   10.1361 O   0  0  0  0  0  0  0  0  0  0  0  0
   19.5544    0.6658   11.5635 O   0  0  0  0  0  0  0  0  0  0  0  0
   16.6559   -0.9977   12.0759 H   0  0  0  0  0  0  0  0  0  0  0  0
   17.9459   -0.8696   13.1217 H   0  0  0  0  0  0  0  0  0  0  0  0
 11 10  1  0  0  0
  2 11  1  0  0  0
 12 11  2  0  0  0
 11 13  2  0  0  0
  8  1  1  0  0  0
  1  2  1  0  0  0
  3  2  2  0  0  0
  9  3  1  0  0  0
  5  4  1  0  0  0
  4  9  2  0  0  0
  6  5  2  0  0  0
  6  7  1  0  0  0
  7  8  2  0  0  0
  8  9  1  0  0  0
 10 14  1  0  0  0
 10 15  1  0  0  0
M  END
> <minimizedAffinity>
-5.88299

$$$$
3S73_EVF_B_1


 15 16  0  0  0  0  0  0  0  0999 V2000
   17.0157    1.4760   13.3842 S   0  0  0  0  0  0  0  0  0  0  0  0
   17.7836    2.4601   12.1972 C   0  0  0  0  0  0  0  0  0  0  0  0
   17.5382    3.7681   12.4372 N   0  0  0  0  0  0  0  0  0  0  0  0
   16.3705    5.3062   14.0675 C   0  0  0  0  0  0  0  0  0  0  0  0
   15.5615    5.2758   15.2003 C   0  0  0  0  0  0  0  0  0  0  0  0
   15.1704    4.0854   15.8595 C   0  0  0  0  0  0  0  0  0  0  0  0
   15.5574    2.8480   15.2770 C   0  0  0  0  0  0  0  0  0  0  0  0
   16.3700    2.8504   14.1527 C   0  0  0  0  0  0  0  0  0  0  0  0
   16.7846    4.0192   13.5354 C   0  0  0  0  0  0  0  0  0  0  0  0
   20.1364    1.6091   11.4281 N   0  0  0  0  0  0  0  0  0  0  0  0
   18.7185    1.9267   10.9188 S   0  0  0  0  0  0  0  0  0  0  0  0
   18.1463    0.6749   10.3674 O   0  0  0  0  0  0  0  0  0  0  0  0
   18.7335    3.1295   10.0154 O   0  0  0  0  0  0  0  0  0  0  0  0
   20.1037    0.7919   12.0376 H   0  0  0  0  0  0  0  0  0  0  0  0
   20.4972    2.4080   11.9496 H   0  0  0  0  0  0  0  0  0  0  0  0
 11 10  1  0  0  0
  2 11  1  0  0  0
 12 11  2  0  0  0
 11 13  2  0  0  0
  8  1  1  0  0  0
  1  2  1  0  0  0
  3  2  2  0  0  0
  9  3  1  0  0  0
  5  4  1  0  0  0
  4  9  2  0  0  0
  6  5  2  0  0  0
  6  7  1  0  0  0
  7  8  2  0  0  0
  8  9  1  0  0  0
 10 14  1  0  0  0
 10 15  1  0  0  0
M  END
> <minimizedAffinity>
-5.77978

$$$$
3S73_EVF_B_1


 15 16  0  0  0  0  0  0  0  0999 V2000
   16.9314    1.7035   14.8403 S   0  0  0  0  0  0  0  0  0  0  0  0
   16.4305    3.1546   14.0589 C   0  0  0  0  0  0  0  0  0  0  0  0
   16.3392    2.9645   12.7231 N   0  0  0  0  0  0  0  0  0  0  0  0
   16.6024    1.1888   10.9442 C   0  0  0  0  0  0  0  0  0  0  0  0
   16.9845   -0.1405   10.7847 C   0  0  0  0  0  0  0  0  0  0  0  0
   17.3479   -0.9916   11.8563 C   0  0  0  0  0  0  0  0  0  0  0  0
   17.4079   -0.4269   13.1594 C   0  0  0  0  0  0  0  0  0  0  0  0
   17.0248    0.8930   13.3467 C   0  0  0  0  0  0  0  0  0  0  0  0
   16.6297    1.7101   12.3001 C   0  0  0  0  0  0  0  0  0  0  0  0
   15.4787    5.5746   13.7605 N   0  0  0  0  0  0  0  0  0  0  0  0
   16.0830    4.6120   14.7991 S   0  0  0  0  0  0  0  0  0  0  0  0
   15.0723    4.4049   15.8640 O   0  0  0  0  0  0  0  0  0  0  0  0
   17.4462    5.0800   15.2299 O   0  0  0  0  0  0  0  0  0  0  0  0
   14.5563    5.2393   13.4824 H   0  0  0  0  0  0  0  0  0  0  0  0
   16.0861    5.6166   12.9421 H   0  0  0  0  0  0  0  0  0  0  0  0
 11 10  1  0  0  0
  2 11  1  0  0  0
 12 11  2  0  0  0
 11 13  2  0  0  0
  8  1  1  0  0  0
  1  2  1  0  0  0
  3  2  2  0  0  0
  9  3  1  0  0  0
  5  4  1  0  0  0
  4  9  2  0  0  0
  6  5  2  0  0  0
  6  7  1  0  0  0
  7  8  2  0  0  0
  8  9  1  0  0  0
 10 14  1  0  0  0
 10 15  1  0  0  0
M  END
> <minimizedAffinity>
-5.76659

$$$$
3S73_EVF_B_1


 15 16  0  0  0  0  0  0  0  0999 V2000
   17.4548    4.2904   12.2129 S   0  0  0  0  0  0  0  0  0  0  0  0
   17.9185    2.6336   12.1277 C   0  0  0  0  0  0  0  0  0  0  0  0
   17.4533    1.9570   13.2022 N   0  0  0  0  0  0  0  0  0  0  0  0
   16.0800    2.2605   15.3020 C   0  0  0  0  0  0  0  0  0  0  0  0
   15.4223    3.2432   16.0370 C   0  0  0  0  0  0  0  0  0  0  0  0
   15.3248    4.5973   15.6349 C   0  0  0  0  0  0  0  0  0  0  0  0
   16.0137    4.9890   14.4549 C   0  0  0  0  0  0  0  0  0  0  0  0
   16.6701    4.0279   13.7001 C   0  0  0  0  0  0  0  0  0  0  0  0
   16.7273    2.6959   14.0763 C   0  0  0  0  0  0  0  0  0  0  0  0
   20.1610    1.4517   11.4755 N   0  0  0  0  0  0  0  0  0  0  0  0
   18.8055    1.9122   10.9089 S   0  0  0  0  0  0  0  0  0  0  0  0
   18.0918    0.7106   10.4136 O   0  0  0  0  0  0  0  0  0  0  0  0
   18.9909    3.0473    9.9393 O   0  0  0  0  0  0  0  0  0  0  0  0
   20.0127    0.6830   12.1294 H   0  0  0  0  0  0  0  0  0  0  0  0
   20.6085    2.2293   11.9608 H   0  0  0  0  0  0  0  0  0  0  0  0
 11 10  1  0  0  0
  2 11  1  0  0  0
 12 11  2  0  0  0
 11 13  2  0  0  0
  8  1  1  0  0  0
  1  2  1  0  0  0
  3  2  2  0  0  0
  9  3  1  0  0  0
  5  4  1  0  0  0
  4  9  2  0  0  0
  6  5  2  0  0  0
  6  7  1  0  0  0
  7  8  2  0  0  0
  8  9  1  0  0  0
 10 14  1  0  0  0
 10 15  1  0  0  0
M  END
> <minimizedAffinity>
-5.68947

$$$$
