2YB0_DUR_A_1266


 19 20  0  0  0  0  0  0  0  0999 V2000
  -17.8688   35.3011   -8.8760 C   0  0  0  0  0  0  0  0  0  0  0  0
  -18.9965   36.2988   -8.6896 C   0  0  0  0  0  0  0  0  0  0  0  0
  -19.1775   36.8989  -10.0678 C   0  0  0  0  0  0  0  0  0  0  0  0
  -17.8783   36.6145  -10.7891 C   0  0  0  0  0  0  0  0  0  0  0  0
  -20.2428   36.2802  -10.7968 O   0  0  0  0  0  0  0  0  0  0  0  0
  -17.0612   35.8751   -9.8928 O   0  0  0  0  0  0  0  0  0  0  0  0
  -20.0630   35.3315  -10.8893 H   0  0  0  0  0  0  0  0  0  0  0  0
  -17.2243   35.0883   -7.5890 N   0  0  0  0  0  0  0  0  0  0  0  0
  -17.8919   34.3596   -6.5754 C   0  0  0  0  0  0  0  0  0  0  0  0
  -17.3417   34.2180   -5.3754 N   0  0  0  0  0  0  0  0  0  0  0  0
  -16.1304   34.7202   -5.1264 C   0  0  0  0  0  0  0  0  0  0  0  0
  -15.4595   35.4345   -6.0971 C   0  0  0  0  0  0  0  0  0  0  0  0
  -16.0283   35.6138   -7.3422 C   0  0  0  0  0  0  0  0  0  0  0  0
  -19.0092   33.8566   -6.7658 O   0  0  0  0  0  0  0  0  0  0  0  0
  -15.6007   34.5710   -4.0078 O   0  0  0  0  0  0  0  0  0  0  0  0
  -17.8294   33.7405   -4.6660 H   0  0  0  0  0  0  0  0  0  0  0  0
  -17.1780   37.8917  -11.2557 C   0  0  0  0  0  0  0  0  0  0  0  0
  -15.9126   37.6141  -11.8952 O   0  0  0  0  0  0  0  0  0  0  0  0
  -15.3201   37.1772  -11.2636 H   0  0  0  0  0  0  0  0  0  0  0  0
  8  9  1  0  0  0
  8 13  1  0  0  0
  8  1  1  0  0  0
  9 10  1  0  0  0
  9 14  2  0  0  0
 10 11  1  0  0  0
 11 12  1  0  0  0
 11 15  2  0  0  0
 12 13  2  0  0  0
  1  2  1  0  0  0
  1  6  1  0  0  0
  2  3  1  0  0  0
  3  4  1  0  0  0
  3  5  1  0  0  0
  4  6  1  0  0  0
  4 17  1  0  0  0
 17 18  1  0  0  0
 10 16  1  0  0  0
  5  7  1  0  0  0
 18 19  1  0  0  0
M  END
> <minimizedAffinity>
-9.26137

$$$$
2YB0_DUR_A_1266


 19 20  0  0  0  0  0  0  0  0999 V2000
  -17.3277   37.2141  -11.5612 C   0  0  0  0  0  0  0  0  0  0  0  0
  -18.0815   38.5302  -11.5230 C   0  0  0  0  0  0  0  0  0  0  0  0
  -17.4025   39.3649  -12.5881 C   0  0  0  0  0  0  0  0  0  0  0  0
  -16.0520   38.7132  -12.7902 C   0  0  0  0  0  0  0  0  0  0  0  0
  -18.1070   39.3380  -13.8339 O   0  0  0  0  0  0  0  0  0  0  0  0
  -16.0078   37.5801  -11.9348 O   0  0  0  0  0  0  0  0  0  0  0  0
  -18.1735   38.4228  -14.1481 H   0  0  0  0  0  0  0  0  0  0  0  0
  -17.4707   36.5633  -10.2677 N   0  0  0  0  0  0  0  0  0  0  0  0
  -18.7491   36.1508   -9.8208 C   0  0  0  0  0  0  0  0  0  0  0  0
  -18.9002   35.6181   -8.6141 N   0  0  0  0  0  0  0  0  0  0  0  0
  -17.8402   35.4208   -7.8275 C   0  0  0  0  0  0  0  0  0  0  0  0
  -16.5841   35.8144   -8.2396 C   0  0  0  0  0  0  0  0  0  0  0  0
  -16.4126   36.3940   -9.4808 C   0  0  0  0  0  0  0  0  0  0  0  0
  -19.7604   36.2939  -10.5241 O   0  0  0  0  0  0  0  0  0  0  0  0
  -17.9746   34.9011   -6.7023 O   0  0  0  0  0  0  0  0  0  0  0  0
  -19.7983   35.3675   -8.2982 H   0  0  0  0  0  0  0  0  0  0  0  0
  -14.8936   39.6705  -12.5059 C   0  0  0  0  0  0  0  0  0  0  0  0
  -13.6116   39.0742  -12.8024 O   0  0  0  0  0  0  0  0  0  0  0  0
  -13.4811   38.2928  -12.2427 H   0  0  0  0  0  0  0  0  0  0  0  0
  8  9  1  0  0  0
  8 13  1  0  0  0
  8  1  1  0  0  0
  9 10  1  0  0  0
  9 14  2  0  0  0
 10 11  1  0  0  0
 11 12  1  0  0  0
 11 15  2  0  0  0
 12 13  2  0  0  0
  1  2  1  0  0  0
  1  6  1  0  0  0
  2  3  1  0  0  0
  3  4  1  0  0  0
  3  5  1  0  0  0
  4  6  1  0  0  0
  4 17  1  0  0  0
 17 18  1  0  0  0
 10 16  1  0  0  0
  5  7  1  0  0  0
 18 19  1  0  0  0
M  END
> <minimizedAffinity>
-8.07337

$$$$
2YB0_DUR_A_1266


 19 20  0  0  0  0  0  0  0  0999 V2000
  -18.0098   35.5654   -8.1705 C   0  0  0  0  0  0  0  0  0  0  0  0
  -17.6749   34.0940   -8.3276 C   0  0  0  0  0  0  0  0  0  0  0  0
  -17.3204   33.6536   -6.9231 C   0  0  0  0  0  0  0  0  0  0  0  0
  -16.9812   34.9324   -6.1889 C   0  0  0  0  0  0  0  0  0  0  0  0
  -18.4198   33.0274   -6.2537 O   0  0  0  0  0  0  0  0  0  0  0  0
  -17.1773   35.9996   -7.1055 O   0  0  0  0  0  0  0  0  0  0  0  0
  -19.1659   33.6457   -6.2092 H   0  0  0  0  0  0  0  0  0  0  0  0
  -17.8069   36.2236   -9.4521 N   0  0  0  0  0  0  0  0  0  0  0  0
  -18.9115   36.7678  -10.1506 C   0  0  0  0  0  0  0  0  0  0  0  0
  -18.7472   37.3097  -11.3515 N   0  0  0  0  0  0  0  0  0  0  0  0
  -17.5299   37.3912  -11.8927 C   0  0  0  0  0  0  0  0  0  0  0  0
  -16.4376   36.8681  -11.2325 C   0  0  0  0  0  0  0  0  0  0  0  0
  -16.5944   36.2775   -9.9945 C   0  0  0  0  0  0  0  0  0  0  0  0
  -20.0581   36.7346   -9.6795 O   0  0  0  0  0  0  0  0  0  0  0  0
  -17.3680   37.9188  -13.0106 O   0  0  0  0  0  0  0  0  0  0  0  0
  -19.5269   37.6530  -11.8449 H   0  0  0  0  0  0  0  0  0  0  0  0
  -15.5548   34.9280   -5.6370 C   0  0  0  0  0  0  0  0  0  0  0  0
  -15.5010   34.4466   -4.2760 O   0  0  0  0  0  0  0  0  0  0  0  0
  -16.0266   35.0293   -3.7059 H   0  0  0  0  0  0  0  0  0  0  0  0
  8  9  1  0  0  0
  8 13  1  0  0  0
  8  1  1  0  0  0
  9 10  1  0  0  0
  9 14  2  0  0  0
 10 11  1  0  0  0
 11 12  1  0  0  0
 11 15  2  0  0  0
 12 13  2  0  0  0
  1  2  1  0  0  0
  1  6  1  0  0  0
  2  3  1  0  0  0
  3  4  1  0  0  0
  3  5  1  0  0  0
  4  6  1  0  0  0
  4 17  1  0  0  0
 17 18  1  0  0  0
 10 16  1  0  0  0
  5  7  1  0  0  0
 18 19  1  0  0  0
M  END
> <minimizedAffinity>
-7.86177

$$$$
2YB0_DUR_A_1266


 19 20  0  0  0  0  0  0  0  0999 V2000
  -17.0058   37.2717  -12.0434 C   0  0  0  0  0  0  0  0  0  0  0  0
  -17.8448   38.4555  -12.4870 C   0  0  0  0  0  0  0  0  0  0  0  0
  -16.9268   39.2184  -13.4184 C   0  0  0  0  0  0  0  0  0  0  0  0
  -15.5335   38.7486  -13.0615 C   0  0  0  0  0  0  0  0  0  0  0  0
  -17.1676   38.9102  -14.7953 O   0  0  0  0  0  0  0  0  0  0  0  0
  -15.6760   37.7689  -12.0429 O   0  0  0  0  0  0  0  0  0  0  0  0
  -17.0417   37.9595  -14.9407 H   0  0  0  0  0  0  0  0  0  0  0  0
  -17.5144   36.7999  -10.7644 N   0  0  0  0  0  0  0  0  0  0  0  0
  -16.7635   35.8719  -10.0034 C   0  0  0  0  0  0  0  0  0  0  0  0
  -17.2493   35.3834   -8.8685 N   0  0  0  0  0  0  0  0  0  0  0  0
  -18.4309   35.7990   -8.4076 C   0  0  0  0  0  0  0  0  0  0  0  0
  -19.1821   36.7021   -9.1306 C   0  0  0  0  0  0  0  0  0  0  0  0
  -18.7038   37.2005  -10.3260 C   0  0  0  0  0  0  0  0  0  0  0  0
  -15.6516   35.4722  -10.3798 O   0  0  0  0  0  0  0  0  0  0  0  0
  -18.8811   35.3592   -7.3315 O   0  0  0  0  0  0  0  0  0  0  0  0
  -16.7356   34.7116   -8.3646 H   0  0  0  0  0  0  0  0  0  0  0  0
  -14.6291   39.8955  -12.6077 C   0  0  0  0  0  0  0  0  0  0  0  0
  -13.6436   40.2375  -13.6072 O   0  0  0  0  0  0  0  0  0  0  0  0
  -13.0725   39.4713  -13.7736 H   0  0  0  0  0  0  0  0  0  0  0  0
  8  9  1  0  0  0
  8 13  1  0  0  0
  8  1  1  0  0  0
  9 10  1  0  0  0
  9 14  2  0  0  0
 10 11  1  0  0  0
 11 12  1  0  0  0
 11 15  2  0  0  0
 12 13  2  0  0  0
  1  2  1  0  0  0
  1  6  1  0  0  0
  2  3  1  0  0  0
  3  4  1  0  0  0
  3  5  1  0  0  0
  4  6  1  0  0  0
  4 17  1  0  0  0
 17 18  1  0  0  0
 10 16  1  0  0  0
  5  7  1  0  0  0
 18 19  1  0  0  0
M  END
> <minimizedAffinity>
-7.85357

$$$$
2YB0_DUR_A_1266


 19 20  0  0  0  0  0  0  0  0999 V2000
  -16.8288   35.0166   -7.9286 C   0  0  0  0  0  0  0  0  0  0  0  0
  -15.9382   35.9337   -7.1115 C   0  0  0  0  0  0  0  0  0  0  0  0
  -16.0299   35.3692   -5.7097 C   0  0  0  0  0  0  0  0  0  0  0  0
  -17.2974   34.5429   -5.7057 C   0  0  0  0  0  0  0  0  0  0  0  0
  -14.9300   34.5090   -5.3947 O   0  0  0  0  0  0  0  0  0  0  0  0
  -17.8387   34.6101   -7.0172 O   0  0  0  0  0  0  0  0  0  0  0  0
  -14.9027   33.7741   -6.0272 H   0  0  0  0  0  0  0  0  0  0  0  0
  -17.2816   35.7425   -9.1055 N   0  0  0  0  0  0  0  0  0  0  0  0
  -16.4781   35.7728  -10.2706 C   0  0  0  0  0  0  0  0  0  0  0  0
  -16.8498   36.4879  -11.3256 N   0  0  0  0  0  0  0  0  0  0  0  0
  -18.0100   37.1476  -11.3172 C   0  0  0  0  0  0  0  0  0  0  0  0
  -18.8107   37.1342  -10.1941 C   0  0  0  0  0  0  0  0  0  0  0  0
  -18.4269   36.4171   -9.0786 C   0  0  0  0  0  0  0  0  0  0  0  0
  -15.4023   35.1591  -10.3338 O   0  0  0  0  0  0  0  0  0  0  0  0
  -18.3733   37.8027  -12.3137 O   0  0  0  0  0  0  0  0  0  0  0  0
  -16.2670   36.5318  -12.1179 H   0  0  0  0  0  0  0  0  0  0  0  0
  -18.3059   35.0259   -4.6622 C   0  0  0  0  0  0  0  0  0  0  0  0
  -19.6424   35.1207   -5.2023 O   0  0  0  0  0  0  0  0  0  0  0  0
  -19.6527   35.7631   -5.9290 H   0  0  0  0  0  0  0  0  0  0  0  0
  8  9  1  0  0  0
  8 13  1  0  0  0
  8  1  1  0  0  0
  9 10  1  0  0  0
  9 14  2  0  0  0
 10 11  1  0  0  0
 11 12  1  0  0  0
 11 15  2  0  0  0
 12 13  2  0  0  0
  1  2  1  0  0  0
  1  6  1  0  0  0
  2  3  1  0  0  0
  3  4  1  0  0  0
  3  5  1  0  0  0
  4  6  1  0  0  0
  4 17  1  0  0  0
 17 18  1  0  0  0
 10 16  1  0  0  0
  5  7  1  0  0  0
 18 19  1  0  0  0
M  END
> <minimizedAffinity>
-7.66049

$$$$
2YB0_DUR_A_1266


 19 20  0  0  0  0  0  0  0  0999 V2000
  -17.1065   38.2387  -12.7293 C   0  0  0  0  0  0  0  0  0  0  0  0
  -16.3051   38.3202  -11.4436 C   0  0  0  0  0  0  0  0  0  0  0  0
  -16.8201   37.1560  -10.6240 C   0  0  0  0  0  0  0  0  0  0  0  0
  -18.1658   36.8203  -11.2288 C   0  0  0  0  0  0  0  0  0  0  0  0
  -15.9793   36.0021  -10.7265 O   0  0  0  0  0  0  0  0  0  0  0  0
  -18.3575   37.7022  -12.3257 O   0  0  0  0  0  0  0  0  0  0  0  0
  -15.9175   35.7285  -11.6551 H   0  0  0  0  0  0  0  0  0  0  0  0
  -17.1414   39.5611  -13.3352 N   0  0  0  0  0  0  0  0  0  0  0  0
  -17.4278   39.6998  -14.7147 C   0  0  0  0  0  0  0  0  0  0  0  0
  -17.3952   40.8952  -15.2915 N   0  0  0  0  0  0  0  0  0  0  0  0
  -17.1395   41.9861  -14.5663 C   0  0  0  0  0  0  0  0  0  0  0  0
  -16.8570   41.8775  -13.2206 C   0  0  0  0  0  0  0  0  0  0  0  0
  -16.8608   40.6393  -12.6100 C   0  0  0  0  0  0  0  0  0  0  0  0
  -17.6916   38.7183  -15.4251 O   0  0  0  0  0  0  0  0  0  0  0  0
  -17.1292   43.1129  -15.0996 O   0  0  0  0  0  0  0  0  0  0  0  0
  -17.5603   40.9773  -16.2585 H   0  0  0  0  0  0  0  0  0  0  0  0
  -19.3061   36.9360  -10.2161 C   0  0  0  0  0  0  0  0  0  0  0  0
  -20.4507   36.1399  -10.5943 O   0  0  0  0  0  0  0  0  0  0  0  0
  -20.7929   36.4503  -11.4473 H   0  0  0  0  0  0  0  0  0  0  0  0
  8  9  1  0  0  0
  8 13  1  0  0  0
  8  1  1  0  0  0
  9 10  1  0  0  0
  9 14  2  0  0  0
 10 11  1  0  0  0
 11 12  1  0  0  0
 11 15  2  0  0  0
 12 13  2  0  0  0
  1  2  1  0  0  0
  1  6  1  0  0  0
  2  3  1  0  0  0
  3  4  1  0  0  0
  3  5  1  0  0  0
  4  6  1  0  0  0
  4 17  1  0  0  0
 17 18  1  0  0  0
 10 16  1  0  0  0
  5  7  1  0  0  0
 18 19  1  0  0  0
M  END
> <minimizedAffinity>
-7.58807

$$$$
2YB0_DUR_A_1266


 19 20  0  0  0  0  0  0  0  0999 V2000
  -17.6088   38.6299  -11.4133 C   0  0  0  0  0  0  0  0  0  0  0  0
  -16.2271   39.2542  -11.4717 C   0  0  0  0  0  0  0  0  0  0  0  0
  -16.2825   40.1365  -12.7008 C   0  0  0  0  0  0  0  0  0  0  0  0
  -17.4349   39.5935  -13.5173 C   0  0  0  0  0  0  0  0  0  0  0  0
  -16.5621   41.5030  -12.3794 O   0  0  0  0  0  0  0  0  0  0  0  0
  -17.9997   38.5229  -12.7740 O   0  0  0  0  0  0  0  0  0  0  0  0
  -17.4120   41.5587  -11.9153 H   0  0  0  0  0  0  0  0  0  0  0  0
  -17.5193   37.3812  -10.6718 N   0  0  0  0  0  0  0  0  0  0  0  0
  -18.6266   36.9264   -9.9160 C   0  0  0  0  0  0  0  0  0  0  0  0
  -18.5326   35.8242   -9.1818 N   0  0  0  0  0  0  0  0  0  0  0  0
  -17.4079   35.1057   -9.1865 C   0  0  0  0  0  0  0  0  0  0  0  0
  -16.3148   35.5277   -9.9143 C   0  0  0  0  0  0  0  0  0  0  0  0
  -16.3864   36.6856  -10.6627 C   0  0  0  0  0  0  0  0  0  0  0  0
  -19.6992   37.5484   -9.8967 O   0  0  0  0  0  0  0  0  0  0  0  0
  -17.3226   34.0585   -8.5156 O   0  0  0  0  0  0  0  0  0  0  0  0
  -19.2961   35.5356   -8.6313 H   0  0  0  0  0  0  0  0  0  0  0  0
  -16.9988   39.1350  -14.9096 C   0  0  0  0  0  0  0  0  0  0  0  0
  -15.5609   39.0705  -15.0342 O   0  0  0  0  0  0  0  0  0  0  0  0
  -15.1843   39.9531  -14.8925 H   0  0  0  0  0  0  0  0  0  0  0  0
  8  9  1  0  0  0
  8 13  1  0  0  0
  8  1  1  0  0  0
  9 10  1  0  0  0
  9 14  2  0  0  0
 10 11  1  0  0  0
 11 12  1  0  0  0
 11 15  2  0  0  0
 12 13  2  0  0  0
  1  2  1  0  0  0
  1  6  1  0  0  0
  2  3  1  0  0  0
  3  4  1  0  0  0
  3  5  1  0  0  0
  4  6  1  0  0  0
  4 17  1  0  0  0
 17 18  1  0  0  0
 10 16  1  0  0  0
  5  7  1  0  0  0
 18 19  1  0  0  0
M  END
> <minimizedAffinity>
-7.55486

$$$$
2YB0_DUR_A_1266


 19 20  0  0  0  0  0  0  0  0999 V2000
  -16.1373   39.0112  -11.8897 C   0  0  0  0  0  0  0  0  0  0  0  0
  -16.0735   38.5642  -13.3382 C   0  0  0  0  0  0  0  0  0  0  0  0
  -15.7280   39.8314  -14.0910 C   0  0  0  0  0  0  0  0  0  0  0  0
  -16.1117   40.9565  -13.1549 C   0  0  0  0  0  0  0  0  0  0  0  0
  -14.3281   39.9354  -14.3709 O   0  0  0  0  0  0  0  0  0  0  0  0
  -16.5899   40.3550  -11.9602 O   0  0  0  0  0  0  0  0  0  0  0  0
  -13.8299   39.9197  -13.5388 H   0  0  0  0  0  0  0  0  0  0  0  0
  -16.9889   38.0853  -11.1587 N   0  0  0  0  0  0  0  0  0  0  0  0
  -16.5860   36.7391  -10.9862 C   0  0  0  0  0  0  0  0  0  0  0  0
  -17.3861   35.8699  -10.3804 N   0  0  0  0  0  0  0  0  0  0  0  0
  -18.5594   36.2674   -9.8837 C   0  0  0  0  0  0  0  0  0  0  0  0
  -18.9750   37.5735  -10.0390 C   0  0  0  0  0  0  0  0  0  0  0  0
  -18.1670   38.4845  -10.6896 C   0  0  0  0  0  0  0  0  0  0  0  0
  -15.4962   36.3278  -11.4116 O   0  0  0  0  0  0  0  0  0  0  0  0
  -19.3042   35.4595   -9.2949 O   0  0  0  0  0  0  0  0  0  0  0  0
  -17.1126   34.9278  -10.2971 H   0  0  0  0  0  0  0  0  0  0  0  0
  -17.1573   41.8918  -13.7640 C   0  0  0  0  0  0  0  0  0  0  0  0
  -18.5031   41.4080  -13.5595 O   0  0  0  0  0  0  0  0  0  0  0  0
  -18.6054   40.5450  -13.9904 H   0  0  0  0  0  0  0  0  0  0  0  0
  8  9  1  0  0  0
  8 13  1  0  0  0
  8  1  1  0  0  0
  9 10  1  0  0  0
  9 14  2  0  0  0
 10 11  1  0  0  0
 11 12  1  0  0  0
 11 15  2  0  0  0
 12 13  2  0  0  0
  1  2  1  0  0  0
  1  6  1  0  0  0
  2  3  1  0  0  0
  3  4  1  0  0  0
  3  5  1  0  0  0
  4  6  1  0  0  0
  4 17  1  0  0  0
 17 18  1  0  0  0
 10 16  1  0  0  0
  5  7  1  0  0  0
 18 19  1  0  0  0
M  END
> <minimizedAffinity>
-7.24485

$$$$
2YB0_DUR_A_1266


 19 20  0  0  0  0  0  0  0  0999 V2000
  -17.1694   38.3939  -10.7800 C   0  0  0  0  0  0  0  0  0  0  0  0
  -18.1471   37.5588  -11.5853 C   0  0  0  0  0  0  0  0  0  0  0  0
  -18.6700   36.5512  -10.5835 C   0  0  0  0  0  0  0  0  0  0  0  0
  -17.6378   36.5314   -9.4774 C   0  0  0  0  0  0  0  0  0  0  0  0
  -19.9265   36.9430  -10.0206 O   0  0  0  0  0  0  0  0  0  0  0  0
  -16.6451   37.4874   -9.8214 O   0  0  0  0  0  0  0  0  0  0  0  0
  -19.8297   37.8017   -9.5799 H   0  0  0  0  0  0  0  0  0  0  0  0
  -16.2064   38.9867  -11.6957 N   0  0  0  0  0  0  0  0  0  0  0  0
  -15.2464   38.1692  -12.3394 C   0  0  0  0  0  0  0  0  0  0  0  0
  -14.3207   38.7088  -13.1234 N   0  0  0  0  0  0  0  0  0  0  0  0
  -14.3150   40.0238  -13.3521 C   0  0  0  0  0  0  0  0  0  0  0  0
  -15.2394   40.8418  -12.7366 C   0  0  0  0  0  0  0  0  0  0  0  0
  -16.1928   40.3006  -11.8975 C   0  0  0  0  0  0  0  0  0  0  0  0
  -15.2246   36.9403  -12.1746 O   0  0  0  0  0  0  0  0  0  0  0  0
  -13.4609   40.5319  -14.1048 O   0  0  0  0  0  0  0  0  0  0  0  0
  -13.6354   38.1364  -13.5380 H   0  0  0  0  0  0  0  0  0  0  0  0
  -17.0271   35.1440   -9.2737 C   0  0  0  0  0  0  0  0  0  0  0  0
  -15.9303   34.8953  -10.1804 O   0  0  0  0  0  0  0  0  0  0  0  0
  -16.2513   34.9352  -11.0949 H   0  0  0  0  0  0  0  0  0  0  0  0
  8  9  1  0  0  0
  8 13  1  0  0  0
  8  1  1  0  0  0
  9 10  1  0  0  0
  9 14  2  0  0  0
 10 11  1  0  0  0
 11 12  1  0  0  0
 11 15  2  0  0  0
 12 13  2  0  0  0
  1  2  1  0  0  0
  1  6  1  0  0  0
  2  3  1  0  0  0
  3  4  1  0  0  0
  3  5  1  0  0  0
  4  6  1  0  0  0
  4 17  1  0  0  0
 17 18  1  0  0  0
 10 16  1  0  0  0
  5  7  1  0  0  0
 18 19  1  0  0  0
M  END
> <minimizedAffinity>
-6.97861

$$$$
2YB0_DUR_A_1266


 19 20  0  0  0  0  0  0  0  0999 V2000
  -16.7623   35.4067   -8.7989 C   0  0  0  0  0  0  0  0  0  0  0  0
  -18.1735   34.8598   -8.9055 C   0  0  0  0  0  0  0  0  0  0  0  0
  -18.8094   35.2455   -7.5867 C   0  0  0  0  0  0  0  0  0  0  0  0
  -17.6456   35.5047   -6.6552 C   0  0  0  0  0  0  0  0  0  0  0  0
  -19.5843   36.4450   -7.6847 O   0  0  0  0  0  0  0  0  0  0  0  0
  -16.4594   35.3200   -7.4146 O   0  0  0  0  0  0  0  0  0  0  0  0
  -19.0172   37.1729   -7.9837 H   0  0  0  0  0  0  0  0  0  0  0  0
  -15.9037   34.6436   -9.6921 N   0  0  0  0  0  0  0  0  0  0  0  0
  -15.5577   35.1685  -10.9605 C   0  0  0  0  0  0  0  0  0  0  0  0
  -14.8314   34.4517  -11.8097 N   0  0  0  0  0  0  0  0  0  0  0  0
  -14.3780   33.2467  -11.4577 C   0  0  0  0  0  0  0  0  0  0  0  0
  -14.7015   32.7128  -10.2277 C   0  0  0  0  0  0  0  0  0  0  0  0
  -15.4778   33.4338   -9.3425 C   0  0  0  0  0  0  0  0  0  0  0  0
  -15.9376   36.2916  -11.3242 O   0  0  0  0  0  0  0  0  0  0  0  0
  -13.6775   32.5792  -12.2438 O   0  0  0  0  0  0  0  0  0  0  0  0
  -14.6263   34.8106  -12.7032 H   0  0  0  0  0  0  0  0  0  0  0  0
  -17.6671   34.5940   -5.4267 C   0  0  0  0  0  0  0  0  0  0  0  0
  -18.8984   34.7174   -4.6811 O   0  0  0  0  0  0  0  0  0  0  0  0
  -18.9940   35.6289   -4.3634 H   0  0  0  0  0  0  0  0  0  0  0  0
  8  9  1  0  0  0
  8 13  1  0  0  0
  8  1  1  0  0  0
  9 10  1  0  0  0
  9 14  2  0  0  0
 10 11  1  0  0  0
 11 12  1  0  0  0
 11 15  2  0  0  0
 12 13  2  0  0  0
  1  2  1  0  0  0
  1  6  1  0  0  0
  2  3  1  0  0  0
  3  4  1  0  0  0
  3  5  1  0  0  0
  4  6  1  0  0  0
  4 17  1  0  0  0
 17 18  1  0  0  0
 10 16  1  0  0  0
  5  7  1  0  0  0
 18 19  1  0  0  0
M  END
> <minimizedAffinity>
-6.73493

$$$$
