4CSS_CWX_A_1159


 34 36  0  0  0  0  0  0  0  0999 V2000
   -6.8641   47.1666  -10.9689 C   0  0  0  0  0  0  0  0  0  0  0  0
   -6.1474   48.2931  -11.3361 C   0  0  0  0  0  0  0  0  0  0  0  0
   -4.7566   48.3530  -11.1582 C   0  0  0  0  0  0  0  0  0  0  0  0
   -6.1758   46.0688  -10.4383 C   0  0  0  0  0  0  0  0  0  0  0  0
   -4.7761   46.1092  -10.2830 C   0  0  0  0  0  0  0  0  0  0  0  0
   -4.0871   47.2469  -10.6403 C   0  0  0  0  0  0  0  0  0  0  0  0
  -11.0952   47.0252  -11.4562 C   0  0  0  0  0  0  0  0  0  0  0  0
  -10.5037   46.2659  -10.4784 C   0  0  0  0  0  0  0  0  0  0  0  0
   -9.1154   46.3113  -10.3042 C   0  0  0  0  0  0  0  0  0  0  0  0
  -10.3101   47.8228  -12.2872 C   0  0  0  0  0  0  0  0  0  0  0  0
   -8.9433   47.8594  -12.1202 C   0  0  0  0  0  0  0  0  0  0  0  0
   -8.3212   47.1127  -11.1288 C   0  0  0  0  0  0  0  0  0  0  0  0
  -12.8301   47.0002  -11.7179 S   0  0  0  0  0  0  0  0  0  0  0  0
  -13.1888   48.1326  -12.5605 O   0  0  0  0  0  0  0  0  0  0  0  0
  -13.1533   45.7646  -12.3742 O   0  0  0  0  0  0  0  0  0  0  0  0
  -14.4011   45.9869   -9.7839 C   0  0  0  0  0  0  0  0  0  0  0  0
  -13.6226   47.0849  -10.2514 N   0  0  0  0  0  0  0  0  0  0  0  0
  -12.9091   47.2591   -9.5436 H   0  0  0  0  0  0  0  0  0  0  0  0
   -2.6602   47.1908  -10.4633 O   0  0  0  0  0  0  0  0  0  0  0  0
   -1.9099   48.2318  -10.0961 C   0  0  0  0  0  0  0  0  0  0  0  0
   -2.5399   49.2152   -9.2979 O   0  0  0  0  0  0  0  0  0  0  0  0
   -3.0342   48.6351   -8.0479 C   0  0  0  0  0  0  0  0  0  0  0  0
   -1.9127   47.9658   -7.3118 C   0  0  0  0  0  0  0  0  0  0  0  0
   -2.4237   47.3009   -6.1591 O   0  0  0  0  0  0  0  0  0  0  0  0
   -1.2552   46.9692   -8.2052 C   0  0  0  0  0  0  0  0  0  0  0  0
   -0.1498   46.3857   -7.4965 O   0  0  0  0  0  0  0  0  0  0  0  0
   -0.7691   47.6286   -9.4774 C   0  0  0  0  0  0  0  0  0  0  0  0
    0.2171   48.6221   -9.1959 O   0  0  0  0  0  0  0  0  0  0  0  0
   -3.0708   46.6318   -6.4320 H   0  0  0  0  0  0  0  0  0  0  0  0
    0.4821   47.0806   -7.2544 H   0  0  0  0  0  0  0  0  0  0  0  0
   -0.1621   49.2978   -8.6122 H   0  0  0  0  0  0  0  0  0  0  0  0
   -3.5989   49.7631   -7.2646 C   0  0  0  0  0  0  0  0  0  0  0  0
   -2.6696   50.8203   -7.1257 O   0  0  0  0  0  0  0  0  0  0  0  0
   -1.8850   50.5011   -6.6530 H   0  0  0  0  0  0  0  0  0  0  0  0
 16 17  1  0  0  0
 17 13  1  0  0  0
 13 14  2  0  0  0
 13 15  2  0  0  0
 13  7  1  0  0  0
  7  8  1  0  0  0
  7 10  2  0  0  0
  8  9  2  0  0  0
  9 12  1  0  0  0
 10 11  1  0  0  0
 11 12  2  0  0  0
 12  1  1  0  0  0
  1  2  1  0  0  0
  1  4  2  0  0  0
  2  3  2  0  0  0
  3  6  1  0  0  0
  4  5  1  0  0  0
  5  6  2  0  0  0
  6 19  1  0  0  0
 19 20  1  0  0  0
 20 21  1  0  0  0
 20 27  1  0  0  0
 21 22  1  0  0  0
 22 32  1  0  0  0
 22 23  1  0  0  0
 32 33  1  0  0  0
 23 24  1  0  0  0
 23 25  1  0  0  0
 25 26  1  0  0  0
 25 27  1  0  0  0
 27 28  1  0  0  0
 17 18  1  0  0  0
 33 34  1  0  0  0
 24 29  1  0  0  0
 26 30  1  0  0  0
 28 31  1  0  0  0
M  END
> <minimizedAffinity>
-9.67148

$$$$
4CSS_CWX_A_1159


 34 36  0  0  0  0  0  0  0  0999 V2000
   -7.0434   47.0976  -11.0392 C   0  0  0  0  0  0  0  0  0  0  0  0
   -6.3377   48.2481  -11.3485 C   0  0  0  0  0  0  0  0  0  0  0  0
   -4.9446   48.3048  -11.1887 C   0  0  0  0  0  0  0  0  0  0  0  0
   -6.3420   45.9736  -10.5865 C   0  0  0  0  0  0  0  0  0  0  0  0
   -4.9403   46.0122  -10.4505 C   0  0  0  0  0  0  0  0  0  0  0  0
   -4.2621   47.1731  -10.7489 C   0  0  0  0  0  0  0  0  0  0  0  0
  -11.2842   46.9317  -11.4239 C   0  0  0  0  0  0  0  0  0  0  0  0
  -10.5596   47.7154  -12.2859 C   0  0  0  0  0  0  0  0  0  0  0  0
   -9.1652   47.7706  -12.1737 C   0  0  0  0  0  0  0  0  0  0  0  0
  -10.6322   46.2098  -10.4255 C   0  0  0  0  0  0  0  0  0  0  0  0
   -9.2609   46.2723  -10.3109 C   0  0  0  0  0  0  0  0  0  0  0  0
   -8.5026   47.0455  -11.1796 C   0  0  0  0  0  0  0  0  0  0  0  0
  -13.0334   46.8319  -11.5199 S   0  0  0  0  0  0  0  0  0  0  0  0
  -13.5722   46.8119  -10.1670 O   0  0  0  0  0  0  0  0  0  0  0  0
  -13.4972   47.9922  -12.2273 O   0  0  0  0  0  0  0  0  0  0  0  0
  -12.5087   44.7112  -13.0892 C   0  0  0  0  0  0  0  0  0  0  0  0
  -13.4746   45.4516  -12.3483 N   0  0  0  0  0  0  0  0  0  0  0  0
  -13.8679   44.8107  -11.6591 H   0  0  0  0  0  0  0  0  0  0  0  0
   -2.8323   47.1143  -10.5975 O   0  0  0  0  0  0  0  0  0  0  0  0
   -2.0660   48.1684  -10.3096 C   0  0  0  0  0  0  0  0  0  0  0  0
   -2.6689   49.2009   -9.5536 O   0  0  0  0  0  0  0  0  0  0  0  0
   -3.1350   48.6972   -8.2603 C   0  0  0  0  0  0  0  0  0  0  0  0
   -1.9995   48.0621   -7.5155 C   0  0  0  0  0  0  0  0  0  0  0  0
   -2.4853   47.4684   -6.3140 O   0  0  0  0  0  0  0  0  0  0  0  0
   -1.3717   47.0107   -8.3664 C   0  0  0  0  0  0  0  0  0  0  0  0
   -0.2524   46.4597   -7.6534 O   0  0  0  0  0  0  0  0  0  0  0  0
   -0.9138   47.5923   -9.6861 C   0  0  0  0  0  0  0  0  0  0  0  0
    0.0858   48.5923   -9.4869 O   0  0  0  0  0  0  0  0  0  0  0  0
   -3.1436   46.7900   -6.5317 H   0  0  0  0  0  0  0  0  0  0  0  0
    0.3901   47.1622   -7.4675 H   0  0  0  0  0  0  0  0  0  0  0  0
   -0.2738   49.3033   -8.9337 H   0  0  0  0  0  0  0  0  0  0  0  0
   -3.6719   49.8728   -7.5291 C   0  0  0  0  0  0  0  0  0  0  0  0
   -2.6366   50.7144   -7.0599 O   0  0  0  0  0  0  0  0  0  0  0  0
   -2.0727   50.2208   -6.4441 H   0  0  0  0  0  0  0  0  0  0  0  0
 16 17  1  0  0  0
 17 13  1  0  0  0
 13 14  2  0  0  0
 13 15  2  0  0  0
 13  7  1  0  0  0
  7  8  1  0  0  0
  7 10  2  0  0  0
  8  9  2  0  0  0
  9 12  1  0  0  0
 10 11  1  0  0  0
 11 12  2  0  0  0
 12  1  1  0  0  0
  1  2  1  0  0  0
  1  4  2  0  0  0
  2  3  2  0  0  0
  3  6  1  0  0  0
  4  5  1  0  0  0
  5  6  2  0  0  0
  6 19  1  0  0  0
 19 20  1  0  0  0
 20 21  1  0  0  0
 20 27  1  0  0  0
 21 22  1  0  0  0
 22 32  1  0  0  0
 22 23  1  0  0  0
 32 33  1  0  0  0
 23 24  1  0  0  0
 23 25  1  0  0  0
 25 26  1  0  0  0
 25 27  1  0  0  0
 27 28  1  0  0  0
 17 18  1  0  0  0
 33 34  1  0  0  0
 24 29  1  0  0  0
 26 30  1  0  0  0
 28 31  1  0  0  0
M  END
> <minimizedAffinity>
-9.48909

$$$$
4CSS_CWX_A_1159


 34 36  0  0  0  0  0  0  0  0999 V2000
   -6.7947   47.5416  -11.6250 C   0  0  0  0  0  0  0  0  0  0  0  0
   -6.4136   46.5102  -10.7833 C   0  0  0  0  0  0  0  0  0  0  0  0
   -5.0655   46.3159  -10.4451 C   0  0  0  0  0  0  0  0  0  0  0  0
   -5.8144   48.4116  -12.1175 C   0  0  0  0  0  0  0  0  0  0  0  0
   -4.4622   48.2414  -11.7601 C   0  0  0  0  0  0  0  0  0  0  0  0
   -4.1056   47.1984  -10.9345 C   0  0  0  0  0  0  0  0  0  0  0  0
  -10.8691   48.1043  -12.7394 C   0  0  0  0  0  0  0  0  0  0  0  0
  -10.5570   47.1892  -11.7661 C   0  0  0  0  0  0  0  0  0  0  0  0
   -9.2225   47.0024  -11.3864 C   0  0  0  0  0  0  0  0  0  0  0  0
   -9.8549   48.8298  -13.3626 C   0  0  0  0  0  0  0  0  0  0  0  0
   -8.5416   48.6383  -12.9940 C   0  0  0  0  0  0  0  0  0  0  0  0
   -8.1999   47.7297  -12.0014 C   0  0  0  0  0  0  0  0  0  0  0  0
  -12.5251   48.3722  -13.2540 S   0  0  0  0  0  0  0  0  0  0  0  0
  -12.7738   47.5787  -14.4496 O   0  0  0  0  0  0  0  0  0  0  0  0
  -13.3864   47.9516  -12.1849 O   0  0  0  0  0  0  0  0  0  0  0  0
  -13.2278   50.4268  -14.8414 C   0  0  0  0  0  0  0  0  0  0  0  0
  -12.7630   49.9946  -13.5658 N   0  0  0  0  0  0  0  0  0  0  0  0
  -13.4408   50.3273  -12.8801 H   0  0  0  0  0  0  0  0  0  0  0  0
   -2.7064   47.1134  -10.6093 O   0  0  0  0  0  0  0  0  0  0  0  0
   -1.9500   48.1617  -10.2772 C   0  0  0  0  0  0  0  0  0  0  0  0
   -2.5831   49.1905   -9.5410 O   0  0  0  0  0  0  0  0  0  0  0  0
   -3.1105   48.6779   -8.2750 C   0  0  0  0  0  0  0  0  0  0  0  0
   -2.0133   48.0315   -7.4840 C   0  0  0  0  0  0  0  0  0  0  0  0
   -2.5565   47.4299   -6.3115 O   0  0  0  0  0  0  0  0  0  0  0  0
   -1.3509   46.9847   -8.3141 C   0  0  0  0  0  0  0  0  0  0  0  0
   -0.2681   46.4227   -7.5549 O   0  0  0  0  0  0  0  0  0  0  0  0
   -0.8302   47.5754   -9.6061 C   0  0  0  0  0  0  0  0  0  0  0  0
    0.1631   48.5692   -9.3523 O   0  0  0  0  0  0  0  0  0  0  0  0
   -3.2067   46.7562   -6.5653 H   0  0  0  0  0  0  0  0  0  0  0  0
    0.3679   47.1208   -7.3334 H   0  0  0  0  0  0  0  0  0  0  0  0
   -0.2189   49.2771   -8.8102 H   0  0  0  0  0  0  0  0  0  0  0  0
   -3.6761   49.8496   -7.5593 C   0  0  0  0  0  0  0  0  0  0  0  0
   -2.6601   50.6916   -7.0500 O   0  0  0  0  0  0  0  0  0  0  0  0
   -2.1176   50.1968   -6.4162 H   0  0  0  0  0  0  0  0  0  0  0  0
 16 17  1  0  0  0
 17 13  1  0  0  0
 13 14  2  0  0  0
 13 15  2  0  0  0
 13  7  1  0  0  0
  7  8  1  0  0  0
  7 10  2  0  0  0
  8  9  2  0  0  0
  9 12  1  0  0  0
 10 11  1  0  0  0
 11 12  2  0  0  0
 12  1  1  0  0  0
  1  2  1  0  0  0
  1  4  2  0  0  0
  2  3  2  0  0  0
  3  6  1  0  0  0
  4  5  1  0  0  0
  5  6  2  0  0  0
  6 19  1  0  0  0
 19 20  1  0  0  0
 20 21  1  0  0  0
 20 27  1  0  0  0
 21 22  1  0  0  0
 22 32  1  0  0  0
 22 23  1  0  0  0
 32 33  1  0  0  0
 23 24  1  0  0  0
 23 25  1  0  0  0
 25 26  1  0  0  0
 25 27  1  0  0  0
 27 28  1  0  0  0
 17 18  1  0  0  0
 33 34  1  0  0  0
 24 29  1  0  0  0
 26 30  1  0  0  0
 28 31  1  0  0  0
M  END
> <minimizedAffinity>
-9.23454

$$$$
4CSS_CWX_A_1159


 34 36  0  0  0  0  0  0  0  0999 V2000
   -7.2382   48.0434  -11.6730 C   0  0  0  0  0  0  0  0  0  0  0  0
   -6.7804   46.8203  -11.2125 C   0  0  0  0  0  0  0  0  0  0  0  0
   -5.4651   46.6713  -10.7466 C   0  0  0  0  0  0  0  0  0  0  0  0
   -6.3744   49.1449  -11.6434 C   0  0  0  0  0  0  0  0  0  0  0  0
   -5.0613   49.0111  -11.1505 C   0  0  0  0  0  0  0  0  0  0  0  0
   -4.6237   47.7808  -10.7130 C   0  0  0  0  0  0  0  0  0  0  0  0
  -11.2156   48.4657  -13.1432 C   0  0  0  0  0  0  0  0  0  0  0  0
  -10.2181   49.2513  -13.6629 C   0  0  0  0  0  0  0  0  0  0  0  0
   -8.9064   49.1149  -13.1931 C   0  0  0  0  0  0  0  0  0  0  0  0
  -10.9243   47.5494  -12.1339 C   0  0  0  0  0  0  0  0  0  0  0  0
   -9.6347   47.4228  -11.6665 C   0  0  0  0  0  0  0  0  0  0  0  0
   -8.6041   48.1946  -12.1858 C   0  0  0  0  0  0  0  0  0  0  0  0
  -12.8759   48.6013  -13.6945 S   0  0  0  0  0  0  0  0  0  0  0  0
  -13.7617   48.3061  -12.5769 O   0  0  0  0  0  0  0  0  0  0  0  0
  -13.0746   49.9487  -14.1495 O   0  0  0  0  0  0  0  0  0  0  0  0
  -13.0793   46.1291  -14.7345 C   0  0  0  0  0  0  0  0  0  0  0  0
  -13.1411   47.5359  -14.9517 N   0  0  0  0  0  0  0  0  0  0  0  0
  -14.0748   47.7350  -15.3110 H   0  0  0  0  0  0  0  0  0  0  0  0
   -3.2758   47.7430  -10.2108 O   0  0  0  0  0  0  0  0  0  0  0  0
   -2.6568   46.6301   -9.8110 C   0  0  0  0  0  0  0  0  0  0  0  0
   -1.2479   46.6100   -9.9375 O   0  0  0  0  0  0  0  0  0  0  0  0
   -0.6384   47.6914   -9.1613 C   0  0  0  0  0  0  0  0  0  0  0  0
   -1.0626   47.5979   -7.7265 C   0  0  0  0  0  0  0  0  0  0  0  0
   -0.5641   48.7210   -7.0039 O   0  0  0  0  0  0  0  0  0  0  0  0
   -2.5516   47.5817   -7.6473 C   0  0  0  0  0  0  0  0  0  0  0  0
   -2.9302   47.4329   -6.2692 O   0  0  0  0  0  0  0  0  0  0  0  0
   -3.1196   46.4455   -8.4694 C   0  0  0  0  0  0  0  0  0  0  0  0
   -2.6809   45.1817   -7.9703 O   0  0  0  0  0  0  0  0  0  0  0  0
   -0.9194   49.5371   -7.3894 H   0  0  0  0  0  0  0  0  0  0  0  0
   -2.5714   46.6007   -5.9233 H   0  0  0  0  0  0  0  0  0  0  0  0
   -1.7121   45.1415   -7.9987 H   0  0  0  0  0  0  0  0  0  0  0  0
    0.8302   47.5243   -9.3038 C   0  0  0  0  0  0  0  0  0  0  0  0
    1.5283   48.6977   -8.9346 O   0  0  0  0  0  0  0  0  0  0  0  0
    1.2606   49.4288   -9.5132 H   0  0  0  0  0  0  0  0  0  0  0  0
 16 17  1  0  0  0
 17 13  1  0  0  0
 13 14  2  0  0  0
 13 15  2  0  0  0
 13  7  1  0  0  0
  7  8  1  0  0  0
  7 10  2  0  0  0
  8  9  2  0  0  0
  9 12  1  0  0  0
 10 11  1  0  0  0
 11 12  2  0  0  0
 12  1  1  0  0  0
  1  2  1  0  0  0
  1  4  2  0  0  0
  2  3  2  0  0  0
  3  6  1  0  0  0
  4  5  1  0  0  0
  5  6  2  0  0  0
  6 19  1  0  0  0
 19 20  1  0  0  0
 20 21  1  0  0  0
 20 27  1  0  0  0
 21 22  1  0  0  0
 22 32  1  0  0  0
 22 23  1  0  0  0
 32 33  1  0  0  0
 23 24  1  0  0  0
 23 25  1  0  0  0
 25 26  1  0  0  0
 25 27  1  0  0  0
 27 28  1  0  0  0
 17 18  1  0  0  0
 33 34  1  0  0  0
 24 29  1  0  0  0
 26 30  1  0  0  0
 28 31  1  0  0  0
M  END
> <minimizedAffinity>
-8.88277

$$$$
4CSS_CWX_A_1159


 34 36  0  0  0  0  0  0  0  0999 V2000
   -8.3558   48.0628  -11.9723 C   0  0  0  0  0  0  0  0  0  0  0  0
   -8.1041   46.9847  -11.1405 C   0  0  0  0  0  0  0  0  0  0  0  0
   -6.8174   46.7514  -10.6313 C   0  0  0  0  0  0  0  0  0  0  0  0
   -7.3087   48.9397  -12.2805 C   0  0  0  0  0  0  0  0  0  0  0  0
   -6.0203   48.7294  -11.7506 C   0  0  0  0  0  0  0  0  0  0  0  0
   -5.7907   47.6410  -10.9386 C   0  0  0  0  0  0  0  0  0  0  0  0
  -12.2537   48.7125  -13.5672 C   0  0  0  0  0  0  0  0  0  0  0  0
  -11.2150   49.5073  -13.9816 C   0  0  0  0  0  0  0  0  0  0  0  0
   -9.9288   49.2970  -13.4704 C   0  0  0  0  0  0  0  0  0  0  0  0
  -12.0298   47.7123  -12.6224 C   0  0  0  0  0  0  0  0  0  0  0  0
  -10.7654   47.5126  -12.1137 C   0  0  0  0  0  0  0  0  0  0  0  0
   -9.6939   48.2927  -12.5274 C   0  0  0  0  0  0  0  0  0  0  0  0
  -13.8845   48.9383  -14.1741 S   0  0  0  0  0  0  0  0  0  0  0  0
  -14.0202   50.3111  -14.6409 O   0  0  0  0  0  0  0  0  0  0  0  0
  -14.0760   48.0183  -15.2599 O   0  0  0  0  0  0  0  0  0  0  0  0
  -16.0691   47.7196  -13.1855 C   0  0  0  0  0  0  0  0  0  0  0  0
  -14.9864   48.6184  -12.9619 N   0  0  0  0  0  0  0  0  0  0  0  0
  -14.4549   48.2453  -12.1754 H   0  0  0  0  0  0  0  0  0  0  0  0
   -4.4505   47.5167  -10.4298 O   0  0  0  0  0  0  0  0  0  0  0  0
   -3.5889   48.5316  -10.3341 C   0  0  0  0  0  0  0  0  0  0  0  0
   -3.8175   49.4589   -9.2905 O   0  0  0  0  0  0  0  0  0  0  0  0
   -3.7805   48.7961   -7.9856 C   0  0  0  0  0  0  0  0  0  0  0  0
   -2.4752   48.0803   -7.8084 C   0  0  0  0  0  0  0  0  0  0  0  0
   -2.4949   47.3394   -6.5907 O   0  0  0  0  0  0  0  0  0  0  0  0
   -2.2602   47.1462   -8.9507 C   0  0  0  0  0  0  0  0  0  0  0  0
   -0.9786   46.5177   -8.7868 O   0  0  0  0  0  0  0  0  0  0  0  0
   -2.3116   47.8896  -10.2677 C   0  0  0  0  0  0  0  0  0  0  0  0
   -1.2702   48.8630  -10.3484 O   0  0  0  0  0  0  0  0  0  0  0  0
   -3.2143   46.6894   -6.6193 H   0  0  0  0  0  0  0  0  0  0  0  0
   -0.2847   47.1956   -8.7786 H   0  0  0  0  0  0  0  0  0  0  0  0
   -1.3639   49.4978   -9.6210 H   0  0  0  0  0  0  0  0  0  0  0  0
   -3.9515   49.8688   -6.9732 C   0  0  0  0  0  0  0  0  0  0  0  0
   -2.8722   50.7827   -6.9920 O   0  0  0  0  0  0  0  0  0  0  0  0
   -2.0484   50.3145   -6.7844 H   0  0  0  0  0  0  0  0  0  0  0  0
 16 17  1  0  0  0
 17 13  1  0  0  0
 13 14  2  0  0  0
 13 15  2  0  0  0
 13  7  1  0  0  0
  7  8  1  0  0  0
  7 10  2  0  0  0
  8  9  2  0  0  0
  9 12  1  0  0  0
 10 11  1  0  0  0
 11 12  2  0  0  0
 12  1  1  0  0  0
  1  2  1  0  0  0
  1  4  2  0  0  0
  2  3  2  0  0  0
  3  6  1  0  0  0
  4  5  1  0  0  0
  5  6  2  0  0  0
  6 19  1  0  0  0
 19 20  1  0  0  0
 20 21  1  0  0  0
 20 27  1  0  0  0
 21 22  1  0  0  0
 22 32  1  0  0  0
 22 23  1  0  0  0
 32 33  1  0  0  0
 23 24  1  0  0  0
 23 25  1  0  0  0
 25 26  1  0  0  0
 25 27  1  0  0  0
 27 28  1  0  0  0
 17 18  1  0  0  0
 33 34  1  0  0  0
 24 29  1  0  0  0
 26 30  1  0  0  0
 28 31  1  0  0  0
M  END
> <minimizedAffinity>
-8.16245

$$$$
4CSS_CWX_A_1159


 34 36  0  0  0  0  0  0  0  0999 V2000
   -8.5064   47.6529  -11.6795 C   0  0  0  0  0  0  0  0  0  0  0  0
   -7.6061   48.5767  -12.1832 C   0  0  0  0  0  0  0  0  0  0  0  0
   -6.2538   48.5438  -11.8095 C   0  0  0  0  0  0  0  0  0  0  0  0
   -8.0428   46.6613  -10.8065 C   0  0  0  0  0  0  0  0  0  0  0  0
   -6.6814   46.6033  -10.4485 C   0  0  0  0  0  0  0  0  0  0  0  0
   -5.8081   47.5429  -10.9497 C   0  0  0  0  0  0  0  0  0  0  0  0
  -12.6228   47.8135  -12.7701 C   0  0  0  0  0  0  0  0  0  0  0  0
  -12.2207   46.9510  -11.7818 C   0  0  0  0  0  0  0  0  0  0  0  0
  -10.8721   46.8963  -11.4099 C   0  0  0  0  0  0  0  0  0  0  0  0
  -11.6844   48.6170  -13.4158 C   0  0  0  0  0  0  0  0  0  0  0  0
  -10.3565   48.5554  -13.0548 C   0  0  0  0  0  0  0  0  0  0  0  0
   -9.9255   47.7025  -12.0477 C   0  0  0  0  0  0  0  0  0  0  0  0
  -14.2999   47.9166  -13.2757 S   0  0  0  0  0  0  0  0  0  0  0  0
  -15.0765   46.9538  -12.5070 O   0  0  0  0  0  0  0  0  0  0  0  0
  -14.7531   49.2529  -13.0100 O   0  0  0  0  0  0  0  0  0  0  0  0
  -14.3118   46.2593  -15.3943 C   0  0  0  0  0  0  0  0  0  0  0  0
  -14.4168   47.5949  -14.9094 N   0  0  0  0  0  0  0  0  0  0  0  0
  -15.3262   47.9445  -15.2114 H   0  0  0  0  0  0  0  0  0  0  0  0
   -4.4355   47.3946  -10.5441 O   0  0  0  0  0  0  0  0  0  0  0  0
   -3.5739   48.4080  -10.4332 C   0  0  0  0  0  0  0  0  0  0  0  0
   -3.8673   49.3828   -9.4509 O   0  0  0  0  0  0  0  0  0  0  0  0
   -3.9280   48.7795   -8.1183 C   0  0  0  0  0  0  0  0  0  0  0  0
   -2.6448   48.0652   -7.8174 C   0  0  0  0  0  0  0  0  0  0  0  0
   -2.7566   47.3803   -6.5722 O   0  0  0  0  0  0  0  0  0  0  0  0
   -2.3581   47.0793   -8.8987 C   0  0  0  0  0  0  0  0  0  0  0  0
   -1.0966   46.4517   -8.6166 O   0  0  0  0  0  0  0  0  0  0  0  0
   -2.3101   47.7625  -10.2480 C   0  0  0  0  0  0  0  0  0  0  0  0
   -1.2571   48.7256  -10.2982 O   0  0  0  0  0  0  0  0  0  0  0  0
   -3.4778   46.7337   -6.6225 H   0  0  0  0  0  0  0  0  0  0  0  0
   -0.3992   47.1254   -8.5897 H   0  0  0  0  0  0  0  0  0  0  0  0
   -1.3963   49.3931   -9.6084 H   0  0  0  0  0  0  0  0  0  0  0  0
   -4.1606   49.8978   -7.1695 C   0  0  0  0  0  0  0  0  0  0  0  0
   -2.9533   50.5463   -6.8195 O   0  0  0  0  0  0  0  0  0  0  0  0
   -2.3607   49.9135   -6.3846 H   0  0  0  0  0  0  0  0  0  0  0  0
 16 17  1  0  0  0
 17 13  1  0  0  0
 13 14  2  0  0  0
 13 15  2  0  0  0
 13  7  1  0  0  0
  7  8  1  0  0  0
  7 10  2  0  0  0
  8  9  2  0  0  0
  9 12  1  0  0  0
 10 11  1  0  0  0
 11 12  2  0  0  0
 12  1  1  0  0  0
  1  2  1  0  0  0
  1  4  2  0  0  0
  2  3  2  0  0  0
  3  6  1  0  0  0
  4  5  1  0  0  0
  5  6  2  0  0  0
  6 19  1  0  0  0
 19 20  1  0  0  0
 20 21  1  0  0  0
 20 27  1  0  0  0
 21 22  1  0  0  0
 22 32  1  0  0  0
 22 23  1  0  0  0
 32 33  1  0  0  0
 23 24  1  0  0  0
 23 25  1  0  0  0
 25 26  1  0  0  0
 25 27  1  0  0  0
 27 28  1  0  0  0
 17 18  1  0  0  0
 33 34  1  0  0  0
 24 29  1  0  0  0
 26 30  1  0  0  0
 28 31  1  0  0  0
M  END
> <minimizedAffinity>
-8.10946

$$$$
4CSS_CWX_A_1159


 34 36  0  0  0  0  0  0  0  0999 V2000
   -7.2714   48.7674  -12.2162 C   0  0  0  0  0  0  0  0  0  0  0  0
   -7.1208   47.7762  -11.2611 C   0  0  0  0  0  0  0  0  0  0  0  0
   -5.8623   47.4913  -10.7094 C   0  0  0  0  0  0  0  0  0  0  0  0
   -6.1488   49.5061  -12.6090 C   0  0  0  0  0  0  0  0  0  0  0  0
   -4.8866   49.2463  -12.0394 C   0  0  0  0  0  0  0  0  0  0  0  0
   -4.7588   48.2445  -11.1031 C   0  0  0  0  0  0  0  0  0  0  0  0
  -11.0653   49.6023  -13.9681 C   0  0  0  0  0  0  0  0  0  0  0  0
  -10.9312   48.5203  -13.1353 C   0  0  0  0  0  0  0  0  0  0  0  0
   -9.6913   48.2418  -12.5478 C   0  0  0  0  0  0  0  0  0  0  0  0
   -9.9620   50.4084  -14.2440 C   0  0  0  0  0  0  0  0  0  0  0  0
   -8.7407   50.1277  -13.6721 C   0  0  0  0  0  0  0  0  0  0  0  0
   -8.5813   49.0480  -12.8139 C   0  0  0  0  0  0  0  0  0  0  0  0
  -12.5961   49.9914  -14.7325 S   0  0  0  0  0  0  0  0  0  0  0  0
  -12.3584   50.9896  -15.7660 O   0  0  0  0  0  0  0  0  0  0  0  0
  -13.1127   48.7833  -15.3116 O   0  0  0  0  0  0  0  0  0  0  0  0
  -14.9708   50.9981  -13.9694 C   0  0  0  0  0  0  0  0  0  0  0  0
  -13.6652   50.5720  -13.5898 N   0  0  0  0  0  0  0  0  0  0  0  0
  -13.7891   49.8293  -12.9019 H   0  0  0  0  0  0  0  0  0  0  0  0
   -3.4373   48.0627  -10.5636 O   0  0  0  0  0  0  0  0  0  0  0  0
   -2.6607   47.0089  -10.8241 C   0  0  0  0  0  0  0  0  0  0  0  0
   -1.2637   47.2193  -10.7507 O   0  0  0  0  0  0  0  0  0  0  0  0
   -0.8726   47.6661   -9.4125 C   0  0  0  0  0  0  0  0  0  0  0  0
   -1.3343   46.6778   -8.3841 C   0  0  0  0  0  0  0  0  0  0  0  0
   -1.0572   47.1782   -7.0784 O   0  0  0  0  0  0  0  0  0  0  0  0
   -2.8023   46.4589   -8.5272 C   0  0  0  0  0  0  0  0  0  0  0  0
   -3.2076   45.4663   -7.5707 O   0  0  0  0  0  0  0  0  0  0  0  0
   -3.1416   46.0012   -9.9290 C   0  0  0  0  0  0  0  0  0  0  0  0
   -2.5221   44.7490  -10.2239 O   0  0  0  0  0  0  0  0  0  0  0  0
   -1.5256   48.0174   -6.9476 H   0  0  0  0  0  0  0  0  0  0  0  0
   -2.7314   44.6387   -7.7420 H   0  0  0  0  0  0  0  0  0  0  0  0
   -1.5596   44.8374  -10.1424 H   0  0  0  0  0  0  0  0  0  0  0  0
    0.6080   47.7767   -9.4309 C   0  0  0  0  0  0  0  0  0  0  0  0
    1.0884   48.5485   -8.3473 O   0  0  0  0  0  0  0  0  0  0  0  0
    0.7282   49.4472   -8.4057 H   0  0  0  0  0  0  0  0  0  0  0  0
 16 17  1  0  0  0
 17 13  1  0  0  0
 13 14  2  0  0  0
 13 15  2  0  0  0
 13  7  1  0  0  0
  7  8  1  0  0  0
  7 10  2  0  0  0
  8  9  2  0  0  0
  9 12  1  0  0  0
 10 11  1  0  0  0
 11 12  2  0  0  0
 12  1  1  0  0  0
  1  2  1  0  0  0
  1  4  2  0  0  0
  2  3  2  0  0  0
  3  6  1  0  0  0
  4  5  1  0  0  0
  5  6  2  0  0  0
  6 19  1  0  0  0
 19 20  1  0  0  0
 20 21  1  0  0  0
 20 27  1  0  0  0
 21 22  1  0  0  0
 22 32  1  0  0  0
 22 23  1  0  0  0
 32 33  1  0  0  0
 23 24  1  0  0  0
 23 25  1  0  0  0
 25 26  1  0  0  0
 25 27  1  0  0  0
 27 28  1  0  0  0
 17 18  1  0  0  0
 33 34  1  0  0  0
 24 29  1  0  0  0
 26 30  1  0  0  0
 28 31  1  0  0  0
M  END
> <minimizedAffinity>
-7.87141

$$$$
4CSS_CWX_A_1159


 34 36  0  0  0  0  0  0  0  0999 V2000
   -6.9724   49.7642  -12.4611 C   0  0  0  0  0  0  0  0  0  0  0  0
   -7.1536   48.5670  -11.7895 C   0  0  0  0  0  0  0  0  0  0  0  0
   -6.1233   48.0110  -11.0155 C   0  0  0  0  0  0  0  0  0  0  0  0
   -5.7484   50.4325  -12.3367 C   0  0  0  0  0  0  0  0  0  0  0  0
   -4.7186   49.8962  -11.5387 C   0  0  0  0  0  0  0  0  0  0  0  0
   -4.9167   48.6958  -10.8933 C   0  0  0  0  0  0  0  0  0  0  0  0
  -10.0854   51.3943  -14.8720 C   0  0  0  0  0  0  0  0  0  0  0  0
   -8.9959   52.1691  -14.5638 C   0  0  0  0  0  0  0  0  0  0  0  0
   -7.9636   51.6408  -13.7795 C   0  0  0  0  0  0  0  0  0  0  0  0
  -10.1715   50.0908  -14.3855 C   0  0  0  0  0  0  0  0  0  0  0  0
   -9.1590   49.5755  -13.6066 C   0  0  0  0  0  0  0  0  0  0  0  0
   -8.0387   50.3330  -13.2926 C   0  0  0  0  0  0  0  0  0  0  0  0
  -11.4073   52.0109  -15.8473 S   0  0  0  0  0  0  0  0  0  0  0  0
  -11.2730   51.4834  -17.1981 O   0  0  0  0  0  0  0  0  0  0  0  0
  -12.6340   51.5600  -15.2525 O   0  0  0  0  0  0  0  0  0  0  0  0
  -12.5747   54.4341  -15.8281 C   0  0  0  0  0  0  0  0  0  0  0  0
  -11.3666   53.6795  -15.8616 N   0  0  0  0  0  0  0  0  0  0  0  0
  -10.8213   53.9651  -15.0483 H   0  0  0  0  0  0  0  0  0  0  0  0
   -3.8175   48.2346  -10.0873 O   0  0  0  0  0  0  0  0  0  0  0  0
   -2.9946   47.2445  -10.4396 C   0  0  0  0  0  0  0  0  0  0  0  0
   -1.6087   47.5003  -10.3170 O   0  0  0  0  0  0  0  0  0  0  0  0
   -1.2573   47.8207   -8.9323 C   0  0  0  0  0  0  0  0  0  0  0  0
   -1.6945   46.7138   -8.0207 C   0  0  0  0  0  0  0  0  0  0  0  0
   -1.4587   47.0863   -6.6651 O   0  0  0  0  0  0  0  0  0  0  0  0
   -3.1500   46.4540   -8.2148 C   0  0  0  0  0  0  0  0  0  0  0  0
   -3.5295   45.3524   -7.3740 O   0  0  0  0  0  0  0  0  0  0  0  0
   -3.4482   46.1313   -9.6628 C   0  0  0  0  0  0  0  0  0  0  0  0
   -2.7736   44.9416  -10.0728 O   0  0  0  0  0  0  0  0  0  0  0  0
   -1.9629   47.8886   -6.4578 H   0  0  0  0  0  0  0  0  0  0  0  0
   -3.0174   44.5663   -7.6202 H   0  0  0  0  0  0  0  0  0  0  0  0
   -1.8168   45.0584   -9.9635 H   0  0  0  0  0  0  0  0  0  0  0  0
    0.2177   47.9900   -8.9098 C   0  0  0  0  0  0  0  0  0  0  0  0
    0.8435   47.0169   -8.0962 O   0  0  0  0  0  0  0  0  0  0  0  0
    0.5259   47.1055   -7.1839 H   0  0  0  0  0  0  0  0  0  0  0  0
 16 17  1  0  0  0
 17 13  1  0  0  0
 13 14  2  0  0  0
 13 15  2  0  0  0
 13  7  1  0  0  0
  7  8  1  0  0  0
  7 10  2  0  0  0
  8  9  2  0  0  0
  9 12  1  0  0  0
 10 11  1  0  0  0
 11 12  2  0  0  0
 12  1  1  0  0  0
  1  2  1  0  0  0
  1  4  2  0  0  0
  2  3  2  0  0  0
  3  6  1  0  0  0
  4  5  1  0  0  0
  5  6  2  0  0  0
  6 19  1  0  0  0
 19 20  1  0  0  0
 20 21  1  0  0  0
 20 27  1  0  0  0
 21 22  1  0  0  0
 22 32  1  0  0  0
 22 23  1  0  0  0
 32 33  1  0  0  0
 23 24  1  0  0  0
 23 25  1  0  0  0
 25 26  1  0  0  0
 25 27  1  0  0  0
 27 28  1  0  0  0
 17 18  1  0  0  0
 33 34  1  0  0  0
 24 29  1  0  0  0
 26 30  1  0  0  0
 28 31  1  0  0  0
M  END
> <minimizedAffinity>
-7.72237

$$$$
4CSS_CWX_A_1159


 34 36  0  0  0  0  0  0  0  0999 V2000
   -7.7033   47.4268  -11.2687 C   0  0  0  0  0  0  0  0  0  0  0  0
   -6.9417   48.5635  -11.4816 C   0  0  0  0  0  0  0  0  0  0  0  0
   -5.5760   48.5874  -11.1598 C   0  0  0  0  0  0  0  0  0  0  0  0
   -7.0840   46.2836  -10.7491 C   0  0  0  0  0  0  0  0  0  0  0  0
   -5.7072   46.2895  -10.4501 C   0  0  0  0  0  0  0  0  0  0  0  0
   -4.9740   47.4371  -10.6553 C   0  0  0  0  0  0  0  0  0  0  0  0
  -11.8724   47.3578  -12.1482 C   0  0  0  0  0  0  0  0  0  0  0  0
  -11.0498   48.2029  -12.8492 C   0  0  0  0  0  0  0  0  0  0  0  0
   -9.6774   48.2275  -12.5741 C   0  0  0  0  0  0  0  0  0  0  0  0
  -11.3430   46.5421  -11.1495 C   0  0  0  0  0  0  0  0  0  0  0  0
   -9.9937   46.5740  -10.8741 C   0  0  0  0  0  0  0  0  0  0  0  0
   -9.1369   47.4087  -11.5789 C   0  0  0  0  0  0  0  0  0  0  0  0
  -13.5995   47.2927  -12.4517 S   0  0  0  0  0  0  0  0  0  0  0  0
  -13.9841   45.9018  -12.6481 O   0  0  0  0  0  0  0  0  0  0  0  0
  -14.2642   47.8393  -11.3023 O   0  0  0  0  0  0  0  0  0  0  0  0
  -14.8456   49.3198  -13.7060 C   0  0  0  0  0  0  0  0  0  0  0  0
  -13.9690   48.2007  -13.8026 N   0  0  0  0  0  0  0  0  0  0  0  0
  -13.0844   48.5535  -14.1681 H   0  0  0  0  0  0  0  0  0  0  0  0
   -3.5733   47.3448  -10.3388 O   0  0  0  0  0  0  0  0  0  0  0  0
   -2.9944   46.2636   -9.8124 C   0  0  0  0  0  0  0  0  0  0  0  0
   -1.8314   45.7889  -10.4630 O   0  0  0  0  0  0  0  0  0  0  0  0
   -0.7878   46.8155  -10.4819 C   0  0  0  0  0  0  0  0  0  0  0  0
   -0.4887   47.2717   -9.0854 C   0  0  0  0  0  0  0  0  0  0  0  0
    0.4385   48.3538   -9.1216 O   0  0  0  0  0  0  0  0  0  0  0  0
   -1.7488   47.7235   -8.4284 C   0  0  0  0  0  0  0  0  0  0  0  0
   -1.4444   48.0993   -7.0753 O   0  0  0  0  0  0  0  0  0  0  0  0
   -2.7855   46.6213   -8.4425 C   0  0  0  0  0  0  0  0  0  0  0  0
   -2.3366   45.4852   -7.7033 O   0  0  0  0  0  0  0  0  0  0  0  0
    0.0561   49.0907   -9.6232 H   0  0  0  0  0  0  0  0  0  0  0  0
   -1.0798   47.3353   -6.6017 H   0  0  0  0  0  0  0  0  0  0  0  0
   -1.5126   45.1518   -8.0916 H   0  0  0  0  0  0  0  0  0  0  0  0
    0.3999   46.1848  -11.1115 C   0  0  0  0  0  0  0  0  0  0  0  0
    0.1442   44.8447  -11.4846 O   0  0  0  0  0  0  0  0  0  0  0  0
   -0.0774   44.3260  -10.6955 H   0  0  0  0  0  0  0  0  0  0  0  0
 16 17  1  0  0  0
 17 13  1  0  0  0
 13 14  2  0  0  0
 13 15  2  0  0  0
 13  7  1  0  0  0
  7  8  1  0  0  0
  7 10  2  0  0  0
  8  9  2  0  0  0
  9 12  1  0  0  0
 10 11  1  0  0  0
 11 12  2  0  0  0
 12  1  1  0  0  0
  1  2  1  0  0  0
  1  4  2  0  0  0
  2  3  2  0  0  0
  3  6  1  0  0  0
  4  5  1  0  0  0
  5  6  2  0  0  0
  6 19  1  0  0  0
 19 20  1  0  0  0
 20 21  1  0  0  0
 20 27  1  0  0  0
 21 22  1  0  0  0
 22 32  1  0  0  0
 22 23  1  0  0  0
 32 33  1  0  0  0
 23 24  1  0  0  0
 23 25  1  0  0  0
 25 26  1  0  0  0
 25 27  1  0  0  0
 27 28  1  0  0  0
 17 18  1  0  0  0
 33 34  1  0  0  0
 24 29  1  0  0  0
 26 30  1  0  0  0
 28 31  1  0  0  0
M  END
> <minimizedAffinity>
-7.62765

$$$$
4CSS_CWX_A_1159


 34 36  0  0  0  0  0  0  0  0999 V2000
   -6.5947   48.1683  -11.1088 C   0  0  0  0  0  0  0  0  0  0  0  0
   -7.6421   47.3363  -10.7510 C   0  0  0  0  0  0  0  0  0  0  0  0
   -8.8844   47.4214  -11.3982 C   0  0  0  0  0  0  0  0  0  0  0  0
   -6.7828   49.0850  -12.1503 C   0  0  0  0  0  0  0  0  0  0  0  0
   -8.0175   49.1575  -12.8249 C   0  0  0  0  0  0  0  0  0  0  0  0
   -9.0496   48.3307  -12.4402 C   0  0  0  0  0  0  0  0  0  0  0  0
   -2.8424   47.9423   -9.1016 C   0  0  0  0  0  0  0  0  0  0  0  0
   -3.4897   49.1491   -9.1862 C   0  0  0  0  0  0  0  0  0  0  0  0
   -4.7268   49.2329   -9.8361 C   0  0  0  0  0  0  0  0  0  0  0  0
   -3.4079   46.8079   -9.6814 C   0  0  0  0  0  0  0  0  0  0  0  0
   -4.6210   46.8939  -10.3282 C   0  0  0  0  0  0  0  0  0  0  0  0
   -5.3041   48.0995  -10.4150 C   0  0  0  0  0  0  0  0  0  0  0  0
   -1.2883   47.7854   -8.3020 S   0  0  0  0  0  0  0  0  0  0  0  0
   -1.3172   48.5674   -7.0737 O   0  0  0  0  0  0  0  0  0  0  0  0
   -1.0896   46.3944   -8.0064 O   0  0  0  0  0  0  0  0  0  0  0  0
    1.2906   48.0575   -9.0163 C   0  0  0  0  0  0  0  0  0  0  0  0
   -0.0765   48.3264   -9.3143 N   0  0  0  0  0  0  0  0  0  0  0  0
   -0.2603   47.9212  -10.2322 H   0  0  0  0  0  0  0  0  0  0  0  0
  -10.2666   48.4624  -13.1967 O   0  0  0  0  0  0  0  0  0  0  0  0
  -11.4107   47.8489  -12.8870 C   0  0  0  0  0  0  0  0  0  0  0  0
  -12.5617   48.6661  -12.7949 O   0  0  0  0  0  0  0  0  0  0  0  0
  -12.8204   49.3486  -14.0641 C   0  0  0  0  0  0  0  0  0  0  0  0
  -12.9454   48.3461  -15.1718 C   0  0  0  0  0  0  0  0  0  0  0  0
  -13.0760   49.0227  -16.4197 O   0  0  0  0  0  0  0  0  0  0  0  0
  -11.7293   47.4838  -15.2029 C   0  0  0  0  0  0  0  0  0  0  0  0
  -11.9003   46.4968  -16.2330 O   0  0  0  0  0  0  0  0  0  0  0  0
  -11.5161   46.8096  -13.8652 C   0  0  0  0  0  0  0  0  0  0  0  0
  -12.6078   45.9464  -13.5459 O   0  0  0  0  0  0  0  0  0  0  0  0
  -12.2914   49.5720  -16.5733 H   0  0  0  0  0  0  0  0  0  0  0  0
  -12.6830   45.9580  -16.0379 H   0  0  0  0  0  0  0  0  0  0  0  0
  -13.4291   46.4616  -13.5151 H   0  0  0  0  0  0  0  0  0  0  0  0
  -14.0830   50.1068  -13.8748 C   0  0  0  0  0  0  0  0  0  0  0  0
  -14.8255   49.6196  -12.7740 O   0  0  0  0  0  0  0  0  0  0  0  0
  -15.0629   48.6920  -12.9292 H   0  0  0  0  0  0  0  0  0  0  0  0
 16 17  1  0  0  0
 17 13  1  0  0  0
 13 14  2  0  0  0
 13 15  2  0  0  0
 13  7  1  0  0  0
  7  8  1  0  0  0
  7 10  2  0  0  0
  8  9  2  0  0  0
  9 12  1  0  0  0
 10 11  1  0  0  0
 11 12  2  0  0  0
 12  1  1  0  0  0
  1  2  1  0  0  0
  1  4  2  0  0  0
  2  3  2  0  0  0
  3  6  1  0  0  0
  4  5  1  0  0  0
  5  6  2  0  0  0
  6 19  1  0  0  0
 19 20  1  0  0  0
 20 21  1  0  0  0
 20 27  1  0  0  0
 21 22  1  0  0  0
 22 32  1  0  0  0
 22 23  1  0  0  0
 32 33  1  0  0  0
 23 24  1  0  0  0
 23 25  1  0  0  0
 25 26  1  0  0  0
 25 27  1  0  0  0
 27 28  1  0  0  0
 17 18  1  0  0  0
 33 34  1  0  0  0
 24 29  1  0  0  0
 26 30  1  0  0  0
 28 31  1  0  0  0
M  END
> <minimizedAffinity>
-7.51892

$$$$
