5E74_5KH_A_2001


 34 37  0  0  0  0  0  0  0  0999 V2000
  -29.7107  -10.1896   -0.0774 N   0  0  0  0  0  0  0  0  0  0  0  0
  -30.8260  -10.0751    0.8201 C   0  0  0  0  0  0  0  0  0  0  0  0
  -30.7308   -9.4455    1.8562 O   0  0  0  0  0  0  0  0  0  0  0  0
  -24.5786  -11.1096    0.9581 C   0  0  0  0  0  0  0  0  0  0  0  0
  -25.0069   -9.6581    0.9702 C   0  0  0  0  0  0  0  0  0  0  0  0
  -24.1954   -8.7922    1.1813 O   0  0  0  0  0  0  0  0  0  0  0  0
  -26.3580   -9.3312    0.7180 N   0  0  0  0  0  0  0  0  0  0  0  0
  -27.2836  -10.2396    0.4587 C   0  0  0  0  0  0  0  0  0  0  0  0
  -28.4829   -9.5770    0.2530 C   0  0  0  0  0  0  0  0  0  0  0  0
  -28.2348   -8.1723    0.3992 C   0  0  0  0  0  0  0  0  0  0  0  0
  -26.8915   -8.0601    0.6895 C   0  0  0  0  0  0  0  0  0  0  0  0
  -26.3189   -6.7758    0.9010 C   0  0  0  0  0  0  0  0  0  0  0  0
  -27.1157   -5.6380    0.8206 C   0  0  0  0  0  0  0  0  0  0  0  0
  -28.4758   -5.7542    0.5218 C   0  0  0  0  0  0  0  0  0  0  0  0
  -29.0418   -7.0103    0.3130 C   0  0  0  0  0  0  0  0  0  0  0  0
  -29.8756  -10.9155   -1.2732 C   0  0  0  0  0  0  0  0  0  0  0  0
  -30.2408  -10.2660   -2.4516 C   0  0  0  0  0  0  0  0  0  0  0  0
  -30.4194   -8.7499   -2.5099 C   0  0  0  0  0  0  0  0  0  0  0  0
  -30.4293  -11.0211   -3.6014 C   0  0  0  0  0  0  0  0  0  0  0  0
  -30.2744  -12.3997   -3.5711 C   0  0  0  0  0  0  0  0  0  0  0  0
  -29.9312  -13.0373   -2.3909 C   0  0  0  0  0  0  0  0  0  0  0  0
  -29.7336  -12.2956   -1.2415 C   0  0  0  0  0  0  0  0  0  0  0  0
  -29.7750  -14.4352   -2.3651 O   0  0  0  0  0  0  0  0  0  0  0  0
  -29.9094  -14.9362   -3.1454 H   0  0  0  0  0  0  0  0  0  0  0  0
  -34.2709  -10.6715   -0.6862 C   0  0  0  0  0  0  0  0  0  0  0  0
  -33.0727  -10.0556   -0.3484 C   0  0  0  0  0  0  0  0  0  0  0  0
  -32.1521  -10.7174    0.4566 C   0  0  0  0  0  0  0  0  0  0  0  0
  -32.4482  -11.9897    0.9098 C   0  0  0  0  0  0  0  0  0  0  0  0
  -33.6294  -12.6112    0.5707 C   0  0  0  0  0  0  0  0  0  0  0  0
  -34.5533  -11.9519   -0.2301 C   0  0  0  0  0  0  0  0  0  0  0  0
  -33.8552  -14.0106    1.0976 C   0  0  0  0  0  0  0  0  0  0  0  0
  -34.2159  -13.9668    2.3886 F   0  0  0  0  0  0  0  0  0  0  0  0
  -32.7445  -14.7439    0.9402 F   0  0  0  0  0  0  0  0  0  0  0  0
  -34.8515  -14.5605    0.3864 F   0  0  0  0  0  0  0  0  0  0  0  0
 25 30  2  0  0  0
 25 26  1  0  0  0
 30 29  1  0  0  0
 26 27  2  0  0  0
 29 28  2  0  0  0
 29 31  1  0  0  0
 27 28  1  0  0  0
 27  2  1  0  0  0
 32 31  1  0  0  0
  3  2  2  0  0  0
 18 17  1  0  0  0
 33 31  1  0  0  0
 31 34  1  0  0  0
  2  1  1  0  0  0
 17 19  2  0  0  0
 17 16  1  0  0  0
  1 16  1  0  0  0
  1  9  1  0  0  0
 19 20  1  0  0  0
 16 22  2  0  0  0
  9  8  2  0  0  0
  9 10  1  0  0  0
  8  7  1  0  0  0
 10 15  2  0  0  0
 10 11  1  0  0  0
 20 21  2  0  0  0
 15 14  1  0  0  0
 22 21  1  0  0  0
  4  5  1  0  0  0
  7 11  1  0  0  0
  7  5  1  0  0  0
 11 12  2  0  0  0
  5  6  2  0  0  0
 21 23  1  0  0  0
 14 13  2  0  0  0
 12 13  1  0  0  0
 23 24  1  0  0  0
M  END
> <minimizedAffinity>
-8.54259

$$$$
5E74_5KH_A_2001


 34 37  0  0  0  0  0  0  0  0999 V2000
  -29.4098  -10.0918   -0.1998 N   0  0  0  0  0  0  0  0  0  0  0  0
  -29.9738  -11.0431    0.7163 C   0  0  0  0  0  0  0  0  0  0  0  0
  -29.4226  -11.2965    1.7703 O   0  0  0  0  0  0  0  0  0  0  0  0
  -24.1814  -10.8399    0.4014 C   0  0  0  0  0  0  0  0  0  0  0  0
  -24.6752   -9.4234    0.6018 C   0  0  0  0  0  0  0  0  0  0  0  0
  -23.8925   -8.5428    0.8561 O   0  0  0  0  0  0  0  0  0  0  0  0
  -26.0542   -9.1446    0.4731 N   0  0  0  0  0  0  0  0  0  0  0  0
  -26.9520  -10.0683    0.1733 C   0  0  0  0  0  0  0  0  0  0  0  0
  -28.1922   -9.4531    0.1186 C   0  0  0  0  0  0  0  0  0  0  0  0
  -28.0005   -8.0610    0.4040 C   0  0  0  0  0  0  0  0  0  0  0  0
  -26.6471   -7.9084    0.6197 C   0  0  0  0  0  0  0  0  0  0  0  0
  -26.1220   -6.6254    0.9360 C   0  0  0  0  0  0  0  0  0  0  0  0
  -26.9747   -5.5302    1.0329 C   0  0  0  0  0  0  0  0  0  0  0  0
  -28.3452   -5.6867    0.8093 C   0  0  0  0  0  0  0  0  0  0  0  0
  -28.8648   -6.9417    0.4984 C   0  0  0  0  0  0  0  0  0  0  0  0
  -30.0945   -9.8199   -1.4004 C   0  0  0  0  0  0  0  0  0  0  0  0
  -29.7297  -10.4596   -2.5843 C   0  0  0  0  0  0  0  0  0  0  0  0
  -28.6237  -11.5127   -2.6194 C   0  0  0  0  0  0  0  0  0  0  0  0
  -30.4045  -10.1378   -3.7543 C   0  0  0  0  0  0  0  0  0  0  0  0
  -31.4111   -9.1828   -3.7463 C   0  0  0  0  0  0  0  0  0  0  0  0
  -31.7521   -8.5387   -2.5689 C   0  0  0  0  0  0  0  0  0  0  0  0
  -31.0927   -8.8558   -1.3964 C   0  0  0  0  0  0  0  0  0  0  0  0
  -32.7736   -7.5713   -2.5654 O   0  0  0  0  0  0  0  0  0  0  0  0
  -33.2194   -7.3579   -3.3614 H   0  0  0  0  0  0  0  0  0  0  0  0
  -33.6838  -11.8894    0.6071 C   0  0  0  0  0  0  0  0  0  0  0  0
  -32.4857  -11.2722    0.9430 C   0  0  0  0  0  0  0  0  0  0  0  0
  -31.2927  -11.7162    0.3835 C   0  0  0  0  0  0  0  0  0  0  0  0
  -31.3207  -12.7737   -0.5069 C   0  0  0  0  0  0  0  0  0  0  0  0
  -32.5057  -13.3841   -0.8529 C   0  0  0  0  0  0  0  0  0  0  0  0
  -33.6991  -12.9459   -0.2932 C   0  0  0  0  0  0  0  0  0  0  0  0
  -32.4382  -14.5191   -1.8499 C   0  0  0  0  0  0  0  0  0  0  0  0
  -33.3531  -14.3431   -2.8146 F   0  0  0  0  0  0  0  0  0  0  0  0
  -32.6271  -15.6895   -1.2249 F   0  0  0  0  0  0  0  0  0  0  0  0
  -31.2155  -14.5066   -2.4029 F   0  0  0  0  0  0  0  0  0  0  0  0
 25 30  2  0  0  0
 25 26  1  0  0  0
 30 29  1  0  0  0
 26 27  2  0  0  0
 29 28  2  0  0  0
 29 31  1  0  0  0
 27 28  1  0  0  0
 27  2  1  0  0  0
 32 31  1  0  0  0
  3  2  2  0  0  0
 18 17  1  0  0  0
 33 31  1  0  0  0
 31 34  1  0  0  0
  2  1  1  0  0  0
 17 19  2  0  0  0
 17 16  1  0  0  0
  1 16  1  0  0  0
  1  9  1  0  0  0
 19 20  1  0  0  0
 16 22  2  0  0  0
  9  8  2  0  0  0
  9 10  1  0  0  0
  8  7  1  0  0  0
 10 15  2  0  0  0
 10 11  1  0  0  0
 20 21  2  0  0  0
 15 14  1  0  0  0
 22 21  1  0  0  0
  4  5  1  0  0  0
  7 11  1  0  0  0
  7  5  1  0  0  0
 11 12  2  0  0  0
  5  6  2  0  0  0
 21 23  1  0  0  0
 14 13  2  0  0  0
 12 13  1  0  0  0
 23 24  1  0  0  0
M  END
> <minimizedAffinity>
-8.43218

$$$$
5E74_5KH_A_2001


 34 37  0  0  0  0  0  0  0  0999 V2000
  -29.1532  -10.1867   -1.1353 N   0  0  0  0  0  0  0  0  0  0  0  0
  -29.0010  -11.0608   -2.2645 C   0  0  0  0  0  0  0  0  0  0  0  0
  -27.8979  -11.3352   -2.6966 O   0  0  0  0  0  0  0  0  0  0  0  0
  -24.2119  -11.2231    0.5279 C   0  0  0  0  0  0  0  0  0  0  0  0
  -24.6823   -9.7948    0.6985 C   0  0  0  0  0  0  0  0  0  0  0  0
  -23.9398   -8.9675    1.1644 O   0  0  0  0  0  0  0  0  0  0  0  0
  -25.9889   -9.4415    0.2937 N   0  0  0  0  0  0  0  0  0  0  0  0
  -26.8354  -10.3040   -0.2437 C   0  0  0  0  0  0  0  0  0  0  0  0
  -28.0097   -9.6256   -0.5276 C   0  0  0  0  0  0  0  0  0  0  0  0
  -27.8308   -8.2599   -0.1287 C   0  0  0  0  0  0  0  0  0  0  0  0
  -26.5513   -8.1856    0.3802 C   0  0  0  0  0  0  0  0  0  0  0  0
  -26.0580   -6.9469    0.8745 C   0  0  0  0  0  0  0  0  0  0  0  0
  -26.8685   -5.8164    0.8489 C   0  0  0  0  0  0  0  0  0  0  0  0
  -28.1631   -5.8933    0.3285 C   0  0  0  0  0  0  0  0  0  0  0  0
  -28.6511   -7.1045   -0.1577 C   0  0  0  0  0  0  0  0  0  0  0  0
  -30.4510   -9.9124   -0.6615 C   0  0  0  0  0  0  0  0  0  0  0  0
  -30.9921  -10.6510    0.3901 C   0  0  0  0  0  0  0  0  0  0  0  0
  -30.1897  -11.7377    1.1034 C   0  0  0  0  0  0  0  0  0  0  0  0
  -32.2881  -10.3750    0.8045 C   0  0  0  0  0  0  0  0  0  0  0  0
  -33.0361   -9.3937    0.1698 C   0  0  0  0  0  0  0  0  0  0  0  0
  -32.4965   -8.6796   -0.8867 C   0  0  0  0  0  0  0  0  0  0  0  0
  -31.2048   -8.9401   -1.3036 C   0  0  0  0  0  0  0  0  0  0  0  0
  -33.2585   -7.6853   -1.5271 O   0  0  0  0  0  0  0  0  0  0  0  0
  -34.1340   -7.5103   -1.2429 H   0  0  0  0  0  0  0  0  0  0  0  0
  -32.0052  -11.6331   -4.5316 C   0  0  0  0  0  0  0  0  0  0  0  0
  -30.8963  -11.0378   -3.9440 C   0  0  0  0  0  0  0  0  0  0  0  0
  -30.2289  -11.6797   -2.9067 C   0  0  0  0  0  0  0  0  0  0  0  0
  -30.6847  -12.9118   -2.4752 C   0  0  0  0  0  0  0  0  0  0  0  0
  -31.7771  -13.5132   -3.0596 C   0  0  0  0  0  0  0  0  0  0  0  0
  -32.4487  -12.8735   -4.0936 C   0  0  0  0  0  0  0  0  0  0  0  0
  -32.1884  -14.8700   -2.5332 C   0  0  0  0  0  0  0  0  0  0  0  0
  -31.2155  -15.7665   -2.7535 F   0  0  0  0  0  0  0  0  0  0  0  0
  -33.3320  -15.2589   -3.1138 F   0  0  0  0  0  0  0  0  0  0  0  0
  -32.3821  -14.7549   -1.2104 F   0  0  0  0  0  0  0  0  0  0  0  0
 25 30  2  0  0  0
 25 26  1  0  0  0
 30 29  1  0  0  0
 26 27  2  0  0  0
 29 28  2  0  0  0
 29 31  1  0  0  0
 27 28  1  0  0  0
 27  2  1  0  0  0
 32 31  1  0  0  0
  3  2  2  0  0  0
 18 17  1  0  0  0
 33 31  1  0  0  0
 31 34  1  0  0  0
  2  1  1  0  0  0
 17 19  2  0  0  0
 17 16  1  0  0  0
  1 16  1  0  0  0
  1  9  1  0  0  0
 19 20  1  0  0  0
 16 22  2  0  0  0
  9  8  2  0  0  0
  9 10  1  0  0  0
  8  7  1  0  0  0
 10 15  2  0  0  0
 10 11  1  0  0  0
 20 21  2  0  0  0
 15 14  1  0  0  0
 22 21  1  0  0  0
  4  5  1  0  0  0
  7 11  1  0  0  0
  7  5  1  0  0  0
 11 12  2  0  0  0
  5  6  2  0  0  0
 21 23  1  0  0  0
 14 13  2  0  0  0
 12 13  1  0  0  0
 23 24  1  0  0  0
M  END
> <minimizedAffinity>
-8.12373

$$$$
5E74_5KH_A_2001


 34 37  0  0  0  0  0  0  0  0999 V2000
  -29.9769   -9.8650   -0.2947 N   0  0  0  0  0  0  0  0  0  0  0  0
  -30.2892  -10.9558    0.5857 C   0  0  0  0  0  0  0  0  0  0  0  0
  -29.7468  -11.0576    1.6694 O   0  0  0  0  0  0  0  0  0  0  0  0
  -29.2756   -4.7688    1.0449 C   0  0  0  0  0  0  0  0  0  0  0  0
  -28.0379   -5.6392    1.0798 C   0  0  0  0  0  0  0  0  0  0  0  0
  -26.9813   -5.1707    1.4213 O   0  0  0  0  0  0  0  0  0  0  0  0
  -28.1383   -7.0027    0.7236 N   0  0  0  0  0  0  0  0  0  0  0  0
  -29.2764   -7.5722    0.3636 C   0  0  0  0  0  0  0  0  0  0  0  0
  -29.0170   -8.9064    0.0946 C   0  0  0  0  0  0  0  0  0  0  0  0
  -27.6191   -9.1323    0.3207 C   0  0  0  0  0  0  0  0  0  0  0  0
  -27.1046   -7.9150    0.7143 C   0  0  0  0  0  0  0  0  0  0  0  0
  -25.7197   -7.7968    1.0147 C   0  0  0  0  0  0  0  0  0  0  0  0
  -24.8878   -8.9066    0.9050 C   0  0  0  0  0  0  0  0  0  0  0  0
  -25.4126  -10.1402    0.5103 C   0  0  0  0  0  0  0  0  0  0  0  0
  -26.7691  -10.2615    0.2154 C   0  0  0  0  0  0  0  0  0  0  0  0
  -30.6441   -9.7815   -1.5324 C   0  0  0  0  0  0  0  0  0  0  0  0
  -30.0585  -10.2949   -2.6889 C   0  0  0  0  0  0  0  0  0  0  0  0
  -28.7105  -11.0129   -2.6548 C   0  0  0  0  0  0  0  0  0  0  0  0
  -30.7312  -10.1608   -3.8960 C   0  0  0  0  0  0  0  0  0  0  0  0
  -31.9558   -9.5106   -3.9508 C   0  0  0  0  0  0  0  0  0  0  0  0
  -32.5193   -8.9866   -2.7997 C   0  0  0  0  0  0  0  0  0  0  0  0
  -31.8628   -9.1203   -1.5909 C   0  0  0  0  0  0  0  0  0  0  0  0
  -33.7613   -8.3284   -2.8600 O   0  0  0  0  0  0  0  0  0  0  0  0
  -34.2048   -8.2389   -3.6805 H   0  0  0  0  0  0  0  0  0  0  0  0
  -33.4880  -13.0160    0.4613 C   0  0  0  0  0  0  0  0  0  0  0  0
  -32.5361  -12.0896    0.8674 C   0  0  0  0  0  0  0  0  0  0  0  0
  -31.3351  -11.9764    0.1760 C   0  0  0  0  0  0  0  0  0  0  0  0
  -31.1080  -12.7951   -0.9149 C   0  0  0  0  0  0  0  0  0  0  0  0
  -32.0511  -13.7088   -1.3300 C   0  0  0  0  0  0  0  0  0  0  0  0
  -33.2506  -13.8275   -0.6397 C   0  0  0  0  0  0  0  0  0  0  0  0
  -31.7207  -14.5457   -2.5455 C   0  0  0  0  0  0  0  0  0  0  0  0
  -32.4258  -15.6865   -2.5278 F   0  0  0  0  0  0  0  0  0  0  0  0
  -30.4057  -14.8015   -2.5817 F   0  0  0  0  0  0  0  0  0  0  0  0
  -32.0632  -13.8400   -3.6343 F   0  0  0  0  0  0  0  0  0  0  0  0
 25 30  2  0  0  0
 25 26  1  0  0  0
 30 29  1  0  0  0
 26 27  2  0  0  0
 29 28  2  0  0  0
 29 31  1  0  0  0
 27 28  1  0  0  0
 27  2  1  0  0  0
 32 31  1  0  0  0
  3  2  2  0  0  0
 18 17  1  0  0  0
 33 31  1  0  0  0
 31 34  1  0  0  0
  2  1  1  0  0  0
 17 19  2  0  0  0
 17 16  1  0  0  0
  1 16  1  0  0  0
  1  9  1  0  0  0
 19 20  1  0  0  0
 16 22  2  0  0  0
  9  8  2  0  0  0
  9 10  1  0  0  0
  8  7  1  0  0  0
 10 15  2  0  0  0
 10 11  1  0  0  0
 20 21  2  0  0  0
 15 14  1  0  0  0
 22 21  1  0  0  0
  4  5  1  0  0  0
  7 11  1  0  0  0
  7  5  1  0  0  0
 11 12  2  0  0  0
  5  6  2  0  0  0
 21 23  1  0  0  0
 14 13  2  0  0  0
 12 13  1  0  0  0
 23 24  1  0  0  0
M  END
> <minimizedAffinity>
-7.98734

$$$$
5E74_5KH_A_2001


 34 37  0  0  0  0  0  0  0  0999 V2000
  -29.5713  -10.2211   -0.1468 N   0  0  0  0  0  0  0  0  0  0  0  0
  -30.6759  -10.1264    0.7661 C   0  0  0  0  0  0  0  0  0  0  0  0
  -30.5790   -9.4917    1.7989 O   0  0  0  0  0  0  0  0  0  0  0  0
  -24.3954  -11.0268    0.7577 C   0  0  0  0  0  0  0  0  0  0  0  0
  -24.8590   -9.5868    0.8010 C   0  0  0  0  0  0  0  0  0  0  0  0
  -24.0645   -8.7040    1.0062 O   0  0  0  0  0  0  0  0  0  0  0  0
  -26.2233   -9.2903    0.5845 N   0  0  0  0  0  0  0  0  0  0  0  0
  -27.1319  -10.2179    0.3330 C   0  0  0  0  0  0  0  0  0  0  0  0
  -28.3517   -9.5827    0.1645 C   0  0  0  0  0  0  0  0  0  0  0  0
  -28.1350   -8.1744    0.3257 C   0  0  0  0  0  0  0  0  0  0  0  0
  -26.7885   -8.0327    0.5869 C   0  0  0  0  0  0  0  0  0  0  0  0
  -26.2431   -6.7376    0.8042 C   0  0  0  0  0  0  0  0  0  0  0  0
  -27.0694   -5.6191    0.7588 C   0  0  0  0  0  0  0  0  0  0  0  0
  -28.4328   -5.7651    0.4893 C   0  0  0  0  0  0  0  0  0  0  0  0
  -28.9722   -7.0319    0.2751 C   0  0  0  0  0  0  0  0  0  0  0  0
  -29.7382  -10.9540   -1.3380 C   0  0  0  0  0  0  0  0  0  0  0  0
  -30.1726  -10.3231   -2.5030 C   0  0  0  0  0  0  0  0  0  0  0  0
  -30.4280   -8.8178   -2.5527 C   0  0  0  0  0  0  0  0  0  0  0  0
  -30.3601  -11.0864   -3.6475 C   0  0  0  0  0  0  0  0  0  0  0  0
  -30.1362  -12.4556   -3.6247 C   0  0  0  0  0  0  0  0  0  0  0  0
  -29.7242  -13.0757   -2.4572 C   0  0  0  0  0  0  0  0  0  0  0  0
  -29.5269  -12.3254   -1.3134 C   0  0  0  0  0  0  0  0  0  0  0  0
  -29.4980  -14.4641   -2.4390 O   0  0  0  0  0  0  0  0  0  0  0  0
  -29.6324  -14.9710   -3.2155 H   0  0  0  0  0  0  0  0  0  0  0  0
  -33.5064  -12.6644    0.5669 C   0  0  0  0  0  0  0  0  0  0  0  0
  -32.2849  -12.0790    0.8746 C   0  0  0  0  0  0  0  0  0  0  0  0
  -31.9937  -10.7966    0.4232 C   0  0  0  0  0  0  0  0  0  0  0  0
  -32.9349  -10.1196   -0.3304 C   0  0  0  0  0  0  0  0  0  0  0  0
  -34.1522  -10.6891   -0.6310 C   0  0  0  0  0  0  0  0  0  0  0  0
  -34.4454  -11.9715   -0.1850 C   0  0  0  0  0  0  0  0  0  0  0  0
  -35.1246   -9.8636   -1.4435 C   0  0  0  0  0  0  0  0  0  0  0  0
  -34.5196   -9.3807   -2.5387 F   0  0  0  0  0  0  0  0  0  0  0  0
  -35.6160   -8.8666   -0.6947 F   0  0  0  0  0  0  0  0  0  0  0  0
  -36.1297  -10.6685   -1.8213 F   0  0  0  0  0  0  0  0  0  0  0  0
 25 30  2  0  0  0
 25 26  1  0  0  0
 30 29  1  0  0  0
 26 27  2  0  0  0
 29 28  2  0  0  0
 29 31  1  0  0  0
 27 28  1  0  0  0
 27  2  1  0  0  0
 32 31  1  0  0  0
  3  2  2  0  0  0
 18 17  1  0  0  0
 33 31  1  0  0  0
 31 34  1  0  0  0
  2  1  1  0  0  0
 17 19  2  0  0  0
 17 16  1  0  0  0
  1 16  1  0  0  0
  1  9  1  0  0  0
 19 20  1  0  0  0
 16 22  2  0  0  0
  9  8  2  0  0  0
  9 10  1  0  0  0
  8  7  1  0  0  0
 10 15  2  0  0  0
 10 11  1  0  0  0
 20 21  2  0  0  0
 15 14  1  0  0  0
 22 21  1  0  0  0
  4  5  1  0  0  0
  7 11  1  0  0  0
  7  5  1  0  0  0
 11 12  2  0  0  0
  5  6  2  0  0  0
 21 23  1  0  0  0
 14 13  2  0  0  0
 12 13  1  0  0  0
 23 24  1  0  0  0
M  END
> <minimizedAffinity>
-7.96843

$$$$
5E74_5KH_A_2001


 34 37  0  0  0  0  0  0  0  0999 V2000
  -29.9226   -9.2732   -0.9164 N   0  0  0  0  0  0  0  0  0  0  0  0
  -30.1579   -8.8790   -2.2772 C   0  0  0  0  0  0  0  0  0  0  0  0
  -29.3344   -8.2255   -2.8885 O   0  0  0  0  0  0  0  0  0  0  0  0
  -25.1112  -10.9432    0.6063 C   0  0  0  0  0  0  0  0  0  0  0  0
  -25.4338   -9.4945    0.9024 C   0  0  0  0  0  0  0  0  0  0  0  0
  -24.6109   -8.7897    1.4303 O   0  0  0  0  0  0  0  0  0  0  0  0
  -26.6981   -8.9774    0.5414 N   0  0  0  0  0  0  0  0  0  0  0  0
  -27.6282   -9.7005   -0.0597 C   0  0  0  0  0  0  0  0  0  0  0  0
  -28.7276   -8.8849   -0.2737 C   0  0  0  0  0  0  0  0  0  0  0  0
  -28.4106   -7.5836    0.2385 C   0  0  0  0  0  0  0  0  0  0  0  0
  -27.1299   -7.6831    0.7399 C   0  0  0  0  0  0  0  0  0  0  0  0
  -26.5130   -6.5477    1.3334 C   0  0  0  0  0  0  0  0  0  0  0  0
  -27.2044   -5.3429    1.4119 C   0  0  0  0  0  0  0  0  0  0  0  0
  -28.5004   -5.2435    0.8989 C   0  0  0  0  0  0  0  0  0  0  0  0
  -29.1093   -6.3529    0.3157 C   0  0  0  0  0  0  0  0  0  0  0  0
  -30.8994  -10.0438   -0.2562 C   0  0  0  0  0  0  0  0  0  0  0  0
  -31.9180   -9.4265    0.4687 C   0  0  0  0  0  0  0  0  0  0  0  0
  -32.0510   -7.9059    0.5300 C   0  0  0  0  0  0  0  0  0  0  0  0
  -32.8408  -10.2208    1.1359 C   0  0  0  0  0  0  0  0  0  0  0  0
  -32.7382  -11.6040    1.0956 C   0  0  0  0  0  0  0  0  0  0  0  0
  -31.7111  -12.2069    0.3894 C   0  0  0  0  0  0  0  0  0  0  0  0
  -30.7906  -11.4270   -0.2850 C   0  0  0  0  0  0  0  0  0  0  0  0
  -31.6111  -13.6097    0.3511 O   0  0  0  0  0  0  0  0  0  0  0  0
  -32.2362  -14.1366    0.8090 H   0  0  0  0  0  0  0  0  0  0  0  0
  -33.6876   -8.8776   -3.7031 C   0  0  0  0  0  0  0  0  0  0  0  0
  -32.5375   -8.4687   -3.0402 C   0  0  0  0  0  0  0  0  0  0  0  0
  -31.4340   -9.3121   -2.9751 C   0  0  0  0  0  0  0  0  0  0  0  0
  -31.5013  -10.5545   -3.5784 C   0  0  0  0  0  0  0  0  0  0  0  0
  -32.6342  -10.9630   -4.2464 C   0  0  0  0  0  0  0  0  0  0  0  0
  -33.7400  -10.1249   -4.3104 C   0  0  0  0  0  0  0  0  0  0  0  0
  -32.6060  -12.3305   -4.8916 C   0  0  0  0  0  0  0  0  0  0  0  0
  -31.9833  -12.2699   -6.0779 F   0  0  0  0  0  0  0  0  0  0  0  0
  -33.8549  -12.7951   -5.0347 F   0  0  0  0  0  0  0  0  0  0  0  0
  -31.9198  -13.1516   -4.0819 F   0  0  0  0  0  0  0  0  0  0  0  0
 25 30  2  0  0  0
 25 26  1  0  0  0
 30 29  1  0  0  0
 26 27  2  0  0  0
 29 28  2  0  0  0
 29 31  1  0  0  0
 27 28  1  0  0  0
 27  2  1  0  0  0
 32 31  1  0  0  0
  3  2  2  0  0  0
 18 17  1  0  0  0
 33 31  1  0  0  0
 31 34  1  0  0  0
  2  1  1  0  0  0
 17 19  2  0  0  0
 17 16  1  0  0  0
  1 16  1  0  0  0
  1  9  1  0  0  0
 19 20  1  0  0  0
 16 22  2  0  0  0
  9  8  2  0  0  0
  9 10  1  0  0  0
  8  7  1  0  0  0
 10 15  2  0  0  0
 10 11  1  0  0  0
 20 21  2  0  0  0
 15 14  1  0  0  0
 22 21  1  0  0  0
  4  5  1  0  0  0
  7 11  1  0  0  0
  7  5  1  0  0  0
 11 12  2  0  0  0
  5  6  2  0  0  0
 21 23  1  0  0  0
 14 13  2  0  0  0
 12 13  1  0  0  0
 23 24  1  0  0  0
M  END
> <minimizedAffinity>
-7.87744

$$$$
5E74_5KH_A_2001


 34 37  0  0  0  0  0  0  0  0999 V2000
  -30.5267   -9.7038   -1.1544 N   0  0  0  0  0  0  0  0  0  0  0  0
  -29.1499   -9.8576   -1.5326 C   0  0  0  0  0  0  0  0  0  0  0  0
  -28.8461  -10.1729   -2.6672 O   0  0  0  0  0  0  0  0  0  0  0  0
  -33.4681  -13.4697   -3.4833 C   0  0  0  0  0  0  0  0  0  0  0  0
  -33.7569  -12.0462   -3.9086 C   0  0  0  0  0  0  0  0  0  0  0  0
  -34.6277  -11.8220   -4.7111 O   0  0  0  0  0  0  0  0  0  0  0  0
  -33.0082  -10.9885   -3.3458 N   0  0  0  0  0  0  0  0  0  0  0  0
  -32.0579  -11.1768   -2.4454 C   0  0  0  0  0  0  0  0  0  0  0  0
  -31.5424   -9.9363   -2.1064 C   0  0  0  0  0  0  0  0  0  0  0  0
  -32.2517   -8.9479   -2.8655 C   0  0  0  0  0  0  0  0  0  0  0  0
  -33.1619   -9.6479   -3.6291 C   0  0  0  0  0  0  0  0  0  0  0  0
  -34.0307   -8.9485   -4.5110 C   0  0  0  0  0  0  0  0  0  0  0  0
  -33.9562   -7.5624   -4.6055 C   0  0  0  0  0  0  0  0  0  0  0  0
  -33.0360   -6.8550   -3.8272 C   0  0  0  0  0  0  0  0  0  0  0  0
  -32.1827   -7.5355   -2.9609 C   0  0  0  0  0  0  0  0  0  0  0  0
  -30.8271   -9.3210    0.1674 C   0  0  0  0  0  0  0  0  0  0  0  0
  -31.0579  -10.2842    1.1488 C   0  0  0  0  0  0  0  0  0  0  0  0
  -30.9398  -11.7778    0.8505 C   0  0  0  0  0  0  0  0  0  0  0  0
  -31.3872   -9.8673    2.4315 C   0  0  0  0  0  0  0  0  0  0  0  0
  -31.5020   -8.5159    2.7245 C   0  0  0  0  0  0  0  0  0  0  0  0
  -31.2904   -7.5678    1.7378 C   0  0  0  0  0  0  0  0  0  0  0  0
  -30.9548   -7.9702    0.4589 C   0  0  0  0  0  0  0  0  0  0  0  0
  -31.4076   -6.1987    2.0395 O   0  0  0  0  0  0  0  0  0  0  0  0
  -31.6352   -5.9280    2.9072 H   0  0  0  0  0  0  0  0  0  0  0  0
  -26.5259  -10.3498    1.1813 C   0  0  0  0  0  0  0  0  0  0  0  0
  -27.5417  -10.6141    0.2715 C   0  0  0  0  0  0  0  0  0  0  0  0
  -28.0565   -9.5894   -0.5148 C   0  0  0  0  0  0  0  0  0  0  0  0
  -27.5423   -8.3133   -0.3767 C   0  0  0  0  0  0  0  0  0  0  0  0
  -26.5281   -8.0453    0.5156 C   0  0  0  0  0  0  0  0  0  0  0  0
  -26.0137   -9.0655    1.3056 C   0  0  0  0  0  0  0  0  0  0  0  0
  -26.0172   -6.6234    0.5811 C   0  0  0  0  0  0  0  0  0  0  0  0
  -24.7783   -6.5998    1.0942 F   0  0  0  0  0  0  0  0  0  0  0  0
  -26.8489   -5.8714    1.3151 F   0  0  0  0  0  0  0  0  0  0  0  0
  -25.9781   -6.1439   -0.6716 F   0  0  0  0  0  0  0  0  0  0  0  0
 25 30  2  0  0  0
 25 26  1  0  0  0
 30 29  1  0  0  0
 26 27  2  0  0  0
 29 28  2  0  0  0
 29 31  1  0  0  0
 27 28  1  0  0  0
 27  2  1  0  0  0
 32 31  1  0  0  0
  3  2  2  0  0  0
 18 17  1  0  0  0
 33 31  1  0  0  0
 31 34  1  0  0  0
  2  1  1  0  0  0
 17 19  2  0  0  0
 17 16  1  0  0  0
  1 16  1  0  0  0
  1  9  1  0  0  0
 19 20  1  0  0  0
 16 22  2  0  0  0
  9  8  2  0  0  0
  9 10  1  0  0  0
  8  7  1  0  0  0
 10 15  2  0  0  0
 10 11  1  0  0  0
 20 21  2  0  0  0
 15 14  1  0  0  0
 22 21  1  0  0  0
  4  5  1  0  0  0
  7 11  1  0  0  0
  7  5  1  0  0  0
 11 12  2  0  0  0
  5  6  2  0  0  0
 21 23  1  0  0  0
 14 13  2  0  0  0
 12 13  1  0  0  0
 23 24  1  0  0  0
M  END
> <minimizedAffinity>
-7.86937

$$$$
5E74_5KH_A_2001


 34 37  0  0  0  0  0  0  0  0999 V2000
  -29.3622  -10.1270   -0.1679 N   0  0  0  0  0  0  0  0  0  0  0  0
  -29.9206  -11.0676    0.7626 C   0  0  0  0  0  0  0  0  0  0  0  0
  -29.3592  -11.3144    1.8128 O   0  0  0  0  0  0  0  0  0  0  0  0
  -24.1316  -10.8958    0.3865 C   0  0  0  0  0  0  0  0  0  0  0  0
  -24.6162   -9.4749    0.5781 C   0  0  0  0  0  0  0  0  0  0  0  0
  -23.8266   -8.5958    0.8158 O   0  0  0  0  0  0  0  0  0  0  0  0
  -25.9951   -9.1903    0.4610 N   0  0  0  0  0  0  0  0  0  0  0  0
  -26.9005  -10.1124    0.1796 C   0  0  0  0  0  0  0  0  0  0  0  0
  -28.1382   -9.4915    0.1316 C   0  0  0  0  0  0  0  0  0  0  0  0
  -27.9367   -8.0976    0.4015 C   0  0  0  0  0  0  0  0  0  0  0  0
  -26.5804   -7.9498    0.6017 C   0  0  0  0  0  0  0  0  0  0  0  0
  -26.0456   -6.6665    0.9000 C   0  0  0  0  0  0  0  0  0  0  0  0
  -26.8918   -5.5662    0.9950 C   0  0  0  0  0  0  0  0  0  0  0  0
  -28.2653   -5.7178    0.7872 C   0  0  0  0  0  0  0  0  0  0  0  0
  -28.7944   -6.9731    0.4939 C   0  0  0  0  0  0  0  0  0  0  0  0
  -30.0586   -9.8624   -1.3633 C   0  0  0  0  0  0  0  0  0  0  0  0
  -29.6910  -10.4923   -2.5516 C   0  0  0  0  0  0  0  0  0  0  0  0
  -28.5684  -11.5274   -2.5970 C   0  0  0  0  0  0  0  0  0  0  0  0
  -30.3782  -10.1777   -3.7163 C   0  0  0  0  0  0  0  0  0  0  0  0
  -31.3999   -9.2390   -3.6988 C   0  0  0  0  0  0  0  0  0  0  0  0
  -31.7439   -8.6043   -2.5173 C   0  0  0  0  0  0  0  0  0  0  0  0
  -31.0722   -8.9145   -1.3499 C   0  0  0  0  0  0  0  0  0  0  0  0
  -32.7807   -7.6535   -2.5043 O   0  0  0  0  0  0  0  0  0  0  0  0
  -33.2349   -7.4447   -3.2968 H   0  0  0  0  0  0  0  0  0  0  0  0
  -32.5390  -13.4187   -0.6896 C   0  0  0  0  0  0  0  0  0  0  0  0
  -31.3182  -12.8071   -0.4351 C   0  0  0  0  0  0  0  0  0  0  0  0
  -31.2463  -11.7372    0.4501 C   0  0  0  0  0  0  0  0  0  0  0  0
  -32.4024  -11.2977    1.0683 C   0  0  0  0  0  0  0  0  0  0  0  0
  -33.6148  -11.9055    0.8291 C   0  0  0  0  0  0  0  0  0  0  0  0
  -33.6914  -12.9721   -0.0573 C   0  0  0  0  0  0  0  0  0  0  0  0
  -34.8200  -11.3674    1.5673 C   0  0  0  0  0  0  0  0  0  0  0  0
  -35.8203  -12.2602    1.5336 F   0  0  0  0  0  0  0  0  0  0  0  0
  -35.2054  -10.2029    1.0273 F   0  0  0  0  0  0  0  0  0  0  0  0
  -34.4615  -11.1644    2.8444 F   0  0  0  0  0  0  0  0  0  0  0  0
 25 30  2  0  0  0
 25 26  1  0  0  0
 30 29  1  0  0  0
 26 27  2  0  0  0
 29 28  2  0  0  0
 29 31  1  0  0  0
 27 28  1  0  0  0
 27  2  1  0  0  0
 32 31  1  0  0  0
  3  2  2  0  0  0
 18 17  1  0  0  0
 33 31  1  0  0  0
 31 34  1  0  0  0
  2  1  1  0  0  0
 17 19  2  0  0  0
 17 16  1  0  0  0
  1 16  1  0  0  0
  1  9  1  0  0  0
 19 20  1  0  0  0
 16 22  2  0  0  0
  9  8  2  0  0  0
  9 10  1  0  0  0
  8  7  1  0  0  0
 10 15  2  0  0  0
 10 11  1  0  0  0
 20 21  2  0  0  0
 15 14  1  0  0  0
 22 21  1  0  0  0
  4  5  1  0  0  0
  7 11  1  0  0  0
  7  5  1  0  0  0
 11 12  2  0  0  0
  5  6  2  0  0  0
 21 23  1  0  0  0
 14 13  2  0  0  0
 12 13  1  0  0  0
 23 24  1  0  0  0
M  END
> <minimizedAffinity>
-7.82080

$$$$
5E74_5KH_A_2001


 34 37  0  0  0  0  0  0  0  0999 V2000
  -29.2300  -10.2047   -1.1079 N   0  0  0  0  0  0  0  0  0  0  0  0
  -29.0670  -11.1270   -2.1966 C   0  0  0  0  0  0  0  0  0  0  0  0
  -27.9594  -11.4283   -2.5983 O   0  0  0  0  0  0  0  0  0  0  0  0
  -24.2770  -11.1792    0.5581 C   0  0  0  0  0  0  0  0  0  0  0  0
  -24.7617   -9.7544    0.7189 C   0  0  0  0  0  0  0  0  0  0  0  0
  -24.0272   -8.9164    1.1782 O   0  0  0  0  0  0  0  0  0  0  0  0
  -26.0722   -9.4174    0.3127 N   0  0  0  0  0  0  0  0  0  0  0  0
  -26.9104  -10.2922   -0.2177 C   0  0  0  0  0  0  0  0  0  0  0  0
  -28.0917   -9.6277   -0.5053 C   0  0  0  0  0  0  0  0  0  0  0  0
  -27.9263   -8.2575   -0.1163 C   0  0  0  0  0  0  0  0  0  0  0  0
  -26.6472   -8.1666    0.3908 C   0  0  0  0  0  0  0  0  0  0  0  0
  -26.1660   -6.9195    0.8758 C   0  0  0  0  0  0  0  0  0  0  0  0
  -26.9880   -5.7974    0.8428 C   0  0  0  0  0  0  0  0  0  0  0  0
  -28.2822   -5.8911    0.3242 C   0  0  0  0  0  0  0  0  0  0  0  0
  -28.7583   -7.1107   -0.1529 C   0  0  0  0  0  0  0  0  0  0  0  0
  -30.5330   -9.9002   -0.6679 C   0  0  0  0  0  0  0  0  0  0  0  0
  -31.0838  -10.5637    0.4278 C   0  0  0  0  0  0  0  0  0  0  0  0
  -30.2874  -11.5956    1.2243 C   0  0  0  0  0  0  0  0  0  0  0  0
  -32.3844  -10.2616    0.8086 C   0  0  0  0  0  0  0  0  0  0  0  0
  -33.1270   -9.3292    0.0984 C   0  0  0  0  0  0  0  0  0  0  0  0
  -32.5776   -8.6905   -1.0004 C   0  0  0  0  0  0  0  0  0  0  0  0
  -31.2813   -8.9772   -1.3847 C   0  0  0  0  0  0  0  0  0  0  0  0
  -33.3342   -7.7454   -1.7172 O   0  0  0  0  0  0  0  0  0  0  0  0
  -34.2128   -7.5525   -1.4549 H   0  0  0  0  0  0  0  0  0  0  0  0
  -32.0092  -13.4474   -2.8682 C   0  0  0  0  0  0  0  0  0  0  0  0
  -30.8777  -12.8955   -2.2815 C   0  0  0  0  0  0  0  0  0  0  0  0
  -30.2896  -11.7625   -2.8327 C   0  0  0  0  0  0  0  0  0  0  0  0
  -30.8479  -11.1991   -3.9653 C   0  0  0  0  0  0  0  0  0  0  0  0
  -31.9757  -11.7343   -4.5468 C   0  0  0  0  0  0  0  0  0  0  0  0
  -32.5639  -12.8683   -4.0014 C   0  0  0  0  0  0  0  0  0  0  0  0
  -32.5248  -11.0366   -5.7710 C   0  0  0  0  0  0  0  0  0  0  0  0
  -31.5396  -10.4021   -6.4234 F   0  0  0  0  0  0  0  0  0  0  0  0
  -33.4882  -10.1761   -5.4141 F   0  0  0  0  0  0  0  0  0  0  0  0
  -33.0468  -11.9738   -6.5773 F   0  0  0  0  0  0  0  0  0  0  0  0
 25 30  2  0  0  0
 25 26  1  0  0  0
 30 29  1  0  0  0
 26 27  2  0  0  0
 29 28  2  0  0  0
 29 31  1  0  0  0
 27 28  1  0  0  0
 27  2  1  0  0  0
 32 31  1  0  0  0
  3  2  2  0  0  0
 18 17  1  0  0  0
 33 31  1  0  0  0
 31 34  1  0  0  0
  2  1  1  0  0  0
 17 19  2  0  0  0
 17 16  1  0  0  0
  1 16  1  0  0  0
  1  9  1  0  0  0
 19 20  1  0  0  0
 16 22  2  0  0  0
  9  8  2  0  0  0
  9 10  1  0  0  0
  8  7  1  0  0  0
 10 15  2  0  0  0
 10 11  1  0  0  0
 20 21  2  0  0  0
 15 14  1  0  0  0
 22 21  1  0  0  0
  4  5  1  0  0  0
  7 11  1  0  0  0
  7  5  1  0  0  0
 11 12  2  0  0  0
  5  6  2  0  0  0
 21 23  1  0  0  0
 14 13  2  0  0  0
 12 13  1  0  0  0
 23 24  1  0  0  0
M  END
> <minimizedAffinity>
-7.62730

$$$$
5E74_5KH_A_2001


 34 37  0  0  0  0  0  0  0  0999 V2000
  -30.4744   -9.8483   -0.2153 N   0  0  0  0  0  0  0  0  0  0  0  0
  -31.6675   -9.9742    0.5740 C   0  0  0  0  0  0  0  0  0  0  0  0
  -31.8295   -9.2983    1.5719 O   0  0  0  0  0  0  0  0  0  0  0  0
  -29.4350   -4.7259    0.7534 C   0  0  0  0  0  0  0  0  0  0  0  0
  -28.2877   -5.6878    0.9745 C   0  0  0  0  0  0  0  0  0  0  0  0
  -27.2260   -5.2782    1.3717 O   0  0  0  0  0  0  0  0  0  0  0  0
  -28.4794   -7.0653    0.7257 N   0  0  0  0  0  0  0  0  0  0  0  0
  -29.6294   -7.5701    0.3111 C   0  0  0  0  0  0  0  0  0  0  0  0
  -29.4688   -8.9400    0.1794 C   0  0  0  0  0  0  0  0  0  0  0  0
  -28.1210   -9.2580    0.5513 C   0  0  0  0  0  0  0  0  0  0  0  0
  -27.5345   -8.0562    0.8877 C   0  0  0  0  0  0  0  0  0  0  0  0
  -26.1750   -8.0249    1.3034 C   0  0  0  0  0  0  0  0  0  0  0  0
  -25.4396   -9.2045    1.3638 C   0  0  0  0  0  0  0  0  0  0  0  0
  -26.0376  -10.4217    1.0268 C   0  0  0  0  0  0  0  0  0  0  0  0
  -27.3697  -10.4579    0.6194 C   0  0  0  0  0  0  0  0  0  0  0  0
  -30.3407  -10.6411   -1.3718 C   0  0  0  0  0  0  0  0  0  0  0  0
  -30.7205  -10.1453   -2.6184 C   0  0  0  0  0  0  0  0  0  0  0  0
  -31.2375   -8.7182   -2.7906 C   0  0  0  0  0  0  0  0  0  0  0  0
  -30.6077  -10.9702   -3.7295 C   0  0  0  0  0  0  0  0  0  0  0  0
  -30.1426  -12.2706   -3.5962 C   0  0  0  0  0  0  0  0  0  0  0  0
  -29.7870  -12.7600   -2.3506 C   0  0  0  0  0  0  0  0  0  0  0  0
  -29.8877  -11.9461   -1.2382 C   0  0  0  0  0  0  0  0  0  0  0  0
  -29.3155  -14.0791   -2.2203 O   0  0  0  0  0  0  0  0  0  0  0  0
  -29.2480  -14.6293   -2.9758 H   0  0  0  0  0  0  0  0  0  0  0  0
  -34.6141  -11.5137   -1.2808 C   0  0  0  0  0  0  0  0  0  0  0  0
  -33.6378  -10.6083   -0.8852 C   0  0  0  0  0  0  0  0  0  0  0  0
  -32.7576  -10.9367    0.1398 C   0  0  0  0  0  0  0  0  0  0  0  0
  -32.8702  -12.1713    0.7524 C   0  0  0  0  0  0  0  0  0  0  0  0
  -33.8287  -13.0784    0.3589 C   0  0  0  0  0  0  0  0  0  0  0  0
  -34.7123  -12.7526   -0.6622 C   0  0  0  0  0  0  0  0  0  0  0  0
  -33.8610  -14.4104    1.0744 C   0  0  0  0  0  0  0  0  0  0  0  0
  -32.6838  -15.0382    0.9374 F   0  0  0  0  0  0  0  0  0  0  0  0
  -34.8593  -15.1643    0.5936 F   0  0  0  0  0  0  0  0  0  0  0  0
  -34.0769  -14.1708    2.3770 F   0  0  0  0  0  0  0  0  0  0  0  0
 25 30  2  0  0  0
 25 26  1  0  0  0
 30 29  1  0  0  0
 26 27  2  0  0  0
 29 28  2  0  0  0
 29 31  1  0  0  0
 27 28  1  0  0  0
 27  2  1  0  0  0
 32 31  1  0  0  0
  3  2  2  0  0  0
 18 17  1  0  0  0
 33 31  1  0  0  0
 31 34  1  0  0  0
  2  1  1  0  0  0
 17 19  2  0  0  0
 17 16  1  0  0  0
  1 16  1  0  0  0
  1  9  1  0  0  0
 19 20  1  0  0  0
 16 22  2  0  0  0
  9  8  2  0  0  0
  9 10  1  0  0  0
  8  7  1  0  0  0
 10 15  2  0  0  0
 10 11  1  0  0  0
 20 21  2  0  0  0
 15 14  1  0  0  0
 22 21  1  0  0  0
  4  5  1  0  0  0
  7 11  1  0  0  0
  7  5  1  0  0  0
 11 12  2  0  0  0
  5  6  2  0  0  0
 21 23  1  0  0  0
 14 13  2  0  0  0
 12 13  1  0  0  0
 23 24  1  0  0  0
M  END
> <minimizedAffinity>
-7.58605

$$$$
