5NN6_MIG_A_1013


 19 19  0  0  0  0  0  0  0  0999 V2000
  -11.3761  -31.9554   96.0152 O   0  0  0  0  0  0  0  0  0  0  0  0
  -13.2433  -30.3517   97.5650 O   0  0  0  0  0  0  0  0  0  0  0  0
  -15.9164  -31.2627   97.6080 O   0  0  0  0  0  0  0  0  0  0  0  0
  -13.2442  -32.9746   94.9115 C   0  0  0  0  0  0  0  0  0  0  0  0
  -12.7478  -31.7580   95.6618 C   0  0  0  0  0  0  0  0  0  0  0  0
  -13.6405  -31.5326   96.8753 C   0  0  0  0  0  0  0  0  0  0  0  0
  -15.0987  -31.4080   96.4562 C   0  0  0  0  0  0  0  0  0  0  0  0
  -15.5565  -32.6000   95.6018 C   0  0  0  0  0  0  0  0  0  0  0  0
  -14.6297  -32.7339   94.4621 N   0  0  0  0  0  0  0  0  0  0  0  0
  -10.8517  -32.0939   95.2110 H   0  0  0  0  0  0  0  0  0  0  0  0
  -12.3142  -30.4304   97.8323 H   0  0  0  0  0  0  0  0  0  0  0  0
  -15.6081  -30.5054   98.1300 H   0  0  0  0  0  0  0  0  0  0  0  0
  -17.2758  -31.0499   94.8166 O   0  0  0  0  0  0  0  0  0  0  0  0
  -16.9926  -32.4240   95.1117 C   0  0  0  0  0  0  0  0  0  0  0  0
  -18.1919  -30.9676   94.5084 H   0  0  0  0  0  0  0  0  0  0  0  0
  -15.0149  -33.7561   93.4563 C   0  0  0  0  0  0  0  0  0  0  0  0
  -13.8774  -35.7693   92.8520 O   0  0  0  0  0  0  0  0  0  0  0  0
  -14.6980  -35.1974   93.8716 C   0  0  0  0  0  0  0  0  0  0  0  0
  -13.6596  -36.6847   93.0877 H   0  0  0  0  0  0  0  0  0  0  0  0
 17 18  1  0  0  0
 13 14  1  0  0  0
  1  5  1  0  0  0
  2  6  1  0  0  0
  3  7  1  0  0  0
 18 16  1  0  0  0
 14  8  1  0  0  0
 16  9  1  0  0  0
  4  5  1  0  0  0
  4  9  1  0  0  0
  5  6  1  0  0  0
  6  7  1  0  0  0
  7  8  1  0  0  0
  8  9  1  0  0  0
 17 19  1  0  0  0
 13 15  1  0  0  0
  1 10  1  0  0  0
  2 11  1  0  0  0
  3 12  1  0  0  0
M  END
> <minimizedAffinity>
-7.04325

$$$$
5NN6_MIG_A_1013


 19 19  0  0  0  0  0  0  0  0999 V2000
  -13.2377  -30.6397   98.1913 O   0  0  0  0  0  0  0  0  0  0  0  0
  -11.1746  -31.7768   96.4851 O   0  0  0  0  0  0  0  0  0  0  0  0
  -12.0086  -32.5946   93.9136 O   0  0  0  0  0  0  0  0  0  0  0  0
  -14.8923  -31.6060   96.7507 C   0  0  0  0  0  0  0  0  0  0  0  0
  -13.4665  -31.6920   97.2501 C   0  0  0  0  0  0  0  0  0  0  0  0
  -12.5240  -31.6268   96.0553 C   0  0  0  0  0  0  0  0  0  0  0  0
  -12.8578  -32.7157   95.0453 C   0  0  0  0  0  0  0  0  0  0  0  0
  -14.3368  -32.6834   94.6308 C   0  0  0  0  0  0  0  0  0  0  0  0
  -15.1601  -32.7470   95.8530 N   0  0  0  0  0  0  0  0  0  0  0  0
  -13.8604  -30.7255   98.9300 H   0  0  0  0  0  0  0  0  0  0  0  0
  -10.9613  -31.0832   97.1288 H   0  0  0  0  0  0  0  0  0  0  0  0
  -11.0823  -32.6176   94.2005 H   0  0  0  0  0  0  0  0  0  0  0  0
  -13.7900  -34.9401   93.8667 O   0  0  0  0  0  0  0  0  0  0  0  0
  -14.6831  -33.8332   93.6865 C   0  0  0  0  0  0  0  0  0  0  0  0
  -14.0323  -35.6538   93.2561 H   0  0  0  0  0  0  0  0  0  0  0  0
  -16.6216  -32.8690   95.6201 C   0  0  0  0  0  0  0  0  0  0  0  0
  -17.4187  -30.9085   94.5094 O   0  0  0  0  0  0  0  0  0  0  0  0
  -17.3957  -31.5558   95.7825 C   0  0  0  0  0  0  0  0  0  0  0  0
  -17.9036  -30.0715   94.5809 H   0  0  0  0  0  0  0  0  0  0  0  0
 17 18  1  0  0  0
 13 14  1  0  0  0
  1  5  1  0  0  0
  2  6  1  0  0  0
  3  7  1  0  0  0
 18 16  1  0  0  0
 14  8  1  0  0  0
 16  9  1  0  0  0
  4  5  1  0  0  0
  4  9  1  0  0  0
  5  6  1  0  0  0
  6  7  1  0  0  0
  7  8  1  0  0  0
  8  9  1  0  0  0
 17 19  1  0  0  0
 13 15  1  0  0  0
  1 10  1  0  0  0
  2 11  1  0  0  0
  3 12  1  0  0  0
M  END
> <minimizedAffinity>
-5.93099

$$$$
5NN6_MIG_A_1013


 19 19  0  0  0  0  0  0  0  0999 V2000
  -13.9217  -35.2996   93.7770 O   0  0  0  0  0  0  0  0  0  0  0  0
  -16.7060  -34.4617   93.7039 O   0  0  0  0  0  0  0  0  0  0  0  0
  -17.2183  -31.8016   94.5029 O   0  0  0  0  0  0  0  0  0  0  0  0
  -13.4462  -33.4252   95.1938 C   0  0  0  0  0  0  0  0  0  0  0  0
  -14.5086  -34.3876   94.7093 C   0  0  0  0  0  0  0  0  0  0  0  0
  -15.6559  -33.5878   94.1059 C   0  0  0  0  0  0  0  0  0  0  0  0
  -16.1943  -32.5769   95.1087 C   0  0  0  0  0  0  0  0  0  0  0  0
  -15.0837  -31.6783   95.6739 C   0  0  0  0  0  0  0  0  0  0  0  0
  -14.0260  -32.5448   96.2273 N   0  0  0  0  0  0  0  0  0  0  0  0
  -13.1993  -35.7825   94.2081 H   0  0  0  0  0  0  0  0  0  0  0  0
  -16.3636  -35.1061   93.0649 H   0  0  0  0  0  0  0  0  0  0  0  0
  -17.9062  -32.3900   94.1545 H   0  0  0  0  0  0  0  0  0  0  0  0
  -16.7865  -31.2629   97.3778 O   0  0  0  0  0  0  0  0  0  0  0  0
  -15.6173  -30.7276   96.7439 C   0  0  0  0  0  0  0  0  0  0  0  0
  -17.1031  -30.6403   98.0509 H   0  0  0  0  0  0  0  0  0  0  0  0
  -12.9393  -31.8298   96.9435 C   0  0  0  0  0  0  0  0  0  0  0  0
  -10.5803  -31.5286   96.7061 O   0  0  0  0  0  0  0  0  0  0  0  0
  -11.8208  -31.3114   96.0323 C   0  0  0  0  0  0  0  0  0  0  0  0
   -9.8511  -31.2093   96.1518 H   0  0  0  0  0  0  0  0  0  0  0  0
 17 18  1  0  0  0
 13 14  1  0  0  0
  1  5  1  0  0  0
  2  6  1  0  0  0
  3  7  1  0  0  0
 18 16  1  0  0  0
 14  8  1  0  0  0
 16  9  1  0  0  0
  4  5  1  0  0  0
  4  9  1  0  0  0
  5  6  1  0  0  0
  6  7  1  0  0  0
  7  8  1  0  0  0
  8  9  1  0  0  0
 17 19  1  0  0  0
 13 15  1  0  0  0
  1 10  1  0  0  0
  2 11  1  0  0  0
  3 12  1  0  0  0
M  END
> <minimizedAffinity>
-5.62655

$$$$
5NN6_MIG_A_1013


 19 19  0  0  0  0  0  0  0  0999 V2000
  -16.4483  -35.2155   93.6947 O   0  0  0  0  0  0  0  0  0  0  0  0
  -13.5538  -34.9771   93.8528 O   0  0  0  0  0  0  0  0  0  0  0  0
  -12.5620  -33.2715   95.8738 O   0  0  0  0  0  0  0  0  0  0  0  0
  -16.6350  -33.2187   95.0079 C   0  0  0  0  0  0  0  0  0  0  0  0
  -15.7622  -34.0160   94.0635 C   0  0  0  0  0  0  0  0  0  0  0  0
  -14.4264  -34.2886   94.7429 C   0  0  0  0  0  0  0  0  0  0  0  0
  -13.7726  -32.9878   95.1879 C   0  0  0  0  0  0  0  0  0  0  0  0
  -14.7125  -32.1382   96.0568 C   0  0  0  0  0  0  0  0  0  0  0  0
  -15.9708  -31.9362   95.3141 N   0  0  0  0  0  0  0  0  0  0  0  0
  -17.2892  -34.9887   93.2677 H   0  0  0  0  0  0  0  0  0  0  0  0
  -13.9698  -35.8061   93.5689 H   0  0  0  0  0  0  0  0  0  0  0  0
  -11.9867  -33.8077   95.3060 H   0  0  0  0  0  0  0  0  0  0  0  0
  -13.2959  -30.9021   97.6190 O   0  0  0  0  0  0  0  0  0  0  0  0
  -14.0816  -30.7965   96.4245 C   0  0  0  0  0  0  0  0  0  0  0  0
  -12.9083  -30.0379   97.8285 H   0  0  0  0  0  0  0  0  0  0  0  0
  -16.9385  -31.0120   95.9578 C   0  0  0  0  0  0  0  0  0  0  0  0
  -17.7527  -30.2616   93.8397 O   0  0  0  0  0  0  0  0  0  0  0  0
  -17.2988  -29.7877   95.1084 C   0  0  0  0  0  0  0  0  0  0  0  0
  -17.9889  -29.5067   93.2782 H   0  0  0  0  0  0  0  0  0  0  0  0
 17 18  1  0  0  0
 13 14  1  0  0  0
  1  5  1  0  0  0
  2  6  1  0  0  0
  3  7  1  0  0  0
 18 16  1  0  0  0
 14  8  1  0  0  0
 16  9  1  0  0  0
  4  5  1  0  0  0
  4  9  1  0  0  0
  5  6  1  0  0  0
  6  7  1  0  0  0
  7  8  1  0  0  0
  8  9  1  0  0  0
 17 19  1  0  0  0
 13 15  1  0  0  0
  1 10  1  0  0  0
  2 11  1  0  0  0
  3 12  1  0  0  0
M  END
> <minimizedAffinity>
-5.46394

$$$$
5NN6_MIG_A_1013


 19 19  0  0  0  0  0  0  0  0999 V2000
  -17.8735  -37.3549   94.3568 O   0  0  0  0  0  0  0  0  0  0  0  0
  -15.7886  -37.4093   92.3295 O   0  0  0  0  0  0  0  0  0  0  0  0
  -13.4150  -36.0139   92.9589 O   0  0  0  0  0  0  0  0  0  0  0  0
  -16.7656  -35.4891   95.3756 C   0  0  0  0  0  0  0  0  0  0  0  0
  -16.9806  -36.2684   94.0965 C   0  0  0  0  0  0  0  0  0  0  0  0
  -15.6280  -36.7324   93.5721 C   0  0  0  0  0  0  0  0  0  0  0  0
  -14.6872  -35.5500   93.3868 C   0  0  0  0  0  0  0  0  0  0  0  0
  -14.5650  -34.7052   94.6641 C   0  0  0  0  0  0  0  0  0  0  0  0
  -15.9218  -34.3122   95.0890 N   0  0  0  0  0  0  0  0  0  0  0  0
  -18.7170  -37.0082   94.6874 H   0  0  0  0  0  0  0  0  0  0  0  0
  -16.3879  -38.1628   92.4469 H   0  0  0  0  0  0  0  0  0  0  0  0
  -13.5183  -36.5434   92.1528 H   0  0  0  0  0  0  0  0  0  0  0  0
  -14.2040  -32.6541   93.3841 O   0  0  0  0  0  0  0  0  0  0  0  0
  -13.6903  -33.4724   94.4434 C   0  0  0  0  0  0  0  0  0  0  0  0
  -13.6308  -31.8806   93.2660 H   0  0  0  0  0  0  0  0  0  0  0  0
  -15.9724  -33.3684   96.2344 C   0  0  0  0  0  0  0  0  0  0  0  0
  -16.8326  -31.8746   94.5789 O   0  0  0  0  0  0  0  0  0  0  0  0
  -16.8314  -32.1233   95.9854 C   0  0  0  0  0  0  0  0  0  0  0  0
  -17.3701  -31.0896   94.3898 H   0  0  0  0  0  0  0  0  0  0  0  0
 17 18  1  0  0  0
 13 14  1  0  0  0
  1  5  1  0  0  0
  2  6  1  0  0  0
  3  7  1  0  0  0
 18 16  1  0  0  0
 14  8  1  0  0  0
 16  9  1  0  0  0
  4  5  1  0  0  0
  4  9  1  0  0  0
  5  6  1  0  0  0
  6  7  1  0  0  0
  7  8  1  0  0  0
  8  9  1  0  0  0
 17 19  1  0  0  0
 13 15  1  0  0  0
  1 10  1  0  0  0
  2 11  1  0  0  0
  3 12  1  0  0  0
M  END
> <minimizedAffinity>
-5.43584

$$$$
5NN6_MIG_A_1013


 19 19  0  0  0  0  0  0  0  0999 V2000
  -14.3158  -32.9015   96.7524 O   0  0  0  0  0  0  0  0  0  0  0  0
  -13.9705  -32.6597   93.8745 O   0  0  0  0  0  0  0  0  0  0  0  0
  -15.0376  -34.7624   92.3199 O   0  0  0  0  0  0  0  0  0  0  0  0
  -14.7877  -35.2323   96.4501 C   0  0  0  0  0  0  0  0  0  0  0  0
  -14.1046  -34.0109   95.8748 C   0  0  0  0  0  0  0  0  0  0  0  0
  -14.6451  -33.7620   94.4726 C   0  0  0  0  0  0  0  0  0  0  0  0
  -14.4697  -34.9970   93.6001 C   0  0  0  0  0  0  0  0  0  0  0  0
  -15.0732  -36.2517   94.2494 C   0  0  0  0  0  0  0  0  0  0  0  0
  -14.4909  -36.3997   95.5966 N   0  0  0  0  0  0  0  0  0  0  0  0
  -13.9554  -33.1093   97.6286 H   0  0  0  0  0  0  0  0  0  0  0  0
  -14.0818  -31.8723   94.4300 H   0  0  0  0  0  0  0  0  0  0  0  0
  -14.6414  -33.9669   91.9312 H   0  0  0  0  0  0  0  0  0  0  0  0
  -13.4355  -37.5958   93.0301 O   0  0  0  0  0  0  0  0  0  0  0  0
  -14.8148  -37.5013   93.4095 C   0  0  0  0  0  0  0  0  0  0  0  0
  -13.3004  -38.3962   92.4992 H   0  0  0  0  0  0  0  0  0  0  0  0
  -14.8639  -37.6486   96.3082 C   0  0  0  0  0  0  0  0  0  0  0  0
  -12.6356  -38.4327   95.9449 O   0  0  0  0  0  0  0  0  0  0  0  0
  -13.6774  -38.4009   96.9216 C   0  0  0  0  0  0  0  0  0  0  0  0
  -11.8685  -38.9042   96.3057 H   0  0  0  0  0  0  0  0  0  0  0  0
 17 18  1  0  0  0
 13 14  1  0  0  0
  1  5  1  0  0  0
  2  6  1  0  0  0
  3  7  1  0  0  0
 18 16  1  0  0  0
 14  8  1  0  0  0
 16  9  1  0  0  0
  4  5  1  0  0  0
  4  9  1  0  0  0
  5  6  1  0  0  0
  6  7  1  0  0  0
  7  8  1  0  0  0
  8  9  1  0  0  0
 17 19  1  0  0  0
 13 15  1  0  0  0
  1 10  1  0  0  0
  2 11  1  0  0  0
  3 12  1  0  0  0
M  END
> <minimizedAffinity>
-5.42158

$$$$
5NN6_MIG_A_1013


 19 19  0  0  0  0  0  0  0  0999 V2000
  -13.5942  -36.4633   96.4995 O   0  0  0  0  0  0  0  0  0  0  0  0
  -16.1509  -36.6904   95.1314 O   0  0  0  0  0  0  0  0  0  0  0  0
  -17.1823  -34.3015   94.0330 O   0  0  0  0  0  0  0  0  0  0  0  0
  -13.9249  -34.0920   96.6190 C   0  0  0  0  0  0  0  0  0  0  0  0
  -14.5962  -35.4427   96.4993 C   0  0  0  0  0  0  0  0  0  0  0  0
  -15.4483  -35.4563   95.2368 C   0  0  0  0  0  0  0  0  0  0  0  0
  -16.4448  -34.3055   95.2465 C   0  0  0  0  0  0  0  0  0  0  0  0
  -15.7583  -32.9508   95.4789 C   0  0  0  0  0  0  0  0  0  0  0  0
  -14.9603  -33.0441   96.7159 N   0  0  0  0  0  0  0  0  0  0  0  0
  -13.0810  -36.4124   97.3210 H   0  0  0  0  0  0  0  0  0  0  0  0
  -15.5165  -37.4242   95.1251 H   0  0  0  0  0  0  0  0  0  0  0  0
  -17.6054  -35.1655   93.9090 H   0  0  0  0  0  0  0  0  0  0  0  0
  -17.1315  -31.3246   94.2767 O   0  0  0  0  0  0  0  0  0  0  0  0
  -16.7734  -31.8135   95.5760 C   0  0  0  0  0  0  0  0  0  0  0  0
  -17.7755  -30.6050   94.3682 H   0  0  0  0  0  0  0  0  0  0  0  0
  -14.3429  -31.7695   97.1624 C   0  0  0  0  0  0  0  0  0  0  0  0
  -12.0719  -31.0323   97.0545 O   0  0  0  0  0  0  0  0  0  0  0  0
  -13.2272  -31.2561   96.2449 C   0  0  0  0  0  0  0  0  0  0  0  0
  -11.3465  -30.7058   96.4996 H   0  0  0  0  0  0  0  0  0  0  0  0
 17 18  1  0  0  0
 13 14  1  0  0  0
  1  5  1  0  0  0
  2  6  1  0  0  0
  3  7  1  0  0  0
 18 16  1  0  0  0
 14  8  1  0  0  0
 16  9  1  0  0  0
  4  5  1  0  0  0
  4  9  1  0  0  0
  5  6  1  0  0  0
  6  7  1  0  0  0
  7  8  1  0  0  0
  8  9  1  0  0  0
 17 19  1  0  0  0
 13 15  1  0  0  0
  1 10  1  0  0  0
  2 11  1  0  0  0
  3 12  1  0  0  0
M  END
> <minimizedAffinity>
-5.38686

$$$$
5NN6_MIG_A_1013


 19 19  0  0  0  0  0  0  0  0999 V2000
  -15.1241  -34.5865   91.9654 O   0  0  0  0  0  0  0  0  0  0  0  0
  -14.9127  -37.4407   92.4839 O   0  0  0  0  0  0  0  0  0  0  0  0
  -15.3670  -38.2499   95.1515 O   0  0  0  0  0  0  0  0  0  0  0  0
  -14.9208  -34.1935   94.3214 C   0  0  0  0  0  0  0  0  0  0  0  0
  -14.6225  -35.1446   93.1829 C   0  0  0  0  0  0  0  0  0  0  0  0
  -15.2362  -36.5012   93.5040 C   0  0  0  0  0  0  0  0  0  0  0  0
  -14.7332  -37.0166   94.8452 C   0  0  0  0  0  0  0  0  0  0  0  0
  -14.9444  -35.9935   95.9717 C   0  0  0  0  0  0  0  0  0  0  0  0
  -14.3202  -34.7212   95.5625 N   0  0  0  0  0  0  0  0  0  0  0  0
  -14.7041  -33.7267   91.8066 H   0  0  0  0  0  0  0  0  0  0  0  0
  -15.2330  -37.1129   91.6290 H   0  0  0  0  0  0  0  0  0  0  0  0
  -15.2196  -38.8778   94.4270 H   0  0  0  0  0  0  0  0  0  0  0  0
  -13.2181  -37.3250   97.0773 O   0  0  0  0  0  0  0  0  0  0  0  0
  -14.3571  -36.4819   97.2946 C   0  0  0  0  0  0  0  0  0  0  0  0
  -12.8664  -37.6199   97.9318 H   0  0  0  0  0  0  0  0  0  0  0  0
  -14.3110  -33.6628   96.6041 C   0  0  0  0  0  0  0  0  0  0  0  0
  -12.3098  -32.4901   96.0276 O   0  0  0  0  0  0  0  0  0  0  0  0
  -13.7245  -32.3258   96.1364 C   0  0  0  0  0  0  0  0  0  0  0  0
  -11.9094  -31.6573   95.7324 H   0  0  0  0  0  0  0  0  0  0  0  0
 17 18  1  0  0  0
 13 14  1  0  0  0
  1  5  1  0  0  0
  2  6  1  0  0  0
  3  7  1  0  0  0
 18 16  1  0  0  0
 14  8  1  0  0  0
 16  9  1  0  0  0
  4  5  1  0  0  0
  4  9  1  0  0  0
  5  6  1  0  0  0
  6  7  1  0  0  0
  7  8  1  0  0  0
  8  9  1  0  0  0
 17 19  1  0  0  0
 13 15  1  0  0  0
  1 10  1  0  0  0
  2 11  1  0  0  0
  3 12  1  0  0  0
M  END
> <minimizedAffinity>
-5.17195

$$$$
5NN6_MIG_A_1013


 19 19  0  0  0  0  0  0  0  0999 V2000
  -14.0527  -37.3705   97.7510 O   0  0  0  0  0  0  0  0  0  0  0  0
  -14.9443  -38.6067   95.2738 O   0  0  0  0  0  0  0  0  0  0  0  0
  -14.7655  -37.0018   92.9566 O   0  0  0  0  0  0  0  0  0  0  0  0
  -14.2213  -35.2296   96.6856 C   0  0  0  0  0  0  0  0  0  0  0  0
  -14.7043  -36.6636   96.6922 C   0  0  0  0  0  0  0  0  0  0  0  0
  -14.4363  -37.2773   95.3241 C   0  0  0  0  0  0  0  0  0  0  0  0
  -15.0825  -36.4463   94.2244 C   0  0  0  0  0  0  0  0  0  0  0  0
  -14.6668  -34.9692   94.2987 C   0  0  0  0  0  0  0  0  0  0  0  0
  -14.9626  -34.4742   95.6564 N   0  0  0  0  0  0  0  0  0  0  0  0
  -14.2540  -36.9420   98.5977 H   0  0  0  0  0  0  0  0  0  0  0  0
  -14.5328  -39.1368   95.9742 H   0  0  0  0  0  0  0  0  0  0  0  0
  -15.0370  -37.9328   92.9345 H   0  0  0  0  0  0  0  0  0  0  0  0
  -15.0069  -34.5134   91.9213 O   0  0  0  0  0  0  0  0  0  0  0  0
  -15.3881  -34.1268   93.2481 C   0  0  0  0  0  0  0  0  0  0  0  0
  -15.4787  -33.9637   91.2762 H   0  0  0  0  0  0  0  0  0  0  0  0
  -14.7505  -33.0178   95.8539 C   0  0  0  0  0  0  0  0  0  0  0  0
  -13.0166  -31.7990   94.7491 O   0  0  0  0  0  0  0  0  0  0  0  0
  -13.2768  -32.5984   95.9039 C   0  0  0  0  0  0  0  0  0  0  0  0
  -12.0883  -31.5176   94.7531 H   0  0  0  0  0  0  0  0  0  0  0  0
 17 18  1  0  0  0
 13 14  1  0  0  0
  1  5  1  0  0  0
  2  6  1  0  0  0
  3  7  1  0  0  0
 18 16  1  0  0  0
 14  8  1  0  0  0
 16  9  1  0  0  0
  4  5  1  0  0  0
  4  9  1  0  0  0
  5  6  1  0  0  0
  6  7  1  0  0  0
  7  8  1  0  0  0
  8  9  1  0  0  0
 17 19  1  0  0  0
 13 15  1  0  0  0
  1 10  1  0  0  0
  2 11  1  0  0  0
  3 12  1  0  0  0
M  END
> <minimizedAffinity>
-5.04880

$$$$
5NN6_MIG_A_1013


 19 19  0  0  0  0  0  0  0  0999 V2000
  -16.3524  -30.8515   97.9518 O   0  0  0  0  0  0  0  0  0  0  0  0
  -17.8961  -31.8790   95.7110 O   0  0  0  0  0  0  0  0  0  0  0  0
  -16.6810  -33.9441   94.2156 O   0  0  0  0  0  0  0  0  0  0  0  0
  -14.3945  -31.8542   96.9989 C   0  0  0  0  0  0  0  0  0  0  0  0
  -15.7771  -31.3045   96.7233 C   0  0  0  0  0  0  0  0  0  0  0  0
  -16.6095  -32.3873   96.0488 C   0  0  0  0  0  0  0  0  0  0  0  0
  -15.9183  -32.8931   94.7903 C   0  0  0  0  0  0  0  0  0  0  0  0
  -14.4765  -33.3457   95.0670 C   0  0  0  0  0  0  0  0  0  0  0  0
  -13.7611  -32.2336   95.7205 N   0  0  0  0  0  0  0  0  0  0  0  0
  -15.7870  -30.1656   98.3401 H   0  0  0  0  0  0  0  0  0  0  0  0
  -18.3371  -31.5566   96.5125 H   0  0  0  0  0  0  0  0  0  0  0  0
  -17.5854  -33.6344   94.0506 H   0  0  0  0  0  0  0  0  0  0  0  0
  -13.9821  -35.1553   93.4997 O   0  0  0  0  0  0  0  0  0  0  0  0
  -13.7619  -33.7676   93.7845 C   0  0  0  0  0  0  0  0  0  0  0  0
  -13.5182  -35.3953   92.6823 H   0  0  0  0  0  0  0  0  0  0  0  0
  -12.3079  -32.4578   95.9285 C   0  0  0  0  0  0  0  0  0  0  0  0
  -10.2693  -31.6891   96.9110 O   0  0  0  0  0  0  0  0  0  0  0  0
  -11.5580  -31.2427   96.4863 C   0  0  0  0  0  0  0  0  0  0  0  0
   -9.7695  -30.9393   97.2701 H   0  0  0  0  0  0  0  0  0  0  0  0
 17 18  1  0  0  0
 13 14  1  0  0  0
  1  5  1  0  0  0
  2  6  1  0  0  0
  3  7  1  0  0  0
 18 16  1  0  0  0
 14  8  1  0  0  0
 16  9  1  0  0  0
  4  5  1  0  0  0
  4  9  1  0  0  0
  5  6  1  0  0  0
  6  7  1  0  0  0
  7  8  1  0  0  0
  8  9  1  0  0  0
 17 19  1  0  0  0
 13 15  1  0  0  0
  1 10  1  0  0  0
  2 11  1  0  0  0
  3 12  1  0  0  0
M  END
> <minimizedAffinity>
-4.68057

$$$$
