3MHC_ARZ_A_263


 25 28  0  0  0  0  0  0  0  0999 V2000
   -6.4803    5.7451   13.8296 O   0  0  0  0  0  0  0  0  0  0  0  0
   -4.1863    4.9619   13.7041 N   0  0  0  0  0  0  0  0  0  0  0  0
   -5.3728    5.7689   13.4178 C   0  0  0  0  0  0  0  0  0  0  0  0
   -3.2618    5.0648   13.3817 H   0  0  0  0  0  0  0  0  0  0  0  0
   -4.1884    7.8201    9.8015 C   0  0  0  0  0  0  0  0  0  0  0  0
   -6.5848    7.6600    9.4500 C   0  0  0  0  0  0  0  0  0  0  0  0
   -5.6205    9.1178   10.9194 C   0  0  0  0  0  0  0  0  0  0  0  0
   -5.0575    6.1404   10.7188 C   0  0  0  0  0  0  0  0  0  0  0  0
   -4.0983    7.4471   12.0905 C   0  0  0  0  0  0  0  0  0  0  0  0
   -6.6211    7.4109   11.9659 C   0  0  0  0  0  0  0  0  0  0  0  0
   -5.2796    6.8542    9.4610 C   0  0  0  0  0  0  0  0  0  0  0  0
   -4.3142    8.5422   11.1155 C   0  0  0  0  0  0  0  0  0  0  0  0
   -6.8051    8.3611   10.8219 C   0  0  0  0  0  0  0  0  0  0  0  0
   -5.3455    6.6439   12.0286 C   0  0  0  0  0  0  0  0  0  0  0  0
   -3.6151    3.3395   15.0263 N   0  0  0  0  0  0  0  0  0  0  0  0
   -3.8181    2.2642   15.9915 N   0  0  0  0  0  0  0  0  0  0  0  0
   -5.9369    3.3454   15.2719 S   0  0  0  0  0  0  0  0  0  0  0  0
   -4.7205    4.0252   14.5444 C   0  0  0  0  0  0  0  0  0  0  0  0
   -5.1626    2.2159   16.1798 C   0  0  0  0  0  0  0  0  0  0  0  0
   -7.3451    0.9527   16.9460 N   0  0  0  0  0  0  0  0  0  0  0  0
   -5.3534   -0.2325   16.3740 O   0  0  0  0  0  0  0  0  0  0  0  0
   -5.4362    1.1062   18.4118 O   0  0  0  0  0  0  0  0  0  0  0  0
   -5.9401    0.9440   17.1417 S   0  0  0  0  0  0  0  0  0  0  0  0
   -7.7711    0.2151   17.5072 H   0  0  0  0  0  0  0  0  0  0  0  0
   -7.5521    0.7925   15.9602 H   0  0  0  0  0  0  0  0  0  0  0  0
 20 23  1  0  0  0
  3  1  2  0  0  0
 23 21  2  0  0  0
 22 23  2  0  0  0
 11  5  1  0  0  0
  5 12  1  0  0  0
  6 11  1  0  0  0
  6 13  1  0  0  0
 13  7  1  0  0  0
  7 12  1  0  0  0
 11  8  1  0  0  0
  8 14  1  0  0  0
 12  9  1  0  0  0
 14  9  1  0  0  0
 13 10  1  0  0  0
 10 14  1  0  0  0
 18 15  2  0  0  0
 15 16  1  0  0  0
 16 19  2  0  0  0
  3  2  1  0  0  0
  2 18  1  0  0  0
 18 17  1  0  0  0
 17 19  1  0  0  0
 14  3  1  0  0  0
 19 23  1  0  0  0
 20 24  1  0  0  0
 20 25  1  0  0  0
  2  4  1  0  0  0
M  END
> <minimizedAffinity>
-8.71628

$$$$
3MHC_ARZ_A_263


 25 28  0  0  0  0  0  0  0  0999 V2000
   -6.4954    5.7942   13.8381 O   0  0  0  0  0  0  0  0  0  0  0  0
   -4.1928    5.0362   13.7180 N   0  0  0  0  0  0  0  0  0  0  0  0
   -5.3867    5.8316   13.4306 C   0  0  0  0  0  0  0  0  0  0  0  0
   -3.2682    5.1504   13.3997 H   0  0  0  0  0  0  0  0  0  0  0  0
   -5.8684    8.9140   10.4383 C   0  0  0  0  0  0  0  0  0  0  0  0
   -4.1249    7.5739    9.4106 C   0  0  0  0  0  0  0  0  0  0  0  0
   -6.3159    6.9372    9.5021 C   0  0  0  0  0  0  0  0  0  0  0  0
   -4.6395    7.9306   11.8312 C   0  0  0  0  0  0  0  0  0  0  0  0
   -6.6860    7.3846   11.9806 C   0  0  0  0  0  0  0  0  0  0  0  0
   -5.0444    5.7761   10.9322 C   0  0  0  0  0  0  0  0  0  0  0  0
   -4.4143    8.5743   10.5368 C   0  0  0  0  0  0  0  0  0  0  0  0
   -6.8369    7.7688   10.5572 C   0  0  0  0  0  0  0  0  0  0  0  0
   -5.0467    6.3264    9.5384 C   0  0  0  0  0  0  0  0  0  0  0  0
   -5.3634    6.7132   12.0455 C   0  0  0  0  0  0  0  0  0  0  0  0
   -3.6097    3.4095   15.0297 N   0  0  0  0  0  0  0  0  0  0  0  0
   -3.8049    2.3264   15.9879 N   0  0  0  0  0  0  0  0  0  0  0  0
   -5.9315    3.3964   15.2748 S   0  0  0  0  0  0  0  0  0  0  0  0
   -4.7201    4.0900   14.5520 C   0  0  0  0  0  0  0  0  0  0  0  0
   -5.1490    2.2669   16.1755 C   0  0  0  0  0  0  0  0  0  0  0  0
   -7.3250    1.0007   16.9553 N   0  0  0  0  0  0  0  0  0  0  0  0
   -5.3477   -0.1836   16.3335 O   0  0  0  0  0  0  0  0  0  0  0  0
   -5.3930    1.1226   18.3935 O   0  0  0  0  0  0  0  0  0  0  0  0
   -5.9172    0.9829   17.1289 S   0  0  0  0  0  0  0  0  0  0  0  0
   -7.7455    0.2560   17.5111 H   0  0  0  0  0  0  0  0  0  0  0  0
   -7.5480    0.8572   15.9704 H   0  0  0  0  0  0  0  0  0  0  0  0
 20 23  1  0  0  0
  3  1  2  0  0  0
 23 21  2  0  0  0
 22 23  2  0  0  0
 11  5  1  0  0  0
  5 12  1  0  0  0
  6 11  1  0  0  0
  6 13  1  0  0  0
 13  7  1  0  0  0
  7 12  1  0  0  0
 11  8  1  0  0  0
  8 14  1  0  0  0
 12  9  1  0  0  0
 14  9  1  0  0  0
 13 10  1  0  0  0
 10 14  1  0  0  0
 18 15  2  0  0  0
 15 16  1  0  0  0
 16 19  2  0  0  0
  3  2  1  0  0  0
  2 18  1  0  0  0
 18 17  1  0  0  0
 17 19  1  0  0  0
 14  3  1  0  0  0
 19 23  1  0  0  0
 20 24  1  0  0  0
 20 25  1  0  0  0
  2  4  1  0  0  0
M  END
> <minimizedAffinity>
-8.47013

$$$$
3MHC_ARZ_A_263


 25 28  0  0  0  0  0  0  0  0999 V2000
   -6.0339    5.9720   13.1052 O   0  0  0  0  0  0  0  0  0  0  0  0
   -3.7347    5.6402   12.4016 N   0  0  0  0  0  0  0  0  0  0  0  0
   -5.0711    6.2318   12.4710 C   0  0  0  0  0  0  0  0  0  0  0  0
   -2.9396    5.9369   11.9025 H   0  0  0  0  0  0  0  0  0  0  0  0
   -6.6401    9.4252   10.0158 C   0  0  0  0  0  0  0  0  0  0  0  0
   -5.1242    8.3670    8.4428 C   0  0  0  0  0  0  0  0  0  0  0  0
   -7.1368    7.4749    9.0495 C   0  0  0  0  0  0  0  0  0  0  0  0
   -4.9905    8.5031   10.9358 C   0  0  0  0  0  0  0  0  0  0  0  0
   -6.8575    7.7139   11.5684 C   0  0  0  0  0  0  0  0  0  0  0  0
   -5.4195    6.3792    9.9771 C   0  0  0  0  0  0  0  0  0  0  0  0
   -5.1888    9.2516    9.6943 C   0  0  0  0  0  0  0  0  0  0  0  0
   -7.4266    8.1697   10.2780 C   0  0  0  0  0  0  0  0  0  0  0  0
   -5.8538    7.0150    8.6916 C   0  0  0  0  0  0  0  0  0  0  0  0
   -5.5100    7.1983   11.2182 C   0  0  0  0  0  0  0  0  0  0  0  0
   -4.4110    3.5789   12.3877 N   0  0  0  0  0  0  0  0  0  0  0  0
   -4.6860    2.2562   12.9391 N   0  0  0  0  0  0  0  0  0  0  0  0
   -3.7760    3.8459   14.6186 S   0  0  0  0  0  0  0  0  0  0  0  0
   -3.8988    4.5603   13.2237 C   0  0  0  0  0  0  0  0  0  0  0  0
   -4.3338    2.3456   14.2481 C   0  0  0  0  0  0  0  0  0  0  0  0
   -3.7173    1.0810   16.4767 N   0  0  0  0  0  0  0  0  0  0  0  0
   -5.9832    1.5675   15.9043 O   0  0  0  0  0  0  0  0  0  0  0  0
   -4.7332   -0.0996   14.6354 O   0  0  0  0  0  0  0  0  0  0  0  0
   -4.6461    1.0376   15.4053 S   0  0  0  0  0  0  0  0  0  0  0  0
   -3.9147    0.3219   17.1288 H   0  0  0  0  0  0  0  0  0  0  0  0
   -3.7984    1.9750   16.9610 H   0  0  0  0  0  0  0  0  0  0  0  0
 20 23  1  0  0  0
  3  1  2  0  0  0
 23 21  2  0  0  0
 22 23  2  0  0  0
 11  5  1  0  0  0
  5 12  1  0  0  0
  6 11  1  0  0  0
  6 13  1  0  0  0
 13  7  1  0  0  0
  7 12  1  0  0  0
 11  8  1  0  0  0
  8 14  1  0  0  0
 12  9  1  0  0  0
 14  9  1  0  0  0
 13 10  1  0  0  0
 10 14  1  0  0  0
 18 15  2  0  0  0
 15 16  1  0  0  0
 16 19  2  0  0  0
  3  2  1  0  0  0
  2 18  1  0  0  0
 18 17  1  0  0  0
 17 19  1  0  0  0
 14  3  1  0  0  0
 19 23  1  0  0  0
 20 24  1  0  0  0
 20 25  1  0  0  0
  2  4  1  0  0  0
M  END
> <minimizedAffinity>
-7.92363

$$$$
3MHC_ARZ_A_263


 25 28  0  0  0  0  0  0  0  0999 V2000
   -2.3321    4.3915   14.6933 O   0  0  0  0  0  0  0  0  0  0  0  0
   -4.3231    4.7063   13.3411 N   0  0  0  0  0  0  0  0  0  0  0  0
   -2.9667    4.9187   13.8471 C   0  0  0  0  0  0  0  0  0  0  0  0
   -4.7862    5.1306   12.5830 H   0  0  0  0  0  0  0  0  0  0  0  0
   -2.1821    9.0950   13.0531 C   0  0  0  0  0  0  0  0  0  0  0  0
    0.0750    8.2910   13.4420 C   0  0  0  0  0  0  0  0  0  0  0  0
   -1.1034    7.8666   11.5326 C   0  0  0  0  0  0  0  0  0  0  0  0
   -2.0919    7.4637   14.3756 C   0  0  0  0  0  0  0  0  0  0  0  0
   -3.2551    7.0787   12.6414 C   0  0  0  0  0  0  0  0  0  0  0  0
   -0.9527    6.0594   12.8446 C   0  0  0  0  0  0  0  0  0  0  0  0
   -1.2512    8.6360   14.1313 C   0  0  0  0  0  0  0  0  0  0  0  0
   -2.4613    8.1178   11.9437 C   0  0  0  0  0  0  0  0  0  0  0  0
   -0.1470    7.2168   12.3378 C   0  0  0  0  0  0  0  0  0  0  0  0
   -2.2658    6.3579   13.4817 C   0  0  0  0  0  0  0  0  0  0  0  0
   -5.7143    4.4189   14.9808 N   0  0  0  0  0  0  0  0  0  0  0  0
   -6.4272    3.6808   16.0181 N   0  0  0  0  0  0  0  0  0  0  0  0
   -4.7841    2.2869   14.7798 S   0  0  0  0  0  0  0  0  0  0  0  0
   -4.7675    3.7540   14.2155 C   0  0  0  0  0  0  0  0  0  0  0  0
   -5.9273    2.4193   15.9525 C   0  0  0  0  0  0  0  0  0  0  0  0
   -5.4547    0.0717   17.0530 N   0  0  0  0  0  0  0  0  0  0  0  0
   -5.9971    1.9833   18.3761 O   0  0  0  0  0  0  0  0  0  0  0  0
   -7.6967    0.9554   16.9595 O   0  0  0  0  0  0  0  0  0  0  0  0
   -6.3492    1.1694   17.1387 S   0  0  0  0  0  0  0  0  0  0  0  0
   -5.7152   -0.6337   17.7423 H   0  0  0  0  0  0  0  0  0  0  0  0
   -4.5042    0.3925   17.2373 H   0  0  0  0  0  0  0  0  0  0  0  0
 20 23  1  0  0  0
  3  1  2  0  0  0
 23 21  2  0  0  0
 22 23  2  0  0  0
 11  5  1  0  0  0
  5 12  1  0  0  0
  6 11  1  0  0  0
  6 13  1  0  0  0
 13  7  1  0  0  0
  7 12  1  0  0  0
 11  8  1  0  0  0
  8 14  1  0  0  0
 12  9  1  0  0  0
 14  9  1  0  0  0
 13 10  1  0  0  0
 10 14  1  0  0  0
 18 15  2  0  0  0
 15 16  1  0  0  0
 16 19  2  0  0  0
  3  2  1  0  0  0
  2 18  1  0  0  0
 18 17  1  0  0  0
 17 19  1  0  0  0
 14  3  1  0  0  0
 19 23  1  0  0  0
 20 24  1  0  0  0
 20 25  1  0  0  0
  2  4  1  0  0  0
M  END
> <minimizedAffinity>
-7.88763

$$$$
3MHC_ARZ_A_263


 25 28  0  0  0  0  0  0  0  0999 V2000
   -4.1105    5.9665   14.7726 O   0  0  0  0  0  0  0  0  0  0  0  0
   -3.8388    4.0504   13.3075 N   0  0  0  0  0  0  0  0  0  0  0  0
   -3.7730    5.4365   13.7716 C   0  0  0  0  0  0  0  0  0  0  0  0
   -3.4803    3.6436   12.4858 H   0  0  0  0  0  0  0  0  0  0  0  0
   -3.6705    7.6820   10.0791 C   0  0  0  0  0  0  0  0  0  0  0  0
   -3.2854    9.4609   11.6850 C   0  0  0  0  0  0  0  0  0  0  0  0
   -1.7041    7.9171   11.1099 C   0  0  0  0  0  0  0  0  0  0  0  0
   -4.5625    7.3277   11.9490 C   0  0  0  0  0  0  0  0  0  0  0  0
   -3.1506    5.8418   11.3945 C   0  0  0  0  0  0  0  0  0  0  0  0
   -2.5346    7.5456   13.1549 C   0  0  0  0  0  0  0  0  0  0  0  0
   -4.3518    8.5144   11.1195 C   0  0  0  0  0  0  0  0  0  0  0  0
   -2.4972    6.8591   10.5373 C   0  0  0  0  0  0  0  0  0  0  0  0
   -2.0823    8.6520   12.2511 C   0  0  0  0  0  0  0  0  0  0  0  0
   -3.5389    6.5838   12.6205 C   0  0  0  0  0  0  0  0  0  0  0  0
   -3.5712    2.7888   15.0521 N   0  0  0  0  0  0  0  0  0  0  0  0
   -3.9686    2.0681   16.2570 N   0  0  0  0  0  0  0  0  0  0  0  0
   -5.8632    3.2250   15.1396 S   0  0  0  0  0  0  0  0  0  0  0  0
   -4.5373    3.4782   14.3340 C   0  0  0  0  0  0  0  0  0  0  0  0
   -5.3054    2.2844   16.3659 C   0  0  0  0  0  0  0  0  0  0  0  0
   -7.5595    1.0974   17.0411 N   0  0  0  0  0  0  0  0  0  0  0  0
   -5.4402    0.2162   17.6975 O   0  0  0  0  0  0  0  0  0  0  0  0
   -6.2599    2.2911   18.6847 O   0  0  0  0  0  0  0  0  0  0  0  0
   -6.3020    1.4661   17.5843 S   0  0  0  0  0  0  0  0  0  0  0  0
   -8.1151    0.6294   17.7571 H   0  0  0  0  0  0  0  0  0  0  0  0
   -7.4174    0.4648   16.2536 H   0  0  0  0  0  0  0  0  0  0  0  0
 20 23  1  0  0  0
  3  1  2  0  0  0
 23 21  2  0  0  0
 22 23  2  0  0  0
 11  5  1  0  0  0
  5 12  1  0  0  0
  6 11  1  0  0  0
  6 13  1  0  0  0
 13  7  1  0  0  0
  7 12  1  0  0  0
 11  8  1  0  0  0
  8 14  1  0  0  0
 12  9  1  0  0  0
 14  9  1  0  0  0
 13 10  1  0  0  0
 10 14  1  0  0  0
 18 15  2  0  0  0
 15 16  1  0  0  0
 16 19  2  0  0  0
  3  2  1  0  0  0
  2 18  1  0  0  0
 18 17  1  0  0  0
 17 19  1  0  0  0
 14  3  1  0  0  0
 19 23  1  0  0  0
 20 24  1  0  0  0
 20 25  1  0  0  0
  2  4  1  0  0  0
M  END
> <minimizedAffinity>
-7.73016

$$$$
3MHC_ARZ_A_263


 25 28  0  0  0  0  0  0  0  0999 V2000
   -4.9610    3.7044   12.1911 O   0  0  0  0  0  0  0  0  0  0  0  0
   -4.0060    5.1281   13.9095 N   0  0  0  0  0  0  0  0  0  0  0  0
   -4.3229    4.6228   12.5734 C   0  0  0  0  0  0  0  0  0  0  0  0
   -3.5217    5.9426   14.1764 H   0  0  0  0  0  0  0  0  0  0  0  0
   -1.4756    4.9115    9.3334 C   0  0  0  0  0  0  0  0  0  0  0  0
   -2.7522    6.9452    8.9778 C   0  0  0  0  0  0  0  0  0  0  0  0
   -1.2281    6.6907   10.6591 C   0  0  0  0  0  0  0  0  0  0  0  0
   -3.4737    4.7663    9.9695 C   0  0  0  0  0  0  0  0  0  0  0  0
   -2.0682    4.4510   11.5296 C   0  0  0  0  0  0  0  0  0  0  0  0
   -3.3326    6.6352   11.4191 C   0  0  0  0  0  0  0  0  0  0  0  0
   -2.7974    5.4175    8.8473 C   0  0  0  0  0  0  0  0  0  0  0  0
   -1.1011    5.2583   10.7488 C   0  0  0  0  0  0  0  0  0  0  0  0
   -2.4506    7.3588   10.4476 C   0  0  0  0  0  0  0  0  0  0  0  0
   -3.3665    5.1476   11.3462 C   0  0  0  0  0  0  0  0  0  0  0  0
   -3.4861    3.4123   15.1311 N   0  0  0  0  0  0  0  0  0  0  0  0
   -3.7239    2.2831   16.0242 N   0  0  0  0  0  0  0  0  0  0  0  0
   -5.8097    3.4570   15.3552 S   0  0  0  0  0  0  0  0  0  0  0  0
   -4.5704    4.1528   14.6836 C   0  0  0  0  0  0  0  0  0  0  0  0
   -5.0711    2.2545   16.1966 C   0  0  0  0  0  0  0  0  0  0  0  0
   -7.2866    0.9782   16.8360 N   0  0  0  0  0  0  0  0  0  0  0  0
   -5.2922   -0.1984   16.2555 O   0  0  0  0  0  0  0  0  0  0  0  0
   -5.4171    1.0319   18.3585 O   0  0  0  0  0  0  0  0  0  0  0  0
   -5.8876    0.9428   17.0685 S   0  0  0  0  0  0  0  0  0  0  0  0
   -7.7353    0.2171   17.3456 H   0  0  0  0  0  0  0  0  0  0  0  0
   -7.4681    0.8726   15.8378 H   0  0  0  0  0  0  0  0  0  0  0  0
 20 23  1  0  0  0
  3  1  2  0  0  0
 23 21  2  0  0  0
 22 23  2  0  0  0
 11  5  1  0  0  0
  5 12  1  0  0  0
  6 11  1  0  0  0
  6 13  1  0  0  0
 13  7  1  0  0  0
  7 12  1  0  0  0
 11  8  1  0  0  0
  8 14  1  0  0  0
 12  9  1  0  0  0
 14  9  1  0  0  0
 13 10  1  0  0  0
 10 14  1  0  0  0
 18 15  2  0  0  0
 15 16  1  0  0  0
 16 19  2  0  0  0
  3  2  1  0  0  0
  2 18  1  0  0  0
 18 17  1  0  0  0
 17 19  1  0  0  0
 14  3  1  0  0  0
 19 23  1  0  0  0
 20 24  1  0  0  0
 20 25  1  0  0  0
  2  4  1  0  0  0
M  END
> <minimizedAffinity>
-7.67852

$$$$
3MHC_ARZ_A_263


 25 28  0  0  0  0  0  0  0  0999 V2000
   -2.5828    4.0733   11.6435 O   0  0  0  0  0  0  0  0  0  0  0  0
   -4.6061    3.1371   10.6836 N   0  0  0  0  0  0  0  0  0  0  0  0
   -3.4250    3.9901   10.8185 C   0  0  0  0  0  0  0  0  0  0  0  0
   -5.2449    3.0590    9.9387 H   0  0  0  0  0  0  0  0  0  0  0  0
   -3.9486    7.9800    9.2393 C   0  0  0  0  0  0  0  0  0  0  0  0
   -2.0855    7.2135    7.8853 C   0  0  0  0  0  0  0  0  0  0  0  0
   -4.2378    6.5143    7.5803 C   0  0  0  0  0  0  0  0  0  0  0  0
   -2.7290    6.5734   10.2150 C   0  0  0  0  0  0  0  0  0  0  0  0
   -4.7452    5.9400   10.0078 C   0  0  0  0  0  0  0  0  0  0  0  0
   -2.9672    4.9314    8.5235 C   0  0  0  0  0  0  0  0  0  0  0  0
   -2.4832    7.6809    9.2911 C   0  0  0  0  0  0  0  0  0  0  0  0
   -4.8534    6.8462    8.8400 C   0  0  0  0  0  0  0  0  0  0  0  0
   -2.9382    5.9839    7.4573 C   0  0  0  0  0  0  0  0  0  0  0  0
   -3.3901    5.3446    9.8910 C   0  0  0  0  0  0  0  0  0  0  0  0
   -5.1528    3.3734   12.7698 N   0  0  0  0  0  0  0  0  0  0  0  0
   -5.3096    2.9789   14.1658 N   0  0  0  0  0  0  0  0  0  0  0  0
   -4.2517    1.2195   12.7653 S   0  0  0  0  0  0  0  0  0  0  0  0
   -4.5744    2.4787   11.8813 C   0  0  0  0  0  0  0  0  0  0  0  0
   -4.7996    1.7215   14.2307 C   0  0  0  0  0  0  0  0  0  0  0  0
   -5.8324    0.7576   16.4556 N   0  0  0  0  0  0  0  0  0  0  0  0
   -4.2692   -0.4977   15.1596 O   0  0  0  0  0  0  0  0  0  0  0  0
   -3.5332    1.4813   16.3816 O   0  0  0  0  0  0  0  0  0  0  0  0
   -4.5959    0.8592   15.7677 S   0  0  0  0  0  0  0  0  0  0  0  0
   -5.6925    0.2594   17.3346 H   0  0  0  0  0  0  0  0  0  0  0  0
   -6.5016    0.2479   15.8787 H   0  0  0  0  0  0  0  0  0  0  0  0
 20 23  1  0  0  0
  3  1  2  0  0  0
 23 21  2  0  0  0
 22 23  2  0  0  0
 11  5  1  0  0  0
  5 12  1  0  0  0
  6 11  1  0  0  0
  6 13  1  0  0  0
 13  7  1  0  0  0
  7 12  1  0  0  0
 11  8  1  0  0  0
  8 14  1  0  0  0
 12  9  1  0  0  0
 14  9  1  0  0  0
 13 10  1  0  0  0
 10 14  1  0  0  0
 18 15  2  0  0  0
 15 16  1  0  0  0
 16 19  2  0  0  0
  3  2  1  0  0  0
  2 18  1  0  0  0
 18 17  1  0  0  0
 17 19  1  0  0  0
 14  3  1  0  0  0
 19 23  1  0  0  0
 20 24  1  0  0  0
 20 25  1  0  0  0
  2  4  1  0  0  0
M  END
> <minimizedAffinity>
-7.58022

$$$$
3MHC_ARZ_A_263


 25 28  0  0  0  0  0  0  0  0999 V2000
   -2.3618    4.1468   14.3148 O   0  0  0  0  0  0  0  0  0  0  0  0
   -4.2472    3.8165   12.8223 N   0  0  0  0  0  0  0  0  0  0  0  0
   -2.9671    4.3252   13.3155 C   0  0  0  0  0  0  0  0  0  0  0  0
   -4.6804    3.9431   11.9473 H   0  0  0  0  0  0  0  0  0  0  0  0
   -0.5475    7.1569   11.1212 C   0  0  0  0  0  0  0  0  0  0  0  0
   -2.6983    8.2806   11.0636 C   0  0  0  0  0  0  0  0  0  0  0  0
   -1.3786    8.1778   12.9244 C   0  0  0  0  0  0  0  0  0  0  0  0
   -2.1821    5.8363   11.1655 C   0  0  0  0  0  0  0  0  0  0  0  0
   -0.9222    5.6742   12.8670 C   0  0  0  0  0  0  0  0  0  0  0  0
   -3.1583    6.8296   13.0825 C   0  0  0  0  0  0  0  0  0  0  0  0
   -1.9023    7.1025   10.4879 C   0  0  0  0  0  0  0  0  0  0  0  0
   -0.5024    7.0745   12.6229 C   0  0  0  0  0  0  0  0  0  0  0  0
   -2.7536    8.1951   12.6167 C   0  0  0  0  0  0  0  0  0  0  0  0
   -2.3778    5.6668   12.5745 C   0  0  0  0  0  0  0  0  0  0  0  0
   -5.6782    3.9096   14.4503 N   0  0  0  0  0  0  0  0  0  0  0  0
   -6.3888    3.4440   15.6366 N   0  0  0  0  0  0  0  0  0  0  0  0
   -4.6366    1.8610   14.8620 S   0  0  0  0  0  0  0  0  0  0  0  0
   -4.6736    3.1160   13.9161 C   0  0  0  0  0  0  0  0  0  0  0  0
   -5.8247    2.2436   15.9304 C   0  0  0  0  0  0  0  0  0  0  0  0
   -6.2751    2.2124   18.5270 N   0  0  0  0  0  0  0  0  0  0  0  0
   -7.6500    0.9877   17.0075 O   0  0  0  0  0  0  0  0  0  0  0  0
   -5.3513    0.2807   17.4174 O   0  0  0  0  0  0  0  0  0  0  0  0
   -6.2246    1.3440   17.4063 S   0  0  0  0  0  0  0  0  0  0  0  0
   -6.5061    1.6755   19.3629 H   0  0  0  0  0  0  0  0  0  0  0  0
   -6.9882    2.9252   18.3729 H   0  0  0  0  0  0  0  0  0  0  0  0
 20 23  1  0  0  0
  3  1  2  0  0  0
 23 21  2  0  0  0
 22 23  2  0  0  0
 11  5  1  0  0  0
  5 12  1  0  0  0
  6 11  1  0  0  0
  6 13  1  0  0  0
 13  7  1  0  0  0
  7 12  1  0  0  0
 11  8  1  0  0  0
  8 14  1  0  0  0
 12  9  1  0  0  0
 14  9  1  0  0  0
 13 10  1  0  0  0
 10 14  1  0  0  0
 18 15  2  0  0  0
 15 16  1  0  0  0
 16 19  2  0  0  0
  3  2  1  0  0  0
  2 18  1  0  0  0
 18 17  1  0  0  0
 17 19  1  0  0  0
 14  3  1  0  0  0
 19 23  1  0  0  0
 20 24  1  0  0  0
 20 25  1  0  0  0
  2  4  1  0  0  0
M  END
> <minimizedAffinity>
-7.45814

$$$$
3MHC_ARZ_A_263


 25 28  0  0  0  0  0  0  0  0999 V2000
   -2.4568    4.1485   11.4939 O   0  0  0  0  0  0  0  0  0  0  0  0
   -4.5074    3.2732   10.5344 N   0  0  0  0  0  0  0  0  0  0  0  0
   -3.3032    4.0931   10.6710 C   0  0  0  0  0  0  0  0  0  0  0  0
   -5.1502    3.2171    9.7909 H   0  0  0  0  0  0  0  0  0  0  0  0
   -2.8109    6.9256    7.4426 C   0  0  0  0  0  0  0  0  0  0  0  0
   -4.1463    8.2436    8.9825 C   0  0  0  0  0  0  0  0  0  0  0  0
   -1.9285    7.8002    9.2975 C   0  0  0  0  0  0  0  0  0  0  0  0
   -4.0876    5.7669    8.6449 C   0  0  0  0  0  0  0  0  0  0  0  0
   -2.0336    5.2891    8.8933 C   0  0  0  0  0  0  0  0  0  0  0  0
   -3.2262    6.6143   10.6830 C   0  0  0  0  0  0  0  0  0  0  0  0
   -4.1947    7.0725    7.9931 C   0  0  0  0  0  0  0  0  0  0  0  0
   -1.7143    6.6632    8.4388 C   0  0  0  0  0  0  0  0  0  0  0  0
   -3.0815    7.9815   10.0870 C   0  0  0  0  0  0  0  0  0  0  0  0
   -3.2342    5.4517    9.7514 C   0  0  0  0  0  0  0  0  0  0  0  0
   -5.1095    3.4824   12.6082 N   0  0  0  0  0  0  0  0  0  0  0  0
   -5.2914    3.0744   13.9973 N   0  0  0  0  0  0  0  0  0  0  0  0
   -4.1615    1.3487   12.6111 S   0  0  0  0  0  0  0  0  0  0  0  0
   -4.4903    2.6070   11.7280 C   0  0  0  0  0  0  0  0  0  0  0  0
   -4.7556    1.8279   14.0660 C   0  0  0  0  0  0  0  0  0  0  0  0
   -3.5446    1.5421   16.3894 N   0  0  0  0  0  0  0  0  0  0  0  0
   -5.9165    1.3610   16.1882 O   0  0  0  0  0  0  0  0  0  0  0  0
   -4.4746   -0.3668   15.2461 O   0  0  0  0  0  0  0  0  0  0  0  0
   -4.5703    0.9591   15.6017 S   0  0  0  0  0  0  0  0  0  0  0  0
   -3.4553    1.0281   17.2658 H   0  0  0  0  0  0  0  0  0  0  0  0
   -3.7797    2.5146   16.5880 H   0  0  0  0  0  0  0  0  0  0  0  0
 20 23  1  0  0  0
  3  1  2  0  0  0
 23 21  2  0  0  0
 22 23  2  0  0  0
 11  5  1  0  0  0
  5 12  1  0  0  0
  6 11  1  0  0  0
  6 13  1  0  0  0
 13  7  1  0  0  0
  7 12  1  0  0  0
 11  8  1  0  0  0
  8 14  1  0  0  0
 12  9  1  0  0  0
 14  9  1  0  0  0
 13 10  1  0  0  0
 10 14  1  0  0  0
 18 15  2  0  0  0
 15 16  1  0  0  0
 16 19  2  0  0  0
  3  2  1  0  0  0
  2 18  1  0  0  0
 18 17  1  0  0  0
 17 19  1  0  0  0
 14  3  1  0  0  0
 19 23  1  0  0  0
 20 24  1  0  0  0
 20 25  1  0  0  0
  2  4  1  0  0  0
M  END
> <minimizedAffinity>
-7.26654

$$$$
3MHC_ARZ_A_263


 25 28  0  0  0  0  0  0  0  0999 V2000
   -5.2003    5.2429   11.7211 O   0  0  0  0  0  0  0  0  0  0  0  0
   -4.7111    6.3060   13.8476 N   0  0  0  0  0  0  0  0  0  0  0  0
   -4.9159    6.1632   12.4059 C   0  0  0  0  0  0  0  0  0  0  0  0
   -4.5399    7.1147   14.3824 H   0  0  0  0  0  0  0  0  0  0  0  0
   -2.3192    8.8345   10.2131 C   0  0  0  0  0  0  0  0  0  0  0  0
   -4.4318    9.2623    9.0969 C   0  0  0  0  0  0  0  0  0  0  0  0
   -3.9272   10.0421   11.1830 C   0  0  0  0  0  0  0  0  0  0  0  0
   -3.6160    7.1804   10.2156 C   0  0  0  0  0  0  0  0  0  0  0  0
   -3.0953    7.8452   12.1638 C   0  0  0  0  0  0  0  0  0  0  0  0
   -5.3952    8.3538   11.2508 C   0  0  0  0  0  0  0  0  0  0  0  0
   -3.3013    8.2377    9.2544 C   0  0  0  0  0  0  0  0  0  0  0  0
   -2.8403    9.1837   11.5806 C   0  0  0  0  0  0  0  0  0  0  0  0
   -5.0635    9.5952   10.4799 C   0  0  0  0  0  0  0  0  0  0  0  0
   -4.3070    7.3576   11.4578 C   0  0  0  0  0  0  0  0  0  0  0  0
   -3.5780    4.7068   14.7777 N   0  0  0  0  0  0  0  0  0  0  0  0
   -3.3469    3.3779   15.3343 N   0  0  0  0  0  0  0  0  0  0  0  0
   -5.6457    3.6768   14.4385 S   0  0  0  0  0  0  0  0  0  0  0  0
   -4.8240    5.0027   14.2443 C   0  0  0  0  0  0  0  0  0  0  0  0
   -4.5245    2.7216   15.1667 C   0  0  0  0  0  0  0  0  0  0  0  0
   -4.5106    0.2134   14.3576 N   0  0  0  0  0  0  0  0  0  0  0  0
   -3.4674    0.8707   16.4018 O   0  0  0  0  0  0  0  0  0  0  0  0
   -5.8990    0.8999   16.2061 O   0  0  0  0  0  0  0  0  0  0  0  0
   -4.7065    0.9938   15.5259 S   0  0  0  0  0  0  0  0  0  0  0  0
   -4.6195   -0.7746   14.5865 H   0  0  0  0  0  0  0  0  0  0  0  0
   -3.5720    0.3765   13.9932 H   0  0  0  0  0  0  0  0  0  0  0  0
 20 23  1  0  0  0
  3  1  2  0  0  0
 23 21  2  0  0  0
 22 23  2  0  0  0
 11  5  1  0  0  0
  5 12  1  0  0  0
  6 11  1  0  0  0
  6 13  1  0  0  0
 13  7  1  0  0  0
  7 12  1  0  0  0
 11  8  1  0  0  0
  8 14  1  0  0  0
 12  9  1  0  0  0
 14  9  1  0  0  0
 13 10  1  0  0  0
 10 14  1  0  0  0
 18 15  2  0  0  0
 15 16  1  0  0  0
 16 19  2  0  0  0
  3  2  1  0  0  0
  2 18  1  0  0  0
 18 17  1  0  0  0
 17 19  1  0  0  0
 14  3  1  0  0  0
 19 23  1  0  0  0
 20 24  1  0  0  0
 20 25  1  0  0  0
  2  4  1  0  0  0
M  END
> <minimizedAffinity>
-7.25393

$$$$
