5I2E_67D_A_201


 42 47  0  0  0  0  0  0  0  0999 V2000
  -28.6613    5.6829  -29.4179 C   0  0  0  0  0  0  0  0  0  0  0  0
  -28.8977    4.6041  -28.5608 O   0  0  0  0  0  0  0  0  0  0  0  0
  -29.6387    6.7578  -28.9564 C   0  0  0  0  0  0  0  0  0  0  0  0
  -29.2936    8.0376  -29.4472 O   0  0  0  0  0  0  0  0  0  0  0  0
  -29.5617    6.5995  -27.4263 C   0  0  0  0  0  0  0  0  0  0  0  0
  -28.5740    7.4793  -26.8808 O   0  0  0  0  0  0  0  0  0  0  0  0
  -29.1210    5.1371  -27.2337 C   0  0  0  0  0  0  0  0  0  0  0  0
  -28.3881    8.2547  -29.1756 H   0  0  0  0  0  0  0  0  0  0  0  0
  -27.7164    7.3006  -27.2972 H   0  0  0  0  0  0  0  0  0  0  0  0
  -25.5594    4.2042  -34.9630 C   0  0  0  0  0  0  0  0  0  0  0  0
  -27.4134    4.3465  -33.9414 C   0  0  0  0  0  0  0  0  0  0  0  0
  -28.3341    4.6105  -32.8329 C   0  0  0  0  0  0  0  0  0  0  0  0
  -27.7641    5.0785  -31.5915 C   0  0  0  0  0  0  0  0  0  0  0  0
  -26.5978    3.8321  -35.8159 C   0  0  0  0  0  0  0  0  0  0  0  0
  -25.6222    4.9603  -32.5944 C   0  0  0  0  0  0  0  0  0  0  0  0
  -29.9449    4.8898  -31.4774 C   0  0  0  0  0  0  0  0  0  0  0  0
  -26.1058    4.5195  -33.7829 N   0  0  0  0  0  0  0  0  0  0  0  0
  -26.4124    5.2240  -31.5250 N   0  0  0  0  0  0  0  0  0  0  0  0
  -29.6709    4.5044  -32.7625 N   0  0  0  0  0  0  0  0  0  0  0  0
  -28.8163    5.2335  -30.8000 N   0  0  0  0  0  0  0  0  0  0  0  0
  -27.7843    3.9243  -35.1617 N   0  0  0  0  0  0  0  0  0  0  0  0
  -30.0912    4.2635  -26.4856 C   0  0  0  0  0  0  0  0  0  0  0  0
  -30.0424    4.5699  -25.0895 O   0  0  0  0  0  0  0  0  0  0  0  0
  -31.2711    4.4693  -24.1747 S   0  0  0  0  0  0  0  0  0  0  0  0
  -30.8308    4.4901  -22.8155 O   0  0  0  0  0  0  0  0  0  0  0  0
  -31.9954    3.2548  -24.4607 O   0  0  0  0  0  0  0  0  0  0  0  0
  -32.1846    5.7675  -24.2894 N   0  0  0  0  0  0  0  0  0  0  0  0
  -31.5875    6.9218  -24.0802 C   0  0  0  0  0  0  0  0  0  0  0  0
  -30.4633    7.1395  -24.4780 O   0  0  0  0  0  0  0  0  0  0  0  0
  -33.1435    5.7104  -24.5050 H   0  0  0  0  0  0  0  0  0  0  0  0
  -32.3465    7.9478  -23.2891 C   0  0  0  0  0  0  0  0  0  0  0  0
  -33.2429    8.6794  -24.2749 C   0  0  0  0  0  0  0  0  0  0  0  0
  -33.9116    9.8954  -23.6761 C   0  0  0  0  0  0  0  0  0  0  0  0
  -34.4715   10.1179  -22.3140 C   0  0  0  0  0  0  0  0  0  0  0  0
  -34.9728   11.5083  -22.3309 C   0  0  0  0  0  0  0  0  0  0  0  0
  -34.7281   12.0120  -23.5545 N   0  0  0  0  0  0  0  0  0  0  0  0
  -34.1116   11.0962  -24.3508 C   0  0  0  0  0  0  0  0  0  0  0  0
  -35.5598   12.0230  -21.1847 C   0  0  0  0  0  0  0  0  0  0  0  0
  -35.6562   11.2145  -20.0599 C   0  0  0  0  0  0  0  0  0  0  0  0
  -35.1716    9.9070  -20.0435 C   0  0  0  0  0  0  0  0  0  0  0  0
  -34.5821    9.3346  -21.1649 C   0  0  0  0  0  0  0  0  0  0  0  0
  -34.9645   12.9249  -23.8372 H   0  0  0  0  0  0  0  0  0  0  0  0
 14 21  1  0  0  0
 14 10  2  0  0  0
 21 11  2  0  0  0
 10 17  1  0  0  0
 11 17  1  0  0  0
 11 12  1  0  0  0
 17 15  1  0  0  0
 12 19  1  0  0  0
 12 13  2  0  0  0
 19 16  2  0  0  0
 15 18  2  0  0  0
 13 18  1  0  0  0
 13 20  1  0  0  0
 16 20  1  0  0  0
 20  1  1  0  0  0
  1  3  1  0  0  0
  1  2  1  0  0  0
  4  3  1  0  0  0
  3  5  1  0  0  0
  2  7  1  0  0  0
  5  7  1  0  0  0
  5  6  1  0  0  0
  7 22  1  0  0  0
 22 23  1  0  0  0
 29 28  2  0  0  0
 23 24  1  0  0  0
 26 24  2  0  0  0
 37 36  1  0  0  0
 37 33  2  0  0  0
 24 27  1  0  0  0
 24 25  2  0  0  0
 32 33  1  0  0  0
 32 31  1  0  0  0
 28 27  1  0  0  0
 28 31  1  0  0  0
 36 35  1  0  0  0
 33 34  1  0  0  0
 35 34  2  0  0  0
 35 38  1  0  0  0
 34 41  1  0  0  0
 38 39  2  0  0  0
 41 40  2  0  0  0
 39 40  1  0  0  0
 27 30  1  0  0  0
  4  8  1  0  0  0
  6  9  1  0  0  0
 36 42  1  0  0  0
M  END
> <minimizedAffinity>
-10.40480

$$$$
5I2E_67D_A_201


 42 47  0  0  0  0  0  0  0  0999 V2000
  -32.3040    8.7546  -26.3163 C   0  0  0  0  0  0  0  0  0  0  0  0
  -32.4800    7.5648  -27.0289 O   0  0  0  0  0  0  0  0  0  0  0  0
  -31.0094    9.3411  -26.8673 C   0  0  0  0  0  0  0  0  0  0  0  0
  -30.8658   10.7100  -26.5463 O   0  0  0  0  0  0  0  0  0  0  0  0
  -31.1524    9.0312  -28.3692 C   0  0  0  0  0  0  0  0  0  0  0  0
  -31.7619   10.1311  -29.0518 O   0  0  0  0  0  0  0  0  0  0  0  0
  -32.0920    7.8122  -28.4012 C   0  0  0  0  0  0  0  0  0  0  0  0
  -31.6348   11.2016  -26.8747 H   0  0  0  0  0  0  0  0  0  0  0  0
  -32.6224   10.3252  -28.6484 H   0  0  0  0  0  0  0  0  0  0  0  0
  -34.9733   10.1903  -20.5396 C   0  0  0  0  0  0  0  0  0  0  0  0
  -33.5800    9.0045  -21.6136 C   0  0  0  0  0  0  0  0  0  0  0  0
  -32.8357    8.5007  -22.7706 C   0  0  0  0  0  0  0  0  0  0  0  0
  -33.1215    9.0942  -24.0555 C   0  0  0  0  0  0  0  0  0  0  0  0
  -34.3128    9.3294  -19.6640 C   0  0  0  0  0  0  0  0  0  0  0  0
  -34.7227   10.4810  -22.9969 C   0  0  0  0  0  0  0  0  0  0  0  0
  -31.5811    7.5405  -24.1898 C   0  0  0  0  0  0  0  0  0  0  0  0
  -34.4921    9.9581  -21.7665 N   0  0  0  0  0  0  0  0  0  0  0  0
  -34.0742   10.0647  -24.1121 N   0  0  0  0  0  0  0  0  0  0  0  0
  -31.8854    7.5556  -22.8549 N   0  0  0  0  0  0  0  0  0  0  0  0
  -32.3084    8.4558  -24.8856 N   0  0  0  0  0  0  0  0  0  0  0  0
  -33.4204    8.5713  -20.3520 N   0  0  0  0  0  0  0  0  0  0  0  0
  -31.5085    6.5628  -29.0034 C   0  0  0  0  0  0  0  0  0  0  0  0
  -30.8170    5.8172  -27.9977 O   0  0  0  0  0  0  0  0  0  0  0  0
  -29.2924    5.8713  -27.8263 S   0  0  0  0  0  0  0  0  0  0  0  0
  -28.8051    4.5390  -27.6555 O   0  0  0  0  0  0  0  0  0  0  0  0
  -28.9572    6.6902  -26.6869 O   0  0  0  0  0  0  0  0  0  0  0  0
  -28.5780    6.3599  -29.1619 N   0  0  0  0  0  0  0  0  0  0  0  0
  -28.2898    5.4270  -30.0448 C   0  0  0  0  0  0  0  0  0  0  0  0
  -29.0414    4.5011  -30.2624 O   0  0  0  0  0  0  0  0  0  0  0  0
  -28.3633    7.3078  -29.3192 H   0  0  0  0  0  0  0  0  0  0  0  0
  -26.9660    5.5372  -30.7447 C   0  0  0  0  0  0  0  0  0  0  0  0
  -26.7153    4.1946  -31.4121 C   0  0  0  0  0  0  0  0  0  0  0  0
  -26.7833    4.2622  -32.9204 C   0  0  0  0  0  0  0  0  0  0  0  0
  -27.9579    4.3541  -33.8316 C   0  0  0  0  0  0  0  0  0  0  0  0
  -27.3815    4.4026  -35.1919 C   0  0  0  0  0  0  0  0  0  0  0  0
  -26.0430    4.3436  -35.0667 N   0  0  0  0  0  0  0  0  0  0  0  0
  -25.6727    4.2641  -33.7593 C   0  0  0  0  0  0  0  0  0  0  0  0
  -28.2371    4.4947  -36.2794 C   0  0  0  0  0  0  0  0  0  0  0  0
  -29.6064    4.5387  -36.0532 C   0  0  0  0  0  0  0  0  0  0  0  0
  -30.1465    4.5047  -34.7679 C   0  0  0  0  0  0  0  0  0  0  0  0
  -29.3390    4.4035  -33.6410 C   0  0  0  0  0  0  0  0  0  0  0  0
  -25.4129    4.3564  -35.8231 H   0  0  0  0  0  0  0  0  0  0  0  0
 14 21  1  0  0  0
 14 10  2  0  0  0
 21 11  2  0  0  0
 10 17  1  0  0  0
 11 17  1  0  0  0
 11 12  1  0  0  0
 17 15  1  0  0  0
 12 19  1  0  0  0
 12 13  2  0  0  0
 19 16  2  0  0  0
 15 18  2  0  0  0
 13 18  1  0  0  0
 13 20  1  0  0  0
 16 20  1  0  0  0
 20  1  1  0  0  0
  1  3  1  0  0  0
  1  2  1  0  0  0
  4  3  1  0  0  0
  3  5  1  0  0  0
  2  7  1  0  0  0
  5  7  1  0  0  0
  5  6  1  0  0  0
  7 22  1  0  0  0
 22 23  1  0  0  0
 29 28  2  0  0  0
 23 24  1  0  0  0
 26 24  2  0  0  0
 37 36  1  0  0  0
 37 33  2  0  0  0
 24 27  1  0  0  0
 24 25  2  0  0  0
 32 33  1  0  0  0
 32 31  1  0  0  0
 28 27  1  0  0  0
 28 31  1  0  0  0
 36 35  1  0  0  0
 33 34  1  0  0  0
 35 34  2  0  0  0
 35 38  1  0  0  0
 34 41  1  0  0  0
 38 39  2  0  0  0
 41 40  2  0  0  0
 39 40  1  0  0  0
 27 30  1  0  0  0
  4  8  1  0  0  0
  6  9  1  0  0  0
 36 42  1  0  0  0
M  END
> <minimizedAffinity>
-10.29716

$$$$
5I2E_67D_A_201


 42 47  0  0  0  0  0  0  0  0999 V2000
  -31.4835    7.5543  -24.2658 C   0  0  0  0  0  0  0  0  0  0  0  0
  -30.6053    8.0382  -25.2400 O   0  0  0  0  0  0  0  0  0  0  0  0
  -31.9399    6.2023  -24.8018 C   0  0  0  0  0  0  0  0  0  0  0  0
  -32.5268    5.4013  -23.7960 O   0  0  0  0  0  0  0  0  0  0  0  0
  -30.6285    5.6538  -25.3949 C   0  0  0  0  0  0  0  0  0  0  0  0
  -29.9327    4.8634  -24.4263 O   0  0  0  0  0  0  0  0  0  0  0  0
  -29.8158    6.9216  -25.7145 C   0  0  0  0  0  0  0  0  0  0  0  0
  -31.8993    5.2889  -23.0649 H   0  0  0  0  0  0  0  0  0  0  0  0
  -29.7652    5.3968  -23.6336 H   0  0  0  0  0  0  0  0  0  0  0  0
  -35.3892   10.3487  -19.8507 C   0  0  0  0  0  0  0  0  0  0  0  0
  -34.7755   10.2511  -21.8793 C   0  0  0  0  0  0  0  0  0  0  0  0
  -34.0190    9.7912  -23.0466 C   0  0  0  0  0  0  0  0  0  0  0  0
  -33.0440    8.7467  -22.8384 C   0  0  0  0  0  0  0  0  0  0  0  0
  -36.1190   11.2634  -20.6089 C   0  0  0  0  0  0  0  0  0  0  0  0
  -33.6151    8.7478  -20.5402 C   0  0  0  0  0  0  0  0  0  0  0  0
  -33.1365    9.3816  -24.9343 C   0  0  0  0  0  0  0  0  0  0  0  0
  -34.5438    9.7267  -20.6809 N   0  0  0  0  0  0  0  0  0  0  0  0
  -32.8769    8.2731  -21.5732 N   0  0  0  0  0  0  0  0  0  0  0  0
  -34.0794   10.1717  -24.3330 N   0  0  0  0  0  0  0  0  0  0  0  0
  -32.5394    8.5409  -24.0469 N   0  0  0  0  0  0  0  0  0  0  0  0
  -35.7263   11.1998  -21.9075 N   0  0  0  0  0  0  0  0  0  0  0  0
  -29.4688    7.1175  -27.1655 C   0  0  0  0  0  0  0  0  0  0  0  0
  -30.5360    6.6379  -27.9881 O   0  0  0  0  0  0  0  0  0  0  0  0
  -31.6192    7.5612  -28.5633 S   0  0  0  0  0  0  0  0  0  0  0  0
  -31.1180    8.8992  -28.5767 O   0  0  0  0  0  0  0  0  0  0  0  0
  -32.8156    7.4696  -27.7622 O   0  0  0  0  0  0  0  0  0  0  0  0
  -31.8874    7.2493  -30.1007 N   0  0  0  0  0  0  0  0  0  0  0  0
  -32.1523    5.9962  -30.4046 C   0  0  0  0  0  0  0  0  0  0  0  0
  -32.8374    5.2977  -29.6890 O   0  0  0  0  0  0  0  0  0  0  0  0
  -31.8568    7.9547  -30.7867 H   0  0  0  0  0  0  0  0  0  0  0  0
  -31.5335    5.4546  -31.6609 C   0  0  0  0  0  0  0  0  0  0  0  0
  -30.7099    4.2442  -31.2516 C   0  0  0  0  0  0  0  0  0  0  0  0
  -29.2294    4.5371  -31.1684 C   0  0  0  0  0  0  0  0  0  0  0  0
  -28.1681    4.4552  -32.2102 C   0  0  0  0  0  0  0  0  0  0  0  0
  -26.9291    4.8804  -31.5256 C   0  0  0  0  0  0  0  0  0  0  0  0
  -27.2491    5.1669  -30.2504 N   0  0  0  0  0  0  0  0  0  0  0  0
  -28.5773    4.9776  -30.0205 C   0  0  0  0  0  0  0  0  0  0  0  0
  -25.7438    4.9140  -32.2448 C   0  0  0  0  0  0  0  0  0  0  0  0
  -25.7616    4.5473  -33.5840 C   0  0  0  0  0  0  0  0  0  0  0  0
  -26.9346    4.1580  -34.2300 C   0  0  0  0  0  0  0  0  0  0  0  0
  -28.1500    4.0963  -33.5582 C   0  0  0  0  0  0  0  0  0  0  0  0
  -26.6056    5.4738  -29.5714 H   0  0  0  0  0  0  0  0  0  0  0  0
 14 21  1  0  0  0
 14 10  2  0  0  0
 21 11  2  0  0  0
 10 17  1  0  0  0
 11 17  1  0  0  0
 11 12  1  0  0  0
 17 15  1  0  0  0
 12 19  1  0  0  0
 12 13  2  0  0  0
 19 16  2  0  0  0
 15 18  2  0  0  0
 13 18  1  0  0  0
 13 20  1  0  0  0
 16 20  1  0  0  0
 20  1  1  0  0  0
  1  3  1  0  0  0
  1  2  1  0  0  0
  4  3  1  0  0  0
  3  5  1  0  0  0
  2  7  1  0  0  0
  5  7  1  0  0  0
  5  6  1  0  0  0
  7 22  1  0  0  0
 22 23  1  0  0  0
 29 28  2  0  0  0
 23 24  1  0  0  0
 26 24  2  0  0  0
 37 36  1  0  0  0
 37 33  2  0  0  0
 24 27  1  0  0  0
 24 25  2  0  0  0
 32 33  1  0  0  0
 32 31  1  0  0  0
 28 27  1  0  0  0
 28 31  1  0  0  0
 36 35  1  0  0  0
 33 34  1  0  0  0
 35 34  2  0  0  0
 35 38  1  0  0  0
 34 41  1  0  0  0
 38 39  2  0  0  0
 41 40  2  0  0  0
 39 40  1  0  0  0
 27 30  1  0  0  0
  4  8  1  0  0  0
  6  9  1  0  0  0
 36 42  1  0  0  0
M  END
> <minimizedAffinity>
-10.19230

$$$$
5I2E_67D_A_201


 42 47  0  0  0  0  0  0  0  0999 V2000
  -30.9741    7.5719  -25.8600 C   0  0  0  0  0  0  0  0  0  0  0  0
  -31.2567    6.3241  -26.4235 O   0  0  0  0  0  0  0  0  0  0  0  0
  -29.4847    7.7758  -26.1126 C   0  0  0  0  0  0  0  0  0  0  0  0
  -29.0978    9.1261  -25.9553 O   0  0  0  0  0  0  0  0  0  0  0  0
  -29.3404    7.2143  -27.5395 C   0  0  0  0  0  0  0  0  0  0  0  0
  -29.4915    8.2581  -28.5063 O   0  0  0  0  0  0  0  0  0  0  0  0
  -30.5095    6.2197  -27.6588 C   0  0  0  0  0  0  0  0  0  0  0  0
  -29.6277    9.6851  -26.5449 H   0  0  0  0  0  0  0  0  0  0  0  0
  -30.3507    8.6911  -28.3830 H   0  0  0  0  0  0  0  0  0  0  0  0
  -34.9403   10.2261  -21.4124 C   0  0  0  0  0  0  0  0  0  0  0  0
  -33.4258    8.7984  -21.8238 C   0  0  0  0  0  0  0  0  0  0  0  0
  -32.4500    8.0470  -22.6173 C   0  0  0  0  0  0  0  0  0  0  0  0
  -32.3286    8.3842  -24.0160 C   0  0  0  0  0  0  0  0  0  0  0  0
  -34.6177    9.5314  -20.2472 C   0  0  0  0  0  0  0  0  0  0  0  0
  -34.0201   10.0136  -23.7132 C   0  0  0  0  0  0  0  0  0  0  0  0
  -30.9563    6.7772  -23.4337 C   0  0  0  0  0  0  0  0  0  0  0  0
  -34.1735    9.7368  -22.3940 N   0  0  0  0  0  0  0  0  0  0  0  0
  -33.1393    9.3599  -24.5097 N   0  0  0  0  0  0  0  0  0  0  0  0
  -31.6019    7.0684  -22.2618 N   0  0  0  0  0  0  0  0  0  0  0  0
  -31.3859    7.5633  -24.4576 N   0  0  0  0  0  0  0  0  0  0  0  0
  -33.6476    8.6183  -20.5112 N   0  0  0  0  0  0  0  0  0  0  0  0
  -30.1166    4.7877  -27.9022 C   0  0  0  0  0  0  0  0  0  0  0  0
  -29.0685    4.7310  -28.8737 O   0  0  0  0  0  0  0  0  0  0  0  0
  -29.3325    4.8076  -30.3840 S   0  0  0  0  0  0  0  0  0  0  0  0
  -29.2318    6.1720  -30.7961 O   0  0  0  0  0  0  0  0  0  0  0  0
  -30.6416    4.2779  -30.6790 O   0  0  0  0  0  0  0  0  0  0  0  0
  -28.1799    4.0841  -31.2093 N   0  0  0  0  0  0  0  0  0  0  0  0
  -27.1034    4.7993  -31.4587 C   0  0  0  0  0  0  0  0  0  0  0  0
  -26.6425    5.5648  -30.6395 O   0  0  0  0  0  0  0  0  0  0  0  0
  -28.2673    3.1528  -31.5164 H   0  0  0  0  0  0  0  0  0  0  0  0
  -26.4913    4.6561  -32.8223 C   0  0  0  0  0  0  0  0  0  0  0  0
  -27.5297    3.9680  -33.6936 C   0  0  0  0  0  0  0  0  0  0  0  0
  -27.4479    4.3776  -35.1461 C   0  0  0  0  0  0  0  0  0  0  0  0
  -28.5263    4.6122  -36.1462 C   0  0  0  0  0  0  0  0  0  0  0  0
  -27.8193    5.0044  -37.3836 C   0  0  0  0  0  0  0  0  0  0  0  0
  -26.5003    4.9920  -37.1174 N   0  0  0  0  0  0  0  0  0  0  0  0
  -26.2608    4.6339  -35.8262 C   0  0  0  0  0  0  0  0  0  0  0  0
  -28.5635    5.2974  -38.5165 C   0  0  0  0  0  0  0  0  0  0  0  0
  -29.9479    5.2126  -38.4497 C   0  0  0  0  0  0  0  0  0  0  0  0
  -30.6124    4.8537  -37.2774 C   0  0  0  0  0  0  0  0  0  0  0  0
  -29.9192    4.5402  -36.1140 C   0  0  0  0  0  0  0  0  0  0  0  0
  -25.7991    5.2134  -37.7720 H   0  0  0  0  0  0  0  0  0  0  0  0
 14 21  1  0  0  0
 14 10  2  0  0  0
 21 11  2  0  0  0
 10 17  1  0  0  0
 11 17  1  0  0  0
 11 12  1  0  0  0
 17 15  1  0  0  0
 12 19  1  0  0  0
 12 13  2  0  0  0
 19 16  2  0  0  0
 15 18  2  0  0  0
 13 18  1  0  0  0
 13 20  1  0  0  0
 16 20  1  0  0  0
 20  1  1  0  0  0
  1  3  1  0  0  0
  1  2  1  0  0  0
  4  3  1  0  0  0
  3  5  1  0  0  0
  2  7  1  0  0  0
  5  7  1  0  0  0
  5  6  1  0  0  0
  7 22  1  0  0  0
 22 23  1  0  0  0
 29 28  2  0  0  0
 23 24  1  0  0  0
 26 24  2  0  0  0
 37 36  1  0  0  0
 37 33  2  0  0  0
 24 27  1  0  0  0
 24 25  2  0  0  0
 32 33  1  0  0  0
 32 31  1  0  0  0
 28 27  1  0  0  0
 28 31  1  0  0  0
 36 35  1  0  0  0
 33 34  1  0  0  0
 35 34  2  0  0  0
 35 38  1  0  0  0
 34 41  1  0  0  0
 38 39  2  0  0  0
 41 40  2  0  0  0
 39 40  1  0  0  0
 27 30  1  0  0  0
  4  8  1  0  0  0
  6  9  1  0  0  0
 36 42  1  0  0  0
M  END
> <minimizedAffinity>
-10.09286

$$$$
5I2E_67D_A_201


 42 47  0  0  0  0  0  0  0  0999 V2000
  -29.8655    6.7148  -25.6046 C   0  0  0  0  0  0  0  0  0  0  0  0
  -29.9745    7.6889  -26.6015 O   0  0  0  0  0  0  0  0  0  0  0  0
  -30.1902    5.4053  -26.3141 C   0  0  0  0  0  0  0  0  0  0  0  0
  -29.7679    4.2788  -25.5722 O   0  0  0  0  0  0  0  0  0  0  0  0
  -29.4757    5.6073  -27.6635 C   0  0  0  0  0  0  0  0  0  0  0  0
  -28.1491    5.0737  -27.6128 O   0  0  0  0  0  0  0  0  0  0  0  0
  -29.4167    7.1379  -27.8182 C   0  0  0  0  0  0  0  0  0  0  0  0
  -28.8171    4.3477  -25.3927 H   0  0  0  0  0  0  0  0  0  0  0  0
  -27.6593    5.4933  -26.8883 H   0  0  0  0  0  0  0  0  0  0  0  0
  -34.7018   10.6221  -23.6297 C   0  0  0  0  0  0  0  0  0  0  0  0
  -33.3769    9.0390  -23.1401 C   0  0  0  0  0  0  0  0  0  0  0  0
  -32.3092    8.0549  -23.3349 C   0  0  0  0  0  0  0  0  0  0  0  0
  -31.6474    8.0363  -24.6181 C   0  0  0  0  0  0  0  0  0  0  0  0
  -34.9257   10.2084  -22.3171 C   0  0  0  0  0  0  0  0  0  0  0  0
  -33.0659    9.8005  -25.3133 C   0  0  0  0  0  0  0  0  0  0  0  0
  -30.8351    6.5285  -23.2502 C   0  0  0  0  0  0  0  0  0  0  0  0
  -33.7198    9.8605  -24.1262 N   0  0  0  0  0  0  0  0  0  0  0  0
  -32.0698    8.9166  -25.5666 N   0  0  0  0  0  0  0  0  0  0  0  0
  -31.8035    7.1360  -22.4964 N   0  0  0  0  0  0  0  0  0  0  0  0
  -30.7462    7.0719  -24.4942 N   0  0  0  0  0  0  0  0  0  0  0  0
  -34.0767    9.1956  -22.0041 N   0  0  0  0  0  0  0  0  0  0  0  0
  -30.1412    7.6945  -29.0137 C   0  0  0  0  0  0  0  0  0  0  0  0
  -31.5388    7.4089  -28.9098 O   0  0  0  0  0  0  0  0  0  0  0  0
  -32.2844    6.5335  -29.9269 S   0  0  0  0  0  0  0  0  0  0  0  0
  -33.3976    7.2716  -30.4345 O   0  0  0  0  0  0  0  0  0  0  0  0
  -32.7234    5.3140  -29.2933 O   0  0  0  0  0  0  0  0  0  0  0  0
  -31.3956    6.2654  -31.2196 N   0  0  0  0  0  0  0  0  0  0  0  0
  -31.5133    5.0767  -31.7727 C   0  0  0  0  0  0  0  0  0  0  0  0
  -32.5836    4.5131  -31.8512 O   0  0  0  0  0  0  0  0  0  0  0  0
  -30.7910    6.9509  -31.5855 H   0  0  0  0  0  0  0  0  0  0  0  0
  -30.2528    4.4281  -32.2680 C   0  0  0  0  0  0  0  0  0  0  0  0
  -29.1996    4.6515  -31.1949 C   0  0  0  0  0  0  0  0  0  0  0  0
  -27.7926    4.6872  -31.7456 C   0  0  0  0  0  0  0  0  0  0  0  0
  -27.2915    4.4706  -33.1314 C   0  0  0  0  0  0  0  0  0  0  0  0
  -25.8275    4.6525  -33.0396 C   0  0  0  0  0  0  0  0  0  0  0  0
  -25.5345    4.9362  -31.7573 N   0  0  0  0  0  0  0  0  0  0  0  0
  -26.6577    4.9640  -30.9889 C   0  0  0  0  0  0  0  0  0  0  0  0
  -25.0619    4.5155  -34.1878 C   0  0  0  0  0  0  0  0  0  0  0  0
  -25.6970    4.2124  -35.3848 C   0  0  0  0  0  0  0  0  0  0  0  0
  -27.0797    4.0531  -35.4703 C   0  0  0  0  0  0  0  0  0  0  0  0
  -27.8969    4.1695  -34.3517 C   0  0  0  0  0  0  0  0  0  0  0  0
  -24.6251    5.1022  -31.4186 H   0  0  0  0  0  0  0  0  0  0  0  0
 14 21  1  0  0  0
 14 10  2  0  0  0
 21 11  2  0  0  0
 10 17  1  0  0  0
 11 17  1  0  0  0
 11 12  1  0  0  0
 17 15  1  0  0  0
 12 19  1  0  0  0
 12 13  2  0  0  0
 19 16  2  0  0  0
 15 18  2  0  0  0
 13 18  1  0  0  0
 13 20  1  0  0  0
 16 20  1  0  0  0
 20  1  1  0  0  0
  1  3  1  0  0  0
  1  2  1  0  0  0
  4  3  1  0  0  0
  3  5  1  0  0  0
  2  7  1  0  0  0
  5  7  1  0  0  0
  5  6  1  0  0  0
  7 22  1  0  0  0
 22 23  1  0  0  0
 29 28  2  0  0  0
 23 24  1  0  0  0
 26 24  2  0  0  0
 37 36  1  0  0  0
 37 33  2  0  0  0
 24 27  1  0  0  0
 24 25  2  0  0  0
 32 33  1  0  0  0
 32 31  1  0  0  0
 28 27  1  0  0  0
 28 31  1  0  0  0
 36 35  1  0  0  0
 33 34  1  0  0  0
 35 34  2  0  0  0
 35 38  1  0  0  0
 34 41  1  0  0  0
 38 39  2  0  0  0
 41 40  2  0  0  0
 39 40  1  0  0  0
 27 30  1  0  0  0
  4  8  1  0  0  0
  6  9  1  0  0  0
 36 42  1  0  0  0
M  END
> <minimizedAffinity>
-10.00439

$$$$
5I2E_67D_A_201


 42 47  0  0  0  0  0  0  0  0999 V2000
  -31.0085    9.1279  -28.7713 C   0  0  0  0  0  0  0  0  0  0  0  0
  -29.9740    8.3766  -28.2058 O   0  0  0  0  0  0  0  0  0  0  0  0
  -31.7974    9.6504  -27.5762 C   0  0  0  0  0  0  0  0  0  0  0  0
  -32.6447   10.7261  -27.9265 O   0  0  0  0  0  0  0  0  0  0  0  0
  -30.6630   10.0018  -26.5954 C   0  0  0  0  0  0  0  0  0  0  0  0
  -30.2773   11.3714  -26.7454 O   0  0  0  0  0  0  0  0  0  0  0  0
  -29.5071    9.0836  -27.0323 C   0  0  0  0  0  0  0  0  0  0  0  0
  -32.1184   11.4344  -28.3292 H   0  0  0  0  0  0  0  0  0  0  0  0
  -30.0119   11.5338  -27.6642 H   0  0  0  0  0  0  0  0  0  0  0  0
  -33.0113    8.4143  -34.9386 C   0  0  0  0  0  0  0  0  0  0  0  0
  -32.9687    7.6130  -32.9746 C   0  0  0  0  0  0  0  0  0  0  0  0
  -32.6442    7.5363  -31.5480 C   0  0  0  0  0  0  0  0  0  0  0  0
  -31.8794    8.6216  -30.9803 C   0  0  0  0  0  0  0  0  0  0  0  0
  -33.7108    7.2086  -34.9057 C   0  0  0  0  0  0  0  0  0  0  0  0
  -31.8322    9.6345  -33.1202 C   0  0  0  0  0  0  0  0  0  0  0  0
  -32.3744    7.0937  -29.4885 C   0  0  0  0  0  0  0  0  0  0  0  0
  -32.5491    8.6414  -33.7034 N   0  0  0  0  0  0  0  0  0  0  0  0
  -31.4936    9.6312  -31.8076 N   0  0  0  0  0  0  0  0  0  0  0  0
  -32.9533    6.6065  -30.6298 N   0  0  0  0  0  0  0  0  0  0  0  0
  -31.7523    8.2841  -29.7045 N   0  0  0  0  0  0  0  0  0  0  0  0
  -33.6840    6.6967  -33.6480 N   0  0  0  0  0  0  0  0  0  0  0  0
  -29.0350    8.1015  -25.9946 C   0  0  0  0  0  0  0  0  0  0  0  0
  -30.1025    7.7995  -25.0919 O   0  0  0  0  0  0  0  0  0  0  0  0
  -30.9003    6.4897  -25.1593 S   0  0  0  0  0  0  0  0  0  0  0  0
  -32.2943    6.8027  -25.1321 O   0  0  0  0  0  0  0  0  0  0  0  0
  -30.5431    5.6419  -24.0480 O   0  0  0  0  0  0  0  0  0  0  0  0
  -30.7089    5.7683  -26.5650 N   0  0  0  0  0  0  0  0  0  0  0  0
  -30.4907    4.4707  -26.5304 C   0  0  0  0  0  0  0  0  0  0  0  0
  -31.0609    3.7491  -25.7407 O   0  0  0  0  0  0  0  0  0  0  0  0
  -30.7513    6.2653  -27.4138 H   0  0  0  0  0  0  0  0  0  0  0  0
  -29.4705    3.9257  -27.4879 C   0  0  0  0  0  0  0  0  0  0  0  0
  -29.0759    5.0749  -28.4014 C   0  0  0  0  0  0  0  0  0  0  0  0
  -29.1097    4.7042  -29.8663 C   0  0  0  0  0  0  0  0  0  0  0  0
  -28.0307    4.7224  -30.8928 C   0  0  0  0  0  0  0  0  0  0  0  0
  -28.6751    4.2366  -32.1311 C   0  0  0  0  0  0  0  0  0  0  0  0
  -29.9632    3.9762  -31.8418 N   0  0  0  0  0  0  0  0  0  0  0  0
  -30.2379    4.2375  -30.5345 C   0  0  0  0  0  0  0  0  0  0  0  0
  -27.9152    4.1350  -33.2867 C   0  0  0  0  0  0  0  0  0  0  0  0
  -26.5743    4.4929  -33.2409 C   0  0  0  0  0  0  0  0  0  0  0  0
  -25.9664    4.9397  -32.0680 C   0  0  0  0  0  0  0  0  0  0  0  0
  -26.6798    5.0706  -30.8821 C   0  0  0  0  0  0  0  0  0  0  0  0
  -30.6219    3.6402  -32.4918 H   0  0  0  0  0  0  0  0  0  0  0  0
 14 21  1  0  0  0
 14 10  2  0  0  0
 21 11  2  0  0  0
 10 17  1  0  0  0
 11 17  1  0  0  0
 11 12  1  0  0  0
 17 15  1  0  0  0
 12 19  1  0  0  0
 12 13  2  0  0  0
 19 16  2  0  0  0
 15 18  2  0  0  0
 13 18  1  0  0  0
 13 20  1  0  0  0
 16 20  1  0  0  0
 20  1  1  0  0  0
  1  3  1  0  0  0
  1  2  1  0  0  0
  4  3  1  0  0  0
  3  5  1  0  0  0
  2  7  1  0  0  0
  5  7  1  0  0  0
  5  6  1  0  0  0
  7 22  1  0  0  0
 22 23  1  0  0  0
 29 28  2  0  0  0
 23 24  1  0  0  0
 26 24  2  0  0  0
 37 36  1  0  0  0
 37 33  2  0  0  0
 24 27  1  0  0  0
 24 25  2  0  0  0
 32 33  1  0  0  0
 32 31  1  0  0  0
 28 27  1  0  0  0
 28 31  1  0  0  0
 36 35  1  0  0  0
 33 34  1  0  0  0
 35 34  2  0  0  0
 35 38  1  0  0  0
 34 41  1  0  0  0
 38 39  2  0  0  0
 41 40  2  0  0  0
 39 40  1  0  0  0
 27 30  1  0  0  0
  4  8  1  0  0  0
  6  9  1  0  0  0
 36 42  1  0  0  0
M  END
> <minimizedAffinity>
-9.67542

$$$$
5I2E_67D_A_201


 42 47  0  0  0  0  0  0  0  0999 V2000
  -33.4856    8.4902  -24.1406 C   0  0  0  0  0  0  0  0  0  0  0  0
  -32.4876    7.5248  -23.9782 O   0  0  0  0  0  0  0  0  0  0  0  0
  -32.8185    9.5955  -24.9510 C   0  0  0  0  0  0  0  0  0  0  0  0
  -33.7618   10.4729  -25.5326 O   0  0  0  0  0  0  0  0  0  0  0  0
  -31.9827    8.7748  -25.9510 C   0  0  0  0  0  0  0  0  0  0  0  0
  -32.7221    8.5484  -27.1548 O   0  0  0  0  0  0  0  0  0  0  0  0
  -31.7518    7.4389  -25.2217 C   0  0  0  0  0  0  0  0  0  0  0  0
  -34.3788    9.9656  -26.0830 H   0  0  0  0  0  0  0  0  0  0  0  0
  -33.5565    8.1016  -26.9426 H   0  0  0  0  0  0  0  0  0  0  0  0
  -38.4741   11.1136  -20.8560 C   0  0  0  0  0  0  0  0  0  0  0  0
  -36.5376   10.2517  -20.7660 C   0  0  0  0  0  0  0  0  0  0  0  0
  -35.3023    9.6377  -21.2593 C   0  0  0  0  0  0  0  0  0  0  0  0
  -35.1848    9.4304  -22.6834 C   0  0  0  0  0  0  0  0  0  0  0  0
  -38.0350   11.0771  -19.5331 C   0  0  0  0  0  0  0  0  0  0  0  0
  -37.3463   10.3627  -22.9416 C   0  0  0  0  0  0  0  0  0  0  0  0
  -33.4045    8.7482  -21.6019 C   0  0  0  0  0  0  0  0  0  0  0  0
  -37.5076   10.5801  -21.6122 N   0  0  0  0  0  0  0  0  0  0  0  0
  -36.2328    9.7985  -23.4702 N   0  0  0  0  0  0  0  0  0  0  0  0
  -34.2065    9.2268  -20.6006 N   0  0  0  0  0  0  0  0  0  0  0  0
  -33.9867    8.8807  -22.8243 N   0  0  0  0  0  0  0  0  0  0  0  0
  -36.7950   10.5261  -19.4763 N   0  0  0  0  0  0  0  0  0  0  0  0
  -30.3134    7.0944  -24.9449 C   0  0  0  0  0  0  0  0  0  0  0  0
  -29.5428    7.2336  -26.1416 O   0  0  0  0  0  0  0  0  0  0  0  0
  -29.3346    6.0801  -27.1329 S   0  0  0  0  0  0  0  0  0  0  0  0
  -30.5614    5.3581  -27.2568 O   0  0  0  0  0  0  0  0  0  0  0  0
  -28.2769    5.2178  -26.6646 O   0  0  0  0  0  0  0  0  0  0  0  0
  -29.0731    6.6241  -28.6056 N   0  0  0  0  0  0  0  0  0  0  0  0
  -30.0759    6.5220  -29.4522 C   0  0  0  0  0  0  0  0  0  0  0  0
  -31.2222    6.7166  -29.1094 O   0  0  0  0  0  0  0  0  0  0  0  0
  -28.2089    7.0154  -28.8688 H   0  0  0  0  0  0  0  0  0  0  0  0
  -29.7417    6.1126  -30.8577 C   0  0  0  0  0  0  0  0  0  0  0  0
  -29.0160    4.7804  -30.7603 C   0  0  0  0  0  0  0  0  0  0  0  0
  -27.7144    4.7586  -31.5282 C   0  0  0  0  0  0  0  0  0  0  0  0
  -27.4493    4.5184  -32.9741 C   0  0  0  0  0  0  0  0  0  0  0  0
  -25.9835    4.6422  -33.1180 C   0  0  0  0  0  0  0  0  0  0  0  0
  -25.4790    4.9175  -31.9013 N   0  0  0  0  0  0  0  0  0  0  0  0
  -26.4636    4.9921  -30.9643 C   0  0  0  0  0  0  0  0  0  0  0  0
  -25.4165    4.4717  -34.3721 C   0  0  0  0  0  0  0  0  0  0  0  0
  -26.2455    4.1909  -35.4501 C   0  0  0  0  0  0  0  0  0  0  0  0
  -27.6293    4.0865  -35.3130 C   0  0  0  0  0  0  0  0  0  0  0  0
  -28.2526    4.2383  -34.0798 C   0  0  0  0  0  0  0  0  0  0  0  0
  -24.5215    5.0481  -31.7131 H   0  0  0  0  0  0  0  0  0  0  0  0
 14 21  1  0  0  0
 14 10  2  0  0  0
 21 11  2  0  0  0
 10 17  1  0  0  0
 11 17  1  0  0  0
 11 12  1  0  0  0
 17 15  1  0  0  0
 12 19  1  0  0  0
 12 13  2  0  0  0
 19 16  2  0  0  0
 15 18  2  0  0  0
 13 18  1  0  0  0
 13 20  1  0  0  0
 16 20  1  0  0  0
 20  1  1  0  0  0
  1  3  1  0  0  0
  1  2  1  0  0  0
  4  3  1  0  0  0
  3  5  1  0  0  0
  2  7  1  0  0  0
  5  7  1  0  0  0
  5  6  1  0  0  0
  7 22  1  0  0  0
 22 23  1  0  0  0
 29 28  2  0  0  0
 23 24  1  0  0  0
 26 24  2  0  0  0
 37 36  1  0  0  0
 37 33  2  0  0  0
 24 27  1  0  0  0
 24 25  2  0  0  0
 32 33  1  0  0  0
 32 31  1  0  0  0
 28 27  1  0  0  0
 28 31  1  0  0  0
 36 35  1  0  0  0
 33 34  1  0  0  0
 35 34  2  0  0  0
 35 38  1  0  0  0
 34 41  1  0  0  0
 38 39  2  0  0  0
 41 40  2  0  0  0
 39 40  1  0  0  0
 27 30  1  0  0  0
  4  8  1  0  0  0
  6  9  1  0  0  0
 36 42  1  0  0  0
M  END
> <minimizedAffinity>
-9.47974

$$$$
5I2E_67D_A_201


 42 47  0  0  0  0  0  0  0  0999 V2000
  -30.9222    7.8915  -26.5675 C   0  0  0  0  0  0  0  0  0  0  0  0
  -31.7948    7.1137  -27.3342 O   0  0  0  0  0  0  0  0  0  0  0  0
  -29.5326    7.3973  -26.9525 C   0  0  0  0  0  0  0  0  0  0  0  0
  -28.5196    8.3068  -26.5722 O   0  0  0  0  0  0  0  0  0  0  0  0
  -29.6943    7.1929  -28.4704 C   0  0  0  0  0  0  0  0  0  0  0  0
  -29.3040    8.3729  -29.1792 O   0  0  0  0  0  0  0  0  0  0  0  0
  -31.2050    6.9544  -28.6464 C   0  0  0  0  0  0  0  0  0  0  0  0
  -28.6992    9.1744  -26.9671 H   0  0  0  0  0  0  0  0  0  0  0  0
  -29.8293    9.1262  -28.8671 H   0  0  0  0  0  0  0  0  0  0  0  0
  -34.7153   10.1065  -21.7444 C   0  0  0  0  0  0  0  0  0  0  0  0
  -33.2152    8.7311  -22.3434 C   0  0  0  0  0  0  0  0  0  0  0  0
  -32.2698    8.0607  -23.2396 C   0  0  0  0  0  0  0  0  0  0  0  0
  -32.2046    8.5246  -24.6055 C   0  0  0  0  0  0  0  0  0  0  0  0
  -34.3455    9.3105  -20.6610 C   0  0  0  0  0  0  0  0  0  0  0  0
  -33.8863   10.1099  -24.0893 C   0  0  0  0  0  0  0  0  0  0  0  0
  -30.8069    6.8792  -24.2264 C   0  0  0  0  0  0  0  0  0  0  0  0
  -33.9869    9.7132  -22.7958 N   0  0  0  0  0  0  0  0  0  0  0  0
  -33.0363    9.5365  -24.9759 N   0  0  0  0  0  0  0  0  0  0  0  0
  -31.4062    7.0587  -23.0085 N   0  0  0  0  0  0  0  0  0  0  0  0
  -31.2783    7.7528  -25.1567 N   0  0  0  0  0  0  0  0  0  0  0  0
  -33.3845    8.4309  -21.0449 N   0  0  0  0  0  0  0  0  0  0  0  0
  -31.5849    5.6169  -29.2217 C   0  0  0  0  0  0  0  0  0  0  0  0
  -32.9966    5.4214  -29.1026 O   0  0  0  0  0  0  0  0  0  0  0  0
  -33.9770    5.7400  -30.2402 S   0  0  0  0  0  0  0  0  0  0  0  0
  -34.1945    7.1518  -30.2729 O   0  0  0  0  0  0  0  0  0  0  0  0
  -35.2175    5.0346  -30.0284 O   0  0  0  0  0  0  0  0  0  0  0  0
  -33.3324    5.4302  -31.6620 N   0  0  0  0  0  0  0  0  0  0  0  0
  -33.2286    4.1601  -31.9917 C   0  0  0  0  0  0  0  0  0  0  0  0
  -34.0949    3.3575  -31.7182 O   0  0  0  0  0  0  0  0  0  0  0  0
  -33.0280    6.1490  -32.2619 H   0  0  0  0  0  0  0  0  0  0  0  0
  -31.9673    3.7381  -32.6885 C   0  0  0  0  0  0  0  0  0  0  0  0
  -31.1804    5.0085  -32.9677 C   0  0  0  0  0  0  0  0  0  0  0  0
  -29.7249    4.7460  -33.2789 C   0  0  0  0  0  0  0  0  0  0  0  0
  -28.5143    4.8774  -32.4212 C   0  0  0  0  0  0  0  0  0  0  0  0
  -27.3889    4.4623  -33.2849 C   0  0  0  0  0  0  0  0  0  0  0  0
  -27.8995    4.1368  -34.4865 N   0  0  0  0  0  0  0  0  0  0  0  0
  -29.2518    4.2911  -34.5063 C   0  0  0  0  0  0  0  0  0  0  0  0
  -26.1042    4.4729  -32.7628 C   0  0  0  0  0  0  0  0  0  0  0  0
  -25.9189    4.8726  -31.4460 C   0  0  0  0  0  0  0  0  0  0  0  0
  -26.9843    5.2523  -30.6301 C   0  0  0  0  0  0  0  0  0  0  0  0
  -28.2920    5.2705  -31.1012 C   0  0  0  0  0  0  0  0  0  0  0  0
  -27.3642    3.8271  -35.2525 H   0  0  0  0  0  0  0  0  0  0  0  0
 14 21  1  0  0  0
 14 10  2  0  0  0
 21 11  2  0  0  0
 10 17  1  0  0  0
 11 17  1  0  0  0
 11 12  1  0  0  0
 17 15  1  0  0  0
 12 19  1  0  0  0
 12 13  2  0  0  0
 19 16  2  0  0  0
 15 18  2  0  0  0
 13 18  1  0  0  0
 13 20  1  0  0  0
 16 20  1  0  0  0
 20  1  1  0  0  0
  1  3  1  0  0  0
  1  2  1  0  0  0
  4  3  1  0  0  0
  3  5  1  0  0  0
  2  7  1  0  0  0
  5  7  1  0  0  0
  5  6  1  0  0  0
  7 22  1  0  0  0
 22 23  1  0  0  0
 29 28  2  0  0  0
 23 24  1  0  0  0
 26 24  2  0  0  0
 37 36  1  0  0  0
 37 33  2  0  0  0
 24 27  1  0  0  0
 24 25  2  0  0  0
 32 33  1  0  0  0
 32 31  1  0  0  0
 28 27  1  0  0  0
 28 31  1  0  0  0
 36 35  1  0  0  0
 33 34  1  0  0  0
 35 34  2  0  0  0
 35 38  1  0  0  0
 34 41  1  0  0  0
 38 39  2  0  0  0
 41 40  2  0  0  0
 39 40  1  0  0  0
 27 30  1  0  0  0
  4  8  1  0  0  0
  6  9  1  0  0  0
 36 42  1  0  0  0
M  END
> <minimizedAffinity>
-9.36661

$$$$
5I2E_67D_A_201


 42 47  0  0  0  0  0  0  0  0999 V2000
  -31.1083    9.1499  -28.7801 C   0  0  0  0  0  0  0  0  0  0  0  0
  -30.9461    8.2113  -27.7567 O   0  0  0  0  0  0  0  0  0  0  0  0
  -31.9857   10.2350  -28.1667 C   0  0  0  0  0  0  0  0  0  0  0  0
  -31.9471   11.4355  -28.9117 O   0  0  0  0  0  0  0  0  0  0  0  0
  -31.4027   10.3269  -26.7441 C   0  0  0  0  0  0  0  0  0  0  0  0
  -30.3844   11.3302  -26.6839 O   0  0  0  0  0  0  0  0  0  0  0  0
  -30.7801    8.9376  -26.5157 C   0  0  0  0  0  0  0  0  0  0  0  0
  -31.0287   11.7377  -28.9906 H   0  0  0  0  0  0  0  0  0  0  0  0
  -29.6942   11.1300  -27.3355 H   0  0  0  0  0  0  0  0  0  0  0  0
  -36.0916    5.6617  -31.1371 C   0  0  0  0  0  0  0  0  0  0  0  0
  -34.2243    6.5905  -31.5269 C   0  0  0  0  0  0  0  0  0  0  0  0
  -33.0061    7.3556  -31.2494 C   0  0  0  0  0  0  0  0  0  0  0  0
  -32.8218    7.8487  -29.9048 C   0  0  0  0  0  0  0  0  0  0  0  0
  -35.7318    5.4571  -32.4686 C   0  0  0  0  0  0  0  0  0  0  0  0
  -34.8990    6.8726  -29.3213 C   0  0  0  0  0  0  0  0  0  0  0  0
  -31.1547    8.3955  -31.2188 C   0  0  0  0  0  0  0  0  0  0  0  0
  -35.1209    6.3861  -30.5682 N   0  0  0  0  0  0  0  0  0  0  0  0
  -33.7969    7.5895  -28.9911 N   0  0  0  0  0  0  0  0  0  0  0  0
  -31.9791    7.6847  -32.0495 N   0  0  0  0  0  0  0  0  0  0  0  0
  -31.6565    8.4786  -29.9570 N   0  0  0  0  0  0  0  0  0  0  0  0
  -34.5360    6.0511  -32.7172 N   0  0  0  0  0  0  0  0  0  0  0  0
  -31.3643    8.1477  -25.3760 C   0  0  0  0  0  0  0  0  0  0  0  0
  -30.4274    7.1581  -24.9417 O   0  0  0  0  0  0  0  0  0  0  0  0
  -30.8597    5.7944  -24.3849 S   0  0  0  0  0  0  0  0  0  0  0  0
  -32.2811    5.6899  -24.4868 O   0  0  0  0  0  0  0  0  0  0  0  0
  -30.4332    5.6692  -23.0124 O   0  0  0  0  0  0  0  0  0  0  0  0
  -30.3330    4.6035  -25.3001 N   0  0  0  0  0  0  0  0  0  0  0  0
  -29.6861    4.9494  -26.3931 C   0  0  0  0  0  0  0  0  0  0  0  0
  -28.9197    5.8883  -26.4104 O   0  0  0  0  0  0  0  0  0  0  0  0
  -30.4827    3.6601  -25.0617 H   0  0  0  0  0  0  0  0  0  0  0  0
  -29.9703    4.1525  -27.6336 C   0  0  0  0  0  0  0  0  0  0  0  0
  -30.5014    5.1331  -28.6667 C   0  0  0  0  0  0  0  0  0  0  0  0
  -30.0788    4.7926  -30.0773 C   0  0  0  0  0  0  0  0  0  0  0  0
  -28.7361    4.8351  -30.7207 C   0  0  0  0  0  0  0  0  0  0  0  0
  -28.9632    4.3730  -32.1062 C   0  0  0  0  0  0  0  0  0  0  0  0
  -30.2753    4.1029  -32.2330 N   0  0  0  0  0  0  0  0  0  0  0  0
  -30.9418    4.3364  -31.0693 C   0  0  0  0  0  0  0  0  0  0  0  0
  -27.8832    4.2976  -32.9730 C   0  0  0  0  0  0  0  0  0  0  0  0
  -26.6251    4.6584  -32.5094 C   0  0  0  0  0  0  0  0  0  0  0  0
  -26.4123    5.0828  -31.1981 C   0  0  0  0  0  0  0  0  0  0  0  0
  -27.4575    5.1871  -30.2876 C   0  0  0  0  0  0  0  0  0  0  0  0
  -30.6986    3.7783  -33.0605 H   0  0  0  0  0  0  0  0  0  0  0  0
 14 21  1  0  0  0
 14 10  2  0  0  0
 21 11  2  0  0  0
 10 17  1  0  0  0
 11 17  1  0  0  0
 11 12  1  0  0  0
 17 15  1  0  0  0
 12 19  1  0  0  0
 12 13  2  0  0  0
 19 16  2  0  0  0
 15 18  2  0  0  0
 13 18  1  0  0  0
 13 20  1  0  0  0
 16 20  1  0  0  0
 20  1  1  0  0  0
  1  3  1  0  0  0
  1  2  1  0  0  0
  4  3  1  0  0  0
  3  5  1  0  0  0
  2  7  1  0  0  0
  5  7  1  0  0  0
  5  6  1  0  0  0
  7 22  1  0  0  0
 22 23  1  0  0  0
 29 28  2  0  0  0
 23 24  1  0  0  0
 26 24  2  0  0  0
 37 36  1  0  0  0
 37 33  2  0  0  0
 24 27  1  0  0  0
 24 25  2  0  0  0
 32 33  1  0  0  0
 32 31  1  0  0  0
 28 27  1  0  0  0
 28 31  1  0  0  0
 36 35  1  0  0  0
 33 34  1  0  0  0
 35 34  2  0  0  0
 35 38  1  0  0  0
 34 41  1  0  0  0
 38 39  2  0  0  0
 41 40  2  0  0  0
 39 40  1  0  0  0
 27 30  1  0  0  0
  4  8  1  0  0  0
  6  9  1  0  0  0
 36 42  1  0  0  0
M  END
> <minimizedAffinity>
-9.13284

$$$$
5I2E_67D_A_201


 42 47  0  0  0  0  0  0  0  0999 V2000
  -34.2237   10.2954  -25.1570 C   0  0  0  0  0  0  0  0  0  0  0  0
  -34.0050    9.2582  -24.2454 O   0  0  0  0  0  0  0  0  0  0  0  0
  -33.0144   10.2495  -26.0838 C   0  0  0  0  0  0  0  0  0  0  0  0
  -33.2350   10.9646  -27.2829 O   0  0  0  0  0  0  0  0  0  0  0  0
  -32.8199    8.7310  -26.2521 C   0  0  0  0  0  0  0  0  0  0  0  0
  -33.5278    8.2597  -27.4028 O   0  0  0  0  0  0  0  0  0  0  0  0
  -33.4468    8.1404  -24.9761 C   0  0  0  0  0  0  0  0  0  0  0  0
  -34.0237   10.6158  -27.7269 H   0  0  0  0  0  0  0  0  0  0  0  0
  -34.4669    8.4879  -27.3205 H   0  0  0  0  0  0  0  0  0  0  0  0
  -36.1035   12.9612  -19.5075 C   0  0  0  0  0  0  0  0  0  0  0  0
  -35.3550   13.2802  -21.4669 C   0  0  0  0  0  0  0  0  0  0  0  0
  -34.8841   12.9374  -22.8112 C   0  0  0  0  0  0  0  0  0  0  0  0
  -34.8671   11.5399  -23.1741 C   0  0  0  0  0  0  0  0  0  0  0  0
  -35.9254   14.3264  -19.7280 C   0  0  0  0  0  0  0  0  0  0  0  0
  -35.6930   11.0261  -21.0150 C   0  0  0  0  0  0  0  0  0  0  0  0
  -34.1610   12.8233  -24.8047 C   0  0  0  0  0  0  0  0  0  0  0  0
  -35.7295   12.3245  -20.6236 N   0  0  0  0  0  0  0  0  0  0  0  0
  -35.2686   10.6337  -22.2412 N   0  0  0  0  0  0  0  0  0  0  0  0
  -34.4594   13.7215  -23.8152 N   0  0  0  0  0  0  0  0  0  0  0  0
  -34.4127   11.5431  -24.4196 N   0  0  0  0  0  0  0  0  0  0  0  0
  -35.4472   14.5300  -20.9828 N   0  0  0  0  0  0  0  0  0  0  0  0
  -32.5056    7.3674  -24.0924 C   0  0  0  0  0  0  0  0  0  0  0  0
  -32.0311    6.2097  -24.7852 O   0  0  0  0  0  0  0  0  0  0  0  0
  -31.1259    5.1606  -24.1244 S   0  0  0  0  0  0  0  0  0  0  0  0
  -31.9389    4.0753  -23.6740 O   0  0  0  0  0  0  0  0  0  0  0  0
  -30.4100    5.7568  -23.0228 O   0  0  0  0  0  0  0  0  0  0  0  0
  -30.1560    4.4820  -25.1882 N   0  0  0  0  0  0  0  0  0  0  0  0
  -29.8482    5.2066  -26.2432 C   0  0  0  0  0  0  0  0  0  0  0  0
  -29.6438    6.3985  -26.1605 O   0  0  0  0  0  0  0  0  0  0  0  0
  -29.8056    3.5704  -25.0641 H   0  0  0  0  0  0  0  0  0  0  0  0
  -29.8007    4.4977  -27.5661 C   0  0  0  0  0  0  0  0  0  0  0  0
  -29.0800    5.4263  -28.5299 C   0  0  0  0  0  0  0  0  0  0  0  0
  -29.0887    4.9221  -29.9547 C   0  0  0  0  0  0  0  0  0  0  0  0
  -27.9916    4.8448  -30.9592 C   0  0  0  0  0  0  0  0  0  0  0  0
  -28.6151    4.2472  -32.1587 C   0  0  0  0  0  0  0  0  0  0  0  0
  -29.9087    4.0154  -31.8696 N   0  0  0  0  0  0  0  0  0  0  0  0
  -30.2059    4.3964  -30.5970 C   0  0  0  0  0  0  0  0  0  0  0  0
  -27.8351    4.0390  -33.2863 C   0  0  0  0  0  0  0  0  0  0  0  0
  -26.4944    4.3989  -33.2497 C   0  0  0  0  0  0  0  0  0  0  0  0
  -25.9064    4.9516  -32.1124 C   0  0  0  0  0  0  0  0  0  0  0  0
  -26.6403    5.1918  -30.9565 C   0  0  0  0  0  0  0  0  0  0  0  0
  -30.5565    3.6212  -32.4974 H   0  0  0  0  0  0  0  0  0  0  0  0
 14 21  1  0  0  0
 14 10  2  0  0  0
 21 11  2  0  0  0
 10 17  1  0  0  0
 11 17  1  0  0  0
 11 12  1  0  0  0
 17 15  1  0  0  0
 12 19  1  0  0  0
 12 13  2  0  0  0
 19 16  2  0  0  0
 15 18  2  0  0  0
 13 18  1  0  0  0
 13 20  1  0  0  0
 16 20  1  0  0  0
 20  1  1  0  0  0
  1  3  1  0  0  0
  1  2  1  0  0  0
  4  3  1  0  0  0
  3  5  1  0  0  0
  2  7  1  0  0  0
  5  7  1  0  0  0
  5  6  1  0  0  0
  7 22  1  0  0  0
 22 23  1  0  0  0
 29 28  2  0  0  0
 23 24  1  0  0  0
 26 24  2  0  0  0
 37 36  1  0  0  0
 37 33  2  0  0  0
 24 27  1  0  0  0
 24 25  2  0  0  0
 32 33  1  0  0  0
 32 31  1  0  0  0
 28 27  1  0  0  0
 28 31  1  0  0  0
 36 35  1  0  0  0
 33 34  1  0  0  0
 35 34  2  0  0  0
 35 38  1  0  0  0
 34 41  1  0  0  0
 38 39  2  0  0  0
 41 40  2  0  0  0
 39 40  1  0  0  0
 27 30  1  0  0  0
  4  8  1  0  0  0
  6  9  1  0  0  0
 36 42  1  0  0  0
M  END
> <minimizedAffinity>
-8.97774

$$$$
