1PZI_1DM_D_104


 27 28  0  0  0  0  0  0  0  0999 V2000
   53.5178   19.5971   32.5700 C   0  0  0  0  0  0  0  0  0  0  0  0
   52.7994   20.4162   31.6265 O   0  0  0  0  0  0  0  0  0  0  0  0
   53.1395   21.8007   31.7580 C   0  0  0  0  0  0  0  0  0  0  0  0
   54.6312   22.0332   31.5178 C   0  0  0  0  0  0  0  0  0  0  0  0
   54.9857   21.6786   30.1646 O   0  0  0  0  0  0  0  0  0  0  0  0
   55.4612   21.2026   32.4862 C   0  0  0  0  0  0  0  0  0  0  0  0
   56.8495   21.3234   32.1540 O   0  0  0  0  0  0  0  0  0  0  0  0
   55.0354   19.7345   32.3849 C   0  0  0  0  0  0  0  0  0  0  0  0
   55.6758   19.0184   33.4161 O   0  0  0  0  0  0  0  0  0  0  0  0
   54.8021   20.7375   30.0183 H   0  0  0  0  0  0  0  0  0  0  0  0
   56.9942   21.0060   31.2490 H   0  0  0  0  0  0  0  0  0  0  0  0
   55.4127   19.3839   34.2752 H   0  0  0  0  0  0  0  0  0  0  0  0
   52.2570   22.5846   30.7856 C   0  0  0  0  0  0  0  0  0  0  0  0
   52.2335   21.8928   29.5220 O   0  0  0  0  0  0  0  0  0  0  0  0
   53.1363   21.8255   29.1735 H   0  0  0  0  0  0  0  0  0  0  0  0
   53.1917   19.9191   33.9329 O   0  0  0  0  0  0  0  0  0  0  0  0
   50.4115   17.6531   34.7553 C   0  0  0  0  0  0  0  0  0  0  0  0
   51.1703   18.6142   34.0866 C   0  0  0  0  0  0  0  0  0  0  0  0
   50.8986   17.0471   35.8973 C   0  0  0  0  0  0  0  0  0  0  0  0
   52.1432   17.4030   36.3871 C   0  0  0  0  0  0  0  0  0  0  0  0
   52.9006   18.3622   35.7236 C   0  0  0  0  0  0  0  0  0  0  0  0
   52.4247   18.9811   34.5740 C   0  0  0  0  0  0  0  0  0  0  0  0
   52.5830   16.8181   37.5063 N   0  0  0  0  0  0  0  0  0  0  0  0
   53.0325   17.5289   38.4097 O   0  0  0  0  0  0  0  0  0  0  0  0
   52.5538   15.5883   37.6165 O   0  0  0  0  0  0  0  0  0  0  0  0
   49.0380   17.2297   34.2565 C   0  0  0  0  0  0  0  0  0  0  0  0
   48.7787   16.0448   34.0893 O   0  0  0  0  0  0  0  0  0  0  0  0
 26 27  2  0  0  0
 26 17  1  0  0  0
 17 18  2  0  0  0
 17 19  1  0  0  0
 18 22  1  0  0  0
 19 20  2  0  0  0
 20 23  1  0  0  0
 20 21  1  0  0  0
 23 24  1  0  0  0
 23 25  2  0  0  0
 21 22  2  0  0  0
 22 16  1  0  0  0
 16  1  1  0  0  0
  1  2  1  0  0  0
  1  8  1  0  0  0
  2  3  1  0  0  0
  3 13  1  0  0  0
  3  4  1  0  0  0
 13 14  1  0  0  0
  4  5  1  0  0  0
  4  6  1  0  0  0
  6  7  1  0  0  0
  6  8  1  0  0  0
  8  9  1  0  0  0
 14 15  1  0  0  0
  5 10  1  0  0  0
  7 11  1  0  0  0
  9 12  1  0  0  0
M  CHG 1  23   1
M  CHG 1  24  -1
M  END
> <minimizedAffinity>
-7.20592

$$$$
1PZI_1DM_D_104


 27 28  0  0  0  0  0  0  0  0999 V2000
   52.0319   19.1740   34.9676 C   0  0  0  0  0  0  0  0  0  0  0  0
   50.7122   18.6069   34.8499 O   0  0  0  0  0  0  0  0  0  0  0  0
   50.7327   17.1815   34.9828 C   0  0  0  0  0  0  0  0  0  0  0  0
   51.2902   16.7565   36.3412 C   0  0  0  0  0  0  0  0  0  0  0  0
   50.4383   17.2281   37.4063 O   0  0  0  0  0  0  0  0  0  0  0  0
   52.6925   17.3144   36.5383 C   0  0  0  0  0  0  0  0  0  0  0  0
   53.1409   17.0268   37.8682 O   0  0  0  0  0  0  0  0  0  0  0  0
   52.6671   18.8309   36.3222 C   0  0  0  0  0  0  0  0  0  0  0  0
   53.9970   19.2975   36.3208 O   0  0  0  0  0  0  0  0  0  0  0  0
   50.4031   18.1973   37.3871 H   0  0  0  0  0  0  0  0  0  0  0  0
   52.5371   17.4351   38.5083 H   0  0  0  0  0  0  0  0  0  0  0  0
   54.4901   18.8664   35.6053 H   0  0  0  0  0  0  0  0  0  0  0  0
   49.3080   16.6779   34.7470 C   0  0  0  0  0  0  0  0  0  0  0  0
   49.1016   15.4891   35.5344 O   0  0  0  0  0  0  0  0  0  0  0  0
   49.7432   14.8111   35.2707 H   0  0  0  0  0  0  0  0  0  0  0  0
   52.9134   18.7287   33.9225 O   0  0  0  0  0  0  0  0  0  0  0  0
   54.4910   21.1509   31.6456 C   0  0  0  0  0  0  0  0  0  0  0  0
   54.3307   20.2408   32.6910 C   0  0  0  0  0  0  0  0  0  0  0  0
   53.4339   21.4461   30.8064 C   0  0  0  0  0  0  0  0  0  0  0  0
   52.2050   20.8429   31.0102 C   0  0  0  0  0  0  0  0  0  0  0  0
   52.0421   19.9370   32.0528 C   0  0  0  0  0  0  0  0  0  0  0  0
   53.0954   19.6297   32.9056 C   0  0  0  0  0  0  0  0  0  0  0  0
   51.1917   21.1618   30.1981 N   0  0  0  0  0  0  0  0  0  0  0  0
   51.4469   21.5347   29.0494 O   0  0  0  0  0  0  0  0  0  0  0  0
   50.0272   21.1000   30.6050 O   0  0  0  0  0  0  0  0  0  0  0  0
   55.8215   21.8400   31.3824 C   0  0  0  0  0  0  0  0  0  0  0  0
   56.8540   21.1857   31.3123 O   0  0  0  0  0  0  0  0  0  0  0  0
 26 27  2  0  0  0
 26 17  1  0  0  0
 17 18  2  0  0  0
 17 19  1  0  0  0
 18 22  1  0  0  0
 19 20  2  0  0  0
 20 23  1  0  0  0
 20 21  1  0  0  0
 23 24  1  0  0  0
 23 25  2  0  0  0
 21 22  2  0  0  0
 22 16  1  0  0  0
 16  1  1  0  0  0
  1  2  1  0  0  0
  1  8  1  0  0  0
  2  3  1  0  0  0
  3 13  1  0  0  0
  3  4  1  0  0  0
 13 14  1  0  0  0
  4  5  1  0  0  0
  4  6  1  0  0  0
  6  7  1  0  0  0
  6  8  1  0  0  0
  8  9  1  0  0  0
 14 15  1  0  0  0
  5 10  1  0  0  0
  7 11  1  0  0  0
  9 12  1  0  0  0
M  CHG 1  23   1
M  CHG 1  24  -1
M  END
> <minimizedAffinity>
-7.13247

$$$$
1PZI_1DM_D_104


 27 28  0  0  0  0  0  0  0  0999 V2000
   51.4174   18.8662   35.6040 C   0  0  0  0  0  0  0  0  0  0  0  0
   50.8070   19.4778   34.4506 O   0  0  0  0  0  0  0  0  0  0  0  0
   50.5571   18.5235   33.4128 C   0  0  0  0  0  0  0  0  0  0  0  0
   49.6183   17.4152   33.8895 C   0  0  0  0  0  0  0  0  0  0  0  0
   48.3256   17.9599   34.2281 O   0  0  0  0  0  0  0  0  0  0  0  0
   50.2002   16.7134   35.1082 C   0  0  0  0  0  0  0  0  0  0  0  0
   49.2459   15.7778   35.6243 O   0  0  0  0  0  0  0  0  0  0  0  0
   50.5287   17.7559   36.1818 C   0  0  0  0  0  0  0  0  0  0  0  0
   51.2366   17.1133   37.2172 O   0  0  0  0  0  0  0  0  0  0  0  0
   48.4236   18.6002   34.9501 H   0  0  0  0  0  0  0  0  0  0  0  0
   48.4363   16.2482   35.8774 H   0  0  0  0  0  0  0  0  0  0  0  0
   52.0541   16.7313   36.8613 H   0  0  0  0  0  0  0  0  0  0  0  0
   50.0032   19.2880   32.2097 C   0  0  0  0  0  0  0  0  0  0  0  0
   48.9154   20.1222   32.6529 O   0  0  0  0  0  0  0  0  0  0  0  0
   48.2220   19.5684   33.0445 H   0  0  0  0  0  0  0  0  0  0  0  0
   52.7102   18.3107   35.3083 O   0  0  0  0  0  0  0  0  0  0  0  0
   55.2043   20.7089   36.5607 C   0  0  0  0  0  0  0  0  0  0  0  0
   54.1475   19.7979   36.5469 C   0  0  0  0  0  0  0  0  0  0  0  0
   55.8668   21.0298   35.3916 C   0  0  0  0  0  0  0  0  0  0  0  0
   55.4733   20.4517   34.1973 C   0  0  0  0  0  0  0  0  0  0  0  0
   54.4189   19.5450   34.1806 C   0  0  0  0  0  0  0  0  0  0  0  0
   53.7422   19.2120   35.3477 C   0  0  0  0  0  0  0  0  0  0  0  0
   56.1161   20.7953   33.0761 N   0  0  0  0  0  0  0  0  0  0  0  0
   56.6512   21.9060   33.0159 O   0  0  0  0  0  0  0  0  0  0  0  0
   56.1513   20.0172   32.1177 O   0  0  0  0  0  0  0  0  0  0  0  0
   55.6724   21.3711   37.8478 C   0  0  0  0  0  0  0  0  0  0  0  0
   55.2398   20.9951   38.9298 O   0  0  0  0  0  0  0  0  0  0  0  0
 26 27  2  0  0  0
 26 17  1  0  0  0
 17 18  2  0  0  0
 17 19  1  0  0  0
 18 22  1  0  0  0
 19 20  2  0  0  0
 20 23  1  0  0  0
 20 21  1  0  0  0
 23 24  1  0  0  0
 23 25  2  0  0  0
 21 22  2  0  0  0
 22 16  1  0  0  0
 16  1  1  0  0  0
  1  2  1  0  0  0
  1  8  1  0  0  0
  2  3  1  0  0  0
  3 13  1  0  0  0
  3  4  1  0  0  0
 13 14  1  0  0  0
  4  5  1  0  0  0
  4  6  1  0  0  0
  6  7  1  0  0  0
  6  8  1  0  0  0
  8  9  1  0  0  0
 14 15  1  0  0  0
  5 10  1  0  0  0
  7 11  1  0  0  0
  9 12  1  0  0  0
M  CHG 1  23   1
M  CHG 1  24  -1
M  END
> <minimizedAffinity>
-7.09561

$$$$
1PZI_1DM_D_104


 27 28  0  0  0  0  0  0  0  0999 V2000
   51.3856   18.8276   35.6068 C   0  0  0  0  0  0  0  0  0  0  0  0
   50.7733   19.4440   34.4570 O   0  0  0  0  0  0  0  0  0  0  0  0
   50.5240   18.4944   33.4148 C   0  0  0  0  0  0  0  0  0  0  0  0
   49.5873   17.3823   33.8867 C   0  0  0  0  0  0  0  0  0  0  0  0
   48.2941   17.9232   34.2292 O   0  0  0  0  0  0  0  0  0  0  0  0
   50.1714   16.6754   35.1015 C   0  0  0  0  0  0  0  0  0  0  0  0
   49.2190   15.7358   35.6138 O   0  0  0  0  0  0  0  0  0  0  0  0
   50.4991   17.7131   36.1799 C   0  0  0  0  0  0  0  0  0  0  0  0
   51.2090   17.0665   37.2116 O   0  0  0  0  0  0  0  0  0  0  0  0
   48.3917   18.5601   34.9543 H   0  0  0  0  0  0  0  0  0  0  0  0
   48.4088   16.2036   35.8700 H   0  0  0  0  0  0  0  0  0  0  0  0
   52.0268   16.6876   36.8531 H   0  0  0  0  0  0  0  0  0  0  0  0
   49.9678   19.2639   32.2159 C   0  0  0  0  0  0  0  0  0  0  0  0
   48.8950   20.1124   32.6685 O   0  0  0  0  0  0  0  0  0  0  0  0
   48.1986   19.5679   33.0678 H   0  0  0  0  0  0  0  0  0  0  0  0
   52.6790   18.2756   35.3072 O   0  0  0  0  0  0  0  0  0  0  0  0
   55.4071   20.4992   34.2333 C   0  0  0  0  0  0  0  0  0  0  0  0
   54.3656   19.5726   34.1736 C   0  0  0  0  0  0  0  0  0  0  0  0
   55.7888   21.0462   35.4432 C   0  0  0  0  0  0  0  0  0  0  0  0
   55.1407   20.6649   36.6051 C   0  0  0  0  0  0  0  0  0  0  0  0
   54.1038   19.7399   36.5486 C   0  0  0  0  0  0  0  0  0  0  0  0
   53.7082   19.1805   35.3396 C   0  0  0  0  0  0  0  0  0  0  0  0
   55.5433   21.1919   37.7663 N   0  0  0  0  0  0  0  0  0  0  0  0
   54.9230   20.9057   38.7943 O   0  0  0  0  0  0  0  0  0  0  0  0
   56.5064   21.9646   37.7964 O   0  0  0  0  0  0  0  0  0  0  0  0
   56.1500   20.9485   32.9841 C   0  0  0  0  0  0  0  0  0  0  0  0
   56.2268   20.2099   32.0105 O   0  0  0  0  0  0  0  0  0  0  0  0
 26 27  2  0  0  0
 26 17  1  0  0  0
 17 18  2  0  0  0
 17 19  1  0  0  0
 18 22  1  0  0  0
 19 20  2  0  0  0
 20 23  1  0  0  0
 20 21  1  0  0  0
 23 24  1  0  0  0
 23 25  2  0  0  0
 21 22  2  0  0  0
 22 16  1  0  0  0
 16  1  1  0  0  0
  1  2  1  0  0  0
  1  8  1  0  0  0
  2  3  1  0  0  0
  3 13  1  0  0  0
  3  4  1  0  0  0
 13 14  1  0  0  0
  4  5  1  0  0  0
  4  6  1  0  0  0
  6  7  1  0  0  0
  6  8  1  0  0  0
  8  9  1  0  0  0
 14 15  1  0  0  0
  5 10  1  0  0  0
  7 11  1  0  0  0
  9 12  1  0  0  0
M  CHG 1  23   1
M  CHG 1  24  -1
M  END
> <minimizedAffinity>
-7.00353

$$$$
1PZI_1DM_D_104


 27 28  0  0  0  0  0  0  0  0999 V2000
   52.1352   19.1751   34.9758 C   0  0  0  0  0  0  0  0  0  0  0  0
   50.7916   18.6743   34.8311 O   0  0  0  0  0  0  0  0  0  0  0  0
   50.7414   17.2477   34.9424 C   0  0  0  0  0  0  0  0  0  0  0  0
   51.2579   16.7764   36.3018 C   0  0  0  0  0  0  0  0  0  0  0  0
   50.4142   17.2731   37.3620 O   0  0  0  0  0  0  0  0  0  0  0  0
   52.6824   17.2628   36.5268 C   0  0  0  0  0  0  0  0  0  0  0  0
   53.0969   16.9345   37.8582 O   0  0  0  0  0  0  0  0  0  0  0  0
   52.7333   18.7818   36.3337 C   0  0  0  0  0  0  0  0  0  0  0  0
   54.0840   19.1835   36.3578 O   0  0  0  0  0  0  0  0  0  0  0  0
   50.4261   18.2430   37.3572 H   0  0  0  0  0  0  0  0  0  0  0  0
   52.5043   17.3621   38.4961 H   0  0  0  0  0  0  0  0  0  0  0  0
   54.5662   18.7395   35.6428 H   0  0  0  0  0  0  0  0  0  0  0  0
   49.2977   16.8172   34.6791 C   0  0  0  0  0  0  0  0  0  0  0  0
   48.5874   17.9205   34.0842 O   0  0  0  0  0  0  0  0  0  0  0  0
   48.6046   18.6794   34.6881 H   0  0  0  0  0  0  0  0  0  0  0  0
   53.0094   18.7029   33.9363 O   0  0  0  0  0  0  0  0  0  0  0  0
   52.7262   21.1507   31.2034 C   0  0  0  0  0  0  0  0  0  0  0  0
   52.3685   20.1918   32.1519 C   0  0  0  0  0  0  0  0  0  0  0  0
   54.0369   21.5744   31.0966 C   0  0  0  0  0  0  0  0  0  0  0  0
   55.0033   21.0369   31.9289 C   0  0  0  0  0  0  0  0  0  0  0  0
   54.6496   20.0796   32.8736 C   0  0  0  0  0  0  0  0  0  0  0  0
   53.3359   19.6427   32.9934 C   0  0  0  0  0  0  0  0  0  0  0  0
   56.2685   21.4473   31.7910 N   0  0  0  0  0  0  0  0  0  0  0  0
   56.8500   21.2289   30.7244 O   0  0  0  0  0  0  0  0  0  0  0  0
   56.8418   22.0158   32.7257 O   0  0  0  0  0  0  0  0  0  0  0  0
   51.7004   21.7696   30.2660 C   0  0  0  0  0  0  0  0  0  0  0  0
   51.5387   21.3168   29.1399 O   0  0  0  0  0  0  0  0  0  0  0  0
 26 27  2  0  0  0
 26 17  1  0  0  0
 17 18  2  0  0  0
 17 19  1  0  0  0
 18 22  1  0  0  0
 19 20  2  0  0  0
 20 23  1  0  0  0
 20 21  1  0  0  0
 23 24  1  0  0  0
 23 25  2  0  0  0
 21 22  2  0  0  0
 22 16  1  0  0  0
 16  1  1  0  0  0
  1  2  1  0  0  0
  1  8  1  0  0  0
  2  3  1  0  0  0
  3 13  1  0  0  0
  3  4  1  0  0  0
 13 14  1  0  0  0
  4  5  1  0  0  0
  4  6  1  0  0  0
  6  7  1  0  0  0
  6  8  1  0  0  0
  8  9  1  0  0  0
 14 15  1  0  0  0
  5 10  1  0  0  0
  7 11  1  0  0  0
  9 12  1  0  0  0
M  CHG 1  23   1
M  CHG 1  24  -1
M  END
> <minimizedAffinity>
-6.97248

$$$$
1PZI_1DM_D_104


 27 28  0  0  0  0  0  0  0  0999 V2000
   54.1014   19.3439   36.0751 C   0  0  0  0  0  0  0  0  0  0  0  0
   54.7085   19.3852   34.7687 O   0  0  0  0  0  0  0  0  0  0  0  0
   54.8794   20.7288   34.3044 C   0  0  0  0  0  0  0  0  0  0  0  0
   55.7739   21.5342   35.2466 C   0  0  0  0  0  0  0  0  0  0  0  0
   57.1020   20.9709   35.2860 O   0  0  0  0  0  0  0  0  0  0  0  0
   55.1926   21.5432   36.6532 C   0  0  0  0  0  0  0  0  0  0  0  0
   56.1125   22.1791   37.5486 O   0  0  0  0  0  0  0  0  0  0  0  0
   54.9487   20.1006   37.1075 C   0  0  0  0  0  0  0  0  0  0  0  0
   54.2393   20.1365   38.3248 O   0  0  0  0  0  0  0  0  0  0  0  0
   57.0576   20.0614   35.6201 H   0  0  0  0  0  0  0  0  0  0  0  0
   56.9520   21.6932   37.5484 H   0  0  0  0  0  0  0  0  0  0  0  0
   53.3934   20.5926   38.1926 H   0  0  0  0  0  0  0  0  0  0  0  0
   55.4365   20.6556   32.8820 C   0  0  0  0  0  0  0  0  0  0  0  0
   56.1747   19.4269   32.7373 O   0  0  0  0  0  0  0  0  0  0  0  0
   56.8999   19.4076   33.3812 H   0  0  0  0  0  0  0  0  0  0  0  0
   52.7739   19.8966   36.0787 O   0  0  0  0  0  0  0  0  0  0  0  0
   50.4263   17.2069   35.1875 C   0  0  0  0  0  0  0  0  0  0  0  0
   51.3766   17.9403   35.8987 C   0  0  0  0  0  0  0  0  0  0  0  0
   49.9302   17.6810   33.9884 C   0  0  0  0  0  0  0  0  0  0  0  0
   50.3864   18.8864   33.4840 C   0  0  0  0  0  0  0  0  0  0  0  0
   51.3353   19.6182   34.1898 C   0  0  0  0  0  0  0  0  0  0  0  0
   51.8442   19.1550   35.3971 C   0  0  0  0  0  0  0  0  0  0  0  0
   49.9073   19.3130   32.3108 N   0  0  0  0  0  0  0  0  0  0  0  0
   50.0866   18.6160   31.3080 O   0  0  0  0  0  0  0  0  0  0  0  0
   49.3150   20.3944   32.2386 O   0  0  0  0  0  0  0  0  0  0  0  0
   49.8952   15.8767   35.7003 C   0  0  0  0  0  0  0  0  0  0  0  0
   48.9123   15.3619   35.1825 O   0  0  0  0  0  0  0  0  0  0  0  0
 26 27  2  0  0  0
 26 17  1  0  0  0
 17 18  2  0  0  0
 17 19  1  0  0  0
 18 22  1  0  0  0
 19 20  2  0  0  0
 20 23  1  0  0  0
 20 21  1  0  0  0
 23 24  1  0  0  0
 23 25  2  0  0  0
 21 22  2  0  0  0
 22 16  1  0  0  0
 16  1  1  0  0  0
  1  2  1  0  0  0
  1  8  1  0  0  0
  2  3  1  0  0  0
  3 13  1  0  0  0
  3  4  1  0  0  0
 13 14  1  0  0  0
  4  5  1  0  0  0
  4  6  1  0  0  0
  6  7  1  0  0  0
  6  8  1  0  0  0
  8  9  1  0  0  0
 14 15  1  0  0  0
  5 10  1  0  0  0
  7 11  1  0  0  0
  9 12  1  0  0  0
M  CHG 1  23   1
M  CHG 1  24  -1
M  END
> <minimizedAffinity>
-6.77519

$$$$
1PZI_1DM_D_104


 27 28  0  0  0  0  0  0  0  0999 V2000
   51.0958   20.6568   33.0557 C   0  0  0  0  0  0  0  0  0  0  0  0
   52.3184   21.3356   32.7069 O   0  0  0  0  0  0  0  0  0  0  0  0
   52.5886   21.2558   31.3032 C   0  0  0  0  0  0  0  0  0  0  0  0
   51.4662   21.8913   30.4827 C   0  0  0  0  0  0  0  0  0  0  0  0
   51.3647   23.3011   30.7735 O   0  0  0  0  0  0  0  0  0  0  0  0
   50.1359   21.2198   30.7923 C   0  0  0  0  0  0  0  0  0  0  0  0
   49.0787   21.9190   30.1245 O   0  0  0  0  0  0  0  0  0  0  0  0
   49.8954   21.2499   32.3050 C   0  0  0  0  0  0  0  0  0  0  0  0
   48.7614   20.4617   32.5861 O   0  0  0  0  0  0  0  0  0  0  0  0
   51.1551   23.4233   31.7127 H   0  0  0  0  0  0  0  0  0  0  0  0
   49.0557   22.8391   30.4306 H   0  0  0  0  0  0  0  0  0  0  0  0
   48.9193   19.5513   32.2911 H   0  0  0  0  0  0  0  0  0  0  0  0
   53.9451   21.9181   31.0583 C   0  0  0  0  0  0  0  0  0  0  0  0
   53.9841   22.4046   29.7028 O   0  0  0  0  0  0  0  0  0  0  0  0
   53.8590   21.6635   29.0896 H   0  0  0  0  0  0  0  0  0  0  0  0
   51.1562   19.2466   32.7814 O   0  0  0  0  0  0  0  0  0  0  0  0
   50.0967   16.7595   35.2778 C   0  0  0  0  0  0  0  0  0  0  0  0
   50.0863   17.5667   34.1398 C   0  0  0  0  0  0  0  0  0  0  0  0
   51.1545   16.8140   36.1648 C   0  0  0  0  0  0  0  0  0  0  0  0
   52.2060   17.6823   35.9284 C   0  0  0  0  0  0  0  0  0  0  0  0
   52.1970   18.4895   34.7960 C   0  0  0  0  0  0  0  0  0  0  0  0
   51.1404   18.4466   33.8944 C   0  0  0  0  0  0  0  0  0  0  0  0
   53.2074   17.7325   36.8132 N   0  0  0  0  0  0  0  0  0  0  0  0
   54.2226   18.3723   36.5243 O   0  0  0  0  0  0  0  0  0  0  0  0
   53.1167   17.1306   37.8879 O   0  0  0  0  0  0  0  0  0  0  0  0
   48.9638   15.7905   35.5812 C   0  0  0  0  0  0  0  0  0  0  0  0
   48.8879   14.7221   34.9880 O   0  0  0  0  0  0  0  0  0  0  0  0
 26 27  2  0  0  0
 26 17  1  0  0  0
 17 18  2  0  0  0
 17 19  1  0  0  0
 18 22  1  0  0  0
 19 20  2  0  0  0
 20 23  1  0  0  0
 20 21  1  0  0  0
 23 24  1  0  0  0
 23 25  2  0  0  0
 21 22  2  0  0  0
 22 16  1  0  0  0
 16  1  1  0  0  0
  1  2  1  0  0  0
  1  8  1  0  0  0
  2  3  1  0  0  0
  3 13  1  0  0  0
  3  4  1  0  0  0
 13 14  1  0  0  0
  4  5  1  0  0  0
  4  6  1  0  0  0
  6  7  1  0  0  0
  6  8  1  0  0  0
  8  9  1  0  0  0
 14 15  1  0  0  0
  5 10  1  0  0  0
  7 11  1  0  0  0
  9 12  1  0  0  0
M  CHG 1  23   1
M  CHG 1  24  -1
M  END
> <minimizedAffinity>
-6.70904

$$$$
1PZI_1DM_D_104


 27 28  0  0  0  0  0  0  0  0999 V2000
   52.8685   18.8298   37.4630 C   0  0  0  0  0  0  0  0  0  0  0  0
   53.9773   18.9555   36.5510 O   0  0  0  0  0  0  0  0  0  0  0  0
   54.3750   20.3206   36.3830 C   0  0  0  0  0  0  0  0  0  0  0  0
   54.8064   20.9426   37.7111 C   0  0  0  0  0  0  0  0  0  0  0  0
   55.9703   20.2660   38.2307 O   0  0  0  0  0  0  0  0  0  0  0  0
   53.6797   20.8540   38.7304 C   0  0  0  0  0  0  0  0  0  0  0  0
   54.1485   21.3106   40.0048 O   0  0  0  0  0  0  0  0  0  0  0  0
   53.2171   19.3980   38.8457 C   0  0  0  0  0  0  0  0  0  0  0  0
   52.0566   19.3669   39.6448 O   0  0  0  0  0  0  0  0  0  0  0  0
   55.7570   19.3336   38.3922 H   0  0  0  0  0  0  0  0  0  0  0  0
   54.8906   20.7569   40.2937 H   0  0  0  0  0  0  0  0  0  0  0  0
   51.3643   19.9056   39.2305 H   0  0  0  0  0  0  0  0  0  0  0  0
   55.4845   20.3495   35.3308 C   0  0  0  0  0  0  0  0  0  0  0  0
   56.2808   19.1565   35.4659 O   0  0  0  0  0  0  0  0  0  0  0  0
   56.6655   19.1235   36.3557 H   0  0  0  0  0  0  0  0  0  0  0  0
   51.6864   19.4914   36.9807 O   0  0  0  0  0  0  0  0  0  0  0  0
   49.8439   16.8736   35.1660 C   0  0  0  0  0  0  0  0  0  0  0  0
   50.5226   17.5332   36.1913 C   0  0  0  0  0  0  0  0  0  0  0  0
   49.6473   17.4917   33.9461 C   0  0  0  0  0  0  0  0  0  0  0  0
   50.1357   18.7695   33.7361 C   0  0  0  0  0  0  0  0  0  0  0  0
   50.8143   19.4283   34.7557 C   0  0  0  0  0  0  0  0  0  0  0  0
   51.0204   18.8203   35.9882 C   0  0  0  0  0  0  0  0  0  0  0  0
   49.9518   19.3376   32.5396 N   0  0  0  0  0  0  0  0  0  0  0  0
   49.9976   18.6262   31.5320 O   0  0  0  0  0  0  0  0  0  0  0  0
   49.7600   20.5547   32.4534 O   0  0  0  0  0  0  0  0  0  0  0  0
   49.2899   15.4686   35.3485 C   0  0  0  0  0  0  0  0  0  0  0  0
   48.6172   14.9494   34.4670 O   0  0  0  0  0  0  0  0  0  0  0  0
 26 27  2  0  0  0
 26 17  1  0  0  0
 17 18  2  0  0  0
 17 19  1  0  0  0
 18 22  1  0  0  0
 19 20  2  0  0  0
 20 23  1  0  0  0
 20 21  1  0  0  0
 23 24  1  0  0  0
 23 25  2  0  0  0
 21 22  2  0  0  0
 22 16  1  0  0  0
 16  1  1  0  0  0
  1  2  1  0  0  0
  1  8  1  0  0  0
  2  3  1  0  0  0
  3 13  1  0  0  0
  3  4  1  0  0  0
 13 14  1  0  0  0
  4  5  1  0  0  0
  4  6  1  0  0  0
  6  7  1  0  0  0
  6  8  1  0  0  0
  8  9  1  0  0  0
 14 15  1  0  0  0
  5 10  1  0  0  0
  7 11  1  0  0  0
  9 12  1  0  0  0
M  CHG 1  23   1
M  CHG 1  24  -1
M  END
> <minimizedAffinity>
-6.51883

$$$$
1PZI_1DM_D_104


 27 28  0  0  0  0  0  0  0  0999 V2000
   51.9088   19.0960   32.6050 C   0  0  0  0  0  0  0  0  0  0  0  0
   52.6251   18.7999   33.8200 O   0  0  0  0  0  0  0  0  0  0  0  0
   51.9104   19.2418   34.9793 C   0  0  0  0  0  0  0  0  0  0  0  0
   50.5430   18.5661   35.0819 C   0  0  0  0  0  0  0  0  0  0  0  0
   50.6957   17.1406   35.2466 O   0  0  0  0  0  0  0  0  0  0  0  0
   49.7198   18.8398   33.8314 C   0  0  0  0  0  0  0  0  0  0  0  0
   48.5032   18.0850   33.8831 O   0  0  0  0  0  0  0  0  0  0  0  0
   50.5267   18.4280   32.5960 C   0  0  0  0  0  0  0  0  0  0  0  0
   49.8302   18.8626   31.4504 O   0  0  0  0  0  0  0  0  0  0  0  0
   51.1539   16.7732   34.4746 H   0  0  0  0  0  0  0  0  0  0  0  0
   48.7116   17.1389   33.9329 H   0  0  0  0  0  0  0  0  0  0  0  0
   49.7314   19.8271   31.4786 H   0  0  0  0  0  0  0  0  0  0  0  0
   52.7955   18.9686   36.1962 C   0  0  0  0  0  0  0  0  0  0  0  0
   53.2501   17.6026   36.1398 O   0  0  0  0  0  0  0  0  0  0  0  0
   52.4847   17.0067   36.1432 H   0  0  0  0  0  0  0  0  0  0  0  0
   51.7357   20.5091   32.4030 O   0  0  0  0  0  0  0  0  0  0  0  0
   54.6934   21.7383   30.5915 C   0  0  0  0  0  0  0  0  0  0  0  0
   53.9061   21.1910   31.6051 C   0  0  0  0  0  0  0  0  0  0  0  0
   54.1220   22.1320   29.3968 C   0  0  0  0  0  0  0  0  0  0  0  0
   52.7581   21.9920   29.2079 C   0  0  0  0  0  0  0  0  0  0  0  0
   51.9709   21.4487   30.2174 C   0  0  0  0  0  0  0  0  0  0  0  0
   52.5303   21.0482   31.4247 C   0  0  0  0  0  0  0  0  0  0  0  0
   52.2258   22.4008   28.0513 N   0  0  0  0  0  0  0  0  0  0  0  0
   52.6750   21.9427   26.9969 O   0  0  0  0  0  0  0  0  0  0  0  0
   51.3155   23.2356   28.0479 O   0  0  0  0  0  0  0  0  0  0  0  0
   56.1960   21.9133   30.7525 C   0  0  0  0  0  0  0  0  0  0  0  0
   56.8255   21.1880   31.5121 O   0  0  0  0  0  0  0  0  0  0  0  0
 26 27  2  0  0  0
 26 17  1  0  0  0
 17 18  2  0  0  0
 17 19  1  0  0  0
 18 22  1  0  0  0
 19 20  2  0  0  0
 20 23  1  0  0  0
 20 21  1  0  0  0
 23 24  1  0  0  0
 23 25  2  0  0  0
 21 22  2  0  0  0
 22 16  1  0  0  0
 16  1  1  0  0  0
  1  2  1  0  0  0
  1  8  1  0  0  0
  2  3  1  0  0  0
  3 13  1  0  0  0
  3  4  1  0  0  0
 13 14  1  0  0  0
  4  5  1  0  0  0
  4  6  1  0  0  0
  6  7  1  0  0  0
  6  8  1  0  0  0
  8  9  1  0  0  0
 14 15  1  0  0  0
  5 10  1  0  0  0
  7 11  1  0  0  0
  9 12  1  0  0  0
M  CHG 1  23   1
M  CHG 1  24  -1
M  END
> <minimizedAffinity>
-6.51779

$$$$
1PZI_1DM_D_104


 27 28  0  0  0  0  0  0  0  0999 V2000
   51.9652   19.0338   32.6994 C   0  0  0  0  0  0  0  0  0  0  0  0
   52.6020   18.7162   33.9526 O   0  0  0  0  0  0  0  0  0  0  0  0
   51.8472   19.1988   35.0695 C   0  0  0  0  0  0  0  0  0  0  0  0
   50.4475   18.5851   35.1028 C   0  0  0  0  0  0  0  0  0  0  0  0
   50.5275   17.1556   35.2837 O   0  0  0  0  0  0  0  0  0  0  0  0
   49.7049   18.8847   33.8085 C   0  0  0  0  0  0  0  0  0  0  0  0
   48.4549   18.1848   33.7995 O   0  0  0  0  0  0  0  0  0  0  0  0
   50.5572   18.4275   32.6204 C   0  0  0  0  0  0  0  0  0  0  0  0
   49.9426   18.8831   31.4368 O   0  0  0  0  0  0  0  0  0  0  0  0
   51.0092   16.7620   34.5395 H   0  0  0  0  0  0  0  0  0  0  0  0
   48.6179   17.2309   33.8659 H   0  0  0  0  0  0  0  0  0  0  0  0
   49.8856   19.8513   31.4540 H   0  0  0  0  0  0  0  0  0  0  0  0
   52.6533   18.8966   36.3335 C   0  0  0  0  0  0  0  0  0  0  0  0
   53.2462   17.5901   36.2024 O   0  0  0  0  0  0  0  0  0  0  0  0
   52.5470   16.9279   36.0862 H   0  0  0  0  0  0  0  0  0  0  0  0
   51.8663   20.4514   32.4803 O   0  0  0  0  0  0  0  0  0  0  0  0
   53.3425   21.9945   29.4836 C   0  0  0  0  0  0  0  0  0  0  0  0
   52.3899   21.4798   30.3636 C   0  0  0  0  0  0  0  0  0  0  0  0
   54.6804   22.0046   29.8281 C   0  0  0  0  0  0  0  0  0  0  0  0
   55.0797   21.4916   31.0499 C   0  0  0  0  0  0  0  0  0  0  0  0
   54.1324   20.9761   31.9280 C   0  0  0  0  0  0  0  0  0  0  0  0
   52.7830   20.9585   31.5962 C   0  0  0  0  0  0  0  0  0  0  0  0
   56.3826   21.4926   31.3509 N   0  0  0  0  0  0  0  0  0  0  0  0
   57.2037   21.5525   30.4313 O   0  0  0  0  0  0  0  0  0  0  0  0
   56.7476   21.4151   32.5283 O   0  0  0  0  0  0  0  0  0  0  0  0
   52.9529   22.5681   28.1295 C   0  0  0  0  0  0  0  0  0  0  0  0
   51.7817   22.5704   27.7724 O   0  0  0  0  0  0  0  0  0  0  0  0
 26 27  2  0  0  0
 26 17  1  0  0  0
 17 18  2  0  0  0
 17 19  1  0  0  0
 18 22  1  0  0  0
 19 20  2  0  0  0
 20 23  1  0  0  0
 20 21  1  0  0  0
 23 24  1  0  0  0
 23 25  2  0  0  0
 21 22  2  0  0  0
 22 16  1  0  0  0
 16  1  1  0  0  0
  1  2  1  0  0  0
  1  8  1  0  0  0
  2  3  1  0  0  0
  3 13  1  0  0  0
  3  4  1  0  0  0
 13 14  1  0  0  0
  4  5  1  0  0  0
  4  6  1  0  0  0
  6  7  1  0  0  0
  6  8  1  0  0  0
  8  9  1  0  0  0
 14 15  1  0  0  0
  5 10  1  0  0  0
  7 11  1  0  0  0
  9 12  1  0  0  0
M  CHG 1  23   1
M  CHG 1  24  -1
M  END
> <minimizedAffinity>
-6.47629

$$$$
