4FFS_BIG_A_301


 27 29  0  0  0  0  0  0  0  0999 V2000
  -33.3652  -47.3906   10.0414 C   0  0  0  0  0  0  0  0  0  0  0  0
  -37.0514  -49.0258    7.7663 C   0  0  0  0  0  0  0  0  0  0  0  0
  -35.8544  -50.2835    9.9383 C   0  0  0  0  0  0  0  0  0  0  0  0
  -35.3843  -49.0206    9.3960 C   0  0  0  0  0  0  0  0  0  0  0  0
  -34.1030  -49.6485   11.1822 C   0  0  0  0  0  0  0  0  0  0  0  0
  -35.0646  -50.6143   10.9816 N   0  0  0  0  0  0  0  0  0  0  0  0
  -37.0086  -50.8789    9.2618 C   0  0  0  0  0  0  0  0  0  0  0  0
  -37.4991  -52.0698    9.7331 N   0  0  0  0  0  0  0  0  0  0  0  0
  -35.9778  -48.4212    8.3414 N   0  0  0  0  0  0  0  0  0  0  0  0
  -34.2425  -48.6119   10.2303 C   0  0  0  0  0  0  0  0  0  0  0  0
  -37.5578  -50.2095    8.2186 N   0  0  0  0  0  0  0  0  0  0  0  0
  -35.1620  -51.4309   11.5229 H   0  0  0  0  0  0  0  0  0  0  0  0
  -37.0623  -52.5153   10.4946 H   0  0  0  0  0  0  0  0  0  0  0  0
  -38.2882  -52.4792    9.3098 H   0  0  0  0  0  0  0  0  0  0  0  0
  -34.0811  -43.4048   11.2784 O   0  0  0  0  0  0  0  0  0  0  0  0
  -35.1084  -44.3926   11.1438 C   0  0  0  0  0  0  0  0  0  0  0  0
  -35.1603  -45.2844   12.3772 C   0  0  0  0  0  0  0  0  0  0  0  0
  -34.0445  -46.2863   12.1403 C   0  0  0  0  0  0  0  0  0  0  0  0
  -33.6840  -46.1454   10.7031 N   0  0  0  0  0  0  0  0  0  0  0  0
  -34.7232  -45.3506   10.0317 C   0  0  0  0  0  0  0  0  0  0  0  0
  -34.3178  -42.7867   11.9875 H   0  0  0  0  0  0  0  0  0  0  0  0
  -36.4731  -46.0517   12.5180 C   0  0  0  0  0  0  0  0  0  0  0  0
  -37.8653  -44.9887   12.5914 S   0  0  0  0  0  0  0  0  0  0  0  0
  -37.9520  -44.5984   14.3191 C   0  0  0  0  0  0  0  0  0  0  0  0
  -39.1850  -43.7293   14.5600 C   0  0  0  0  0  0  0  0  0  0  0  0
  -39.6224  -43.6802   16.0142 C   0  0  0  0  0  0  0  0  0  0  0  0
  -38.7588  -44.5471   16.8859 C   0  0  0  0  0  0  0  0  0  0  0  0
  2  9  2  0  0  0
  2 11  1  0  0  0
  3  4  2  0  0  0
  3  6  1  0  0  0
  3  7  1  0  0  0
  4  9  1  0  0  0
  4 10  1  0  0  0
  5  6  1  0  0  0
  5 10  2  0  0  0
 15 16  1  0  0  0
 16 17  1  0  0  0
 16 20  1  0  0  0
 17 22  1  0  0  0
 17 18  1  0  0  0
 22 23  1  0  0  0
 23 24  1  0  0  0
 24 25  1  0  0  0
 25 26  1  0  0  0
 26 27  1  0  0  0
 18 19  1  0  0  0
 19 20  1  0  0  0
 19  1  1  0  0  0
  1 10  1  0  0  0
  7  8  1  0  0  0
  7 11  2  0  0  0
 15 21  1  0  0  0
  6 12  1  0  0  0
  8 13  1  0  0  0
  8 14  1  0  0  0
M  END
> <minimizedAffinity>
-9.89012

$$$$
