4F6U_0SR_A_501


 31 33  0  0  0  0  0  0  0  0999 V2000
  -39.4686   22.2272  104.8861 C   0  0  0  0  0  0  0  0  0  0  0  0
  -38.9367   23.4748  105.1448 C   0  0  0  0  0  0  0  0  0  0  0  0
  -37.8803   23.1770  106.0090 C   0  0  0  0  0  0  0  0  0  0  0  0
  -37.8096   21.8589  106.2121 N   0  0  0  0  0  0  0  0  0  0  0  0
  -38.7293   21.3090  105.5723 N   0  0  0  0  0  0  0  0  0  0  0  0
  -38.8798   19.8550  105.5152 C   0  0  0  0  0  0  0  0  0  0  0  0
  -38.8212   19.1240  106.6993 C   0  0  0  0  0  0  0  0  0  0  0  0
  -38.8882   19.1827  104.2848 C   0  0  0  0  0  0  0  0  0  0  0  0
  -38.9471   17.7948  104.2549 C   0  0  0  0  0  0  0  0  0  0  0  0
  -38.9332   17.0714  105.4447 C   0  0  0  0  0  0  0  0  0  0  0  0
  -39.0005   15.5584  105.4121 C   0  0  0  0  0  0  0  0  0  0  0  0
  -38.8673   17.7351  106.6657 C   0  0  0  0  0  0  0  0  0  0  0  0
  -39.6447   22.9658  102.1478 O   0  0  0  0  0  0  0  0  0  0  0  0
  -40.4879   22.2247  102.6021 C   0  0  0  0  0  0  0  0  0  0  0  0
  -40.5089   21.8946  103.9585 N   0  0  0  0  0  0  0  0  0  0  0  0
  -41.5289   21.7583  101.7918 N   0  0  0  0  0  0  0  0  0  0  0  0
  -41.2893   21.4010  104.2999 H   0  0  0  0  0  0  0  0  0  0  0  0
  -42.2830   21.2721  102.1970 H   0  0  0  0  0  0  0  0  0  0  0  0
  -41.5051   21.9894  100.3350 C   0  0  0  0  0  0  0  0  0  0  0  0
  -42.0865   23.3180   99.9085 C   0  0  0  0  0  0  0  0  0  0  0  0
  -42.4892   23.1968   98.4142 C   0  0  0  0  0  0  0  0  0  0  0  0
  -42.3259   24.4548   97.6696 N   0  0  0  0  0  0  0  0  0  0  0  0
  -43.3479   25.4452   98.0518 C   0  0  0  0  0  0  0  0  0  0  0  0
  -43.1839   26.6843   97.1644 C   0  0  0  0  0  0  0  0  0  0  0  0
  -43.2511   26.3534   95.7692 O   0  0  0  0  0  0  0  0  0  0  0  0
  -42.2388   25.4396   95.3726 C   0  0  0  0  0  0  0  0  0  0  0  0
  -42.3740   24.1620   96.2113 C   0  0  0  0  0  0  0  0  0  0  0  0
  -36.9303   24.1729  106.6611 C   0  0  0  0  0  0  0  0  0  0  0  0
  -35.6931   23.4523  107.1733 C   0  0  0  0  0  0  0  0  0  0  0  0
  -37.6205   24.8967  107.8272 C   0  0  0  0  0  0  0  0  0  0  0  0
  -36.5237   25.2030  105.6121 C   0  0  0  0  0  0  0  0  0  0  0  0
 26 25  1  0  0  0
 26 27  1  0  0  0
 25 24  1  0  0  0
 27 22  1  0  0  0
 24 23  1  0  0  0
 22 23  1  0  0  0
 22 21  1  0  0  0
 21 20  1  0  0  0
 20 19  1  0  0  0
 19 16  1  0  0  0
 16 14  1  0  0  0
 13 14  2  0  0  0
 14 15  1  0  0  0
 15  1  1  0  0  0
  8  9  2  0  0  0
  8  6  1  0  0  0
  9 10  1  0  0  0
  1  2  2  0  0  0
  1  5  1  0  0  0
  2  3  1  0  0  0
  5  6  1  0  0  0
  5  4  1  0  0  0
 29 28  1  0  0  0
  6  7  2  0  0  0
 10 11  1  0  0  0
 10 12  2  0  0  0
  3  4  2  0  0  0
  3 28  1  0  0  0
 28 30  1  0  0  0
 28 31  1  0  0  0
  7 12  1  0  0  0
 15 17  1  0  0  0
 16 18  1  0  0  0
M  END
> <minimizedAffinity>
-11.38016

$$$$
4F6U_0SR_A_501


 31 33  0  0  0  0  0  0  0  0999 V2000
  -39.1870   20.5198  104.2807 C   0  0  0  0  0  0  0  0  0  0  0  0
  -39.2437   19.1477  104.1371 C   0  0  0  0  0  0  0  0  0  0  0  0
  -38.6883   18.6975  105.3373 C   0  0  0  0  0  0  0  0  0  0  0  0
  -38.3563   19.7359  106.1088 N   0  0  0  0  0  0  0  0  0  0  0  0
  -38.6352   20.7884  105.4989 N   0  0  0  0  0  0  0  0  0  0  0  0
  -38.4708   22.1094  106.1056 C   0  0  0  0  0  0  0  0  0  0  0  0
  -37.9444   23.1441  105.3361 C   0  0  0  0  0  0  0  0  0  0  0  0
  -38.6527   22.2932  107.4836 C   0  0  0  0  0  0  0  0  0  0  0  0
  -38.4098   23.5368  108.0541 C   0  0  0  0  0  0  0  0  0  0  0  0
  -37.9255   24.5802  107.2693 C   0  0  0  0  0  0  0  0  0  0  0  0
  -37.6635   25.9367  107.8905 C   0  0  0  0  0  0  0  0  0  0  0  0
  -37.6901   24.3834  105.9122 C   0  0  0  0  0  0  0  0  0  0  0  0
  -40.4339   20.1089  101.7606 O   0  0  0  0  0  0  0  0  0  0  0  0
  -40.4047   21.2310  102.2151 C   0  0  0  0  0  0  0  0  0  0  0  0
  -39.7312   21.5147  103.4046 N   0  0  0  0  0  0  0  0  0  0  0  0
  -40.9639   22.2969  101.5015 N   0  0  0  0  0  0  0  0  0  0  0  0
  -39.6230   22.4598  103.6581 H   0  0  0  0  0  0  0  0  0  0  0  0
  -40.8161   23.2208  101.8078 H   0  0  0  0  0  0  0  0  0  0  0  0
  -41.7733   22.0468  100.2938 C   0  0  0  0  0  0  0  0  0  0  0  0
  -42.1798   23.2983   99.5498 C   0  0  0  0  0  0  0  0  0  0  0  0
  -42.4329   22.9040   98.0698 C   0  0  0  0  0  0  0  0  0  0  0  0
  -42.9613   24.0126   97.2604 N   0  0  0  0  0  0  0  0  0  0  0  0
  -42.2289   24.1500   95.9890 C   0  0  0  0  0  0  0  0  0  0  0  0
  -42.7591   25.3841   95.2504 C   0  0  0  0  0  0  0  0  0  0  0  0
  -42.6650   26.5687   96.0557 O   0  0  0  0  0  0  0  0  0  0  0  0
  -43.4092   26.4729   97.2615 C   0  0  0  0  0  0  0  0  0  0  0  0
  -42.8985   25.2663   98.0598 C   0  0  0  0  0  0  0  0  0  0  0  0
  -38.4603   17.2485  105.7468 C   0  0  0  0  0  0  0  0  0  0  0  0
  -39.1658   16.3162  104.7745 C   0  0  0  0  0  0  0  0  0  0  0  0
  -38.9857   16.9979  107.1686 C   0  0  0  0  0  0  0  0  0  0  0  0
  -36.9599   16.9745  105.7196 C   0  0  0  0  0  0  0  0  0  0  0  0
 26 25  1  0  0  0
 26 27  1  0  0  0
 25 24  1  0  0  0
 27 22  1  0  0  0
 24 23  1  0  0  0
 22 23  1  0  0  0
 22 21  1  0  0  0
 21 20  1  0  0  0
 20 19  1  0  0  0
 19 16  1  0  0  0
 16 14  1  0  0  0
 13 14  2  0  0  0
 14 15  1  0  0  0
 15  1  1  0  0  0
  8  9  2  0  0  0
  8  6  1  0  0  0
  9 10  1  0  0  0
  1  2  2  0  0  0
  1  5  1  0  0  0
  2  3  1  0  0  0
  5  6  1  0  0  0
  5  4  1  0  0  0
 29 28  1  0  0  0
  6  7  2  0  0  0
 10 11  1  0  0  0
 10 12  2  0  0  0
  3  4  2  0  0  0
  3 28  1  0  0  0
 28 30  1  0  0  0
 28 31  1  0  0  0
  7 12  1  0  0  0
 15 17  1  0  0  0
 16 18  1  0  0  0
M  END
> <minimizedAffinity>
-8.77161

$$$$
