4RE2_MVL_A_501


 18 19  0  0  0  0  0  0  0  0999 V2000
    8.6444   11.6163   11.0485 C   0  0  0  0  0  0  0  0  0  0  0  0
    8.0971   12.7887   10.7982 N   0  0  0  0  0  0  0  0  0  0  0  0
    6.7645   10.8754   12.4917 C   0  0  0  0  0  0  0  0  0  0  0  0
    6.2943   12.3388   12.3293 C   0  0  0  0  0  0  0  0  0  0  0  0
    6.6205   12.9191   10.9423 C   0  0  0  0  0  0  0  0  0  0  0  0
   10.2619   12.9969   10.5190 C   0  0  0  0  0  0  0  0  0  0  0  0
    9.0558   13.6728   10.4656 C   0  0  0  0  0  0  0  0  0  0  0  0
    9.9763   11.7167   10.8685 N   0  0  0  0  0  0  0  0  0  0  0  0
    7.3550   10.7004   13.7864 O   0  0  0  0  0  0  0  0  0  0  0  0
    8.5984    9.3391   11.8441 O   0  0  0  0  0  0  0  0  0  0  0  0
    4.8898   12.3983   12.5852 O   0  0  0  0  0  0  0  0  0  0  0  0
    7.7940   10.4504   11.4291 C   0  0  0  0  0  0  0  0  0  0  0  0
    8.1375   11.2683   13.8643 H   0  0  0  0  0  0  0  0  0  0  0  0
    9.2269    9.1141   11.1404 H   0  0  0  0  0  0  0  0  0  0  0  0
    4.4199   11.8479   11.9394 H   0  0  0  0  0  0  0  0  0  0  0  0
    6.1415   14.3501   10.7179 C   0  0  0  0  0  0  0  0  0  0  0  0
    5.6643   14.5144    9.3815 O   0  0  0  0  0  0  0  0  0  0  0  0
    6.3822   14.3276    8.7565 H   0  0  0  0  0  0  0  0  0  0  0  0
  1  2  1  0  0  0
  1  8  2  0  0  0
  1 12  1  0  0  0
  2  5  1  0  0  0
  2  7  1  0  0  0
  3  4  1  0  0  0
  3  9  1  0  0  0
  3 12  1  0  0  0
  4  5  1  0  0  0
  4 11  1  0  0  0
  5 16  1  0  0  0
 16 17  1  0  0  0
  6  7  2  0  0  0
  6  8  1  0  0  0
 10 12  1  0  0  0
  9 13  1  0  0  0
 10 14  1  0  0  0
 11 15  1  0  0  0
 17 18  1  0  0  0
M  END
> <minimizedAffinity>
-7.99232

$$$$
4RE2_MVL_A_501


 18 19  0  0  0  0  0  0  0  0999 V2000
    7.9088   12.8685   13.2188 C   0  0  0  0  0  0  0  0  0  0  0  0
    8.6292   13.3581   12.2299 N   0  0  0  0  0  0  0  0  0  0  0  0
    7.9037   10.5696   12.2803 C   0  0  0  0  0  0  0  0  0  0  0  0
    8.5540   11.2564   11.0577 C   0  0  0  0  0  0  0  0  0  0  0  0
    9.4826   12.4183   11.4510 C   0  0  0  0  0  0  0  0  0  0  0  0
    7.4917   15.0169   13.1029 C   0  0  0  0  0  0  0  0  0  0  0  0
    8.4065   14.6809   12.1207 C   0  0  0  0  0  0  0  0  0  0  0  0
    7.2108   13.8750   13.7811 N   0  0  0  0  0  0  0  0  0  0  0  0
    6.5232   10.2997   12.0028 O   0  0  0  0  0  0  0  0  0  0  0  0
    6.9832   11.0653   14.5275 O   0  0  0  0  0  0  0  0  0  0  0  0
    9.2660   10.2717   10.3059 O   0  0  0  0  0  0  0  0  0  0  0  0
    7.9825   11.4180   13.5623 C   0  0  0  0  0  0  0  0  0  0  0  0
    6.0538   11.1355   11.8541 H   0  0  0  0  0  0  0  0  0  0  0  0
    7.0783   11.6282   15.3117 H   0  0  0  0  0  0  0  0  0  0  0  0
    9.9671    9.8892   10.8564 H   0  0  0  0  0  0  0  0  0  0  0  0
   10.1803   13.1049   10.2808 C   0  0  0  0  0  0  0  0  0  0  0  0
   11.0144   12.1791    9.5824 O   0  0  0  0  0  0  0  0  0  0  0  0
   11.6910   11.8344   10.1860 H   0  0  0  0  0  0  0  0  0  0  0  0
  1  2  1  0  0  0
  1  8  2  0  0  0
  1 12  1  0  0  0
  2  5  1  0  0  0
  2  7  1  0  0  0
  3  4  1  0  0  0
  3  9  1  0  0  0
  3 12  1  0  0  0
  4  5  1  0  0  0
  4 11  1  0  0  0
  5 16  1  0  0  0
 16 17  1  0  0  0
  6  7  2  0  0  0
  6  8  1  0  0  0
 10 12  1  0  0  0
  9 13  1  0  0  0
 10 14  1  0  0  0
 11 15  1  0  0  0
 17 18  1  0  0  0
M  END
> <minimizedAffinity>
-7.17749

$$$$
4RE2_MVL_A_501


 18 19  0  0  0  0  0  0  0  0999 V2000
    6.9520   14.6014   13.0183 C   0  0  0  0  0  0  0  0  0  0  0  0
    6.0844   15.0794   12.1491 N   0  0  0  0  0  0  0  0  0  0  0  0
    6.7884   12.2850   12.1388 C   0  0  0  0  0  0  0  0  0  0  0  0
    5.6286   12.8721   11.3025 C   0  0  0  0  0  0  0  0  0  0  0  0
    5.8779   14.3299   10.8788 C   0  0  0  0  0  0  0  0  0  0  0  0
    6.0849   16.4173   13.8863 C   0  0  0  0  0  0  0  0  0  0  0  0
    5.5247   16.2007   12.6398 C   0  0  0  0  0  0  0  0  0  0  0  0
    6.9801   15.4175   14.0905 N   0  0  0  0  0  0  0  0  0  0  0  0
    6.2568   11.5242   13.2316 O   0  0  0  0  0  0  0  0  0  0  0  0
    8.4581   12.9145   13.8590 O   0  0  0  0  0  0  0  0  0  0  0  0
    5.4238   12.0406   10.1587 O   0  0  0  0  0  0  0  0  0  0  0  0
    7.7264   13.3632   12.7110 C   0  0  0  0  0  0  0  0  0  0  0  0
    5.7446   12.1079   13.8129 H   0  0  0  0  0  0  0  0  0  0  0  0
    9.0307   13.6297   14.1773 H   0  0  0  0  0  0  0  0  0  0  0  0
    6.2270   12.0353    9.6148 H   0  0  0  0  0  0  0  0  0  0  0  0
    4.7785   14.9435   10.0172 C   0  0  0  0  0  0  0  0  0  0  0  0
    4.9915   14.6343    8.6390 O   0  0  0  0  0  0  0  0  0  0  0  0
    5.8450   14.9968    8.3544 H   0  0  0  0  0  0  0  0  0  0  0  0
  1  2  1  0  0  0
  1  8  2  0  0  0
  1 12  1  0  0  0
  2  5  1  0  0  0
  2  7  1  0  0  0
  3  4  1  0  0  0
  3  9  1  0  0  0
  3 12  1  0  0  0
  4  5  1  0  0  0
  4 11  1  0  0  0
  5 16  1  0  0  0
 16 17  1  0  0  0
  6  7  2  0  0  0
  6  8  1  0  0  0
 10 12  1  0  0  0
  9 13  1  0  0  0
 10 14  1  0  0  0
 11 15  1  0  0  0
 17 18  1  0  0  0
M  END
> <minimizedAffinity>
-6.97958

$$$$
4RE2_MVL_A_501


 18 19  0  0  0  0  0  0  0  0999 V2000
    6.3562   13.2705   11.5340 C   0  0  0  0  0  0  0  0  0  0  0  0
    6.7842   12.0893   11.1364 N   0  0  0  0  0  0  0  0  0  0  0  0
    8.4236   13.7569   12.8205 C   0  0  0  0  0  0  0  0  0  0  0  0
    8.7619   12.2841   12.4958 C   0  0  0  0  0  0  0  0  0  0  0  0
    8.2536   11.8473   11.1110 C   0  0  0  0  0  0  0  0  0  0  0  0
    4.5927   12.0527   11.0754 C   0  0  0  0  0  0  0  0  0  0  0  0
    5.7322   11.3037   10.8409 C   0  0  0  0  0  0  0  0  0  0  0  0
    5.0091   13.2763   11.4906 N   0  0  0  0  0  0  0  0  0  0  0  0
    7.9822   13.8607   14.1807 O   0  0  0  0  0  0  0  0  0  0  0  0
    6.6560   15.4634   12.4943 O   0  0  0  0  0  0  0  0  0  0  0  0
   10.1764   12.1081   12.5943 O   0  0  0  0  0  0  0  0  0  0  0  0
    7.3271   14.3395   11.9105 C   0  0  0  0  0  0  0  0  0  0  0  0
    7.1706   13.3426   14.2978 H   0  0  0  0  0  0  0  0  0  0  0  0
    5.9785   15.7895   11.8814 H   0  0  0  0  0  0  0  0  0  0  0  0
   10.6191   12.6784   11.9465 H   0  0  0  0  0  0  0  0  0  0  0  0
    8.5968   10.4115   10.7262 C   0  0  0  0  0  0  0  0  0  0  0  0
    8.5400    9.5592   11.8712 O   0  0  0  0  0  0  0  0  0  0  0  0
    9.1811    9.8632   12.5326 H   0  0  0  0  0  0  0  0  0  0  0  0
  1  2  1  0  0  0
  1  8  2  0  0  0
  1 12  1  0  0  0
  2  5  1  0  0  0
  2  7  1  0  0  0
  3  4  1  0  0  0
  3  9  1  0  0  0
  3 12  1  0  0  0
  4  5  1  0  0  0
  4 11  1  0  0  0
  5 16  1  0  0  0
 16 17  1  0  0  0
  6  7  2  0  0  0
  6  8  1  0  0  0
 10 12  1  0  0  0
  9 13  1  0  0  0
 10 14  1  0  0  0
 11 15  1  0  0  0
 17 18  1  0  0  0
M  END
> <minimizedAffinity>
-6.94510

$$$$
4RE2_MVL_A_501


 18 19  0  0  0  0  0  0  0  0999 V2000
    5.7160   15.0154   11.7554 C   0  0  0  0  0  0  0  0  0  0  0  0
    6.5991   14.4425   12.5481 N   0  0  0  0  0  0  0  0  0  0  0  0
    6.1283   13.4254    9.8932 C   0  0  0  0  0  0  0  0  0  0  0  0
    7.2909   12.9470   10.7925 C   0  0  0  0  0  0  0  0  0  0  0  0
    6.9528   13.0187   12.2917 C   0  0  0  0  0  0  0  0  0  0  0  0
    6.3701   16.5212   13.2072 C   0  0  0  0  0  0  0  0  0  0  0  0
    7.0303   15.3320   13.4614 C   0  0  0  0  0  0  0  0  0  0  0  0
    5.5478   16.2926   12.1516 N   0  0  0  0  0  0  0  0  0  0  0  0
    6.6442   14.2419    8.8334 O   0  0  0  0  0  0  0  0  0  0  0  0
    4.2988   15.0951    9.8045 O   0  0  0  0  0  0  0  0  0  0  0  0
    7.6409   11.6140   10.4158 O   0  0  0  0  0  0  0  0  0  0  0  0
    5.0683   14.2385   10.6580 C   0  0  0  0  0  0  0  0  0  0  0  0
    7.0658   15.0306    9.2089 H   0  0  0  0  0  0  0  0  0  0  0  0
    3.6491   15.5817   10.3355 H   0  0  0  0  0  0  0  0  0  0  0  0
    6.8801   11.0284   10.5543 H   0  0  0  0  0  0  0  0  0  0  0  0
    8.0549   12.5199   13.2214 C   0  0  0  0  0  0  0  0  0  0  0  0
    9.3411   12.7725   12.6535 O   0  0  0  0  0  0  0  0  0  0  0  0
    9.4177   12.3065   11.8062 H   0  0  0  0  0  0  0  0  0  0  0  0
  1  2  1  0  0  0
  1  8  2  0  0  0
  1 12  1  0  0  0
  2  5  1  0  0  0
  2  7  1  0  0  0
  3  4  1  0  0  0
  3  9  1  0  0  0
  3 12  1  0  0  0
  4  5  1  0  0  0
  4 11  1  0  0  0
  5 16  1  0  0  0
 16 17  1  0  0  0
  6  7  2  0  0  0
  6  8  1  0  0  0
 10 12  1  0  0  0
  9 13  1  0  0  0
 10 14  1  0  0  0
 11 15  1  0  0  0
 17 18  1  0  0  0
M  END
> <minimizedAffinity>
-6.67157

$$$$
4RE2_MVL_A_501


 18 19  0  0  0  0  0  0  0  0999 V2000
    5.4992   15.1528   12.7898 C   0  0  0  0  0  0  0  0  0  0  0  0
    5.0574   14.7808   11.6053 N   0  0  0  0  0  0  0  0  0  0  0  0
    7.6425   13.9228   12.5464 C   0  0  0  0  0  0  0  0  0  0  0  0
    6.9703   13.3566   11.2749 C   0  0  0  0  0  0  0  0  0  0  0  0
    6.0577   14.3800   10.5773 C   0  0  0  0  0  0  0  0  0  0  0  0
    3.3106   15.2537   12.8434 C   0  0  0  0  0  0  0  0  0  0  0  0
    3.7125   14.8285   11.5896 C   0  0  0  0  0  0  0  0  0  0  0  0
    4.4412   15.4631   13.5650 N   0  0  0  0  0  0  0  0  0  0  0  0
    7.6097   12.9376   13.5875 O   0  0  0  0  0  0  0  0  0  0  0  0
    7.2162   15.4386   14.4604 O   0  0  0  0  0  0  0  0  0  0  0  0
    7.9898   12.8982   10.3849 O   0  0  0  0  0  0  0  0  0  0  0  0
    6.9644   15.2020   13.0694 C   0  0  0  0  0  0  0  0  0  0  0  0
    6.6880   12.7340   13.8111 H   0  0  0  0  0  0  0  0  0  0  0  0
    6.7677   16.2532   14.7362 H   0  0  0  0  0  0  0  0  0  0  0  0
    8.5563   13.6435   10.1308 H   0  0  0  0  0  0  0  0  0  0  0  0
    5.4003   13.8818    9.2938 C   0  0  0  0  0  0  0  0  0  0  0  0
    6.2017   14.2146    8.1592 O   0  0  0  0  0  0  0  0  0  0  0  0
    6.2980   15.1782    8.1027 H   0  0  0  0  0  0  0  0  0  0  0  0
  1  2  1  0  0  0
  1  8  2  0  0  0
  1 12  1  0  0  0
  2  5  1  0  0  0
  2  7  1  0  0  0
  3  4  1  0  0  0
  3  9  1  0  0  0
  3 12  1  0  0  0
  4  5  1  0  0  0
  4 11  1  0  0  0
  5 16  1  0  0  0
 16 17  1  0  0  0
  6  7  2  0  0  0
  6  8  1  0  0  0
 10 12  1  0  0  0
  9 13  1  0  0  0
 10 14  1  0  0  0
 11 15  1  0  0  0
 17 18  1  0  0  0
M  END
> <minimizedAffinity>
-6.56615

$$$$
4RE2_MVL_A_501


 18 19  0  0  0  0  0  0  0  0999 V2000
    7.0189   11.4407   12.3027 C   0  0  0  0  0  0  0  0  0  0  0  0
    8.2957   11.6099   12.0235 N   0  0  0  0  0  0  0  0  0  0  0  0
    6.2846   13.2362   10.7527 C   0  0  0  0  0  0  0  0  0  0  0  0
    7.8002   13.5186   10.6422 C   0  0  0  0  0  0  0  0  0  0  0  0
    8.6519   12.2400   10.7219 C   0  0  0  0  0  0  0  0  0  0  0  0
    8.1697   10.7003   14.0146 C   0  0  0  0  0  0  0  0  0  0  0  0
    9.0450   11.1664   13.0497 C   0  0  0  0  0  0  0  0  0  0  0  0
    6.9173   10.8682   13.5186 N   0  0  0  0  0  0  0  0  0  0  0  0
    5.6733   14.2152   11.6034 O   0  0  0  0  0  0  0  0  0  0  0  0
    4.6614   11.7531   11.8966 O   0  0  0  0  0  0  0  0  0  0  0  0
    8.0469   14.2157    9.4196 O   0  0  0  0  0  0  0  0  0  0  0  0
    5.9702   11.8396   11.3187 C   0  0  0  0  0  0  0  0  0  0  0  0
    6.0482   14.1476   12.4955 H   0  0  0  0  0  0  0  0  0  0  0  0
    4.5165   10.8561   12.2362 H   0  0  0  0  0  0  0  0  0  0  0  0
    7.7793   13.6600    8.6709 H   0  0  0  0  0  0  0  0  0  0  0  0
   10.1546   12.4613   10.5784 C   0  0  0  0  0  0  0  0  0  0  0  0
   10.5068   13.7845   10.9853 O   0  0  0  0  0  0  0  0  0  0  0  0
   10.0451   14.4285   10.4258 H   0  0  0  0  0  0  0  0  0  0  0  0
  1  2  1  0  0  0
  1  8  2  0  0  0
  1 12  1  0  0  0
  2  5  1  0  0  0
  2  7  1  0  0  0
  3  4  1  0  0  0
  3  9  1  0  0  0
  3 12  1  0  0  0
  4  5  1  0  0  0
  4 11  1  0  0  0
  5 16  1  0  0  0
 16 17  1  0  0  0
  6  7  2  0  0  0
  6  8  1  0  0  0
 10 12  1  0  0  0
  9 13  1  0  0  0
 10 14  1  0  0  0
 11 15  1  0  0  0
 17 18  1  0  0  0
M  END
> <minimizedAffinity>
-6.48459

$$$$
4RE2_MVL_A_501


 18 19  0  0  0  0  0  0  0  0999 V2000
    6.6237   12.2004   11.1596 C   0  0  0  0  0  0  0  0  0  0  0  0
    7.0205   12.9066   12.1990 N   0  0  0  0  0  0  0  0  0  0  0  0
    5.1476   14.0046   10.3040 C   0  0  0  0  0  0  0  0  0  0  0  0
    5.4891   14.6818   11.6508 C   0  0  0  0  0  0  0  0  0  0  0  0
    6.9262   14.3907   12.1166 C   0  0  0  0  0  0  0  0  0  0  0  0
    7.2726   10.7880   12.7046 C   0  0  0  0  0  0  0  0  0  0  0  0
    7.4314   12.0786   13.1773 C   0  0  0  0  0  0  0  0  0  0  0  0
    6.7837   10.8924   11.4425 N   0  0  0  0  0  0  0  0  0  0  0  0
    3.8282   13.4469   10.3666 O   0  0  0  0  0  0  0  0  0  0  0  0
    5.5708   11.9367    9.0050 O   0  0  0  0  0  0  0  0  0  0  0  0
    5.2739   16.0885   11.5222 O   0  0  0  0  0  0  0  0  0  0  0  0
    6.1301   12.8812    9.9266 C   0  0  0  0  0  0  0  0  0  0  0  0
    3.7988   12.7621   11.0529 H   0  0  0  0  0  0  0  0  0  0  0  0
    6.2292   11.2538    8.8023 H   0  0  0  0  0  0  0  0  0  0  0  0
    5.8621   16.4443   10.8379 H   0  0  0  0  0  0  0  0  0  0  0  0
    7.3259   15.0692   13.4233 C   0  0  0  0  0  0  0  0  0  0  0  0
    6.1719   15.3370   14.2216 O   0  0  0  0  0  0  0  0  0  0  0  0
    5.5738   15.9276   13.7374 H   0  0  0  0  0  0  0  0  0  0  0  0
  1  2  1  0  0  0
  1  8  2  0  0  0
  1 12  1  0  0  0
  2  5  1  0  0  0
  2  7  1  0  0  0
  3  4  1  0  0  0
  3  9  1  0  0  0
  3 12  1  0  0  0
  4  5  1  0  0  0
  4 11  1  0  0  0
  5 16  1  0  0  0
 16 17  1  0  0  0
  6  7  2  0  0  0
  6  8  1  0  0  0
 10 12  1  0  0  0
  9 13  1  0  0  0
 10 14  1  0  0  0
 11 15  1  0  0  0
 17 18  1  0  0  0
M  END
> <minimizedAffinity>
-6.30279

$$$$
4RE2_MVL_A_501


 18 19  0  0  0  0  0  0  0  0999 V2000
    4.9370   13.9473   11.4039 C   0  0  0  0  0  0  0  0  0  0  0  0
    5.3949   15.0126   12.0300 N   0  0  0  0  0  0  0  0  0  0  0  0
    6.7520   12.4801   12.2518 C   0  0  0  0  0  0  0  0  0  0  0  0
    7.3433   13.8095   12.7736 C   0  0  0  0  0  0  0  0  0  0  0  0
    6.2617   14.8068   13.2235 C   0  0  0  0  0  0  0  0  0  0  0  0
    4.2049   15.7089   10.3251 C   0  0  0  0  0  0  0  0  0  0  0  0
    4.9682   16.1239   11.4020 C   0  0  0  0  0  0  0  0  0  0  0  0
    4.1889   14.3519   10.3584 N   0  0  0  0  0  0  0  0  0  0  0  0
    7.4587   12.0685   11.0741 O   0  0  0  0  0  0  0  0  0  0  0  0
    4.8283   11.5751   10.9778 O   0  0  0  0  0  0  0  0  0  0  0  0
    8.2421   13.5197   13.8460 O   0  0  0  0  0  0  0  0  0  0  0  0
    5.2548   12.5790   11.9077 C   0  0  0  0  0  0  0  0  0  0  0  0
    7.3410   12.7332   10.3775 H   0  0  0  0  0  0  0  0  0  0  0  0
    3.8814   11.6833   10.7970 H   0  0  0  0  0  0  0  0  0  0  0  0
    7.7564   13.0914   14.5681 H   0  0  0  0  0  0  0  0  0  0  0  0
    6.7959   16.1213   13.7842 C   0  0  0  0  0  0  0  0  0  0  0  0
    7.1093   15.9833   15.1710 O   0  0  0  0  0  0  0  0  0  0  0  0
    6.3079   15.7417   15.6611 H   0  0  0  0  0  0  0  0  0  0  0  0
  1  2  1  0  0  0
  1  8  2  0  0  0
  1 12  1  0  0  0
  2  5  1  0  0  0
  2  7  1  0  0  0
  3  4  1  0  0  0
  3  9  1  0  0  0
  3 12  1  0  0  0
  4  5  1  0  0  0
  4 11  1  0  0  0
  5 16  1  0  0  0
 16 17  1  0  0  0
  6  7  2  0  0  0
  6  8  1  0  0  0
 10 12  1  0  0  0
  9 13  1  0  0  0
 10 14  1  0  0  0
 11 15  1  0  0  0
 17 18  1  0  0  0
M  END
> <minimizedAffinity>
-6.28967

$$$$
4RE2_MVL_A_501


 18 19  0  0  0  0  0  0  0  0999 V2000
    5.8358   12.4841   10.2128 C   0  0  0  0  0  0  0  0  0  0  0  0
    4.9232   13.2673   10.7516 N   0  0  0  0  0  0  0  0  0  0  0  0
    7.5894   13.1520   11.8391 C   0  0  0  0  0  0  0  0  0  0  0  0
    6.5380   14.1974   12.2760 C   0  0  0  0  0  0  0  0  0  0  0  0
    5.0961   13.6707   12.1748 C   0  0  0  0  0  0  0  0  0  0  0  0
    4.3519   12.9273    8.6622 C   0  0  0  0  0  0  0  0  0  0  0  0
    3.9857   13.5664    9.8334 C   0  0  0  0  0  0  0  0  0  0  0  0
    5.4969   12.2490    8.9297 N   0  0  0  0  0  0  0  0  0  0  0  0
    8.5958   13.7868   11.0392 O   0  0  0  0  0  0  0  0  0  0  0  0
    7.9519   11.3253   10.2036 O   0  0  0  0  0  0  0  0  0  0  0  0
    6.8331   14.6112   13.6115 O   0  0  0  0  0  0  0  0  0  0  0  0
    6.9861   11.9921   11.0265 C   0  0  0  0  0  0  0  0  0  0  0  0
    8.1903   14.1462   10.2347 H   0  0  0  0  0  0  0  0  0  0  0  0
    7.5201   10.6067    9.7159 H   0  0  0  0  0  0  0  0  0  0  0  0
    6.7771   13.8472   14.2065 H   0  0  0  0  0  0  0  0  0  0  0  0
    4.0219   14.6526   12.6324 C   0  0  0  0  0  0  0  0  0  0  0  0
    4.1210   14.8833   14.0387 O   0  0  0  0  0  0  0  0  0  0  0  0
    3.9966   14.0465   14.5132 H   0  0  0  0  0  0  0  0  0  0  0  0
  1  2  1  0  0  0
  1  8  2  0  0  0
  1 12  1  0  0  0
  2  5  1  0  0  0
  2  7  1  0  0  0
  3  4  1  0  0  0
  3  9  1  0  0  0
  3 12  1  0  0  0
  4  5  1  0  0  0
  4 11  1  0  0  0
  5 16  1  0  0  0
 16 17  1  0  0  0
  6  7  2  0  0  0
  6  8  1  0  0  0
 10 12  1  0  0  0
  9 13  1  0  0  0
 10 14  1  0  0  0
 11 15  1  0  0  0
 17 18  1  0  0  0
M  END
> <minimizedAffinity>
-6.19549

$$$$
