5L9L_GOP_A_401


 30 29  0  0  0  0  0  0  0  0999 V2000
   80.6613   25.6833   -1.6568 C   0  0  0  0  0  0  0  0  0  0  0  0
   80.4568   25.1143   -2.8289 O   0  0  0  0  0  0  0  0  0  0  0  0
   81.2561   25.1968   -3.3722 H   0  0  0  0  0  0  0  0  0  0  0  0
   80.7966   27.1748   -1.7634 C   0  0  0  0  0  0  0  0  0  0  0  0
   81.9209   27.5593   -2.3465 O   0  0  0  0  0  0  0  0  0  0  0  0
   81.9247   27.2611   -3.2695 H   0  0  0  0  0  0  0  0  0  0  0  0
   79.6607   27.8041   -2.4995 C   0  0  0  0  0  0  0  0  0  0  0  0
   78.4633   27.2910   -2.1264 O   0  0  0  0  0  0  0  0  0  0  0  0
   78.3920   26.3757   -2.4396 H   0  0  0  0  0  0  0  0  0  0  0  0
   79.7738   28.0762   -3.9878 C   0  0  0  0  0  0  0  0  0  0  0  0
   80.1132   29.3369   -4.3638 O   0  0  0  0  0  0  0  0  0  0  0  0
   79.4167   29.9544   -4.0907 H   0  0  0  0  0  0  0  0  0  0  0  0
   78.5200   26.3429   -4.7217 O   0  0  0  0  0  0  0  0  0  0  0  0
   78.4539   27.6898   -4.6054 C   0  0  0  0  0  0  0  0  0  0  0  0
   77.6980   26.0117   -5.1162 H   0  0  0  0  0  0  0  0  0  0  0  0
   81.7281   24.9075   -0.8677 C   0  0  0  0  0  0  0  0  0  0  0  0
   83.1093   25.2732   -1.1128 N   0  0  0  0  0  0  0  0  0  0  0  0
   83.4955   24.6341   -1.8076 H   0  0  0  0  0  0  0  0  0  0  0  0
   83.9368   25.2138    0.0795 C   0  0  0  0  0  0  0  0  0  0  0  0
   84.2899   26.5599    0.6206 C   0  0  0  0  0  0  0  0  0  0  0  0
   85.2314   26.6468    1.3837 O   0  0  0  0  0  0  0  0  0  0  0  0
   83.6428   27.5569    0.3171 O   0  0  0  0  0  0  0  0  0  0  0  0
   82.9178   27.4835   -0.2719 H   0  0  0  0  0  0  0  0  0  0  0  0
   85.2342   24.4528   -0.1944 C   0  0  0  0  0  0  0  0  0  0  0  0
   86.1453   25.0299   -1.2149 C   0  0  0  0  0  0  0  0  0  0  0  0
   87.2722   24.0733   -1.3951 C   0  0  0  0  0  0  0  0  0  0  0  0
   87.5895   23.6790   -2.4450 O   0  0  0  0  0  0  0  0  0  0  0  0
   87.9812   23.6561   -0.2248 N   0  0  0  0  0  0  0  0  0  0  0  0
   87.7105   23.9912    0.6604 H   0  0  0  0  0  0  0  0  0  0  0  0
   88.7399   23.0338   -0.3046 H   0  0  0  0  0  0  0  0  0  0  0  0
 21 20  2  0  0  0
 24 19  1  0  0  0
 24 25  1  0  0  0
 19 20  1  0  0  0
 19 17  1  0  0  0
 20 22  1  0  0  0
 28 26  1  0  0  0
 16 17  1  0  0  0
 16  1  1  0  0  0
 25 26  1  0  0  0
 26 27  2  0  0  0
  5  4  1  0  0  0
  4  1  1  0  0  0
  4  7  1  0  0  0
  1  2  1  0  0  0
  8  7  1  0  0  0
  7 10  1  0  0  0
 11 10  1  0  0  0
 10 14  1  0  0  0
 14 13  1  0  0  0
 13 15  1  0  0  0
 11 12  1  0  0  0
  8  9  1  0  0  0
  5  6  1  0  0  0
  2  3  1  0  0  0
 17 18  1  0  0  0
 28 29  1  0  0  0
 28 30  1  0  0  0
 22 23  1  0  0  0
M  END
> <minimizedAffinity>
-8.89940

$$$$
5L9L_GOP_A_401


 30 29  0  0  0  0  0  0  0  0999 V2000
   79.2364   25.6068   -3.3294 C   0  0  0  0  0  0  0  0  0  0  0  0
   80.1749   25.5988   -4.2560 O   0  0  0  0  0  0  0  0  0  0  0  0
   80.9374   26.1135   -3.9483 H   0  0  0  0  0  0  0  0  0  0  0  0
   78.6253   26.9663   -3.1489 C   0  0  0  0  0  0  0  0  0  0  0  0
   78.7567   27.4417   -1.9207 O   0  0  0  0  0  0  0  0  0  0  0  0
   79.6967   27.5843   -1.7281 H   0  0  0  0  0  0  0  0  0  0  0  0
   79.1841   27.9778   -4.0936 C   0  0  0  0  0  0  0  0  0  0  0  0
   80.3828   28.4557   -3.6801 O   0  0  0  0  0  0  0  0  0  0  0  0
   80.2574   29.0026   -2.8889 H   0  0  0  0  0  0  0  0  0  0  0  0
   78.2807   29.0336   -4.7026 C   0  0  0  0  0  0  0  0  0  0  0  0
   78.2993   30.2681   -4.1355 O   0  0  0  0  0  0  0  0  0  0  0  0
   77.9694   30.2106   -3.2251 H   0  0  0  0  0  0  0  0  0  0  0  0
   76.6569   28.0858   -5.9595 O   0  0  0  0  0  0  0  0  0  0  0  0
   76.8801   28.4762   -4.6829 C   0  0  0  0  0  0  0  0  0  0  0  0
   75.7651   27.7109   -6.0317 H   0  0  0  0  0  0  0  0  0  0  0  0
   79.7155   24.8496   -2.0805 C   0  0  0  0  0  0  0  0  0  0  0  0
   81.1399   24.5985   -1.9813 N   0  0  0  0  0  0  0  0  0  0  0  0
   81.2796   23.6235   -1.7164 H   0  0  0  0  0  0  0  0  0  0  0  0
   81.8025   25.4425   -1.0023 C   0  0  0  0  0  0  0  0  0  0  0  0
   82.0725   26.8240   -1.5001 C   0  0  0  0  0  0  0  0  0  0  0  0
   81.5860   27.7603   -0.8978 O   0  0  0  0  0  0  0  0  0  0  0  0
   82.7573   27.0172   -2.4994 O   0  0  0  0  0  0  0  0  0  0  0  0
   83.1298   26.2911   -2.9597 H   0  0  0  0  0  0  0  0  0  0  0  0
   83.1294   24.8255   -0.5595 C   0  0  0  0  0  0  0  0  0  0  0  0
   84.0368   25.6906    0.2359 C   0  0  0  0  0  0  0  0  0  0  0  0
   85.4224   25.1835    0.0350 C   0  0  0  0  0  0  0  0  0  0  0  0
   86.1560   25.0136    0.9245 O   0  0  0  0  0  0  0  0  0  0  0  0
   85.8324   24.8873   -1.3031 N   0  0  0  0  0  0  0  0  0  0  0  0
   85.2100   25.0321   -2.0521 H   0  0  0  0  0  0  0  0  0  0  0  0
   86.7369   24.5388   -1.4751 H   0  0  0  0  0  0  0  0  0  0  0  0
 21 20  2  0  0  0
 24 19  1  0  0  0
 24 25  1  0  0  0
 19 20  1  0  0  0
 19 17  1  0  0  0
 20 22  1  0  0  0
 28 26  1  0  0  0
 16 17  1  0  0  0
 16  1  1  0  0  0
 25 26  1  0  0  0
 26 27  2  0  0  0
  5  4  1  0  0  0
  4  1  1  0  0  0
  4  7  1  0  0  0
  1  2  1  0  0  0
  8  7  1  0  0  0
  7 10  1  0  0  0
 11 10  1  0  0  0
 10 14  1  0  0  0
 14 13  1  0  0  0
 13 15  1  0  0  0
 11 12  1  0  0  0
  8  9  1  0  0  0
  5  6  1  0  0  0
  2  3  1  0  0  0
 17 18  1  0  0  0
 28 29  1  0  0  0
 28 30  1  0  0  0
 22 23  1  0  0  0
M  END
> <minimizedAffinity>
-8.87362

$$$$
5L9L_GOP_A_401


 30 29  0  0  0  0  0  0  0  0999 V2000
   79.4878   25.6003   -3.6266 C   0  0  0  0  0  0  0  0  0  0  0  0
   80.4928   26.2186   -4.2159 O   0  0  0  0  0  0  0  0  0  0  0  0
   80.6232   27.0877   -3.8052 H   0  0  0  0  0  0  0  0  0  0  0  0
   78.1694   26.2625   -3.9048 C   0  0  0  0  0  0  0  0  0  0  0  0
   77.1359   25.6049   -3.4036 O   0  0  0  0  0  0  0  0  0  0  0  0
   77.1928   25.6027   -2.4353 H   0  0  0  0  0  0  0  0  0  0  0  0
   78.1110   27.6642   -3.3949 C   0  0  0  0  0  0  0  0  0  0  0  0
   77.3622   27.7680   -2.2703 O   0  0  0  0  0  0  0  0  0  0  0  0
   76.4287   27.6199   -2.4886 H   0  0  0  0  0  0  0  0  0  0  0  0
   77.9297   28.8202   -4.3605 C   0  0  0  0  0  0  0  0  0  0  0  0
   77.9384   28.5274   -5.6872 O   0  0  0  0  0  0  0  0  0  0  0  0
   78.8098   28.1817   -5.9364 H   0  0  0  0  0  0  0  0  0  0  0  0
   80.1627   29.1749   -4.3104 O   0  0  0  0  0  0  0  0  0  0  0  0
   79.0067   29.8271   -4.0459 C   0  0  0  0  0  0  0  0  0  0  0  0
   80.9137   29.7621   -4.1310 H   0  0  0  0  0  0  0  0  0  0  0  0
   79.8469   25.2716   -2.1687 C   0  0  0  0  0  0  0  0  0  0  0  0
   81.1629   24.7098   -1.9360 N   0  0  0  0  0  0  0  0  0  0  0  0
   81.0535   23.7407   -1.6372 H   0  0  0  0  0  0  0  0  0  0  0  0
   81.9182   25.4235   -0.9211 C   0  0  0  0  0  0  0  0  0  0  0  0
   82.3192   26.7988   -1.3418 C   0  0  0  0  0  0  0  0  0  0  0  0
   82.1931   27.7065   -0.5442 O   0  0  0  0  0  0  0  0  0  0  0  0
   82.7545   27.0177   -2.4677 O   0  0  0  0  0  0  0  0  0  0  0  0
   82.8494   26.3135   -3.0784 H   0  0  0  0  0  0  0  0  0  0  0  0
   83.1818   24.6524   -0.5388 C   0  0  0  0  0  0  0  0  0  0  0  0
   84.1996   25.3874    0.2539 C   0  0  0  0  0  0  0  0  0  0  0  0
   85.5125   24.7285    0.0101 C   0  0  0  0  0  0  0  0  0  0  0  0
   86.0838   24.1544    0.8482 O   0  0  0  0  0  0  0  0  0  0  0  0
   86.0573   24.8046   -1.3105 N   0  0  0  0  0  0  0  0  0  0  0  0
   85.5720   25.2905   -2.0159 H   0  0  0  0  0  0  0  0  0  0  0  0
   86.9176   24.3712   -1.5138 H   0  0  0  0  0  0  0  0  0  0  0  0
 21 20  2  0  0  0
 24 19  1  0  0  0
 24 25  1  0  0  0
 19 20  1  0  0  0
 19 17  1  0  0  0
 20 22  1  0  0  0
 28 26  1  0  0  0
 16 17  1  0  0  0
 16  1  1  0  0  0
 25 26  1  0  0  0
 26 27  2  0  0  0
  5  4  1  0  0  0
  4  1  1  0  0  0
  4  7  1  0  0  0
  1  2  1  0  0  0
  8  7  1  0  0  0
  7 10  1  0  0  0
 11 10  1  0  0  0
 10 14  1  0  0  0
 14 13  1  0  0  0
 13 15  1  0  0  0
 11 12  1  0  0  0
  8  9  1  0  0  0
  5  6  1  0  0  0
  2  3  1  0  0  0
 17 18  1  0  0  0
 28 29  1  0  0  0
 28 30  1  0  0  0
 22 23  1  0  0  0
M  END
> <minimizedAffinity>
-8.74680

$$$$
5L9L_GOP_A_401


 30 29  0  0  0  0  0  0  0  0999 V2000
   80.5406   25.4220   -1.9078 C   0  0  0  0  0  0  0  0  0  0  0  0
   80.1119   24.4881   -2.7346 O   0  0  0  0  0  0  0  0  0  0  0  0
   80.8100   24.2774   -3.3743 H   0  0  0  0  0  0  0  0  0  0  0  0
   80.7282   26.7456   -2.5912 C   0  0  0  0  0  0  0  0  0  0  0  0
   81.8217   26.8018   -3.3348 O   0  0  0  0  0  0  0  0  0  0  0  0
   81.7463   26.1722   -4.0689 H   0  0  0  0  0  0  0  0  0  0  0  0
   79.5682   27.1166   -3.4543 C   0  0  0  0  0  0  0  0  0  0  0  0
   79.9609   27.6482   -4.6373 O   0  0  0  0  0  0  0  0  0  0  0  0
   80.3545   28.5215   -4.4845 H   0  0  0  0  0  0  0  0  0  0  0  0
   78.3545   27.7970   -2.8496 C   0  0  0  0  0  0  0  0  0  0  0  0
   77.3543   28.1504   -3.6985 O   0  0  0  0  0  0  0  0  0  0  0  0
   77.6799   28.8188   -4.3214 H   0  0  0  0  0  0  0  0  0  0  0  0
   78.2488   28.9389   -0.9003 O   0  0  0  0  0  0  0  0  0  0  0  0
   78.8561   29.0098   -2.1078 C   0  0  0  0  0  0  0  0  0  0  0  0
   78.5226   29.6935   -0.3558 H   0  0  0  0  0  0  0  0  0  0  0  0
   81.6872   24.8787   -1.0402 C   0  0  0  0  0  0  0  0  0  0  0  0
   82.9049   25.6647   -1.0090 N   0  0  0  0  0  0  0  0  0  0  0  0
   83.3519   25.6067   -1.9240 H   0  0  0  0  0  0  0  0  0  0  0  0
   83.8512   25.2135   -0.0036 C   0  0  0  0  0  0  0  0  0  0  0  0
   84.4392   26.3287    0.7963 C   0  0  0  0  0  0  0  0  0  0  0  0
   84.1633   27.4704    0.4854 O   0  0  0  0  0  0  0  0  0  0  0  0
   85.1935   26.1069    1.7380 O   0  0  0  0  0  0  0  0  0  0  0  0
   85.4025   25.2242    1.9729 H   0  0  0  0  0  0  0  0  0  0  0  0
   84.9960   24.4292   -0.6452 C   0  0  0  0  0  0  0  0  0  0  0  0
   86.2742   25.1571   -0.8477 C   0  0  0  0  0  0  0  0  0  0  0  0
   87.3160   24.1430   -1.1697 C   0  0  0  0  0  0  0  0  0  0  0  0
   88.0844   23.7696   -0.3770 O   0  0  0  0  0  0  0  0  0  0  0  0
   87.3388   23.6151   -2.4991 N   0  0  0  0  0  0  0  0  0  0  0  0
   86.6882   23.9330   -3.1662 H   0  0  0  0  0  0  0  0  0  0  0  0
   88.0051   22.9340   -2.7470 H   0  0  0  0  0  0  0  0  0  0  0  0
 21 20  2  0  0  0
 24 19  1  0  0  0
 24 25  1  0  0  0
 19 20  1  0  0  0
 19 17  1  0  0  0
 20 22  1  0  0  0
 28 26  1  0  0  0
 16 17  1  0  0  0
 16  1  1  0  0  0
 25 26  1  0  0  0
 26 27  2  0  0  0
  5  4  1  0  0  0
  4  1  1  0  0  0
  4  7  1  0  0  0
  1  2  1  0  0  0
  8  7  1  0  0  0
  7 10  1  0  0  0
 11 10  1  0  0  0
 10 14  1  0  0  0
 14 13  1  0  0  0
 13 15  1  0  0  0
 11 12  1  0  0  0
  8  9  1  0  0  0
  5  6  1  0  0  0
  2  3  1  0  0  0
 17 18  1  0  0  0
 28 29  1  0  0  0
 28 30  1  0  0  0
 22 23  1  0  0  0
M  END
> <minimizedAffinity>
-8.47776

$$$$
5L9L_GOP_A_401


 30 29  0  0  0  0  0  0  0  0999 V2000
   78.3359   24.0932   -2.8652 C   0  0  0  0  0  0  0  0  0  0  0  0
   78.1197   25.0901   -3.7013 O   0  0  0  0  0  0  0  0  0  0  0  0
   77.5425   25.7460   -3.2800 H   0  0  0  0  0  0  0  0  0  0  0  0
   77.0977   23.2824   -2.6128 C   0  0  0  0  0  0  0  0  0  0  0  0
   76.0538   23.6851   -3.3198 O   0  0  0  0  0  0  0  0  0  0  0  0
   76.2303   23.5482   -4.2637 H   0  0  0  0  0  0  0  0  0  0  0  0
   77.2985   21.8278   -2.8808 C   0  0  0  0  0  0  0  0  0  0  0  0
   78.0498   21.2309   -1.9239 O   0  0  0  0  0  0  0  0  0  0  0  0
   78.9638   21.5500   -1.9846 H   0  0  0  0  0  0  0  0  0  0  0  0
   77.6018   21.3461   -4.2871 C   0  0  0  0  0  0  0  0  0  0  0  0
   76.6034   21.4399   -5.2037 O   0  0  0  0  0  0  0  0  0  0  0  0
   75.8675   20.8655   -4.9402 H   0  0  0  0  0  0  0  0  0  0  0  0
   79.3944   19.9730   -4.4142 O   0  0  0  0  0  0  0  0  0  0  0  0
   78.0642   19.9159   -4.1703 C   0  0  0  0  0  0  0  0  0  0  0  0
   79.7720   19.0814   -4.3572 H   0  0  0  0  0  0  0  0  0  0  0  0
   79.1492   24.5806   -1.6555 C   0  0  0  0  0  0  0  0  0  0  0  0
   80.5741   24.7533   -1.8593 N   0  0  0  0  0  0  0  0  0  0  0  0
   81.0707   24.1369   -1.2161 H   0  0  0  0  0  0  0  0  0  0  0  0
   81.0232   26.1159   -1.6325 C   0  0  0  0  0  0  0  0  0  0  0  0
   81.0368   26.9472   -2.8727 C   0  0  0  0  0  0  0  0  0  0  0  0
   81.3096   28.1271   -2.7742 O   0  0  0  0  0  0  0  0  0  0  0  0
   80.7681   26.4615   -3.9667 O   0  0  0  0  0  0  0  0  0  0  0  0
   80.5585   25.5509   -4.0362 H   0  0  0  0  0  0  0  0  0  0  0  0
   82.4278   26.1338   -1.0290 C   0  0  0  0  0  0  0  0  0  0  0  0
   82.9173   24.8634   -0.4364 C   0  0  0  0  0  0  0  0  0  0  0  0
   84.3618   25.0468   -0.1249 C   0  0  0  0  0  0  0  0  0  0  0  0
   85.1969   24.4556   -0.6830 O   0  0  0  0  0  0  0  0  0  0  0  0
   84.7064   25.9995    0.8851 N   0  0  0  0  0  0  0  0  0  0  0  0
   83.9984   26.4971    1.3546 H   0  0  0  0  0  0  0  0  0  0  0  0
   85.6516   26.1575    1.1108 H   0  0  0  0  0  0  0  0  0  0  0  0
 21 20  2  0  0  0
 24 19  1  0  0  0
 24 25  1  0  0  0
 19 20  1  0  0  0
 19 17  1  0  0  0
 20 22  1  0  0  0
 28 26  1  0  0  0
 16 17  1  0  0  0
 16  1  1  0  0  0
 25 26  1  0  0  0
 26 27  2  0  0  0
  5  4  1  0  0  0
  4  1  1  0  0  0
  4  7  1  0  0  0
  1  2  1  0  0  0
  8  7  1  0  0  0
  7 10  1  0  0  0
 11 10  1  0  0  0
 10 14  1  0  0  0
 14 13  1  0  0  0
 13 15  1  0  0  0
 11 12  1  0  0  0
  8  9  1  0  0  0
  5  6  1  0  0  0
  2  3  1  0  0  0
 17 18  1  0  0  0
 28 29  1  0  0  0
 28 30  1  0  0  0
 22 23  1  0  0  0
M  END
> <minimizedAffinity>
-8.42050

$$$$
5L9L_GOP_A_401


 30 29  0  0  0  0  0  0  0  0999 V2000
   80.8261   26.6316   -2.3722 C   0  0  0  0  0  0  0  0  0  0  0  0
   81.5682   27.7171   -2.4741 O   0  0  0  0  0  0  0  0  0  0  0  0
   81.5022   28.2320   -1.6547 H   0  0  0  0  0  0  0  0  0  0  0  0
   79.3584   26.9462   -2.3352 C   0  0  0  0  0  0  0  0  0  0  0  0
   79.0894   28.1339   -1.8169 O   0  0  0  0  0  0  0  0  0  0  0  0
   79.4591   28.8265   -2.3866 H   0  0  0  0  0  0  0  0  0  0  0  0
   78.7222   26.8804   -3.6839 C   0  0  0  0  0  0  0  0  0  0  0  0
   78.7695   25.6330   -4.2109 O   0  0  0  0  0  0  0  0  0  0  0  0
   79.6866   25.4120   -4.4368 H   0  0  0  0  0  0  0  0  0  0  0  0
   78.9662   27.9832   -4.6969 C   0  0  0  0  0  0  0  0  0  0  0  0
   79.8859   28.9297   -4.3739 O   0  0  0  0  0  0  0  0  0  0  0  0
   79.5821   29.4237   -3.5964 H   0  0  0  0  0  0  0  0  0  0  0  0
   76.9365   27.6887   -5.6499 O   0  0  0  0  0  0  0  0  0  0  0  0
   77.6322   28.6300   -4.9704 C   0  0  0  0  0  0  0  0  0  0  0  0
   76.0551   28.0313   -5.8662 H   0  0  0  0  0  0  0  0  0  0  0  0
   81.3996   25.6941   -1.2977 C   0  0  0  0  0  0  0  0  0  0  0  0
   82.8035   25.3530   -1.4172 N   0  0  0  0  0  0  0  0  0  0  0  0
   82.8779   24.4346   -1.8546 H   0  0  0  0  0  0  0  0  0  0  0  0
   83.4932   25.3133   -0.1395 C   0  0  0  0  0  0  0  0  0  0  0  0
   83.8041   26.6680    0.4059 C   0  0  0  0  0  0  0  0  0  0  0  0
   83.3081   27.6362   -0.1352 O   0  0  0  0  0  0  0  0  0  0  0  0
   84.5511   26.8098    1.3686 O   0  0  0  0  0  0  0  0  0  0  0  0
   84.9306   26.0592    1.7816 H   0  0  0  0  0  0  0  0  0  0  0  0
   84.8016   24.5301   -0.2502 C   0  0  0  0  0  0  0  0  0  0  0  0
   85.9838   25.2714   -0.7579 C   0  0  0  0  0  0  0  0  0  0  0  0
   86.8862   24.2784   -1.4037 C   0  0  0  0  0  0  0  0  0  0  0  0
   86.7643   23.9623   -2.5188 O   0  0  0  0  0  0  0  0  0  0  0  0
   87.9391   23.7245   -0.6092 N   0  0  0  0  0  0  0  0  0  0  0  0
   88.0391   23.9938    0.3325 H   0  0  0  0  0  0  0  0  0  0  0  0
   88.5637   23.0740   -1.0041 H   0  0  0  0  0  0  0  0  0  0  0  0
 21 20  2  0  0  0
 24 19  1  0  0  0
 24 25  1  0  0  0
 19 20  1  0  0  0
 19 17  1  0  0  0
 20 22  1  0  0  0
 28 26  1  0  0  0
 16 17  1  0  0  0
 16  1  1  0  0  0
 25 26  1  0  0  0
 26 27  2  0  0  0
  5  4  1  0  0  0
  4  1  1  0  0  0
  4  7  1  0  0  0
  1  2  1  0  0  0
  8  7  1  0  0  0
  7 10  1  0  0  0
 11 10  1  0  0  0
 10 14  1  0  0  0
 14 13  1  0  0  0
 13 15  1  0  0  0
 11 12  1  0  0  0
  8  9  1  0  0  0
  5  6  1  0  0  0
  2  3  1  0  0  0
 17 18  1  0  0  0
 28 29  1  0  0  0
 28 30  1  0  0  0
 22 23  1  0  0  0
M  END
> <minimizedAffinity>
-8.04561

$$$$
5L9L_GOP_A_401


 30 29  0  0  0  0  0  0  0  0999 V2000
   79.4958   28.7869   -2.7430 C   0  0  0  0  0  0  0  0  0  0  0  0
   78.6404   29.6753   -2.2758 O   0  0  0  0  0  0  0  0  0  0  0  0
   77.7582   29.2760   -2.2188 H   0  0  0  0  0  0  0  0  0  0  0  0
   79.2312   28.4421   -4.1802 C   0  0  0  0  0  0  0  0  0  0  0  0
   79.9913   27.4572   -4.6319 O   0  0  0  0  0  0  0  0  0  0  0  0
   79.7779   26.6395   -4.1558 H   0  0  0  0  0  0  0  0  0  0  0  0
   77.8067   28.0723   -4.4298 C   0  0  0  0  0  0  0  0  0  0  0  0
   77.0198   29.1611   -4.6072 O   0  0  0  0  0  0  0  0  0  0  0  0
   76.9342   29.6385   -3.7672 H   0  0  0  0  0  0  0  0  0  0  0  0
   77.1522   26.9685   -3.6205 C   0  0  0  0  0  0  0  0  0  0  0  0
   77.5637   25.6961   -3.8603 O   0  0  0  0  0  0  0  0  0  0  0  0
   77.3381   25.4494   -4.7709 H   0  0  0  0  0  0  0  0  0  0  0  0
   75.1761   25.8797   -3.4646 O   0  0  0  0  0  0  0  0  0  0  0  0
   75.6658   27.0826   -3.8454 C   0  0  0  0  0  0  0  0  0  0  0  0
   74.2130   25.8714   -3.5802 H   0  0  0  0  0  0  0  0  0  0  0  0
   79.6726   27.6384   -1.7369 C   0  0  0  0  0  0  0  0  0  0  0  0
   81.0022   27.4556   -1.1888 N   0  0  0  0  0  0  0  0  0  0  0  0
   81.5614   28.2787   -1.4132 H   0  0  0  0  0  0  0  0  0  0  0  0
   81.6793   26.2812   -1.7105 C   0  0  0  0  0  0  0  0  0  0  0  0
   80.7465   25.1698   -2.0626 C   0  0  0  0  0  0  0  0  0  0  0  0
   80.4201   24.3911   -1.1889 O   0  0  0  0  0  0  0  0  0  0  0  0
   80.3253   25.0315   -3.2064 O   0  0  0  0  0  0  0  0  0  0  0  0
   80.5806   25.6353   -3.8759 H   0  0  0  0  0  0  0  0  0  0  0  0
   82.7002   25.7487   -0.7047 C   0  0  0  0  0  0  0  0  0  0  0  0
   83.5014   26.7579    0.0330 C   0  0  0  0  0  0  0  0  0  0  0  0
   84.8399   26.1588    0.2917 C   0  0  0  0  0  0  0  0  0  0  0  0
   85.4025   26.3095    1.3012 O   0  0  0  0  0  0  0  0  0  0  0  0
   85.4216   25.3629   -0.7450 N   0  0  0  0  0  0  0  0  0  0  0  0
   84.9435   25.2378   -1.5965 H   0  0  0  0  0  0  0  0  0  0  0  0
   86.2999   24.9402   -0.6069 H   0  0  0  0  0  0  0  0  0  0  0  0
 21 20  2  0  0  0
 24 19  1  0  0  0
 24 25  1  0  0  0
 19 20  1  0  0  0
 19 17  1  0  0  0
 20 22  1  0  0  0
 28 26  1  0  0  0
 16 17  1  0  0  0
 16  1  1  0  0  0
 25 26  1  0  0  0
 26 27  2  0  0  0
  5  4  1  0  0  0
  4  1  1  0  0  0
  4  7  1  0  0  0
  1  2  1  0  0  0
  8  7  1  0  0  0
  7 10  1  0  0  0
 11 10  1  0  0  0
 10 14  1  0  0  0
 14 13  1  0  0  0
 13 15  1  0  0  0
 11 12  1  0  0  0
  8  9  1  0  0  0
  5  6  1  0  0  0
  2  3  1  0  0  0
 17 18  1  0  0  0
 28 29  1  0  0  0
 28 30  1  0  0  0
 22 23  1  0  0  0
M  END
> <minimizedAffinity>
-7.87907

$$$$
5L9L_GOP_A_401


 30 29  0  0  0  0  0  0  0  0999 V2000
   80.8318   25.6885   -2.2380 C   0  0  0  0  0  0  0  0  0  0  0  0
   81.4792   26.4571   -3.0921 O   0  0  0  0  0  0  0  0  0  0  0  0
   81.5874   27.3430   -2.7122 H   0  0  0  0  0  0  0  0  0  0  0  0
   79.4027   26.1128   -2.0595 C   0  0  0  0  0  0  0  0  0  0  0  0
   79.0092   27.0158   -2.9435 O   0  0  0  0  0  0  0  0  0  0  0  0
   79.0247   26.6267   -3.8319 H   0  0  0  0  0  0  0  0  0  0  0  0
   78.4501   24.9653   -2.1222 C   0  0  0  0  0  0  0  0  0  0  0  0
   78.9751   23.8357   -1.5886 O   0  0  0  0  0  0  0  0  0  0  0  0
   79.6857   23.5075   -2.1614 H   0  0  0  0  0  0  0  0  0  0  0  0
   77.6254   24.7262   -3.3730 C   0  0  0  0  0  0  0  0  0  0  0  0
   76.4297   25.3654   -3.4591 O   0  0  0  0  0  0  0  0  0  0  0  0
   75.8413   25.0468   -2.7568 H   0  0  0  0  0  0  0  0  0  0  0  0
   76.2051   23.0195   -2.9432 O   0  0  0  0  0  0  0  0  0  0  0  0
   77.4251   23.2364   -3.4877 C   0  0  0  0  0  0  0  0  0  0  0  0
   75.9988   22.0724   -2.9789 H   0  0  0  0  0  0  0  0  0  0  0  0
   81.6860   25.4518   -0.9823 C   0  0  0  0  0  0  0  0  0  0  0  0
   83.1188   25.6122   -1.1332 N   0  0  0  0  0  0  0  0  0  0  0  0
   83.4323   25.0195   -1.9018 H   0  0  0  0  0  0  0  0  0  0  0  0
   83.8635   25.2522    0.0609 C   0  0  0  0  0  0  0  0  0  0  0  0
   84.3152   26.4340    0.8537 C   0  0  0  0  0  0  0  0  0  0  0  0
   83.8874   27.5302    0.5510 O   0  0  0  0  0  0  0  0  0  0  0  0
   85.1084   26.3118    1.7814 O   0  0  0  0  0  0  0  0  0  0  0  0
   85.4348   25.4638    2.0101 H   0  0  0  0  0  0  0  0  0  0  0  0
   85.0931   24.4161   -0.2947 C   0  0  0  0  0  0  0  0  0  0  0  0
   86.2600   25.1462   -0.8515 C   0  0  0  0  0  0  0  0  0  0  0  0
   87.2733   24.1286   -1.2451 C   0  0  0  0  0  0  0  0  0  0  0  0
   88.0717   23.7263   -0.4973 O   0  0  0  0  0  0  0  0  0  0  0  0
   87.2299   23.6341   -2.5868 N   0  0  0  0  0  0  0  0  0  0  0  0
   86.5542   23.9762   -3.2158 H   0  0  0  0  0  0  0  0  0  0  0  0
   87.8757   22.9518   -2.8811 H   0  0  0  0  0  0  0  0  0  0  0  0
 21 20  2  0  0  0
 24 19  1  0  0  0
 24 25  1  0  0  0
 19 20  1  0  0  0
 19 17  1  0  0  0
 20 22  1  0  0  0
 28 26  1  0  0  0
 16 17  1  0  0  0
 16  1  1  0  0  0
 25 26  1  0  0  0
 26 27  2  0  0  0
  5  4  1  0  0  0
  4  1  1  0  0  0
  4  7  1  0  0  0
  1  2  1  0  0  0
  8  7  1  0  0  0
  7 10  1  0  0  0
 11 10  1  0  0  0
 10 14  1  0  0  0
 14 13  1  0  0  0
 13 15  1  0  0  0
 11 12  1  0  0  0
  8  9  1  0  0  0
  5  6  1  0  0  0
  2  3  1  0  0  0
 17 18  1  0  0  0
 28 29  1  0  0  0
 28 30  1  0  0  0
 22 23  1  0  0  0
M  END
> <minimizedAffinity>
-7.83181

$$$$
5L9L_GOP_A_401


 30 29  0  0  0  0  0  0  0  0999 V2000
   80.8605   26.6435   -1.1726 C   0  0  0  0  0  0  0  0  0  0  0  0
   80.5279   27.9195   -1.1465 O   0  0  0  0  0  0  0  0  0  0  0  0
   80.5534   28.2788   -2.0471 H   0  0  0  0  0  0  0  0  0  0  0  0
   82.3030   26.4380   -1.5350 C   0  0  0  0  0  0  0  0  0  0  0  0
   82.7443   27.2975   -2.4396 O   0  0  0  0  0  0  0  0  0  0  0  0
   82.7251   28.1941   -2.0701 H   0  0  0  0  0  0  0  0  0  0  0  0
   83.2095   26.5132   -0.3515 C   0  0  0  0  0  0  0  0  0  0  0  0
   83.3190   27.7756    0.1287 O   0  0  0  0  0  0  0  0  0  0  0  0
   83.8100   28.3213   -0.5054 H   0  0  0  0  0  0  0  0  0  0  0  0
   84.5133   25.7376   -0.3389 C   0  0  0  0  0  0  0  0  0  0  0  0
   84.5047   24.5006   -0.9007 O   0  0  0  0  0  0  0  0  0  0  0  0
   83.9118   23.9210   -0.3973 H   0  0  0  0  0  0  0  0  0  0  0  0
   85.7435   26.7371    1.2744 O   0  0  0  0  0  0  0  0  0  0  0  0
   84.9570   25.6496    1.0993 C   0  0  0  0  0  0  0  0  0  0  0  0
   86.0734   26.7541    2.1864 H   0  0  0  0  0  0  0  0  0  0  0  0
   79.7951   25.8315   -1.9263 C   0  0  0  0  0  0  0  0  0  0  0  0
   78.4263   26.2955   -1.8134 N   0  0  0  0  0  0  0  0  0  0  0  0
   77.9483   25.7283   -1.1133 H   0  0  0  0  0  0  0  0  0  0  0  0
   77.6880   26.2079   -3.0612 C   0  0  0  0  0  0  0  0  0  0  0  0
   77.2670   24.8164   -3.4015 C   0  0  0  0  0  0  0  0  0  0  0  0
   76.1653   24.4439   -3.0495 O   0  0  0  0  0  0  0  0  0  0  0  0
   78.0137   24.0571   -4.0103 O   0  0  0  0  0  0  0  0  0  0  0  0
   78.8622   24.3501   -4.2792 H   0  0  0  0  0  0  0  0  0  0  0  0
   78.5158   26.7553   -4.2242 C   0  0  0  0  0  0  0  0  0  0  0  0
   78.1845   28.1239   -4.6949 C   0  0  0  0  0  0  0  0  0  0  0  0
   79.2098   29.0465   -4.1336 C   0  0  0  0  0  0  0  0  0  0  0  0
   80.2867   28.6892   -3.8673 O   0  0  0  0  0  0  0  0  0  0  0  0
   78.8371   30.4144   -3.9424 N   0  0  0  0  0  0  0  0  0  0  0  0
   77.9265   30.7127   -4.1685 H   0  0  0  0  0  0  0  0  0  0  0  0
   79.4911   31.0574   -3.5847 H   0  0  0  0  0  0  0  0  0  0  0  0
 21 20  2  0  0  0
 24 19  1  0  0  0
 24 25  1  0  0  0
 19 20  1  0  0  0
 19 17  1  0  0  0
 20 22  1  0  0  0
 28 26  1  0  0  0
 16 17  1  0  0  0
 16  1  1  0  0  0
 25 26  1  0  0  0
 26 27  2  0  0  0
  5  4  1  0  0  0
  4  1  1  0  0  0
  4  7  1  0  0  0
  1  2  1  0  0  0
  8  7  1  0  0  0
  7 10  1  0  0  0
 11 10  1  0  0  0
 10 14  1  0  0  0
 14 13  1  0  0  0
 13 15  1  0  0  0
 11 12  1  0  0  0
  8  9  1  0  0  0
  5  6  1  0  0  0
  2  3  1  0  0  0
 17 18  1  0  0  0
 28 29  1  0  0  0
 28 30  1  0  0  0
 22 23  1  0  0  0
M  END
> <minimizedAffinity>
-7.74499

$$$$
5L9L_GOP_A_401


 30 29  0  0  0  0  0  0  0  0999 V2000
   83.8403   25.8861   -0.6726 C   0  0  0  0  0  0  0  0  0  0  0  0
   83.3149   24.6992   -0.4390 O   0  0  0  0  0  0  0  0  0  0  0  0
   82.8836   24.7018    0.4299 H   0  0  0  0  0  0  0  0  0  0  0  0
   84.9989   26.1849    0.2344 C   0  0  0  0  0  0  0  0  0  0  0  0
   84.6953   26.0968    1.5197 O   0  0  0  0  0  0  0  0  0  0  0  0
   84.4646   25.1796    1.7352 H   0  0  0  0  0  0  0  0  0  0  0  0
   86.1723   25.2983   -0.0207 C   0  0  0  0  0  0  0  0  0  0  0  0
   86.2188   24.8691   -1.3051 O   0  0  0  0  0  0  0  0  0  0  0  0
   85.4901   24.2492   -1.4655 H   0  0  0  0  0  0  0  0  0  0  0  0
   86.5630   24.2397    0.9935 C   0  0  0  0  0  0  0  0  0  0  0  0
   86.7310   24.6447    2.2795 O   0  0  0  0  0  0  0  0  0  0  0  0
   87.4746   25.2656    2.3284 H   0  0  0  0  0  0  0  0  0  0  0  0
   88.2080   22.7695    1.4911 O   0  0  0  0  0  0  0  0  0  0  0  0
   87.8261   23.5916    0.4860 C   0  0  0  0  0  0  0  0  0  0  0  0
   89.0241   22.3093    1.2400 H   0  0  0  0  0  0  0  0  0  0  0  0
   82.7309   26.9408   -0.8121 C   0  0  0  0  0  0  0  0  0  0  0  0
   82.1681   27.1183   -2.1363 N   0  0  0  0  0  0  0  0  0  0  0  0
   82.4580   28.0291   -2.4924 H   0  0  0  0  0  0  0  0  0  0  0  0
   80.7170   27.0562   -2.1540 C   0  0  0  0  0  0  0  0  0  0  0  0
   80.1844   25.6649   -2.0549 C   0  0  0  0  0  0  0  0  0  0  0  0
   79.0357   25.5108   -1.6903 O   0  0  0  0  0  0  0  0  0  0  0  0
   80.8866   24.6948   -2.3212 O   0  0  0  0  0  0  0  0  0  0  0  0
   81.7717   24.8201   -2.6019 H   0  0  0  0  0  0  0  0  0  0  0  0
   80.1595   27.6925   -3.4275 C   0  0  0  0  0  0  0  0  0  0  0  0
   79.0378   28.6509   -3.2604 C   0  0  0  0  0  0  0  0  0  0  0  0
   77.9084   28.1625   -4.0990 C   0  0  0  0  0  0  0  0  0  0  0  0
   77.0311   27.5368   -3.6549 O   0  0  0  0  0  0  0  0  0  0  0  0
   77.9187   28.5030   -5.4884 N   0  0  0  0  0  0  0  0  0  0  0  0
   78.6614   29.0318   -5.8601 H   0  0  0  0  0  0  0  0  0  0  0  0
   77.1832   28.2087   -6.0729 H   0  0  0  0  0  0  0  0  0  0  0  0
 21 20  2  0  0  0
 24 19  1  0  0  0
 24 25  1  0  0  0
 19 20  1  0  0  0
 19 17  1  0  0  0
 20 22  1  0  0  0
 28 26  1  0  0  0
 16 17  1  0  0  0
 16  1  1  0  0  0
 25 26  1  0  0  0
 26 27  2  0  0  0
  5  4  1  0  0  0
  4  1  1  0  0  0
  4  7  1  0  0  0
  1  2  1  0  0  0
  8  7  1  0  0  0
  7 10  1  0  0  0
 11 10  1  0  0  0
 10 14  1  0  0  0
 14 13  1  0  0  0
 13 15  1  0  0  0
 11 12  1  0  0  0
  8  9  1  0  0  0
  5  6  1  0  0  0
  2  3  1  0  0  0
 17 18  1  0  0  0
 28 29  1  0  0  0
 28 30  1  0  0  0
 22 23  1  0  0  0
M  END
> <minimizedAffinity>
-7.53348

$$$$
