2QTN_NCN_B_191


 26 27  0  0  0  0  0  0  0  0999 V2000
   14.6221  -26.1287   21.0987 C   0  0  0  0  0  0  0  0  0  0  0  0
   15.2415  -27.1995   20.4077 O   0  0  0  0  0  0  0  0  0  0  0  0
   14.6270  -24.9850   20.0489 C   0  0  0  0  0  0  0  0  0  0  0  0
   14.6184  -23.7007   20.6682 O   0  0  0  0  0  0  0  0  0  0  0  0
   15.9782  -25.1876   19.3631 C   0  0  0  0  0  0  0  0  0  0  0  0
   16.9858  -24.3417   19.9661 O   0  0  0  0  0  0  0  0  0  0  0  0
   16.3378  -26.6693   19.6524 C   0  0  0  0  0  0  0  0  0  0  0  0
   15.3780  -23.6252   21.2666 H   0  0  0  0  0  0  0  0  0  0  0  0
   17.0457  -24.5360   20.9146 H   0  0  0  0  0  0  0  0  0  0  0  0
   16.5938  -27.4079   18.4022 N   0  0  0  0  0  0  0  0  0  0  0  0
   16.2087  -26.8975   17.1722 C   0  0  0  0  0  0  0  0  0  0  0  0
   16.4530  -27.6333   15.9901 C   0  0  0  0  0  0  0  0  0  0  0  0
   17.0923  -28.8985   16.0855 C   0  0  0  0  0  0  0  0  0  0  0  0
   17.4831  -29.4073   17.3589 C   0  0  0  0  0  0  0  0  0  0  0  0
   17.2144  -28.6273   18.4947 C   0  0  0  0  0  0  0  0  0  0  0  0
   18.1656  -30.7546   17.5046 C   0  0  0  0  0  0  0  0  0  0  0  0
   17.5781  -31.8503   17.0362 O   0  0  0  0  0  0  0  0  0  0  0  0
   19.2397  -30.8225   18.0600 O   0  0  0  0  0  0  0  0  0  0  0  0
   16.7470  -31.7897   16.6077 H   0  0  0  0  0  0  0  0  0  0  0  0
   13.2188  -26.5167   21.6084 C   0  0  0  0  0  0  0  0  0  0  0  0
   12.2215  -26.0188   20.7190 O   0  0  0  0  0  0  0  0  0  0  0  0
   10.6753  -26.4501   20.7759 P   0  0  0  0  0  0  0  0  0  0  0  0
   10.2162  -26.4021   22.2106 O   0  0  0  0  0  0  0  0  0  0  0  0
   10.5290  -27.9441   20.2145 O   0  0  0  0  0  0  0  0  0  0  0  0
    9.8004  -25.4616   19.8492 O   0  0  0  0  0  0  0  0  0  0  0  0
    9.2826  -26.6606   22.2602 H   0  0  0  0  0  0  0  0  0  0  0  0
 22 23  1  0  0  0
 22 24  2  0  0  0
 22 25  1  0  0  0
 22 21  1  0  0  0
 21 20  1  0  0  0
 20  1  1  0  0  0
  1  2  1  0  0  0
  1  3  1  0  0  0
  2  7  1  0  0  0
  3  4  1  0  0  0
  3  5  1  0  0  0
  5  6  1  0  0  0
  5  7  1  0  0  0
  7 10  1  0  0  0
 10 11  1  0  0  0
 10 15  2  0  0  0
 11 12  2  0  0  0
 12 13  1  0  0  0
 13 14  2  0  0  0
 14 15  1  0  0  0
 14 16  1  0  0  0
 16 17  1  0  0  0
 16 18  2  0  0  0
 23 26  1  0  0  0
  4  8  1  0  0  0
  6  9  1  0  0  0
 17 19  1  0  0  0
M  CHG 1  10   1
M  CHG 1  25  -1
M  END
> <minimizedAffinity>
-7.52360

$$$$
2QTN_NCN_B_191


 26 27  0  0  0  0  0  0  0  0999 V2000
   15.8314  -27.4673   18.3010 C   0  0  0  0  0  0  0  0  0  0  0  0
   14.5151  -27.9911   18.2734 O   0  0  0  0  0  0  0  0  0  0  0  0
   15.9135  -26.8000   19.7002 C   0  0  0  0  0  0  0  0  0  0  0  0
   16.8642  -25.7376   19.7228 O   0  0  0  0  0  0  0  0  0  0  0  0
   14.5132  -26.2058   19.8526 C   0  0  0  0  0  0  0  0  0  0  0  0
   14.5011  -24.8202   19.4350 O   0  0  0  0  0  0  0  0  0  0  0  0
   13.6379  -27.0271   18.8689 C   0  0  0  0  0  0  0  0  0  0  0  0
   16.6373  -25.0861   19.0408 H   0  0  0  0  0  0  0  0  0  0  0  0
   14.8067  -24.7566   18.5166 H   0  0  0  0  0  0  0  0  0  0  0  0
   12.4885  -27.6370   19.5624 N   0  0  0  0  0  0  0  0  0  0  0  0
   12.5209  -28.9560   19.9877 C   0  0  0  0  0  0  0  0  0  0  0  0
   11.3993  -29.5204   20.6371 C   0  0  0  0  0  0  0  0  0  0  0  0
   10.2447  -28.7180   20.8409 C   0  0  0  0  0  0  0  0  0  0  0  0
   10.2296  -27.3625   20.3983 C   0  0  0  0  0  0  0  0  0  0  0  0
   11.3759  -26.8606   19.7622 C   0  0  0  0  0  0  0  0  0  0  0  0
    9.0162  -26.4727   20.5940 C   0  0  0  0  0  0  0  0  0  0  0  0
    8.9955  -25.2532   20.0672 O   0  0  0  0  0  0  0  0  0  0  0  0
    8.0770  -26.8784   21.2421 O   0  0  0  0  0  0  0  0  0  0  0  0
    9.7261  -24.9465   19.5670 H   0  0  0  0  0  0  0  0  0  0  0  0
   16.8862  -28.5666   18.0589 C   0  0  0  0  0  0  0  0  0  0  0  0
   16.6160  -29.2406   16.8315 O   0  0  0  0  0  0  0  0  0  0  0  0
   17.7158  -29.4954   15.6891 P   0  0  0  0  0  0  0  0  0  0  0  0
   19.0736  -29.5721   16.3388 O   0  0  0  0  0  0  0  0  0  0  0  0
   17.6844  -28.2738   14.6523 O   0  0  0  0  0  0  0  0  0  0  0  0
   17.3704  -30.8563   14.8954 O   0  0  0  0  0  0  0  0  0  0  0  0
   19.7488  -29.7260   15.6596 H   0  0  0  0  0  0  0  0  0  0  0  0
 22 23  1  0  0  0
 22 24  2  0  0  0
 22 25  1  0  0  0
 22 21  1  0  0  0
 21 20  1  0  0  0
 20  1  1  0  0  0
  1  2  1  0  0  0
  1  3  1  0  0  0
  2  7  1  0  0  0
  3  4  1  0  0  0
  3  5  1  0  0  0
  5  6  1  0  0  0
  5  7  1  0  0  0
  7 10  1  0  0  0
 10 11  1  0  0  0
 10 15  2  0  0  0
 11 12  2  0  0  0
 12 13  1  0  0  0
 13 14  2  0  0  0
 14 15  1  0  0  0
 14 16  1  0  0  0
 16 17  1  0  0  0
 16 18  2  0  0  0
 23 26  1  0  0  0
  4  8  1  0  0  0
  6  9  1  0  0  0
 17 19  1  0  0  0
M  CHG 1  10   1
M  CHG 1  25  -1
M  END
> <minimizedAffinity>
-7.46446

$$$$
2QTN_NCN_B_191


 26 27  0  0  0  0  0  0  0  0999 V2000
   12.4312  -28.1627   23.0951 C   0  0  0  0  0  0  0  0  0  0  0  0
   12.9174  -28.3404   21.7760 O   0  0  0  0  0  0  0  0  0  0  0  0
   13.0207  -26.7857   23.5030 C   0  0  0  0  0  0  0  0  0  0  0  0
   13.1750  -26.6759   24.9162 O   0  0  0  0  0  0  0  0  0  0  0  0
   14.4078  -26.8302   22.8621 C   0  0  0  0  0  0  0  0  0  0  0  0
   15.3941  -27.2888   23.8168 O   0  0  0  0  0  0  0  0  0  0  0  0
   14.2775  -27.8909   21.7367 C   0  0  0  0  0  0  0  0  0  0  0  0
   13.7334  -27.4010   25.2377 H   0  0  0  0  0  0  0  0  0  0  0  0
   15.1384  -28.1627   24.1513 H   0  0  0  0  0  0  0  0  0  0  0  0
   14.6670  -27.3299   20.4299 N   0  0  0  0  0  0  0  0  0  0  0  0
   14.7543  -28.1286   19.3002 C   0  0  0  0  0  0  0  0  0  0  0  0
   15.1445  -27.5678   18.0626 C   0  0  0  0  0  0  0  0  0  0  0  0
   15.4473  -26.1812   17.9990 C   0  0  0  0  0  0  0  0  0  0  0  0
   15.3505  -25.3743   19.1707 C   0  0  0  0  0  0  0  0  0  0  0  0
   14.9553  -25.9906   20.3685 C   0  0  0  0  0  0  0  0  0  0  0  0
   15.6674  -23.8907   19.1463 C   0  0  0  0  0  0  0  0  0  0  0  0
   14.7049  -23.0104   18.8938 O   0  0  0  0  0  0  0  0  0  0  0  0
   16.8028  -23.5196   19.3461 O   0  0  0  0  0  0  0  0  0  0  0  0
   13.8288  -23.3053   18.7402 H   0  0  0  0  0  0  0  0  0  0  0  0
   10.8912  -28.2351   23.1482 C   0  0  0  0  0  0  0  0  0  0  0  0
   10.3280  -27.0259   22.6437 O   0  0  0  0  0  0  0  0  0  0  0  0
    9.8719  -26.8193   21.1176 P   0  0  0  0  0  0  0  0  0  0  0  0
   10.3377  -28.0053   20.3127 O   0  0  0  0  0  0  0  0  0  0  0  0
   10.5485  -25.4833   20.5468 O   0  0  0  0  0  0  0  0  0  0  0  0
    8.2687  -26.6581   21.0462 O   0  0  0  0  0  0  0  0  0  0  0  0
   10.0687  -27.8939   19.3874 H   0  0  0  0  0  0  0  0  0  0  0  0
 22 23  1  0  0  0
 22 24  2  0  0  0
 22 25  1  0  0  0
 22 21  1  0  0  0
 21 20  1  0  0  0
 20  1  1  0  0  0
  1  2  1  0  0  0
  1  3  1  0  0  0
  2  7  1  0  0  0
  3  4  1  0  0  0
  3  5  1  0  0  0
  5  6  1  0  0  0
  5  7  1  0  0  0
  7 10  1  0  0  0
 10 11  1  0  0  0
 10 15  2  0  0  0
 11 12  2  0  0  0
 12 13  1  0  0  0
 13 14  2  0  0  0
 14 15  1  0  0  0
 14 16  1  0  0  0
 16 17  1  0  0  0
 16 18  2  0  0  0
 23 26  1  0  0  0
  4  8  1  0  0  0
  6  9  1  0  0  0
 17 19  1  0  0  0
M  CHG 1  10   1
M  CHG 1  25  -1
M  END
> <minimizedAffinity>
-7.33582

$$$$
2QTN_NCN_B_191


 26 27  0  0  0  0  0  0  0  0999 V2000
   13.9797  -27.5757   19.8371 C   0  0  0  0  0  0  0  0  0  0  0  0
   14.7901  -28.7269   19.6763 O   0  0  0  0  0  0  0  0  0  0  0  0
   14.5295  -26.6067   18.7560 C   0  0  0  0  0  0  0  0  0  0  0  0
   14.3045  -25.2431   19.1066 O   0  0  0  0  0  0  0  0  0  0  0  0
   16.0317  -26.8843   18.8132 C   0  0  0  0  0  0  0  0  0  0  0  0
   16.6908  -25.9355   19.6849 O   0  0  0  0  0  0  0  0  0  0  0  0
   16.1377  -28.2965   19.4481 C   0  0  0  0  0  0  0  0  0  0  0  0
   14.7051  -25.0612   19.9711 H   0  0  0  0  0  0  0  0  0  0  0  0
   16.2958  -25.9808   20.5697 H   0  0  0  0  0  0  0  0  0  0  0  0
   16.9020  -29.2127   18.5817 N   0  0  0  0  0  0  0  0  0  0  0  0
   17.3650  -30.4314   19.0530 C   0  0  0  0  0  0  0  0  0  0  0  0
   18.1081  -31.2844   18.2054 C   0  0  0  0  0  0  0  0  0  0  0  0
   18.3734  -30.8710   16.8722 C   0  0  0  0  0  0  0  0  0  0  0  0
   17.8879  -29.6148   16.4038 C   0  0  0  0  0  0  0  0  0  0  0  0
   17.1542  -28.8146   17.2939 C   0  0  0  0  0  0  0  0  0  0  0  0
   18.1513  -29.1349   14.9887 C   0  0  0  0  0  0  0  0  0  0  0  0
   18.1535  -27.8341   14.7186 O   0  0  0  0  0  0  0  0  0  0  0  0
   18.3462  -29.9455   14.1103 O   0  0  0  0  0  0  0  0  0  0  0  0
   18.0018  -27.2131   15.4037 H   0  0  0  0  0  0  0  0  0  0  0  0
   12.4811  -27.9096   19.6876 C   0  0  0  0  0  0  0  0  0  0  0  0
   11.7232  -26.7079   19.5647 O   0  0  0  0  0  0  0  0  0  0  0  0
   10.3952  -26.3964   20.4128 P   0  0  0  0  0  0  0  0  0  0  0  0
   10.7996  -25.7914   21.7327 O   0  0  0  0  0  0  0  0  0  0  0  0
    9.6060  -27.7675   20.6694 O   0  0  0  0  0  0  0  0  0  0  0  0
    9.4401  -25.3980   19.5807 O   0  0  0  0  0  0  0  0  0  0  0  0
   10.0063  -25.5979   22.2562 H   0  0  0  0  0  0  0  0  0  0  0  0
 22 23  1  0  0  0
 22 24  2  0  0  0
 22 25  1  0  0  0
 22 21  1  0  0  0
 21 20  1  0  0  0
 20  1  1  0  0  0
  1  2  1  0  0  0
  1  3  1  0  0  0
  2  7  1  0  0  0
  3  4  1  0  0  0
  3  5  1  0  0  0
  5  6  1  0  0  0
  5  7  1  0  0  0
  7 10  1  0  0  0
 10 11  1  0  0  0
 10 15  2  0  0  0
 11 12  2  0  0  0
 12 13  1  0  0  0
 13 14  2  0  0  0
 14 15  1  0  0  0
 14 16  1  0  0  0
 16 17  1  0  0  0
 16 18  2  0  0  0
 23 26  1  0  0  0
  4  8  1  0  0  0
  6  9  1  0  0  0
 17 19  1  0  0  0
M  CHG 1  10   1
M  CHG 1  25  -1
M  END
> <minimizedAffinity>
-7.18921

$$$$
2QTN_NCN_B_191


 26 27  0  0  0  0  0  0  0  0999 V2000
   13.3978  -27.0596   20.0318 C   0  0  0  0  0  0  0  0  0  0  0  0
   12.8383  -28.3612   20.0588 O   0  0  0  0  0  0  0  0  0  0  0  0
   12.4636  -26.2573   20.9771 C   0  0  0  0  0  0  0  0  0  0  0  0
   12.4508  -24.8690   20.6520 O   0  0  0  0  0  0  0  0  0  0  0  0
   11.0928  -26.8486   20.6478 C   0  0  0  0  0  0  0  0  0  0  0  0
   10.4170  -26.0421   19.6542 O   0  0  0  0  0  0  0  0  0  0  0  0
   11.4112  -28.2349   20.0272 C   0  0  0  0  0  0  0  0  0  0  0  0
   12.1864  -24.7562   19.7256 H   0  0  0  0  0  0  0  0  0  0  0  0
   10.9682  -25.9804   18.8584 H   0  0  0  0  0  0  0  0  0  0  0  0
   10.7158  -29.3142   20.7522 N   0  0  0  0  0  0  0  0  0  0  0  0
   11.2328  -30.5996   20.7996 C   0  0  0  0  0  0  0  0  0  0  0  0
   10.5380  -31.6193   21.4895 C   0  0  0  0  0  0  0  0  0  0  0  0
    9.3068  -31.3059   22.1254 C   0  0  0  0  0  0  0  0  0  0  0  0
    8.7908  -29.9778   22.0678 C   0  0  0  0  0  0  0  0  0  0  0  0
    9.5295  -29.0099   21.3691 C   0  0  0  0  0  0  0  0  0  0  0  0
    7.4788  -29.6021   22.7309 C   0  0  0  0  0  0  0  0  0  0  0  0
    6.7870  -28.5575   22.2890 O   0  0  0  0  0  0  0  0  0  0  0  0
    7.0769  -30.2529   23.6699 O   0  0  0  0  0  0  0  0  0  0  0  0
    7.1045  -28.0589   21.5620 H   0  0  0  0  0  0  0  0  0  0  0  0
   14.8795  -27.0685   20.4609 C   0  0  0  0  0  0  0  0  0  0  0  0
   15.3271  -25.7353   20.6977 O   0  0  0  0  0  0  0  0  0  0  0  0
   15.8769  -24.7580   19.5479 P   0  0  0  0  0  0  0  0  0  0  0  0
   17.1813  -24.1603   20.0092 O   0  0  0  0  0  0  0  0  0  0  0  0
   14.8081  -23.5896   19.3006 O   0  0  0  0  0  0  0  0  0  0  0  0
   16.0659  -25.5846   18.1759 O   0  0  0  0  0  0  0  0  0  0  0  0
   17.5255  -23.5669   19.3235 H   0  0  0  0  0  0  0  0  0  0  0  0
 22 23  1  0  0  0
 22 24  2  0  0  0
 22 25  1  0  0  0
 22 21  1  0  0  0
 21 20  1  0  0  0
 20  1  1  0  0  0
  1  2  1  0  0  0
  1  3  1  0  0  0
  2  7  1  0  0  0
  3  4  1  0  0  0
  3  5  1  0  0  0
  5  6  1  0  0  0
  5  7  1  0  0  0
  7 10  1  0  0  0
 10 11  1  0  0  0
 10 15  2  0  0  0
 11 12  2  0  0  0
 12 13  1  0  0  0
 13 14  2  0  0  0
 14 15  1  0  0  0
 14 16  1  0  0  0
 16 17  1  0  0  0
 16 18  2  0  0  0
 23 26  1  0  0  0
  4  8  1  0  0  0
  6  9  1  0  0  0
 17 19  1  0  0  0
M  CHG 1  10   1
M  CHG 1  25  -1
M  END
> <minimizedAffinity>
-7.15816

$$$$
2QTN_NCN_B_191


 26 27  0  0  0  0  0  0  0  0999 V2000
   14.5006  -26.5110   19.6984 C   0  0  0  0  0  0  0  0  0  0  0  0
   13.2067  -25.9762   19.9169 O   0  0  0  0  0  0  0  0  0  0  0  0
   14.3541  -27.9842   20.1656 C   0  0  0  0  0  0  0  0  0  0  0  0
   15.6002  -28.5271   20.5962 O   0  0  0  0  0  0  0  0  0  0  0  0
   13.4367  -27.8436   21.3804 C   0  0  0  0  0  0  0  0  0  0  0  0
   14.2146  -27.7650   22.5982 O   0  0  0  0  0  0  0  0  0  0  0  0
   12.7174  -26.4856   21.1638 C   0  0  0  0  0  0  0  0  0  0  0  0
   15.9668  -27.9739   21.3037 H   0  0  0  0  0  0  0  0  0  0  0  0
   14.8307  -27.0180   22.5406 H   0  0  0  0  0  0  0  0  0  0  0  0
   11.2523  -26.6500   21.1900 N   0  0  0  0  0  0  0  0  0  0  0  0
   10.6515  -27.6333   21.9606 C   0  0  0  0  0  0  0  0  0  0  0  0
    9.2453  -27.7787   21.9558 C   0  0  0  0  0  0  0  0  0  0  0  0
    8.4649  -26.9074   21.1495 C   0  0  0  0  0  0  0  0  0  0  0  0
    9.0998  -25.9004   20.3644 C   0  0  0  0  0  0  0  0  0  0  0  0
   10.4995  -25.8060   20.4144 C   0  0  0  0  0  0  0  0  0  0  0  0
    8.3035  -24.9517   19.4880 C   0  0  0  0  0  0  0  0  0  0  0  0
    7.6454  -23.9361   20.0363 O   0  0  0  0  0  0  0  0  0  0  0  0
    8.2639  -25.1356   18.2916 O   0  0  0  0  0  0  0  0  0  0  0  0
    7.6808  -23.8004   20.9627 H   0  0  0  0  0  0  0  0  0  0  0  0
   14.9409  -26.3518   18.2286 C   0  0  0  0  0  0  0  0  0  0  0  0
   16.2215  -26.9488   18.0353 O   0  0  0  0  0  0  0  0  0  0  0  0
   16.5457  -28.0184   16.8819 P   0  0  0  0  0  0  0  0  0  0  0  0
   17.0513  -27.2789   15.6698 O   0  0  0  0  0  0  0  0  0  0  0  0
   15.2014  -28.8069   16.5083 O   0  0  0  0  0  0  0  0  0  0  0  0
   17.6364  -29.0800   17.4155 O   0  0  0  0  0  0  0  0  0  0  0  0
   17.2514  -27.9135   14.9640 H   0  0  0  0  0  0  0  0  0  0  0  0
 22 23  1  0  0  0
 22 24  2  0  0  0
 22 25  1  0  0  0
 22 21  1  0  0  0
 21 20  1  0  0  0
 20  1  1  0  0  0
  1  2  1  0  0  0
  1  3  1  0  0  0
  2  7  1  0  0  0
  3  4  1  0  0  0
  3  5  1  0  0  0
  5  6  1  0  0  0
  5  7  1  0  0  0
  7 10  1  0  0  0
 10 11  1  0  0  0
 10 15  2  0  0  0
 11 12  2  0  0  0
 12 13  1  0  0  0
 13 14  2  0  0  0
 14 15  1  0  0  0
 14 16  1  0  0  0
 16 17  1  0  0  0
 16 18  2  0  0  0
 23 26  1  0  0  0
  4  8  1  0  0  0
  6  9  1  0  0  0
 17 19  1  0  0  0
M  CHG 1  10   1
M  CHG 1  25  -1
M  END
> <minimizedAffinity>
-6.99011

$$$$
2QTN_NCN_B_191


 26 27  0  0  0  0  0  0  0  0999 V2000
   17.9582  -30.4785   19.2599 C   0  0  0  0  0  0  0  0  0  0  0  0
   16.9329  -30.0450   20.1367 O   0  0  0  0  0  0  0  0  0  0  0  0
   18.3785  -29.1698   18.5383 C   0  0  0  0  0  0  0  0  0  0  0  0
   18.9297  -29.4319   17.2497 O   0  0  0  0  0  0  0  0  0  0  0  0
   17.0369  -28.4590   18.3603 C   0  0  0  0  0  0  0  0  0  0  0  0
   16.4815  -28.7416   17.0541 O   0  0  0  0  0  0  0  0  0  0  0  0
   16.1185  -29.0958   19.4371 C   0  0  0  0  0  0  0  0  0  0  0  0
   18.2885  -29.9299   16.7189 H   0  0  0  0  0  0  0  0  0  0  0  0
   16.3830  -29.7004   16.9452 H   0  0  0  0  0  0  0  0  0  0  0  0
   15.5392  -28.0654   20.3185 N   0  0  0  0  0  0  0  0  0  0  0  0
   14.9865  -28.3954   21.5462 C   0  0  0  0  0  0  0  0  0  0  0  0
   14.4244  -27.3896   22.3652 C   0  0  0  0  0  0  0  0  0  0  0  0
   14.4327  -26.0443   21.9086 C   0  0  0  0  0  0  0  0  0  0  0  0
   15.0071  -25.7227   20.6437 C   0  0  0  0  0  0  0  0  0  0  0  0
   15.5512  -26.7665   19.8787 C   0  0  0  0  0  0  0  0  0  0  0  0
   15.0339  -24.2996   20.1181 C   0  0  0  0  0  0  0  0  0  0  0  0
   13.9843  -23.5054   20.2991 O   0  0  0  0  0  0  0  0  0  0  0  0
   16.0114  -23.9009   19.5245 O   0  0  0  0  0  0  0  0  0  0  0  0
   13.2317  -23.8211   20.7594 H   0  0  0  0  0  0  0  0  0  0  0  0
   19.1015  -31.1779   20.0237 C   0  0  0  0  0  0  0  0  0  0  0  0
   20.3272  -30.4798   19.8138 O   0  0  0  0  0  0  0  0  0  0  0  0
   21.6889  -30.8053   20.6009 P   0  0  0  0  0  0  0  0  0  0  0  0
   22.5225  -29.5508   20.6569 O   0  0  0  0  0  0  0  0  0  0  0  0
   22.4888  -31.9471   19.8104 O   0  0  0  0  0  0  0  0  0  0  0  0
   21.3457  -31.3451   22.0815 O   0  0  0  0  0  0  0  0  0  0  0  0
   23.3493  -29.7329   21.1303 H   0  0  0  0  0  0  0  0  0  0  0  0
 22 23  1  0  0  0
 22 24  2  0  0  0
 22 25  1  0  0  0
 22 21  1  0  0  0
 21 20  1  0  0  0
 20  1  1  0  0  0
  1  2  1  0  0  0
  1  3  1  0  0  0
  2  7  1  0  0  0
  3  4  1  0  0  0
  3  5  1  0  0  0
  5  6  1  0  0  0
  5  7  1  0  0  0
  7 10  1  0  0  0
 10 11  1  0  0  0
 10 15  2  0  0  0
 11 12  2  0  0  0
 12 13  1  0  0  0
 13 14  2  0  0  0
 14 15  1  0  0  0
 14 16  1  0  0  0
 16 17  1  0  0  0
 16 18  2  0  0  0
 23 26  1  0  0  0
  4  8  1  0  0  0
  6  9  1  0  0  0
 17 19  1  0  0  0
M  CHG 1  10   1
M  CHG 1  25  -1
M  END
> <minimizedAffinity>
-6.96117

$$$$
2QTN_NCN_B_191


 26 27  0  0  0  0  0  0  0  0999 V2000
   14.3708  -27.9993   21.7006 C   0  0  0  0  0  0  0  0  0  0  0  0
   13.1550  -27.3825   22.0869 O   0  0  0  0  0  0  0  0  0  0  0  0
   13.8974  -29.3167   21.0294 C   0  0  0  0  0  0  0  0  0  0  0  0
   14.8927  -30.3347   21.1059 O   0  0  0  0  0  0  0  0  0  0  0  0
   12.7178  -29.7194   21.9146 C   0  0  0  0  0  0  0  0  0  0  0  0
   13.1444  -30.6510   22.9366 O   0  0  0  0  0  0  0  0  0  0  0  0
   12.2827  -28.3969   22.6005 C   0  0  0  0  0  0  0  0  0  0  0  0
   15.1311  -30.4848   22.0341 H   0  0  0  0  0  0  0  0  0  0  0  0
   13.8528  -30.2501   23.4642 H   0  0  0  0  0  0  0  0  0  0  0  0
   10.8562  -28.1156   22.3557 N   0  0  0  0  0  0  0  0  0  0  0  0
    9.8597  -28.8336   22.9986 C   0  0  0  0  0  0  0  0  0  0  0  0
    8.4996  -28.5533   22.7344 C   0  0  0  0  0  0  0  0  0  0  0  0
    8.1748  -27.5321   21.8015 C   0  0  0  0  0  0  0  0  0  0  0  0
    9.2128  -26.8025   21.1507 C   0  0  0  0  0  0  0  0  0  0  0  0
   10.5435  -27.1271   21.4581 C   0  0  0  0  0  0  0  0  0  0  0  0
    8.9089  -25.7065   20.1464 C   0  0  0  0  0  0  0  0  0  0  0  0
    7.7824  -25.0091   20.2456 O   0  0  0  0  0  0  0  0  0  0  0  0
    9.6933  -25.4833   19.2511 O   0  0  0  0  0  0  0  0  0  0  0  0
    7.1805  -25.1877   20.9411 H   0  0  0  0  0  0  0  0  0  0  0  0
   15.2065  -27.0836   20.7826 C   0  0  0  0  0  0  0  0  0  0  0  0
   14.9288  -25.7156   21.0742 O   0  0  0  0  0  0  0  0  0  0  0  0
   14.9955  -24.5367   19.9854 P   0  0  0  0  0  0  0  0  0  0  0  0
   14.0413  -23.4461   20.3998 O   0  0  0  0  0  0  0  0  0  0  0  0
   14.5585  -25.1193   18.5577 O   0  0  0  0  0  0  0  0  0  0  0  0
   16.5058  -23.9813   19.8768 O   0  0  0  0  0  0  0  0  0  0  0  0
   14.0712  -22.7264   19.7502 H   0  0  0  0  0  0  0  0  0  0  0  0
 22 23  1  0  0  0
 22 24  2  0  0  0
 22 25  1  0  0  0
 22 21  1  0  0  0
 21 20  1  0  0  0
 20  1  1  0  0  0
  1  2  1  0  0  0
  1  3  1  0  0  0
  2  7  1  0  0  0
  3  4  1  0  0  0
  3  5  1  0  0  0
  5  6  1  0  0  0
  5  7  1  0  0  0
  7 10  1  0  0  0
 10 11  1  0  0  0
 10 15  2  0  0  0
 11 12  2  0  0  0
 12 13  1  0  0  0
 13 14  2  0  0  0
 14 15  1  0  0  0
 14 16  1  0  0  0
 16 17  1  0  0  0
 16 18  2  0  0  0
 23 26  1  0  0  0
  4  8  1  0  0  0
  6  9  1  0  0  0
 17 19  1  0  0  0
M  CHG 1  10   1
M  CHG 1  25  -1
M  END
> <minimizedAffinity>
-6.91540

$$$$
2QTN_NCN_B_191


 26 27  0  0  0  0  0  0  0  0999 V2000
   12.0197  -29.2411   21.1190 C   0  0  0  0  0  0  0  0  0  0  0  0
   12.7351  -29.0371   19.9131 O   0  0  0  0  0  0  0  0  0  0  0  0
   12.6726  -28.2211   22.0903 C   0  0  0  0  0  0  0  0  0  0  0  0
   12.5536  -28.6364   23.4492 O   0  0  0  0  0  0  0  0  0  0  0  0
   14.1448  -28.2923   21.6849 C   0  0  0  0  0  0  0  0  0  0  0  0
   14.8603  -29.2233   22.5309 O   0  0  0  0  0  0  0  0  0  0  0  0
   14.1187  -28.8564   20.2393 C   0  0  0  0  0  0  0  0  0  0  0  0
   12.9480  -29.5164   23.5540 H   0  0  0  0  0  0  0  0  0  0  0  0
   14.4427  -30.0971   22.4756 H   0  0  0  0  0  0  0  0  0  0  0  0
   14.8239  -27.9590   19.3058 N   0  0  0  0  0  0  0  0  0  0  0  0
   15.1882  -28.3818   18.0368 C   0  0  0  0  0  0  0  0  0  0  0  0
   15.8768  -27.5056   17.1670 C   0  0  0  0  0  0  0  0  0  0  0  0
   16.1901  -26.1944   17.6155 C   0  0  0  0  0  0  0  0  0  0  0  0
   15.8060  -25.7759   18.9234 C   0  0  0  0  0  0  0  0  0  0  0  0
   15.1223  -26.6922   19.7380 C   0  0  0  0  0  0  0  0  0  0  0  0
   16.1234  -24.3856   19.4416 C   0  0  0  0  0  0  0  0  0  0  0  0
   17.3033  -24.1388   20.0003 O   0  0  0  0  0  0  0  0  0  0  0  0
   15.2905  -23.5109   19.3525 O   0  0  0  0  0  0  0  0  0  0  0  0
   17.9426  -24.8208   20.0656 H   0  0  0  0  0  0  0  0  0  0  0  0
   10.5023  -29.0467   20.9200 C   0  0  0  0  0  0  0  0  0  0  0  0
   10.0812  -27.8307   21.5346 O   0  0  0  0  0  0  0  0  0  0  0  0
    9.9755  -26.4268   20.7616 P   0  0  0  0  0  0  0  0  0  0  0  0
   10.4423  -25.3329   21.6874 O   0  0  0  0  0  0  0  0  0  0  0  0
    8.4472  -26.1694   20.3533 O   0  0  0  0  0  0  0  0  0  0  0  0
   10.8680  -26.4764   19.4192 O   0  0  0  0  0  0  0  0  0  0  0  0
   10.3838  -24.4779   21.2330 H   0  0  0  0  0  0  0  0  0  0  0  0
 22 23  1  0  0  0
 22 24  2  0  0  0
 22 25  1  0  0  0
 22 21  1  0  0  0
 21 20  1  0  0  0
 20  1  1  0  0  0
  1  2  1  0  0  0
  1  3  1  0  0  0
  2  7  1  0  0  0
  3  4  1  0  0  0
  3  5  1  0  0  0
  5  6  1  0  0  0
  5  7  1  0  0  0
  7 10  1  0  0  0
 10 11  1  0  0  0
 10 15  2  0  0  0
 11 12  2  0  0  0
 12 13  1  0  0  0
 13 14  2  0  0  0
 14 15  1  0  0  0
 14 16  1  0  0  0
 16 17  1  0  0  0
 16 18  2  0  0  0
 23 26  1  0  0  0
  4  8  1  0  0  0
  6  9  1  0  0  0
 17 19  1  0  0  0
M  CHG 1  10   1
M  CHG 1  25  -1
M  END
> <minimizedAffinity>
-6.87438

$$$$
2QTN_NCN_B_191


 26 27  0  0  0  0  0  0  0  0999 V2000
   10.3115  -27.8709   22.2272 C   0  0  0  0  0  0  0  0  0  0  0  0
   11.6958  -27.6542   22.0163 O   0  0  0  0  0  0  0  0  0  0  0  0
    9.7115  -27.7124   20.8042 C   0  0  0  0  0  0  0  0  0  0  0  0
    8.3474  -27.2997   20.8501 O   0  0  0  0  0  0  0  0  0  0  0  0
   10.5487  -26.5691   20.2307 C   0  0  0  0  0  0  0  0  0  0  0  0
    9.8744  -25.3023   20.4177 O   0  0  0  0  0  0  0  0  0  0  0  0
   11.8425  -26.5725   21.0878 C   0  0  0  0  0  0  0  0  0  0  0  0
    8.2768  -26.4716   21.3503 H   0  0  0  0  0  0  0  0  0  0  0  0
    9.7004  -25.1649   21.3620 H   0  0  0  0  0  0  0  0  0  0  0  0
   13.0420  -26.6935   20.2389 N   0  0  0  0  0  0  0  0  0  0  0  0
   13.2741  -27.8284   19.4773 C   0  0  0  0  0  0  0  0  0  0  0  0
   14.4398  -27.9245   18.6834 C   0  0  0  0  0  0  0  0  0  0  0  0
   15.3648  -26.8461   18.6835 C   0  0  0  0  0  0  0  0  0  0  0  0
   15.1091  -25.6857   19.4718 C   0  0  0  0  0  0  0  0  0  0  0  0
   13.9323  -25.6505   20.2365 C   0  0  0  0  0  0  0  0  0  0  0  0
   16.0721  -24.5136   19.5020 C   0  0  0  0  0  0  0  0  0  0  0  0
   17.2980  -24.6742   19.9883 O   0  0  0  0  0  0  0  0  0  0  0  0
   15.7101  -23.4330   19.0921 O   0  0  0  0  0  0  0  0  0  0  0  0
   17.5707  -25.5133   20.3037 H   0  0  0  0  0  0  0  0  0  0  0  0
   10.0435  -29.2426   22.8801 C   0  0  0  0  0  0  0  0  0  0  0  0
    8.6763  -29.6079   22.7048 O   0  0  0  0  0  0  0  0  0  0  0  0
    8.1760  -31.1154   22.4661 P   0  0  0  0  0  0  0  0  0  0  0  0
    6.7420  -31.2222   22.9177 O   0  0  0  0  0  0  0  0  0  0  0  0
    9.0872  -32.1109   23.3305 O   0  0  0  0  0  0  0  0  0  0  0  0
    8.3274  -31.4983   20.9067 O   0  0  0  0  0  0  0  0  0  0  0  0
    6.4261  -32.1289   22.7792 H   0  0  0  0  0  0  0  0  0  0  0  0
 22 23  1  0  0  0
 22 24  2  0  0  0
 22 25  1  0  0  0
 22 21  1  0  0  0
 21 20  1  0  0  0
 20  1  1  0  0  0
  1  2  1  0  0  0
  1  3  1  0  0  0
  2  7  1  0  0  0
  3  4  1  0  0  0
  3  5  1  0  0  0
  5  6  1  0  0  0
  5  7  1  0  0  0
  7 10  1  0  0  0
 10 11  1  0  0  0
 10 15  2  0  0  0
 11 12  2  0  0  0
 12 13  1  0  0  0
 13 14  2  0  0  0
 14 15  1  0  0  0
 14 16  1  0  0  0
 16 17  1  0  0  0
 16 18  2  0  0  0
 23 26  1  0  0  0
  4  8  1  0  0  0
  6  9  1  0  0  0
 17 19  1  0  0  0
M  CHG 1  10   1
M  CHG 1  25  -1
M  END
> <minimizedAffinity>
-6.76754

$$$$
