6EVR_BZW_A_302


 30 32  0  0  0  0  0  0  0  0999 V2000
   10.3152   35.3593   10.7529 C   0  0  0  0  0  0  0  0  0  0  0  0
   13.2380   32.4990   15.9724 O   0  0  0  0  0  0  0  0  0  0  0  0
   10.6072   35.5546   14.5713 C   0  0  0  0  0  0  0  0  0  0  0  0
   12.9903   33.6730   16.1421 C   0  0  0  0  0  0  0  0  0  0  0  0
   12.7802   33.9731   13.7342 C   0  0  0  0  0  0  0  0  0  0  0  0
   11.4279   33.8835   13.0555 C   0  0  0  0  0  0  0  0  0  0  0  0
   10.7447   35.1856   13.1416 N   0  0  0  0  0  0  0  0  0  0  0  0
   10.2175   35.9143   12.1458 C   0  0  0  0  0  0  0  0  0  0  0  0
    9.5845   36.9179   12.3939 O   0  0  0  0  0  0  0  0  0  0  0  0
   12.6185   34.4706   15.1194 N   0  0  0  0  0  0  0  0  0  0  0  0
   11.9749   35.7795   15.1878 C   0  0  0  0  0  0  0  0  0  0  0  0
   14.2000   36.0648   18.8482 C   0  0  0  0  0  0  0  0  0  0  0  0
   13.8429   35.3381   19.9891 C   0  0  0  0  0  0  0  0  0  0  0  0
   13.1257   34.1666   19.8820 C   0  0  0  0  0  0  0  0  0  0  0  0
   12.8212   33.6712   18.6150 C   0  0  0  0  0  0  0  0  0  0  0  0
   13.3179   34.2969   17.4724 C   0  0  0  0  0  0  0  0  0  0  0  0
   14.0083   35.4991   17.5997 C   0  0  0  0  0  0  0  0  0  0  0  0
   14.1747   36.0628   21.5712 S   0  0  0  0  0  0  0  0  0  0  0  0
   14.8662   35.0455   22.3006 O   0  0  0  0  0  0  0  0  0  0  0  0
   12.9052   36.5948   22.0760 O   0  0  0  0  0  0  0  0  0  0  0  0
   15.1522   37.3308   21.3422 N   0  0  0  0  0  0  0  0  0  0  0  0
   14.6551   38.0536   20.8218 H   0  0  0  0  0  0  0  0  0  0  0  0
   15.9736   37.0359   20.8143 H   0  0  0  0  0  0  0  0  0  0  0  0
    9.6322   34.6267   15.3280 C   0  0  0  0  0  0  0  0  0  0  0  0
    8.2419   34.6747   14.7489 C   0  0  0  0  0  0  0  0  0  0  0  0
    7.5238   35.8694   14.7416 C   0  0  0  0  0  0  0  0  0  0  0  0
    6.3089   35.9563   14.0677 C   0  0  0  0  0  0  0  0  0  0  0  0
    5.7633   34.8263   13.4741 C   0  0  0  0  0  0  0  0  0  0  0  0
    6.4336   33.6204   13.5468 C   0  0  0  0  0  0  0  0  0  0  0  0
    7.6825   33.5522   14.1695 C   0  0  0  0  0  0  0  0  0  0  0  0
  1  8  1  0  0  0
  8  9  2  0  0  0
  8  7  1  0  0  0
  6  7  1  0  0  0
  6  5  1  0  0  0
  7  3  1  0  0  0
 28 29  2  0  0  0
 28 27  1  0  0  0
  5 10  1  0  0  0
 29 30  1  0  0  0
 27 26  2  0  0  0
 30 25  2  0  0  0
 26 25  1  0  0  0
  3 11  1  0  0  0
  3 24  1  0  0  0
 25 24  1  0  0  0
 10 11  1  0  0  0
 10  4  1  0  0  0
  2  4  2  0  0  0
  4 16  1  0  0  0
 15 16  2  0  0  0
 15 14  1  0  0  0
 16 17  1  0  0  0
 14 13  2  0  0  0
 17 12  2  0  0  0
 13 12  1  0  0  0
 13 18  1  0  0  0
 21 18  1  0  0  0
 18 20  2  0  0  0
 18 19  2  0  0  0
 21 22  1  0  0  0
 21 23  1  0  0  0
M  END
> <minimizedAffinity>
-8.48403

$$$$
6EVR_BZW_A_302


 30 32  0  0  0  0  0  0  0  0999 V2000
   12.4931   31.2009   10.9421 C   0  0  0  0  0  0  0  0  0  0  0  0
   10.4561   33.3184   16.8863 O   0  0  0  0  0  0  0  0  0  0  0  0
   13.1593   33.8564   13.6269 C   0  0  0  0  0  0  0  0  0  0  0  0
   11.6249   33.5506   16.6665 C   0  0  0  0  0  0  0  0  0  0  0  0
   11.6227   31.8720   14.9016 C   0  0  0  0  0  0  0  0  0  0  0  0
   11.3717   32.2626   13.4587 C   0  0  0  0  0  0  0  0  0  0  0  0
   12.6314   32.7138   12.8429 N   0  0  0  0  0  0  0  0  0  0  0  0
   13.2032   32.2804   11.7088 C   0  0  0  0  0  0  0  0  0  0  0  0
   14.1894   32.8346   11.2731 O   0  0  0  0  0  0  0  0  0  0  0  0
   12.2711   32.9910   15.6226 N   0  0  0  0  0  0  0  0  0  0  0  0
   13.5378   33.4023   15.0240 C   0  0  0  0  0  0  0  0  0  0  0  0
   13.5870   36.2431   18.5125 C   0  0  0  0  0  0  0  0  0  0  0  0
   13.8618   35.5657   19.7054 C   0  0  0  0  0  0  0  0  0  0  0  0
   13.3245   34.3203   19.9479 C   0  0  0  0  0  0  0  0  0  0  0  0
   12.5600   33.7067   18.9566 C   0  0  0  0  0  0  0  0  0  0  0  0
   12.4214   34.2986   17.7019 C   0  0  0  0  0  0  0  0  0  0  0  0
   12.9398   35.5730   17.4890 C   0  0  0  0  0  0  0  0  0  0  0  0
   14.7599   36.4320   20.9628 S   0  0  0  0  0  0  0  0  0  0  0  0
   15.7690   37.1578   20.2557 O   0  0  0  0  0  0  0  0  0  0  0  0
   15.1397   35.4450   21.9782 O   0  0  0  0  0  0  0  0  0  0  0  0
   13.7425   37.4665   21.6773 N   0  0  0  0  0  0  0  0  0  0  0  0
   13.0247   36.9447   22.1802 H   0  0  0  0  0  0  0  0  0  0  0  0
   13.3024   38.0542   20.9693 H   0  0  0  0  0  0  0  0  0  0  0  0
   12.2713   35.1138   13.5062 C   0  0  0  0  0  0  0  0  0  0  0  0
   12.7907   36.0752   12.4688 C   0  0  0  0  0  0  0  0  0  0  0  0
   11.9185   36.9454   11.8168 C   0  0  0  0  0  0  0  0  0  0  0  0
   12.4129   37.9403   10.9782 C   0  0  0  0  0  0  0  0  0  0  0  0
   13.7744   38.0135   10.7174 C   0  0  0  0  0  0  0  0  0  0  0  0
   14.6354   37.1030   11.2992 C   0  0  0  0  0  0  0  0  0  0  0  0
   14.1420   36.1460   12.1896 C   0  0  0  0  0  0  0  0  0  0  0  0
  1  8  1  0  0  0
  8  9  2  0  0  0
  8  7  1  0  0  0
  6  7  1  0  0  0
  6  5  1  0  0  0
  7  3  1  0  0  0
 28 29  2  0  0  0
 28 27  1  0  0  0
  5 10  1  0  0  0
 29 30  1  0  0  0
 27 26  2  0  0  0
 30 25  2  0  0  0
 26 25  1  0  0  0
  3 11  1  0  0  0
  3 24  1  0  0  0
 25 24  1  0  0  0
 10 11  1  0  0  0
 10  4  1  0  0  0
  2  4  2  0  0  0
  4 16  1  0  0  0
 15 16  2  0  0  0
 15 14  1  0  0  0
 16 17  1  0  0  0
 14 13  2  0  0  0
 17 12  2  0  0  0
 13 12  1  0  0  0
 13 18  1  0  0  0
 21 18  1  0  0  0
 18 20  2  0  0  0
 18 19  2  0  0  0
 21 22  1  0  0  0
 21 23  1  0  0  0
M  END
> <minimizedAffinity>
-7.82404

$$$$
6EVR_BZW_A_302


 30 32  0  0  0  0  0  0  0  0999 V2000
    8.2254   36.6859   11.5464 C   0  0  0  0  0  0  0  0  0  0  0  0
   13.8147   34.9185   14.6455 O   0  0  0  0  0  0  0  0  0  0  0  0
    9.5688   35.3018   14.8605 C   0  0  0  0  0  0  0  0  0  0  0  0
   12.9447   35.2973   15.3992 C   0  0  0  0  0  0  0  0  0  0  0  0
   11.8074   36.3792   13.5369 C   0  0  0  0  0  0  0  0  0  0  0  0
   10.7070   35.6645   12.7780 C   0  0  0  0  0  0  0  0  0  0  0  0
    9.4265   35.8375   13.4852 N   0  0  0  0  0  0  0  0  0  0  0  0
    8.2634   36.2950   12.9967 C   0  0  0  0  0  0  0  0  0  0  0  0
    7.2633   36.2713   13.6815 O   0  0  0  0  0  0  0  0  0  0  0  0
   11.8355   35.9150   14.9427 N   0  0  0  0  0  0  0  0  0  0  0  0
   10.5721   36.1279   15.6430 C   0  0  0  0  0  0  0  0  0  0  0  0
   13.4105   34.1579   19.0036 C   0  0  0  0  0  0  0  0  0  0  0  0
   13.7481   35.3775   19.6001 C   0  0  0  0  0  0  0  0  0  0  0  0
   13.9350   36.5079   18.8347 C   0  0  0  0  0  0  0  0  0  0  0  0
   13.7110   36.4410   17.4603 C   0  0  0  0  0  0  0  0  0  0  0  0
   13.2108   35.2759   16.8807 C   0  0  0  0  0  0  0  0  0  0  0  0
   13.0643   34.1342   17.6638 C   0  0  0  0  0  0  0  0  0  0  0  0
   14.1100   35.3803   21.3342 S   0  0  0  0  0  0  0  0  0  0  0  0
   15.2028   36.2916   21.4772 O   0  0  0  0  0  0  0  0  0  0  0  0
   14.2614   33.9809   21.7447 O   0  0  0  0  0  0  0  0  0  0  0  0
   12.8137   35.9555   22.1118 N   0  0  0  0  0  0  0  0  0  0  0  0
   12.0371   35.3026   22.0071 H   0  0  0  0  0  0  0  0  0  0  0  0
   12.5537   36.8593   21.7169 H   0  0  0  0  0  0  0  0  0  0  0  0
    9.7447   33.7679   14.8799 C   0  0  0  0  0  0  0  0  0  0  0  0
    8.5955   33.0586   14.2114 C   0  0  0  0  0  0  0  0  0  0  0  0
    7.3049   33.1703   14.7261 C   0  0  0  0  0  0  0  0  0  0  0  0
    6.2201   32.6510   14.0253 C   0  0  0  0  0  0  0  0  0  0  0  0
    6.4296   31.9399   12.8516 C   0  0  0  0  0  0  0  0  0  0  0  0
    7.7149   31.7581   12.3785 C   0  0  0  0  0  0  0  0  0  0  0  0
    8.7948   32.3350   13.0515 C   0  0  0  0  0  0  0  0  0  0  0  0
  1  8  1  0  0  0
  8  9  2  0  0  0
  8  7  1  0  0  0
  6  7  1  0  0  0
  6  5  1  0  0  0
  7  3  1  0  0  0
 28 29  2  0  0  0
 28 27  1  0  0  0
  5 10  1  0  0  0
 29 30  1  0  0  0
 27 26  2  0  0  0
 30 25  2  0  0  0
 26 25  1  0  0  0
  3 11  1  0  0  0
  3 24  1  0  0  0
 25 24  1  0  0  0
 10 11  1  0  0  0
 10  4  1  0  0  0
  2  4  2  0  0  0
  4 16  1  0  0  0
 15 16  2  0  0  0
 15 14  1  0  0  0
 16 17  1  0  0  0
 14 13  2  0  0  0
 17 12  2  0  0  0
 13 12  1  0  0  0
 13 18  1  0  0  0
 21 18  1  0  0  0
 18 20  2  0  0  0
 18 19  2  0  0  0
 21 22  1  0  0  0
 21 23  1  0  0  0
M  END
> <minimizedAffinity>
-7.64252

$$$$
6EVR_BZW_A_302


 30 32  0  0  0  0  0  0  0  0999 V2000
    4.1961   36.6527   11.7865 C   0  0  0  0  0  0  0  0  0  0  0  0
   10.7939   35.9957   11.7197 O   0  0  0  0  0  0  0  0  0  0  0  0
    7.1288   35.1226   13.7261 C   0  0  0  0  0  0  0  0  0  0  0  0
   10.3183   35.9703   12.8340 C   0  0  0  0  0  0  0  0  0  0  0  0
    8.2850   37.0090   11.9858 C   0  0  0  0  0  0  0  0  0  0  0  0
    7.0995   36.1644   11.5632 C   0  0  0  0  0  0  0  0  0  0  0  0
    6.2800   35.8381   12.7429 N   0  0  0  0  0  0  0  0  0  0  0  0
    4.9636   36.0307   12.9186 C   0  0  0  0  0  0  0  0  0  0  0  0
    4.4118   35.6021   13.9093 O   0  0  0  0  0  0  0  0  0  0  0  0
    9.0361   36.3233   13.0619 N   0  0  0  0  0  0  0  0  0  0  0  0
    8.2216   36.0407   14.2403 C   0  0  0  0  0  0  0  0  0  0  0  0
   11.7954   35.9124   16.3442 C   0  0  0  0  0  0  0  0  0  0  0  0
   13.0129   35.2747   16.0827 C   0  0  0  0  0  0  0  0  0  0  0  0
   13.2906   34.7738   14.8295 C   0  0  0  0  0  0  0  0  0  0  0  0
   12.3724   34.9748   13.7999 C   0  0  0  0  0  0  0  0  0  0  0  0
   11.2357   35.7549   14.0078 C   0  0  0  0  0  0  0  0  0  0  0  0
   10.9540   36.2203   15.2893 C   0  0  0  0  0  0  0  0  0  0  0  0
   14.0976   34.9665   17.4489 S   0  0  0  0  0  0  0  0  0  0  0  0
   13.7929   33.6320   17.8627 O   0  0  0  0  0  0  0  0  0  0  0  0
   13.9362   36.0817   18.3870 O   0  0  0  0  0  0  0  0  0  0  0  0
   15.6181   35.0352   16.9020 N   0  0  0  0  0  0  0  0  0  0  0  0
   15.8310   35.9884   16.6081 H   0  0  0  0  0  0  0  0  0  0  0  0
   15.7227   34.4032   16.1082 H   0  0  0  0  0  0  0  0  0  0  0  0
    7.5534   33.7235   13.2297 C   0  0  0  0  0  0  0  0  0  0  0  0
    8.6097   33.1078   14.1105 C   0  0  0  0  0  0  0  0  0  0  0  0
    9.6537   32.3744   13.5491 C   0  0  0  0  0  0  0  0  0  0  0  0
   10.7142   31.9407   14.3396 C   0  0  0  0  0  0  0  0  0  0  0  0
   10.6920   32.1608   15.7101 C   0  0  0  0  0  0  0  0  0  0  0  0
    9.6205   32.8182   16.2833 C   0  0  0  0  0  0  0  0  0  0  0  0
    8.5891   33.3070   15.4775 C   0  0  0  0  0  0  0  0  0  0  0  0
  1  8  1  0  0  0
  8  9  2  0  0  0
  8  7  1  0  0  0
  6  7  1  0  0  0
  6  5  1  0  0  0
  7  3  1  0  0  0
 28 29  2  0  0  0
 28 27  1  0  0  0
  5 10  1  0  0  0
 29 30  1  0  0  0
 27 26  2  0  0  0
 30 25  2  0  0  0
 26 25  1  0  0  0
  3 11  1  0  0  0
  3 24  1  0  0  0
 25 24  1  0  0  0
 10 11  1  0  0  0
 10  4  1  0  0  0
  2  4  2  0  0  0
  4 16  1  0  0  0
 15 16  2  0  0  0
 15 14  1  0  0  0
 16 17  1  0  0  0
 14 13  2  0  0  0
 17 12  2  0  0  0
 13 12  1  0  0  0
 13 18  1  0  0  0
 21 18  1  0  0  0
 18 20  2  0  0  0
 18 19  2  0  0  0
 21 22  1  0  0  0
 21 23  1  0  0  0
M  END
> <minimizedAffinity>
-7.63761

$$$$
6EVR_BZW_A_302


 30 32  0  0  0  0  0  0  0  0999 V2000
    5.5106   33.6833    9.9524 C   0  0  0  0  0  0  0  0  0  0  0  0
    7.7302   36.3295   15.6126 O   0  0  0  0  0  0  0  0  0  0  0  0
    8.7112   34.3704   11.9493 C   0  0  0  0  0  0  0  0  0  0  0  0
    8.4395   35.4460   15.1829 C   0  0  0  0  0  0  0  0  0  0  0  0
    6.6032   34.6526   13.7933 C   0  0  0  0  0  0  0  0  0  0  0  0
    6.4636   35.1104   12.3551 C   0  0  0  0  0  0  0  0  0  0  0  0
    7.3061   34.2714   11.4857 N   0  0  0  0  0  0  0  0  0  0  0  0
    6.9468   33.5938   10.3846 C   0  0  0  0  0  0  0  0  0  0  0  0
    7.7865   33.0371    9.7103 O   0  0  0  0  0  0  0  0  0  0  0  0
    8.0317   34.6376   14.1826 N   0  0  0  0  0  0  0  0  0  0  0  0
    8.8482   33.7719   13.3365 C   0  0  0  0  0  0  0  0  0  0  0  0
   10.9997   33.7512   17.4367 C   0  0  0  0  0  0  0  0  0  0  0  0
   12.1028   34.5830   17.2162 C   0  0  0  0  0  0  0  0  0  0  0  0
   12.0499   35.5882   16.2754 C   0  0  0  0  0  0  0  0  0  0  0  0
   10.8555   35.8170   15.5937 C   0  0  0  0  0  0  0  0  0  0  0  0
    9.7033   35.1061   15.9267 C   0  0  0  0  0  0  0  0  0  0  0  0
    9.7861   34.0699   16.8527 C   0  0  0  0  0  0  0  0  0  0  0  0
   13.6187   34.1861   18.0424 S   0  0  0  0  0  0  0  0  0  0  0  0
   13.4801   32.8137   18.4195 O   0  0  0  0  0  0  0  0  0  0  0  0
   13.8317   35.2121   19.0679 O   0  0  0  0  0  0  0  0  0  0  0  0
   14.8227   34.3400   16.9734 N   0  0  0  0  0  0  0  0  0  0  0  0
   14.9180   35.3200   16.7074 H   0  0  0  0  0  0  0  0  0  0  0  0
   14.6156   33.7814   16.1454 H   0  0  0  0  0  0  0  0  0  0  0  0
    9.3091   35.7756   11.7211 C   0  0  0  0  0  0  0  0  0  0  0  0
   10.7951   35.8048   11.9692 C   0  0  0  0  0  0  0  0  0  0  0  0
   11.4417   37.0126   12.2263 C   0  0  0  0  0  0  0  0  0  0  0  0
   12.7790   37.0270   12.6122 C   0  0  0  0  0  0  0  0  0  0  0  0
   13.5003   35.8417   12.6561 C   0  0  0  0  0  0  0  0  0  0  0  0
   12.8846   34.6500   12.3251 C   0  0  0  0  0  0  0  0  0  0  0  0
   11.5260   34.6328   11.9998 C   0  0  0  0  0  0  0  0  0  0  0  0
  1  8  1  0  0  0
  8  9  2  0  0  0
  8  7  1  0  0  0
  6  7  1  0  0  0
  6  5  1  0  0  0
  7  3  1  0  0  0
 28 29  2  0  0  0
 28 27  1  0  0  0
  5 10  1  0  0  0
 29 30  1  0  0  0
 27 26  2  0  0  0
 30 25  2  0  0  0
 26 25  1  0  0  0
  3 11  1  0  0  0
  3 24  1  0  0  0
 25 24  1  0  0  0
 10 11  1  0  0  0
 10  4  1  0  0  0
  2  4  2  0  0  0
  4 16  1  0  0  0
 15 16  2  0  0  0
 15 14  1  0  0  0
 16 17  1  0  0  0
 14 13  2  0  0  0
 17 12  2  0  0  0
 13 12  1  0  0  0
 13 18  1  0  0  0
 21 18  1  0  0  0
 18 20  2  0  0  0
 18 19  2  0  0  0
 21 22  1  0  0  0
 21 23  1  0  0  0
M  END
> <minimizedAffinity>
-7.30716

$$$$
6EVR_BZW_A_302


 30 32  0  0  0  0  0  0  0  0999 V2000
    6.2957   37.1543    9.5362 C   0  0  0  0  0  0  0  0  0  0  0  0
   11.1323   33.2221   11.7971 O   0  0  0  0  0  0  0  0  0  0  0  0
    8.0688   36.0384   12.7478 C   0  0  0  0  0  0  0  0  0  0  0  0
   10.9359   34.1938   12.4939 C   0  0  0  0  0  0  0  0  0  0  0  0
    9.7808   35.2811   10.6456 C   0  0  0  0  0  0  0  0  0  0  0  0
    8.2738   35.1909   10.5110 C   0  0  0  0  0  0  0  0  0  0  0  0
    7.6406   36.2299   11.3411 N   0  0  0  0  0  0  0  0  0  0  0  0
    6.7401   37.1537   10.9715 C   0  0  0  0  0  0  0  0  0  0  0  0
    6.2263   37.8709   11.8029 O   0  0  0  0  0  0  0  0  0  0  0  0
   10.1652   35.2187   12.0742 N   0  0  0  0  0  0  0  0  0  0  0  0
    9.5612   36.2775   12.8780 C   0  0  0  0  0  0  0  0  0  0  0  0
   12.5293   35.6236   15.6441 C   0  0  0  0  0  0  0  0  0  0  0  0
   13.2594   34.5095   16.0717 C   0  0  0  0  0  0  0  0  0  0  0  0
   13.1418   33.2993   15.4235 C   0  0  0  0  0  0  0  0  0  0  0  0
   12.3401   33.2142   14.2862 C   0  0  0  0  0  0  0  0  0  0  0  0
   11.7437   34.3564   13.7537 C   0  0  0  0  0  0  0  0  0  0  0  0
   11.8436   35.5616   14.4435 C   0  0  0  0  0  0  0  0  0  0  0  0
   14.1868   34.6528   17.5742 S   0  0  0  0  0  0  0  0  0  0  0  0
   13.9482   33.4256   18.2685 O   0  0  0  0  0  0  0  0  0  0  0  0
   13.8141   35.9301   18.1901 O   0  0  0  0  0  0  0  0  0  0  0  0
   15.7523   34.7640   17.1837 N   0  0  0  0  0  0  0  0  0  0  0  0
   15.9179   35.6404   16.6888 H   0  0  0  0  0  0  0  0  0  0  0  0
   16.0094   33.9806   16.5831 H   0  0  0  0  0  0  0  0  0  0  0  0
    7.5021   34.7413   13.3646 C   0  0  0  0  0  0  0  0  0  0  0  0
    8.1664   34.4005   14.6735 C   0  0  0  0  0  0  0  0  0  0  0  0
    8.2796   35.3621   15.6763 C   0  0  0  0  0  0  0  0  0  0  0  0
    8.7462   35.0102   16.9396 C   0  0  0  0  0  0  0  0  0  0  0  0
    9.1859   33.7156   17.1801 C   0  0  0  0  0  0  0  0  0  0  0  0
    9.1499   32.7781   16.1659 C   0  0  0  0  0  0  0  0  0  0  0  0
    8.6220   33.1193   14.9181 C   0  0  0  0  0  0  0  0  0  0  0  0
  1  8  1  0  0  0
  8  9  2  0  0  0
  8  7  1  0  0  0
  6  7  1  0  0  0
  6  5  1  0  0  0
  7  3  1  0  0  0
 28 29  2  0  0  0
 28 27  1  0  0  0
  5 10  1  0  0  0
 29 30  1  0  0  0
 27 26  2  0  0  0
 30 25  2  0  0  0
 26 25  1  0  0  0
  3 11  1  0  0  0
  3 24  1  0  0  0
 25 24  1  0  0  0
 10 11  1  0  0  0
 10  4  1  0  0  0
  2  4  2  0  0  0
  4 16  1  0  0  0
 15 16  2  0  0  0
 15 14  1  0  0  0
 16 17  1  0  0  0
 14 13  2  0  0  0
 17 12  2  0  0  0
 13 12  1  0  0  0
 13 18  1  0  0  0
 21 18  1  0  0  0
 18 20  2  0  0  0
 18 19  2  0  0  0
 21 22  1  0  0  0
 21 23  1  0  0  0
M  END
> <minimizedAffinity>
-7.16450

$$$$
6EVR_BZW_A_302


 30 32  0  0  0  0  0  0  0  0999 V2000
   10.4202   37.7716    9.2477 C   0  0  0  0  0  0  0  0  0  0  0  0
   13.3143   33.2353   13.1225 O   0  0  0  0  0  0  0  0  0  0  0  0
   10.2983   36.2340   12.7584 C   0  0  0  0  0  0  0  0  0  0  0  0
   12.8324   34.1599   13.7401 C   0  0  0  0  0  0  0  0  0  0  0  0
   12.8033   35.4988   11.7056 C   0  0  0  0  0  0  0  0  0  0  0  0
   11.5650   35.5597   10.8336 C   0  0  0  0  0  0  0  0  0  0  0  0
   10.6414   36.5803   11.3579 N   0  0  0  0  0  0  0  0  0  0  0  0
   10.0842   37.6108   10.7033 C   0  0  0  0  0  0  0  0  0  0  0  0
    9.2507   38.3009   11.2498 O   0  0  0  0  0  0  0  0  0  0  0  0
   12.4164   35.2829   13.1185 N   0  0  0  0  0  0  0  0  0  0  0  0
   11.5319   36.3226   13.6369 C   0  0  0  0  0  0  0  0  0  0  0  0
   13.0072   35.2189   17.3945 C   0  0  0  0  0  0  0  0  0  0  0  0
   13.0134   33.9623   18.0094 C   0  0  0  0  0  0  0  0  0  0  0  0
   12.8453   32.8140   17.2667 C   0  0  0  0  0  0  0  0  0  0  0  0
   12.7422   32.9123   15.8799 C   0  0  0  0  0  0  0  0  0  0  0  0
   12.9048   34.1421   15.2436 C   0  0  0  0  0  0  0  0  0  0  0  0
   13.0362   35.2949   16.0129 C   0  0  0  0  0  0  0  0  0  0  0  0
   13.0542   33.9056   19.7795 S   0  0  0  0  0  0  0  0  0  0  0  0
   13.9832   32.8636   20.0898 O   0  0  0  0  0  0  0  0  0  0  0  0
   11.6651   33.8127   20.2394 O   0  0  0  0  0  0  0  0  0  0  0  0
   13.6258   35.3227   20.3094 N   0  0  0  0  0  0  0  0  0  0  0  0
   12.9603   36.0627   20.0860 H   0  0  0  0  0  0  0  0  0  0  0  0
   14.5183   35.5201   19.8566 H   0  0  0  0  0  0  0  0  0  0  0  0
    9.4492   34.9481   12.8561 C   0  0  0  0  0  0  0  0  0  0  0  0
    9.2335   34.5203   14.2847 C   0  0  0  0  0  0  0  0  0  0  0  0
    9.3544   33.1786   14.6431 C   0  0  0  0  0  0  0  0  0  0  0  0
    9.3140   32.8013   15.9823 C   0  0  0  0  0  0  0  0  0  0  0  0
    9.0634   33.7516   16.9627 C   0  0  0  0  0  0  0  0  0  0  0  0
    8.8638   35.0712   16.6055 C   0  0  0  0  0  0  0  0  0  0  0  0
    8.9679   35.4555   15.2663 C   0  0  0  0  0  0  0  0  0  0  0  0
  1  8  1  0  0  0
  8  9  2  0  0  0
  8  7  1  0  0  0
  6  7  1  0  0  0
  6  5  1  0  0  0
  7  3  1  0  0  0
 28 29  2  0  0  0
 28 27  1  0  0  0
  5 10  1  0  0  0
 29 30  1  0  0  0
 27 26  2  0  0  0
 30 25  2  0  0  0
 26 25  1  0  0  0
  3 11  1  0  0  0
  3 24  1  0  0  0
 25 24  1  0  0  0
 10 11  1  0  0  0
 10  4  1  0  0  0
  2  4  2  0  0  0
  4 16  1  0  0  0
 15 16  2  0  0  0
 15 14  1  0  0  0
 16 17  1  0  0  0
 14 13  2  0  0  0
 17 12  2  0  0  0
 13 12  1  0  0  0
 13 18  1  0  0  0
 21 18  1  0  0  0
 18 20  2  0  0  0
 18 19  2  0  0  0
 21 22  1  0  0  0
 21 23  1  0  0  0
M  END
> <minimizedAffinity>
-7.07220

$$$$
6EVR_BZW_A_302


 30 32  0  0  0  0  0  0  0  0999 V2000
   12.2622   31.7142    9.4271 C   0  0  0  0  0  0  0  0  0  0  0  0
   10.0649   34.1198   15.2023 O   0  0  0  0  0  0  0  0  0  0  0  0
   13.0210   34.3263   12.1298 C   0  0  0  0  0  0  0  0  0  0  0  0
   11.2636   34.2265   15.0605 C   0  0  0  0  0  0  0  0  0  0  0  0
   11.2042   32.5309   13.3130 C   0  0  0  0  0  0  0  0  0  0  0  0
   11.0922   32.9237   11.8533 C   0  0  0  0  0  0  0  0  0  0  0  0
   12.4303   33.2329   11.3209 N   0  0  0  0  0  0  0  0  0  0  0  0
   13.0283   32.7258   10.2318 C   0  0  0  0  0  0  0  0  0  0  0  0
   14.0938   33.1683    9.8597 O   0  0  0  0  0  0  0  0  0  0  0  0
   11.9162   33.5875   14.0674 N   0  0  0  0  0  0  0  0  0  0  0  0
   13.2560   33.8565   13.5530 C   0  0  0  0  0  0  0  0  0  0  0  0
   13.6267   34.8932   17.9722 C   0  0  0  0  0  0  0  0  0  0  0  0
   13.4951   36.2822   18.0761 C   0  0  0  0  0  0  0  0  0  0  0  0
   12.7562   36.9905   17.1537 C   0  0  0  0  0  0  0  0  0  0  0  0
   12.0766   36.2976   16.1529 C   0  0  0  0  0  0  0  0  0  0  0  0
   12.0629   34.9035   16.1417 C   0  0  0  0  0  0  0  0  0  0  0  0
   12.8454   34.2072   17.0587 C   0  0  0  0  0  0  0  0  0  0  0  0
   14.4549   37.1160   19.3096 S   0  0  0  0  0  0  0  0  0  0  0  0
   14.0190   36.5559   20.5511 O   0  0  0  0  0  0  0  0  0  0  0  0
   14.3163   38.5547   19.0634 O   0  0  0  0  0  0  0  0  0  0  0  0
   16.0104   36.7493   19.0613 N   0  0  0  0  0  0  0  0  0  0  0  0
   16.3170   37.1506   18.1750 H   0  0  0  0  0  0  0  0  0  0  0  0
   16.1203   35.7357   19.0316 H   0  0  0  0  0  0  0  0  0  0  0  0
   12.2790   35.6669   11.9391 C   0  0  0  0  0  0  0  0  0  0  0  0
   13.0838   36.6479   11.1263 C   0  0  0  0  0  0  0  0  0  0  0  0
   14.4566   36.4683   10.9649 C   0  0  0  0  0  0  0  0  0  0  0  0
   15.1741   37.2771   10.0883 C   0  0  0  0  0  0  0  0  0  0  0  0
   14.5400   38.3262    9.4369 C   0  0  0  0  0  0  0  0  0  0  0  0
   13.1954   38.5578    9.6545 C   0  0  0  0  0  0  0  0  0  0  0  0
   12.4657   37.7048   10.4863 C   0  0  0  0  0  0  0  0  0  0  0  0
  1  8  1  0  0  0
  8  9  2  0  0  0
  8  7  1  0  0  0
  6  7  1  0  0  0
  6  5  1  0  0  0
  7  3  1  0  0  0
 28 29  2  0  0  0
 28 27  1  0  0  0
  5 10  1  0  0  0
 29 30  1  0  0  0
 27 26  2  0  0  0
 30 25  2  0  0  0
 26 25  1  0  0  0
  3 11  1  0  0  0
  3 24  1  0  0  0
 25 24  1  0  0  0
 10 11  1  0  0  0
 10  4  1  0  0  0
  2  4  2  0  0  0
  4 16  1  0  0  0
 15 16  2  0  0  0
 15 14  1  0  0  0
 16 17  1  0  0  0
 14 13  2  0  0  0
 17 12  2  0  0  0
 13 12  1  0  0  0
 13 18  1  0  0  0
 21 18  1  0  0  0
 18 20  2  0  0  0
 18 19  2  0  0  0
 21 22  1  0  0  0
 21 23  1  0  0  0
M  END
> <minimizedAffinity>
-7.02640

$$$$
6EVR_BZW_A_302


 30 32  0  0  0  0  0  0  0  0999 V2000
   13.6838   34.5833   20.7249 C   0  0  0  0  0  0  0  0  0  0  0  0
   13.9216   35.2948   14.1366 O   0  0  0  0  0  0  0  0  0  0  0  0
   11.6887   33.9418   17.5137 C   0  0  0  0  0  0  0  0  0  0  0  0
   13.2402   34.3594   14.4961 C   0  0  0  0  0  0  0  0  0  0  0  0
   14.3349   34.4027   16.6715 C   0  0  0  0  0  0  0  0  0  0  0  0
   13.7284   35.1678   17.8310 C   0  0  0  0  0  0  0  0  0  0  0  0
   12.7223   34.3286   18.5042 N   0  0  0  0  0  0  0  0  0  0  0  0
   12.6377   34.0174   19.8068 C   0  0  0  0  0  0  0  0  0  0  0  0
   11.6797   33.4040   20.2259 O   0  0  0  0  0  0  0  0  0  0  0  0
   13.2643   33.9178   15.7708 N   0  0  0  0  0  0  0  0  0  0  0  0
   12.2958   33.0558   16.4423 C   0  0  0  0  0  0  0  0  0  0  0  0
   10.7306   33.1523   11.8978 C   0  0  0  0  0  0  0  0  0  0  0  0
   11.3297   31.9434   11.5277 C   0  0  0  0  0  0  0  0  0  0  0  0
   12.5679   31.5917   12.0190 C   0  0  0  0  0  0  0  0  0  0  0  0
   13.1888   32.4221   12.9509 C   0  0  0  0  0  0  0  0  0  0  0  0
   12.5263   33.5411   13.4537 C   0  0  0  0  0  0  0  0  0  0  0  0
   11.2926   33.9003   12.9177 C   0  0  0  0  0  0  0  0  0  0  0  0
   10.5385   30.9763   10.2720 S   0  0  0  0  0  0  0  0  0  0  0  0
   10.7720   31.6942    9.0574 O   0  0  0  0  0  0  0  0  0  0  0  0
    9.1668   30.7230   10.7238 O   0  0  0  0  0  0  0  0  0  0  0  0
   11.2801   29.5405   10.2090 N   0  0  0  0  0  0  0  0  0  0  0  0
   11.1110   29.0321   11.0769 H   0  0  0  0  0  0  0  0  0  0  0  0
   12.2830   29.6809   10.0871 H   0  0  0  0  0  0  0  0  0  0  0  0
   10.8439   35.1457   17.0434 C   0  0  0  0  0  0  0  0  0  0  0  0
    9.6933   34.7213   16.1678 C   0  0  0  0  0  0  0  0  0  0  0  0
    9.1159   35.6254   15.2778 C   0  0  0  0  0  0  0  0  0  0  0  0
    8.1635   35.1967   14.3576 C   0  0  0  0  0  0  0  0  0  0  0  0
    7.7188   33.8819   14.3822 C   0  0  0  0  0  0  0  0  0  0  0  0
    8.2306   33.0008   15.3152 C   0  0  0  0  0  0  0  0  0  0  0  0
    9.2319   33.4193   16.1951 C   0  0  0  0  0  0  0  0  0  0  0  0
  1  8  1  0  0  0
  8  9  2  0  0  0
  8  7  1  0  0  0
  6  7  1  0  0  0
  6  5  1  0  0  0
  7  3  1  0  0  0
 28 29  2  0  0  0
 28 27  1  0  0  0
  5 10  1  0  0  0
 29 30  1  0  0  0
 27 26  2  0  0  0
 30 25  2  0  0  0
 26 25  1  0  0  0
  3 11  1  0  0  0
  3 24  1  0  0  0
 25 24  1  0  0  0
 10 11  1  0  0  0
 10  4  1  0  0  0
  2  4  2  0  0  0
  4 16  1  0  0  0
 15 16  2  0  0  0
 15 14  1  0  0  0
 16 17  1  0  0  0
 14 13  2  0  0  0
 17 12  2  0  0  0
 13 12  1  0  0  0
 13 18  1  0  0  0
 21 18  1  0  0  0
 18 20  2  0  0  0
 18 19  2  0  0  0
 21 22  1  0  0  0
 21 23  1  0  0  0
M  END
> <minimizedAffinity>
-6.91527

$$$$
6EVR_BZW_A_302


 30 32  0  0  0  0  0  0  0  0999 V2000
    8.7516   32.9622   16.7960 C   0  0  0  0  0  0  0  0  0  0  0  0
   13.0709   32.1677   11.8281 O   0  0  0  0  0  0  0  0  0  0  0  0
   11.6764   34.6669   14.9951 C   0  0  0  0  0  0  0  0  0  0  0  0
   12.8137   33.3285   12.0621 C   0  0  0  0  0  0  0  0  0  0  0  0
   10.8016   32.6396   13.2492 C   0  0  0  0  0  0  0  0  0  0  0  0
   10.8166   32.4387   14.7515 C   0  0  0  0  0  0  0  0  0  0  0  0
   10.6086   33.7321   15.4249 N   0  0  0  0  0  0  0  0  0  0  0  0
    9.6956   34.0457   16.3570 C   0  0  0  0  0  0  0  0  0  0  0  0
    9.7258   35.1294   16.8994 O   0  0  0  0  0  0  0  0  0  0  0  0
   11.7886   33.6754   12.8679 N   0  0  0  0  0  0  0  0  0  0  0  0
   11.5477   34.9630   13.5128 C   0  0  0  0  0  0  0  0  0  0  0  0
   15.4289   35.7376   10.6969 C   0  0  0  0  0  0  0  0  0  0  0  0
   14.6744   36.3765    9.7071 C   0  0  0  0  0  0  0  0  0  0  0  0
   13.3959   35.9546    9.4139 C   0  0  0  0  0  0  0  0  0  0  0  0
   12.8313   34.9268   10.1677 C   0  0  0  0  0  0  0  0  0  0  0  0
   13.5101   34.3991   11.2652 C   0  0  0  0  0  0  0  0  0  0  0  0
   14.8146   34.8119   11.5222 C   0  0  0  0  0  0  0  0  0  0  0  0
   15.4757   37.6113    8.7215 S   0  0  0  0  0  0  0  0  0  0  0  0
   15.0829   38.8560    9.3058 O   0  0  0  0  0  0  0  0  0  0  0  0
   15.1513   37.3219    7.3212 O   0  0  0  0  0  0  0  0  0  0  0  0
   17.0732   37.4138    8.8792 N   0  0  0  0  0  0  0  0  0  0  0  0
   17.3488   36.5252    8.4612 H   0  0  0  0  0  0  0  0  0  0  0  0
   17.3199   37.4151    9.8689 H   0  0  0  0  0  0  0  0  0  0  0  0
   13.0688   34.2505   15.5166 C   0  0  0  0  0  0  0  0  0  0  0  0
   13.1862   34.4166   17.0097 C   0  0  0  0  0  0  0  0  0  0  0  0
   12.9133   33.3464   17.8601 C   0  0  0  0  0  0  0  0  0  0  0  0
   13.1730   33.4470   19.2239 C   0  0  0  0  0  0  0  0  0  0  0  0
   13.6225   34.6473   19.7571 C   0  0  0  0  0  0  0  0  0  0  0  0
   13.8191   35.7360   18.9294 C   0  0  0  0  0  0  0  0  0  0  0  0
   13.6175   35.6117   17.5525 C   0  0  0  0  0  0  0  0  0  0  0  0
  1  8  1  0  0  0
  8  9  2  0  0  0
  8  7  1  0  0  0
  6  7  1  0  0  0
  6  5  1  0  0  0
  7  3  1  0  0  0
 28 29  2  0  0  0
 28 27  1  0  0  0
  5 10  1  0  0  0
 29 30  1  0  0  0
 27 26  2  0  0  0
 30 25  2  0  0  0
 26 25  1  0  0  0
  3 11  1  0  0  0
  3 24  1  0  0  0
 25 24  1  0  0  0
 10 11  1  0  0  0
 10  4  1  0  0  0
  2  4  2  0  0  0
  4 16  1  0  0  0
 15 16  2  0  0  0
 15 14  1  0  0  0
 16 17  1  0  0  0
 14 13  2  0  0  0
 17 12  2  0  0  0
 13 12  1  0  0  0
 13 18  1  0  0  0
 21 18  1  0  0  0
 18 20  2  0  0  0
 18 19  2  0  0  0
 21 22  1  0  0  0
 21 23  1  0  0  0
M  END
> <minimizedAffinity>
-6.91152

$$$$
