3QXT_MTX_A_2000


 40 42  0  0  0  0  0  0  0  0999 V2000
   39.6445  -43.1625   -8.9533 C   0  0  0  0  0  0  0  0  0  0  0  0
   38.3676  -43.7037   -9.1023 C   0  0  0  0  0  0  0  0  0  0  0  0
   37.2466  -42.8096   -9.3095 C   0  0  0  0  0  0  0  0  0  0  0  0
   37.5282  -41.4622   -9.3300 C   0  0  0  0  0  0  0  0  0  0  0  0
   38.7899  -40.9108   -9.2752 C   0  0  0  0  0  0  0  0  0  0  0  0
   39.9043  -41.7855   -9.0352 C   0  0  0  0  0  0  0  0  0  0  0  0
   40.8443  -44.0890   -8.7149 C   0  0  0  0  0  0  0  0  0  0  0  0
   42.0507  -43.4531   -8.8200 O   0  0  0  0  0  0  0  0  0  0  0  0
   40.6452  -45.3313   -8.3518 N   0  0  0  0  0  0  0  0  0  0  0  0
   39.7267  -45.6169   -8.1422 H   0  0  0  0  0  0  0  0  0  0  0  0
   41.7309  -46.3229   -8.2421 C   0  0  0  0  0  0  0  0  0  0  0  0
   41.1978  -47.6608   -8.6157 C   0  0  0  0  0  0  0  0  0  0  0  0
   41.9366  -48.4029   -9.2748 O   0  0  0  0  0  0  0  0  0  0  0  0
   40.0227  -48.0468   -8.3439 O   0  0  0  0  0  0  0  0  0  0  0  0
   39.4520  -47.4955   -7.8455 H   0  0  0  0  0  0  0  0  0  0  0  0
   42.3305  -46.4724   -6.8414 C   0  0  0  0  0  0  0  0  0  0  0  0
   41.3761  -46.0307   -5.7921 C   0  0  0  0  0  0  0  0  0  0  0  0
   41.9787  -44.7162   -5.2500 C   0  0  0  0  0  0  0  0  0  0  0  0
   41.6230  -44.1979   -4.1081 O   0  0  0  0  0  0  0  0  0  0  0  0
   42.8520  -44.1742   -5.9692 O   0  0  0  0  0  0  0  0  0  0  0  0
   43.0933  -44.5633   -6.7868 H   0  0  0  0  0  0  0  0  0  0  0  0
   36.4082  -40.5773   -9.5577 N   0  0  0  0  0  0  0  0  0  0  0  0
   36.6048  -39.1510   -9.5919 C   0  0  0  0  0  0  0  0  0  0  0  0
   35.0927  -40.9643   -9.8669 C   0  0  0  0  0  0  0  0  0  0  0  0
   31.3635  -40.9846   -5.6342 N   0  0  0  0  0  0  0  0  0  0  0  0
   30.0405  -41.0880   -5.9353 C   0  0  0  0  0  0  0  0  0  0  0  0
   29.2477  -41.2120   -4.9299 N   0  0  0  0  0  0  0  0  0  0  0  0
   29.6193  -41.1320   -7.2427 N   0  0  0  0  0  0  0  0  0  0  0  0
   30.5221  -40.9943   -8.2188 C   0  0  0  0  0  0  0  0  0  0  0  0
   30.0475  -40.9705   -9.5324 N   0  0  0  0  0  0  0  0  0  0  0  0
   31.8816  -40.9409   -7.9751 C   0  0  0  0  0  0  0  0  0  0  0  0
   32.8085  -40.8972   -9.0362 N   0  0  0  0  0  0  0  0  0  0  0  0
   34.1510  -40.8956   -8.7098 C   0  0  0  0  0  0  0  0  0  0  0  0
   34.5297  -40.8544   -7.3390 C   0  0  0  0  0  0  0  0  0  0  0  0
   33.6142  -40.8263   -6.2706 N   0  0  0  0  0  0  0  0  0  0  0  0
   32.2883  -40.9136   -6.6433 C   0  0  0  0  0  0  0  0  0  0  0  0
   29.6051  -41.1724   -4.0134 H   0  0  0  0  0  0  0  0  0  0  0  0
   28.2836  -41.3466   -5.0769 H   0  0  0  0  0  0  0  0  0  0  0  0
   29.0794  -41.0086   -9.7067 H   0  0  0  0  0  0  0  0  0  0  0  0
   30.6813  -40.9158  -10.2838 H   0  0  0  0  0  0  0  0  0  0  0  0
 25 26  2  0  0  0
 25 36  1  0  0  0
 26 27  1  0  0  0
 26 28  1  0  0  0
 28 29  2  0  0  0
 29 30  1  0  0  0
 29 31  1  0  0  0
 31 32  1  0  0  0
 31 36  2  0  0  0
 32 33  2  0  0  0
 33 34  1  0  0  0
 33 24  1  0  0  0
 34 35  2  0  0  0
 35 36  1  0  0  0
 24 22  1  0  0  0
 22 23  1  0  0  0
 22  4  1  0  0  0
  1  2  2  0  0  0
  1  6  1  0  0  0
  1  7  1  0  0  0
  2  3  1  0  0  0
  3  4  2  0  0  0
  4  5  1  0  0  0
  5  6  2  0  0  0
  7  8  2  0  0  0
  7  9  1  0  0  0
  9 11  1  0  0  0
 11 12  1  0  0  0
 11 16  1  0  0  0
 12 13  2  0  0  0
 12 14  1  0  0  0
 16 17  1  0  0  0
 17 18  1  0  0  0
 18 19  2  0  0  0
 18 20  1  0  0  0
 27 37  1  0  0  0
 27 38  1  0  0  0
 30 39  1  0  0  0
 30 40  1  0  0  0
  9 10  1  0  0  0
 14 15  1  0  0  0
 20 21  1  0  0  0
M  END
> <minimizedAffinity>
-10.46335

$$$$
3QXT_MTX_A_2000


 40 42  0  0  0  0  0  0  0  0999 V2000
   39.8423  -43.2454   -8.9455 C   0  0  0  0  0  0  0  0  0  0  0  0
   40.0322  -41.8636   -8.9350 C   0  0  0  0  0  0  0  0  0  0  0  0
   38.8890  -40.9969   -9.1376 C   0  0  0  0  0  0  0  0  0  0  0  0
   37.6761  -41.6144   -9.3443 C   0  0  0  0  0  0  0  0  0  0  0  0
   37.4498  -42.9717   -9.2694 C   0  0  0  0  0  0  0  0  0  0  0  0
   38.5814  -43.8415   -9.1036 C   0  0  0  0  0  0  0  0  0  0  0  0
   41.0412  -44.1833   -8.7510 C   0  0  0  0  0  0  0  0  0  0  0  0
   42.2271  -43.6416   -9.1648 O   0  0  0  0  0  0  0  0  0  0  0  0
   40.8763  -45.3338   -8.1477 N   0  0  0  0  0  0  0  0  0  0  0  0
   40.0010  -45.5289   -7.7416 H   0  0  0  0  0  0  0  0  0  0  0  0
   41.9390  -46.3511   -8.0476 C   0  0  0  0  0  0  0  0  0  0  0  0
   41.6548  -47.4387   -9.0224 C   0  0  0  0  0  0  0  0  0  0  0  0
   40.6475  -48.1296   -8.8251 O   0  0  0  0  0  0  0  0  0  0  0  0
   42.4137  -47.7217   -9.9960 O   0  0  0  0  0  0  0  0  0  0  0  0
   43.1800  -47.2074  -10.1577 H   0  0  0  0  0  0  0  0  0  0  0  0
   42.0651  -47.0213   -6.6770 C   0  0  0  0  0  0  0  0  0  0  0  0
   41.0550  -46.4979   -5.7215 C   0  0  0  0  0  0  0  0  0  0  0  0
   40.3027  -47.7531   -5.2283 C   0  0  0  0  0  0  0  0  0  0  0  0
   39.5528  -47.7499   -4.1621 O   0  0  0  0  0  0  0  0  0  0  0  0
   40.4407  -48.7864   -5.9262 O   0  0  0  0  0  0  0  0  0  0  0  0
   40.9845  -48.7674   -6.6890 H   0  0  0  0  0  0  0  0  0  0  0  0
   36.5367  -40.7435   -9.5250 N   0  0  0  0  0  0  0  0  0  0  0  0
   36.7041  -39.3134   -9.4964 C   0  0  0  0  0  0  0  0  0  0  0  0
   35.2273  -41.1433   -9.8430 C   0  0  0  0  0  0  0  0  0  0  0  0
   31.4153  -41.0023   -5.6870 N   0  0  0  0  0  0  0  0  0  0  0  0
   30.0962  -41.0735   -6.0135 C   0  0  0  0  0  0  0  0  0  0  0  0
   29.2804  -41.1618   -5.0228 N   0  0  0  0  0  0  0  0  0  0  0  0
   29.7000  -41.1242   -7.3284 N   0  0  0  0  0  0  0  0  0  0  0  0
   30.6256  -41.0250   -8.2878 C   0  0  0  0  0  0  0  0  0  0  0  0
   30.1781  -41.0066   -9.6109 N   0  0  0  0  0  0  0  0  0  0  0  0
   31.9809  -41.0054   -8.0173 C   0  0  0  0  0  0  0  0  0  0  0  0
   32.9297  -41.0020   -9.0598 N   0  0  0  0  0  0  0  0  0  0  0  0
   34.2649  -41.0327   -8.7063 C   0  0  0  0  0  0  0  0  0  0  0  0
   34.6172  -40.9828   -7.3288 C   0  0  0  0  0  0  0  0  0  0  0  0
   33.6817  -40.9147   -6.2797 N   0  0  0  0  0  0  0  0  0  0  0  0
   32.3616  -40.9708   -6.6780 C   0  0  0  0  0  0  0  0  0  0  0  0
   29.6204  -41.1192   -4.0999 H   0  0  0  0  0  0  0  0  0  0  0  0
   28.3161  -41.2719   -5.1875 H   0  0  0  0  0  0  0  0  0  0  0  0
   29.2129  -41.0205   -9.8044 H   0  0  0  0  0  0  0  0  0  0  0  0
   30.8280  -40.9797  -10.3500 H   0  0  0  0  0  0  0  0  0  0  0  0
 25 26  2  0  0  0
 25 36  1  0  0  0
 26 27  1  0  0  0
 26 28  1  0  0  0
 28 29  2  0  0  0
 29 30  1  0  0  0
 29 31  1  0  0  0
 31 32  1  0  0  0
 31 36  2  0  0  0
 32 33  2  0  0  0
 33 34  1  0  0  0
 33 24  1  0  0  0
 34 35  2  0  0  0
 35 36  1  0  0  0
 24 22  1  0  0  0
 22 23  1  0  0  0
 22  4  1  0  0  0
  1  2  2  0  0  0
  1  6  1  0  0  0
  1  7  1  0  0  0
  2  3  1  0  0  0
  3  4  2  0  0  0
  4  5  1  0  0  0
  5  6  2  0  0  0
  7  8  2  0  0  0
  7  9  1  0  0  0
  9 11  1  0  0  0
 11 12  1  0  0  0
 11 16  1  0  0  0
 12 13  2  0  0  0
 12 14  1  0  0  0
 16 17  1  0  0  0
 17 18  1  0  0  0
 18 19  2  0  0  0
 18 20  1  0  0  0
 27 37  1  0  0  0
 27 38  1  0  0  0
 30 39  1  0  0  0
 30 40  1  0  0  0
  9 10  1  0  0  0
 14 15  1  0  0  0
 20 21  1  0  0  0
M  END
> <minimizedAffinity>
-9.75109

$$$$
3QXT_MTX_A_2000


 40 42  0  0  0  0  0  0  0  0999 V2000
   39.4479  -43.2234   -8.8865 C   0  0  0  0  0  0  0  0  0  0  0  0
   38.2144  -43.8341   -9.1127 C   0  0  0  0  0  0  0  0  0  0  0  0
   37.0386  -43.0027   -9.2712 C   0  0  0  0  0  0  0  0  0  0  0  0
   37.2269  -41.6427   -9.1703 C   0  0  0  0  0  0  0  0  0  0  0  0
   38.4464  -41.0147   -9.0375 C   0  0  0  0  0  0  0  0  0  0  0  0
   39.6136  -41.8302   -8.8449 C   0  0  0  0  0  0  0  0  0  0  0  0
   40.7040  -44.0844   -8.6978 C   0  0  0  0  0  0  0  0  0  0  0  0
   41.8692  -43.3766   -8.8083 O   0  0  0  0  0  0  0  0  0  0  0  0
   40.5847  -45.3456   -8.3660 N   0  0  0  0  0  0  0  0  0  0  0  0
   39.6888  -45.6898   -8.1466 H   0  0  0  0  0  0  0  0  0  0  0  0
   41.7279  -46.2748   -8.3054 C   0  0  0  0  0  0  0  0  0  0  0  0
   41.2276  -47.6634   -8.4932 C   0  0  0  0  0  0  0  0  0  0  0  0
   42.0694  -48.5491   -8.6876 O   0  0  0  0  0  0  0  0  0  0  0  0
   39.9983  -47.9668   -8.5195 O   0  0  0  0  0  0  0  0  0  0  0  0
   39.3496  -47.3066   -8.3741 H   0  0  0  0  0  0  0  0  0  0  0  0
   42.4969  -46.2679   -6.9816 C   0  0  0  0  0  0  0  0  0  0  0  0
   41.5926  -46.0188   -5.8295 C   0  0  0  0  0  0  0  0  0  0  0  0
   42.0650  -44.6664   -5.2527 C   0  0  0  0  0  0  0  0  0  0  0  0
   41.5276  -44.1270   -4.1947 O   0  0  0  0  0  0  0  0  0  0  0  0
   43.0166  -44.1141   -5.8553 O   0  0  0  0  0  0  0  0  0  0  0  0
   43.3886  -44.5188   -6.6141 H   0  0  0  0  0  0  0  0  0  0  0  0
   36.0531  -40.8186   -9.3500 N   0  0  0  0  0  0  0  0  0  0  0  0
   35.2184  -40.9871  -10.5115 C   0  0  0  0  0  0  0  0  0  0  0  0
   35.5418  -39.8885   -8.4286 C   0  0  0  0  0  0  0  0  0  0  0  0
   31.4637  -41.6891   -4.9716 N   0  0  0  0  0  0  0  0  0  0  0  0
   31.8071  -42.0959   -3.7193 C   0  0  0  0  0  0  0  0  0  0  0  0
   30.8265  -42.3777   -2.9360 N   0  0  0  0  0  0  0  0  0  0  0  0
   33.1232  -42.1184   -3.3245 N   0  0  0  0  0  0  0  0  0  0  0  0
   34.0714  -41.8077   -4.2140 C   0  0  0  0  0  0  0  0  0  0  0  0
   35.4006  -41.9128   -3.7974 N   0  0  0  0  0  0  0  0  0  0  0  0
   33.7804  -41.3362   -5.4803 C   0  0  0  0  0  0  0  0  0  0  0  0
   34.8057  -40.9233   -6.3550 N   0  0  0  0  0  0  0  0  0  0  0  0
   34.4292  -40.4178   -7.5845 C   0  0  0  0  0  0  0  0  0  0  0  0
   33.0513  -40.4146   -7.9387 C   0  0  0  0  0  0  0  0  0  0  0  0
   32.0233  -40.8893   -7.1030 N   0  0  0  0  0  0  0  0  0  0  0  0
   32.4393  -41.3061   -5.8549 C   0  0  0  0  0  0  0  0  0  0  0  0
   29.9021  -42.3453   -3.2732 H   0  0  0  0  0  0  0  0  0  0  0  0
   31.0003  -42.6257   -1.9992 H   0  0  0  0  0  0  0  0  0  0  0  0
   35.6087  -42.2486   -2.8956 H   0  0  0  0  0  0  0  0  0  0  0  0
   36.1292  -41.6512   -4.4055 H   0  0  0  0  0  0  0  0  0  0  0  0
 25 26  2  0  0  0
 25 36  1  0  0  0
 26 27  1  0  0  0
 26 28  1  0  0  0
 28 29  2  0  0  0
 29 30  1  0  0  0
 29 31  1  0  0  0
 31 32  1  0  0  0
 31 36  2  0  0  0
 32 33  2  0  0  0
 33 34  1  0  0  0
 33 24  1  0  0  0
 34 35  2  0  0  0
 35 36  1  0  0  0
 24 22  1  0  0  0
 22 23  1  0  0  0
 22  4  1  0  0  0
  1  2  2  0  0  0
  1  6  1  0  0  0
  1  7  1  0  0  0
  2  3  1  0  0  0
  3  4  2  0  0  0
  4  5  1  0  0  0
  5  6  2  0  0  0
  7  8  2  0  0  0
  7  9  1  0  0  0
  9 11  1  0  0  0
 11 12  1  0  0  0
 11 16  1  0  0  0
 12 13  2  0  0  0
 12 14  1  0  0  0
 16 17  1  0  0  0
 17 18  1  0  0  0
 18 19  2  0  0  0
 18 20  1  0  0  0
 27 37  1  0  0  0
 27 38  1  0  0  0
 30 39  1  0  0  0
 30 40  1  0  0  0
  9 10  1  0  0  0
 14 15  1  0  0  0
 20 21  1  0  0  0
M  END
> <minimizedAffinity>
-9.36945

$$$$
3QXT_MTX_A_2000


 40 42  0  0  0  0  0  0  0  0999 V2000
   40.0313  -43.0470   -9.0480 C   0  0  0  0  0  0  0  0  0  0  0  0
   40.1491  -41.6609   -9.1501 C   0  0  0  0  0  0  0  0  0  0  0  0
   38.9486  -40.8640   -9.3008 C   0  0  0  0  0  0  0  0  0  0  0  0
   37.7555  -41.5494   -9.3477 C   0  0  0  0  0  0  0  0  0  0  0  0
   37.6081  -42.9066   -9.1590 C   0  0  0  0  0  0  0  0  0  0  0  0
   38.7939  -43.7096   -9.0435 C   0  0  0  0  0  0  0  0  0  0  0  0
   41.2903  -43.9127   -8.9058 C   0  0  0  0  0  0  0  0  0  0  0  0
   41.2675  -44.7281   -7.8078 O   0  0  0  0  0  0  0  0  0  0  0  0
   42.2064  -43.8878   -9.8413 N   0  0  0  0  0  0  0  0  0  0  0  0
   42.0190  -43.3863  -10.6675 H   0  0  0  0  0  0  0  0  0  0  0  0
   43.5050  -44.5748   -9.7164 C   0  0  0  0  0  0  0  0  0  0  0  0
   44.3087  -43.8935   -8.6658 C   0  0  0  0  0  0  0  0  0  0  0  0
   44.9948  -42.9246   -9.0144 O   0  0  0  0  0  0  0  0  0  0  0  0
   44.3664  -44.2870   -7.4635 O   0  0  0  0  0  0  0  0  0  0  0  0
   43.8525  -45.0194   -7.1851 H   0  0  0  0  0  0  0  0  0  0  0  0
   44.3618  -44.5730  -10.9851 C   0  0  0  0  0  0  0  0  0  0  0  0
   44.5478  -45.9477  -11.5168 C   0  0  0  0  0  0  0  0  0  0  0  0
   43.3544  -46.1565  -12.4744 C   0  0  0  0  0  0  0  0  0  0  0  0
   42.4996  -45.2115  -12.7492 O   0  0  0  0  0  0  0  0  0  0  0  0
   43.2584  -47.2946  -12.9931 O   0  0  0  0  0  0  0  0  0  0  0  0
   43.8835  -47.9599  -12.7821 H   0  0  0  0  0  0  0  0  0  0  0  0
   36.5605  -40.7467   -9.4774 N   0  0  0  0  0  0  0  0  0  0  0  0
   36.6383  -39.3107   -9.3993 C   0  0  0  0  0  0  0  0  0  0  0  0
   35.2730  -41.2172   -9.7880 C   0  0  0  0  0  0  0  0  0  0  0  0
   31.3928  -41.0110   -5.6984 N   0  0  0  0  0  0  0  0  0  0  0  0
   30.0788  -41.0716   -6.0468 C   0  0  0  0  0  0  0  0  0  0  0  0
   29.2455  -41.1452   -5.0695 N   0  0  0  0  0  0  0  0  0  0  0  0
   29.7044  -41.1274   -7.3679 N   0  0  0  0  0  0  0  0  0  0  0  0
   30.6470  -41.0437   -8.3120 C   0  0  0  0  0  0  0  0  0  0  0  0
   30.2222  -41.0299   -9.6427 N   0  0  0  0  0  0  0  0  0  0  0  0
   31.9977  -41.0354   -8.0186 C   0  0  0  0  0  0  0  0  0  0  0  0
   32.9640  -41.0483   -9.0449 N   0  0  0  0  0  0  0  0  0  0  0  0
   34.2927  -41.0895   -8.6686 C   0  0  0  0  0  0  0  0  0  0  0  0
   34.6221  -41.0336   -7.2857 C   0  0  0  0  0  0  0  0  0  0  0  0
   33.6697  -40.9493   -6.2531 N   0  0  0  0  0  0  0  0  0  0  0  0
   32.3560  -40.9954   -6.6734 C   0  0  0  0  0  0  0  0  0  0  0  0
   29.5703  -41.0996   -4.1412 H   0  0  0  0  0  0  0  0  0  0  0  0
   28.2831  -41.2471   -5.2499 H   0  0  0  0  0  0  0  0  0  0  0  0
   29.2603  -41.0358   -9.8524 H   0  0  0  0  0  0  0  0  0  0  0  0
   30.8847  -41.0144  -10.3707 H   0  0  0  0  0  0  0  0  0  0  0  0
 25 26  2  0  0  0
 25 36  1  0  0  0
 26 27  1  0  0  0
 26 28  1  0  0  0
 28 29  2  0  0  0
 29 30  1  0  0  0
 29 31  1  0  0  0
 31 32  1  0  0  0
 31 36  2  0  0  0
 32 33  2  0  0  0
 33 34  1  0  0  0
 33 24  1  0  0  0
 34 35  2  0  0  0
 35 36  1  0  0  0
 24 22  1  0  0  0
 22 23  1  0  0  0
 22  4  1  0  0  0
  1  2  2  0  0  0
  1  6  1  0  0  0
  1  7  1  0  0  0
  2  3  1  0  0  0
  3  4  2  0  0  0
  4  5  1  0  0  0
  5  6  2  0  0  0
  7  8  2  0  0  0
  7  9  1  0  0  0
  9 11  1  0  0  0
 11 12  1  0  0  0
 11 16  1  0  0  0
 12 13  2  0  0  0
 12 14  1  0  0  0
 16 17  1  0  0  0
 17 18  1  0  0  0
 18 19  2  0  0  0
 18 20  1  0  0  0
 27 37  1  0  0  0
 27 38  1  0  0  0
 30 39  1  0  0  0
 30 40  1  0  0  0
  9 10  1  0  0  0
 14 15  1  0  0  0
 20 21  1  0  0  0
M  END
> <minimizedAffinity>
-9.02209

$$$$
3QXT_MTX_A_2000


 40 42  0  0  0  0  0  0  0  0999 V2000
   38.0120  -42.0181   -8.9369 C   0  0  0  0  0  0  0  0  0  0  0  0
   39.2192  -41.3251   -9.0264 C   0  0  0  0  0  0  0  0  0  0  0  0
   40.4469  -42.0744   -9.2011 C   0  0  0  0  0  0  0  0  0  0  0  0
   40.3306  -43.4452   -9.2524 C   0  0  0  0  0  0  0  0  0  0  0  0
   39.1432  -44.1447   -9.2565 C   0  0  0  0  0  0  0  0  0  0  0  0
   37.9233  -43.4145   -9.0491 C   0  0  0  0  0  0  0  0  0  0  0  0
   36.7011  -41.2468   -8.7338 C   0  0  0  0  0  0  0  0  0  0  0  0
   36.7906  -39.9249   -9.0735 O   0  0  0  0  0  0  0  0  0  0  0  0
   35.6201  -41.8867   -8.3637 N   0  0  0  0  0  0  0  0  0  0  0  0
   35.6491  -42.8698   -8.3202 H   0  0  0  0  0  0  0  0  0  0  0  0
   34.3616  -41.2052   -8.0091 C   0  0  0  0  0  0  0  0  0  0  0  0
   34.1760  -41.2780   -6.5346 C   0  0  0  0  0  0  0  0  0  0  0  0
   34.5303  -42.3194   -5.9681 O   0  0  0  0  0  0  0  0  0  0  0  0
   33.6296  -40.3619   -5.8519 O   0  0  0  0  0  0  0  0  0  0  0  0
   33.3562  -39.5677   -6.2674 H   0  0  0  0  0  0  0  0  0  0  0  0
   33.1012  -41.8094   -8.6336 C   0  0  0  0  0  0  0  0  0  0  0  0
   32.1332  -40.7550   -9.0315 C   0  0  0  0  0  0  0  0  0  0  0  0
   30.8379  -41.1123   -8.2703 C   0  0  0  0  0  0  0  0  0  0  0  0
   30.8247  -41.3914   -6.9970 O   0  0  0  0  0  0  0  0  0  0  0  0
   29.7822  -41.1046   -8.9478 O   0  0  0  0  0  0  0  0  0  0  0  0
   29.8137  -40.9013   -9.8620 H   0  0  0  0  0  0  0  0  0  0  0  0
   41.5569  -44.1850   -9.4474 N   0  0  0  0  0  0  0  0  0  0  0  0
   41.9362  -44.6280  -10.7643 C   0  0  0  0  0  0  0  0  0  0  0  0
   42.5297  -44.4540   -8.4692 C   0  0  0  0  0  0  0  0  0  0  0  0
   40.7976  -47.5878   -4.1100 N   0  0  0  0  0  0  0  0  0  0  0  0
   40.4747  -48.8904   -4.3350 C   0  0  0  0  0  0  0  0  0  0  0  0
   40.2063  -49.5873   -3.2875 N   0  0  0  0  0  0  0  0  0  0  0  0
   40.5179  -49.4156   -5.6041 N   0  0  0  0  0  0  0  0  0  0  0  0
   40.8080  -48.6083   -6.6293 C   0  0  0  0  0  0  0  0  0  0  0  0
   40.7705  -49.1614   -7.9115 N   0  0  0  0  0  0  0  0  0  0  0  0
   41.1964  -47.2931   -6.4562 C   0  0  0  0  0  0  0  0  0  0  0  0
   41.5919  -46.5021   -7.5538 N   0  0  0  0  0  0  0  0  0  0  0  0
   42.0136  -45.2129   -7.2911 C   0  0  0  0  0  0  0  0  0  0  0  0
   41.9513  -44.7230   -5.9568 C   0  0  0  0  0  0  0  0  0  0  0  0
   41.4919  -45.4788   -4.8622 N   0  0  0  0  0  0  0  0  0  0  0  0
   41.1611  -46.7851   -5.1599 C   0  0  0  0  0  0  0  0  0  0  0  0
   40.1891  -49.1579   -2.4017 H   0  0  0  0  0  0  0  0  0  0  0  0
   40.0182  -50.5500   -3.3717 H   0  0  0  0  0  0  0  0  0  0  0  0
   40.4939  -50.0981   -8.0356 H   0  0  0  0  0  0  0  0  0  0  0  0
   41.0206  -48.6146   -8.6910 H   0  0  0  0  0  0  0  0  0  0  0  0
 25 26  2  0  0  0
 25 36  1  0  0  0
 26 27  1  0  0  0
 26 28  1  0  0  0
 28 29  2  0  0  0
 29 30  1  0  0  0
 29 31  1  0  0  0
 31 32  1  0  0  0
 31 36  2  0  0  0
 32 33  2  0  0  0
 33 34  1  0  0  0
 33 24  1  0  0  0
 34 35  2  0  0  0
 35 36  1  0  0  0
 24 22  1  0  0  0
 22 23  1  0  0  0
 22  4  1  0  0  0
  1  2  2  0  0  0
  1  6  1  0  0  0
  1  7  1  0  0  0
  2  3  1  0  0  0
  3  4  2  0  0  0
  4  5  1  0  0  0
  5  6  2  0  0  0
  7  8  2  0  0  0
  7  9  1  0  0  0
  9 11  1  0  0  0
 11 12  1  0  0  0
 11 16  1  0  0  0
 12 13  2  0  0  0
 12 14  1  0  0  0
 16 17  1  0  0  0
 17 18  1  0  0  0
 18 19  2  0  0  0
 18 20  1  0  0  0
 27 37  1  0  0  0
 27 38  1  0  0  0
 30 39  1  0  0  0
 30 40  1  0  0  0
  9 10  1  0  0  0
 14 15  1  0  0  0
 20 21  1  0  0  0
M  END
> <minimizedAffinity>
-8.71410

$$$$
3QXT_MTX_A_2000


 40 42  0  0  0  0  0  0  0  0999 V2000
   37.8605  -42.1806   -9.0413 C   0  0  0  0  0  0  0  0  0  0  0  0
   37.9803  -43.5650   -9.1622 C   0  0  0  0  0  0  0  0  0  0  0  0
   39.3022  -44.1481   -9.2686 C   0  0  0  0  0  0  0  0  0  0  0  0
   40.3649  -43.2730   -9.2569 C   0  0  0  0  0  0  0  0  0  0  0  0
   40.2757  -41.9137   -9.0485 C   0  0  0  0  0  0  0  0  0  0  0  0
   38.9686  -41.3213   -8.9765 C   0  0  0  0  0  0  0  0  0  0  0  0
   36.4698  -41.5391   -8.9451 C   0  0  0  0  0  0  0  0  0  0  0  0
   36.1953  -40.6810   -9.9743 O   0  0  0  0  0  0  0  0  0  0  0  0
   35.6478  -41.9070   -7.9945 N   0  0  0  0  0  0  0  0  0  0  0  0
   35.9050  -42.6633   -7.4191 H   0  0  0  0  0  0  0  0  0  0  0  0
   34.3554  -41.2427   -7.7446 C   0  0  0  0  0  0  0  0  0  0  0  0
   34.0186  -41.3765   -6.3016 C   0  0  0  0  0  0  0  0  0  0  0  0
   34.3717  -42.4154   -5.7297 O   0  0  0  0  0  0  0  0  0  0  0  0
   33.3492  -40.5165   -5.6564 O   0  0  0  0  0  0  0  0  0  0  0  0
   33.0749  -39.7251   -6.0764 H   0  0  0  0  0  0  0  0  0  0  0  0
   33.1699  -41.8226   -8.5207 C   0  0  0  0  0  0  0  0  0  0  0  0
   32.2345  -40.7556   -8.9605 C   0  0  0  0  0  0  0  0  0  0  0  0
   30.8627  -41.1883   -8.3984 C   0  0  0  0  0  0  0  0  0  0  0  0
   30.6457  -41.3542   -7.1239 O   0  0  0  0  0  0  0  0  0  0  0  0
   29.9515  -41.3591   -9.2435 O   0  0  0  0  0  0  0  0  0  0  0  0
   30.1286  -41.2346  -10.1552 H   0  0  0  0  0  0  0  0  0  0  0  0
   41.6815  -43.8633   -9.3427 N   0  0  0  0  0  0  0  0  0  0  0  0
   42.7566  -43.1504   -9.9831 C   0  0  0  0  0  0  0  0  0  0  0  0
   42.0894  -45.0739   -8.7563 C   0  0  0  0  0  0  0  0  0  0  0  0
   43.2333  -44.4153   -3.2717 N   0  0  0  0  0  0  0  0  0  0  0  0
   44.4960  -44.0596   -2.9103 C   0  0  0  0  0  0  0  0  0  0  0  0
   44.6674  -43.8037   -1.6613 N   0  0  0  0  0  0  0  0  0  0  0  0
   45.4832  -43.9169   -3.8556 N   0  0  0  0  0  0  0  0  0  0  0  0
   45.2056  -44.2074   -5.1305 C   0  0  0  0  0  0  0  0  0  0  0  0
   46.2531  -44.1210   -6.0506 N   0  0  0  0  0  0  0  0  0  0  0  0
   43.9307  -44.5201   -5.5636 C   0  0  0  0  0  0  0  0  0  0  0  0
   43.6574  -44.7216   -6.9317 N   0  0  0  0  0  0  0  0  0  0  0  0
   42.3482  -44.9814   -7.2884 C   0  0  0  0  0  0  0  0  0  0  0  0
   41.3664  -45.1144   -6.2674 C   0  0  0  0  0  0  0  0  0  0  0  0
   41.6387  -44.9856   -4.8928 N   0  0  0  0  0  0  0  0  0  0  0  0
   42.9414  -44.6440   -4.5912 C   0  0  0  0  0  0  0  0  0  0  0  0
   43.9237  -43.9241   -1.0276 H   0  0  0  0  0  0  0  0  0  0  0  0
   45.5423  -43.4874   -1.3392 H   0  0  0  0  0  0  0  0  0  0  0  0
   47.1614  -43.8983   -5.7429 H   0  0  0  0  0  0  0  0  0  0  0  0
   46.0831  -44.2828   -7.0067 H   0  0  0  0  0  0  0  0  0  0  0  0
 25 26  2  0  0  0
 25 36  1  0  0  0
 26 27  1  0  0  0
 26 28  1  0  0  0
 28 29  2  0  0  0
 29 30  1  0  0  0
 29 31  1  0  0  0
 31 32  1  0  0  0
 31 36  2  0  0  0
 32 33  2  0  0  0
 33 34  1  0  0  0
 33 24  1  0  0  0
 34 35  2  0  0  0
 35 36  1  0  0  0
 24 22  1  0  0  0
 22 23  1  0  0  0
 22  4  1  0  0  0
  1  2  2  0  0  0
  1  6  1  0  0  0
  1  7  1  0  0  0
  2  3  1  0  0  0
  3  4  2  0  0  0
  4  5  1  0  0  0
  5  6  2  0  0  0
  7  8  2  0  0  0
  7  9  1  0  0  0
  9 11  1  0  0  0
 11 12  1  0  0  0
 11 16  1  0  0  0
 12 13  2  0  0  0
 12 14  1  0  0  0
 16 17  1  0  0  0
 17 18  1  0  0  0
 18 19  2  0  0  0
 18 20  1  0  0  0
 27 37  1  0  0  0
 27 38  1  0  0  0
 30 39  1  0  0  0
 30 40  1  0  0  0
  9 10  1  0  0  0
 14 15  1  0  0  0
 20 21  1  0  0  0
M  END
> <minimizedAffinity>
-8.51872

$$$$
3QXT_MTX_A_2000


 40 42  0  0  0  0  0  0  0  0999 V2000
   39.4988  -43.2152   -8.9473 C   0  0  0  0  0  0  0  0  0  0  0  0
   38.2477  -43.8089   -9.1150 C   0  0  0  0  0  0  0  0  0  0  0  0
   37.0824  -42.9604   -9.2602 C   0  0  0  0  0  0  0  0  0  0  0  0
   37.2984  -41.6018   -9.2062 C   0  0  0  0  0  0  0  0  0  0  0  0
   38.5326  -40.9933   -9.1319 C   0  0  0  0  0  0  0  0  0  0  0  0
   39.6907  -41.8247   -8.9528 C   0  0  0  0  0  0  0  0  0  0  0  0
   40.7448  -44.0939   -8.7736 C   0  0  0  0  0  0  0  0  0  0  0  0
   41.4352  -44.2933   -9.9374 O   0  0  0  0  0  0  0  0  0  0  0  0
   41.0993  -44.4911   -7.5772 N   0  0  0  0  0  0  0  0  0  0  0  0
   40.6120  -44.1324   -6.8007 H   0  0  0  0  0  0  0  0  0  0  0  0
   42.1935  -45.4499   -7.3376 C   0  0  0  0  0  0  0  0  0  0  0  0
   41.7740  -46.3996   -6.2717 C   0  0  0  0  0  0  0  0  0  0  0  0
   41.8328  -47.6078   -6.5320 O   0  0  0  0  0  0  0  0  0  0  0  0
   41.3137  -46.0338   -5.1500 O   0  0  0  0  0  0  0  0  0  0  0  0
   41.2631  -45.1223   -4.9391 H   0  0  0  0  0  0  0  0  0  0  0  0
   43.5090  -44.8247   -6.8659 C   0  0  0  0  0  0  0  0  0  0  0  0
   44.6476  -45.2437   -7.7233 C   0  0  0  0  0  0  0  0  0  0  0  0
   44.6673  -44.2110   -8.8714 C   0  0  0  0  0  0  0  0  0  0  0  0
   44.9624  -42.9554   -8.6828 O   0  0  0  0  0  0  0  0  0  0  0  0
   44.3958  -44.6534  -10.0134 O   0  0  0  0  0  0  0  0  0  0  0  0
   44.1864  -45.5596  -10.1272 H   0  0  0  0  0  0  0  0  0  0  0  0
   36.1343  -40.7612   -9.3724 N   0  0  0  0  0  0  0  0  0  0  0  0
   35.3155  -40.8795  -10.5512 C   0  0  0  0  0  0  0  0  0  0  0  0
   35.6171  -39.8611   -8.4248 C   0  0  0  0  0  0  0  0  0  0  0  0
   31.2236  -41.5970   -5.3415 N   0  0  0  0  0  0  0  0  0  0  0  0
   31.4344  -41.9233   -4.0374 C   0  0  0  0  0  0  0  0  0  0  0  0
   30.3794  -42.1924   -3.3522 N   0  0  0  0  0  0  0  0  0  0  0  0
   32.6980  -41.8825   -3.4987 N   0  0  0  0  0  0  0  0  0  0  0  0
   33.7319  -41.5914   -4.2944 C   0  0  0  0  0  0  0  0  0  0  0  0
   35.0081  -41.6314   -3.7279 N   0  0  0  0  0  0  0  0  0  0  0  0
   33.5730  -41.1996   -5.6104 C   0  0  0  0  0  0  0  0  0  0  0  0
   34.6793  -40.8031   -6.3888 N   0  0  0  0  0  0  0  0  0  0  0  0
   34.4305  -40.3781   -7.6796 C   0  0  0  0  0  0  0  0  0  0  0  0
   33.1015  -40.4380   -8.1837 C   0  0  0  0  0  0  0  0  0  0  0  0
   31.9985  -40.8982   -7.4407 N   0  0  0  0  0  0  0  0  0  0  0  0
   32.2821  -41.2325   -6.1322 C   0  0  0  0  0  0  0  0  0  0  0  0
   29.4982  -42.2079   -3.7910 H   0  0  0  0  0  0  0  0  0  0  0  0
   30.4533  -42.3830   -2.3892 H   0  0  0  0  0  0  0  0  0  0  0  0
   35.1221  -41.9103   -2.7906 H   0  0  0  0  0  0  0  0  0  0  0  0
   35.7936  -41.3806   -4.2658 H   0  0  0  0  0  0  0  0  0  0  0  0
 25 26  2  0  0  0
 25 36  1  0  0  0
 26 27  1  0  0  0
 26 28  1  0  0  0
 28 29  2  0  0  0
 29 30  1  0  0  0
 29 31  1  0  0  0
 31 32  1  0  0  0
 31 36  2  0  0  0
 32 33  2  0  0  0
 33 34  1  0  0  0
 33 24  1  0  0  0
 34 35  2  0  0  0
 35 36  1  0  0  0
 24 22  1  0  0  0
 22 23  1  0  0  0
 22  4  1  0  0  0
  1  2  2  0  0  0
  1  6  1  0  0  0
  1  7  1  0  0  0
  2  3  1  0  0  0
  3  4  2  0  0  0
  4  5  1  0  0  0
  5  6  2  0  0  0
  7  8  2  0  0  0
  7  9  1  0  0  0
  9 11  1  0  0  0
 11 12  1  0  0  0
 11 16  1  0  0  0
 12 13  2  0  0  0
 12 14  1  0  0  0
 16 17  1  0  0  0
 17 18  1  0  0  0
 18 19  2  0  0  0
 18 20  1  0  0  0
 27 37  1  0  0  0
 27 38  1  0  0  0
 30 39  1  0  0  0
 30 40  1  0  0  0
  9 10  1  0  0  0
 14 15  1  0  0  0
 20 21  1  0  0  0
M  END
> <minimizedAffinity>
-8.09445

$$$$
3QXT_MTX_A_2000


 40 42  0  0  0  0  0  0  0  0999 V2000
   39.4735  -43.2933   -8.9650 C   0  0  0  0  0  0  0  0  0  0  0  0
   38.2258  -43.8905   -9.1442 C   0  0  0  0  0  0  0  0  0  0  0  0
   37.0560  -43.0457   -9.2748 C   0  0  0  0  0  0  0  0  0  0  0  0
   37.2647  -41.6872   -9.1962 C   0  0  0  0  0  0  0  0  0  0  0  0
   38.4957  -41.0736   -9.1100 C   0  0  0  0  0  0  0  0  0  0  0  0
   39.6581  -41.9020   -8.9452 C   0  0  0  0  0  0  0  0  0  0  0  0
   40.7241  -44.1684   -8.8063 C   0  0  0  0  0  0  0  0  0  0  0  0
   41.4534  -44.2871   -9.9574 O   0  0  0  0  0  0  0  0  0  0  0  0
   41.0455  -44.6364   -7.6262 N   0  0  0  0  0  0  0  0  0  0  0  0
   40.5294  -44.3322   -6.8450 H   0  0  0  0  0  0  0  0  0  0  0  0
   42.1432  -45.5971   -7.4117 C   0  0  0  0  0  0  0  0  0  0  0  0
   43.4192  -44.8442   -7.2747 C   0  0  0  0  0  0  0  0  0  0  0  0
   44.0725  -45.0173   -6.2382 O   0  0  0  0  0  0  0  0  0  0  0  0
   43.8325  -44.0060   -8.1293 O   0  0  0  0  0  0  0  0  0  0  0  0
   43.3482  -43.8644   -8.9189 H   0  0  0  0  0  0  0  0  0  0  0  0
   42.3541  -46.6017   -8.5475 C   0  0  0  0  0  0  0  0  0  0  0  0
   42.2620  -48.0015   -8.0585 C   0  0  0  0  0  0  0  0  0  0  0  0
   40.7744  -48.3759   -8.2359 C   0  0  0  0  0  0  0  0  0  0  0  0
   40.2153  -48.5003   -9.4069 O   0  0  0  0  0  0  0  0  0  0  0  0
   40.1270  -48.5718   -7.1794 O   0  0  0  0  0  0  0  0  0  0  0  0
   40.5480  -48.4771   -6.3476 H   0  0  0  0  0  0  0  0  0  0  0  0
   36.0962  -40.8500   -9.3479 N   0  0  0  0  0  0  0  0  0  0  0  0
   35.2459  -40.9922  -10.5015 C   0  0  0  0  0  0  0  0  0  0  0  0
   35.6045  -39.9306   -8.4052 C   0  0  0  0  0  0  0  0  0  0  0  0
   31.2813  -41.5973   -5.1872 N   0  0  0  0  0  0  0  0  0  0  0  0
   31.5267  -41.9253   -3.8896 C   0  0  0  0  0  0  0  0  0  0  0  0
   30.4892  -42.1779   -3.1724 N   0  0  0  0  0  0  0  0  0  0  0  0
   32.8066  -41.9029   -3.3896 N   0  0  0  0  0  0  0  0  0  0  0  0
   33.8201  -41.6281   -4.2168 C   0  0  0  0  0  0  0  0  0  0  0  0
   35.1122  -41.6866   -3.6892 N   0  0  0  0  0  0  0  0  0  0  0  0
   33.6271  -41.2354   -5.5280 C   0  0  0  0  0  0  0  0  0  0  0  0
   34.7151  -40.8564   -6.3402 N   0  0  0  0  0  0  0  0  0  0  0  0
   34.4336  -40.4290   -7.6236 C   0  0  0  0  0  0  0  0  0  0  0  0
   33.0891  -40.4696   -8.0870 C   0  0  0  0  0  0  0  0  0  0  0  0
   32.0024  -40.9124   -7.3101 N   0  0  0  0  0  0  0  0  0  0  0  0
   32.3207  -41.2496   -6.0103 C   0  0  0  0  0  0  0  0  0  0  0  0
   29.5949  -42.1806   -3.5841 H   0  0  0  0  0  0  0  0  0  0  0  0
   30.5894  -42.3686   -2.2117 H   0  0  0  0  0  0  0  0  0  0  0  0
   35.2504  -41.9662   -2.7554 H   0  0  0  0  0  0  0  0  0  0  0  0
   35.8846  -41.4482   -4.2512 H   0  0  0  0  0  0  0  0  0  0  0  0
 25 26  2  0  0  0
 25 36  1  0  0  0
 26 27  1  0  0  0
 26 28  1  0  0  0
 28 29  2  0  0  0
 29 30  1  0  0  0
 29 31  1  0  0  0
 31 32  1  0  0  0
 31 36  2  0  0  0
 32 33  2  0  0  0
 33 34  1  0  0  0
 33 24  1  0  0  0
 34 35  2  0  0  0
 35 36  1  0  0  0
 24 22  1  0  0  0
 22 23  1  0  0  0
 22  4  1  0  0  0
  1  2  2  0  0  0
  1  6  1  0  0  0
  1  7  1  0  0  0
  2  3  1  0  0  0
  3  4  2  0  0  0
  4  5  1  0  0  0
  5  6  2  0  0  0
  7  8  2  0  0  0
  7  9  1  0  0  0
  9 11  1  0  0  0
 11 12  1  0  0  0
 11 16  1  0  0  0
 12 13  2  0  0  0
 12 14  1  0  0  0
 16 17  1  0  0  0
 17 18  1  0  0  0
 18 19  2  0  0  0
 18 20  1  0  0  0
 27 37  1  0  0  0
 27 38  1  0  0  0
 30 39  1  0  0  0
 30 40  1  0  0  0
  9 10  1  0  0  0
 14 15  1  0  0  0
 20 21  1  0  0  0
M  END
> <minimizedAffinity>
-7.88849

$$$$
3QXT_MTX_A_2000


 40 42  0  0  0  0  0  0  0  0999 V2000
   36.1485  -41.5419   -9.0794 C   0  0  0  0  0  0  0  0  0  0  0  0
   35.4456  -42.5334   -8.3949 C   0  0  0  0  0  0  0  0  0  0  0  0
   34.0381  -42.3309   -8.1175 C   0  0  0  0  0  0  0  0  0  0  0  0
   33.4898  -41.1430   -8.5463 C   0  0  0  0  0  0  0  0  0  0  0  0
   34.1408  -40.1913   -9.3010 C   0  0  0  0  0  0  0  0  0  0  0  0
   35.5448  -40.3661   -9.5517 C   0  0  0  0  0  0  0  0  0  0  0  0
   37.6442  -41.7266   -9.3686 C   0  0  0  0  0  0  0  0  0  0  0  0
   38.2021  -40.6724  -10.0381 O   0  0  0  0  0  0  0  0  0  0  0  0
   38.2735  -42.7743   -8.8982 N   0  0  0  0  0  0  0  0  0  0  0  0
   37.7922  -43.3726   -8.2821 H   0  0  0  0  0  0  0  0  0  0  0  0
   39.6684  -43.1007   -9.2471 C   0  0  0  0  0  0  0  0  0  0  0  0
   39.9832  -44.4635   -8.7396 C   0  0  0  0  0  0  0  0  0  0  0  0
   40.8612  -44.5581   -7.8730 O   0  0  0  0  0  0  0  0  0  0  0  0
   39.4438  -45.5186   -9.1864 O   0  0  0  0  0  0  0  0  0  0  0  0
   38.7775  -45.4623   -9.8428 H   0  0  0  0  0  0  0  0  0  0  0  0
   40.7206  -42.1631   -8.6491 C   0  0  0  0  0  0  0  0  0  0  0  0
   41.4251  -41.3928   -9.7061 C   0  0  0  0  0  0  0  0  0  0  0  0
   42.5222  -42.3520  -10.2172 C   0  0  0  0  0  0  0  0  0  0  0  0
   42.8430  -42.4460  -11.4771 O   0  0  0  0  0  0  0  0  0  0  0  0
   43.1072  -43.0342   -9.3419 O   0  0  0  0  0  0  0  0  0  0  0  0
   42.8612  -42.9516   -8.4416 H   0  0  0  0  0  0  0  0  0  0  0  0
   32.0806  -40.9568   -8.2844 N   0  0  0  0  0  0  0  0  0  0  0  0
   31.1003  -41.3780   -9.2517 C   0  0  0  0  0  0  0  0  0  0  0  0
   31.5133  -40.4789   -7.0904 C   0  0  0  0  0  0  0  0  0  0  0  0
   34.7322  -41.6872   -2.6181 N   0  0  0  0  0  0  0  0  0  0  0  0
   34.4259  -42.7857   -1.8758 C   0  0  0  0  0  0  0  0  0  0  0  0
   35.2637  -43.0815   -0.9455 N   0  0  0  0  0  0  0  0  0  0  0  0
   33.3259  -43.5524   -2.1770 N   0  0  0  0  0  0  0  0  0  0  0  0
   32.5144  -43.1606   -3.1643 C   0  0  0  0  0  0  0  0  0  0  0  0
   31.3675  -43.9246   -3.3929 N   0  0  0  0  0  0  0  0  0  0  0  0
   32.8033  -42.0869   -3.9854 C   0  0  0  0  0  0  0  0  0  0  0  0
   31.9745  -41.7655   -5.0794 N   0  0  0  0  0  0  0  0  0  0  0  0
   32.3592  -40.7081   -5.8812 C   0  0  0  0  0  0  0  0  0  0  0  0
   33.5100  -39.9518   -5.5238 C   0  0  0  0  0  0  0  0  0  0  0  0
   34.3065  -40.2179   -4.3945 N   0  0  0  0  0  0  0  0  0  0  0  0
   33.9316  -41.3327   -3.6726 C   0  0  0  0  0  0  0  0  0  0  0  0
   36.0353  -42.4949   -0.7732 H   0  0  0  0  0  0  0  0  0  0  0  0
   35.1332  -43.8945   -0.4058 H   0  0  0  0  0  0  0  0  0  0  0  0
   31.1611  -44.6896   -2.8085 H   0  0  0  0  0  0  0  0  0  0  0  0
   30.7657  -43.6982   -4.1384 H   0  0  0  0  0  0  0  0  0  0  0  0
 25 26  2  0  0  0
 25 36  1  0  0  0
 26 27  1  0  0  0
 26 28  1  0  0  0
 28 29  2  0  0  0
 29 30  1  0  0  0
 29 31  1  0  0  0
 31 32  1  0  0  0
 31 36  2  0  0  0
 32 33  2  0  0  0
 33 34  1  0  0  0
 33 24  1  0  0  0
 34 35  2  0  0  0
 35 36  1  0  0  0
 24 22  1  0  0  0
 22 23  1  0  0  0
 22  4  1  0  0  0
  1  2  2  0  0  0
  1  6  1  0  0  0
  1  7  1  0  0  0
  2  3  1  0  0  0
  3  4  2  0  0  0
  4  5  1  0  0  0
  5  6  2  0  0  0
  7  8  2  0  0  0
  7  9  1  0  0  0
  9 11  1  0  0  0
 11 12  1  0  0  0
 11 16  1  0  0  0
 12 13  2  0  0  0
 12 14  1  0  0  0
 16 17  1  0  0  0
 17 18  1  0  0  0
 18 19  2  0  0  0
 18 20  1  0  0  0
 27 37  1  0  0  0
 27 38  1  0  0  0
 30 39  1  0  0  0
 30 40  1  0  0  0
  9 10  1  0  0  0
 14 15  1  0  0  0
 20 21  1  0  0  0
M  END
> <minimizedAffinity>
-7.81837

$$$$
3QXT_MTX_A_2000


 40 42  0  0  0  0  0  0  0  0999 V2000
   38.2294  -42.4515   -8.9229 C   0  0  0  0  0  0  0  0  0  0  0  0
   38.2793  -43.8224   -9.1754 C   0  0  0  0  0  0  0  0  0  0  0  0
   39.5658  -44.4464   -9.4088 C   0  0  0  0  0  0  0  0  0  0  0  0
   40.6665  -43.6201   -9.3779 C   0  0  0  0  0  0  0  0  0  0  0  0
   40.6505  -42.2835   -9.0424 C   0  0  0  0  0  0  0  0  0  0  0  0
   39.3774  -41.6478   -8.8433 C   0  0  0  0  0  0  0  0  0  0  0  0
   36.8764  -41.7657   -8.6906 C   0  0  0  0  0  0  0  0  0  0  0  0
   36.9524  -40.4001   -8.6926 O   0  0  0  0  0  0  0  0  0  0  0  0
   35.7867  -42.4873   -8.6080 N   0  0  0  0  0  0  0  0  0  0  0  0
   35.8476  -43.4515   -8.7974 H   0  0  0  0  0  0  0  0  0  0  0  0
   34.4731  -41.9248   -8.2451 C   0  0  0  0  0  0  0  0  0  0  0  0
   34.0184  -41.0243   -9.3388 C   0  0  0  0  0  0  0  0  0  0  0  0
   32.8666  -40.5781   -9.2654 O   0  0  0  0  0  0  0  0  0  0  0  0
   34.7233  -40.7434  -10.3526 O   0  0  0  0  0  0  0  0  0  0  0  0
   35.5972  -41.0742  -10.4218 H   0  0  0  0  0  0  0  0  0  0  0  0
   34.4601  -41.0882   -6.9630 C   0  0  0  0  0  0  0  0  0  0  0  0
   34.5961  -41.9428   -5.7554 C   0  0  0  0  0  0  0  0  0  0  0  0
   33.5060  -41.4260   -4.7914 C   0  0  0  0  0  0  0  0  0  0  0  0
   33.7743  -41.0046   -3.5874 O   0  0  0  0  0  0  0  0  0  0  0  0
   32.3343  -41.4185   -5.2397 O   0  0  0  0  0  0  0  0  0  0  0  0
   32.1630  -41.7258   -6.1081 H   0  0  0  0  0  0  0  0  0  0  0  0
   41.9484  -44.2528   -9.5911 N   0  0  0  0  0  0  0  0  0  0  0  0
   42.4447  -44.4558  -10.9277 C   0  0  0  0  0  0  0  0  0  0  0  0
   42.8674  -44.6252   -8.5948 C   0  0  0  0  0  0  0  0  0  0  0  0
   40.7472  -47.4843   -4.2183 N   0  0  0  0  0  0  0  0  0  0  0  0
   40.4311  -48.7964   -4.3921 C   0  0  0  0  0  0  0  0  0  0  0  0
   40.0695  -49.4281   -3.3314 N   0  0  0  0  0  0  0  0  0  0  0  0
   40.5746  -49.3967   -5.6199 N   0  0  0  0  0  0  0  0  0  0  0  0
   40.9570  -48.6535   -6.6631 C   0  0  0  0  0  0  0  0  0  0  0  0
   41.0209  -49.2821   -7.9090 N   0  0  0  0  0  0  0  0  0  0  0  0
   41.3428  -47.3323   -6.5361 C   0  0  0  0  0  0  0  0  0  0  0  0
   41.8362  -46.6102   -7.6417 N   0  0  0  0  0  0  0  0  0  0  0  0
   42.2474  -45.3098   -7.4212 C   0  0  0  0  0  0  0  0  0  0  0  0
   42.0791  -44.7408   -6.1281 C   0  0  0  0  0  0  0  0  0  0  0  0
   41.5227  -45.4275   -5.0330 N   0  0  0  0  0  0  0  0  0  0  0  0
   41.2048  -46.7476   -5.2797 C   0  0  0  0  0  0  0  0  0  0  0  0
   39.9829  -48.9466   -2.4771 H   0  0  0  0  0  0  0  0  0  0  0  0
   39.8794  -50.3932   -3.3740 H   0  0  0  0  0  0  0  0  0  0  0  0
   40.7463  -50.2231   -8.0003 H   0  0  0  0  0  0  0  0  0  0  0  0
   41.3404  -48.7840   -8.6958 H   0  0  0  0  0  0  0  0  0  0  0  0
 25 26  2  0  0  0
 25 36  1  0  0  0
 26 27  1  0  0  0
 26 28  1  0  0  0
 28 29  2  0  0  0
 29 30  1  0  0  0
 29 31  1  0  0  0
 31 32  1  0  0  0
 31 36  2  0  0  0
 32 33  2  0  0  0
 33 34  1  0  0  0
 33 24  1  0  0  0
 34 35  2  0  0  0
 35 36  1  0  0  0
 24 22  1  0  0  0
 22 23  1  0  0  0
 22  4  1  0  0  0
  1  2  2  0  0  0
  1  6  1  0  0  0
  1  7  1  0  0  0
  2  3  1  0  0  0
  3  4  2  0  0  0
  4  5  1  0  0  0
  5  6  2  0  0  0
  7  8  2  0  0  0
  7  9  1  0  0  0
  9 11  1  0  0  0
 11 12  1  0  0  0
 11 16  1  0  0  0
 12 13  2  0  0  0
 12 14  1  0  0  0
 16 17  1  0  0  0
 17 18  1  0  0  0
 18 19  2  0  0  0
 18 20  1  0  0  0
 27 37  1  0  0  0
 27 38  1  0  0  0
 30 39  1  0  0  0
 30 40  1  0  0  0
  9 10  1  0  0  0
 14 15  1  0  0  0
 20 21  1  0  0  0
M  END
> <minimizedAffinity>
-7.81063

$$$$
