1UVT_I48_H_1


 30 32  0  0  0  0  0  0  0  0999 V2000
   51.7333   59.1522   44.2774 C   0  0  0  0  0  0  0  0  0  0  0  0
   51.9078   58.4269   45.4803 C   0  0  0  0  0  0  0  0  0  0  0  0
   52.5399   59.0334   46.5840 C   0  0  0  0  0  0  0  0  0  0  0  0
   53.1836   60.2803   46.4223 C   0  0  0  0  0  0  0  0  0  0  0  0
   53.0899   60.9612   45.2041 C   0  0  0  0  0  0  0  0  0  0  0  0
   52.4492   60.3606   44.1123 C   0  0  0  0  0  0  0  0  0  0  0  0
   53.9625   62.1627   44.9364 C   0  0  0  0  0  0  0  0  0  0  0  0
   52.8160   58.2673   47.7441 N   0  0  0  0  0  0  0  0  0  0  0  0
   53.6776   57.8154   47.8952 H   0  0  0  0  0  0  0  0  0  0  0  0
   51.5750   58.2000   48.8110 S   0  0  0  0  0  0  0  0  0  0  0  0
   52.0935   57.5452   49.9864 O   0  0  0  0  0  0  0  0  0  0  0  0
   50.4264   57.4740   48.3245 O   0  0  0  0  0  0  0  0  0  0  0  0
   51.0076   59.7838   49.2620 C   0  0  0  0  0  0  0  0  0  0  0  0
   49.6449   60.0734   49.1467 C   0  0  0  0  0  0  0  0  0  0  0  0
   49.2533   61.4247   49.1902 C   0  0  0  0  0  0  0  0  0  0  0  0
   50.1029   62.3697   49.8020 C   0  0  0  0  0  0  0  0  0  0  0  0
   51.4313   62.0064   50.1266 C   0  0  0  0  0  0  0  0  0  0  0  0
   51.8749   60.6825   49.8970 C   0  0  0  0  0  0  0  0  0  0  0  0
   50.7418   58.7906   43.3386 O   0  0  0  0  0  0  0  0  0  0  0  0
   50.8505   59.3851   42.0364 C   0  0  0  0  0  0  0  0  0  0  0  0
   50.4972   58.3684   40.9362 C   0  0  0  0  0  0  0  0  0  0  0  0
   49.3140   58.7728   40.1929 N   0  0  0  0  0  0  0  0  0  0  0  0
   49.3038   59.6155   39.6840 H   0  0  0  0  0  0  0  0  0  0  0  0
   45.9185   56.2141   40.3197 N   0  0  0  0  0  0  0  0  0  0  0  0
   45.7394   57.6039   40.1026 C   0  0  0  0  0  0  0  0  0  0  0  0
   46.8637   58.4402   40.0931 C   0  0  0  0  0  0  0  0  0  0  0  0
   48.1636   57.9186   40.2170 C   0  0  0  0  0  0  0  0  0  0  0  0
   48.3330   56.5537   40.4533 C   0  0  0  0  0  0  0  0  0  0  0  0
   47.2366   55.6906   40.4275 C   0  0  0  0  0  0  0  0  0  0  0  0
   45.1387   55.6179   40.3951 H   0  0  0  0  0  0  0  0  0  0  0  0
 24 25  1  0  0  0
 24 29  2  0  0  0
 25 26  2  0  0  0
 26 27  1  0  0  0
 27 28  2  0  0  0
 27 22  1  0  0  0
 28 29  1  0  0  0
 22 21  1  0  0  0
 21 20  1  0  0  0
 20 19  1  0  0  0
 19  1  1  0  0  0
  1  2  2  0  0  0
  1  6  1  0  0  0
  2  3  1  0  0  0
  3  4  2  0  0  0
  3  8  1  0  0  0
  4  5  1  0  0  0
  5  6  2  0  0  0
  5  7  1  0  0  0
  8 10  1  0  0  0
 10 11  2  0  0  0
 10 12  2  0  0  0
 10 13  1  0  0  0
 13 14  2  0  0  0
 13 18  1  0  0  0
 14 15  1  0  0  0
 15 16  2  0  0  0
 16 17  1  0  0  0
 17 18  2  0  0  0
 24 30  1  0  0  0
 22 23  1  0  0  0
  8  9  1  0  0  0
M  CHG 1  24   1
M  END
> <minimizedAffinity>
-9.53363

$$$$
1UVT_I48_H_1


 30 32  0  0  0  0  0  0  0  0999 V2000
   51.6770   59.2590   44.3415 C   0  0  0  0  0  0  0  0  0  0  0  0
   51.6712   58.6992   45.6415 C   0  0  0  0  0  0  0  0  0  0  0  0
   52.2587   59.4001   46.7136 C   0  0  0  0  0  0  0  0  0  0  0  0
   53.0334   60.5523   46.4543 C   0  0  0  0  0  0  0  0  0  0  0  0
   53.1163   61.0592   45.1533 C   0  0  0  0  0  0  0  0  0  0  0  0
   52.5199   60.3666   44.0913 C   0  0  0  0  0  0  0  0  0  0  0  0
   54.1230   62.1322   44.8189 C   0  0  0  0  0  0  0  0  0  0  0  0
   52.3534   58.7853   47.9872 N   0  0  0  0  0  0  0  0  0  0  0  0
   52.9869   58.0582   48.1853 H   0  0  0  0  0  0  0  0  0  0  0  0
   51.3159   59.3915   49.1003 S   0  0  0  0  0  0  0  0  0  0  0  0
   51.0488   58.3173   50.0244 O   0  0  0  0  0  0  0  0  0  0  0  0
   50.0720   59.8644   48.5416 O   0  0  0  0  0  0  0  0  0  0  0  0
   52.0034   60.7260   49.9836 C   0  0  0  0  0  0  0  0  0  0  0  0
   52.9138   60.4614   51.0108 C   0  0  0  0  0  0  0  0  0  0  0  0
   53.1998   61.4973   51.9197 C   0  0  0  0  0  0  0  0  0  0  0  0
   52.9759   62.8351   51.5336 C   0  0  0  0  0  0  0  0  0  0  0  0
   52.2351   63.1077   50.3595 C   0  0  0  0  0  0  0  0  0  0  0  0
   51.7834   62.0396   49.5486 C   0  0  0  0  0  0  0  0  0  0  0  0
   50.7425   58.8536   43.3628 O   0  0  0  0  0  0  0  0  0  0  0  0
   50.9571   59.3501   42.0330 C   0  0  0  0  0  0  0  0  0  0  0  0
   50.4173   58.3624   40.9832 C   0  0  0  0  0  0  0  0  0  0  0  0
   49.1545   58.8152   40.4209 N   0  0  0  0  0  0  0  0  0  0  0  0
   49.0649   59.7244   40.0541 H   0  0  0  0  0  0  0  0  0  0  0  0
   45.8385   56.1525   40.3398 N   0  0  0  0  0  0  0  0  0  0  0  0
   47.1440   55.6380   40.5444 C   0  0  0  0  0  0  0  0  0  0  0  0
   48.2310   56.5222   40.5388 C   0  0  0  0  0  0  0  0  0  0  0  0
   48.0436   57.9100   40.4122 C   0  0  0  0  0  0  0  0  0  0  0  0
   46.7597   58.4090   40.1882 C   0  0  0  0  0  0  0  0  0  0  0  0
   45.6539   57.5585   40.2291 C   0  0  0  0  0  0  0  0  0  0  0  0
   45.0681   55.5430   40.2750 H   0  0  0  0  0  0  0  0  0  0  0  0
 24 25  1  0  0  0
 24 29  2  0  0  0
 25 26  2  0  0  0
 26 27  1  0  0  0
 27 28  2  0  0  0
 27 22  1  0  0  0
 28 29  1  0  0  0
 22 21  1  0  0  0
 21 20  1  0  0  0
 20 19  1  0  0  0
 19  1  1  0  0  0
  1  2  2  0  0  0
  1  6  1  0  0  0
  2  3  1  0  0  0
  3  4  2  0  0  0
  3  8  1  0  0  0
  4  5  1  0  0  0
  5  6  2  0  0  0
  5  7  1  0  0  0
  8 10  1  0  0  0
 10 11  2  0  0  0
 10 12  2  0  0  0
 10 13  1  0  0  0
 13 14  2  0  0  0
 13 18  1  0  0  0
 14 15  1  0  0  0
 15 16  2  0  0  0
 16 17  1  0  0  0
 17 18  2  0  0  0
 24 30  1  0  0  0
 22 23  1  0  0  0
  8  9  1  0  0  0
M  CHG 1  24   1
M  END
> <minimizedAffinity>
-8.98126

$$$$
1UVT_I48_H_1


 30 32  0  0  0  0  0  0  0  0999 V2000
   51.6775   59.1050   44.2700 C   0  0  0  0  0  0  0  0  0  0  0  0
   51.8693   58.3757   45.4679 C   0  0  0  0  0  0  0  0  0  0  0  0
   52.5115   58.9808   46.5665 C   0  0  0  0  0  0  0  0  0  0  0  0
   53.1477   60.2312   46.4023 C   0  0  0  0  0  0  0  0  0  0  0  0
   53.0367   60.9164   45.1880 C   0  0  0  0  0  0  0  0  0  0  0  0
   52.3860   60.3173   44.1014 C   0  0  0  0  0  0  0  0  0  0  0  0
   53.9007   62.1229   44.9149 C   0  0  0  0  0  0  0  0  0  0  0  0
   52.8046   58.2113   47.7202 N   0  0  0  0  0  0  0  0  0  0  0  0
   53.6653   57.7524   47.8537 H   0  0  0  0  0  0  0  0  0  0  0  0
   51.5848   58.1531   48.8119 S   0  0  0  0  0  0  0  0  0  0  0  0
   52.1274   57.5116   49.9837 O   0  0  0  0  0  0  0  0  0  0  0  0
   50.4282   57.4202   48.3555 O   0  0  0  0  0  0  0  0  0  0  0  0
   51.0233   59.7407   49.2573 C   0  0  0  0  0  0  0  0  0  0  0  0
   49.6645   60.0407   49.1243 C   0  0  0  0  0  0  0  0  0  0  0  0
   49.2826   61.3948   49.1643 C   0  0  0  0  0  0  0  0  0  0  0  0
   50.1310   62.3327   49.7885 C   0  0  0  0  0  0  0  0  0  0  0  0
   51.4522   61.9591   50.1302 C   0  0  0  0  0  0  0  0  0  0  0  0
   51.8888   60.6321   49.9048 C   0  0  0  0  0  0  0  0  0  0  0  0
   50.6766   58.7426   43.3414 O   0  0  0  0  0  0  0  0  0  0  0  0
   50.7603   59.3522   42.0444 C   0  0  0  0  0  0  0  0  0  0  0  0
   50.3998   58.3444   40.9384 C   0  0  0  0  0  0  0  0  0  0  0  0
   51.5543   58.0135   40.1178 N   0  0  0  0  0  0  0  0  0  0  0  0
   51.7448   58.5154   39.2926 H   0  0  0  0  0  0  0  0  0  0  0  0
   54.1071   54.8659   41.4094 N   0  0  0  0  0  0  0  0  0  0  0  0
   52.7517   54.5855   41.1012 C   0  0  0  0  0  0  0  0  0  0  0  0
   51.9136   55.6366   40.7059 C   0  0  0  0  0  0  0  0  0  0  0  0
   52.4087   56.9416   40.5360 C   0  0  0  0  0  0  0  0  0  0  0  0
   53.7373   57.2169   40.8625 C   0  0  0  0  0  0  0  0  0  0  0  0
   54.6057   56.1843   41.2195 C   0  0  0  0  0  0  0  0  0  0  0  0
   54.6967   54.1555   41.7512 H   0  0  0  0  0  0  0  0  0  0  0  0
 24 25  1  0  0  0
 24 29  2  0  0  0
 25 26  2  0  0  0
 26 27  1  0  0  0
 27 28  2  0  0  0
 27 22  1  0  0  0
 28 29  1  0  0  0
 22 21  1  0  0  0
 21 20  1  0  0  0
 20 19  1  0  0  0
 19  1  1  0  0  0
  1  2  2  0  0  0
  1  6  1  0  0  0
  2  3  1  0  0  0
  3  4  2  0  0  0
  3  8  1  0  0  0
  4  5  1  0  0  0
  5  6  2  0  0  0
  5  7  1  0  0  0
  8 10  1  0  0  0
 10 11  2  0  0  0
 10 12  2  0  0  0
 10 13  1  0  0  0
 13 14  2  0  0  0
 13 18  1  0  0  0
 14 15  1  0  0  0
 15 16  2  0  0  0
 16 17  1  0  0  0
 17 18  2  0  0  0
 24 30  1  0  0  0
 22 23  1  0  0  0
  8  9  1  0  0  0
M  CHG 1  24   1
M  END
> <minimizedAffinity>
-8.43333

$$$$
1UVT_I48_H_1


 30 32  0  0  0  0  0  0  0  0999 V2000
   51.3836   57.8277   43.3583 C   0  0  0  0  0  0  0  0  0  0  0  0
   51.2401   58.3181   44.6783 C   0  0  0  0  0  0  0  0  0  0  0  0
   52.0422   57.7994   45.7143 C   0  0  0  0  0  0  0  0  0  0  0  0
   52.8320   56.6523   45.4789 C   0  0  0  0  0  0  0  0  0  0  0  0
   52.9066   56.1084   44.1925 C   0  0  0  0  0  0  0  0  0  0  0  0
   52.1174   56.6349   43.1615 C   0  0  0  0  0  0  0  0  0  0  0  0
   53.5422   54.7573   43.9747 C   0  0  0  0  0  0  0  0  0  0  0  0
   51.8144   58.2096   47.0518 N   0  0  0  0  0  0  0  0  0  0  0  0
   51.2435   57.7066   47.6766 H   0  0  0  0  0  0  0  0  0  0  0  0
   52.5849   59.5944   47.4662 S   0  0  0  0  0  0  0  0  0  0  0  0
   52.9510   60.2342   46.2269 O   0  0  0  0  0  0  0  0  0  0  0  0
   53.7676   59.3866   48.2668 O   0  0  0  0  0  0  0  0  0  0  0  0
   51.5582   60.6751   48.3671 C   0  0  0  0  0  0  0  0  0  0  0  0
   52.1170   61.8228   48.9370 C   0  0  0  0  0  0  0  0  0  0  0  0
   51.3721   62.4979   49.9222 C   0  0  0  0  0  0  0  0  0  0  0  0
   49.9734   62.3237   49.9694 C   0  0  0  0  0  0  0  0  0  0  0  0
   49.3729   61.2910   49.2113 C   0  0  0  0  0  0  0  0  0  0  0  0
   50.1698   60.4865   48.3627 C   0  0  0  0  0  0  0  0  0  0  0  0
   50.9703   58.5891   42.2426 O   0  0  0  0  0  0  0  0  0  0  0  0
   51.5958   58.2739   40.9895 C   0  0  0  0  0  0  0  0  0  0  0  0
   50.5507   57.8359   39.9478 C   0  0  0  0  0  0  0  0  0  0  0  0
   49.3198   58.6013   40.0691 N   0  0  0  0  0  0  0  0  0  0  0  0
   49.3331   59.5848   40.0259 H   0  0  0  0  0  0  0  0  0  0  0  0
   45.6411   56.5231   40.5592 N   0  0  0  0  0  0  0  0  0  0  0  0
   46.8651   55.8210   40.6988 C   0  0  0  0  0  0  0  0  0  0  0  0
   48.0694   56.5106   40.5051 C   0  0  0  0  0  0  0  0  0  0  0  0
   48.0872   57.8937   40.2530 C   0  0  0  0  0  0  0  0  0  0  0  0
   46.8799   58.5753   40.0939 C   0  0  0  0  0  0  0  0  0  0  0  0
   45.6660   57.9251   40.3208 C   0  0  0  0  0  0  0  0  0  0  0  0
   44.7830   56.0452   40.6267 H   0  0  0  0  0  0  0  0  0  0  0  0
 24 25  1  0  0  0
 24 29  2  0  0  0
 25 26  2  0  0  0
 26 27  1  0  0  0
 27 28  2  0  0  0
 27 22  1  0  0  0
 28 29  1  0  0  0
 22 21  1  0  0  0
 21 20  1  0  0  0
 20 19  1  0  0  0
 19  1  1  0  0  0
  1  2  2  0  0  0
  1  6  1  0  0  0
  2  3  1  0  0  0
  3  4  2  0  0  0
  3  8  1  0  0  0
  4  5  1  0  0  0
  5  6  2  0  0  0
  5  7  1  0  0  0
  8 10  1  0  0  0
 10 11  2  0  0  0
 10 12  2  0  0  0
 10 13  1  0  0  0
 13 14  2  0  0  0
 13 18  1  0  0  0
 14 15  1  0  0  0
 15 16  2  0  0  0
 16 17  1  0  0  0
 17 18  2  0  0  0
 24 30  1  0  0  0
 22 23  1  0  0  0
  8  9  1  0  0  0
M  CHG 1  24   1
M  END
> <minimizedAffinity>
-8.27366

$$$$
1UVT_I48_H_1


 30 32  0  0  0  0  0  0  0  0999 V2000
   52.0006   59.0282   46.0111 C   0  0  0  0  0  0  0  0  0  0  0  0
   51.3290   58.7423   44.7984 C   0  0  0  0  0  0  0  0  0  0  0  0
   51.6733   59.4360   43.6212 C   0  0  0  0  0  0  0  0  0  0  0  0
   52.5319   60.5551   43.6953 C   0  0  0  0  0  0  0  0  0  0  0  0
   53.1288   60.8972   44.9131 C   0  0  0  0  0  0  0  0  0  0  0  0
   52.7941   60.1969   46.0796 C   0  0  0  0  0  0  0  0  0  0  0  0
   53.8461   62.2162   45.0635 C   0  0  0  0  0  0  0  0  0  0  0  0
   50.9203   59.2296   42.4382 N   0  0  0  0  0  0  0  0  0  0  0  0
   49.9754   59.4921   42.3519 H   0  0  0  0  0  0  0  0  0  0  0  0
   51.7612   58.5156   41.2273 S   0  0  0  0  0  0  0  0  0  0  0  0
   52.7653   59.4679   40.8225 O   0  0  0  0  0  0  0  0  0  0  0  0
   50.9517   58.1578   40.0872 O   0  0  0  0  0  0  0  0  0  0  0  0
   52.5572   57.0569   41.7492 C   0  0  0  0  0  0  0  0  0  0  0  0
   51.7935   56.0368   42.3239 C   0  0  0  0  0  0  0  0  0  0  0  0
   52.4710   55.0274   43.0333 C   0  0  0  0  0  0  0  0  0  0  0  0
   53.8342   54.7893   42.7612 C   0  0  0  0  0  0  0  0  0  0  0  0
   54.5633   55.7197   41.9837 C   0  0  0  0  0  0  0  0  0  0  0  0
   53.9050   56.8438   41.4311 C   0  0  0  0  0  0  0  0  0  0  0  0
   52.0360   58.0934   47.0695 O   0  0  0  0  0  0  0  0  0  0  0  0
   50.8723   57.2680   47.2294 C   0  0  0  0  0  0  0  0  0  0  0  0
   49.8075   57.9780   48.0843 C   0  0  0  0  0  0  0  0  0  0  0  0
   50.3423   58.3907   49.3725 N   0  0  0  0  0  0  0  0  0  0  0  0
   50.6293   57.7216   50.0352 H   0  0  0  0  0  0  0  0  0  0  0  0
   50.5834   62.5472   50.2429 N   0  0  0  0  0  0  0  0  0  0  0  0
   51.6402   61.6877   50.6365 C   0  0  0  0  0  0  0  0  0  0  0  0
   51.5348   60.3159   50.3706 C   0  0  0  0  0  0  0  0  0  0  0  0
   50.4427   59.7918   49.6567 C   0  0  0  0  0  0  0  0  0  0  0  0
   49.3947   60.6379   49.2918 C   0  0  0  0  0  0  0  0  0  0  0  0
   49.4897   62.0136   49.5065 C   0  0  0  0  0  0  0  0  0  0  0  0
   50.6064   63.5032   50.4768 H   0  0  0  0  0  0  0  0  0  0  0  0
 24 25  1  0  0  0
 24 29  2  0  0  0
 25 26  2  0  0  0
 26 27  1  0  0  0
 27 28  2  0  0  0
 27 22  1  0  0  0
 28 29  1  0  0  0
 22 21  1  0  0  0
 21 20  1  0  0  0
 20 19  1  0  0  0
 19  1  1  0  0  0
  1  2  2  0  0  0
  1  6  1  0  0  0
  2  3  1  0  0  0
  3  4  2  0  0  0
  3  8  1  0  0  0
  4  5  1  0  0  0
  5  6  2  0  0  0
  5  7  1  0  0  0
  8 10  1  0  0  0
 10 11  2  0  0  0
 10 12  2  0  0  0
 10 13  1  0  0  0
 13 14  2  0  0  0
 13 18  1  0  0  0
 14 15  1  0  0  0
 15 16  2  0  0  0
 16 17  1  0  0  0
 17 18  2  0  0  0
 24 30  1  0  0  0
 22 23  1  0  0  0
  8  9  1  0  0  0
M  CHG 1  24   1
M  END
> <minimizedAffinity>
-8.01750

$$$$
1UVT_I48_H_1


 30 32  0  0  0  0  0  0  0  0999 V2000
   52.2918   56.0882   44.6224 C   0  0  0  0  0  0  0  0  0  0  0  0
   51.9457   56.0916   45.9948 C   0  0  0  0  0  0  0  0  0  0  0  0
   51.2577   57.1910   46.5458 C   0  0  0  0  0  0  0  0  0  0  0  0
   51.1027   58.3709   45.7850 C   0  0  0  0  0  0  0  0  0  0  0  0
   51.5259   58.4025   44.4522 C   0  0  0  0  0  0  0  0  0  0  0  0
   52.1983   57.3025   43.9035 C   0  0  0  0  0  0  0  0  0  0  0  0
   51.5911   59.7128   43.7068 C   0  0  0  0  0  0  0  0  0  0  0  0
   51.0168   57.2413   47.9417 N   0  0  0  0  0  0  0  0  0  0  0  0
   50.3415   56.6821   48.3893 H   0  0  0  0  0  0  0  0  0  0  0  0
   51.9613   58.3122   48.7442 S   0  0  0  0  0  0  0  0  0  0  0  0
   53.1062   58.5466   47.8996 O   0  0  0  0  0  0  0  0  0  0  0  0
   52.4052   57.8450   50.0356 O   0  0  0  0  0  0  0  0  0  0  0  0
   51.1515   59.8301   49.0161 C   0  0  0  0  0  0  0  0  0  0  0  0
   51.9083   61.0049   49.0517 C   0  0  0  0  0  0  0  0  0  0  0  0
   51.3093   62.1574   49.5940 C   0  0  0  0  0  0  0  0  0  0  0  0
   49.9025   62.2499   49.6339 C   0  0  0  0  0  0  0  0  0  0  0  0
   49.1202   61.0994   49.3767 C   0  0  0  0  0  0  0  0  0  0  0  0
   49.7515   59.8852   49.0168 C   0  0  0  0  0  0  0  0  0  0  0  0
   52.5488   54.8827   43.9324 O   0  0  0  0  0  0  0  0  0  0  0  0
   51.4271   54.0079   43.7391 C   0  0  0  0  0  0  0  0  0  0  0  0
   50.9724   54.0128   42.2687 C   0  0  0  0  0  0  0  0  0  0  0  0
   49.7649   54.8024   42.0838 N   0  0  0  0  0  0  0  0  0  0  0  0
   48.9405   54.5825   42.5750 H   0  0  0  0  0  0  0  0  0  0  0  0
   49.9073   58.0475   39.3377 N   0  0  0  0  0  0  0  0  0  0  0  0
   48.6518   57.5723   39.7946 C   0  0  0  0  0  0  0  0  0  0  0  0
   48.6176   56.4833   40.6756 C   0  0  0  0  0  0  0  0  0  0  0  0
   49.8004   55.9070   41.1715 C   0  0  0  0  0  0  0  0  0  0  0  0
   51.0326   56.3631   40.7013 C   0  0  0  0  0  0  0  0  0  0  0  0
   51.1001   57.4714   39.8558 C   0  0  0  0  0  0  0  0  0  0  0  0
   49.9529   58.7684   38.6688 H   0  0  0  0  0  0  0  0  0  0  0  0
 24 25  1  0  0  0
 24 29  2  0  0  0
 25 26  2  0  0  0
 26 27  1  0  0  0
 27 28  2  0  0  0
 27 22  1  0  0  0
 28 29  1  0  0  0
 22 21  1  0  0  0
 21 20  1  0  0  0
 20 19  1  0  0  0
 19  1  1  0  0  0
  1  2  2  0  0  0
  1  6  1  0  0  0
  2  3  1  0  0  0
  3  4  2  0  0  0
  3  8  1  0  0  0
  4  5  1  0  0  0
  5  6  2  0  0  0
  5  7  1  0  0  0
  8 10  1  0  0  0
 10 11  2  0  0  0
 10 12  2  0  0  0
 10 13  1  0  0  0
 13 14  2  0  0  0
 13 18  1  0  0  0
 14 15  1  0  0  0
 15 16  2  0  0  0
 16 17  1  0  0  0
 17 18  2  0  0  0
 24 30  1  0  0  0
 22 23  1  0  0  0
  8  9  1  0  0  0
M  CHG 1  24   1
M  END
> <minimizedAffinity>
-7.63474

$$$$
1UVT_I48_H_1


 30 32  0  0  0  0  0  0  0  0999 V2000
   50.0102   55.4828   41.2378 C   0  0  0  0  0  0  0  0  0  0  0  0
   51.1442   56.0689   40.6263 C   0  0  0  0  0  0  0  0  0  0  0  0
   51.0879   57.3993   40.1651 C   0  0  0  0  0  0  0  0  0  0  0  0
   49.8465   58.0715   40.1206 C   0  0  0  0  0  0  0  0  0  0  0  0
   48.7024   57.4594   40.6428 C   0  0  0  0  0  0  0  0  0  0  0  0
   48.7647   56.1409   41.1127 C   0  0  0  0  0  0  0  0  0  0  0  0
   47.3391   58.0534   40.3868 C   0  0  0  0  0  0  0  0  0  0  0  0
   52.1851   57.9423   39.4506 N   0  0  0  0  0  0  0  0  0  0  0  0
   52.2518   57.9141   38.4688 H   0  0  0  0  0  0  0  0  0  0  0  0
   53.3322   58.6209   40.4029 S   0  0  0  0  0  0  0  0  0  0  0  0
   52.7150   58.8220   41.6904 O   0  0  0  0  0  0  0  0  0  0  0  0
   53.8306   59.8814   39.9073 O   0  0  0  0  0  0  0  0  0  0  0  0
   54.7170   57.5842   40.6064 C   0  0  0  0  0  0  0  0  0  0  0  0
   54.5611   56.3705   41.2822 C   0  0  0  0  0  0  0  0  0  0  0  0
   55.7223   55.7113   41.7275 C   0  0  0  0  0  0  0  0  0  0  0  0
   56.9567   55.9935   41.1066 C   0  0  0  0  0  0  0  0  0  0  0  0
   57.0625   57.1049   40.2374 C   0  0  0  0  0  0  0  0  0  0  0  0
   55.9164   57.8823   39.9465 C   0  0  0  0  0  0  0  0  0  0  0  0
   50.1333   54.3731   42.1031 O   0  0  0  0  0  0  0  0  0  0  0  0
   51.4086   53.7140   42.1161 C   0  0  0  0  0  0  0  0  0  0  0  0
   51.8983   53.4917   43.5582 C   0  0  0  0  0  0  0  0  0  0  0  0
   53.0498   54.3248   43.8675 N   0  0  0  0  0  0  0  0  0  0  0  0
   53.9378   54.1113   43.5001 H   0  0  0  0  0  0  0  0  0  0  0  0
   52.5611   57.7030   46.4055 N   0  0  0  0  0  0  0  0  0  0  0  0
   52.0576   57.7448   45.0806 C   0  0  0  0  0  0  0  0  0  0  0  0
   52.2517   56.6368   44.2451 C   0  0  0  0  0  0  0  0  0  0  0  0
   52.8643   55.4630   44.7183 C   0  0  0  0  0  0  0  0  0  0  0  0
   53.3784   55.4352   46.0154 C   0  0  0  0  0  0  0  0  0  0  0  0
   53.1648   56.5071   46.8834 C   0  0  0  0  0  0  0  0  0  0  0  0
   52.4936   58.4935   46.9885 H   0  0  0  0  0  0  0  0  0  0  0  0
 24 25  1  0  0  0
 24 29  2  0  0  0
 25 26  2  0  0  0
 26 27  1  0  0  0
 27 28  2  0  0  0
 27 22  1  0  0  0
 28 29  1  0  0  0
 22 21  1  0  0  0
 21 20  1  0  0  0
 20 19  1  0  0  0
 19  1  1  0  0  0
  1  2  2  0  0  0
  1  6  1  0  0  0
  2  3  1  0  0  0
  3  4  2  0  0  0
  3  8  1  0  0  0
  4  5  1  0  0  0
  5  6  2  0  0  0
  5  7  1  0  0  0
  8 10  1  0  0  0
 10 11  2  0  0  0
 10 12  2  0  0  0
 10 13  1  0  0  0
 13 14  2  0  0  0
 13 18  1  0  0  0
 14 15  1  0  0  0
 15 16  2  0  0  0
 16 17  1  0  0  0
 17 18  2  0  0  0
 24 30  1  0  0  0
 22 23  1  0  0  0
  8  9  1  0  0  0
M  CHG 1  24   1
M  END
> <minimizedAffinity>
-7.56764

$$$$
1UVT_I48_H_1


 30 32  0  0  0  0  0  0  0  0999 V2000
   51.6181   59.2674   44.8287 C   0  0  0  0  0  0  0  0  0  0  0  0
   51.5199   59.0633   46.2259 C   0  0  0  0  0  0  0  0  0  0  0  0
   52.0975   59.9903   47.1162 C   0  0  0  0  0  0  0  0  0  0  0  0
   52.9494   61.0007   46.6176 C   0  0  0  0  0  0  0  0  0  0  0  0
   53.1214   61.1501   45.2376 C   0  0  0  0  0  0  0  0  0  0  0  0
   52.5349   60.2341   44.3543 C   0  0  0  0  0  0  0  0  0  0  0  0
   54.2034   62.0542   44.7005 C   0  0  0  0  0  0  0  0  0  0  0  0
   52.0975   59.7218   48.5079 N   0  0  0  0  0  0  0  0  0  0  0  0
   51.4841   60.1633   49.1388 H   0  0  0  0  0  0  0  0  0  0  0  0
   53.2085   58.6120   48.9740 S   0  0  0  0  0  0  0  0  0  0  0  0
   53.1944   58.6135   50.4158 O   0  0  0  0  0  0  0  0  0  0  0  0
   54.5448   58.8927   48.5067 O   0  0  0  0  0  0  0  0  0  0  0  0
   52.8131   57.0100   48.4162 C   0  0  0  0  0  0  0  0  0  0  0  0
   53.7294   56.3278   47.6106 C   0  0  0  0  0  0  0  0  0  0  0  0
   53.2720   55.2000   46.9035 C   0  0  0  0  0  0  0  0  0  0  0  0
   52.1238   54.5192   47.3588 C   0  0  0  0  0  0  0  0  0  0  0  0
   51.3055   55.1153   48.3471 C   0  0  0  0  0  0  0  0  0  0  0  0
   51.6804   56.3550   48.9172 C   0  0  0  0  0  0  0  0  0  0  0  0
   50.7075   58.6651   43.9324 O   0  0  0  0  0  0  0  0  0  0  0  0
   51.2285   58.2983   42.6459 C   0  0  0  0  0  0  0  0  0  0  0  0
   50.3040   58.7895   41.5176 C   0  0  0  0  0  0  0  0  0  0  0  0
   49.9753   57.7186   40.5898 N   0  0  0  0  0  0  0  0  0  0  0  0
   50.6777   57.2854   40.0529 H   0  0  0  0  0  0  0  0  0  0  0  0
   45.9134   56.5224   40.1869 N   0  0  0  0  0  0  0  0  0  0  0  0
   46.8883   55.5686   40.5747 C   0  0  0  0  0  0  0  0  0  0  0  0
   48.2276   55.9684   40.6744 C   0  0  0  0  0  0  0  0  0  0  0  0
   48.6074   57.3072   40.4736 C   0  0  0  0  0  0  0  0  0  0  0  0
   47.6482   58.2370   40.0699 C   0  0  0  0  0  0  0  0  0  0  0  0
   46.3012   57.8783   40.0015 C   0  0  0  0  0  0  0  0  0  0  0  0
   44.9779   56.2491   40.0475 H   0  0  0  0  0  0  0  0  0  0  0  0
 24 25  1  0  0  0
 24 29  2  0  0  0
 25 26  2  0  0  0
 26 27  1  0  0  0
 27 28  2  0  0  0
 27 22  1  0  0  0
 28 29  1  0  0  0
 22 21  1  0  0  0
 21 20  1  0  0  0
 20 19  1  0  0  0
 19  1  1  0  0  0
  1  2  2  0  0  0
  1  6  1  0  0  0
  2  3  1  0  0  0
  3  4  2  0  0  0
  3  8  1  0  0  0
  4  5  1  0  0  0
  5  6  2  0  0  0
  5  7  1  0  0  0
  8 10  1  0  0  0
 10 11  2  0  0  0
 10 12  2  0  0  0
 10 13  1  0  0  0
 13 14  2  0  0  0
 13 18  1  0  0  0
 14 15  1  0  0  0
 15 16  2  0  0  0
 16 17  1  0  0  0
 17 18  2  0  0  0
 24 30  1  0  0  0
 22 23  1  0  0  0
  8  9  1  0  0  0
M  CHG 1  24   1
M  END
> <minimizedAffinity>
-7.55806

$$$$
1UVT_I48_H_1


 30 32  0  0  0  0  0  0  0  0999 V2000
   52.0492   58.9597   45.8193 C   0  0  0  0  0  0  0  0  0  0  0  0
   51.2641   58.8283   44.6489 C   0  0  0  0  0  0  0  0  0  0  0  0
   51.5290   59.6393   43.5275 C   0  0  0  0  0  0  0  0  0  0  0  0
   52.4308   60.7202   43.6441 C   0  0  0  0  0  0  0  0  0  0  0  0
   53.1440   60.9088   44.8323 C   0  0  0  0  0  0  0  0  0  0  0  0
   52.8875   60.0922   45.9416 C   0  0  0  0  0  0  0  0  0  0  0  0
   53.9190   62.1835   45.0590 C   0  0  0  0  0  0  0  0  0  0  0  0
   50.6684   59.5857   42.4025 N   0  0  0  0  0  0  0  0  0  0  0  0
   49.9872   60.2716   42.2159 H   0  0  0  0  0  0  0  0  0  0  0  0
   50.9073   58.2818   41.4403 S   0  0  0  0  0  0  0  0  0  0  0  0
   51.5071   57.2722   42.2770 O   0  0  0  0  0  0  0  0  0  0  0  0
   51.7663   58.5408   40.3098 O   0  0  0  0  0  0  0  0  0  0  0  0
   49.4146   57.6555   40.7973 C   0  0  0  0  0  0  0  0  0  0  0  0
   48.7917   58.3350   39.7464 C   0  0  0  0  0  0  0  0  0  0  0  0
   47.4487   58.0220   39.4646 C   0  0  0  0  0  0  0  0  0  0  0  0
   46.9301   56.7762   39.8748 C   0  0  0  0  0  0  0  0  0  0  0  0
   47.6696   55.9756   40.7769 C   0  0  0  0  0  0  0  0  0  0  0  0
   48.9496   56.3989   41.2069 C   0  0  0  0  0  0  0  0  0  0  0  0
   52.1432   57.9124   46.7625 O   0  0  0  0  0  0  0  0  0  0  0  0
   51.2659   56.7940   46.5618 C   0  0  0  0  0  0  0  0  0  0  0  0
   52.0084   55.6262   45.8880 C   0  0  0  0  0  0  0  0  0  0  0  0
   51.3589   55.2206   44.6513 N   0  0  0  0  0  0  0  0  0  0  0  0
   50.6224   55.7528   44.2723 H   0  0  0  0  0  0  0  0  0  0  0  0
   52.6980   51.6539   42.7599 N   0  0  0  0  0  0  0  0  0  0  0  0
   51.6918   52.4383   42.1412 C   0  0  0  0  0  0  0  0  0  0  0  0
   51.2380   53.5949   42.7892 C   0  0  0  0  0  0  0  0  0  0  0  0
   51.8135   54.0298   43.9962 C   0  0  0  0  0  0  0  0  0  0  0  0
   52.7871   53.2424   44.6123 C   0  0  0  0  0  0  0  0  0  0  0  0
   53.2877   52.1079   43.9720 C   0  0  0  0  0  0  0  0  0  0  0  0
   52.9854   50.8039   42.3547 H   0  0  0  0  0  0  0  0  0  0  0  0
 24 25  1  0  0  0
 24 29  2  0  0  0
 25 26  2  0  0  0
 26 27  1  0  0  0
 27 28  2  0  0  0
 27 22  1  0  0  0
 28 29  1  0  0  0
 22 21  1  0  0  0
 21 20  1  0  0  0
 20 19  1  0  0  0
 19  1  1  0  0  0
  1  2  2  0  0  0
  1  6  1  0  0  0
  2  3  1  0  0  0
  3  4  2  0  0  0
  3  8  1  0  0  0
  4  5  1  0  0  0
  5  6  2  0  0  0
  5  7  1  0  0  0
  8 10  1  0  0  0
 10 11  2  0  0  0
 10 12  2  0  0  0
 10 13  1  0  0  0
 13 14  2  0  0  0
 13 18  1  0  0  0
 14 15  1  0  0  0
 15 16  2  0  0  0
 16 17  1  0  0  0
 17 18  2  0  0  0
 24 30  1  0  0  0
 22 23  1  0  0  0
  8  9  1  0  0  0
M  CHG 1  24   1
M  END
> <minimizedAffinity>
-7.49317

$$$$
1UVT_I48_H_1


 30 32  0  0  0  0  0  0  0  0999 V2000
   52.1759   55.3367   44.7848 C   0  0  0  0  0  0  0  0  0  0  0  0
   52.4837   56.6437   45.2326 C   0  0  0  0  0  0  0  0  0  0  0  0
   52.4998   56.9309   46.6120 C   0  0  0  0  0  0  0  0  0  0  0  0
   52.0054   55.9779   47.5300 C   0  0  0  0  0  0  0  0  0  0  0  0
   51.6140   54.7129   47.0797 C   0  0  0  0  0  0  0  0  0  0  0  0
   51.6117   54.4262   45.7082 C   0  0  0  0  0  0  0  0  0  0  0  0
   50.8640   53.7786   47.9969 C   0  0  0  0  0  0  0  0  0  0  0  0
   52.6936   58.2649   47.0499 N   0  0  0  0  0  0  0  0  0  0  0  0
   53.4799   58.5494   47.5695 H   0  0  0  0  0  0  0  0  0  0  0  0
   51.4937   59.2916   46.6149 S   0  0  0  0  0  0  0  0  0  0  0  0
   50.3447   58.4671   46.3336 O   0  0  0  0  0  0  0  0  0  0  0  0
   51.8041   60.0939   45.4560 O   0  0  0  0  0  0  0  0  0  0  0  0
   51.0815   60.4018   47.8922 C   0  0  0  0  0  0  0  0  0  0  0  0
   49.8389   60.2799   48.5209 C   0  0  0  0  0  0  0  0  0  0  0  0
   49.3865   61.3616   49.2996 C   0  0  0  0  0  0  0  0  0  0  0  0
   50.3239   62.2821   49.8125 C   0  0  0  0  0  0  0  0  0  0  0  0
   51.6551   62.2621   49.3335 C   0  0  0  0  0  0  0  0  0  0  0  0
   52.0510   61.2789   48.3960 C   0  0  0  0  0  0  0  0  0  0  0  0
   52.5811   54.8823   43.5102 O   0  0  0  0  0  0  0  0  0  0  0  0
   51.7943   53.8316   42.9288 C   0  0  0  0  0  0  0  0  0  0  0  0
   50.9384   54.3645   41.7658 C   0  0  0  0  0  0  0  0  0  0  0  0
   49.9741   55.3543   42.2198 N   0  0  0  0  0  0  0  0  0  0  0  0
   49.3427   55.1449   42.9456 H   0  0  0  0  0  0  0  0  0  0  0  0
   49.8766   59.1693   40.3413 N   0  0  0  0  0  0  0  0  0  0  0  0
   50.5634   59.0129   41.5719 C   0  0  0  0  0  0  0  0  0  0  0  0
   50.5624   57.7580   42.1955 C   0  0  0  0  0  0  0  0  0  0  0  0
   49.9624   56.6407   41.5884 C   0  0  0  0  0  0  0  0  0  0  0  0
   49.2683   56.8048   40.3889 C   0  0  0  0  0  0  0  0  0  0  0  0
   49.2861   58.0319   39.7242 C   0  0  0  0  0  0  0  0  0  0  0  0
   49.8091   60.0558   39.9185 H   0  0  0  0  0  0  0  0  0  0  0  0
 24 25  1  0  0  0
 24 29  2  0  0  0
 25 26  2  0  0  0
 26 27  1  0  0  0
 27 28  2  0  0  0
 27 22  1  0  0  0
 28 29  1  0  0  0
 22 21  1  0  0  0
 21 20  1  0  0  0
 20 19  1  0  0  0
 19  1  1  0  0  0
  1  2  2  0  0  0
  1  6  1  0  0  0
  2  3  1  0  0  0
  3  4  2  0  0  0
  3  8  1  0  0  0
  4  5  1  0  0  0
  5  6  2  0  0  0
  5  7  1  0  0  0
  8 10  1  0  0  0
 10 11  2  0  0  0
 10 12  2  0  0  0
 10 13  1  0  0  0
 13 14  2  0  0  0
 13 18  1  0  0  0
 14 15  1  0  0  0
 15 16  2  0  0  0
 16 17  1  0  0  0
 17 18  2  0  0  0
 24 30  1  0  0  0
 22 23  1  0  0  0
  8  9  1  0  0  0
M  CHG 1  24   1
M  END
> <minimizedAffinity>
-7.30899

$$$$
