1LHU_EST_A_301


 22 25  0  0  0  0  0  0  0  0999 V2000
   21.0676    8.5140   33.4364 C   0  0  0  0  0  0  0  0  0  0  0  0
   19.7953    7.9896   33.4702 C   0  0  0  0  0  0  0  0  0  0  0  0
   18.6814    8.8412   33.5520 C   0  0  0  0  0  0  0  0  0  0  0  0
   17.4386    8.2793   33.5783 O   0  0  0  0  0  0  0  0  0  0  0  0
   18.8948   10.2450   33.5965 C   0  0  0  0  0  0  0  0  0  0  0  0
   20.1851   10.7893   33.5609 C   0  0  0  0  0  0  0  0  0  0  0  0
   20.3414   12.3223   33.6098 C   0  0  0  0  0  0  0  0  0  0  0  0
   21.8046   12.8378   33.6710 C   0  0  0  0  0  0  0  0  0  0  0  0
   22.7776   11.9727   32.8594 C   0  0  0  0  0  0  0  0  0  0  0  0
   22.7652   10.4792   33.4304 C   0  0  0  0  0  0  0  0  0  0  0  0
   21.3284    9.9107   33.4748 C   0  0  0  0  0  0  0  0  0  0  0  0
   23.7480    9.5769   32.6353 C   0  0  0  0  0  0  0  0  0  0  0  0
   25.1650   10.1698   32.5733 C   0  0  0  0  0  0  0  0  0  0  0  0
   25.1800   11.6101   31.9911 C   0  0  0  0  0  0  0  0  0  0  0  0
   24.2433   12.4894   32.8682 C   0  0  0  0  0  0  0  0  0  0  0  0
   24.5249   13.9264   32.3770 C   0  0  0  0  0  0  0  0  0  0  0  0
   26.0261   13.8650   31.9453 C   0  0  0  0  0  0  0  0  0  0  0  0
   26.4634   12.4089   32.1705 C   0  0  0  0  0  0  0  0  0  0  0  0
   27.4779   12.0772   31.2010 O   0  0  0  0  0  0  0  0  0  0  0  0
   24.7636   11.5397   30.4887 C   0  0  0  0  0  0  0  0  0  0  0  0
   17.3449    7.3476   33.5469 H   0  0  0  0  0  0  0  0  0  0  0  0
   27.1361   12.2381   30.3075 H   0  0  0  0  0  0  0  0  0  0  0  0
  1  2  2  0  0  0
  1 11  1  0  0  0
  2  3  1  0  0  0
  3  4  1  0  0  0
  3  5  2  0  0  0
  5  6  1  0  0  0
  6  7  1  0  0  0
  6 11  2  0  0  0
  7  8  1  0  0  0
  8  9  1  0  0  0
  9 10  1  0  0  0
  9 15  1  0  0  0
 10 11  1  0  0  0
 10 12  1  0  0  0
 12 13  1  0  0  0
 13 14  1  0  0  0
 14 15  1  0  0  0
 14 18  1  0  0  0
 14 20  1  0  0  0
 15 16  1  0  0  0
 16 17  1  0  0  0
 17 18  1  0  0  0
 18 19  1  0  0  0
  4 21  1  0  0  0
 19 22  1  0  0  0
M  END
> <minimizedAffinity>
-12.30333

$$$$
1LHU_EST_A_301


 22 25  0  0  0  0  0  0  0  0999 V2000
   23.2370   13.5224   33.0652 C   0  0  0  0  0  0  0  0  0  0  0  0
   24.2598   14.3066   32.5816 C   0  0  0  0  0  0  0  0  0  0  0  0
   25.4749   13.7213   32.1899 C   0  0  0  0  0  0  0  0  0  0  0  0
   26.4601   14.5349   31.7120 O   0  0  0  0  0  0  0  0  0  0  0  0
   25.6236   12.3128   32.3010 C   0  0  0  0  0  0  0  0  0  0  0  0
   24.5886   11.5053   32.7901 C   0  0  0  0  0  0  0  0  0  0  0  0
   24.8190    9.9836   32.8802 C   0  0  0  0  0  0  0  0  0  0  0  0
   23.6630    9.1754   33.5287 C   0  0  0  0  0  0  0  0  0  0  0  0
   22.2769    9.7434   33.1970 C   0  0  0  0  0  0  0  0  0  0  0  0
   22.1764   11.2473   33.7309 C   0  0  0  0  0  0  0  0  0  0  0  0
   23.3394   12.1103   33.1901 C   0  0  0  0  0  0  0  0  0  0  0  0
   20.7799   11.8509   33.4186 C   0  0  0  0  0  0  0  0  0  0  0  0
   19.6330   10.9670   33.9349 C   0  0  0  0  0  0  0  0  0  0  0  0
   19.7146    9.5134   33.3926 C   0  0  0  0  0  0  0  0  0  0  0  0
   21.0978    8.9292   33.7988 C   0  0  0  0  0  0  0  0  0  0  0  0
   20.9786    7.4296   33.4486 C   0  0  0  0  0  0  0  0  0  0  0  0
   19.4596    7.1342   33.6700 C   0  0  0  0  0  0  0  0  0  0  0  0
   18.8300    8.4774   34.0720 C   0  0  0  0  0  0  0  0  0  0  0  0
   17.4654    8.5043   33.6067 O   0  0  0  0  0  0  0  0  0  0  0  0
   19.4654    9.5465   31.8524 C   0  0  0  0  0  0  0  0  0  0  0  0
   26.3182   15.4595   31.6562 H   0  0  0  0  0  0  0  0  0  0  0  0
   17.4469    8.3466   32.6498 H   0  0  0  0  0  0  0  0  0  0  0  0
  1  2  2  0  0  0
  1 11  1  0  0  0
  2  3  1  0  0  0
  3  4  1  0  0  0
  3  5  2  0  0  0
  5  6  1  0  0  0
  6  7  1  0  0  0
  6 11  2  0  0  0
  7  8  1  0  0  0
  8  9  1  0  0  0
  9 10  1  0  0  0
  9 15  1  0  0  0
 10 11  1  0  0  0
 10 12  1  0  0  0
 12 13  1  0  0  0
 13 14  1  0  0  0
 14 15  1  0  0  0
 14 18  1  0  0  0
 14 20  1  0  0  0
 15 16  1  0  0  0
 16 17  1  0  0  0
 17 18  1  0  0  0
 18 19  1  0  0  0
  4 21  1  0  0  0
 19 22  1  0  0  0
M  END
> <minimizedAffinity>
-10.77988

$$$$
1LHU_EST_A_301


 22 25  0  0  0  0  0  0  0  0999 V2000
   24.2666   12.8541   31.5560 C   0  0  0  0  0  0  0  0  0  0  0  0
   25.2646   13.1216   30.6464 C   0  0  0  0  0  0  0  0  0  0  0  0
   26.0671   12.0809   30.1509 C   0  0  0  0  0  0  0  0  0  0  0  0
   27.0415   12.3898   29.2475 O   0  0  0  0  0  0  0  0  0  0  0  0
   25.8267   10.7560   30.6038 C   0  0  0  0  0  0  0  0  0  0  0  0
   24.8127   10.4725   31.5278 C   0  0  0  0  0  0  0  0  0  0  0  0
   24.6065    9.0108   31.9725 C   0  0  0  0  0  0  0  0  0  0  0  0
   23.5335    8.7982   33.0742 C   0  0  0  0  0  0  0  0  0  0  0  0
   22.3424    9.7561   32.9414 C   0  0  0  0  0  0  0  0  0  0  0  0
   22.8585   11.2655   33.0517 C   0  0  0  0  0  0  0  0  0  0  0  0
   23.9879   11.5449   32.0339 C   0  0  0  0  0  0  0  0  0  0  0  0
   21.6744   12.2632   32.9299 C   0  0  0  0  0  0  0  0  0  0  0  0
   20.5457   11.9545   33.9269 C   0  0  0  0  0  0  0  0  0  0  0  0
   20.0246   10.4965   33.7994 C   0  0  0  0  0  0  0  0  0  0  0  0
   21.2320    9.5379   34.0067 C   0  0  0  0  0  0  0  0  0  0  0  0
   20.5771    8.1436   34.1188 C   0  0  0  0  0  0  0  0  0  0  0  0
   19.1902    8.4554   34.7691 C   0  0  0  0  0  0  0  0  0  0  0  0
   19.1401    9.9834   34.9272 C   0  0  0  0  0  0  0  0  0  0  0  0
   17.7686   10.4137   34.8127 O   0  0  0  0  0  0  0  0  0  0  0  0
   19.3208   10.3431   32.4149 C   0  0  0  0  0  0  0  0  0  0  0  0
   27.1647   13.2783   28.9768 H   0  0  0  0  0  0  0  0  0  0  0  0
   17.4026   10.1063   33.9686 H   0  0  0  0  0  0  0  0  0  0  0  0
  1  2  2  0  0  0
  1 11  1  0  0  0
  2  3  1  0  0  0
  3  4  1  0  0  0
  3  5  2  0  0  0
  5  6  1  0  0  0
  6  7  1  0  0  0
  6 11  2  0  0  0
  7  8  1  0  0  0
  8  9  1  0  0  0
  9 10  1  0  0  0
  9 15  1  0  0  0
 10 11  1  0  0  0
 10 12  1  0  0  0
 12 13  1  0  0  0
 13 14  1  0  0  0
 14 15  1  0  0  0
 14 18  1  0  0  0
 14 20  1  0  0  0
 15 16  1  0  0  0
 16 17  1  0  0  0
 17 18  1  0  0  0
 18 19  1  0  0  0
  4 21  1  0  0  0
 19 22  1  0  0  0
M  END
> <minimizedAffinity>
-9.80284

$$$$
1LHU_EST_A_301


 22 25  0  0  0  0  0  0  0  0999 V2000
   24.5434   10.6051   30.9909 C   0  0  0  0  0  0  0  0  0  0  0  0
   25.8817   10.9005   30.8629 C   0  0  0  0  0  0  0  0  0  0  0  0
   26.4396   11.9758   31.5736 C   0  0  0  0  0  0  0  0  0  0  0  0
   27.7711   12.2304   31.4209 O   0  0  0  0  0  0  0  0  0  0  0  0
   25.5993   12.7448   32.4225 C   0  0  0  0  0  0  0  0  0  0  0  0
   24.2365   12.4518   32.5615 C   0  0  0  0  0  0  0  0  0  0  0  0
   23.3854   13.3270   33.5029 C   0  0  0  0  0  0  0  0  0  0  0  0
   21.8676   13.0007   33.5196 C   0  0  0  0  0  0  0  0  0  0  0  0
   21.5763   11.5029   33.3595 C   0  0  0  0  0  0  0  0  0  0  0  0
   22.1671   10.9920   31.9643 C   0  0  0  0  0  0  0  0  0  0  0  0
   23.6664   11.3439   31.8307 C   0  0  0  0  0  0  0  0  0  0  0  0
   21.8814    9.4784   31.7659 C   0  0  0  0  0  0  0  0  0  0  0  0
   20.3914    9.1386   31.9320 C   0  0  0  0  0  0  0  0  0  0  0  0
   19.8250    9.6092   33.3000 C   0  0  0  0  0  0  0  0  0  0  0  0
   20.0657   11.1418   33.4147 C   0  0  0  0  0  0  0  0  0  0  0  0
   19.2525   11.5473   34.6636 C   0  0  0  0  0  0  0  0  0  0  0  0
   18.0611   10.5354   34.6540 C   0  0  0  0  0  0  0  0  0  0  0  0
   18.3102    9.6125   33.4504 C   0  0  0  0  0  0  0  0  0  0  0  0
   17.7671    8.3103   33.7481 O   0  0  0  0  0  0  0  0  0  0  0  0
   20.5032    8.7724   34.4293 C   0  0  0  0  0  0  0  0  0  0  0  0
   28.2877   11.6967   30.8497 H   0  0  0  0  0  0  0  0  0  0  0  0
   18.1586    7.9771   34.5707 H   0  0  0  0  0  0  0  0  0  0  0  0
  1  2  2  0  0  0
  1 11  1  0  0  0
  2  3  1  0  0  0
  3  4  1  0  0  0
  3  5  2  0  0  0
  5  6  1  0  0  0
  6  7  1  0  0  0
  6 11  2  0  0  0
  7  8  1  0  0  0
  8  9  1  0  0  0
  9 10  1  0  0  0
  9 15  1  0  0  0
 10 11  1  0  0  0
 10 12  1  0  0  0
 12 13  1  0  0  0
 13 14  1  0  0  0
 14 15  1  0  0  0
 14 18  1  0  0  0
 14 20  1  0  0  0
 15 16  1  0  0  0
 16 17  1  0  0  0
 17 18  1  0  0  0
 18 19  1  0  0  0
  4 21  1  0  0  0
 19 22  1  0  0  0
M  END
> <minimizedAffinity>
-9.68354

$$$$
1LHU_EST_A_301


 22 25  0  0  0  0  0  0  0  0999 V2000
   24.2492   11.8054   31.2431 C   0  0  0  0  0  0  0  0  0  0  0  0
   25.3793   12.5892   31.1853 C   0  0  0  0  0  0  0  0  0  0  0  0
   25.4763   13.7491   31.9713 C   0  0  0  0  0  0  0  0  0  0  0  0
   26.6159   14.4942   31.8866 O   0  0  0  0  0  0  0  0  0  0  0  0
   24.3917   14.0919   32.8225 C   0  0  0  0  0  0  0  0  0  0  0  0
   23.2379   13.3004   32.8904 C   0  0  0  0  0  0  0  0  0  0  0  0
   22.1014   13.7316   33.8387 C   0  0  0  0  0  0  0  0  0  0  0  0
   20.8190   12.8587   33.7764 C   0  0  0  0  0  0  0  0  0  0  0  0
   21.1177   11.3742   33.5295 C   0  0  0  0  0  0  0  0  0  0  0  0
   21.8844   11.2101   32.1359 C   0  0  0  0  0  0  0  0  0  0  0  0
   23.1422   12.1071   32.0821 C   0  0  0  0  0  0  0  0  0  0  0  0
   22.1950    9.7155   31.8503 C   0  0  0  0  0  0  0  0  0  0  0  0
   20.9405    8.8313   31.9377 C   0  0  0  0  0  0  0  0  0  0  0  0
   20.2122    8.9689   33.3031 C   0  0  0  0  0  0  0  0  0  0  0  0
   19.8544   10.4694   33.5043 C   0  0  0  0  0  0  0  0  0  0  0  0
   18.9244   10.4614   34.7374 C   0  0  0  0  0  0  0  0  0  0  0  0
   18.2035    9.0788   34.6280 C   0  0  0  0  0  0  0  0  0  0  0  0
   18.8055    8.3936   33.3910 C   0  0  0  0  0  0  0  0  0  0  0  0
   18.7885    6.9670   33.6004 O   0  0  0  0  0  0  0  0  0  0  0  0
   21.1342    8.3799   34.4159 C   0  0  0  0  0  0  0  0  0  0  0  0
   27.3065   14.2301   31.3111 H   0  0  0  0  0  0  0  0  0  0  0  0
   19.2609    6.7549   34.4206 H   0  0  0  0  0  0  0  0  0  0  0  0
  1  2  2  0  0  0
  1 11  1  0  0  0
  2  3  1  0  0  0
  3  4  1  0  0  0
  3  5  2  0  0  0
  5  6  1  0  0  0
  6  7  1  0  0  0
  6 11  2  0  0  0
  7  8  1  0  0  0
  8  9  1  0  0  0
  9 10  1  0  0  0
  9 15  1  0  0  0
 10 11  1  0  0  0
 10 12  1  0  0  0
 12 13  1  0  0  0
 13 14  1  0  0  0
 14 15  1  0  0  0
 14 18  1  0  0  0
 14 20  1  0  0  0
 15 16  1  0  0  0
 16 17  1  0  0  0
 17 18  1  0  0  0
 18 19  1  0  0  0
  4 21  1  0  0  0
 19 22  1  0  0  0
M  END
> <minimizedAffinity>
-9.55492

$$$$
1LHU_EST_A_301


 22 25  0  0  0  0  0  0  0  0999 V2000
   19.3342   11.3000   34.2110 C   0  0  0  0  0  0  0  0  0  0  0  0
   18.3029   10.9180   35.0387 C   0  0  0  0  0  0  0  0  0  0  0  0
   18.1246    9.5643   35.3677 C   0  0  0  0  0  0  0  0  0  0  0  0
   17.0926    9.2304   36.1950 O   0  0  0  0  0  0  0  0  0  0  0  0
   19.0264    8.6054   34.8332 C   0  0  0  0  0  0  0  0  0  0  0  0
   20.0803    8.9835   33.9913 C   0  0  0  0  0  0  0  0  0  0  0  0
   21.0221    7.8894   33.4505 C   0  0  0  0  0  0  0  0  0  0  0  0
   22.0979    8.3790   32.4438 C   0  0  0  0  0  0  0  0  0  0  0  0
   22.6262    9.7823   32.7689 C   0  0  0  0  0  0  0  0  0  0  0  0
   21.4168   10.8277   32.7332 C   0  0  0  0  0  0  0  0  0  0  0  0
   20.2620   10.3768   33.6567 C   0  0  0  0  0  0  0  0  0  0  0  0
   21.9191   12.2627   33.0500 C   0  0  0  0  0  0  0  0  0  0  0  0
   23.0874   12.6857   32.1447 C   0  0  0  0  0  0  0  0  0  0  0  0
   24.2742   11.6848   32.2022 C   0  0  0  0  0  0  0  0  0  0  0  0
   23.7353   10.2816   31.8015 C   0  0  0  0  0  0  0  0  0  0  0  0
   25.0144    9.4312   31.6394 C   0  0  0  0  0  0  0  0  0  0  0  0
   26.0732   10.4736   31.1538 C   0  0  0  0  0  0  0  0  0  0  0  0
   25.3425   11.8255   31.1269 C   0  0  0  0  0  0  0  0  0  0  0  0
   26.2959   12.8702   31.4080 O   0  0  0  0  0  0  0  0  0  0  0  0
   24.8995   11.7420   33.6309 C   0  0  0  0  0  0  0  0  0  0  0  0
   16.5218    9.8965   36.5244 H   0  0  0  0  0  0  0  0  0  0  0  0
   26.7322   12.6902   32.2555 H   0  0  0  0  0  0  0  0  0  0  0  0
  1  2  2  0  0  0
  1 11  1  0  0  0
  2  3  1  0  0  0
  3  4  1  0  0  0
  3  5  2  0  0  0
  5  6  1  0  0  0
  6  7  1  0  0  0
  6 11  2  0  0  0
  7  8  1  0  0  0
  8  9  1  0  0  0
  9 10  1  0  0  0
  9 15  1  0  0  0
 10 11  1  0  0  0
 10 12  1  0  0  0
 12 13  1  0  0  0
 13 14  1  0  0  0
 14 15  1  0  0  0
 14 18  1  0  0  0
 14 20  1  0  0  0
 15 16  1  0  0  0
 16 17  1  0  0  0
 17 18  1  0  0  0
 18 19  1  0  0  0
  4 21  1  0  0  0
 19 22  1  0  0  0
M  END
> <minimizedAffinity>
-9.40851

$$$$
