4RFC_3O1_A_302


 26 26  0  0  0  0  0  0  0  0999 V2000
   17.7089    6.8149   13.3720 C   0  0  0  0  0  0  0  0  0  0  0  0
   16.9935    6.4829   12.1012 C   0  0  0  0  0  0  0  0  0  0  0  0
   17.2933    5.1920   11.4198 C   0  0  0  0  0  0  0  0  0  0  0  0
   18.6717    4.6185   11.4781 C   0  0  0  0  0  0  0  0  0  0  0  0
   18.9700    2.3101   11.1058 C   0  0  0  0  0  0  0  0  0  0  0  0
   19.5612    2.6200    9.9035 O   0  0  0  0  0  0  0  0  0  0  0  0
   18.8598    3.3408   12.0981 N   0  0  0  0  0  0  0  0  0  0  0  0
   18.9070    3.1907   13.0699 H   0  0  0  0  0  0  0  0  0  0  0  0
   18.9418    1.1354   11.4608 O   0  0  0  0  0  0  0  0  0  0  0  0
   16.7749    0.8871   10.5422 C   0  0  0  0  0  0  0  0  0  0  0  0
   17.7501    0.4468   11.5843 C   0  0  0  0  0  0  0  0  0  0  0  0
   18.0049   -1.0177   11.4277 C   0  0  0  0  0  0  0  0  0  0  0  0
   17.1673    0.6993   12.9371 C   0  0  0  0  0  0  0  0  0  0  0  0
   16.9937    6.8122   14.5457 O   0  0  0  0  0  0  0  0  0  0  0  0
   16.6091    5.6255   15.1245 C   0  0  0  0  0  0  0  0  0  0  0  0
   15.3004    5.4419   15.5500 C   0  0  0  0  0  0  0  0  0  0  0  0
   14.9083    4.2507   16.1344 C   0  0  0  0  0  0  0  0  0  0  0  0
   15.8225    3.2195   16.3049 C   0  0  0  0  0  0  0  0  0  0  0  0
   17.1314    3.4008   15.8821 C   0  0  0  0  0  0  0  0  0  0  0  0
   17.5205    4.5920   15.2948 C   0  0  0  0  0  0  0  0  0  0  0  0
   15.3272    1.6973   17.0589 S   0  0  0  0  0  0  0  0  0  0  0  0
   15.7374    1.7534   18.4687 O   0  0  0  0  0  0  0  0  0  0  0  0
   13.8648    1.5534   16.9748 O   0  0  0  0  0  0  0  0  0  0  0  0
   16.1010    0.4539   16.3447 N   0  0  0  0  0  0  0  0  0  0  0  0
   15.8267    0.4011   15.3637 H   0  0  0  0  0  0  0  0  0  0  0  0
   15.8521   -0.4165   16.8146 H   0  0  0  0  0  0  0  0  0  0  0  0
 10 11  1  0  0  0
 12 11  1  0  0  0
  2  1  1  0  0  0
  2  3  1  0  0  0
 14  1  1  0  0  0
 14 15  1  0  0  0
 11 13  1  0  0  0
 11  9  1  0  0  0
  4  3  1  0  0  0
  4  7  1  0  0  0
  6  5  2  0  0  0
  5  9  1  0  0  0
  5  7  1  0  0  0
 15 20  2  0  0  0
 15 16  1  0  0  0
 20 19  1  0  0  0
 16 17  2  0  0  0
 19 18  2  0  0  0
 17 18  1  0  0  0
 18 21  1  0  0  0
 24 21  1  0  0  0
 21 23  2  0  0  0
 21 22  2  0  0  0
  7  8  1  0  0  0
 24 25  1  0  0  0
 24 26  1  0  0  0
M  END
> <minimizedAffinity>
-7.50606

$$$$
4RFC_3O1_A_302


 26 26  0  0  0  0  0  0  0  0999 V2000
   16.6546    6.6563   12.8015 C   0  0  0  0  0  0  0  0  0  0  0  0
   17.7403    6.6178   11.7736 C   0  0  0  0  0  0  0  0  0  0  0  0
   19.1442    6.3830   12.2145 C   0  0  0  0  0  0  0  0  0  0  0  0
   19.8988    5.1976   11.7069 C   0  0  0  0  0  0  0  0  0  0  0  0
   19.0504    3.0097   11.4834 C   0  0  0  0  0  0  0  0  0  0  0  0
   19.2957    3.0944   10.1330 O   0  0  0  0  0  0  0  0  0  0  0  0
   19.7144    3.9344   12.3570 N   0  0  0  0  0  0  0  0  0  0  0  0
   20.0032    3.7292   13.2755 H   0  0  0  0  0  0  0  0  0  0  0  0
   18.6416    1.9464   11.9404 O   0  0  0  0  0  0  0  0  0  0  0  0
   16.4876    2.9257   11.9881 C   0  0  0  0  0  0  0  0  0  0  0  0
   17.2907    1.6668   12.0207 C   0  0  0  0  0  0  0  0  0  0  0  0
   16.8934    0.8035   10.8669 C   0  0  0  0  0  0  0  0  0  0  0  0
   17.0079    0.9393   13.2952 C   0  0  0  0  0  0  0  0  0  0  0  0
   17.0012    6.5233   14.1250 O   0  0  0  0  0  0  0  0  0  0  0  0
   16.6063    5.4175   14.8408 C   0  0  0  0  0  0  0  0  0  0  0  0
   17.5350    4.4597   15.2251 C   0  0  0  0  0  0  0  0  0  0  0  0
   17.1431    3.3444   15.9439 C   0  0  0  0  0  0  0  0  0  0  0  0
   15.8103    3.1670   16.2909 C   0  0  0  0  0  0  0  0  0  0  0  0
   14.8798    4.1217   15.9067 C   0  0  0  0  0  0  0  0  0  0  0  0
   15.2746    5.2382   15.1906 C   0  0  0  0  0  0  0  0  0  0  0  0
   15.3035    1.7383   17.2034 S   0  0  0  0  0  0  0  0  0  0  0  0
   15.9137    0.5677   16.5582 O   0  0  0  0  0  0  0  0  0  0  0  0
   15.7789    1.8410   18.5926 O   0  0  0  0  0  0  0  0  0  0  0  0
   13.6832    1.5844   17.1267 N   0  0  0  0  0  0  0  0  0  0  0  0
   13.2437    2.3906   17.5711 H   0  0  0  0  0  0  0  0  0  0  0  0
   13.3992    0.7326   17.6107 H   0  0  0  0  0  0  0  0  0  0  0  0
 10 11  1  0  0  0
 12 11  1  0  0  0
  2  1  1  0  0  0
  2  3  1  0  0  0
 14  1  1  0  0  0
 14 15  1  0  0  0
 11 13  1  0  0  0
 11  9  1  0  0  0
  4  3  1  0  0  0
  4  7  1  0  0  0
  6  5  2  0  0  0
  5  9  1  0  0  0
  5  7  1  0  0  0
 15 20  2  0  0  0
 15 16  1  0  0  0
 20 19  1  0  0  0
 16 17  2  0  0  0
 19 18  2  0  0  0
 17 18  1  0  0  0
 18 21  1  0  0  0
 24 21  1  0  0  0
 21 23  2  0  0  0
 21 22  2  0  0  0
  7  8  1  0  0  0
 24 25  1  0  0  0
 24 26  1  0  0  0
M  END
> <minimizedAffinity>
-7.49467

$$$$
4RFC_3O1_A_302


 26 26  0  0  0  0  0  0  0  0999 V2000
   18.0773    7.1510   14.3110 C   0  0  0  0  0  0  0  0  0  0  0  0
   19.2401    7.0783   13.3732 C   0  0  0  0  0  0  0  0  0  0  0  0
   20.1169    5.8738   13.4022 C   0  0  0  0  0  0  0  0  0  0  0  0
   20.2721    5.0325   12.1773 C   0  0  0  0  0  0  0  0  0  0  0  0
   19.0914    3.2419   11.1994 C   0  0  0  0  0  0  0  0  0  0  0  0
   19.2008    3.8827    9.9876 O   0  0  0  0  0  0  0  0  0  0  0  0
   19.9739    3.6337   12.2608 N   0  0  0  0  0  0  0  0  0  0  0  0
   20.3257    3.0257   12.9507 H   0  0  0  0  0  0  0  0  0  0  0  0
   18.5814    2.1258   11.2296 O   0  0  0  0  0  0  0  0  0  0  0  0
   17.1982    1.3246   12.9748 C   0  0  0  0  0  0  0  0  0  0  0  0
   17.2676    1.9425   11.6168 C   0  0  0  0  0  0  0  0  0  0  0  0
   16.5698    3.2641   11.6448 C   0  0  0  0  0  0  0  0  0  0  0  0
   16.5802    1.0478   10.6367 C   0  0  0  0  0  0  0  0  0  0  0  0
   16.9304    6.4667   13.9860 O   0  0  0  0  0  0  0  0  0  0  0  0
   16.5307    5.3829   14.7320 C   0  0  0  0  0  0  0  0  0  0  0  0
   15.1923    5.2069   15.0561 C   0  0  0  0  0  0  0  0  0  0  0  0
   14.7847    4.1192   15.8078 C   0  0  0  0  0  0  0  0  0  0  0  0
   15.7128    3.1861   16.2508 C   0  0  0  0  0  0  0  0  0  0  0  0
   17.0513    3.3604   15.9298 C   0  0  0  0  0  0  0  0  0  0  0  0
   17.4562    4.4473   15.1749 C   0  0  0  0  0  0  0  0  0  0  0  0
   15.1970    1.7978   17.2189 S   0  0  0  0  0  0  0  0  0  0  0  0
   13.7371    1.6930   17.0907 O   0  0  0  0  0  0  0  0  0  0  0  0
   15.8278    0.5712   16.7050 O   0  0  0  0  0  0  0  0  0  0  0  0
   15.5609    2.0561   18.7861 N   0  0  0  0  0  0  0  0  0  0  0  0
   16.5726    2.1314   18.8923 H   0  0  0  0  0  0  0  0  0  0  0  0
   15.2171    1.2772   19.3478 H   0  0  0  0  0  0  0  0  0  0  0  0
 10 11  1  0  0  0
 12 11  1  0  0  0
  2  1  1  0  0  0
  2  3  1  0  0  0
 14  1  1  0  0  0
 14 15  1  0  0  0
 11 13  1  0  0  0
 11  9  1  0  0  0
  4  3  1  0  0  0
  4  7  1  0  0  0
  6  5  2  0  0  0
  5  9  1  0  0  0
  5  7  1  0  0  0
 15 20  2  0  0  0
 15 16  1  0  0  0
 20 19  1  0  0  0
 16 17  2  0  0  0
 19 18  2  0  0  0
 17 18  1  0  0  0
 18 21  1  0  0  0
 24 21  1  0  0  0
 21 23  2  0  0  0
 21 22  2  0  0  0
  7  8  1  0  0  0
 24 25  1  0  0  0
 24 26  1  0  0  0
M  END
> <minimizedAffinity>
-7.10026

$$$$
4RFC_3O1_A_302


 26 26  0  0  0  0  0  0  0  0999 V2000
   16.8581    4.3193   11.4984 C   0  0  0  0  0  0  0  0  0  0  0  0
   16.9145    2.8253   11.4566 C   0  0  0  0  0  0  0  0  0  0  0  0
   17.6685    2.1012   12.5185 C   0  0  0  0  0  0  0  0  0  0  0  0
   16.9795    1.6975   13.7812 C   0  0  0  0  0  0  0  0  0  0  0  0
   16.7412    2.0042   16.1063 C   0  0  0  0  0  0  0  0  0  0  0  0
   17.4112    0.8178   16.2921 O   0  0  0  0  0  0  0  0  0  0  0  0
   16.8542    2.6600   14.8350 N   0  0  0  0  0  0  0  0  0  0  0  0
   16.8466    3.6358   14.7049 H   0  0  0  0  0  0  0  0  0  0  0  0
   16.4345    2.6662   17.0934 O   0  0  0  0  0  0  0  0  0  0  0  0
   14.3277    1.5892   17.0427 C   0  0  0  0  0  0  0  0  0  0  0  0
   15.1241    2.7582   17.5224 C   0  0  0  0  0  0  0  0  0  0  0  0
   15.0926    2.7911   19.0165 C   0  0  0  0  0  0  0  0  0  0  0  0
   14.5143    4.0157   16.9931 C   0  0  0  0  0  0  0  0  0  0  0  0
   16.5861    4.9308   12.6990 O   0  0  0  0  0  0  0  0  0  0  0  0
   17.3489    5.9910   13.1294 C   0  0  0  0  0  0  0  0  0  0  0  0
   18.1262    6.7091   12.2308 C   0  0  0  0  0  0  0  0  0  0  0  0
   18.8968    7.7756   12.6585 C   0  0  0  0  0  0  0  0  0  0  0  0
   18.9040    8.1425   13.9977 C   0  0  0  0  0  0  0  0  0  0  0  0
   18.1295    7.4255   14.8983 C   0  0  0  0  0  0  0  0  0  0  0  0
   17.3568    6.3612   14.4676 C   0  0  0  0  0  0  0  0  0  0  0  0
   19.8941    9.5008   14.5503 S   0  0  0  0  0  0  0  0  0  0  0  0
   21.2359    9.3259   13.9777 O   0  0  0  0  0  0  0  0  0  0  0  0
   19.3137   10.7662   14.0724 O   0  0  0  0  0  0  0  0  0  0  0  0
   20.0169    9.4652   16.1747 N   0  0  0  0  0  0  0  0  0  0  0  0
   19.0923    9.5855   16.5883 H   0  0  0  0  0  0  0  0  0  0  0  0
   20.6293   10.2192   16.4860 H   0  0  0  0  0  0  0  0  0  0  0  0
 10 11  1  0  0  0
 12 11  1  0  0  0
  2  1  1  0  0  0
  2  3  1  0  0  0
 14  1  1  0  0  0
 14 15  1  0  0  0
 11 13  1  0  0  0
 11  9  1  0  0  0
  4  3  1  0  0  0
  4  7  1  0  0  0
  6  5  2  0  0  0
  5  9  1  0  0  0
  5  7  1  0  0  0
 15 20  2  0  0  0
 15 16  1  0  0  0
 20 19  1  0  0  0
 16 17  2  0  0  0
 19 18  2  0  0  0
 17 18  1  0  0  0
 18 21  1  0  0  0
 24 21  1  0  0  0
 21 23  2  0  0  0
 21 22  2  0  0  0
  7  8  1  0  0  0
 24 25  1  0  0  0
 24 26  1  0  0  0
M  END
> <minimizedAffinity>
-6.69732

$$$$
4RFC_3O1_A_302


 26 26  0  0  0  0  0  0  0  0999 V2000
   19.0558    1.5211   11.1899 C   0  0  0  0  0  0  0  0  0  0  0  0
   17.6565    1.0006   11.2791 C   0  0  0  0  0  0  0  0  0  0  0  0
   16.7543    1.5330   12.3388 C   0  0  0  0  0  0  0  0  0  0  0  0
   17.1185    1.3756   13.7792 C   0  0  0  0  0  0  0  0  0  0  0  0
   16.7310    2.0589   16.0017 C   0  0  0  0  0  0  0  0  0  0  0  0
   17.3330    0.8965   16.4229 O   0  0  0  0  0  0  0  0  0  0  0  0
   16.9621    2.4982   14.6554 N   0  0  0  0  0  0  0  0  0  0  0  0
   17.0070    3.4403   14.3730 H   0  0  0  0  0  0  0  0  0  0  0  0
   16.3852    2.8803   16.8457 O   0  0  0  0  0  0  0  0  0  0  0  0
   15.1981    2.8322   18.8925 C   0  0  0  0  0  0  0  0  0  0  0  0
   15.1201    2.8559   17.4012 C   0  0  0  0  0  0  0  0  0  0  0  0
   14.3657    4.0723   16.9704 C   0  0  0  0  0  0  0  0  0  0  0  0
   14.3931    1.6380   16.9301 C   0  0  0  0  0  0  0  0  0  0  0  0
   19.2952    2.6238   10.4050 O   0  0  0  0  0  0  0  0  0  0  0  0
   19.4114    3.8709   10.9727 C   0  0  0  0  0  0  0  0  0  0  0  0
   18.4948    4.8692   10.6715 C   0  0  0  0  0  0  0  0  0  0  0  0
   18.6077    6.1262   11.2383 C   0  0  0  0  0  0  0  0  0  0  0  0
   19.6442    6.4075   12.1186 C   0  0  0  0  0  0  0  0  0  0  0  0
   20.5627    5.4123   12.4201 C   0  0  0  0  0  0  0  0  0  0  0  0
   20.4457    4.1547   11.8545 C   0  0  0  0  0  0  0  0  0  0  0  0
   19.7968    8.0160   12.8397 S   0  0  0  0  0  0  0  0  0  0  0  0
   19.6530    7.8593   14.2936 O   0  0  0  0  0  0  0  0  0  0  0  0
   21.1230    8.5754   12.5317 O   0  0  0  0  0  0  0  0  0  0  0  0
   18.5943    8.9750   12.3018 N   0  0  0  0  0  0  0  0  0  0  0  0
   18.6800    9.0939   11.2924 H   0  0  0  0  0  0  0  0  0  0  0  0
   18.6555    9.8853   12.7579 H   0  0  0  0  0  0  0  0  0  0  0  0
 10 11  1  0  0  0
 12 11  1  0  0  0
  2  1  1  0  0  0
  2  3  1  0  0  0
 14  1  1  0  0  0
 14 15  1  0  0  0
 11 13  1  0  0  0
 11  9  1  0  0  0
  4  3  1  0  0  0
  4  7  1  0  0  0
  6  5  2  0  0  0
  5  9  1  0  0  0
  5  7  1  0  0  0
 15 20  2  0  0  0
 15 16  1  0  0  0
 20 19  1  0  0  0
 16 17  2  0  0  0
 19 18  2  0  0  0
 17 18  1  0  0  0
 18 21  1  0  0  0
 24 21  1  0  0  0
 21 23  2  0  0  0
 21 22  2  0  0  0
  7  8  1  0  0  0
 24 25  1  0  0  0
 24 26  1  0  0  0
M  END
> <minimizedAffinity>
-6.21881

$$$$
4RFC_3O1_A_302


 26 26  0  0  0  0  0  0  0  0999 V2000
   16.6336    6.7789   13.0557 C   0  0  0  0  0  0  0  0  0  0  0  0
   18.0048    7.2204   13.4581 C   0  0  0  0  0  0  0  0  0  0  0  0
   18.2858    7.4813   14.8981 C   0  0  0  0  0  0  0  0  0  0  0  0
   19.1114    8.6610   15.2967 C   0  0  0  0  0  0  0  0  0  0  0  0
   20.5295   10.4883   14.8425 C   0  0  0  0  0  0  0  0  0  0  0  0
   20.9283   10.4558   16.1582 O   0  0  0  0  0  0  0  0  0  0  0  0
   19.8888    9.3272   14.2946 N   0  0  0  0  0  0  0  0  0  0  0  0
   19.9719    9.0296   13.3598 H   0  0  0  0  0  0  0  0  0  0  0  0
   21.0769   11.2816   14.0824 O   0  0  0  0  0  0  0  0  0  0  0  0
   19.0452   12.4948   14.0482 C   0  0  0  0  0  0  0  0  0  0  0  0
   20.5177   12.5131   13.7989 C   0  0  0  0  0  0  0  0  0  0  0  0
   21.1474   13.5552   14.6660 C   0  0  0  0  0  0  0  0  0  0  0  0
   20.7669   12.8546   12.3654 C   0  0  0  0  0  0  0  0  0  0  0  0
   16.3998    5.4339   12.8954 O   0  0  0  0  0  0  0  0  0  0  0  0
   16.0922    4.6462   13.9798 C   0  0  0  0  0  0  0  0  0  0  0  0
   16.7417    3.4350   14.1764 C   0  0  0  0  0  0  0  0  0  0  0  0
   16.4352    2.6377   15.2647 C   0  0  0  0  0  0  0  0  0  0  0  0
   15.4691    3.0393   16.1777 C   0  0  0  0  0  0  0  0  0  0  0  0
   14.8172    4.2484   15.9829 C   0  0  0  0  0  0  0  0  0  0  0  0
   15.1279    5.0459   14.8953 C   0  0  0  0  0  0  0  0  0  0  0  0
   15.0685    2.0190   17.5667 S   0  0  0  0  0  0  0  0  0  0  0  0
   13.7101    1.5016   17.3524 O   0  0  0  0  0  0  0  0  0  0  0  0
   16.0175    0.8969   17.6499 O   0  0  0  0  0  0  0  0  0  0  0  0
   15.0707    2.9172   18.9262 N   0  0  0  0  0  0  0  0  0  0  0  0
   16.0082    3.2845   19.0895 H   0  0  0  0  0  0  0  0  0  0  0  0
   14.7901    2.3376   19.7172 H   0  0  0  0  0  0  0  0  0  0  0  0
 10 11  1  0  0  0
 12 11  1  0  0  0
  2  1  1  0  0  0
  2  3  1  0  0  0
 14  1  1  0  0  0
 14 15  1  0  0  0
 11 13  1  0  0  0
 11  9  1  0  0  0
  4  3  1  0  0  0
  4  7  1  0  0  0
  6  5  2  0  0  0
  5  9  1  0  0  0
  5  7  1  0  0  0
 15 20  2  0  0  0
 15 16  1  0  0  0
 20 19  1  0  0  0
 16 17  2  0  0  0
 19 18  2  0  0  0
 17 18  1  0  0  0
 18 21  1  0  0  0
 24 21  1  0  0  0
 21 23  2  0  0  0
 21 22  2  0  0  0
  7  8  1  0  0  0
 24 25  1  0  0  0
 24 26  1  0  0  0
M  END
> <minimizedAffinity>
-5.77489

$$$$
4RFC_3O1_A_302


 26 26  0  0  0  0  0  0  0  0999 V2000
   16.8878    5.6650   12.2090 C   0  0  0  0  0  0  0  0  0  0  0  0
   18.0573    5.0908   11.4745 C   0  0  0  0  0  0  0  0  0  0  0  0
   18.9005    5.9935   10.6411 C   0  0  0  0  0  0  0  0  0  0  0  0
   19.7679    7.0199   11.2941 C   0  0  0  0  0  0  0  0  0  0  0  0
   19.1527    8.5814   12.9493 C   0  0  0  0  0  0  0  0  0  0  0  0
   18.2990    9.1545   12.0361 O   0  0  0  0  0  0  0  0  0  0  0  0
   19.6234    7.2488   12.7009 N   0  0  0  0  0  0  0  0  0  0  0  0
   19.8197    6.5842   13.4002 H   0  0  0  0  0  0  0  0  0  0  0  0
   19.1560    9.0102   14.0994 O   0  0  0  0  0  0  0  0  0  0  0  0
   20.3718    9.8334   15.9555 C   0  0  0  0  0  0  0  0  0  0  0  0
   20.0497    9.9831   14.5048 C   0  0  0  0  0  0  0  0  0  0  0  0
   21.3094    9.8618   13.7093 C   0  0  0  0  0  0  0  0  0  0  0  0
   19.4537   11.3339   14.2730 C   0  0  0  0  0  0  0  0  0  0  0  0
   17.0238    5.9304   13.5508 O   0  0  0  0  0  0  0  0  0  0  0  0
   16.5739    5.0302   14.4880 C   0  0  0  0  0  0  0  0  0  0  0  0
   17.4542    4.1398   15.0878 C   0  0  0  0  0  0  0  0  0  0  0  0
   17.0069    3.2309   16.0301 C   0  0  0  0  0  0  0  0  0  0  0  0
   15.6659    3.1962   16.3890 C   0  0  0  0  0  0  0  0  0  0  0  0
   14.7835    4.0837   15.7900 C   0  0  0  0  0  0  0  0  0  0  0  0
   15.2339    4.9943   14.8502 C   0  0  0  0  0  0  0  0  0  0  0  0
   15.0881    2.0303   17.5879 S   0  0  0  0  0  0  0  0  0  0  0  0
   13.7438    1.6060   17.1734 O   0  0  0  0  0  0  0  0  0  0  0  0
   15.9862    0.8646   17.6211 O   0  0  0  0  0  0  0  0  0  0  0  0
   14.9761    2.7512   19.0449 N   0  0  0  0  0  0  0  0  0  0  0  0
   15.9025    3.0522   19.3474 H   0  0  0  0  0  0  0  0  0  0  0  0
   14.5949    2.0910   19.7225 H   0  0  0  0  0  0  0  0  0  0  0  0
 10 11  1  0  0  0
 12 11  1  0  0  0
  2  1  1  0  0  0
  2  3  1  0  0  0
 14  1  1  0  0  0
 14 15  1  0  0  0
 11 13  1  0  0  0
 11  9  1  0  0  0
  4  3  1  0  0  0
  4  7  1  0  0  0
  6  5  2  0  0  0
  5  9  1  0  0  0
  5  7  1  0  0  0
 15 20  2  0  0  0
 15 16  1  0  0  0
 20 19  1  0  0  0
 16 17  2  0  0  0
 19 18  2  0  0  0
 17 18  1  0  0  0
 18 21  1  0  0  0
 24 21  1  0  0  0
 21 23  2  0  0  0
 21 22  2  0  0  0
  7  8  1  0  0  0
 24 25  1  0  0  0
 24 26  1  0  0  0
M  END
> <minimizedAffinity>
-5.67804

$$$$
4RFC_3O1_A_302


 26 26  0  0  0  0  0  0  0  0999 V2000
   16.6911    7.1117   13.3100 C   0  0  0  0  0  0  0  0  0  0  0  0
   15.9850    7.2319   11.9970 C   0  0  0  0  0  0  0  0  0  0  0  0
   16.7200    7.7984   10.8311 C   0  0  0  0  0  0  0  0  0  0  0  0
   17.2095    6.8958    9.7458 C   0  0  0  0  0  0  0  0  0  0  0  0
   18.8245    5.1805    9.8230 C   0  0  0  0  0  0  0  0  0  0  0  0
   19.7799    6.1435   10.0481 O   0  0  0  0  0  0  0  0  0  0  0  0
   17.4487    5.5171   10.0530 N   0  0  0  0  0  0  0  0  0  0  0  0
   16.7642    4.8879   10.3768 H   0  0  0  0  0  0  0  0  0  0  0  0
   19.1621    4.0006    9.8502 O   0  0  0  0  0  0  0  0  0  0  0  0
   19.7992    1.9418   10.8279 C   0  0  0  0  0  0  0  0  0  0  0  0
   19.1532    3.2739   11.0254 C   0  0  0  0  0  0  0  0  0  0  0  0
   19.8983    4.0270   12.0799 C   0  0  0  0  0  0  0  0  0  0  0  0
   17.7422    3.0714   11.4746 C   0  0  0  0  0  0  0  0  0  0  0  0
   17.3483    5.9386   13.5948 O   0  0  0  0  0  0  0  0  0  0  0  0
   16.8026    5.0292   14.4701 C   0  0  0  0  0  0  0  0  0  0  0  0
   15.4415    5.0452   14.7435 C   0  0  0  0  0  0  0  0  0  0  0  0
   14.8873    4.1337   15.6245 C   0  0  0  0  0  0  0  0  0  0  0  0
   15.6884    3.1878   16.2505 C   0  0  0  0  0  0  0  0  0  0  0  0
   17.0492    3.1706   15.9804 C   0  0  0  0  0  0  0  0  0  0  0  0
   17.6008    4.0812   15.0962 C   0  0  0  0  0  0  0  0  0  0  0  0
   14.9851    2.0252   17.3838 S   0  0  0  0  0  0  0  0  0  0  0  0
   15.1593    2.5722   18.7363 O   0  0  0  0  0  0  0  0  0  0  0  0
   13.5507    1.8584   17.0989 O   0  0  0  0  0  0  0  0  0  0  0  0
   15.7904    0.6118   17.2904 N   0  0  0  0  0  0  0  0  0  0  0  0
   15.6793    0.2183   16.3559 H   0  0  0  0  0  0  0  0  0  0  0  0
   15.4155   -0.0393   17.9802 H   0  0  0  0  0  0  0  0  0  0  0  0
 10 11  1  0  0  0
 12 11  1  0  0  0
  2  1  1  0  0  0
  2  3  1  0  0  0
 14  1  1  0  0  0
 14 15  1  0  0  0
 11 13  1  0  0  0
 11  9  1  0  0  0
  4  3  1  0  0  0
  4  7  1  0  0  0
  6  5  2  0  0  0
  5  9  1  0  0  0
  5  7  1  0  0  0
 15 20  2  0  0  0
 15 16  1  0  0  0
 20 19  1  0  0  0
 16 17  2  0  0  0
 19 18  2  0  0  0
 17 18  1  0  0  0
 18 21  1  0  0  0
 24 21  1  0  0  0
 21 23  2  0  0  0
 21 22  2  0  0  0
  7  8  1  0  0  0
 24 25  1  0  0  0
 24 26  1  0  0  0
M  END
> <minimizedAffinity>
-5.60191

$$$$
4RFC_3O1_A_302


 26 26  0  0  0  0  0  0  0  0999 V2000
   20.2290    4.9837   10.3507 C   0  0  0  0  0  0  0  0  0  0  0  0
   20.2014    3.4988   10.1738 C   0  0  0  0  0  0  0  0  0  0  0  0
   19.7312    2.6459   11.3017 C   0  0  0  0  0  0  0  0  0  0  0  0
   18.3307    2.1258   11.3120 C   0  0  0  0  0  0  0  0  0  0  0  0
   16.7704    2.7272   12.9735 C   0  0  0  0  0  0  0  0  0  0  0  0
   16.0427    3.3726   12.0015 O   0  0  0  0  0  0  0  0  0  0  0  0
   17.7435    1.7549   12.5651 N   0  0  0  0  0  0  0  0  0  0  0  0
   17.9754    0.9454   13.0751 H   0  0  0  0  0  0  0  0  0  0  0  0
   16.3105    2.6691   14.1101 O   0  0  0  0  0  0  0  0  0  0  0  0
   17.8337    4.4073   14.6196 C   0  0  0  0  0  0  0  0  0  0  0  0
   16.6965    3.5619   15.0917 C   0  0  0  0  0  0  0  0  0  0  0  0
   15.5423    4.4455   15.4402 C   0  0  0  0  0  0  0  0  0  0  0  0
   17.1204    2.8085   16.3108 C   0  0  0  0  0  0  0  0  0  0  0  0
   19.5280    5.5312   11.3987 O   0  0  0  0  0  0  0  0  0  0  0  0
   18.3650    6.2285   11.1701 C   0  0  0  0  0  0  0  0  0  0  0  0
   17.7840    6.2337    9.9092 C   0  0  0  0  0  0  0  0  0  0  0  0
   16.6148    6.9348    9.6731 C   0  0  0  0  0  0  0  0  0  0  0  0
   16.0053    7.6463   10.6980 C   0  0  0  0  0  0  0  0  0  0  0  0
   16.5846    7.6443   11.9587 C   0  0  0  0  0  0  0  0  0  0  0  0
   17.7523    6.9395   12.1933 C   0  0  0  0  0  0  0  0  0  0  0  0
   14.5142    8.5506   10.3986 S   0  0  0  0  0  0  0  0  0  0  0  0
   13.7425    8.5485   11.6489 O   0  0  0  0  0  0  0  0  0  0  0  0
   14.8398    9.9355   10.0209 O   0  0  0  0  0  0  0  0  0  0  0  0
   13.6378    7.7986    9.2491 N   0  0  0  0  0  0  0  0  0  0  0  0
   14.1605    7.7916    8.3732 H   0  0  0  0  0  0  0  0  0  0  0  0
   12.7564    8.2941    9.1150 H   0  0  0  0  0  0  0  0  0  0  0  0
 10 11  1  0  0  0
 12 11  1  0  0  0
  2  1  1  0  0  0
  2  3  1  0  0  0
 14  1  1  0  0  0
 14 15  1  0  0  0
 11 13  1  0  0  0
 11  9  1  0  0  0
  4  3  1  0  0  0
  4  7  1  0  0  0
  6  5  2  0  0  0
  5  9  1  0  0  0
  5  7  1  0  0  0
 15 20  2  0  0  0
 15 16  1  0  0  0
 20 19  1  0  0  0
 16 17  2  0  0  0
 19 18  2  0  0  0
 17 18  1  0  0  0
 18 21  1  0  0  0
 24 21  1  0  0  0
 21 23  2  0  0  0
 21 22  2  0  0  0
  7  8  1  0  0  0
 24 25  1  0  0  0
 24 26  1  0  0  0
M  END
> <minimizedAffinity>
-5.42343

$$$$
4RFC_3O1_A_302


 26 26  0  0  0  0  0  0  0  0999 V2000
   17.3411    6.0397   12.5328 C   0  0  0  0  0  0  0  0  0  0  0  0
   18.2054    4.9344   12.0149 C   0  0  0  0  0  0  0  0  0  0  0  0
   19.6853    5.0557   12.1403 C   0  0  0  0  0  0  0  0  0  0  0  0
   20.2761    5.9913   13.1442 C   0  0  0  0  0  0  0  0  0  0  0  0
   20.3570    8.3387   13.3433 C   0  0  0  0  0  0  0  0  0  0  0  0
   19.9412    8.2034   14.6470 O   0  0  0  0  0  0  0  0  0  0  0  0
   20.9060    7.1911   12.6794 N   0  0  0  0  0  0  0  0  0  0  0  0
   21.6169    7.2238   11.9991 H   0  0  0  0  0  0  0  0  0  0  0  0
   20.6425    9.4591   12.9312 O   0  0  0  0  0  0  0  0  0  0  0  0
   19.2724   11.3378   13.3719 C   0  0  0  0  0  0  0  0  0  0  0  0
   19.6853   10.2939   12.3867 C   0  0  0  0  0  0  0  0  0  0  0  0
   20.2431   10.9620   11.1715 C   0  0  0  0  0  0  0  0  0  0  0  0
   18.4879    9.4896   11.9957 C   0  0  0  0  0  0  0  0  0  0  0  0
   17.2206    6.1938   13.8933 O   0  0  0  0  0  0  0  0  0  0  0  0
   16.7593    5.1594   14.6733 C   0  0  0  0  0  0  0  0  0  0  0  0
   17.6498    4.2815   15.2764 C   0  0  0  0  0  0  0  0  0  0  0  0
   17.1913    3.2382   16.0608 C   0  0  0  0  0  0  0  0  0  0  0  0
   15.8287    3.0538   16.2551 C   0  0  0  0  0  0  0  0  0  0  0  0
   14.9364    3.9286   15.6523 C   0  0  0  0  0  0  0  0  0  0  0  0
   15.3975    4.9736   14.8708 C   0  0  0  0  0  0  0  0  0  0  0  0
   15.2377    1.7162   17.2511 S   0  0  0  0  0  0  0  0  0  0  0  0
   15.7965    0.4763   16.6951 O   0  0  0  0  0  0  0  0  0  0  0  0
   15.6986    1.8876   18.6385 O   0  0  0  0  0  0  0  0  0  0  0  0
   13.6128    1.6384   17.1572 N   0  0  0  0  0  0  0  0  0  0  0  0
   13.2088    2.4932   17.5399 H   0  0  0  0  0  0  0  0  0  0  0  0
   13.2794    0.8360   17.6914 H   0  0  0  0  0  0  0  0  0  0  0  0
 10 11  1  0  0  0
 12 11  1  0  0  0
  2  1  1  0  0  0
  2  3  1  0  0  0
 14  1  1  0  0  0
 14 15  1  0  0  0
 11 13  1  0  0  0
 11  9  1  0  0  0
  4  3  1  0  0  0
  4  7  1  0  0  0
  6  5  2  0  0  0
  5  9  1  0  0  0
  5  7  1  0  0  0
 15 20  2  0  0  0
 15 16  1  0  0  0
 20 19  1  0  0  0
 16 17  2  0  0  0
 19 18  2  0  0  0
 17 18  1  0  0  0
 18 21  1  0  0  0
 24 21  1  0  0  0
 21 23  2  0  0  0
 21 22  2  0  0  0
  7  8  1  0  0  0
 24 25  1  0  0  0
 24 26  1  0  0  0
M  END
> <minimizedAffinity>
-5.31870

$$$$
