4EO8_0S3_A_600


 28 29  0  0  0  0  0  0  0  0999 V2000
    9.3874   33.0077   73.6456 C   0  0  0  0  0  0  0  0  0  0  0  0
    8.0866   33.5122   74.0234 C   0  0  0  0  0  0  0  0  0  0  0  0
    7.1608   33.2221   73.0165 C   0  0  0  0  0  0  0  0  0  0  0  0
    7.8596   32.4063   71.6936 S   0  0  0  0  0  0  0  0  0  0  0  0
    9.3939   32.3971   72.4067 C   0  0  0  0  0  0  0  0  0  0  0  0
    5.7513   33.4892   72.8487 C   0  0  0  0  0  0  0  0  0  0  0  0
    5.1123   34.3608   73.4227 O   0  0  0  0  0  0  0  0  0  0  0  0
    5.1737   32.6106   71.9925 O   0  0  0  0  0  0  0  0  0  0  0  0
    5.6948   31.9560   71.5707 H   0  0  0  0  0  0  0  0  0  0  0  0
    7.7544   34.1728   75.2323 N   0  0  0  0  0  0  0  0  0  0  0  0
    7.7097   35.5716   75.3312 C   0  0  0  0  0  0  0  0  0  0  0  0
    7.4243   36.1758   76.3699 O   0  0  0  0  0  0  0  0  0  0  0  0
    8.0830   36.3487   74.0620 C   0  0  0  0  0  0  0  0  0  0  0  0
    7.0814   37.4659   73.7261 C   0  0  0  0  0  0  0  0  0  0  0  0
    7.5598   38.2698   72.5108 C   0  0  0  0  0  0  0  0  0  0  0  0
    8.9468   38.8819   72.7742 C   0  0  0  0  0  0  0  0  0  0  0  0
    9.9589   37.7957   73.1493 C   0  0  0  0  0  0  0  0  0  0  0  0
    9.4729   36.9398   74.3193 C   0  0  0  0  0  0  0  0  0  0  0  0
    9.4538   39.6750   71.5644 C   0  0  0  0  0  0  0  0  0  0  0  0
    7.4405   33.4279   76.3873 N   0  0  0  0  0  0  0  0  0  0  0  0
    6.3450   32.4741   76.2600 C   0  0  0  0  0  0  0  0  0  0  0  0
    8.6215   32.9408   77.0916 C   0  0  0  0  0  0  0  0  0  0  0  0
   10.5082   31.8079   71.7454 C   0  0  0  0  0  0  0  0  0  0  0  0
   11.4665   31.3783   71.1691 C   0  0  0  0  0  0  0  0  0  0  0  0
   12.6619   30.8760   70.4636 C   0  0  0  0  0  0  0  0  0  0  0  0
   12.3760   30.9162   68.9535 C   0  0  0  0  0  0  0  0  0  0  0  0
   13.8937   31.7331   70.7996 C   0  0  0  0  0  0  0  0  0  0  0  0
   12.9256   29.4185   70.8867 C   0  0  0  0  0  0  0  0  0  0  0  0
 28 25  1  0  0  0
 25 27  1  0  0  0
 25 26  1  0  0  0
 25 24  1  0  0  0
 24 23  3  0  0  0
  4  5  1  0  0  0
  4  3  1  0  0  0
 19 16  1  0  0  0
 23  5  1  0  0  0
  7  6  2  0  0  0
  5  1  2  0  0  0
 15 16  1  0  0  0
 15 14  1  0  0  0
  6  3  1  0  0  0
  6  8  1  0  0  0
 16 17  1  0  0  0
  3  2  2  0  0  0
 17 18  1  0  0  0
  1  2  1  0  0  0
 14 13  1  0  0  0
  2 10  1  0  0  0
 13 18  1  0  0  0
 13 11  1  0  0  0
 10 11  1  0  0  0
 10 20  1  0  0  0
 11 12  2  0  0  0
 21 20  1  0  0  0
 20 22  1  0  0  0
  8  9  1  0  0  0
M  END
> <minimizedAffinity>
-7.82730

$$$$
4EO8_0S3_A_600


 28 29  0  0  0  0  0  0  0  0999 V2000
    9.0549   33.9151   74.8503 C   0  0  0  0  0  0  0  0  0  0  0  0
    7.7819   34.2601   75.4415 C   0  0  0  0  0  0  0  0  0  0  0  0
    6.7828   33.4330   74.9190 C   0  0  0  0  0  0  0  0  0  0  0  0
    7.3778   32.3287   73.7654 S   0  0  0  0  0  0  0  0  0  0  0  0
    8.9649   32.8926   73.9260 C   0  0  0  0  0  0  0  0  0  0  0  0
    5.3572   33.3343   75.1285 C   0  0  0  0  0  0  0  0  0  0  0  0
    4.8043   32.7043   76.0200 O   0  0  0  0  0  0  0  0  0  0  0  0
    4.6633   33.9974   74.1705 O   0  0  0  0  0  0  0  0  0  0  0  0
    5.1207   34.4696   73.5029 H   0  0  0  0  0  0  0  0  0  0  0  0
    7.5479   35.2524   76.4257 N   0  0  0  0  0  0  0  0  0  0  0  0
    7.5311   36.6210   76.1173 C   0  0  0  0  0  0  0  0  0  0  0  0
    7.3306   37.5086   76.9522 O   0  0  0  0  0  0  0  0  0  0  0  0
    7.8228   36.9855   74.6557 C   0  0  0  0  0  0  0  0  0  0  0  0
    6.9134   38.1053   74.1236 C   0  0  0  0  0  0  0  0  0  0  0  0
    7.3186   38.4948   72.6966 C   0  0  0  0  0  0  0  0  0  0  0  0
    8.7856   38.9570   72.6537 C   0  0  0  0  0  0  0  0  0  0  0  0
    9.7136   37.8755   73.2141 C   0  0  0  0  0  0  0  0  0  0  0  0
    9.2898   37.4255   74.6124 C   0  0  0  0  0  0  0  0  0  0  0  0
    9.2184   39.3336   71.2323 C   0  0  0  0  0  0  0  0  0  0  0  0
    7.3076   34.8837   77.7651 N   0  0  0  0  0  0  0  0  0  0  0  0
    8.3950   35.1285   78.7051 C   0  0  0  0  0  0  0  0  0  0  0  0
    5.9764   35.2570   78.2304 C   0  0  0  0  0  0  0  0  0  0  0  0
   10.0265   32.3266   73.1653 C   0  0  0  0  0  0  0  0  0  0  0  0
   10.9529   31.8342   72.5872 C   0  0  0  0  0  0  0  0  0  0  0  0
   12.1000   31.2094   71.8993 C   0  0  0  0  0  0  0  0  0  0  0  0
   12.6922   30.1419   72.8339 C   0  0  0  0  0  0  0  0  0  0  0  0
   11.6587   30.5740   70.5703 C   0  0  0  0  0  0  0  0  0  0  0  0
   13.1696   32.2821   71.6199 C   0  0  0  0  0  0  0  0  0  0  0  0
 28 25  1  0  0  0
 25 27  1  0  0  0
 25 26  1  0  0  0
 25 24  1  0  0  0
 24 23  3  0  0  0
  4  5  1  0  0  0
  4  3  1  0  0  0
 19 16  1  0  0  0
 23  5  1  0  0  0
  7  6  2  0  0  0
  5  1  2  0  0  0
 15 16  1  0  0  0
 15 14  1  0  0  0
  6  3  1  0  0  0
  6  8  1  0  0  0
 16 17  1  0  0  0
  3  2  2  0  0  0
 17 18  1  0  0  0
  1  2  1  0  0  0
 14 13  1  0  0  0
  2 10  1  0  0  0
 13 18  1  0  0  0
 13 11  1  0  0  0
 10 11  1  0  0  0
 10 20  1  0  0  0
 11 12  2  0  0  0
 21 20  1  0  0  0
 20 22  1  0  0  0
  8  9  1  0  0  0
M  END
> <minimizedAffinity>
-6.24008

$$$$
4EO8_0S3_A_600


 28 29  0  0  0  0  0  0  0  0999 V2000
    9.8638   35.0571   73.4865 C   0  0  0  0  0  0  0  0  0  0  0  0
    8.5974   35.6202   73.8969 C   0  0  0  0  0  0  0  0  0  0  0  0
    7.5874   34.6659   73.7408 C   0  0  0  0  0  0  0  0  0  0  0  0
    8.1652   33.1916   73.1109 S   0  0  0  0  0  0  0  0  0  0  0  0
    9.7586   33.7556   73.0363 C   0  0  0  0  0  0  0  0  0  0  0  0
    6.1620   34.6731   73.9737 C   0  0  0  0  0  0  0  0  0  0  0  0
    5.6039   35.0380   74.9998 O   0  0  0  0  0  0  0  0  0  0  0  0
    5.4793   34.1694   72.9159 O   0  0  0  0  0  0  0  0  0  0  0  0
    5.9404   33.9000   72.1461 H   0  0  0  0  0  0  0  0  0  0  0  0
    8.3786   36.9212   74.4144 N   0  0  0  0  0  0  0  0  0  0  0  0
    8.3844   37.1877   75.7918 C   0  0  0  0  0  0  0  0  0  0  0  0
    8.1967   38.3097   76.2729 O   0  0  0  0  0  0  0  0  0  0  0  0
    8.6005   35.9783   76.7109 C   0  0  0  0  0  0  0  0  0  0  0  0
    9.9759   35.9852   77.3983 C   0  0  0  0  0  0  0  0  0  0  0  0
   10.0934   34.8113   78.3782 C   0  0  0  0  0  0  0  0  0  0  0  0
    8.9841   34.8769   79.4425 C   0  0  0  0  0  0  0  0  0  0  0  0
    7.6011   34.9100   78.7859 C   0  0  0  0  0  0  0  0  0  0  0  0
    7.4825   36.0347   77.7570 C   0  0  0  0  0  0  0  0  0  0  0  0
    9.0707   33.7014   80.4225 C   0  0  0  0  0  0  0  0  0  0  0  0
    8.1585   38.0065   73.5420 N   0  0  0  0  0  0  0  0  0  0  0  0
    9.3287   38.5096   72.8325 C   0  0  0  0  0  0  0  0  0  0  0  0
    6.9502   37.8576   72.7383 C   0  0  0  0  0  0  0  0  0  0  0  0
   10.8104   32.9250   72.5566 C   0  0  0  0  0  0  0  0  0  0  0  0
   11.6525   32.2069   72.0982 C   0  0  0  0  0  0  0  0  0  0  0  0
   12.6780   31.3259   71.5052 C   0  0  0  0  0  0  0  0  0  0  0  0
   12.7944   30.0706   72.3853 C   0  0  0  0  0  0  0  0  0  0  0  0
   12.2983   30.9391   70.0661 C   0  0  0  0  0  0  0  0  0  0  0  0
   14.0323   32.0596   71.4944 C   0  0  0  0  0  0  0  0  0  0  0  0
 28 25  1  0  0  0
 25 27  1  0  0  0
 25 26  1  0  0  0
 25 24  1  0  0  0
 24 23  3  0  0  0
  4  5  1  0  0  0
  4  3  1  0  0  0
 19 16  1  0  0  0
 23  5  1  0  0  0
  7  6  2  0  0  0
  5  1  2  0  0  0
 15 16  1  0  0  0
 15 14  1  0  0  0
  6  3  1  0  0  0
  6  8  1  0  0  0
 16 17  1  0  0  0
  3  2  2  0  0  0
 17 18  1  0  0  0
  1  2  1  0  0  0
 14 13  1  0  0  0
  2 10  1  0  0  0
 13 18  1  0  0  0
 13 11  1  0  0  0
 10 11  1  0  0  0
 10 20  1  0  0  0
 11 12  2  0  0  0
 21 20  1  0  0  0
 20 22  1  0  0  0
  8  9  1  0  0  0
M  END
> <minimizedAffinity>
-6.05648

$$$$
4EO8_0S3_A_600


 28 29  0  0  0  0  0  0  0  0999 V2000
    9.5058   33.9653   73.1715 C   0  0  0  0  0  0  0  0  0  0  0  0
    8.2061   34.4784   73.5411 C   0  0  0  0  0  0  0  0  0  0  0  0
    7.2085   33.6581   73.0053 C   0  0  0  0  0  0  0  0  0  0  0  0
    7.8388   32.3634   72.0939 S   0  0  0  0  0  0  0  0  0  0  0  0
    9.4383   32.8317   72.3853 C   0  0  0  0  0  0  0  0  0  0  0  0
    5.7649   33.6900   73.0379 C   0  0  0  0  0  0  0  0  0  0  0  0
    5.0782   34.2943   73.8508 O   0  0  0  0  0  0  0  0  0  0  0  0
    5.2249   32.9126   72.0670 O   0  0  0  0  0  0  0  0  0  0  0  0
    5.7822   32.4645   71.4616 H   0  0  0  0  0  0  0  0  0  0  0  0
    7.9434   35.6134   74.3479 N   0  0  0  0  0  0  0  0  0  0  0  0
    7.8741   35.5354   75.7470 C   0  0  0  0  0  0  0  0  0  0  0  0
    7.6468   36.5057   76.4765 O   0  0  0  0  0  0  0  0  0  0  0  0
    8.0585   34.1381   76.3535 C   0  0  0  0  0  0  0  0  0  0  0  0
    9.0849   34.1114   77.4980 C   0  0  0  0  0  0  0  0  0  0  0  0
    9.1506   32.7152   78.1291 C   0  0  0  0  0  0  0  0  0  0  0  0
    7.7707   32.2933   78.6633 C   0  0  0  0  0  0  0  0  0  0  0  0
    6.7175   32.3469   77.5531 C   0  0  0  0  0  0  0  0  0  0  0  0
    6.6788   33.7122   76.8660 C   0  0  0  0  0  0  0  0  0  0  0  0
    7.8085   30.8914   79.2823 C   0  0  0  0  0  0  0  0  0  0  0  0
    7.7543   36.8790   73.7561 N   0  0  0  0  0  0  0  0  0  0  0  0
    6.4590   37.5086   73.9833 C   0  0  0  0  0  0  0  0  0  0  0  0
    8.9133   37.7538   73.8954 C   0  0  0  0  0  0  0  0  0  0  0  0
   10.5299   32.0911   71.8504 C   0  0  0  0  0  0  0  0  0  0  0  0
   11.4315   31.4940   71.3351 C   0  0  0  0  0  0  0  0  0  0  0  0
   12.5436   30.7796   70.6778 C   0  0  0  0  0  0  0  0  0  0  0  0
   13.8637   31.3805   71.1879 C   0  0  0  0  0  0  0  0  0  0  0  0
   12.4838   29.2746   70.9879 C   0  0  0  0  0  0  0  0  0  0  0  0
   12.4514   30.9892   69.1545 C   0  0  0  0  0  0  0  0  0  0  0  0
 28 25  1  0  0  0
 25 27  1  0  0  0
 25 26  1  0  0  0
 25 24  1  0  0  0
 24 23  3  0  0  0
  4  5  1  0  0  0
  4  3  1  0  0  0
 19 16  1  0  0  0
 23  5  1  0  0  0
  7  6  2  0  0  0
  5  1  2  0  0  0
 15 16  1  0  0  0
 15 14  1  0  0  0
  6  3  1  0  0  0
  6  8  1  0  0  0
 16 17  1  0  0  0
  3  2  2  0  0  0
 17 18  1  0  0  0
  1  2  1  0  0  0
 14 13  1  0  0  0
  2 10  1  0  0  0
 13 18  1  0  0  0
 13 11  1  0  0  0
 10 11  1  0  0  0
 10 20  1  0  0  0
 11 12  2  0  0  0
 21 20  1  0  0  0
 20 22  1  0  0  0
  8  9  1  0  0  0
M  END
> <minimizedAffinity>
-5.61287

$$$$
4EO8_0S3_A_600


 28 29  0  0  0  0  0  0  0  0999 V2000
   11.6032   29.5320   72.5240 C   0  0  0  0  0  0  0  0  0  0  0  0
   12.9875   29.1861   72.2934 C   0  0  0  0  0  0  0  0  0  0  0  0
   13.6431   30.2590   71.6815 C   0  0  0  0  0  0  0  0  0  0  0  0
   12.6115   31.5849   71.3950 S   0  0  0  0  0  0  0  0  0  0  0  0
   11.2780   30.7975   72.0763 C   0  0  0  0  0  0  0  0  0  0  0  0
   14.9949   30.4709   71.2191 C   0  0  0  0  0  0  0  0  0  0  0  0
   15.4287   30.1820   70.1120 O   0  0  0  0  0  0  0  0  0  0  0  0
   15.7793   30.9995   72.1908 O   0  0  0  0  0  0  0  0  0  0  0  0
   15.4123   31.2085   73.0272 H   0  0  0  0  0  0  0  0  0  0  0  0
   13.6262   27.9721   72.6488 N   0  0  0  0  0  0  0  0  0  0  0  0
   14.1867   27.7668   73.9184 C   0  0  0  0  0  0  0  0  0  0  0  0
   14.7496   26.7211   74.2575 O   0  0  0  0  0  0  0  0  0  0  0  0
   14.1050   28.9514   74.8901 C   0  0  0  0  0  0  0  0  0  0  0  0
   13.1160   28.7145   76.0434 C   0  0  0  0  0  0  0  0  0  0  0  0
   13.1533   29.8854   77.0331 C   0  0  0  0  0  0  0  0  0  0  0  0
   14.5713   30.0747   77.5998 C   0  0  0  0  0  0  0  0  0  0  0  0
   15.5864   30.2750   76.4710 C   0  0  0  0  0  0  0  0  0  0  0  0
   15.5223   29.1506   75.4370 C   0  0  0  0  0  0  0  0  0  0  0  0
   14.6365   31.2529   78.5782 C   0  0  0  0  0  0  0  0  0  0  0  0
   13.7054   26.9119   71.7228 N   0  0  0  0  0  0  0  0  0  0  0  0
   12.5185   26.6784   70.9087 C   0  0  0  0  0  0  0  0  0  0  0  0
   14.9771   26.8703   71.0093 C   0  0  0  0  0  0  0  0  0  0  0  0
   10.0059   31.4324   72.1451 C   0  0  0  0  0  0  0  0  0  0  0  0
    8.9393   31.9620   72.2749 C   0  0  0  0  0  0  0  0  0  0  0  0
    7.6337   32.6249   72.4628 C   0  0  0  0  0  0  0  0  0  0  0  0
    7.8775   33.9635   73.1786 C   0  0  0  0  0  0  0  0  0  0  0  0
    6.9409   32.8581   71.1098 C   0  0  0  0  0  0  0  0  0  0  0  0
    6.7371   31.7379   73.3471 C   0  0  0  0  0  0  0  0  0  0  0  0
 28 25  1  0  0  0
 25 27  1  0  0  0
 25 26  1  0  0  0
 25 24  1  0  0  0
 24 23  3  0  0  0
  4  5  1  0  0  0
  4  3  1  0  0  0
 19 16  1  0  0  0
 23  5  1  0  0  0
  7  6  2  0  0  0
  5  1  2  0  0  0
 15 16  1  0  0  0
 15 14  1  0  0  0
  6  3  1  0  0  0
  6  8  1  0  0  0
 16 17  1  0  0  0
  3  2  2  0  0  0
 17 18  1  0  0  0
  1  2  1  0  0  0
 14 13  1  0  0  0
  2 10  1  0  0  0
 13 18  1  0  0  0
 13 11  1  0  0  0
 10 11  1  0  0  0
 10 20  1  0  0  0
 11 12  2  0  0  0
 21 20  1  0  0  0
 20 22  1  0  0  0
  8  9  1  0  0  0
M  END
> <minimizedAffinity>
-5.46505

$$$$
4EO8_0S3_A_600


 28 29  0  0  0  0  0  0  0  0999 V2000
    8.6311   32.5643   72.7489 C   0  0  0  0  0  0  0  0  0  0  0  0
    7.6900   32.5023   73.8442 C   0  0  0  0  0  0  0  0  0  0  0  0
    8.1081   31.5390   74.7675 C   0  0  0  0  0  0  0  0  0  0  0  0
    9.5468   30.7559   74.2972 S   0  0  0  0  0  0  0  0  0  0  0  0
    9.6720   31.6654   72.8760 C   0  0  0  0  0  0  0  0  0  0  0  0
    7.5682   31.0506   76.0149 C   0  0  0  0  0  0  0  0  0  0  0  0
    7.1562   31.7403   76.9380 O   0  0  0  0  0  0  0  0  0  0  0  0
    7.6099   29.6970   76.0828 O   0  0  0  0  0  0  0  0  0  0  0  0
    7.9319   29.2012   75.3558 H   0  0  0  0  0  0  0  0  0  0  0  0
    6.5311   33.3009   74.0094 N   0  0  0  0  0  0  0  0  0  0  0  0
    6.5744   34.5626   74.6213 C   0  0  0  0  0  0  0  0  0  0  0  0
    5.5825   35.2812   74.7799 O   0  0  0  0  0  0  0  0  0  0  0  0
    7.9463   35.0123   75.1408 C   0  0  0  0  0  0  0  0  0  0  0  0
    8.3853   36.3732   74.5757 C   0  0  0  0  0  0  0  0  0  0  0  0
    9.7112   36.8154   75.2070 C   0  0  0  0  0  0  0  0  0  0  0  0
    9.5813   36.9096   76.7374 C   0  0  0  0  0  0  0  0  0  0  0  0
    9.1077   35.5778   77.3264 C   0  0  0  0  0  0  0  0  0  0  0  0
    7.8198   35.0852   76.6660 C   0  0  0  0  0  0  0  0  0  0  0  0
   10.9014   37.3320   77.3919 C   0  0  0  0  0  0  0  0  0  0  0  0
    5.2810   32.8464   73.5421 N   0  0  0  0  0  0  0  0  0  0  0  0
    5.2765   32.2124   72.2290 C   0  0  0  0  0  0  0  0  0  0  0  0
    4.4978   32.1707   74.5707 C   0  0  0  0  0  0  0  0  0  0  0  0
   10.7532   31.4696   71.9711 C   0  0  0  0  0  0  0  0  0  0  0  0
   11.6978   31.2696   71.2622 C   0  0  0  0  0  0  0  0  0  0  0  0
   12.8686   30.9979   70.4051 C   0  0  0  0  0  0  0  0  0  0  0  0
   12.3908   30.9581   68.9443 C   0  0  0  0  0  0  0  0  0  0  0  0
   13.9426   32.0830   70.5891 C   0  0  0  0  0  0  0  0  0  0  0  0
   13.4624   29.6261   70.7773 C   0  0  0  0  0  0  0  0  0  0  0  0
 28 25  1  0  0  0
 25 27  1  0  0  0
 25 26  1  0  0  0
 25 24  1  0  0  0
 24 23  3  0  0  0
  4  5  1  0  0  0
  4  3  1  0  0  0
 19 16  1  0  0  0
 23  5  1  0  0  0
  7  6  2  0  0  0
  5  1  2  0  0  0
 15 16  1  0  0  0
 15 14  1  0  0  0
  6  3  1  0  0  0
  6  8  1  0  0  0
 16 17  1  0  0  0
  3  2  2  0  0  0
 17 18  1  0  0  0
  1  2  1  0  0  0
 14 13  1  0  0  0
  2 10  1  0  0  0
 13 18  1  0  0  0
 13 11  1  0  0  0
 10 11  1  0  0  0
 10 20  1  0  0  0
 11 12  2  0  0  0
 21 20  1  0  0  0
 20 22  1  0  0  0
  8  9  1  0  0  0
M  END
> <minimizedAffinity>
-5.46174

$$$$
4EO8_0S3_A_600


 28 29  0  0  0  0  0  0  0  0999 V2000
    7.4792   33.8800   77.5370 C   0  0  0  0  0  0  0  0  0  0  0  0
    6.3329   34.5083   76.9202 C   0  0  0  0  0  0  0  0  0  0  0  0
    5.8466   33.6922   75.8943 C   0  0  0  0  0  0  0  0  0  0  0  0
    6.7587   32.2661   75.6979 S   0  0  0  0  0  0  0  0  0  0  0  0
    7.8104   32.6694   76.9604 C   0  0  0  0  0  0  0  0  0  0  0  0
    4.7575   33.8131   74.9533 C   0  0  0  0  0  0  0  0  0  0  0  0
    3.5905   33.5104   75.1628 O   0  0  0  0  0  0  0  0  0  0  0  0
    5.1842   34.2690   73.7496 O   0  0  0  0  0  0  0  0  0  0  0  0
    6.0859   34.4912   73.6256 H   0  0  0  0  0  0  0  0  0  0  0  0
    5.7433   35.7422   77.2917 N   0  0  0  0  0  0  0  0  0  0  0  0
    6.0013   36.9328   76.5957 C   0  0  0  0  0  0  0  0  0  0  0  0
    5.5033   38.0226   76.8952 O   0  0  0  0  0  0  0  0  0  0  0  0
    6.9944   36.8302   75.4308 C   0  0  0  0  0  0  0  0  0  0  0  0
    6.5596   37.6405   74.1984 C   0  0  0  0  0  0  0  0  0  0  0  0
    7.6370   37.5818   73.1086 C   0  0  0  0  0  0  0  0  0  0  0  0
    8.9765   38.1244   73.6369 C   0  0  0  0  0  0  0  0  0  0  0  0
    9.4173   37.3609   74.8889 C   0  0  0  0  0  0  0  0  0  0  0  0
    8.3320   37.3517   75.9657 C   0  0  0  0  0  0  0  0  0  0  0  0
   10.0742   38.0577   72.5690 C   0  0  0  0  0  0  0  0  0  0  0  0
    4.8535   35.8058   78.3834 N   0  0  0  0  0  0  0  0  0  0  0  0
    3.6172   35.0441   78.2513 C   0  0  0  0  0  0  0  0  0  0  0  0
    5.5245   35.6990   79.6743 C   0  0  0  0  0  0  0  0  0  0  0  0
    8.8837   31.8089   77.3260 C   0  0  0  0  0  0  0  0  0  0  0  0
    9.7478   31.0637   77.6906 C   0  0  0  0  0  0  0  0  0  0  0  0
   10.7913   30.1277   78.1536 C   0  0  0  0  0  0  0  0  0  0  0  0
   11.7930   30.9175   79.0118 C   0  0  0  0  0  0  0  0  0  0  0  0
   10.1719   28.9813   78.9703 C   0  0  0  0  0  0  0  0  0  0  0  0
   11.5265   29.5432   76.9328 C   0  0  0  0  0  0  0  0  0  0  0  0
 28 25  1  0  0  0
 25 27  1  0  0  0
 25 26  1  0  0  0
 25 24  1  0  0  0
 24 23  3  0  0  0
  4  5  1  0  0  0
  4  3  1  0  0  0
 19 16  1  0  0  0
 23  5  1  0  0  0
  7  6  2  0  0  0
  5  1  2  0  0  0
 15 16  1  0  0  0
 15 14  1  0  0  0
  6  3  1  0  0  0
  6  8  1  0  0  0
 16 17  1  0  0  0
  3  2  2  0  0  0
 17 18  1  0  0  0
  1  2  1  0  0  0
 14 13  1  0  0  0
  2 10  1  0  0  0
 13 18  1  0  0  0
 13 11  1  0  0  0
 10 11  1  0  0  0
 10 20  1  0  0  0
 11 12  2  0  0  0
 21 20  1  0  0  0
 20 22  1  0  0  0
  8  9  1  0  0  0
M  END
> <minimizedAffinity>
-5.38010

$$$$
4EO8_0S3_A_600


 28 29  0  0  0  0  0  0  0  0999 V2000
    9.3488   32.7007   74.4259 C   0  0  0  0  0  0  0  0  0  0  0  0
    9.1091   31.2767   74.3624 C   0  0  0  0  0  0  0  0  0  0  0  0
    7.9374   31.0303   73.6403 C   0  0  0  0  0  0  0  0  0  0  0  0
    7.1814   32.4600   73.1029 S   0  0  0  0  0  0  0  0  0  0  0  0
    8.3743   33.4441   73.7892 C   0  0  0  0  0  0  0  0  0  0  0  0
    7.2214   29.8293   73.2780 C   0  0  0  0  0  0  0  0  0  0  0  0
    6.0633   29.5670   73.5737 O   0  0  0  0  0  0  0  0  0  0  0  0
    8.0085   28.9653   72.5906 O   0  0  0  0  0  0  0  0  0  0  0  0
    8.8911   29.2004   72.3816 H   0  0  0  0  0  0  0  0  0  0  0  0
    9.9290   30.2563   74.9053 N   0  0  0  0  0  0  0  0  0  0  0  0
   11.0542   29.7628   74.2281 C   0  0  0  0  0  0  0  0  0  0  0  0
   11.7872   28.8747   74.6746 O   0  0  0  0  0  0  0  0  0  0  0  0
   11.3236   30.3640   72.8424 C   0  0  0  0  0  0  0  0  0  0  0  0
   12.4320   31.4296   72.8558 C   0  0  0  0  0  0  0  0  0  0  0  0
   12.7255   31.9184   71.4321 C   0  0  0  0  0  0  0  0  0  0  0  0
   13.1476   30.7457   70.5296 C   0  0  0  0  0  0  0  0  0  0  0  0
   12.0787   29.6493   70.5262 C   0  0  0  0  0  0  0  0  0  0  0  0
   11.7236   29.1914   71.9411 C   0  0  0  0  0  0  0  0  0  0  0  0
   13.4279   31.2085   69.0954 C   0  0  0  0  0  0  0  0  0  0  0  0
    9.6385   29.7080   76.1713 N   0  0  0  0  0  0  0  0  0  0  0  0
    9.2380   30.6542   77.2058 C   0  0  0  0  0  0  0  0  0  0  0  0
    8.8479   28.4844   76.0962 C   0  0  0  0  0  0  0  0  0  0  0  0
    8.3112   34.8617   73.6778 C   0  0  0  0  0  0  0  0  0  0  0  0
    8.2996   36.0590   73.6429 C   0  0  0  0  0  0  0  0  0  0  0  0
    8.3127   37.5349   73.6144 C   0  0  0  0  0  0  0  0  0  0  0  0
    9.6793   37.9890   73.0758 C   0  0  0  0  0  0  0  0  0  0  0  0
    7.1795   38.0732   72.7250 C   0  0  0  0  0  0  0  0  0  0  0  0
    8.1335   38.0716   75.0471 C   0  0  0  0  0  0  0  0  0  0  0  0
 28 25  1  0  0  0
 25 27  1  0  0  0
 25 26  1  0  0  0
 25 24  1  0  0  0
 24 23  3  0  0  0
  4  5  1  0  0  0
  4  3  1  0  0  0
 19 16  1  0  0  0
 23  5  1  0  0  0
  7  6  2  0  0  0
  5  1  2  0  0  0
 15 16  1  0  0  0
 15 14  1  0  0  0
  6  3  1  0  0  0
  6  8  1  0  0  0
 16 17  1  0  0  0
  3  2  2  0  0  0
 17 18  1  0  0  0
  1  2  1  0  0  0
 14 13  1  0  0  0
  2 10  1  0  0  0
 13 18  1  0  0  0
 13 11  1  0  0  0
 10 11  1  0  0  0
 10 20  1  0  0  0
 11 12  2  0  0  0
 21 20  1  0  0  0
 20 22  1  0  0  0
  8  9  1  0  0  0
M  END
> <minimizedAffinity>
-5.18314

$$$$
4EO8_0S3_A_600


 28 29  0  0  0  0  0  0  0  0999 V2000
    7.8667   31.5898   72.9829 C   0  0  0  0  0  0  0  0  0  0  0  0
    7.0970   31.4722   74.2007 C   0  0  0  0  0  0  0  0  0  0  0  0
    7.9281   31.0459   75.2412 C   0  0  0  0  0  0  0  0  0  0  0  0
    9.5359   30.7894   74.7377 S   0  0  0  0  0  0  0  0  0  0  0  0
    9.1937   31.2422   73.1438 C   0  0  0  0  0  0  0  0  0  0  0  0
    7.7088   30.7528   76.6384 C   0  0  0  0  0  0  0  0  0  0  0  0
    7.5017   31.5750   77.5207 O   0  0  0  0  0  0  0  0  0  0  0  0
    7.8071   29.4245   76.8927 O   0  0  0  0  0  0  0  0  0  0  0  0
    7.9663   28.8238   76.1915 H   0  0  0  0  0  0  0  0  0  0  0  0
    5.7203   31.7668   74.3626 N   0  0  0  0  0  0  0  0  0  0  0  0
    5.2490   33.0811   74.4999 C   0  0  0  0  0  0  0  0  0  0  0  0
    4.0565   33.3695   74.6428 O   0  0  0  0  0  0  0  0  0  0  0  0
    6.3172   34.1824   74.5065 C   0  0  0  0  0  0  0  0  0  0  0  0
    6.3064   35.0367   73.2281 C   0  0  0  0  0  0  0  0  0  0  0  0
    7.3232   36.1796   73.3362 C   0  0  0  0  0  0  0  0  0  0  0  0
    7.0158   37.0689   74.5538 C   0  0  0  0  0  0  0  0  0  0  0  0
    6.9820   36.2382   75.8398 C   0  0  0  0  0  0  0  0  0  0  0  0
    6.0210   35.0540   75.7314 C   0  0  0  0  0  0  0  0  0  0  0  0
    8.0319   38.2082   74.6927 C   0  0  0  0  0  0  0  0  0  0  0  0
    4.7671   30.7283   74.3767 N   0  0  0  0  0  0  0  0  0  0  0  0
    4.9752   29.6505   73.4169 C   0  0  0  0  0  0  0  0  0  0  0  0
    4.3986   30.3093   75.7246 C   0  0  0  0  0  0  0  0  0  0  0  0
   10.2084   31.2410   72.1456 C   0  0  0  0  0  0  0  0  0  0  0  0
   11.0902   31.1814   71.3370 C   0  0  0  0  0  0  0  0  0  0  0  0
   12.1788   31.0774   70.3453 C   0  0  0  0  0  0  0  0  0  0  0  0
   13.0300   29.8470   70.6994 C   0  0  0  0  0  0  0  0  0  0  0  0
   11.6097   30.9449   68.9228 C   0  0  0  0  0  0  0  0  0  0  0  0
   13.0600   32.3382   70.4252 C   0  0  0  0  0  0  0  0  0  0  0  0
 28 25  1  0  0  0
 25 27  1  0  0  0
 25 26  1  0  0  0
 25 24  1  0  0  0
 24 23  3  0  0  0
  4  5  1  0  0  0
  4  3  1  0  0  0
 19 16  1  0  0  0
 23  5  1  0  0  0
  7  6  2  0  0  0
  5  1  2  0  0  0
 15 16  1  0  0  0
 15 14  1  0  0  0
  6  3  1  0  0  0
  6  8  1  0  0  0
 16 17  1  0  0  0
  3  2  2  0  0  0
 17 18  1  0  0  0
  1  2  1  0  0  0
 14 13  1  0  0  0
  2 10  1  0  0  0
 13 18  1  0  0  0
 13 11  1  0  0  0
 10 11  1  0  0  0
 10 20  1  0  0  0
 11 12  2  0  0  0
 21 20  1  0  0  0
 20 22  1  0  0  0
  8  9  1  0  0  0
M  END
> <minimizedAffinity>
-5.14264

$$$$
4EO8_0S3_A_600


 28 29  0  0  0  0  0  0  0  0999 V2000
    8.9986   31.4034   73.7841 C   0  0  0  0  0  0  0  0  0  0  0  0
    7.6230   31.7308   74.0840 C   0  0  0  0  0  0  0  0  0  0  0  0
    7.0152   32.2833   72.9524 C   0  0  0  0  0  0  0  0  0  0  0  0
    8.0791   32.4069   71.6269 S   0  0  0  0  0  0  0  0  0  0  0  0
    9.3645   31.7277   72.4924 C   0  0  0  0  0  0  0  0  0  0  0  0
    5.6920   32.7932   72.6781 C   0  0  0  0  0  0  0  0  0  0  0  0
    4.8450   32.2534   71.9791 O   0  0  0  0  0  0  0  0  0  0  0  0
    5.4916   34.0028   73.2572 O   0  0  0  0  0  0  0  0  0  0  0  0
    6.1633   34.3859   73.7864 H   0  0  0  0  0  0  0  0  0  0  0  0
    6.9495   31.5097   75.3111 N   0  0  0  0  0  0  0  0  0  0  0  0
    7.1325   32.3437   76.4244 C   0  0  0  0  0  0  0  0  0  0  0  0
    6.5607   32.1768   77.5063 O   0  0  0  0  0  0  0  0  0  0  0  0
    8.1389   33.4886   76.2499 C   0  0  0  0  0  0  0  0  0  0  0  0
    7.4681   34.8319   75.9188 C   0  0  0  0  0  0  0  0  0  0  0  0
    8.5120   35.9537   75.8572 C   0  0  0  0  0  0  0  0  0  0  0  0
    9.2672   36.0692   77.1929 C   0  0  0  0  0  0  0  0  0  0  0  0
    9.9152   34.7337   77.5691 C   0  0  0  0  0  0  0  0  0  0  0  0
    8.9033   33.5876   77.5740 C   0  0  0  0  0  0  0  0  0  0  0  0
   10.3300   37.1729   77.1480 C   0  0  0  0  0  0  0  0  0  0  0  0
    6.0494   30.4329   75.4450 N   0  0  0  0  0  0  0  0  0  0  0  0
    4.6415   30.7394   75.2218 C   0  0  0  0  0  0  0  0  0  0  0  0
    6.5327   29.2038   74.8255 C   0  0  0  0  0  0  0  0  0  0  0  0
   10.6405   31.5432   71.8891 C   0  0  0  0  0  0  0  0  0  0  0  0
   11.7379   31.3618   71.4445 C   0  0  0  0  0  0  0  0  0  0  0  0
   13.0946   31.1157   70.9172 C   0  0  0  0  0  0  0  0  0  0  0  0
   13.0476   31.2735   69.3886 C   0  0  0  0  0  0  0  0  0  0  0  0
   14.1041   32.1020   71.5278 C   0  0  0  0  0  0  0  0  0  0  0  0
   13.5190   29.6754   71.2611 C   0  0  0  0  0  0  0  0  0  0  0  0
 28 25  1  0  0  0
 25 27  1  0  0  0
 25 26  1  0  0  0
 25 24  1  0  0  0
 24 23  3  0  0  0
  4  5  1  0  0  0
  4  3  1  0  0  0
 19 16  1  0  0  0
 23  5  1  0  0  0
  7  6  2  0  0  0
  5  1  2  0  0  0
 15 16  1  0  0  0
 15 14  1  0  0  0
  6  3  1  0  0  0
  6  8  1  0  0  0
 16 17  1  0  0  0
  3  2  2  0  0  0
 17 18  1  0  0  0
  1  2  1  0  0  0
 14 13  1  0  0  0
  2 10  1  0  0  0
 13 18  1  0  0  0
 13 11  1  0  0  0
 10 11  1  0  0  0
 10 20  1  0  0  0
 11 12  2  0  0  0
 21 20  1  0  0  0
 20 22  1  0  0  0
  8  9  1  0  0  0
M  END
> <minimizedAffinity>
-5.12774

$$$$
