8A3H_IDC_A_500


 32 34  0  0  0  0  0  0  0  0999 V2000
   61.4477   41.9201   36.6656 C   0  0  0  0  0  0  0  0  0  0  0  0
   60.3259   42.2875   35.7305 C   0  0  0  0  0  0  0  0  0  0  0  0
   60.4722   43.7276   35.2214 C   0  0  0  0  0  0  0  0  0  0  0  0
   61.0706   44.5918   36.3528 C   0  0  0  0  0  0  0  0  0  0  0  0
   62.5022   44.1727   36.6247 C   0  0  0  0  0  0  0  0  0  0  0  0
   60.1910   41.3431   34.6624 O   0  0  0  0  0  0  0  0  0  0  0  0
   59.2033   44.1520   34.8294 O   0  0  0  0  0  0  0  0  0  0  0  0
   62.4242   42.7662   37.0677 N   0  0  0  0  0  0  0  0  0  0  0  0
   61.6091   40.7548   37.2881 N   0  0  0  0  0  0  0  0  0  0  0  0
   62.7339   40.8279   38.1016 C   0  0  0  0  0  0  0  0  0  0  0  0
   63.2198   42.0882   37.9708 C   0  0  0  0  0  0  0  0  0  0  0  0
   60.9984   41.3456   34.1247 H   0  0  0  0  0  0  0  0  0  0  0  0
   58.5934   44.0847   35.5806 H   0  0  0  0  0  0  0  0  0  0  0  0
   63.2247   45.0017   37.7159 C   0  0  0  0  0  0  0  0  0  0  0  0
   62.3363   45.2244   38.8395 O   0  0  0  0  0  0  0  0  0  0  0  0
   61.5525   45.7113   38.5404 H   0  0  0  0  0  0  0  0  0  0  0  0
   61.0613   45.9686   35.9016 O   0  0  0  0  0  0  0  0  0  0  0  0
   60.5141   46.8679   36.8368 C   0  0  0  0  0  0  0  0  0  0  0  0
   60.9593   48.2548   36.4555 C   0  0  0  0  0  0  0  0  0  0  0  0
   60.2889   49.2685   37.3683 C   0  0  0  0  0  0  0  0  0  0  0  0
   58.7751   49.1116   37.2817 C   0  0  0  0  0  0  0  0  0  0  0  0
   58.4282   47.6516   37.6507 C   0  0  0  0  0  0  0  0  0  0  0  0
   62.3995   48.2943   36.5956 O   0  0  0  0  0  0  0  0  0  0  0  0
   60.6371   50.6095   36.9728 O   0  0  0  0  0  0  0  0  0  0  0  0
   58.1416   50.0048   38.2110 O   0  0  0  0  0  0  0  0  0  0  0  0
   59.0986   46.7772   36.7004 O   0  0  0  0  0  0  0  0  0  0  0  0
   62.6416   48.0759   37.5092 H   0  0  0  0  0  0  0  0  0  0  0  0
   60.3350   50.7675   36.0647 H   0  0  0  0  0  0  0  0  0  0  0  0
   58.4456   49.8048   39.1101 H   0  0  0  0  0  0  0  0  0  0  0  0
   56.9818   47.2990   37.5535 C   0  0  0  0  0  0  0  0  0  0  0  0
   56.2509   47.8890   38.6371 O   0  0  0  0  0  0  0  0  0  0  0  0
   56.5965   47.5553   39.4797 H   0  0  0  0  0  0  0  0  0  0  0  0
 18 19  1  0  0  0
 18 26  1  0  0  0
 18 17  1  0  0  0
 19 20  1  0  0  0
 19 23  1  0  0  0
 20 21  1  0  0  0
 20 24  1  0  0  0
 21 22  1  0  0  0
 21 25  1  0  0  0
 22 30  1  0  0  0
 22 26  1  0  0  0
 30 31  1  0  0  0
  1  2  1  0  0  0
  1  8  1  0  0  0
  1  9  2  0  0  0
  2  3  1  0  0  0
  2  6  1  0  0  0
  3  4  1  0  0  0
  3  7  1  0  0  0
  4  5  1  0  0  0
  4 17  1  0  0  0
  5 14  1  0  0  0
  5  8  1  0  0  0
 14 15  1  0  0  0
  8 11  1  0  0  0
  9 10  1  0  0  0
 10 11  2  0  0  0
 23 27  1  0  0  0
 24 28  1  0  0  0
 25 29  1  0  0  0
 31 32  1  0  0  0
  6 12  1  0  0  0
  7 13  1  0  0  0
 15 16  1  0  0  0
M  END
> <minimizedAffinity>
-9.26727

$$$$
8A3H_IDC_A_500


 32 34  0  0  0  0  0  0  0  0999 V2000
   61.0146   44.7035   36.6793 C   0  0  0  0  0  0  0  0  0  0  0  0
   61.5193   43.5274   35.8858 C   0  0  0  0  0  0  0  0  0  0  0  0
   61.0972   42.1987   36.5268 C   0  0  0  0  0  0  0  0  0  0  0  0
   61.1065   42.3672   38.0618 C   0  0  0  0  0  0  0  0  0  0  0  0
   60.0075   43.3219   38.4862 C   0  0  0  0  0  0  0  0  0  0  0  0
   61.1404   43.6119   34.5072 O   0  0  0  0  0  0  0  0  0  0  0  0
   61.9954   41.2288   36.0832 O   0  0  0  0  0  0  0  0  0  0  0  0
   60.3367   44.6116   37.8468 N   0  0  0  0  0  0  0  0  0  0  0  0
   61.2162   45.9897   36.4025 N   0  0  0  0  0  0  0  0  0  0  0  0
   60.6354   46.7641   37.4002 C   0  0  0  0  0  0  0  0  0  0  0  0
   60.1095   45.8962   38.3012 C   0  0  0  0  0  0  0  0  0  0  0  0
   60.1733   43.5869   34.4356 H   0  0  0  0  0  0  0  0  0  0  0  0
   62.8977   41.4880   36.3273 H   0  0  0  0  0  0  0  0  0  0  0  0
   59.8901   43.5371   40.0158 C   0  0  0  0  0  0  0  0  0  0  0  0
   61.2047   43.4960   40.6251 O   0  0  0  0  0  0  0  0  0  0  0  0
   61.6115   42.6314   40.4583 H   0  0  0  0  0  0  0  0  0  0  0  0
   60.8502   41.0660   38.6452 O   0  0  0  0  0  0  0  0  0  0  0  0
   61.9770   40.4897   39.2625 C   0  0  0  0  0  0  0  0  0  0  0  0
   61.4986   39.7192   40.4644 C   0  0  0  0  0  0  0  0  0  0  0  0
   62.6707   38.9795   41.0885 C   0  0  0  0  0  0  0  0  0  0  0  0
   63.3141   38.0706   40.0476 C   0  0  0  0  0  0  0  0  0  0  0  0
   63.7308   38.9476   38.8455 C   0  0  0  0  0  0  0  0  0  0  0  0
   60.9316   40.6784   41.3882 O   0  0  0  0  0  0  0  0  0  0  0  0
   62.2242   38.1708   42.1943 O   0  0  0  0  0  0  0  0  0  0  0  0
   64.4768   37.4402   40.6074 O   0  0  0  0  0  0  0  0  0  0  0  0
   62.5329   39.5812   38.3157 O   0  0  0  0  0  0  0  0  0  0  0  0
   61.6043   41.3358   41.6252 H   0  0  0  0  0  0  0  0  0  0  0  0
   61.5820   37.5165   41.8777 H   0  0  0  0  0  0  0  0  0  0  0  0
   65.1081   38.1198   40.8909 H   0  0  0  0  0  0  0  0  0  0  0  0
   64.3227   38.2062   37.6940 C   0  0  0  0  0  0  0  0  0  0  0  0
   64.1284   36.7948   37.8569 O   0  0  0  0  0  0  0  0  0  0  0  0
   64.5630   36.5007   38.6727 H   0  0  0  0  0  0  0  0  0  0  0  0
 18 19  1  0  0  0
 18 26  1  0  0  0
 18 17  1  0  0  0
 19 20  1  0  0  0
 19 23  1  0  0  0
 20 21  1  0  0  0
 20 24  1  0  0  0
 21 22  1  0  0  0
 21 25  1  0  0  0
 22 30  1  0  0  0
 22 26  1  0  0  0
 30 31  1  0  0  0
  1  2  1  0  0  0
  1  8  1  0  0  0
  1  9  2  0  0  0
  2  3  1  0  0  0
  2  6  1  0  0  0
  3  4  1  0  0  0
  3  7  1  0  0  0
  4  5  1  0  0  0
  4 17  1  0  0  0
  5 14  1  0  0  0
  5  8  1  0  0  0
 14 15  1  0  0  0
  8 11  1  0  0  0
  9 10  1  0  0  0
 10 11  2  0  0  0
 23 27  1  0  0  0
 24 28  1  0  0  0
 25 29  1  0  0  0
 31 32  1  0  0  0
  6 12  1  0  0  0
  7 13  1  0  0  0
 15 16  1  0  0  0
M  END
> <minimizedAffinity>
-9.09465

$$$$
8A3H_IDC_A_500


 32 34  0  0  0  0  0  0  0  0999 V2000
   60.6449   40.7845   40.3841 C   0  0  0  0  0  0  0  0  0  0  0  0
   59.5502   41.7979   40.5902 C   0  0  0  0  0  0  0  0  0  0  0  0
   59.3671   42.6823   39.3497 C   0  0  0  0  0  0  0  0  0  0  0  0
   60.7494   42.9144   38.7016 C   0  0  0  0  0  0  0  0  0  0  0  0
   61.2781   41.6149   38.1263 C   0  0  0  0  0  0  0  0  0  0  0  0
   58.3256   41.1830   41.0065 O   0  0  0  0  0  0  0  0  0  0  0  0
   58.7645   43.8646   39.7777 O   0  0  0  0  0  0  0  0  0  0  0  0
   61.4210   40.7026   39.2786 N   0  0  0  0  0  0  0  0  0  0  0  0
   61.0615   39.8794   41.2665 N   0  0  0  0  0  0  0  0  0  0  0  0
   62.1225   39.1677   40.7188 C   0  0  0  0  0  0  0  0  0  0  0  0
   62.3487   39.7015   39.4918 C   0  0  0  0  0  0  0  0  0  0  0  0
   58.0098   40.5870   40.3094 H   0  0  0  0  0  0  0  0  0  0  0  0
   59.3196   44.2843   40.4534 H   0  0  0  0  0  0  0  0  0  0  0  0
   62.6457   41.7322   37.4082 C   0  0  0  0  0  0  0  0  0  0  0  0
   62.5042   42.5143   36.1960 O   0  0  0  0  0  0  0  0  0  0  0  0
   61.8724   42.0791   35.6024 H   0  0  0  0  0  0  0  0  0  0  0  0
   60.5720   43.8675   37.6249 O   0  0  0  0  0  0  0  0  0  0  0  0
   60.7266   45.2090   38.0241 C   0  0  0  0  0  0  0  0  0  0  0  0
   61.8581   45.7988   37.2248 C   0  0  0  0  0  0  0  0  0  0  0  0
   61.9770   47.2815   37.5372 C   0  0  0  0  0  0  0  0  0  0  0  0
   60.6506   47.9735   37.2444 C   0  0  0  0  0  0  0  0  0  0  0  0
   59.5557   47.2714   38.0786 C   0  0  0  0  0  0  0  0  0  0  0  0
   63.0612   45.0858   37.5980 O   0  0  0  0  0  0  0  0  0  0  0  0
   63.0020   47.8864   36.7251 O   0  0  0  0  0  0  0  0  0  0  0  0
   60.7312   49.3560   37.6249 O   0  0  0  0  0  0  0  0  0  0  0  0
   59.5141   45.8731   37.6786 O   0  0  0  0  0  0  0  0  0  0  0  0
   63.2080   45.1765   38.5525 H   0  0  0  0  0  0  0  0  0  0  0  0
   62.7722   47.7878   35.7879 H   0  0  0  0  0  0  0  0  0  0  0  0
   60.9376   49.4195   38.5706 H   0  0  0  0  0  0  0  0  0  0  0  0
   58.1699   47.7808   37.8640 C   0  0  0  0  0  0  0  0  0  0  0  0
   58.0842   48.4818   36.6159 O   0  0  0  0  0  0  0  0  0  0  0  0
   58.6946   49.2356   36.6258 H   0  0  0  0  0  0  0  0  0  0  0  0
 18 19  1  0  0  0
 18 26  1  0  0  0
 18 17  1  0  0  0
 19 20  1  0  0  0
 19 23  1  0  0  0
 20 21  1  0  0  0
 20 24  1  0  0  0
 21 22  1  0  0  0
 21 25  1  0  0  0
 22 30  1  0  0  0
 22 26  1  0  0  0
 30 31  1  0  0  0
  1  2  1  0  0  0
  1  8  1  0  0  0
  1  9  2  0  0  0
  2  3  1  0  0  0
  2  6  1  0  0  0
  3  4  1  0  0  0
  3  7  1  0  0  0
  4  5  1  0  0  0
  4 17  1  0  0  0
  5 14  1  0  0  0
  5  8  1  0  0  0
 14 15  1  0  0  0
  8 11  1  0  0  0
  9 10  1  0  0  0
 10 11  2  0  0  0
 23 27  1  0  0  0
 24 28  1  0  0  0
 25 29  1  0  0  0
 31 32  1  0  0  0
  6 12  1  0  0  0
  7 13  1  0  0  0
 15 16  1  0  0  0
M  END
> <minimizedAffinity>
-8.08694

$$$$
8A3H_IDC_A_500


 32 34  0  0  0  0  0  0  0  0999 V2000
   60.2560   49.5137   39.2160 C   0  0  0  0  0  0  0  0  0  0  0  0
   60.1363   49.0694   37.7821 C   0  0  0  0  0  0  0  0  0  0  0  0
   59.5434   47.6577   37.6825 C   0  0  0  0  0  0  0  0  0  0  0  0
   60.0466   46.8261   38.8826 C   0  0  0  0  0  0  0  0  0  0  0  0
   59.4529   47.3617   40.1710 C   0  0  0  0  0  0  0  0  0  0  0  0
   59.4172   50.0197   36.9877 O   0  0  0  0  0  0  0  0  0  0  0  0
   59.9443   47.1332   36.4543 O   0  0  0  0  0  0  0  0  0  0  0  0
   59.9501   48.7472   40.2884 N   0  0  0  0  0  0  0  0  0  0  0  0
   60.7412   50.6760   39.6462 N   0  0  0  0  0  0  0  0  0  0  0  0
   60.7316   50.6842   41.0362 C   0  0  0  0  0  0  0  0  0  0  0  0
   60.2565   49.4733   41.4229 C   0  0  0  0  0  0  0  0  0  0  0  0
   58.5091   50.0974   37.3197 H   0  0  0  0  0  0  0  0  0  0  0  0
   60.9129   47.1328   36.4036 H   0  0  0  0  0  0  0  0  0  0  0  0
   59.8531   46.5767   41.4451 C   0  0  0  0  0  0  0  0  0  0  0  0
   59.0575   45.3700   41.5548 O   0  0  0  0  0  0  0  0  0  0  0  0
   58.1183   45.6059   41.6114 H   0  0  0  0  0  0  0  0  0  0  0  0
   59.5961   45.4628   38.6883 O   0  0  0  0  0  0  0  0  0  0  0  0
   60.5734   44.6171   38.1296 C   0  0  0  0  0  0  0  0  0  0  0  0
   60.5855   43.3396   38.9265 C   0  0  0  0  0  0  0  0  0  0  0  0
   61.5413   42.3506   38.2795 C   0  0  0  0  0  0  0  0  0  0  0  0
   61.1296   42.1150   36.8308 C   0  0  0  0  0  0  0  0  0  0  0  0
   61.1096   43.4845   36.1153 C   0  0  0  0  0  0  0  0  0  0  0  0
   61.0094   43.6778   40.2685 O   0  0  0  0  0  0  0  0  0  0  0  0
   61.5111   41.0909   38.9783 O   0  0  0  0  0  0  0  0  0  0  0  0
   62.0831   41.2529   36.1903 O   0  0  0  0  0  0  0  0  0  0  0  0
   60.1471   44.3344   36.7995 O   0  0  0  0  0  0  0  0  0  0  0  0
   61.8863   44.0912   40.2361 H   0  0  0  0  0  0  0  0  0  0  0  0
   60.6151   40.7213   38.9402 H   0  0  0  0  0  0  0  0  0  0  0  0
   62.9621   41.6617   36.2238 H   0  0  0  0  0  0  0  0  0  0  0  0
   60.6600   43.4510   34.6931 C   0  0  0  0  0  0  0  0  0  0  0  0
   60.2815   42.1188   34.3212 O   0  0  0  0  0  0  0  0  0  0  0  0
   61.0432   41.5265   34.4206 H   0  0  0  0  0  0  0  0  0  0  0  0
 18 19  1  0  0  0
 18 26  1  0  0  0
 18 17  1  0  0  0
 19 20  1  0  0  0
 19 23  1  0  0  0
 20 21  1  0  0  0
 20 24  1  0  0  0
 21 22  1  0  0  0
 21 25  1  0  0  0
 22 30  1  0  0  0
 22 26  1  0  0  0
 30 31  1  0  0  0
  1  2  1  0  0  0
  1  8  1  0  0  0
  1  9  2  0  0  0
  2  3  1  0  0  0
  2  6  1  0  0  0
  3  4  1  0  0  0
  3  7  1  0  0  0
  4  5  1  0  0  0
  4 17  1  0  0  0
  5 14  1  0  0  0
  5  8  1  0  0  0
 14 15  1  0  0  0
  8 11  1  0  0  0
  9 10  1  0  0  0
 10 11  2  0  0  0
 23 27  1  0  0  0
 24 28  1  0  0  0
 25 29  1  0  0  0
 31 32  1  0  0  0
  6 12  1  0  0  0
  7 13  1  0  0  0
 15 16  1  0  0  0
M  END
> <minimizedAffinity>
-7.85816

$$$$
8A3H_IDC_A_500


 32 34  0  0  0  0  0  0  0  0999 V2000
   61.1237   41.6733   38.8073 C   0  0  0  0  0  0  0  0  0  0  0  0
   60.0532   42.2815   39.6742 C   0  0  0  0  0  0  0  0  0  0  0  0
   59.3968   43.4869   38.9881 C   0  0  0  0  0  0  0  0  0  0  0  0
   60.4711   44.2305   38.1648 C   0  0  0  0  0  0  0  0  0  0  0  0
   60.9203   43.3701   36.9998 C   0  0  0  0  0  0  0  0  0  0  0  0
   59.0933   41.3071   40.0990 O   0  0  0  0  0  0  0  0  0  0  0  0
   58.8432   44.2770   39.9948 O   0  0  0  0  0  0  0  0  0  0  0  0
   61.5136   42.1620   37.6072 N   0  0  0  0  0  0  0  0  0  0  0  0
   61.8888   40.6275   39.1116 N   0  0  0  0  0  0  0  0  0  0  0  0
   62.7885   40.4077   38.0750 C   0  0  0  0  0  0  0  0  0  0  0  0
   62.5584   41.3791   37.1558 C   0  0  0  0  0  0  0  0  0  0  0  0
   58.6356   40.9450   39.3243 H   0  0  0  0  0  0  0  0  0  0  0  0
   59.5378   44.5389   40.6192 H   0  0  0  0  0  0  0  0  0  0  0  0
   61.9703   44.0312   36.0722 C   0  0  0  0  0  0  0  0  0  0  0  0
   62.8353   44.9021   36.8433 O   0  0  0  0  0  0  0  0  0  0  0  0
   62.3037   45.5963   37.2634 H   0  0  0  0  0  0  0  0  0  0  0  0
   59.8651   45.4412   37.6491 O   0  0  0  0  0  0  0  0  0  0  0  0
   60.3188   46.6154   38.2800 C   0  0  0  0  0  0  0  0  0  0  0  0
   60.3238   47.7164   37.2530 C   0  0  0  0  0  0  0  0  0  0  0  0
   60.6899   49.0303   37.9238 C   0  0  0  0  0  0  0  0  0  0  0  0
   59.7129   49.3140   39.0592 C   0  0  0  0  0  0  0  0  0  0  0  0
   59.7542   48.1132   40.0309 C   0  0  0  0  0  0  0  0  0  0  0  0
   61.2958   47.3540   36.2436 O   0  0  0  0  0  0  0  0  0  0  0  0
   60.6241   50.1143   36.9770 O   0  0  0  0  0  0  0  0  0  0  0  0
   60.1102   50.5068   39.7533 O   0  0  0  0  0  0  0  0  0  0  0  0
   59.3627   46.9233   39.2908 O   0  0  0  0  0  0  0  0  0  0  0  0
   62.1659   47.2428   36.6577 H   0  0  0  0  0  0  0  0  0  0  0  0
   59.7207   50.1875   36.6315 H   0  0  0  0  0  0  0  0  0  0  0  0
   61.0062   50.3920   40.1067 H   0  0  0  0  0  0  0  0  0  0  0  0
   58.8026   48.1915   41.1773 C   0  0  0  0  0  0  0  0  0  0  0  0
   58.2111   46.9084   41.4227 O   0  0  0  0  0  0  0  0  0  0  0  0
   57.7253   46.6201   40.6342 H   0  0  0  0  0  0  0  0  0  0  0  0
 18 19  1  0  0  0
 18 26  1  0  0  0
 18 17  1  0  0  0
 19 20  1  0  0  0
 19 23  1  0  0  0
 20 21  1  0  0  0
 20 24  1  0  0  0
 21 22  1  0  0  0
 21 25  1  0  0  0
 22 30  1  0  0  0
 22 26  1  0  0  0
 30 31  1  0  0  0
  1  2  1  0  0  0
  1  8  1  0  0  0
  1  9  2  0  0  0
  2  3  1  0  0  0
  2  6  1  0  0  0
  3  4  1  0  0  0
  3  7  1  0  0  0
  4  5  1  0  0  0
  4 17  1  0  0  0
  5 14  1  0  0  0
  5  8  1  0  0  0
 14 15  1  0  0  0
  8 11  1  0  0  0
  9 10  1  0  0  0
 10 11  2  0  0  0
 23 27  1  0  0  0
 24 28  1  0  0  0
 25 29  1  0  0  0
 31 32  1  0  0  0
  6 12  1  0  0  0
  7 13  1  0  0  0
 15 16  1  0  0  0
M  END
> <minimizedAffinity>
-7.31718

$$$$
8A3H_IDC_A_500


 32 34  0  0  0  0  0  0  0  0999 V2000
   55.9251   42.5587   40.8488 C   0  0  0  0  0  0  0  0  0  0  0  0
   56.9755   41.4977   40.6528 C   0  0  0  0  0  0  0  0  0  0  0  0
   58.3859   42.1020   40.6490 C   0  0  0  0  0  0  0  0  0  0  0  0
   58.3238   43.4939   39.9830 C   0  0  0  0  0  0  0  0  0  0  0  0
   57.5378   44.4527   40.8560 C   0  0  0  0  0  0  0  0  0  0  0  0
   56.8415   40.4329   41.6011 O   0  0  0  0  0  0  0  0  0  0  0  0
   59.2095   41.2100   39.9633 O   0  0  0  0  0  0  0  0  0  0  0  0
   56.1771   43.8852   40.9394 N   0  0  0  0  0  0  0  0  0  0  0  0
   54.6081   42.3706   40.8878 N   0  0  0  0  0  0  0  0  0  0  0  0
   53.9787   43.6016   41.0320 C   0  0  0  0  0  0  0  0  0  0  0  0
   54.9629   44.5358   41.0431 C   0  0  0  0  0  0  0  0  0  0  0  0
   56.9759   40.7791   42.4972 H   0  0  0  0  0  0  0  0  0  0  0  0
   58.8627   41.0728   39.0678 H   0  0  0  0  0  0  0  0  0  0  0  0
   57.4441   45.8992   40.3095 C   0  0  0  0  0  0  0  0  0  0  0  0
   58.5774   46.6776   40.7688 O   0  0  0  0  0  0  0  0  0  0  0  0
   58.5785   46.7060   41.7384 H   0  0  0  0  0  0  0  0  0  0  0  0
   59.6834   43.9788   39.8579 O   0  0  0  0  0  0  0  0  0  0  0  0
   60.0667   44.2557   38.5316 C   0  0  0  0  0  0  0  0  0  0  0  0
   61.3304   45.0728   38.5795 C   0  0  0  0  0  0  0  0  0  0  0  0
   61.8456   45.2883   37.1659 C   0  0  0  0  0  0  0  0  0  0  0  0
   62.0640   43.9393   36.4902 C   0  0  0  0  0  0  0  0  0  0  0  0
   60.7257   43.1678   36.5291 C   0  0  0  0  0  0  0  0  0  0  0  0
   61.0015   46.3306   39.2156 O   0  0  0  0  0  0  0  0  0  0  0  0
   63.0979   46.0004   37.1896 O   0  0  0  0  0  0  0  0  0  0  0  0
   62.4626   44.1402   35.1252 O   0  0  0  0  0  0  0  0  0  0  0  0
   60.3460   42.9977   37.9233 O   0  0  0  0  0  0  0  0  0  0  0  0
   60.3031   46.7755   38.7105 H   0  0  0  0  0  0  0  0  0  0  0  0
   63.7552   45.4824   37.6800 H   0  0  0  0  0  0  0  0  0  0  0  0
   61.7744   44.6386   34.6574 H   0  0  0  0  0  0  0  0  0  0  0  0
   60.7724   41.7873   35.9653 C   0  0  0  0  0  0  0  0  0  0  0  0
   62.0681   41.2084   36.1710 O   0  0  0  0  0  0  0  0  0  0  0  0
   62.7384   41.7494   35.7250 H   0  0  0  0  0  0  0  0  0  0  0  0
 18 19  1  0  0  0
 18 26  1  0  0  0
 18 17  1  0  0  0
 19 20  1  0  0  0
 19 23  1  0  0  0
 20 21  1  0  0  0
 20 24  1  0  0  0
 21 22  1  0  0  0
 21 25  1  0  0  0
 22 30  1  0  0  0
 22 26  1  0  0  0
 30 31  1  0  0  0
  1  2  1  0  0  0
  1  8  1  0  0  0
  1  9  2  0  0  0
  2  3  1  0  0  0
  2  6  1  0  0  0
  3  4  1  0  0  0
  3  7  1  0  0  0
  4  5  1  0  0  0
  4 17  1  0  0  0
  5 14  1  0  0  0
  5  8  1  0  0  0
 14 15  1  0  0  0
  8 11  1  0  0  0
  9 10  1  0  0  0
 10 11  2  0  0  0
 23 27  1  0  0  0
 24 28  1  0  0  0
 25 29  1  0  0  0
 31 32  1  0  0  0
  6 12  1  0  0  0
  7 13  1  0  0  0
 15 16  1  0  0  0
M  END
> <minimizedAffinity>
-7.21289

$$$$
8A3H_IDC_A_500


 32 34  0  0  0  0  0  0  0  0999 V2000
   57.7943   41.8228   40.4971 C   0  0  0  0  0  0  0  0  0  0  0  0
   59.2775   41.7379   40.2512 C   0  0  0  0  0  0  0  0  0  0  0  0
   59.9647   43.0850   40.5111 C   0  0  0  0  0  0  0  0  0  0  0  0
   59.0068   44.2177   40.0823 C   0  0  0  0  0  0  0  0  0  0  0  0
   57.8041   44.2580   41.0048 C   0  0  0  0  0  0  0  0  0  0  0  0
   59.8799   40.6677   40.9881 O   0  0  0  0  0  0  0  0  0  0  0  0
   61.1565   43.0807   39.7874 O   0  0  0  0  0  0  0  0  0  0  0  0
   57.1326   42.9539   40.8347 N   0  0  0  0  0  0  0  0  0  0  0  0
   56.9105   40.8383   40.3514 N   0  0  0  0  0  0  0  0  0  0  0  0
   55.6382   41.3278   40.6235 C   0  0  0  0  0  0  0  0  0  0  0  0
   55.7874   42.6472   40.9032 C   0  0  0  0  0  0  0  0  0  0  0  0
   59.7759   40.8310   41.9386 H   0  0  0  0  0  0  0  0  0  0  0  0
   60.9635   42.9384   38.8475 H   0  0  0  0  0  0  0  0  0  0  0  0
   56.7890   45.3874   40.6984 C   0  0  0  0  0  0  0  0  0  0  0  0
   57.1784   46.6040   41.3834 O   0  0  0  0  0  0  0  0  0  0  0  0
   57.1947   46.4453   42.3402 H   0  0  0  0  0  0  0  0  0  0  0  0
   59.7300   45.4679   40.1977 O   0  0  0  0  0  0  0  0  0  0  0  0
   60.0490   46.0547   38.9581 C   0  0  0  0  0  0  0  0  0  0  0  0
   60.0374   47.5492   39.1407 C   0  0  0  0  0  0  0  0  0  0  0  0
   60.4980   48.2179   37.8558 C   0  0  0  0  0  0  0  0  0  0  0  0
   61.8811   47.7003   37.4777 C   0  0  0  0  0  0  0  0  0  0  0  0
   61.7943   46.1624   37.3549 C   0  0  0  0  0  0  0  0  0  0  0  0
   58.6803   47.9281   39.4722 O   0  0  0  0  0  0  0  0  0  0  0  0
   60.5717   49.6463   38.0302 O   0  0  0  0  0  0  0  0  0  0  0  0
   62.2799   48.2606   36.2168 O   0  0  0  0  0  0  0  0  0  0  0  0
   61.3730   45.6325   38.6428 O   0  0  0  0  0  0  0  0  0  0  0  0
   58.0833   47.6468   38.7614 H   0  0  0  0  0  0  0  0  0  0  0  0
   61.2103   49.8540   38.7301 H   0  0  0  0  0  0  0  0  0  0  0  0
   61.6351   48.0144   35.5352 H   0  0  0  0  0  0  0  0  0  0  0  0
   63.0840   45.4761   37.0526 C   0  0  0  0  0  0  0  0  0  0  0  0
   63.4143   44.5525   38.0986 O   0  0  0  0  0  0  0  0  0  0  0  0
   63.5063   45.0324   38.9366 H   0  0  0  0  0  0  0  0  0  0  0  0
 18 19  1  0  0  0
 18 26  1  0  0  0
 18 17  1  0  0  0
 19 20  1  0  0  0
 19 23  1  0  0  0
 20 21  1  0  0  0
 20 24  1  0  0  0
 21 22  1  0  0  0
 21 25  1  0  0  0
 22 30  1  0  0  0
 22 26  1  0  0  0
 30 31  1  0  0  0
  1  2  1  0  0  0
  1  8  1  0  0  0
  1  9  2  0  0  0
  2  3  1  0  0  0
  2  6  1  0  0  0
  3  4  1  0  0  0
  3  7  1  0  0  0
  4  5  1  0  0  0
  4 17  1  0  0  0
  5 14  1  0  0  0
  5  8  1  0  0  0
 14 15  1  0  0  0
  8 11  1  0  0  0
  9 10  1  0  0  0
 10 11  2  0  0  0
 23 27  1  0  0  0
 24 28  1  0  0  0
 25 29  1  0  0  0
 31 32  1  0  0  0
  6 12  1  0  0  0
  7 13  1  0  0  0
 15 16  1  0  0  0
M  END
> <minimizedAffinity>
-7.17347

$$$$
8A3H_IDC_A_500


 32 34  0  0  0  0  0  0  0  0999 V2000
   60.2318   49.3092   39.0608 C   0  0  0  0  0  0  0  0  0  0  0  0
   60.8959   48.5701   37.9293 C   0  0  0  0  0  0  0  0  0  0  0  0
   60.1695   47.2545   37.6191 C   0  0  0  0  0  0  0  0  0  0  0  0
   59.6378   46.6614   38.9420 C   0  0  0  0  0  0  0  0  0  0  0  0
   58.5372   47.5421   39.5009 C   0  0  0  0  0  0  0  0  0  0  0  0
   61.0471   49.3957   36.7689 O   0  0  0  0  0  0  0  0  0  0  0  0
   61.0891   46.4215   36.9832 O   0  0  0  0  0  0  0  0  0  0  0  0
   59.1737   48.8478   39.7668 N   0  0  0  0  0  0  0  0  0  0  0  0
   60.6187   50.4714   39.5816 N   0  0  0  0  0  0  0  0  0  0  0  0
   59.7792   50.7947   40.6413 C   0  0  0  0  0  0  0  0  0  0  0  0
   58.8983   49.7691   40.7586 C   0  0  0  0  0  0  0  0  0  0  0  0
   60.1721   49.6557   36.4408 H   0  0  0  0  0  0  0  0  0  0  0  0
   61.8599   46.2926   37.5578 H   0  0  0  0  0  0  0  0  0  0  0  0
   57.8934   47.0231   40.8108 C   0  0  0  0  0  0  0  0  0  0  0  0
   56.8956   46.0160   40.5082 O   0  0  0  0  0  0  0  0  0  0  0  0
   56.2044   46.4035   39.9487 H   0  0  0  0  0  0  0  0  0  0  0  0
   59.0884   45.3541   38.6444 O   0  0  0  0  0  0  0  0  0  0  0  0
   59.9312   44.2879   39.0125 C   0  0  0  0  0  0  0  0  0  0  0  0
   59.0642   43.1829   39.5548 C   0  0  0  0  0  0  0  0  0  0  0  0
   59.9246   41.9649   39.8490 C   0  0  0  0  0  0  0  0  0  0  0  0
   60.6618   41.5422   38.5834 C   0  0  0  0  0  0  0  0  0  0  0  0
   61.4856   42.7523   38.0885 C   0  0  0  0  0  0  0  0  0  0  0  0
   58.4363   43.6848   40.7585 O   0  0  0  0  0  0  0  0  0  0  0  0
   59.1060   40.8661   40.2947 O   0  0  0  0  0  0  0  0  0  0  0  0
   61.5452   40.4493   38.8795 O   0  0  0  0  0  0  0  0  0  0  0  0
   60.5617   43.8424   37.8146 O   0  0  0  0  0  0  0  0  0  0  0  0
   59.1200   43.9514   41.3928 H   0  0  0  0  0  0  0  0  0  0  0  0
   58.4714   40.6327   39.5991 H   0  0  0  0  0  0  0  0  0  0  0  0
   62.1811   40.7226   39.5591 H   0  0  0  0  0  0  0  0  0  0  0  0
   62.2254   42.5366   36.8110 C   0  0  0  0  0  0  0  0  0  0  0  0
   61.9738   41.2184   36.3057 O   0  0  0  0  0  0  0  0  0  0  0  0
   62.2732   40.5612   36.9533 H   0  0  0  0  0  0  0  0  0  0  0  0
 18 19  1  0  0  0
 18 26  1  0  0  0
 18 17  1  0  0  0
 19 20  1  0  0  0
 19 23  1  0  0  0
 20 21  1  0  0  0
 20 24  1  0  0  0
 21 22  1  0  0  0
 21 25  1  0  0  0
 22 30  1  0  0  0
 22 26  1  0  0  0
 30 31  1  0  0  0
  1  2  1  0  0  0
  1  8  1  0  0  0
  1  9  2  0  0  0
  2  3  1  0  0  0
  2  6  1  0  0  0
  3  4  1  0  0  0
  3  7  1  0  0  0
  4  5  1  0  0  0
  4 17  1  0  0  0
  5 14  1  0  0  0
  5  8  1  0  0  0
 14 15  1  0  0  0
  8 11  1  0  0  0
  9 10  1  0  0  0
 10 11  2  0  0  0
 23 27  1  0  0  0
 24 28  1  0  0  0
 25 29  1  0  0  0
 31 32  1  0  0  0
  6 12  1  0  0  0
  7 13  1  0  0  0
 15 16  1  0  0  0
M  END
> <minimizedAffinity>
-7.09519

$$$$
8A3H_IDC_A_500


 32 34  0  0  0  0  0  0  0  0999 V2000
   57.9243   47.9870   38.1751 C   0  0  0  0  0  0  0  0  0  0  0  0
   57.4643   46.7442   38.8902 C   0  0  0  0  0  0  0  0  0  0  0  0
   58.6427   46.0017   39.5339 C   0  0  0  0  0  0  0  0  0  0  0  0
   59.8792   46.1548   38.6215 C   0  0  0  0  0  0  0  0  0  0  0  0
   60.3422   47.5987   38.6121 C   0  0  0  0  0  0  0  0  0  0  0  0
   56.4191   47.0247   39.8284 O   0  0  0  0  0  0  0  0  0  0  0  0
   58.2490   44.6737   39.6939 O   0  0  0  0  0  0  0  0  0  0  0  0
   59.2159   48.3704   38.0495 N   0  0  0  0  0  0  0  0  0  0  0  0
   57.1573   48.8443   37.5055 N   0  0  0  0  0  0  0  0  0  0  0  0
   57.9618   49.8299   36.9455 C   0  0  0  0  0  0  0  0  0  0  0  0
   59.2398   49.5135   37.2742 C   0  0  0  0  0  0  0  0  0  0  0  0
   56.7539   47.6203   40.5169 H   0  0  0  0  0  0  0  0  0  0  0  0
   58.0039   44.3030   38.8317 H   0  0  0  0  0  0  0  0  0  0  0  0
   61.6083   47.8684   37.7612 C   0  0  0  0  0  0  0  0  0  0  0  0
   61.5060   47.1826   36.4882 O   0  0  0  0  0  0  0  0  0  0  0  0
   61.4257   46.2280   36.6407 H   0  0  0  0  0  0  0  0  0  0  0  0
   60.9329   45.3266   39.1720 O   0  0  0  0  0  0  0  0  0  0  0  0
   61.3536   44.2966   38.3090 C   0  0  0  0  0  0  0  0  0  0  0  0
   60.7763   43.0037   38.8210 C   0  0  0  0  0  0  0  0  0  0  0  0
   61.1051   41.8839   37.8472 C   0  0  0  0  0  0  0  0  0  0  0  0
   60.5729   42.2376   36.4632 C   0  0  0  0  0  0  0  0  0  0  0  0
   61.1912   43.5920   36.0496 C   0  0  0  0  0  0  0  0  0  0  0  0
   61.3648   42.7586   40.1205 O   0  0  0  0  0  0  0  0  0  0  0  0
   60.4956   40.6502   38.2745 O   0  0  0  0  0  0  0  0  0  0  0  0
   60.9615   41.2252   35.5216 O   0  0  0  0  0  0  0  0  0  0  0  0
   60.7906   44.5870   37.0326 O   0  0  0  0  0  0  0  0  0  0  0  0
   62.3300   42.7141   40.0352 H   0  0  0  0  0  0  0  0  0  0  0  0
   59.5321   40.7586   38.3034 H   0  0  0  0  0  0  0  0  0  0  0  0
   61.9290   41.1592   35.4988 H   0  0  0  0  0  0  0  0  0  0  0  0
   60.7250   44.1283   34.7378 C   0  0  0  0  0  0  0  0  0  0  0  0
   59.2947   44.2296   34.7206 O   0  0  0  0  0  0  0  0  0  0  0  0
   58.9067   43.3504   34.8528 H   0  0  0  0  0  0  0  0  0  0  0  0
 18 19  1  0  0  0
 18 26  1  0  0  0
 18 17  1  0  0  0
 19 20  1  0  0  0
 19 23  1  0  0  0
 20 21  1  0  0  0
 20 24  1  0  0  0
 21 22  1  0  0  0
 21 25  1  0  0  0
 22 30  1  0  0  0
 22 26  1  0  0  0
 30 31  1  0  0  0
  1  2  1  0  0  0
  1  8  1  0  0  0
  1  9  2  0  0  0
  2  3  1  0  0  0
  2  6  1  0  0  0
  3  4  1  0  0  0
  3  7  1  0  0  0
  4  5  1  0  0  0
  4 17  1  0  0  0
  5 14  1  0  0  0
  5  8  1  0  0  0
 14 15  1  0  0  0
  8 11  1  0  0  0
  9 10  1  0  0  0
 10 11  2  0  0  0
 23 27  1  0  0  0
 24 28  1  0  0  0
 25 29  1  0  0  0
 31 32  1  0  0  0
  6 12  1  0  0  0
  7 13  1  0  0  0
 15 16  1  0  0  0
M  END
> <minimizedAffinity>
-7.06301

$$$$
8A3H_IDC_A_500


 32 34  0  0  0  0  0  0  0  0999 V2000
   61.0427   48.4483   38.2982 C   0  0  0  0  0  0  0  0  0  0  0  0
   62.0606   47.6402   37.5378 C   0  0  0  0  0  0  0  0  0  0  0  0
   61.3851   46.6180   36.6140 C   0  0  0  0  0  0  0  0  0  0  0  0
   60.1038   46.1015   37.3040 C   0  0  0  0  0  0  0  0  0  0  0  0
   59.0791   47.2152   37.3974 C   0  0  0  0  0  0  0  0  0  0  0  0
   62.9905   48.4754   36.8386 O   0  0  0  0  0  0  0  0  0  0  0  0
   62.3159   45.6078   36.3745 O   0  0  0  0  0  0  0  0  0  0  0  0
   59.7045   48.2574   38.2360 N   0  0  0  0  0  0  0  0  0  0  0  0
   61.2966   49.4055   39.1876 N   0  0  0  0  0  0  0  0  0  0  0  0
   60.0944   49.8729   39.7057 C   0  0  0  0  0  0  0  0  0  0  0  0
   59.1143   49.1385   39.1212 C   0  0  0  0  0  0  0  0  0  0  0  0
   62.5172   49.0011   36.1749 H   0  0  0  0  0  0  0  0  0  0  0  0
   62.5941   45.2179   37.2180 H   0  0  0  0  0  0  0  0  0  0  0  0
   57.7290   46.8028   38.0354 C   0  0  0  0  0  0  0  0  0  0  0  0
   56.7346   46.5944   37.0015 O   0  0  0  0  0  0  0  0  0  0  0  0
   56.6097   47.4168   36.5026 H   0  0  0  0  0  0  0  0  0  0  0  0
   59.5659   45.0352   36.4836 O   0  0  0  0  0  0  0  0  0  0  0  0
   59.7543   43.7506   37.0286 C   0  0  0  0  0  0  0  0  0  0  0  0
   60.8434   43.0724   36.2406 C   0  0  0  0  0  0  0  0  0  0  0  0
   61.1632   41.7288   36.8753 C   0  0  0  0  0  0  0  0  0  0  0  0
   61.5574   41.9334   38.3336 C   0  0  0  0  0  0  0  0  0  0  0  0
   60.3959   42.6682   39.0397 C   0  0  0  0  0  0  0  0  0  0  0  0
   60.3540   42.9106   34.8880 O   0  0  0  0  0  0  0  0  0  0  0  0
   62.2581   41.0945   36.1861 O   0  0  0  0  0  0  0  0  0  0  0  0
   61.7710   40.6592   38.9609 O   0  0  0  0  0  0  0  0  0  0  0  0
   60.1982   43.9440   38.3688 O   0  0  0  0  0  0  0  0  0  0  0  0
   59.5376   42.3868   34.9001 H   0  0  0  0  0  0  0  0  0  0  0  0
   63.0463   41.6568   36.2447 H   0  0  0  0  0  0  0  0  0  0  0  0
   60.9585   40.1321   38.9070 H   0  0  0  0  0  0  0  0  0  0  0  0
   60.6394   43.0126   40.4708 C   0  0  0  0  0  0  0  0  0  0  0  0
   61.3235   41.9397   41.1322 O   0  0  0  0  0  0  0  0  0  0  0  0
   60.7800   41.1372   41.0936 H   0  0  0  0  0  0  0  0  0  0  0  0
 18 19  1  0  0  0
 18 26  1  0  0  0
 18 17  1  0  0  0
 19 20  1  0  0  0
 19 23  1  0  0  0
 20 21  1  0  0  0
 20 24  1  0  0  0
 21 22  1  0  0  0
 21 25  1  0  0  0
 22 30  1  0  0  0
 22 26  1  0  0  0
 30 31  1  0  0  0
  1  2  1  0  0  0
  1  8  1  0  0  0
  1  9  2  0  0  0
  2  3  1  0  0  0
  2  6  1  0  0  0
  3  4  1  0  0  0
  3  7  1  0  0  0
  4  5  1  0  0  0
  4 17  1  0  0  0
  5 14  1  0  0  0
  5  8  1  0  0  0
 14 15  1  0  0  0
  8 11  1  0  0  0
  9 10  1  0  0  0
 10 11  2  0  0  0
 23 27  1  0  0  0
 24 28  1  0  0  0
 25 29  1  0  0  0
 31 32  1  0  0  0
  6 12  1  0  0  0
  7 13  1  0  0  0
 15 16  1  0  0  0
M  END
> <minimizedAffinity>
-7.05211

$$$$
