5EEK_TSN_A_2004


 24 24  0  0  0  0  0  0  0  0999 V2000
   -1.5543   27.6360   -3.6603 C   0  0  0  0  0  0  0  0  0  0  0  0
   -0.9592   26.5415   -2.7735 C   0  0  0  0  0  0  0  0  0  0  0  0
   -2.9239   27.2177   -4.1405 C   0  0  0  0  0  0  0  0  0  0  0  0
   -4.0117   27.9956   -4.2515 C   0  0  0  0  0  0  0  0  0  0  0  0
   -4.0113   29.4505   -3.8442 C   0  0  0  0  0  0  0  0  0  0  0  0
   -5.2512   27.3293   -4.7000 C   0  0  0  0  0  0  0  0  0  0  0  0
   -6.5043   27.7656   -4.5487 C   0  0  0  0  0  0  0  0  0  0  0  0
   -9.9621   26.6732   -5.2858 O   0  0  0  0  0  0  0  0  0  0  0  0
   -7.3136   25.6894   -5.4305 O   0  0  0  0  0  0  0  0  0  0  0  0
   -8.7837   27.3210   -4.9386 N   0  0  0  0  0  0  0  0  0  0  0  0
   -7.5478   26.8226   -5.0330 C   0  0  0  0  0  0  0  0  0  0  0  0
  -10.7155   27.2605   -5.1178 H   0  0  0  0  0  0  0  0  0  0  0  0
   -8.8673   28.2374   -4.5885 H   0  0  0  0  0  0  0  0  0  0  0  0
   -0.1776   26.8202   -5.4149 O   0  0  0  0  0  0  0  0  0  0  0  0
   -0.7461   27.7872   -4.9172 C   0  0  0  0  0  0  0  0  0  0  0  0
   -0.6916   29.1254   -5.5891 C   0  0  0  0  0  0  0  0  0  0  0  0
   -0.7570   30.2800   -4.8213 C   0  0  0  0  0  0  0  0  0  0  0  0
   -0.7001   31.5227   -5.4343 C   0  0  0  0  0  0  0  0  0  0  0  0
   -0.5955   31.6165   -6.8182 C   0  0  0  0  0  0  0  0  0  0  0  0
   -0.5403   30.4580   -7.5889 C   0  0  0  0  0  0  0  0  0  0  0  0
   -0.5897   29.2104   -6.9776 C   0  0  0  0  0  0  0  0  0  0  0  0
   -0.5557   32.8398   -7.4131 N   0  0  0  0  0  0  0  0  0  0  0  0
    0.4411   33.1274   -8.4301 C   0  0  0  0  0  0  0  0  0  0  0  0
   -1.5249   33.8637   -7.0438 C   0  0  0  0  0  0  0  0  0  0  0  0
  8 10  1  0  0  0
  9 11  2  0  0  0
 14 15  2  0  0  0
 10 11  1  0  0  0
 22 19  1  0  0  0
 22 23  1  0  0  0
 22 24  1  0  0  0
 16 17  2  0  0  0
 16 21  1  0  0  0
 16 15  1  0  0  0
 17 18  1  0  0  0
 18 19  2  0  0  0
 19 20  1  0  0  0
 20 21  2  0  0  0
 15  1  1  0  0  0
  1  3  1  0  0  0
  1  2  1  0  0  0
  3  4  2  0  0  0
  4  6  1  0  0  0
  4  5  1  0  0  0
  6  7  2  0  0  0
  7 11  1  0  0  0
  8 12  1  0  0  0
 10 13  1  0  0  0
M  END
> <minimizedAffinity>
-8.21651

$$$$
5EEK_TSN_A_2004


 24 24  0  0  0  0  0  0  0  0999 V2000
   -1.3779   27.5058   -3.8603 C   0  0  0  0  0  0  0  0  0  0  0  0
   -1.1467   26.8788   -2.4849 C   0  0  0  0  0  0  0  0  0  0  0  0
   -2.7756   27.1905   -4.3383 C   0  0  0  0  0  0  0  0  0  0  0  0
   -3.8238   28.0275   -4.3733 C   0  0  0  0  0  0  0  0  0  0  0  0
   -3.7415   29.4492   -3.8687 C   0  0  0  0  0  0  0  0  0  0  0  0
   -5.1037   27.4564   -4.8393 C   0  0  0  0  0  0  0  0  0  0  0  0
   -6.3202   27.6797   -4.3355 C   0  0  0  0  0  0  0  0  0  0  0  0
   -9.7738   27.0434   -5.5019 O   0  0  0  0  0  0  0  0  0  0  0  0
   -7.2647   25.7421   -5.3826 O   0  0  0  0  0  0  0  0  0  0  0  0
   -8.5749   27.5312   -4.9985 N   0  0  0  0  0  0  0  0  0  0  0  0
   -7.4057   26.8856   -4.9711 C   0  0  0  0  0  0  0  0  0  0  0  0
  -10.4654   27.7155   -5.3981 H   0  0  0  0  0  0  0  0  0  0  0  0
   -8.5880   28.4422   -4.6253 H   0  0  0  0  0  0  0  0  0  0  0  0
   -0.1776   25.6836   -4.7974 O   0  0  0  0  0  0  0  0  0  0  0  0
   -0.4795   26.8701   -4.8822 C   0  0  0  0  0  0  0  0  0  0  0  0
   -0.0034   27.6909   -6.0418 C   0  0  0  0  0  0  0  0  0  0  0  0
   -0.7992   28.7212   -6.5237 C   0  0  0  0  0  0  0  0  0  0  0  0
   -0.3633   29.4906   -7.5920 C   0  0  0  0  0  0  0  0  0  0  0  0
    0.8615   29.2220   -8.1942 C   0  0  0  0  0  0  0  0  0  0  0  0
    1.6550   28.1819   -7.7172 C   0  0  0  0  0  0  0  0  0  0  0  0
    1.2247   27.4130   -6.6418 C   0  0  0  0  0  0  0  0  0  0  0  0
    1.2751   29.9720   -9.2519 N   0  0  0  0  0  0  0  0  0  0  0  0
    0.9187   31.3779   -9.3365 C   0  0  0  0  0  0  0  0  0  0  0  0
    2.0927   29.3714  -10.2981 C   0  0  0  0  0  0  0  0  0  0  0  0
  8 10  1  0  0  0
  9 11  2  0  0  0
 14 15  2  0  0  0
 10 11  1  0  0  0
 22 19  1  0  0  0
 22 23  1  0  0  0
 22 24  1  0  0  0
 16 17  2  0  0  0
 16 21  1  0  0  0
 16 15  1  0  0  0
 17 18  1  0  0  0
 18 19  2  0  0  0
 19 20  1  0  0  0
 20 21  2  0  0  0
 15  1  1  0  0  0
  1  3  1  0  0  0
  1  2  1  0  0  0
  3  4  2  0  0  0
  4  6  1  0  0  0
  4  5  1  0  0  0
  6  7  2  0  0  0
  7 11  1  0  0  0
  8 12  1  0  0  0
 10 13  1  0  0  0
M  END
> <minimizedAffinity>
-7.40305

$$$$
5EEK_TSN_A_2004


 24 24  0  0  0  0  0  0  0  0999 V2000
   -2.2103   27.9419   -4.3739 C   0  0  0  0  0  0  0  0  0  0  0  0
   -2.1327   28.9899   -3.2630 C   0  0  0  0  0  0  0  0  0  0  0  0
   -3.6018   27.3568   -4.4295 C   0  0  0  0  0  0  0  0  0  0  0  0
   -4.7618   28.0280   -4.3628 C   0  0  0  0  0  0  0  0  0  0  0  0
   -4.8207   29.5248   -4.1666 C   0  0  0  0  0  0  0  0  0  0  0  0
   -5.9932   27.2128   -4.3882 C   0  0  0  0  0  0  0  0  0  0  0  0
   -7.0659   27.3920   -5.1634 C   0  0  0  0  0  0  0  0  0  0  0  0
  -10.3996   25.8882   -5.7275 O   0  0  0  0  0  0  0  0  0  0  0  0
   -8.2028   25.6594   -3.9597 O   0  0  0  0  0  0  0  0  0  0  0  0
   -9.2068   26.5993   -5.7413 N   0  0  0  0  0  0  0  0  0  0  0  0
   -8.1865   26.4522   -4.8914 C   0  0  0  0  0  0  0  0  0  0  0  0
  -10.9660   26.1929   -6.4537 H   0  0  0  0  0  0  0  0  0  0  0  0
   -9.1028   27.2784   -6.4465 H   0  0  0  0  0  0  0  0  0  0  0  0
   -1.6081   26.0067   -3.1361 O   0  0  0  0  0  0  0  0  0  0  0  0
   -1.3243   26.7726   -4.0520 C   0  0  0  0  0  0  0  0  0  0  0  0
   -0.1179   26.5194   -4.9038 C   0  0  0  0  0  0  0  0  0  0  0  0
    0.2623   27.4618   -5.8495 C   0  0  0  0  0  0  0  0  0  0  0  0
    1.3817   27.2388   -6.6373 C   0  0  0  0  0  0  0  0  0  0  0  0
    2.1151   26.0654   -6.4954 C   0  0  0  0  0  0  0  0  0  0  0  0
    1.7275   25.1157   -5.5537 C   0  0  0  0  0  0  0  0  0  0  0  0
    0.6102   25.3387   -4.7571 C   0  0  0  0  0  0  0  0  0  0  0  0
    3.2034   25.8475   -7.2830 N   0  0  0  0  0  0  0  0  0  0  0  0
    3.4009   24.5558   -7.9180 C   0  0  0  0  0  0  0  0  0  0  0  0
    4.1690   26.9159   -7.5068 C   0  0  0  0  0  0  0  0  0  0  0  0
  8 10  1  0  0  0
  9 11  2  0  0  0
 14 15  2  0  0  0
 10 11  1  0  0  0
 22 19  1  0  0  0
 22 23  1  0  0  0
 22 24  1  0  0  0
 16 17  2  0  0  0
 16 21  1  0  0  0
 16 15  1  0  0  0
 17 18  1  0  0  0
 18 19  2  0  0  0
 19 20  1  0  0  0
 20 21  2  0  0  0
 15  1  1  0  0  0
  1  3  1  0  0  0
  1  2  1  0  0  0
  3  4  2  0  0  0
  4  6  1  0  0  0
  4  5  1  0  0  0
  6  7  2  0  0  0
  7 11  1  0  0  0
  8 12  1  0  0  0
 10 13  1  0  0  0
M  END
> <minimizedAffinity>
-7.05417

$$$$
5EEK_TSN_A_2004


 24 24  0  0  0  0  0  0  0  0999 V2000
   -1.6220   27.4129   -4.0163 C   0  0  0  0  0  0  0  0  0  0  0  0
   -1.2897   28.2365   -2.7716 C   0  0  0  0  0  0  0  0  0  0  0  0
   -3.1169   27.2241   -4.1214 C   0  0  0  0  0  0  0  0  0  0  0  0
   -4.0514   28.1868   -4.1445 C   0  0  0  0  0  0  0  0  0  0  0  0
   -3.7073   29.6521   -4.0146 C   0  0  0  0  0  0  0  0  0  0  0  0
   -5.4565   27.7353   -4.2012 C   0  0  0  0  0  0  0  0  0  0  0  0
   -5.9992   26.8885   -5.0800 C   0  0  0  0  0  0  0  0  0  0  0  0
   -9.5647   27.7564   -5.5561 O   0  0  0  0  0  0  0  0  0  0  0  0
   -7.9752   25.8010   -4.2704 O   0  0  0  0  0  0  0  0  0  0  0  0
   -8.1802   27.6478   -5.5403 N   0  0  0  0  0  0  0  0  0  0  0  0
   -7.4667   26.6990   -4.9276 C   0  0  0  0  0  0  0  0  0  0  0  0
   -9.8220   28.5358   -6.0732 H   0  0  0  0  0  0  0  0  0  0  0  0
   -7.6751   28.3376   -6.0285 H   0  0  0  0  0  0  0  0  0  0  0  0
   -1.6217   25.0778   -4.4490 O   0  0  0  0  0  0  0  0  0  0  0  0
   -1.0764   26.0200   -3.8823 C   0  0  0  0  0  0  0  0  0  0  0  0
    0.1793   25.8045   -3.0937 C   0  0  0  0  0  0  0  0  0  0  0  0
    0.1207   25.1220   -1.8863 C   0  0  0  0  0  0  0  0  0  0  0  0
    1.2790   24.9119   -1.1533 C   0  0  0  0  0  0  0  0  0  0  0  0
    2.4976   25.3983   -1.6152 C   0  0  0  0  0  0  0  0  0  0  0  0
    2.5545   26.0918   -2.8214 C   0  0  0  0  0  0  0  0  0  0  0  0
    1.3966   26.2982   -3.5627 C   0  0  0  0  0  0  0  0  0  0  0  0
    3.6273   25.2011   -0.8824 N   0  0  0  0  0  0  0  0  0  0  0  0
    4.9155   25.6416   -1.3897 C   0  0  0  0  0  0  0  0  0  0  0  0
    3.5479   24.5608    0.4244 C   0  0  0  0  0  0  0  0  0  0  0  0
  8 10  1  0  0  0
  9 11  2  0  0  0
 14 15  2  0  0  0
 10 11  1  0  0  0
 22 19  1  0  0  0
 22 23  1  0  0  0
 22 24  1  0  0  0
 16 17  2  0  0  0
 16 21  1  0  0  0
 16 15  1  0  0  0
 17 18  1  0  0  0
 18 19  2  0  0  0
 19 20  1  0  0  0
 20 21  2  0  0  0
 15  1  1  0  0  0
  1  3  1  0  0  0
  1  2  1  0  0  0
  3  4  2  0  0  0
  4  6  1  0  0  0
  4  5  1  0  0  0
  6  7  2  0  0  0
  7 11  1  0  0  0
  8 12  1  0  0  0
 10 13  1  0  0  0
M  END
> <minimizedAffinity>
-6.95342

$$$$
5EEK_TSN_A_2004


 24 24  0  0  0  0  0  0  0  0999 V2000
   -1.6900   27.3055   -3.6451 C   0  0  0  0  0  0  0  0  0  0  0  0
   -0.9756   25.9573   -3.5433 C   0  0  0  0  0  0  0  0  0  0  0  0
   -3.0900   27.1044   -4.1753 C   0  0  0  0  0  0  0  0  0  0  0  0
   -4.0665   28.0223   -4.2418 C   0  0  0  0  0  0  0  0  0  0  0  0
   -3.8901   29.4307   -3.7243 C   0  0  0  0  0  0  0  0  0  0  0  0
   -5.3699   27.5567   -4.7576 C   0  0  0  0  0  0  0  0  0  0  0  0
   -6.5804   28.0149   -4.4284 C   0  0  0  0  0  0  0  0  0  0  0  0
   -9.1132   25.3288   -4.6787 O   0  0  0  0  0  0  0  0  0  0  0  0
   -8.1989   27.5723   -6.1394 O   0  0  0  0  0  0  0  0  0  0  0  0
   -8.1044   26.2218   -4.3416 N   0  0  0  0  0  0  0  0  0  0  0  0
   -7.7098   27.2786   -5.0572 C   0  0  0  0  0  0  0  0  0  0  0  0
   -9.1942   24.6555   -3.9851 H   0  0  0  0  0  0  0  0  0  0  0  0
   -7.6340   26.0601   -3.4919 H   0  0  0  0  0  0  0  0  0  0  0  0
   -1.0106   27.8499   -5.8545 O   0  0  0  0  0  0  0  0  0  0  0  0
   -1.0216   28.1750   -4.6712 C   0  0  0  0  0  0  0  0  0  0  0  0
   -0.4182   29.4765   -4.2385 C   0  0  0  0  0  0  0  0  0  0  0  0
   -0.1417   29.6896   -2.8950 C   0  0  0  0  0  0  0  0  0  0  0  0
    0.4232   30.8885   -2.4865 C   0  0  0  0  0  0  0  0  0  0  0  0
    0.6977   31.8858   -3.4166 C   0  0  0  0  0  0  0  0  0  0  0  0
    0.4107   31.6756   -4.7629 C   0  0  0  0  0  0  0  0  0  0  0  0
   -0.1490   30.4723   -5.1773 C   0  0  0  0  0  0  0  0  0  0  0  0
    1.2380   33.0652   -3.0054 N   0  0  0  0  0  0  0  0  0  0  0  0
    2.0416   33.1204   -1.7963 C   0  0  0  0  0  0  0  0  0  0  0  0
    1.0264   34.2774   -3.7863 C   0  0  0  0  0  0  0  0  0  0  0  0
  8 10  1  0  0  0
  9 11  2  0  0  0
 14 15  2  0  0  0
 10 11  1  0  0  0
 22 19  1  0  0  0
 22 23  1  0  0  0
 22 24  1  0  0  0
 16 17  2  0  0  0
 16 21  1  0  0  0
 16 15  1  0  0  0
 17 18  1  0  0  0
 18 19  2  0  0  0
 19 20  1  0  0  0
 20 21  2  0  0  0
 15  1  1  0  0  0
  1  3  1  0  0  0
  1  2  1  0  0  0
  3  4  2  0  0  0
  4  6  1  0  0  0
  4  5  1  0  0  0
  6  7  2  0  0  0
  7 11  1  0  0  0
  8 12  1  0  0  0
 10 13  1  0  0  0
M  END
> <minimizedAffinity>
-6.76121

$$$$
5EEK_TSN_A_2004


 24 24  0  0  0  0  0  0  0  0999 V2000
   -0.0237   26.5119   -3.0689 C   0  0  0  0  0  0  0  0  0  0  0  0
    0.7332   27.6704   -2.4184 C   0  0  0  0  0  0  0  0  0  0  0  0
   -1.4589   26.9127   -3.3164 C   0  0  0  0  0  0  0  0  0  0  0  0
   -1.9362   27.5901   -4.3717 C   0  0  0  0  0  0  0  0  0  0  0  0
   -1.0420   28.1020   -5.4767 C   0  0  0  0  0  0  0  0  0  0  0  0
   -3.3794   27.9036   -4.3513 C   0  0  0  0  0  0  0  0  0  0  0  0
   -4.3927   27.0644   -4.5803 C   0  0  0  0  0  0  0  0  0  0  0  0
   -8.0013   27.3058   -5.3631 O   0  0  0  0  0  0  0  0  0  0  0  0
   -5.9639   28.8095   -4.1017 O   0  0  0  0  0  0  0  0  0  0  0  0
   -6.6662   26.9667   -5.1862 N   0  0  0  0  0  0  0  0  0  0  0  0
   -5.7359   27.7036   -4.5728 C   0  0  0  0  0  0  0  0  0  0  0  0
   -8.4554   26.5936   -5.8400 H   0  0  0  0  0  0  0  0  0  0  0  0
   -6.3770   26.0981   -5.5484 H   0  0  0  0  0  0  0  0  0  0  0  0
   -1.2086   24.8947   -1.7961 O   0  0  0  0  0  0  0  0  0  0  0  0
   -0.1166   25.3506   -2.1210 C   0  0  0  0  0  0  0  0  0  0  0  0
    1.1465   24.7172   -1.6225 C   0  0  0  0  0  0  0  0  0  0  0  0
    1.4940   24.8440   -0.2845 C   0  0  0  0  0  0  0  0  0  0  0  0
    2.6576   24.2550    0.1870 C   0  0  0  0  0  0  0  0  0  0  0  0
    3.4874   23.5519   -0.6803 C   0  0  0  0  0  0  0  0  0  0  0  0
    3.1437   23.4335   -2.0244 C   0  0  0  0  0  0  0  0  0  0  0  0
    1.9744   24.0165   -2.4995 C   0  0  0  0  0  0  0  0  0  0  0  0
    4.6352   22.9899   -0.2127 N   0  0  0  0  0  0  0  0  0  0  0  0
    5.0046   23.1340    1.1851 C   0  0  0  0  0  0  0  0  0  0  0  0
    5.4925   22.2255   -1.1096 C   0  0  0  0  0  0  0  0  0  0  0  0
  8 10  1  0  0  0
  9 11  2  0  0  0
 14 15  2  0  0  0
 10 11  1  0  0  0
 22 19  1  0  0  0
 22 23  1  0  0  0
 22 24  1  0  0  0
 16 17  2  0  0  0
 16 21  1  0  0  0
 16 15  1  0  0  0
 17 18  1  0  0  0
 18 19  2  0  0  0
 19 20  1  0  0  0
 20 21  2  0  0  0
 15  1  1  0  0  0
  1  3  1  0  0  0
  1  2  1  0  0  0
  3  4  2  0  0  0
  4  6  1  0  0  0
  4  5  1  0  0  0
  6  7  2  0  0  0
  7 11  1  0  0  0
  8 12  1  0  0  0
 10 13  1  0  0  0
M  END
> <minimizedAffinity>
-6.45510

$$$$
5EEK_TSN_A_2004


 24 24  0  0  0  0  0  0  0  0999 V2000
   -0.1048   28.0641   -3.0757 C   0  0  0  0  0  0  0  0  0  0  0  0
    0.2109   28.0504   -1.5796 C   0  0  0  0  0  0  0  0  0  0  0  0
   -1.5906   27.8931   -3.2871 C   0  0  0  0  0  0  0  0  0  0  0  0
   -2.4043   28.7020   -3.9828 C   0  0  0  0  0  0  0  0  0  0  0  0
   -1.9165   29.9745   -4.6350 C   0  0  0  0  0  0  0  0  0  0  0  0
   -3.8359   28.3387   -3.9954 C   0  0  0  0  0  0  0  0  0  0  0  0
   -4.4347   27.4371   -4.7777 C   0  0  0  0  0  0  0  0  0  0  0  0
   -7.8102   26.0327   -5.3493 O   0  0  0  0  0  0  0  0  0  0  0  0
   -6.5688   28.1662   -3.9671 O   0  0  0  0  0  0  0  0  0  0  0  0
   -6.4588   26.3468   -5.2873 N   0  0  0  0  0  0  0  0  0  0  0  0
   -5.9110   27.3607   -4.6115 C   0  0  0  0  0  0  0  0  0  0  0  0
   -7.9349   25.2499   -5.9083 H   0  0  0  0  0  0  0  0  0  0  0  0
   -5.8443   25.7652   -5.7907 H   0  0  0  0  0  0  0  0  0  0  0  0
    0.5005   25.7715   -3.2064 O   0  0  0  0  0  0  0  0  0  0  0  0
    0.5099   26.8714   -3.7505 C   0  0  0  0  0  0  0  0  0  0  0  0
    1.0837   27.0304   -5.1255 C   0  0  0  0  0  0  0  0  0  0  0  0
    1.0600   28.2763   -5.7372 C   0  0  0  0  0  0  0  0  0  0  0  0
    1.5952   28.4341   -7.0068 C   0  0  0  0  0  0  0  0  0  0  0  0
    2.1401   27.3438   -7.6772 C   0  0  0  0  0  0  0  0  0  0  0  0
    2.1545   26.0921   -7.0675 C   0  0  0  0  0  0  0  0  0  0  0  0
    1.6254   25.9313   -5.7919 C   0  0  0  0  0  0  0  0  0  0  0  0
    2.6495   27.5040   -8.9290 N   0  0  0  0  0  0  0  0  0  0  0  0
    1.8405   27.1907  -10.0944 C   0  0  0  0  0  0  0  0  0  0  0  0
    4.0056   28.0072   -9.1071 C   0  0  0  0  0  0  0  0  0  0  0  0
  8 10  1  0  0  0
  9 11  2  0  0  0
 14 15  2  0  0  0
 10 11  1  0  0  0
 22 19  1  0  0  0
 22 23  1  0  0  0
 22 24  1  0  0  0
 16 17  2  0  0  0
 16 21  1  0  0  0
 16 15  1  0  0  0
 17 18  1  0  0  0
 18 19  2  0  0  0
 19 20  1  0  0  0
 20 21  2  0  0  0
 15  1  1  0  0  0
  1  3  1  0  0  0
  1  2  1  0  0  0
  3  4  2  0  0  0
  4  6  1  0  0  0
  4  5  1  0  0  0
  6  7  2  0  0  0
  7 11  1  0  0  0
  8 12  1  0  0  0
 10 13  1  0  0  0
M  END
> <minimizedAffinity>
-6.36321

$$$$
5EEK_TSN_A_2004


 24 24  0  0  0  0  0  0  0  0999 V2000
   -2.4955   27.7009   -4.3568 C   0  0  0  0  0  0  0  0  0  0  0  0
   -3.9858   27.6322   -4.0212 C   0  0  0  0  0  0  0  0  0  0  0  0
   -1.6815   27.2467   -3.1682 C   0  0  0  0  0  0  0  0  0  0  0  0
   -0.8389   26.2035   -3.1194 C   0  0  0  0  0  0  0  0  0  0  0  0
   -0.6256   25.2796   -4.2956 C   0  0  0  0  0  0  0  0  0  0  0  0
   -0.1994   25.9378   -1.8148 C   0  0  0  0  0  0  0  0  0  0  0  0
    0.6904   26.7045   -1.1792 C   0  0  0  0  0  0  0  0  0  0  0  0
    2.3854   24.1428    0.8842 O   0  0  0  0  0  0  0  0  0  0  0  0
    1.0749   26.6318    1.1852 O   0  0  0  0  0  0  0  0  0  0  0  0
    1.8192   24.9414   -0.1008 N   0  0  0  0  0  0  0  0  0  0  0  0
    1.2172   26.1198    0.0832 C   0  0  0  0  0  0  0  0  0  0  0  0
    2.7544   23.3424    0.4791 H   0  0  0  0  0  0  0  0  0  0  0  0
    1.8661   24.6064   -1.0254 H   0  0  0  0  0  0  0  0  0  0  0  0
   -2.3657   29.9966   -3.7632 O   0  0  0  0  0  0  0  0  0  0  0  0
   -2.0747   29.1257   -4.5773 C   0  0  0  0  0  0  0  0  0  0  0  0
   -1.2423   29.4597   -5.7776 C   0  0  0  0  0  0  0  0  0  0  0  0
   -0.8331   28.4441   -6.6309 C   0  0  0  0  0  0  0  0  0  0  0  0
   -0.0684   28.7451   -7.7480 C   0  0  0  0  0  0  0  0  0  0  0  0
    0.3052   30.0597   -8.0071 C   0  0  0  0  0  0  0  0  0  0  0  0
   -0.0969   31.0769   -7.1454 C   0  0  0  0  0  0  0  0  0  0  0  0
   -0.8696   30.7802   -6.0283 C   0  0  0  0  0  0  0  0  0  0  0  0
    1.0685   30.3446   -9.0972 N   0  0  0  0  0  0  0  0  0  0  0  0
    1.9636   29.3409   -9.6469 C   0  0  0  0  0  0  0  0  0  0  0  0
    0.9793   31.6546   -9.7294 C   0  0  0  0  0  0  0  0  0  0  0  0
  8 10  1  0  0  0
  9 11  2  0  0  0
 14 15  2  0  0  0
 10 11  1  0  0  0
 22 19  1  0  0  0
 22 23  1  0  0  0
 22 24  1  0  0  0
 16 17  2  0  0  0
 16 21  1  0  0  0
 16 15  1  0  0  0
 17 18  1  0  0  0
 18 19  2  0  0  0
 19 20  1  0  0  0
 20 21  2  0  0  0
 15  1  1  0  0  0
  1  3  1  0  0  0
  1  2  1  0  0  0
  3  4  2  0  0  0
  4  6  1  0  0  0
  4  5  1  0  0  0
  6  7  2  0  0  0
  7 11  1  0  0  0
  8 12  1  0  0  0
 10 13  1  0  0  0
M  END
> <minimizedAffinity>
-6.15792

$$$$
5EEK_TSN_A_2004


 24 24  0  0  0  0  0  0  0  0999 V2000
   -3.2587   28.6857   -3.7713 C   0  0  0  0  0  0  0  0  0  0  0  0
   -4.7059   29.1260   -3.9947 C   0  0  0  0  0  0  0  0  0  0  0  0
   -2.3245   29.5855   -4.5453 C   0  0  0  0  0  0  0  0  0  0  0  0
   -1.1661   30.1075   -4.1136 C   0  0  0  0  0  0  0  0  0  0  0  0
   -0.6510   29.8849   -2.7109 C   0  0  0  0  0  0  0  0  0  0  0  0
   -0.4607   31.0036   -5.0521 C   0  0  0  0  0  0  0  0  0  0  0  0
   -0.8442   31.3484   -6.2840 C   0  0  0  0  0  0  0  0  0  0  0  0
    0.1797   33.9926   -8.6616 O   0  0  0  0  0  0  0  0  0  0  0  0
    1.3438   32.0860   -6.9257 O   0  0  0  0  0  0  0  0  0  0  0  0
   -0.4601   33.0815   -7.8314 N   0  0  0  0  0  0  0  0  0  0  0  0
    0.1292   32.2025   -7.0160 C   0  0  0  0  0  0  0  0  0  0  0  0
   -0.4829   34.5100   -9.1453 H   0  0  0  0  0  0  0  0  0  0  0  0
   -1.4445   33.0835   -7.8451 H   0  0  0  0  0  0  0  0  0  0  0  0
   -3.8210   26.8484   -5.1669 O   0  0  0  0  0  0  0  0  0  0  0  0
   -3.0322   27.3199   -4.3536 C   0  0  0  0  0  0  0  0  0  0  0  0
   -1.7964   26.5634   -3.9719 C   0  0  0  0  0  0  0  0  0  0  0  0
   -0.7468   26.4666   -4.8752 C   0  0  0  0  0  0  0  0  0  0  0  0
    0.4036   25.7744   -4.5276 C   0  0  0  0  0  0  0  0  0  0  0  0
    0.5025   25.1613   -3.2829 C   0  0  0  0  0  0  0  0  0  0  0  0
   -0.5547   25.2500   -2.3809 C   0  0  0  0  0  0  0  0  0  0  0  0
   -1.7067   25.9491   -2.7228 C   0  0  0  0  0  0  0  0  0  0  0  0
    1.6287   24.4710   -2.9555 N   0  0  0  0  0  0  0  0  0  0  0  0
    2.0732   24.4079   -1.5738 C   0  0  0  0  0  0  0  0  0  0  0  0
    2.3865   23.7769   -3.9889 C   0  0  0  0  0  0  0  0  0  0  0  0
  8 10  1  0  0  0
  9 11  2  0  0  0
 14 15  2  0  0  0
 10 11  1  0  0  0
 22 19  1  0  0  0
 22 23  1  0  0  0
 22 24  1  0  0  0
 16 17  2  0  0  0
 16 21  1  0  0  0
 16 15  1  0  0  0
 17 18  1  0  0  0
 18 19  2  0  0  0
 19 20  1  0  0  0
 20 21  2  0  0  0
 15  1  1  0  0  0
  1  3  1  0  0  0
  1  2  1  0  0  0
  3  4  2  0  0  0
  4  6  1  0  0  0
  4  5  1  0  0  0
  6  7  2  0  0  0
  7 11  1  0  0  0
  8 12  1  0  0  0
 10 13  1  0  0  0
M  END
> <minimizedAffinity>
-6.13455

$$$$
5EEK_TSN_A_2004


 24 24  0  0  0  0  0  0  0  0999 V2000
   -1.7167   27.3944   -4.7648 C   0  0  0  0  0  0  0  0  0  0  0  0
   -1.4967   28.8317   -4.2915 C   0  0  0  0  0  0  0  0  0  0  0  0
   -3.1792   27.1746   -5.0718 C   0  0  0  0  0  0  0  0  0  0  0  0
   -4.2132   27.9142   -4.6423 C   0  0  0  0  0  0  0  0  0  0  0  0
   -4.0352   29.0914   -3.7124 C   0  0  0  0  0  0  0  0  0  0  0  0
   -5.5586   27.4563   -5.0444 C   0  0  0  0  0  0  0  0  0  0  0  0
   -6.7330   27.8874   -4.5770 C   0  0  0  0  0  0  0  0  0  0  0  0
   -9.3040   25.2269   -4.6440 O   0  0  0  0  0  0  0  0  0  0  0  0
   -8.4834   27.4702   -6.1597 O   0  0  0  0  0  0  0  0  0  0  0  0
   -8.2633   26.1083   -4.3814 N   0  0  0  0  0  0  0  0  0  0  0  0
   -7.9148   27.1656   -5.1201 C   0  0  0  0  0  0  0  0  0  0  0  0
   -9.3376   24.5504   -3.9496 H   0  0  0  0  0  0  0  0  0  0  0  0
   -7.7302   25.9373   -3.5717 H   0  0  0  0  0  0  0  0  0  0  0  0
   -2.1807   26.3131   -2.7020 O   0  0  0  0  0  0  0  0  0  0  0  0
   -1.4167   26.4272   -3.6556 C   0  0  0  0  0  0  0  0  0  0  0  0
   -0.1996   25.5593   -3.7581 C   0  0  0  0  0  0  0  0  0  0  0  0
    0.5198   25.5265   -4.9448 C   0  0  0  0  0  0  0  0  0  0  0  0
    1.6515   24.7314   -5.0462 C   0  0  0  0  0  0  0  0  0  0  0  0
    2.0586   23.9525   -3.9680 C   0  0  0  0  0  0  0  0  0  0  0  0
    1.3309   23.9777   -2.7811 C   0  0  0  0  0  0  0  0  0  0  0  0
    0.1999   24.7790   -2.6731 C   0  0  0  0  0  0  0  0  0  0  0  0
    3.1616   23.1633   -4.0808 N   0  0  0  0  0  0  0  0  0  0  0  0
    3.1312   21.7903   -3.6069 C   0  0  0  0  0  0  0  0  0  0  0  0
    4.3755   23.6877   -4.6937 C   0  0  0  0  0  0  0  0  0  0  0  0
  8 10  1  0  0  0
  9 11  2  0  0  0
 14 15  2  0  0  0
 10 11  1  0  0  0
 22 19  1  0  0  0
 22 23  1  0  0  0
 22 24  1  0  0  0
 16 17  2  0  0  0
 16 21  1  0  0  0
 16 15  1  0  0  0
 17 18  1  0  0  0
 18 19  2  0  0  0
 19 20  1  0  0  0
 20 21  2  0  0  0
 15  1  1  0  0  0
  1  3  1  0  0  0
  1  2  1  0  0  0
  3  4  2  0  0  0
  4  6  1  0  0  0
  4  5  1  0  0  0
  6  7  2  0  0  0
  7 11  1  0  0  0
  8 12  1  0  0  0
 10 13  1  0  0  0
M  END
> <minimizedAffinity>
-6.04735

$$$$
