5U4D_XLO_A_200


 21 22  0  0  0  0  0  0  0  0999 V2000
  -22.2798   -0.8241  -25.4067 C   0  0  0  0  0  0  0  0  0  0  0  0
  -21.7488   -0.1746  -26.4545 C   0  0  0  0  0  0  0  0  0  0  0  0
  -22.0719   -0.5092  -27.8919 C   0  0  0  0  0  0  0  0  0  0  0  0
  -23.0453   -1.4867  -28.1020 C   0  0  0  0  0  0  0  0  0  0  0  0
  -23.4002   -1.8512  -29.3823 C   0  0  0  0  0  0  0  0  0  0  0  0
  -22.7929   -1.2200  -30.4549 C   0  0  0  0  0  0  0  0  0  0  0  0
  -21.8306   -0.2396  -30.2531 C   0  0  0  0  0  0  0  0  0  0  0  0
  -21.4596    0.1266  -28.9623 C   0  0  0  0  0  0  0  0  0  0  0  0
  -23.1543   -1.6003  -31.7608 O   0  0  0  0  0  0  0  0  0  0  0  0
  -20.2470    1.3720  -28.7371 Cl  0  0  0  0  0  0  0  0  0  0  0  0
  -23.8041   -2.2622  -31.8931 H   0  0  0  0  0  0  0  0  0  0  0  0
  -21.5448    0.0438  -21.2875 C   0  0  0  0  0  0  0  0  0  0  0  0
  -21.9251   -1.2332  -21.6686 C   0  0  0  0  0  0  0  0  0  0  0  0
  -22.1746   -1.5070  -23.0016 C   0  0  0  0  0  0  0  0  0  0  0  0
  -22.0378   -0.5113  -23.9506 C   0  0  0  0  0  0  0  0  0  0  0  0
  -21.6469    0.7623  -23.5725 C   0  0  0  0  0  0  0  0  0  0  0  0
  -21.4077    1.0404  -22.2375 C   0  0  0  0  0  0  0  0  0  0  0  0
  -20.9894    2.4316  -21.8080 C   0  0  0  0  0  0  0  0  0  0  0  0
  -21.4995    3.4476  -22.3535 O   0  0  0  0  0  0  0  0  0  0  0  0
  -20.1258    2.5682  -20.9006 O   0  0  0  0  0  0  0  0  0  0  0  0
  -22.1416    3.3445  -23.0281 H   0  0  0  0  0  0  0  0  0  0  0  0
 20 18  2  0  0  0
 19 18  1  0  0  0
 18 17  1  0  0  0
 17 12  2  0  0  0
 17 16  1  0  0  0
 12 13  1  0  0  0
 16 15  2  0  0  0
 13 14  2  0  0  0
 15 14  1  0  0  0
 15  1  1  0  0  0
  1  2  2  0  0  0
  2  3  1  0  0  0
  4  3  2  0  0  0
  4  5  1  0  0  0
  3  8  1  0  0  0
  5  6  2  0  0  0
  8 10  1  0  0  0
  8  7  2  0  0  0
  6  7  1  0  0  0
  6  9  1  0  0  0
 19 21  1  0  0  0
  9 11  1  0  0  0
M  END
> <minimizedAffinity>
-8.76916

$$$$
5U4D_XLO_A_200


 21 22  0  0  0  0  0  0  0  0999 V2000
  -20.8018    0.7863  -25.3759 C   0  0  0  0  0  0  0  0  0  0  0  0
  -21.4981    0.3389  -26.4327 C   0  0  0  0  0  0  0  0  0  0  0  0
  -21.1200    0.6360  -27.8649 C   0  0  0  0  0  0  0  0  0  0  0  0
  -20.0867    1.5532  -28.0606 C   0  0  0  0  0  0  0  0  0  0  0  0
  -19.6791    1.8804  -29.3353 C   0  0  0  0  0  0  0  0  0  0  0  0
  -20.2946    1.2715  -30.4161 C   0  0  0  0  0  0  0  0  0  0  0  0
  -21.3168    0.3507  -30.2283 C   0  0  0  0  0  0  0  0  0  0  0  0
  -21.7407    0.0228  -28.9436 C   0  0  0  0  0  0  0  0  0  0  0  0
  -19.8790    1.6137  -31.7164 O   0  0  0  0  0  0  0  0  0  0  0  0
  -23.0285   -1.1479  -28.7359 Cl  0  0  0  0  0  0  0  0  0  0  0  0
  -19.1889    2.2355  -31.8392 H   0  0  0  0  0  0  0  0  0  0  0  0
  -21.6836   -0.0394  -21.2769 C   0  0  0  0  0  0  0  0  0  0  0  0
  -21.2931    1.2346  -21.6578 C   0  0  0  0  0  0  0  0  0  0  0  0
  -20.9961    1.4948  -22.9838 C   0  0  0  0  0  0  0  0  0  0  0  0
  -21.0957    0.4885  -23.9262 C   0  0  0  0  0  0  0  0  0  0  0  0
  -21.4966   -0.7822  -23.5487 C   0  0  0  0  0  0  0  0  0  0  0  0
  -21.7834   -1.0466  -22.2203 C   0  0  0  0  0  0  0  0  0  0  0  0
  -22.2131   -2.4344  -21.7911 C   0  0  0  0  0  0  0  0  0  0  0  0
  -21.7125   -3.4544  -22.3378 O   0  0  0  0  0  0  0  0  0  0  0  0
  -23.0770   -2.5641  -20.8829 O   0  0  0  0  0  0  0  0  0  0  0  0
  -21.0702   -3.3565  -23.0130 H   0  0  0  0  0  0  0  0  0  0  0  0
 20 18  2  0  0  0
 19 18  1  0  0  0
 18 17  1  0  0  0
 17 12  2  0  0  0
 17 16  1  0  0  0
 12 13  1  0  0  0
 16 15  2  0  0  0
 13 14  2  0  0  0
 15 14  1  0  0  0
 15  1  1  0  0  0
  1  2  2  0  0  0
  2  3  1  0  0  0
  4  3  2  0  0  0
  4  5  1  0  0  0
  3  8  1  0  0  0
  5  6  2  0  0  0
  8 10  1  0  0  0
  8  7  2  0  0  0
  6  7  1  0  0  0
  6  9  1  0  0  0
 19 21  1  0  0  0
  9 11  1  0  0  0
M  END
> <minimizedAffinity>
-8.76025

$$$$
5U4D_XLO_A_200


 21 22  0  0  0  0  0  0  0  0999 V2000
  -21.1088   -0.8621  -25.5448 C   0  0  0  0  0  0  0  0  0  0  0  0
  -21.6867    0.1148  -26.2613 C   0  0  0  0  0  0  0  0  0  0  0  0
  -21.3553    0.3929  -27.7089 C   0  0  0  0  0  0  0  0  0  0  0  0
  -20.3955    1.3761  -27.9521 C   0  0  0  0  0  0  0  0  0  0  0  0
  -20.0343    1.6914  -29.2436 C   0  0  0  0  0  0  0  0  0  0  0  0
  -20.6215    1.0053  -30.2935 C   0  0  0  0  0  0  0  0  0  0  0  0
  -21.5702    0.0190  -30.0584 C   0  0  0  0  0  0  0  0  0  0  0  0
  -21.9475   -0.2978  -28.7564 C   0  0  0  0  0  0  0  0  0  0  0  0
  -20.2539    1.3352  -31.6112 O   0  0  0  0  0  0  0  0  0  0  0  0
  -23.1424   -1.5519  -28.4887 Cl  0  0  0  0  0  0  0  0  0  0  0  0
  -19.6133    2.0013  -31.7661 H   0  0  0  0  0  0  0  0  0  0  0  0
  -21.9578   -1.9011  -21.4876 C   0  0  0  0  0  0  0  0  0  0  0  0
  -22.0175   -2.8696  -22.4772 C   0  0  0  0  0  0  0  0  0  0  0  0
  -21.7545   -2.5265  -23.7914 C   0  0  0  0  0  0  0  0  0  0  0  0
  -21.4262   -1.2233  -24.1147 C   0  0  0  0  0  0  0  0  0  0  0  0
  -21.3552   -0.2570  -23.1252 C   0  0  0  0  0  0  0  0  0  0  0  0
  -21.6291   -0.5966  -21.8113 C   0  0  0  0  0  0  0  0  0  0  0  0
  -21.5654    0.4521  -20.7200 C   0  0  0  0  0  0  0  0  0  0  0  0
  -21.5518    0.1095  -19.5065 O   0  0  0  0  0  0  0  0  0  0  0  0
  -21.5270    1.6723  -21.0325 O   0  0  0  0  0  0  0  0  0  0  0  0
  -21.5803   -0.7981  -19.2756 H   0  0  0  0  0  0  0  0  0  0  0  0
 20 18  2  0  0  0
 19 18  1  0  0  0
 18 17  1  0  0  0
 17 12  2  0  0  0
 17 16  1  0  0  0
 12 13  1  0  0  0
 16 15  2  0  0  0
 13 14  2  0  0  0
 15 14  1  0  0  0
 15  1  1  0  0  0
  1  2  2  0  0  0
  2  3  1  0  0  0
  4  3  2  0  0  0
  4  5  1  0  0  0
  3  8  1  0  0  0
  5  6  2  0  0  0
  8 10  1  0  0  0
  8  7  2  0  0  0
  6  7  1  0  0  0
  6  9  1  0  0  0
 19 21  1  0  0  0
  9 11  1  0  0  0
M  END
> <minimizedAffinity>
-8.41192

$$$$
5U4D_XLO_A_200


 21 22  0  0  0  0  0  0  0  0999 V2000
  -21.3449   -0.2832  -25.8144 C   0  0  0  0  0  0  0  0  0  0  0  0
  -22.3139   -0.1497  -24.8952 C   0  0  0  0  0  0  0  0  0  0  0  0
  -22.0482   -0.0812  -23.4096 C   0  0  0  0  0  0  0  0  0  0  0  0
  -22.0266   -1.2954  -22.7223 C   0  0  0  0  0  0  0  0  0  0  0  0
  -21.7907   -1.3227  -21.3652 C   0  0  0  0  0  0  0  0  0  0  0  0
  -21.5554   -0.1318  -20.6987 C   0  0  0  0  0  0  0  0  0  0  0  0
  -21.5658    1.0792  -21.3781 C   0  0  0  0  0  0  0  0  0  0  0  0
  -21.8135    1.1152  -22.7474 C   0  0  0  0  0  0  0  0  0  0  0  0
  -21.3211   -0.1642  -19.3115 O   0  0  0  0  0  0  0  0  0  0  0  0
  -21.8138    2.6573  -23.5806 Cl  0  0  0  0  0  0  0  0  0  0  0  0
  -21.3149   -0.9832  -18.8564 H   0  0  0  0  0  0  0  0  0  0  0  0
  -21.9252   -0.3253  -30.0479 C   0  0  0  0  0  0  0  0  0  0  0  0
  -22.6977   -1.1399  -29.2353 C   0  0  0  0  0  0  0  0  0  0  0  0
  -22.4981   -1.1329  -27.8663 C   0  0  0  0  0  0  0  0  0  0  0  0
  -21.5359   -0.3104  -27.3109 C   0  0  0  0  0  0  0  0  0  0  0  0
  -20.7710    0.5123  -28.1208 C   0  0  0  0  0  0  0  0  0  0  0  0
  -20.9622    0.4980  -29.4919 C   0  0  0  0  0  0  0  0  0  0  0  0
  -20.1258    1.3850  -30.3911 C   0  0  0  0  0  0  0  0  0  0  0  0
  -20.3056    1.3783  -31.6391 O   0  0  0  0  0  0  0  0  0  0  0  0
  -19.2461    2.1310  -29.8835 O   0  0  0  0  0  0  0  0  0  0  0  0
  -20.9601    0.8231  -32.0152 H   0  0  0  0  0  0  0  0  0  0  0  0
 20 18  2  0  0  0
 19 18  1  0  0  0
 18 17  1  0  0  0
 17 12  2  0  0  0
 17 16  1  0  0  0
 12 13  1  0  0  0
 16 15  2  0  0  0
 13 14  2  0  0  0
 15 14  1  0  0  0
 15  1  1  0  0  0
  1  2  2  0  0  0
  2  3  1  0  0  0
  4  3  2  0  0  0
  4  5  1  0  0  0
  3  8  1  0  0  0
  5  6  2  0  0  0
  8 10  1  0  0  0
  8  7  2  0  0  0
  6  7  1  0  0  0
  6  9  1  0  0  0
 19 21  1  0  0  0
  9 11  1  0  0  0
M  END
> <minimizedAffinity>
-8.33430

$$$$
5U4D_XLO_A_200


 21 22  0  0  0  0  0  0  0  0999 V2000
  -21.2820   -0.0037  -25.8133 C   0  0  0  0  0  0  0  0  0  0  0  0
  -22.2602   -0.1178  -24.9012 C   0  0  0  0  0  0  0  0  0  0  0  0
  -22.0204   -0.0523  -23.4110 C   0  0  0  0  0  0  0  0  0  0  0  0
  -21.9887   -1.2695  -22.7294 C   0  0  0  0  0  0  0  0  0  0  0  0
  -21.7750   -1.2996  -21.3687 C   0  0  0  0  0  0  0  0  0  0  0  0
  -21.5720   -0.1082  -20.6925 C   0  0  0  0  0  0  0  0  0  0  0  0
  -21.5925    1.1059  -21.3660 C   0  0  0  0  0  0  0  0  0  0  0  0
  -21.8181    1.1447  -22.7392 C   0  0  0  0  0  0  0  0  0  0  0  0
  -21.3603   -0.1436  -19.3017 O   0  0  0  0  0  0  0  0  0  0  0  0
  -21.8319    2.6908  -23.5647 Cl  0  0  0  0  0  0  0  0  0  0  0  0
  -21.3471   -0.9648  -18.8506 H   0  0  0  0  0  0  0  0  0  0  0  0
  -21.7431   -0.0668  -30.0612 C   0  0  0  0  0  0  0  0  0  0  0  0
  -20.7293    0.6829  -29.4861 C   0  0  0  0  0  0  0  0  0  0  0  0
  -20.5912    0.7110  -28.1098 C   0  0  0  0  0  0  0  0  0  0  0  0
  -21.4576   -0.0124  -27.3119 C   0  0  0  0  0  0  0  0  0  0  0  0
  -22.4642   -0.7708  -27.8858 C   0  0  0  0  0  0  0  0  0  0  0  0
  -22.6104   -0.7909  -29.2624 C   0  0  0  0  0  0  0  0  0  0  0  0
  -23.7132   -1.6078  -29.9036 C   0  0  0  0  0  0  0  0  0  0  0  0
  -23.7983   -1.6898  -31.1590 O   0  0  0  0  0  0  0  0  0  0  0  0
  -24.5480   -2.2059  -29.1734 O   0  0  0  0  0  0  0  0  0  0  0  0
  -23.1769   -1.2445  -31.7008 H   0  0  0  0  0  0  0  0  0  0  0  0
 20 18  2  0  0  0
 19 18  1  0  0  0
 18 17  1  0  0  0
 17 12  2  0  0  0
 17 16  1  0  0  0
 12 13  1  0  0  0
 16 15  2  0  0  0
 13 14  2  0  0  0
 15 14  1  0  0  0
 15  1  1  0  0  0
  1  2  2  0  0  0
  2  3  1  0  0  0
  4  3  2  0  0  0
  4  5  1  0  0  0
  3  8  1  0  0  0
  5  6  2  0  0  0
  8 10  1  0  0  0
  8  7  2  0  0  0
  6  7  1  0  0  0
  6  9  1  0  0  0
 19 21  1  0  0  0
  9 11  1  0  0  0
M  END
> <minimizedAffinity>
-8.28361

$$$$
5U4D_XLO_A_200


 21 22  0  0  0  0  0  0  0  0999 V2000
  -21.8909   -0.1242  -25.8649 C   0  0  0  0  0  0  0  0  0  0  0  0
  -21.0104    0.3162  -24.9525 C   0  0  0  0  0  0  0  0  0  0  0  0
  -21.2195    0.1835  -23.4621 C   0  0  0  0  0  0  0  0  0  0  0  0
  -21.3394    1.3715  -22.7400 C   0  0  0  0  0  0  0  0  0  0  0  0
  -21.5325    1.3402  -21.3763 C   0  0  0  0  0  0  0  0  0  0  0  0
  -21.6263    0.1151  -20.7374 C   0  0  0  0  0  0  0  0  0  0  0  0
  -21.5177   -1.0710  -21.4512 C   0  0  0  0  0  0  0  0  0  0  0  0
  -21.3123   -1.0470  -22.8278 C   0  0  0  0  0  0  0  0  0  0  0  0
  -21.8174    0.0884  -19.3434 O   0  0  0  0  0  0  0  0  0  0  0  0
  -21.1856   -2.5594  -23.7046 Cl  0  0  0  0  0  0  0  0  0  0  0  0
  -21.8903    0.8908  -18.8651 H   0  0  0  0  0  0  0  0  0  0  0  0
  -21.4511    0.0788  -30.1107 C   0  0  0  0  0  0  0  0  0  0  0  0
  -22.4812   -0.6644  -29.5562 C   0  0  0  0  0  0  0  0  0  0  0  0
  -22.6125   -0.7381  -28.1810 C   0  0  0  0  0  0  0  0  0  0  0  0
  -21.7232   -0.0665  -27.3633 C   0  0  0  0  0  0  0  0  0  0  0  0
  -20.7001    0.6856  -27.9162 C   0  0  0  0  0  0  0  0  0  0  0  0
  -20.5609    0.7511  -29.2921 C   0  0  0  0  0  0  0  0  0  0  0  0
  -19.4406    1.5615  -29.9108 C   0  0  0  0  0  0  0  0  0  0  0  0
  -18.6860    2.2642  -29.1850 O   0  0  0  0  0  0  0  0  0  0  0  0
  -19.2670    1.5302  -31.1585 O   0  0  0  0  0  0  0  0  0  0  0  0
  -18.8162    2.2866  -28.2574 H   0  0  0  0  0  0  0  0  0  0  0  0
 20 18  2  0  0  0
 19 18  1  0  0  0
 18 17  1  0  0  0
 17 12  2  0  0  0
 17 16  1  0  0  0
 12 13  1  0  0  0
 16 15  2  0  0  0
 13 14  2  0  0  0
 15 14  1  0  0  0
 15  1  1  0  0  0
  1  2  2  0  0  0
  2  3  1  0  0  0
  4  3  2  0  0  0
  4  5  1  0  0  0
  3  8  1  0  0  0
  5  6  2  0  0  0
  8 10  1  0  0  0
  8  7  2  0  0  0
  6  7  1  0  0  0
  6  9  1  0  0  0
 19 21  1  0  0  0
  9 11  1  0  0  0
M  END
> <minimizedAffinity>
-8.26880

$$$$
5U4D_XLO_A_200


 21 22  0  0  0  0  0  0  0  0999 V2000
  -21.8786    0.0562  -25.8807 C   0  0  0  0  0  0  0  0  0  0  0  0
  -20.9637    0.3814  -24.9538 C   0  0  0  0  0  0  0  0  0  0  0  0
  -21.1930    0.2288  -23.4684 C   0  0  0  0  0  0  0  0  0  0  0  0
  -21.2896    1.4070  -22.7270 C   0  0  0  0  0  0  0  0  0  0  0  0
  -21.4989    1.3575  -21.3662 C   0  0  0  0  0  0  0  0  0  0  0  0
  -21.6323    0.1246  -20.7499 C   0  0  0  0  0  0  0  0  0  0  0  0
  -21.5470   -1.0516  -21.4830 C   0  0  0  0  0  0  0  0  0  0  0  0
  -21.3255   -1.0095  -22.8567 C   0  0  0  0  0  0  0  0  0  0  0  0
  -21.8397    0.0791  -19.3587 O   0  0  0  0  0  0  0  0  0  0  0  0
  -21.2290   -2.5095  -23.7582 Cl  0  0  0  0  0  0  0  0  0  0  0  0
  -21.8968    0.8748  -18.8673 H   0  0  0  0  0  0  0  0  0  0  0  0
  -21.3276    0.2541  -30.1137 C   0  0  0  0  0  0  0  0  0  0  0  0
  -20.5425    1.0308  -29.2765 C   0  0  0  0  0  0  0  0  0  0  0  0
  -20.7326    0.9736  -27.9073 C   0  0  0  0  0  0  0  0  0  0  0  0
  -21.6978    0.1386  -27.3764 C   0  0  0  0  0  0  0  0  0  0  0  0
  -22.4754   -0.6465  -28.2112 C   0  0  0  0  0  0  0  0  0  0  0  0
  -22.2937   -0.5818  -29.5822 C   0  0  0  0  0  0  0  0  0  0  0  0
  -23.1439   -1.4271  -30.5081 C   0  0  0  0  0  0  0  0  0  0  0  0
  -24.0738   -2.1417  -30.0450 O   0  0  0  0  0  0  0  0  0  0  0  0
  -22.9153   -1.4129  -31.7473 O   0  0  0  0  0  0  0  0  0  0  0  0
  -24.2427   -2.1513  -29.1234 H   0  0  0  0  0  0  0  0  0  0  0  0
 20 18  2  0  0  0
 19 18  1  0  0  0
 18 17  1  0  0  0
 17 12  2  0  0  0
 17 16  1  0  0  0
 12 13  1  0  0  0
 16 15  2  0  0  0
 13 14  2  0  0  0
 15 14  1  0  0  0
 15  1  1  0  0  0
  1  2  2  0  0  0
  2  3  1  0  0  0
  4  3  2  0  0  0
  4  5  1  0  0  0
  3  8  1  0  0  0
  5  6  2  0  0  0
  8 10  1  0  0  0
  8  7  2  0  0  0
  6  7  1  0  0  0
  6  9  1  0  0  0
 19 21  1  0  0  0
  9 11  1  0  0  0
M  END
> <minimizedAffinity>
-8.26030

$$$$
5U4D_XLO_A_200


 21 22  0  0  0  0  0  0  0  0999 V2000
  -21.8172    0.9757  -25.5838 C   0  0  0  0  0  0  0  0  0  0  0  0
  -21.8536   -0.2440  -26.1431 C   0  0  0  0  0  0  0  0  0  0  0  0
  -22.0624   -0.4759  -27.6213 C   0  0  0  0  0  0  0  0  0  0  0  0
  -23.0492   -1.3967  -27.9758 C   0  0  0  0  0  0  0  0  0  0  0  0
  -23.3044   -1.6668  -29.3024 C   0  0  0  0  0  0  0  0  0  0  0  0
  -22.5830   -0.9974  -30.2767 C   0  0  0  0  0  0  0  0  0  0  0  0
  -21.6065   -0.0727  -29.9312 C   0  0  0  0  0  0  0  0  0  0  0  0
  -21.3362    0.1978  -28.5927 C   0  0  0  0  0  0  0  0  0  0  0  0
  -22.8430   -1.2813  -31.6303 O   0  0  0  0  0  0  0  0  0  0  0  0
  -20.1028    1.3747  -28.1856 Cl  0  0  0  0  0  0  0  0  0  0  0  0
  -23.5028   -1.9058  -31.8597 H   0  0  0  0  0  0  0  0  0  0  0  0
  -21.1558    1.8520  -21.4539 C   0  0  0  0  0  0  0  0  0  0  0  0
  -21.0345    2.8551  -22.4024 C   0  0  0  0  0  0  0  0  0  0  0  0
  -21.2368    2.5646  -23.7398 C   0  0  0  0  0  0  0  0  0  0  0  0
  -21.5660    1.2793  -24.1273 C   0  0  0  0  0  0  0  0  0  0  0  0
  -21.6986    0.2784  -23.1793 C   0  0  0  0  0  0  0  0  0  0  0  0
  -21.4855    0.5654  -21.8418 C   0  0  0  0  0  0  0  0  0  0  0  0
  -21.6169   -0.5216  -20.7950 C   0  0  0  0  0  0  0  0  0  0  0  0
  -21.6451   -0.2264  -19.5694 O   0  0  0  0  0  0  0  0  0  0  0  0
  -21.6971   -1.7260  -21.1567 O   0  0  0  0  0  0  0  0  0  0  0  0
  -21.5854    0.6696  -19.3018 H   0  0  0  0  0  0  0  0  0  0  0  0
 20 18  2  0  0  0
 19 18  1  0  0  0
 18 17  1  0  0  0
 17 12  2  0  0  0
 17 16  1  0  0  0
 12 13  1  0  0  0
 16 15  2  0  0  0
 13 14  2  0  0  0
 15 14  1  0  0  0
 15  1  1  0  0  0
  1  2  2  0  0  0
  2  3  1  0  0  0
  4  3  2  0  0  0
  4  5  1  0  0  0
  3  8  1  0  0  0
  5  6  2  0  0  0
  8 10  1  0  0  0
  8  7  2  0  0  0
  6  7  1  0  0  0
  6  9  1  0  0  0
 19 21  1  0  0  0
  9 11  1  0  0  0
M  END
> <minimizedAffinity>
-7.98802

$$$$
5U4D_XLO_A_200


 21 22  0  0  0  0  0  0  0  0999 V2000
  -19.8652    1.1388  -28.5804 C   0  0  0  0  0  0  0  0  0  0  0  0
  -21.0894    0.6942  -28.2560 C   0  0  0  0  0  0  0  0  0  0  0  0
  -21.5022    0.3478  -26.8446 C   0  0  0  0  0  0  0  0  0  0  0  0
  -22.2231    1.3189  -26.1485 C   0  0  0  0  0  0  0  0  0  0  0  0
  -22.6387    1.0838  -24.8563 C   0  0  0  0  0  0  0  0  0  0  0  0
  -22.3490   -0.1356  -24.2671 C   0  0  0  0  0  0  0  0  0  0  0  0
  -21.6406   -1.1101  -24.9574 C   0  0  0  0  0  0  0  0  0  0  0  0
  -21.2086   -0.8757  -26.2598 C   0  0  0  0  0  0  0  0  0  0  0  0
  -22.7703   -0.3687  -22.9448 O   0  0  0  0  0  0  0  0  0  0  0  0
  -20.3222   -2.1263  -27.1097 Cl  0  0  0  0  0  0  0  0  0  0  0  0
  -23.2482    0.2913  -22.4821 H   0  0  0  0  0  0  0  0  0  0  0  0
  -18.5582    2.3448  -32.4661 C   0  0  0  0  0  0  0  0  0  0  0  0
  -19.9120    2.3087  -32.1714 C   0  0  0  0  0  0  0  0  0  0  0  0
  -20.3317    1.9054  -30.9163 C   0  0  0  0  0  0  0  0  0  0  0  0
  -19.4029    1.5467  -29.9576 C   0  0  0  0  0  0  0  0  0  0  0  0
  -18.0494    1.5930  -30.2472 C   0  0  0  0  0  0  0  0  0  0  0  0
  -17.6285    1.9858  -31.5063 C   0  0  0  0  0  0  0  0  0  0  0  0
  -16.1517    2.0314  -31.8406 C   0  0  0  0  0  0  0  0  0  0  0  0
  -15.4537    0.9826  -31.7890 O   0  0  0  0  0  0  0  0  0  0  0  0
  -15.6230    3.1266  -32.1705 O   0  0  0  0  0  0  0  0  0  0  0  0
  -15.8481    0.1689  -31.5435 H   0  0  0  0  0  0  0  0  0  0  0  0
 20 18  2  0  0  0
 19 18  1  0  0  0
 18 17  1  0  0  0
 17 12  2  0  0  0
 17 16  1  0  0  0
 12 13  1  0  0  0
 16 15  2  0  0  0
 13 14  2  0  0  0
 15 14  1  0  0  0
 15  1  1  0  0  0
  1  2  2  0  0  0
  2  3  1  0  0  0
  4  3  2  0  0  0
  4  5  1  0  0  0
  3  8  1  0  0  0
  5  6  2  0  0  0
  8 10  1  0  0  0
  8  7  2  0  0  0
  6  7  1  0  0  0
  6  9  1  0  0  0
 19 21  1  0  0  0
  9 11  1  0  0  0
M  END
> <minimizedAffinity>
-7.53726

$$$$
5U4D_XLO_A_200


 21 22  0  0  0  0  0  0  0  0999 V2000
  -21.7047   -0.9266  -25.7887 C   0  0  0  0  0  0  0  0  0  0  0  0
  -22.3470   -0.1520  -26.6771 C   0  0  0  0  0  0  0  0  0  0  0  0
  -22.3947   -0.4475  -28.1579 C   0  0  0  0  0  0  0  0  0  0  0  0
  -21.4946    0.2512  -28.9635 C   0  0  0  0  0  0  0  0  0  0  0  0
  -21.4715    0.0411  -30.3249 C   0  0  0  0  0  0  0  0  0  0  0  0
  -22.3384   -0.8865  -30.8779 C   0  0  0  0  0  0  0  0  0  0  0  0
  -23.2299   -1.5923  -30.0809 C   0  0  0  0  0  0  0  0  0  0  0  0
  -23.2659   -1.3779  -28.7059 C   0  0  0  0  0  0  0  0  0  0  0  0
  -22.3153   -1.0931  -32.2697 O   0  0  0  0  0  0  0  0  0  0  0  0
  -24.3967   -2.2878  -27.7233 Cl  0  0  0  0  0  0  0  0  0  0  0  0
  -21.7123   -0.6150  -32.8043 H   0  0  0  0  0  0  0  0  0  0  0  0
  -21.5194   -0.3441  -21.5593 C   0  0  0  0  0  0  0  0  0  0  0  0
  -21.7350   -1.6125  -22.0745 C   0  0  0  0  0  0  0  0  0  0  0  0
  -21.8072   -1.7949  -23.4441 C   0  0  0  0  0  0  0  0  0  0  0  0
  -21.6574   -0.7163  -24.2953 C   0  0  0  0  0  0  0  0  0  0  0  0
  -21.4307    0.5499  -23.7821 C   0  0  0  0  0  0  0  0  0  0  0  0
  -21.3693    0.7356  -22.4115 C   0  0  0  0  0  0  0  0  0  0  0  0
  -21.1322    2.1165  -21.8356 C   0  0  0  0  0  0  0  0  0  0  0  0
  -20.4069    2.2657  -20.8150 O   0  0  0  0  0  0  0  0  0  0  0  0
  -21.6661    3.1180  -22.3832 O   0  0  0  0  0  0  0  0  0  0  0  0
  -20.0106    1.5201  -20.4088 H   0  0  0  0  0  0  0  0  0  0  0  0
 20 18  2  0  0  0
 19 18  1  0  0  0
 18 17  1  0  0  0
 17 12  2  0  0  0
 17 16  1  0  0  0
 12 13  1  0  0  0
 16 15  2  0  0  0
 13 14  2  0  0  0
 15 14  1  0  0  0
 15  1  1  0  0  0
  1  2  2  0  0  0
  2  3  1  0  0  0
  4  3  2  0  0  0
  4  5  1  0  0  0
  3  8  1  0  0  0
  5  6  2  0  0  0
  8 10  1  0  0  0
  8  7  2  0  0  0
  6  7  1  0  0  0
  6  9  1  0  0  0
 19 21  1  0  0  0
  9 11  1  0  0  0
M  END
> <minimizedAffinity>
-7.46317

$$$$
