4N5D_2FQ_A_401


 16 17  0  0  0  0  0  0  0  0999 V2000
  -23.2983  -26.8834    0.9800 O   0  0  0  0  0  0  0  0  0  0  0  0
  -23.8466  -27.2165    2.0232 C   0  0  0  0  0  0  0  0  0  0  0  0
  -23.0674  -27.4009    3.2886 C   0  0  0  0  0  0  0  0  0  0  0  0
  -21.7325  -27.1999    3.2171 N   0  0  0  0  0  0  0  0  0  0  0  0
  -23.6999  -27.7596    4.4367 C   0  0  0  0  0  0  0  0  0  0  0  0
  -25.2105  -27.4284    2.0686 N   0  0  0  0  0  0  0  0  0  0  0  0
  -25.9548  -27.2574    0.8210 C   0  0  0  0  0  0  0  0  0  0  0  0
  -25.8745  -27.7924    3.2203 C   0  0  0  0  0  0  0  0  0  0  0  0
  -25.1240  -27.9598    4.4159 C   0  0  0  0  0  0  0  0  0  0  0  0
  -25.8712  -28.3211    5.5394 C   0  0  0  0  0  0  0  0  0  0  0  0
  -27.1861  -28.5093    5.5404 N   0  0  0  0  0  0  0  0  0  0  0  0
  -27.1982  -27.9836    3.2170 N   0  0  0  0  0  0  0  0  0  0  0  0
  -27.8069  -28.3350    4.3570 C   0  0  0  0  0  0  0  0  0  0  0  0
  -29.2738  -28.5640    4.3140 C   0  0  0  0  0  0  0  0  0  0  0  0
  -21.1746  -27.3083    4.0210 H   0  0  0  0  0  0  0  0  0  0  0  0
  -21.3182  -26.9450    2.3611 H   0  0  0  0  0  0  0  0  0  0  0  0
  5  9  1  0  0  0
  5  3  2  0  0  0
 10 11  2  0  0  0
 10  9  1  0  0  0
  4  3  1  0  0  0
 11 13  1  0  0  0
  9  8  2  0  0  0
  3  2  1  0  0  0
 13 14  1  0  0  0
 13 12  2  0  0  0
  8 12  1  0  0  0
  8  6  1  0  0  0
  2  6  1  0  0  0
  2  1  2  0  0  0
  6  7  1  0  0  0
  4 15  1  0  0  0
  4 16  1  0  0  0
M  END
> <minimizedAffinity>
-5.67385

$$$$
4N5D_2FQ_A_401


 16 17  0  0  0  0  0  0  0  0999 V2000
  -29.4336  -28.1357    1.6733 O   0  0  0  0  0  0  0  0  0  0  0  0
  -28.5535  -28.1430    2.5249 C   0  0  0  0  0  0  0  0  0  0  0  0
  -28.8554  -28.4703    3.9546 C   0  0  0  0  0  0  0  0  0  0  0  0
  -30.1450  -28.7381    4.2594 N   0  0  0  0  0  0  0  0  0  0  0  0
  -27.8597  -28.4835    4.8795 C   0  0  0  0  0  0  0  0  0  0  0  0
  -27.2449  -27.8538    2.1916 N   0  0  0  0  0  0  0  0  0  0  0  0
  -26.9694  -27.5229    0.7936 C   0  0  0  0  0  0  0  0  0  0  0  0
  -26.2182  -27.8608    3.1112 C   0  0  0  0  0  0  0  0  0  0  0  0
  -26.5172  -28.1775    4.4643 C   0  0  0  0  0  0  0  0  0  0  0  0
  -25.4217  -28.1707    5.3309 C   0  0  0  0  0  0  0  0  0  0  0  0
  -24.1752  -27.8922    4.9665 N   0  0  0  0  0  0  0  0  0  0  0  0
  -24.9647  -27.5772    2.7410 N   0  0  0  0  0  0  0  0  0  0  0  0
  -23.9945  -27.5962    3.6641 C   0  0  0  0  0  0  0  0  0  0  0  0
  -22.6178  -27.2523    3.2255 C   0  0  0  0  0  0  0  0  0  0  0  0
  -30.3963  -28.9590    5.1853 H   0  0  0  0  0  0  0  0  0  0  0  0
  -30.8328  -28.7121    3.5555 H   0  0  0  0  0  0  0  0  0  0  0  0
  5  9  1  0  0  0
  5  3  2  0  0  0
 10 11  2  0  0  0
 10  9  1  0  0  0
  4  3  1  0  0  0
 11 13  1  0  0  0
  9  8  2  0  0  0
  3  2  1  0  0  0
 13 14  1  0  0  0
 13 12  2  0  0  0
  8 12  1  0  0  0
  8  6  1  0  0  0
  2  6  1  0  0  0
  2  1  2  0  0  0
  6  7  1  0  0  0
  4 15  1  0  0  0
  4 16  1  0  0  0
M  END
> <minimizedAffinity>
-5.59641

$$$$
4N5D_2FQ_A_401


 16 17  0  0  0  0  0  0  0  0999 V2000
  -23.9373  -27.7047    4.3794 O   0  0  0  0  0  0  0  0  0  0  0  0
  -25.0051  -27.7587    3.7822 C   0  0  0  0  0  0  0  0  0  0  0  0
  -25.0924  -27.4735    2.3147 C   0  0  0  0  0  0  0  0  0  0  0  0
  -23.9418  -27.1374    1.6897 N   0  0  0  0  0  0  0  0  0  0  0  0
  -26.2870  -27.5513    1.6715 C   0  0  0  0  0  0  0  0  0  0  0  0
  -26.1698  -28.0921    4.4452 N   0  0  0  0  0  0  0  0  0  0  0  0
  -26.0694  -28.3543    5.8807 C   0  0  0  0  0  0  0  0  0  0  0  0
  -27.3927  -28.1776    3.8150 C   0  0  0  0  0  0  0  0  0  0  0  0
  -27.4614  -27.9089    2.4208 C   0  0  0  0  0  0  0  0  0  0  0  0
  -28.7339  -28.0245    1.8566 C   0  0  0  0  0  0  0  0  0  0  0  0
  -29.8294  -28.3547    2.5313 N   0  0  0  0  0  0  0  0  0  0  0  0
  -28.4941  -28.5077    4.4982 N   0  0  0  0  0  0  0  0  0  0  0  0
  -29.6634  -28.5818    3.8493 C   0  0  0  0  0  0  0  0  0  0  0  0
  -30.8716  -28.9264    4.6415 C   0  0  0  0  0  0  0  0  0  0  0  0
  -23.9451  -26.9402    0.7251 H   0  0  0  0  0  0  0  0  0  0  0  0
  -23.1006  -27.0899    2.1990 H   0  0  0  0  0  0  0  0  0  0  0  0
  5  9  1  0  0  0
  5  3  2  0  0  0
 10 11  2  0  0  0
 10  9  1  0  0  0
  4  3  1  0  0  0
 11 13  1  0  0  0
  9  8  2  0  0  0
  3  2  1  0  0  0
 13 14  1  0  0  0
 13 12  2  0  0  0
  8 12  1  0  0  0
  8  6  1  0  0  0
  2  6  1  0  0  0
  2  1  2  0  0  0
  6  7  1  0  0  0
  4 15  1  0  0  0
  4 16  1  0  0  0
M  END
> <minimizedAffinity>
-5.38482

$$$$
4N5D_2FQ_A_401


 16 17  0  0  0  0  0  0  0  0999 V2000
  -27.3846  -27.8881    2.5334 O   0  0  0  0  0  0  0  0  0  0  0  0
  -26.2278  -27.7697    2.9178 C   0  0  0  0  0  0  0  0  0  0  0  0
  -25.8503  -28.0279    4.3437 C   0  0  0  0  0  0  0  0  0  0  0  0
  -26.8490  -28.3788    5.1846 N   0  0  0  0  0  0  0  0  0  0  0  0
  -24.5578  -27.9013    4.7440 C   0  0  0  0  0  0  0  0  0  0  0  0
  -25.2266  -27.3977    2.0424 N   0  0  0  0  0  0  0  0  0  0  0  0
  -25.6144  -27.1360    0.6565 C   0  0  0  0  0  0  0  0  0  0  0  0
  -23.9090  -27.2628    2.4243 C   0  0  0  0  0  0  0  0  0  0  0  0
  -23.5630  -27.5152    3.7798 C   0  0  0  0  0  0  0  0  0  0  0  0
  -22.2080  -27.3644    4.0837 C   0  0  0  0  0  0  0  0  0  0  0  0
  -21.2747  -27.0100    3.2075 N   0  0  0  0  0  0  0  0  0  0  0  0
  -22.9725  -26.9032    1.5398 N   0  0  0  0  0  0  0  0  0  0  0  0
  -21.7030  -26.7846    1.9497 C   0  0  0  0  0  0  0  0  0  0  0  0
  -20.6914  -26.3595    0.9487 C   0  0  0  0  0  0  0  0  0  0  0  0
  -26.6537  -28.5595    6.1324 H   0  0  0  0  0  0  0  0  0  0  0  0
  -27.7715  -28.4536    4.8491 H   0  0  0  0  0  0  0  0  0  0  0  0
  5  9  1  0  0  0
  5  3  2  0  0  0
 10 11  2  0  0  0
 10  9  1  0  0  0
  4  3  1  0  0  0
 11 13  1  0  0  0
  9  8  2  0  0  0
  3  2  1  0  0  0
 13 14  1  0  0  0
 13 12  2  0  0  0
  8 12  1  0  0  0
  8  6  1  0  0  0
  2  6  1  0  0  0
  2  1  2  0  0  0
  6  7  1  0  0  0
  4 15  1  0  0  0
  4 16  1  0  0  0
M  END
> <minimizedAffinity>
-5.34087

$$$$
4N5D_2FQ_A_401


 16 17  0  0  0  0  0  0  0  0999 V2000
  -28.5225  -28.4339    4.4340 O   0  0  0  0  0  0  0  0  0  0  0  0
  -27.5412  -28.1583    3.7551 C   0  0  0  0  0  0  0  0  0  0  0  0
  -27.6638  -27.8636    2.2920 C   0  0  0  0  0  0  0  0  0  0  0  0
  -28.9036  -27.9347    1.7578 N   0  0  0  0  0  0  0  0  0  0  0  0
  -26.5617  -27.5486    1.5618 C   0  0  0  0  0  0  0  0  0  0  0  0
  -26.2826  -28.1040    4.3210 N   0  0  0  0  0  0  0  0  0  0  0  0
  -26.1785  -28.4078    5.7481 C   0  0  0  0  0  0  0  0  0  0  0  0
  -25.1504  -27.7870    3.6016 C   0  0  0  0  0  0  0  0  0  0  0  0
  -25.2809  -27.5049    2.2145 C   0  0  0  0  0  0  0  0  0  0  0  0
  -24.0892  -27.1852    1.5598 C   0  0  0  0  0  0  0  0  0  0  0  0
  -22.8977  -27.1384    2.1451 N   0  0  0  0  0  0  0  0  0  0  0  0
  -23.9520  -27.7434    4.1938 N   0  0  0  0  0  0  0  0  0  0  0  0
  -22.8760  -27.4297    3.4607 C   0  0  0  0  0  0  0  0  0  0  0  0
  -21.5567  -27.4144    4.1429 C   0  0  0  0  0  0  0  0  0  0  0  0
  -29.0383  -27.7500    0.8002 H   0  0  0  0  0  0  0  0  0  0  0  0
  -29.6717  -28.1712    2.3263 H   0  0  0  0  0  0  0  0  0  0  0  0
  5  9  1  0  0  0
  5  3  2  0  0  0
 10 11  2  0  0  0
 10  9  1  0  0  0
  4  3  1  0  0  0
 11 13  1  0  0  0
  9  8  2  0  0  0
  3  2  1  0  0  0
 13 14  1  0  0  0
 13 12  2  0  0  0
  8 12  1  0  0  0
  8  6  1  0  0  0
  2  6  1  0  0  0
  2  1  2  0  0  0
  6  7  1  0  0  0
  4 15  1  0  0  0
  4 16  1  0  0  0
M  END
> <minimizedAffinity>
-5.30890

$$$$
4N5D_2FQ_A_401


 16 17  0  0  0  0  0  0  0  0999 V2000
  -23.6858  -27.0490    2.1000 O   0  0  0  0  0  0  0  0  0  0  0  0
  -24.7453  -27.3978    2.6057 C   0  0  0  0  0  0  0  0  0  0  0  0
  -24.8251  -27.8051    4.0445 C   0  0  0  0  0  0  0  0  0  0  0  0
  -23.6710  -27.7858    4.7483 N   0  0  0  0  0  0  0  0  0  0  0  0
  -26.0146  -28.1771    4.5864 C   0  0  0  0  0  0  0  0  0  0  0  0
  -25.9093  -27.4214    1.8629 N   0  0  0  0  0  0  0  0  0  0  0  0
  -25.8115  -27.0338    0.4558 C   0  0  0  0  0  0  0  0  0  0  0  0
  -27.1271  -27.7946    2.3897 C   0  0  0  0  0  0  0  0  0  0  0  0
  -27.1903  -28.1747    3.7580 C   0  0  0  0  0  0  0  0  0  0  0  0
  -28.4607  -28.5310    4.2164 C   0  0  0  0  0  0  0  0  0  0  0  0
  -29.5578  -28.5339    3.4677 N   0  0  0  0  0  0  0  0  0  0  0  0
  -28.2293  -27.7988    1.6321 N   0  0  0  0  0  0  0  0  0  0  0  0
  -29.3940  -28.1662    2.1815 C   0  0  0  0  0  0  0  0  0  0  0  0
  -30.5944  -28.1841    1.3069 C   0  0  0  0  0  0  0  0  0  0  0  0
  -23.6693  -28.0447    5.6981 H   0  0  0  0  0  0  0  0  0  0  0  0
  -22.8322  -27.5129    4.3110 H   0  0  0  0  0  0  0  0  0  0  0  0
  5  9  1  0  0  0
  5  3  2  0  0  0
 10 11  2  0  0  0
 10  9  1  0  0  0
  4  3  1  0  0  0
 11 13  1  0  0  0
  9  8  2  0  0  0
  3  2  1  0  0  0
 13 14  1  0  0  0
 13 12  2  0  0  0
  8 12  1  0  0  0
  8  6  1  0  0  0
  2  6  1  0  0  0
  2  1  2  0  0  0
  6  7  1  0  0  0
  4 15  1  0  0  0
  4 16  1  0  0  0
M  END
> <minimizedAffinity>
-5.26204

$$$$
4N5D_2FQ_A_401


 16 17  0  0  0  0  0  0  0  0999 V2000
  -21.7374  -29.6317    6.2294 O   0  0  0  0  0  0  0  0  0  0  0  0
  -21.3190  -30.3446    5.3257 C   0  0  0  0  0  0  0  0  0  0  0  0
  -21.0794  -31.8078    5.5351 C   0  0  0  0  0  0  0  0  0  0  0  0
  -21.3296  -32.2958    6.7707 N   0  0  0  0  0  0  0  0  0  0  0  0
  -20.6258  -32.5809    4.5135 C   0  0  0  0  0  0  0  0  0  0  0  0
  -21.0586  -29.8205    4.0749 N   0  0  0  0  0  0  0  0  0  0  0  0
  -21.2849  -28.3871    3.8911 C   0  0  0  0  0  0  0  0  0  0  0  0
  -20.5984  -30.5838    3.0234 C   0  0  0  0  0  0  0  0  0  0  0  0
  -20.3793  -31.9725    3.2339 C   0  0  0  0  0  0  0  0  0  0  0  0
  -19.9208  -32.6762    2.1178 C   0  0  0  0  0  0  0  0  0  0  0  0
  -19.6886  -32.1328    0.9282 N   0  0  0  0  0  0  0  0  0  0  0  0
  -20.3632  -30.0326    1.8278 N   0  0  0  0  0  0  0  0  0  0  0  0
  -19.9182  -30.8083    0.8309 C   0  0  0  0  0  0  0  0  0  0  0  0
  -19.6430  -30.1609   -0.4772 C   0  0  0  0  0  0  0  0  0  0  0  0
  -21.1882  -33.2514    6.9606 H   0  0  0  0  0  0  0  0  0  0  0  0
  -21.6534  -31.6955    7.4808 H   0  0  0  0  0  0  0  0  0  0  0  0
  5  9  1  0  0  0
  5  3  2  0  0  0
 10 11  2  0  0  0
 10  9  1  0  0  0
  4  3  1  0  0  0
 11 13  1  0  0  0
  9  8  2  0  0  0
  3  2  1  0  0  0
 13 14  1  0  0  0
 13 12  2  0  0  0
  8 12  1  0  0  0
  8  6  1  0  0  0
  2  6  1  0  0  0
  2  1  2  0  0  0
  6  7  1  0  0  0
  4 15  1  0  0  0
  4 16  1  0  0  0
M  END
> <minimizedAffinity>
-5.14260

$$$$
4N5D_2FQ_A_401


 16 17  0  0  0  0  0  0  0  0999 V2000
  -28.1554  -28.3967    4.0525 O   0  0  0  0  0  0  0  0  0  0  0  0
  -26.9899  -28.1239    3.7936 C   0  0  0  0  0  0  0  0  0  0  0  0
  -25.9381  -28.1083    4.8594 C   0  0  0  0  0  0  0  0  0  0  0  0
  -26.3416  -28.3913    6.1182 N   0  0  0  0  0  0  0  0  0  0  0  0
  -24.6489  -27.8140    4.5455 C   0  0  0  0  0  0  0  0  0  0  0  0
  -26.6039  -27.8258    2.5016 N   0  0  0  0  0  0  0  0  0  0  0  0
  -27.6459  -27.8321    1.4751 C   0  0  0  0  0  0  0  0  0  0  0  0
  -25.3034  -27.5244    2.1586 C   0  0  0  0  0  0  0  0  0  0  0  0
  -24.3135  -27.5174    3.1788 C   0  0  0  0  0  0  0  0  0  0  0  0
  -23.0206  -27.2105    2.7484 C   0  0  0  0  0  0  0  0  0  0  0  0
  -22.6909  -26.9352    1.4915 N   0  0  0  0  0  0  0  0  0  0  0  0
  -24.9757  -27.2451    0.8924 N   0  0  0  0  0  0  0  0  0  0  0  0
  -23.7007  -26.9589    0.5991 C   0  0  0  0  0  0  0  0  0  0  0  0
  -23.3743  -26.6288   -0.8118 C   0  0  0  0  0  0  0  0  0  0  0  0
  -25.6891  -28.3943    6.8553 H   0  0  0  0  0  0  0  0  0  0  0  0
  -27.2881  -28.5945    6.2977 H   0  0  0  0  0  0  0  0  0  0  0  0
  5  9  1  0  0  0
  5  3  2  0  0  0
 10 11  2  0  0  0
 10  9  1  0  0  0
  4  3  1  0  0  0
 11 13  1  0  0  0
  9  8  2  0  0  0
  3  2  1  0  0  0
 13 14  1  0  0  0
 13 12  2  0  0  0
  8 12  1  0  0  0
  8  6  1  0  0  0
  2  6  1  0  0  0
  2  1  2  0  0  0
  6  7  1  0  0  0
  4 15  1  0  0  0
  4 16  1  0  0  0
M  END
> <minimizedAffinity>
-5.11649

$$$$
4N5D_2FQ_A_401


 16 17  0  0  0  0  0  0  0  0999 V2000
  -20.7635  -32.6748    5.0720 O   0  0  0  0  0  0  0  0  0  0  0  0
  -20.9800  -31.4898    4.8507 C   0  0  0  0  0  0  0  0  0  0  0  0
  -21.4981  -30.5793    5.9207 C   0  0  0  0  0  0  0  0  0  0  0  0
  -21.7308  -31.1327    7.1319 N   0  0  0  0  0  0  0  0  0  0  0  0
  -21.7194  -29.2652    5.6542 C   0  0  0  0  0  0  0  0  0  0  0  0
  -20.7462  -30.9499    3.6013 N   0  0  0  0  0  0  0  0  0  0  0  0
  -20.2533  -31.8557    2.5640 C   0  0  0  0  0  0  0  0  0  0  0  0
  -20.9627  -29.6209    3.3068 C   0  0  0  0  0  0  0  0  0  0  0  0
  -21.4504  -28.7660    4.3324 C   0  0  0  0  0  0  0  0  0  0  0  0
  -21.6356  -27.4337    3.9558 C   0  0  0  0  0  0  0  0  0  0  0  0
  -21.3918  -26.9538    2.7415 N   0  0  0  0  0  0  0  0  0  0  0  0
  -20.7186  -29.1418    2.0821 N   0  0  0  0  0  0  0  0  0  0  0  0
  -20.9402  -27.8441    1.8361 C   0  0  0  0  0  0  0  0  0  0  0  0
  -20.6829  -27.3489    0.4596 C   0  0  0  0  0  0  0  0  0  0  0  0
  -22.0719  -30.5771    7.8696 H   0  0  0  0  0  0  0  0  0  0  0  0
  -21.5593  -32.0914    7.2763 H   0  0  0  0  0  0  0  0  0  0  0  0
  5  9  1  0  0  0
  5  3  2  0  0  0
 10 11  2  0  0  0
 10  9  1  0  0  0
  4  3  1  0  0  0
 11 13  1  0  0  0
  9  8  2  0  0  0
  3  2  1  0  0  0
 13 14  1  0  0  0
 13 12  2  0  0  0
  8 12  1  0  0  0
  8  6  1  0  0  0
  2  6  1  0  0  0
  2  1  2  0  0  0
  6  7  1  0  0  0
  4 15  1  0  0  0
  4 16  1  0  0  0
M  END
> <minimizedAffinity>
-5.07378

$$$$
4N5D_2FQ_A_401


 16 17  0  0  0  0  0  0  0  0999 V2000
  -22.8130  -27.5249    4.1721 O   0  0  0  0  0  0  0  0  0  0  0  0
  -23.8086  -27.5326    3.4588 C   0  0  0  0  0  0  0  0  0  0  0  0
  -23.7196  -27.2370    1.9935 C   0  0  0  0  0  0  0  0  0  0  0  0
  -22.4938  -26.9449    1.5040 N   0  0  0  0  0  0  0  0  0  0  0  0
  -24.8369  -27.2631    1.2202 C   0  0  0  0  0  0  0  0  0  0  0  0
  -25.0525  -27.8217    3.9845 N   0  0  0  0  0  0  0  0  0  0  0  0
  -25.1240  -28.0946    5.4197 C   0  0  0  0  0  0  0  0  0  0  0  0
  -26.1996  -27.8544    3.2209 C   0  0  0  0  0  0  0  0  0  0  0  0
  -26.1010  -27.5764    1.8303 C   0  0  0  0  0  0  0  0  0  0  0  0
  -27.3060  -27.6375    1.1265 C   0  0  0  0  0  0  0  0  0  0  0  0
  -28.4824  -27.9262    1.6715 N   0  0  0  0  0  0  0  0  0  0  0  0
  -27.3828  -28.1428    3.7737 N   0  0  0  0  0  0  0  0  0  0  0  0
  -28.4741  -28.1662    2.9977 C   0  0  0  0  0  0  0  0  0  0  0  0
  -29.7762  -28.4653    3.6467 C   0  0  0  0  0  0  0  0  0  0  0  0
  -22.3812  -26.7431    0.5470 H   0  0  0  0  0  0  0  0  0  0  0  0
  -21.7137  -26.9340    2.1045 H   0  0  0  0  0  0  0  0  0  0  0  0
  5  9  1  0  0  0
  5  3  2  0  0  0
 10 11  2  0  0  0
 10  9  1  0  0  0
  4  3  1  0  0  0
 11 13  1  0  0  0
  9  8  2  0  0  0
  3  2  1  0  0  0
 13 14  1  0  0  0
 13 12  2  0  0  0
  8 12  1  0  0  0
  8  6  1  0  0  0
  2  6  1  0  0  0
  2  1  2  0  0  0
  6  7  1  0  0  0
  4 15  1  0  0  0
  4 16  1  0  0  0
M  END
> <minimizedAffinity>
-4.71341

$$$$
