2X4Z_X4Z_A_1593


 36 40  0  0  0  0  0  0  0  0999 V2000
   20.9174   22.8870   55.3674 C   0  0  0  0  0  0  0  0  0  0  0  0
   20.8475   22.5136   56.6857 C   0  0  0  0  0  0  0  0  0  0  0  0
   21.4709   24.1881   55.4272 C   0  0  0  0  0  0  0  0  0  0  0  0
   20.4936   21.7997   54.4625 C   0  0  0  0  0  0  0  0  0  0  0  0
   20.2698   21.1340   56.9239 C   0  0  0  0  0  0  0  0  0  0  0  0
   21.3145   23.4545   57.5208 N   0  0  0  0  0  0  0  0  0  0  0  0
   21.6813   25.0344   54.2475 N   0  0  0  0  0  0  0  0  0  0  0  0
   21.7222   24.5369   56.7068 N   0  0  0  0  0  0  0  0  0  0  0  0
   20.2180   20.6975   55.4758 N   0  0  0  0  0  0  0  0  0  0  0  0
   21.2758   20.3471   57.7911 C   0  0  0  0  0  0  0  0  0  0  0  0
   18.9193   21.2308   57.6686 C   0  0  0  0  0  0  0  0  0  0  0  0
   19.9615   19.4052   55.1248 C   0  0  0  0  0  0  0  0  0  0  0  0
   19.9670   19.0855   53.8397 N   0  0  0  0  0  0  0  0  0  0  0  0
   19.7137   18.5565   55.9791 O   0  0  0  0  0  0  0  0  0  0  0  0
   20.1333   19.7822   53.1643 H   0  0  0  0  0  0  0  0  0  0  0  0
   21.0301   25.1888   53.0957 C   0  0  0  0  0  0  0  0  0  0  0  0
   20.5587   26.4643   52.7494 C   0  0  0  0  0  0  0  0  0  0  0  0
   20.8378   24.1136   52.2883 N   0  0  0  0  0  0  0  0  0  0  0  0
   19.8688   26.5858   51.4932 C   0  0  0  0  0  0  0  0  0  0  0  0
   20.6329   27.9731   53.5296 S   0  0  0  0  0  0  0  0  0  0  0  0
   20.1817   24.2328   51.1099 C   0  0  0  0  0  0  0  0  0  0  0  0
   19.7089   25.4312   50.7136 N   0  0  0  0  0  0  0  0  0  0  0  0
   19.4501   27.9353   51.2596 C   0  0  0  0  0  0  0  0  0  0  0  0
   19.8085   28.8140   52.3102 C   0  0  0  0  0  0  0  0  0  0  0  0
   19.9978   23.0418   50.2855 C   0  0  0  0  0  0  0  0  0  0  0  0
   19.7236   17.6798   53.4068 C   0  0  0  0  0  0  0  0  0  0  0  0
   18.3069   17.2156   53.3191 C   0  0  0  0  0  0  0  0  0  0  0  0
   17.9549   15.9553   53.8982 C   0  0  0  0  0  0  0  0  0  0  0  0
   17.3130   18.0079   52.6573 C   0  0  0  0  0  0  0  0  0  0  0  0
   16.6118   15.4828   53.8109 C   0  0  0  0  0  0  0  0  0  0  0  0
   15.9667   17.5436   52.5683 C   0  0  0  0  0  0  0  0  0  0  0  0
   15.6318   16.2793   53.1480 C   0  0  0  0  0  0  0  0  0  0  0  0
   20.4841   17.3528   52.0726 C   0  0  0  0  0  0  0  0  0  0  0  0
   20.9682   18.5298   51.3193 N   0  0  0  0  0  0  0  0  0  0  0  0
   20.1668   19.0202   50.1847 C   0  0  0  0  0  0  0  0  0  0  0  0
   22.3196   18.2092   50.8094 C   0  0  0  0  0  0  0  0  0  0  0  0
  1  2  2  0  0  0
  1  3  1  0  0  0
  1  4  1  0  0  0
  2  5  1  0  0  0
  2  6  1  0  0  0
  3  7  2  0  0  0
  3  8  1  0  0  0
  4  9  1  0  0  0
  5  9  1  0  0  0
  5 10  1  0  0  0
  5 11  1  0  0  0
  6  8  2  0  0  0
  7 16  1  0  0  0
  9 12  1  0  0  0
 16 17  1  0  0  0
 16 18  2  0  0  0
 12 13  1  0  0  0
 12 14  2  0  0  0
 17 19  2  0  0  0
 17 20  1  0  0  0
 18 21  1  0  0  0
 13 26  1  0  0  0
 19 22  1  0  0  0
 19 23  1  0  0  0
 20 24  1  0  0  0
 21 22  2  0  0  0
 21 25  1  0  0  0
 26 27  1  0  0  0
 26 33  1  0  0  0
 23 24  2  0  0  0
 27 28  1  0  0  0
 27 29  2  0  0  0
 33 34  1  0  0  0
 28 30  2  0  0  0
 29 31  1  0  0  0
 34 35  1  0  0  0
 34 36  1  0  0  0
 30 32  1  0  0  0
 31 32  2  0  0  0
 13 15  1  0  0  0
M  END
> <minimizedAffinity>
-7.84870

$$$$
2X4Z_X4Z_A_1593


 36 40  0  0  0  0  0  0  0  0999 V2000
   20.6493   20.8430   59.4747 C   0  0  0  0  0  0  0  0  0  0  0  0
   20.6264   20.8703   60.8461 C   0  0  0  0  0  0  0  0  0  0  0  0
   21.2876   22.0599   59.1361 C   0  0  0  0  0  0  0  0  0  0  0  0
   20.1088   19.5776   58.9387 C   0  0  0  0  0  0  0  0  0  0  0  0
   19.9750   19.6658   61.4932 C   0  0  0  0  0  0  0  0  0  0  0  0
   21.1969   21.9725   61.3564 N   0  0  0  0  0  0  0  0  0  0  0  0
   21.4882   22.5130   57.7554 N   0  0  0  0  0  0  0  0  0  0  0  0
   21.6290   22.7409   60.2505 N   0  0  0  0  0  0  0  0  0  0  0  0
   19.8177   18.8373   60.2367 N   0  0  0  0  0  0  0  0  0  0  0  0
   20.9735   19.0861   62.5180 C   0  0  0  0  0  0  0  0  0  0  0  0
   18.6754   20.0759   62.2217 C   0  0  0  0  0  0  0  0  0  0  0  0
   19.4604   17.5223   60.2844 C   0  0  0  0  0  0  0  0  0  0  0  0
   19.3765   16.8478   59.1480 N   0  0  0  0  0  0  0  0  0  0  0  0
   19.2049   16.9763   61.3558 O   0  0  0  0  0  0  0  0  0  0  0  0
   19.5507   17.3063   58.2944 H   0  0  0  0  0  0  0  0  0  0  0  0
   20.7875   22.3799   56.6303 C   0  0  0  0  0  0  0  0  0  0  0  0
   21.1178   23.1819   55.5273 C   0  0  0  0  0  0  0  0  0  0  0  0
   19.7745   21.4765   56.5778 N   0  0  0  0  0  0  0  0  0  0  0  0
   20.3401   22.9983   54.3313 C   0  0  0  0  0  0  0  0  0  0  0  0
   22.2987   24.3807   55.2844 S   0  0  0  0  0  0  0  0  0  0  0  0
   19.0416   21.3129   55.4512 C   0  0  0  0  0  0  0  0  0  0  0  0
   19.3106   22.0465   54.3530 N   0  0  0  0  0  0  0  0  0  0  0  0
   20.7849   23.8686   53.2846 C   0  0  0  0  0  0  0  0  0  0  0  0
   21.8676   24.6931   53.6750 C   0  0  0  0  0  0  0  0  0  0  0  0
   17.9599   20.3320   55.4540 C   0  0  0  0  0  0  0  0  0  0  0  0
   19.0205   15.3999   59.1498 C   0  0  0  0  0  0  0  0  0  0  0  0
   17.9841   14.9385   58.1788 C   0  0  0  0  0  0  0  0  0  0  0  0
   17.6591   15.7752   57.0644 C   0  0  0  0  0  0  0  0  0  0  0  0
   17.3131   13.6852   58.3595 C   0  0  0  0  0  0  0  0  0  0  0  0
   16.6594   15.3638   56.1338 C   0  0  0  0  0  0  0  0  0  0  0  0
   16.3140   13.2652   57.4314 C   0  0  0  0  0  0  0  0  0  0  0  0
   15.9970   14.1152   56.3252 C   0  0  0  0  0  0  0  0  0  0  0  0
   20.3005   14.4965   59.0457 C   0  0  0  0  0  0  0  0  0  0  0  0
   20.8038   13.9674   60.3318 N   0  0  0  0  0  0  0  0  0  0  0  0
   21.7054   12.8026   60.3115 C   0  0  0  0  0  0  0  0  0  0  0  0
   19.6296   13.6121   61.1589 C   0  0  0  0  0  0  0  0  0  0  0  0
  1  2  2  0  0  0
  1  3  1  0  0  0
  1  4  1  0  0  0
  2  5  1  0  0  0
  2  6  1  0  0  0
  3  7  2  0  0  0
  3  8  1  0  0  0
  4  9  1  0  0  0
  5  9  1  0  0  0
  5 10  1  0  0  0
  5 11  1  0  0  0
  6  8  2  0  0  0
  7 16  1  0  0  0
  9 12  1  0  0  0
 16 17  1  0  0  0
 16 18  2  0  0  0
 12 13  1  0  0  0
 12 14  2  0  0  0
 17 19  2  0  0  0
 17 20  1  0  0  0
 18 21  1  0  0  0
 13 26  1  0  0  0
 19 22  1  0  0  0
 19 23  1  0  0  0
 20 24  1  0  0  0
 21 22  2  0  0  0
 21 25  1  0  0  0
 26 27  1  0  0  0
 26 33  1  0  0  0
 23 24  2  0  0  0
 27 28  1  0  0  0
 27 29  2  0  0  0
 33 34  1  0  0  0
 28 30  2  0  0  0
 29 31  1  0  0  0
 34 35  1  0  0  0
 34 36  1  0  0  0
 30 32  1  0  0  0
 31 32  2  0  0  0
 13 15  1  0  0  0
M  END
> <minimizedAffinity>
-7.65296

$$$$
2X4Z_X4Z_A_1593


 36 40  0  0  0  0  0  0  0  0999 V2000
   19.7171   18.4321   57.4316 C   0  0  0  0  0  0  0  0  0  0  0  0
   19.8642   17.8519   56.1972 C   0  0  0  0  0  0  0  0  0  0  0  0
   19.5221   19.8002   57.1264 C   0  0  0  0  0  0  0  0  0  0  0  0
   19.7300   17.4311   58.5171 C   0  0  0  0  0  0  0  0  0  0  0  0
   20.1020   16.3564   56.2240 C   0  0  0  0  0  0  0  0  0  0  0  0
   19.7638   18.7333   55.1903 N   0  0  0  0  0  0  0  0  0  0  0  0
   19.3778   20.8454   58.1457 N   0  0  0  0  0  0  0  0  0  0  0  0
   19.5381   19.9938   55.7906 N   0  0  0  0  0  0  0  0  0  0  0  0
   19.8504   16.1509   57.7021 N   0  0  0  0  0  0  0  0  0  0  0  0
   19.0539   15.6978   55.3015 C   0  0  0  0  0  0  0  0  0  0  0  0
   21.5195   16.0216   55.7078 C   0  0  0  0  0  0  0  0  0  0  0  0
   19.7245   14.9052   58.2420 C   0  0  0  0  0  0  0  0  0  0  0  0
   19.4689   14.7998   59.5370 N   0  0  0  0  0  0  0  0  0  0  0  0
   19.8611   13.8998   57.5478 O   0  0  0  0  0  0  0  0  0  0  0  0
   19.3958   15.6126   60.0877 H   0  0  0  0  0  0  0  0  0  0  0  0
   19.8888   21.0229   59.3630 C   0  0  0  0  0  0  0  0  0  0  0  0
   20.8137   22.0585   59.5653 C   0  0  0  0  0  0  0  0  0  0  0  0
   19.5054   20.2010   60.3742 N   0  0  0  0  0  0  0  0  0  0  0  0
   21.3329   22.2183   60.8971 C   0  0  0  0  0  0  0  0  0  0  0  0
   21.4846   23.2258   58.5271 S   0  0  0  0  0  0  0  0  0  0  0  0
   20.0026   20.3521   61.6245 C   0  0  0  0  0  0  0  0  0  0  0  0
   20.8899   21.3316   61.8891 N   0  0  0  0  0  0  0  0  0  0  0  0
   22.2556   23.3113   60.9666 C   0  0  0  0  0  0  0  0  0  0  0  0
   22.4356   23.9616   59.7220 C   0  0  0  0  0  0  0  0  0  0  0  0
   19.5603   19.4351   62.6712 C   0  0  0  0  0  0  0  0  0  0  0  0
   19.2910   13.4609   60.1684 C   0  0  0  0  0  0  0  0  0  0  0  0
   20.3279   13.0099   61.1438 C   0  0  0  0  0  0  0  0  0  0  0  0
   21.3219   12.0748   60.7136 C   0  0  0  0  0  0  0  0  0  0  0  0
   20.3272   13.4917   62.4934 C   0  0  0  0  0  0  0  0  0  0  0  0
   22.3116   11.6157   61.6326 C   0  0  0  0  0  0  0  0  0  0  0  0
   21.3155   13.0395   63.4179 C   0  0  0  0  0  0  0  0  0  0  0  0
   22.2995   12.1009   62.9737 C   0  0  0  0  0  0  0  0  0  0  0  0
   17.8581   13.3091   60.7924 C   0  0  0  0  0  0  0  0  0  0  0  0
   16.8135   12.8311   59.8610 N   0  0  0  0  0  0  0  0  0  0  0  0
   15.5594   12.2978   60.4205 C   0  0  0  0  0  0  0  0  0  0  0  0
   17.4153   11.7737   59.0192 C   0  0  0  0  0  0  0  0  0  0  0  0
  1  2  2  0  0  0
  1  3  1  0  0  0
  1  4  1  0  0  0
  2  5  1  0  0  0
  2  6  1  0  0  0
  3  7  2  0  0  0
  3  8  1  0  0  0
  4  9  1  0  0  0
  5  9  1  0  0  0
  5 10  1  0  0  0
  5 11  1  0  0  0
  6  8  2  0  0  0
  7 16  1  0  0  0
  9 12  1  0  0  0
 16 17  1  0  0  0
 16 18  2  0  0  0
 12 13  1  0  0  0
 12 14  2  0  0  0
 17 19  2  0  0  0
 17 20  1  0  0  0
 18 21  1  0  0  0
 13 26  1  0  0  0
 19 22  1  0  0  0
 19 23  1  0  0  0
 20 24  1  0  0  0
 21 22  2  0  0  0
 21 25  1  0  0  0
 26 27  1  0  0  0
 26 33  1  0  0  0
 23 24  2  0  0  0
 27 28  1  0  0  0
 27 29  2  0  0  0
 33 34  1  0  0  0
 28 30  2  0  0  0
 29 31  1  0  0  0
 34 35  1  0  0  0
 34 36  1  0  0  0
 30 32  1  0  0  0
 31 32  2  0  0  0
 13 15  1  0  0  0
M  END
> <minimizedAffinity>
-7.59455

$$$$
2X4Z_X4Z_A_1593


 36 40  0  0  0  0  0  0  0  0999 V2000
   20.6912   20.7900   59.3811 C   0  0  0  0  0  0  0  0  0  0  0  0
   20.6603   20.7979   60.7527 C   0  0  0  0  0  0  0  0  0  0  0  0
   21.2268   22.0603   59.0609 C   0  0  0  0  0  0  0  0  0  0  0  0
   20.2607   19.4908   58.8268 C   0  0  0  0  0  0  0  0  0  0  0  0
   20.1093   19.5351   61.3815 C   0  0  0  0  0  0  0  0  0  0  0  0
   21.1345   21.9374   61.2795 N   0  0  0  0  0  0  0  0  0  0  0  0
   21.3946   22.5461   57.6869 N   0  0  0  0  0  0  0  0  0  0  0  0
   21.5053   22.7533   60.1854 N   0  0  0  0  0  0  0  0  0  0  0  0
   20.0272   18.7123   60.1141 N   0  0  0  0  0  0  0  0  0  0  0  0
   21.1485   19.0280   62.4044 C   0  0  0  0  0  0  0  0  0  0  0  0
   18.7769   19.8259   62.1081 C   0  0  0  0  0  0  0  0  0  0  0  0
   19.7810   17.3716   60.1437 C   0  0  0  0  0  0  0  0  0  0  0  0
   19.7586   16.7069   58.9987 N   0  0  0  0  0  0  0  0  0  0  0  0
   19.5675   16.7926   61.2071 O   0  0  0  0  0  0  0  0  0  0  0  0
   19.8974   17.1892   58.1517 H   0  0  0  0  0  0  0  0  0  0  0  0
   20.7122   22.3691   56.5566 C   0  0  0  0  0  0  0  0  0  0  0  0
   21.0322   23.1580   55.4412 C   0  0  0  0  0  0  0  0  0  0  0  0
   19.7273   21.4348   56.5109 N   0  0  0  0  0  0  0  0  0  0  0  0
   20.2753   22.9269   54.2402 C   0  0  0  0  0  0  0  0  0  0  0  0
   22.1798   24.3865   55.1876 S   0  0  0  0  0  0  0  0  0  0  0  0
   19.0136   21.2264   55.3793 C   0  0  0  0  0  0  0  0  0  0  0  0
   19.2743   21.9453   54.2694 N   0  0  0  0  0  0  0  0  0  0  0  0
   20.7069   23.7887   53.1810 C   0  0  0  0  0  0  0  0  0  0  0  0
   21.7597   24.6531   53.5670 C   0  0  0  0  0  0  0  0  0  0  0  0
   17.9617   20.2137   55.3897 C   0  0  0  0  0  0  0  0  0  0  0  0
   19.5250   15.2344   58.9809 C   0  0  0  0  0  0  0  0  0  0  0  0
   18.3096   14.7327   58.2731 C   0  0  0  0  0  0  0  0  0  0  0  0
   17.7465   15.5224   57.2210 C   0  0  0  0  0  0  0  0  0  0  0  0
   17.7043   13.4876   58.6432 C   0  0  0  0  0  0  0  0  0  0  0  0
   16.5752   15.0724   56.5427 C   0  0  0  0  0  0  0  0  0  0  0  0
   16.5342   13.0291   57.9677 C   0  0  0  0  0  0  0  0  0  0  0  0
   15.9805   13.8325   56.9214 C   0  0  0  0  0  0  0  0  0  0  0  0
   20.7982   14.4597   58.4865 C   0  0  0  0  0  0  0  0  0  0  0  0
   20.8249   14.1509   57.0405 N   0  0  0  0  0  0  0  0  0  0  0  0
   21.2819   12.8177   56.6117 C   0  0  0  0  0  0  0  0  0  0  0  0
   21.6917   15.1550   56.3851 C   0  0  0  0  0  0  0  0  0  0  0  0
  1  2  2  0  0  0
  1  3  1  0  0  0
  1  4  1  0  0  0
  2  5  1  0  0  0
  2  6  1  0  0  0
  3  7  2  0  0  0
  3  8  1  0  0  0
  4  9  1  0  0  0
  5  9  1  0  0  0
  5 10  1  0  0  0
  5 11  1  0  0  0
  6  8  2  0  0  0
  7 16  1  0  0  0
  9 12  1  0  0  0
 16 17  1  0  0  0
 16 18  2  0  0  0
 12 13  1  0  0  0
 12 14  2  0  0  0
 17 19  2  0  0  0
 17 20  1  0  0  0
 18 21  1  0  0  0
 13 26  1  0  0  0
 19 22  1  0  0  0
 19 23  1  0  0  0
 20 24  1  0  0  0
 21 22  2  0  0  0
 21 25  1  0  0  0
 26 27  1  0  0  0
 26 33  1  0  0  0
 23 24  2  0  0  0
 27 28  1  0  0  0
 27 29  2  0  0  0
 33 34  1  0  0  0
 28 30  2  0  0  0
 29 31  1  0  0  0
 34 35  1  0  0  0
 34 36  1  0  0  0
 30 32  1  0  0  0
 31 32  2  0  0  0
 13 15  1  0  0  0
M  END
> <minimizedAffinity>
-7.55854

$$$$
2X4Z_X4Z_A_1593


 36 40  0  0  0  0  0  0  0  0999 V2000
   17.8337   12.1915   59.1354 C   0  0  0  0  0  0  0  0  0  0  0  0
   17.0231   12.0910   58.0331 C   0  0  0  0  0  0  0  0  0  0  0  0
   18.0338   10.8431   59.5156 C   0  0  0  0  0  0  0  0  0  0  0  0
   18.2228   13.5895   59.4088 C   0  0  0  0  0  0  0  0  0  0  0  0
   16.6325   13.4153   57.4107 C   0  0  0  0  0  0  0  0  0  0  0  0
   16.7322   10.8208   57.7126 N   0  0  0  0  0  0  0  0  0  0  0  0
   18.7982   10.4402   60.7011 N   0  0  0  0  0  0  0  0  0  0  0  0
   17.3893   10.0123   58.6690 N   0  0  0  0  0  0  0  0  0  0  0  0
   17.5480   14.2912   58.2383 N   0  0  0  0  0  0  0  0  0  0  0  0
   16.9935   13.3538   55.9110 C   0  0  0  0  0  0  0  0  0  0  0  0
   15.1142   13.6604   57.5613 C   0  0  0  0  0  0  0  0  0  0  0  0
   17.7559   15.6033   57.9315 C   0  0  0  0  0  0  0  0  0  0  0  0
   18.5982   16.3017   58.6773 N   0  0  0  0  0  0  0  0  0  0  0  0
   17.1632   16.1337   56.9941 O   0  0  0  0  0  0  0  0  0  0  0  0
   19.0401   15.8734   59.4457 H   0  0  0  0  0  0  0  0  0  0  0  0
   18.9803   10.9765   61.9068 C   0  0  0  0  0  0  0  0  0  0  0  0
   17.9936   10.7909   62.8871 C   0  0  0  0  0  0  0  0  0  0  0  0
   20.1102   11.6875   62.1574 N   0  0  0  0  0  0  0  0  0  0  0  0
   18.2361   11.3807   64.1764 C   0  0  0  0  0  0  0  0  0  0  0  0
   16.5010    9.9769   62.8826 S   0  0  0  0  0  0  0  0  0  0  0  0
   20.3299   12.2460   63.3711 C   0  0  0  0  0  0  0  0  0  0  0  0
   19.4256   12.1003   64.3599 N   0  0  0  0  0  0  0  0  0  0  0  0
   17.1600   11.1096   65.0816 C   0  0  0  0  0  0  0  0  0  0  0  0
   16.1269   10.3388   64.4959 C   0  0  0  0  0  0  0  0  0  0  0  0
   21.5589   13.0057   63.5819 C   0  0  0  0  0  0  0  0  0  0  0  0
   18.8833   17.7311   58.3634 C   0  0  0  0  0  0  0  0  0  0  0  0
   19.0902   18.6658   59.5095 C   0  0  0  0  0  0  0  0  0  0  0  0
   19.9215   19.8155   59.3230 C   0  0  0  0  0  0  0  0  0  0  0  0
   18.4794   18.4163   60.7816 C   0  0  0  0  0  0  0  0  0  0  0  0
   20.1484   20.7128   60.4084 C   0  0  0  0  0  0  0  0  0  0  0  0
   18.6991   19.3106   61.8715 C   0  0  0  0  0  0  0  0  0  0  0  0
   19.5367   20.4528   61.6703 C   0  0  0  0  0  0  0  0  0  0  0  0
   20.0619   17.8663   57.3348 C   0  0  0  0  0  0  0  0  0  0  0  0
   21.1528   16.8806   57.4944 N   0  0  0  0  0  0  0  0  0  0  0  0
   22.3468   17.2679   58.2656 C   0  0  0  0  0  0  0  0  0  0  0  0
   21.6009   16.4868   56.1405 C   0  0  0  0  0  0  0  0  0  0  0  0
  1  2  2  0  0  0
  1  3  1  0  0  0
  1  4  1  0  0  0
  2  5  1  0  0  0
  2  6  1  0  0  0
  3  7  2  0  0  0
  3  8  1  0  0  0
  4  9  1  0  0  0
  5  9  1  0  0  0
  5 10  1  0  0  0
  5 11  1  0  0  0
  6  8  2  0  0  0
  7 16  1  0  0  0
  9 12  1  0  0  0
 16 17  1  0  0  0
 16 18  2  0  0  0
 12 13  1  0  0  0
 12 14  2  0  0  0
 17 19  2  0  0  0
 17 20  1  0  0  0
 18 21  1  0  0  0
 13 26  1  0  0  0
 19 22  1  0  0  0
 19 23  1  0  0  0
 20 24  1  0  0  0
 21 22  2  0  0  0
 21 25  1  0  0  0
 26 27  1  0  0  0
 26 33  1  0  0  0
 23 24  2  0  0  0
 27 28  1  0  0  0
 27 29  2  0  0  0
 33 34  1  0  0  0
 28 30  2  0  0  0
 29 31  1  0  0  0
 34 35  1  0  0  0
 34 36  1  0  0  0
 30 32  1  0  0  0
 31 32  2  0  0  0
 13 15  1  0  0  0
M  END
> <minimizedAffinity>
-7.51744

$$$$
2X4Z_X4Z_A_1593


 36 40  0  0  0  0  0  0  0  0999 V2000
   16.9346   12.7668   56.7444 C   0  0  0  0  0  0  0  0  0  0  0  0
   16.6169   13.1297   55.4600 C   0  0  0  0  0  0  0  0  0  0  0  0
   16.7964   11.3585   56.7276 C   0  0  0  0  0  0  0  0  0  0  0  0
   17.3586   13.9250   57.5564 C   0  0  0  0  0  0  0  0  0  0  0  0
   16.6736   14.6188   55.1897 C   0  0  0  0  0  0  0  0  0  0  0  0
   16.3168   12.0802   54.6796 N   0  0  0  0  0  0  0  0  0  0  0  0
   16.9755   10.5124   57.9127 N   0  0  0  0  0  0  0  0  0  0  0  0
   16.4369   10.9330   55.4980 N   0  0  0  0  0  0  0  0  0  0  0  0
   17.2931   15.0275   56.5086 N   0  0  0  0  0  0  0  0  0  0  0  0
   17.5841   14.8389   53.9626 C   0  0  0  0  0  0  0  0  0  0  0  0
   15.2628   15.1706   54.8848 C   0  0  0  0  0  0  0  0  0  0  0  0
   17.7693   16.2879   56.7176 C   0  0  0  0  0  0  0  0  0  0  0  0
   18.3318   16.5666   57.8835 N   0  0  0  0  0  0  0  0  0  0  0  0
   17.6653   17.1536   55.8508 O   0  0  0  0  0  0  0  0  0  0  0  0
   18.3779   15.8735   58.5811 H   0  0  0  0  0  0  0  0  0  0  0  0
   16.7354   10.6827   59.2118 C   0  0  0  0  0  0  0  0  0  0  0  0
   17.8206   10.7447   60.0991 C   0  0  0  0  0  0  0  0  0  0  0  0
   15.4525   10.7908   59.6450 N   0  0  0  0  0  0  0  0  0  0  0  0
   17.5147   10.9377   61.4913 C   0  0  0  0  0  0  0  0  0  0  0  0
   19.5025   10.6393   59.8744 S   0  0  0  0  0  0  0  0  0  0  0  0
   15.1704   10.9658   60.9576 C   0  0  0  0  0  0  0  0  0  0  0  0
   16.1664   11.0408   61.8626 N   0  0  0  0  0  0  0  0  0  0  0  0
   18.7074   10.9910   62.2821 C   0  0  0  0  0  0  0  0  0  0  0  0
   19.8866   10.8390   61.5134 C   0  0  0  0  0  0  0  0  0  0  0  0
   13.7726   11.0685   61.3673 C   0  0  0  0  0  0  0  0  0  0  0  0
   18.8960   17.9209   58.1490 C   0  0  0  0  0  0  0  0  0  0  0  0
   19.1982   18.2816   59.5663 C   0  0  0  0  0  0  0  0  0  0  0  0
   19.3380   19.6626   59.9138 C   0  0  0  0  0  0  0  0  0  0  0  0
   19.3588   17.2668   60.5653 C   0  0  0  0  0  0  0  0  0  0  0  0
   19.6446   20.0305   61.2575 C   0  0  0  0  0  0  0  0  0  0  0  0
   19.6627   17.6267   61.9122 C   0  0  0  0  0  0  0  0  0  0  0  0
   19.8041   19.0114   62.2425 C   0  0  0  0  0  0  0  0  0  0  0  0
   20.1429   18.2091   57.2392 C   0  0  0  0  0  0  0  0  0  0  0  0
   21.2548   17.2428   57.3707 N   0  0  0  0  0  0  0  0  0  0  0  0
   22.4870   17.6734   58.0536 C   0  0  0  0  0  0  0  0  0  0  0  0
   21.6269   16.8017   56.0084 C   0  0  0  0  0  0  0  0  0  0  0  0
  1  2  2  0  0  0
  1  3  1  0  0  0
  1  4  1  0  0  0
  2  5  1  0  0  0
  2  6  1  0  0  0
  3  7  2  0  0  0
  3  8  1  0  0  0
  4  9  1  0  0  0
  5  9  1  0  0  0
  5 10  1  0  0  0
  5 11  1  0  0  0
  6  8  2  0  0  0
  7 16  1  0  0  0
  9 12  1  0  0  0
 16 17  1  0  0  0
 16 18  2  0  0  0
 12 13  1  0  0  0
 12 14  2  0  0  0
 17 19  2  0  0  0
 17 20  1  0  0  0
 18 21  1  0  0  0
 13 26  1  0  0  0
 19 22  1  0  0  0
 19 23  1  0  0  0
 20 24  1  0  0  0
 21 22  2  0  0  0
 21 25  1  0  0  0
 26 27  1  0  0  0
 26 33  1  0  0  0
 23 24  2  0  0  0
 27 28  1  0  0  0
 27 29  2  0  0  0
 33 34  1  0  0  0
 28 30  2  0  0  0
 29 31  1  0  0  0
 34 35  1  0  0  0
 34 36  1  0  0  0
 30 32  1  0  0  0
 31 32  2  0  0  0
 13 15  1  0  0  0
M  END
> <minimizedAffinity>
-7.50106

$$$$
2X4Z_X4Z_A_1593


 36 40  0  0  0  0  0  0  0  0999 V2000
   17.5279   12.3316   58.5975 C   0  0  0  0  0  0  0  0  0  0  0  0
   16.7826   12.3785   57.4467 C   0  0  0  0  0  0  0  0  0  0  0  0
   17.6327   10.9450   58.8604 C   0  0  0  0  0  0  0  0  0  0  0  0
   17.9727   13.6742   59.0222 C   0  0  0  0  0  0  0  0  0  0  0  0
   16.5015   13.7741   56.9300 C   0  0  0  0  0  0  0  0  0  0  0  0
   16.4452   11.1616   56.9927 N   0  0  0  0  0  0  0  0  0  0  0  0
   18.3003   10.3927   60.0442 N   0  0  0  0  0  0  0  0  0  0  0  0
   16.9986   10.2331   57.9047 N   0  0  0  0  0  0  0  0  0  0  0  0
   17.4093   14.5168   57.8863 N   0  0  0  0  0  0  0  0  0  0  0  0
   16.9503   13.8276   55.4539 C   0  0  0  0  0  0  0  0  0  0  0  0
   14.9919   14.0927   57.0171 C   0  0  0  0  0  0  0  0  0  0  0  0
   17.7046   15.8370   57.7160 C   0  0  0  0  0  0  0  0  0  0  0  0
   18.5352   16.4149   58.5703 N   0  0  0  0  0  0  0  0  0  0  0  0
   17.1997   16.4836   56.8005 O   0  0  0  0  0  0  0  0  0  0  0  0
   18.9057   15.8938   59.3189 H   0  0  0  0  0  0  0  0  0  0  0  0
   18.4360   10.8064   61.3032 C   0  0  0  0  0  0  0  0  0  0  0  0
   19.5876   11.5241   61.6604 C   0  0  0  0  0  0  0  0  0  0  0  0
   17.4620   10.5245   62.2070 N   0  0  0  0  0  0  0  0  0  0  0  0
   19.6878   11.9579   63.0281 C   0  0  0  0  0  0  0  0  0  0  0  0
   20.9568   12.0199   60.7830 S   0  0  0  0  0  0  0  0  0  0  0  0
   17.5650   10.9297   63.4948 C   0  0  0  0  0  0  0  0  0  0  0  0
   18.6423   11.6292   63.9030 N   0  0  0  0  0  0  0  0  0  0  0  0
   20.9017   12.6830   63.2549 C   0  0  0  0  0  0  0  0  0  0  0  0
   21.7035   12.7941   62.0933 C   0  0  0  0  0  0  0  0  0  0  0  0
   16.4909   10.5922   64.4247 C   0  0  0  0  0  0  0  0  0  0  0  0
   18.9142   17.8477   58.4082 C   0  0  0  0  0  0  0  0  0  0  0  0
   19.0679   18.6695   59.6456 C   0  0  0  0  0  0  0  0  0  0  0  0
   18.2176   18.4004   60.7646 C   0  0  0  0  0  0  0  0  0  0  0  0
   20.0403   19.7198   59.7149 C   0  0  0  0  0  0  0  0  0  0  0  0
   18.3337   19.1843   61.9508 C   0  0  0  0  0  0  0  0  0  0  0  0
   20.1646   20.5065   60.8988 C   0  0  0  0  0  0  0  0  0  0  0  0
   19.3039   20.2282   62.0072 C   0  0  0  0  0  0  0  0  0  0  0  0
   20.1809   18.0040   57.4936 C   0  0  0  0  0  0  0  0  0  0  0  0
   21.1893   16.9304   57.6261 N   0  0  0  0  0  0  0  0  0  0  0  0
   22.3665   17.1691   58.4790 C   0  0  0  0  0  0  0  0  0  0  0  0
   21.6772   16.6054   56.2677 C   0  0  0  0  0  0  0  0  0  0  0  0
  1  2  2  0  0  0
  1  3  1  0  0  0
  1  4  1  0  0  0
  2  5  1  0  0  0
  2  6  1  0  0  0
  3  7  2  0  0  0
  3  8  1  0  0  0
  4  9  1  0  0  0
  5  9  1  0  0  0
  5 10  1  0  0  0
  5 11  1  0  0  0
  6  8  2  0  0  0
  7 16  1  0  0  0
  9 12  1  0  0  0
 16 17  1  0  0  0
 16 18  2  0  0  0
 12 13  1  0  0  0
 12 14  2  0  0  0
 17 19  2  0  0  0
 17 20  1  0  0  0
 18 21  1  0  0  0
 13 26  1  0  0  0
 19 22  1  0  0  0
 19 23  1  0  0  0
 20 24  1  0  0  0
 21 22  2  0  0  0
 21 25  1  0  0  0
 26 27  1  0  0  0
 26 33  1  0  0  0
 23 24  2  0  0  0
 27 28  1  0  0  0
 27 29  2  0  0  0
 33 34  1  0  0  0
 28 30  2  0  0  0
 29 31  1  0  0  0
 34 35  1  0  0  0
 34 36  1  0  0  0
 30 32  1  0  0  0
 31 32  2  0  0  0
 13 15  1  0  0  0
M  END
> <minimizedAffinity>
-7.23240

$$$$
2X4Z_X4Z_A_1593


 36 40  0  0  0  0  0  0  0  0999 V2000
   19.9370   18.5212   58.4306 C   0  0  0  0  0  0  0  0  0  0  0  0
   20.0110   19.0462   59.6959 C   0  0  0  0  0  0  0  0  0  0  0  0
   20.6161   19.4795   57.6410 C   0  0  0  0  0  0  0  0  0  0  0  0
   19.2918   17.1930   58.4209 C   0  0  0  0  0  0  0  0  0  0  0  0
   19.3410   18.2126   60.7682 C   0  0  0  0  0  0  0  0  0  0  0  0
   20.6753   20.2114   59.7401 N   0  0  0  0  0  0  0  0  0  0  0  0
   20.7449   19.3836   56.1828 N   0  0  0  0  0  0  0  0  0  0  0  0
   21.0710   20.4904   58.4113 N   0  0  0  0  0  0  0  0  0  0  0  0
   19.0515   16.9990   59.9117 N   0  0  0  0  0  0  0  0  0  0  0  0
   20.3749   17.9699   61.8886 C   0  0  0  0  0  0  0  0  0  0  0  0
   18.1196   18.9573   61.3525 C   0  0  0  0  0  0  0  0  0  0  0  0
   18.6267   15.8226   60.4545 C   0  0  0  0  0  0  0  0  0  0  0  0
   18.4271   14.7900   59.6498 N   0  0  0  0  0  0  0  0  0  0  0  0
   18.4166   15.7241   61.6618 O   0  0  0  0  0  0  0  0  0  0  0  0
   18.5664   14.8926   58.6806 H   0  0  0  0  0  0  0  0  0  0  0  0
   19.9614   18.9052   55.2175 C   0  0  0  0  0  0  0  0  0  0  0  0
   19.2415   19.8073   54.4195 C   0  0  0  0  0  0  0  0  0  0  0  0
   19.8774   17.5625   55.0301 N   0  0  0  0  0  0  0  0  0  0  0  0
   18.4150   19.2465   53.3844 C   0  0  0  0  0  0  0  0  0  0  0  0
   19.1314   21.5038   54.4075 S   0  0  0  0  0  0  0  0  0  0  0  0
   19.0925   17.0401   54.0583 C   0  0  0  0  0  0  0  0  0  0  0  0
   18.3795   17.8510   53.2516 N   0  0  0  0  0  0  0  0  0  0  0  0
   17.7455   20.2722   52.6424 C   0  0  0  0  0  0  0  0  0  0  0  0
   18.0515   21.5756   53.1027 C   0  0  0  0  0  0  0  0  0  0  0  0
   19.0351   15.5889   53.9070 C   0  0  0  0  0  0  0  0  0  0  0  0
   17.9931   13.4735   60.1987 C   0  0  0  0  0  0  0  0  0  0  0  0
   16.6920   12.9171   59.7217 C   0  0  0  0  0  0  0  0  0  0  0  0
   16.3421   13.0621   58.3418 C   0  0  0  0  0  0  0  0  0  0  0  0
   15.7977   12.2580   60.6270 C   0  0  0  0  0  0  0  0  0  0  0  0
   15.0963   12.5549   57.8668 C   0  0  0  0  0  0  0  0  0  0  0  0
   14.5511   11.7453   60.1591 C   0  0  0  0  0  0  0  0  0  0  0  0
   14.2137   11.9026   58.7777 C   0  0  0  0  0  0  0  0  0  0  0  0
   19.1262   12.3952   60.0608 C   0  0  0  0  0  0  0  0  0  0  0  0
   19.8679   12.0989   61.3055 N   0  0  0  0  0  0  0  0  0  0  0  0
   19.1945   12.3173   62.5974 C   0  0  0  0  0  0  0  0  0  0  0  0
   21.1000   12.9179   61.2972 C   0  0  0  0  0  0  0  0  0  0  0  0
  1  2  2  0  0  0
  1  3  1  0  0  0
  1  4  1  0  0  0
  2  5  1  0  0  0
  2  6  1  0  0  0
  3  7  2  0  0  0
  3  8  1  0  0  0
  4  9  1  0  0  0
  5  9  1  0  0  0
  5 10  1  0  0  0
  5 11  1  0  0  0
  6  8  2  0  0  0
  7 16  1  0  0  0
  9 12  1  0  0  0
 16 17  1  0  0  0
 16 18  2  0  0  0
 12 13  1  0  0  0
 12 14  2  0  0  0
 17 19  2  0  0  0
 17 20  1  0  0  0
 18 21  1  0  0  0
 13 26  1  0  0  0
 19 22  1  0  0  0
 19 23  1  0  0  0
 20 24  1  0  0  0
 21 22  2  0  0  0
 21 25  1  0  0  0
 26 27  1  0  0  0
 26 33  1  0  0  0
 23 24  2  0  0  0
 27 28  1  0  0  0
 27 29  2  0  0  0
 33 34  1  0  0  0
 28 30  2  0  0  0
 29 31  1  0  0  0
 34 35  1  0  0  0
 34 36  1  0  0  0
 30 32  1  0  0  0
 31 32  2  0  0  0
 13 15  1  0  0  0
M  END
> <minimizedAffinity>
-7.14943

$$$$
2X4Z_X4Z_A_1593


 36 40  0  0  0  0  0  0  0  0999 V2000
   18.7801   15.0011   56.3141 C   0  0  0  0  0  0  0  0  0  0  0  0
   18.7422   15.4485   55.0177 C   0  0  0  0  0  0  0  0  0  0  0  0
   18.8021   13.5933   56.1714 C   0  0  0  0  0  0  0  0  0  0  0  0
   18.8704   16.1145   57.2799 C   0  0  0  0  0  0  0  0  0  0  0  0
   18.7018   16.9550   54.8681 C   0  0  0  0  0  0  0  0  0  0  0  0
   18.7524   14.4510   54.1202 N   0  0  0  0  0  0  0  0  0  0  0  0
   18.7820   12.6633   57.3058 N   0  0  0  0  0  0  0  0  0  0  0  0
   18.7955   13.2500   54.8659 N   0  0  0  0  0  0  0  0  0  0  0  0
   18.9398   17.2966   56.3231 N   0  0  0  0  0  0  0  0  0  0  0  0
   19.8506   17.3639   53.9213 C   0  0  0  0  0  0  0  0  0  0  0  0
   17.3541   17.4054   54.2607 C   0  0  0  0  0  0  0  0  0  0  0  0
   19.2138   18.5702   56.7255 C   0  0  0  0  0  0  0  0  0  0  0  0
   19.4474   18.7915   58.0100 N   0  0  0  0  0  0  0  0  0  0  0  0
   19.2280   19.4977   55.9186 O   0  0  0  0  0  0  0  0  0  0  0  0
   19.3992   18.0452   58.6504 H   0  0  0  0  0  0  0  0  0  0  0  0
   18.2208   12.6943   58.5135 C   0  0  0  0  0  0  0  0  0  0  0  0
   16.8453   12.4421   58.6283 C   0  0  0  0  0  0  0  0  0  0  0  0
   18.9890   12.9688   59.5996 N   0  0  0  0  0  0  0  0  0  0  0  0
   16.2839   12.4779   59.9521 C   0  0  0  0  0  0  0  0  0  0  0  0
   15.6387   12.0821   57.4859 S   0  0  0  0  0  0  0  0  0  0  0  0
   18.4536   13.0077   60.8426 C   0  0  0  0  0  0  0  0  0  0  0  0
   17.1398   12.7680   61.0244 N   0  0  0  0  0  0  0  0  0  0  0  0
   14.8800   12.1962   59.9281 C   0  0  0  0  0  0  0  0  0  0  0  0
   14.3873   11.9568   58.6226 C   0  0  0  0  0  0  0  0  0  0  0  0
   19.3255   13.3149   61.9729 C   0  0  0  0  0  0  0  0  0  0  0  0
   19.7827   20.1609   58.4950 C   0  0  0  0  0  0  0  0  0  0  0  0
   19.7654   20.3990   59.9691 C   0  0  0  0  0  0  0  0  0  0  0  0
   19.0061   19.5184   60.8031 C   0  0  0  0  0  0  0  0  0  0  0  0
   20.4851   21.4960   60.5455 C   0  0  0  0  0  0  0  0  0  0  0  0
   18.9599   19.7368   62.2120 C   0  0  0  0  0  0  0  0  0  0  0  0
   20.4462   21.7195   61.9542 C   0  0  0  0  0  0  0  0  0  0  0  0
   19.6786   20.8331   62.7738 C   0  0  0  0  0  0  0  0  0  0  0  0
   21.1349   20.6699   57.8801 C   0  0  0  0  0  0  0  0  0  0  0  0
   21.0933   22.0342   57.3108 N   0  0  0  0  0  0  0  0  0  0  0  0
   19.7906   22.5912   56.9072 C   0  0  0  0  0  0  0  0  0  0  0  0
   21.9759   22.0500   56.1235 C   0  0  0  0  0  0  0  0  0  0  0  0
  1  2  2  0  0  0
  1  3  1  0  0  0
  1  4  1  0  0  0
  2  5  1  0  0  0
  2  6  1  0  0  0
  3  7  2  0  0  0
  3  8  1  0  0  0
  4  9  1  0  0  0
  5  9  1  0  0  0
  5 10  1  0  0  0
  5 11  1  0  0  0
  6  8  2  0  0  0
  7 16  1  0  0  0
  9 12  1  0  0  0
 16 17  1  0  0  0
 16 18  2  0  0  0
 12 13  1  0  0  0
 12 14  2  0  0  0
 17 19  2  0  0  0
 17 20  1  0  0  0
 18 21  1  0  0  0
 13 26  1  0  0  0
 19 22  1  0  0  0
 19 23  1  0  0  0
 20 24  1  0  0  0
 21 22  2  0  0  0
 21 25  1  0  0  0
 26 27  1  0  0  0
 26 33  1  0  0  0
 23 24  2  0  0  0
 27 28  1  0  0  0
 27 29  2  0  0  0
 33 34  1  0  0  0
 28 30  2  0  0  0
 29 31  1  0  0  0
 34 35  1  0  0  0
 34 36  1  0  0  0
 30 32  1  0  0  0
 31 32  2  0  0  0
 13 15  1  0  0  0
M  END
> <minimizedAffinity>
-7.09314

$$$$
2X4Z_X4Z_A_1593


 36 40  0  0  0  0  0  0  0  0999 V2000
   17.7701   13.9114   58.6497 C   0  0  0  0  0  0  0  0  0  0  0  0
   17.4568   12.7148   58.0561 C   0  0  0  0  0  0  0  0  0  0  0  0
   17.2930   14.8686   57.7229 C   0  0  0  0  0  0  0  0  0  0  0  0
   18.3652   13.7244   59.9882 C   0  0  0  0  0  0  0  0  0  0  0  0
   17.8715   11.4891   58.8431 C   0  0  0  0  0  0  0  0  0  0  0  0
   16.8313   12.8638   56.8783 N   0  0  0  0  0  0  0  0  0  0  0  0
   17.4592   16.3160   57.8946 N   0  0  0  0  0  0  0  0  0  0  0  0
   16.7210   14.2574   56.6639 N   0  0  0  0  0  0  0  0  0  0  0  0
   18.2931   12.2083   60.1061 N   0  0  0  0  0  0  0  0  0  0  0  0
   16.6256   10.5922   59.0062 C   0  0  0  0  0  0  0  0  0  0  0  0
   18.9704   10.7055   58.0906 C   0  0  0  0  0  0  0  0  0  0  0  0
   18.5651   11.5336   61.2592 C   0  0  0  0  0  0  0  0  0  0  0  0
   18.8935   12.2292   62.3371 N   0  0  0  0  0  0  0  0  0  0  0  0
   18.5235   10.3054   61.2965 O   0  0  0  0  0  0  0  0  0  0  0  0
   18.9562   13.2103   62.2842 H   0  0  0  0  0  0  0  0  0  0  0  0
   18.4077   17.0769   58.4386 C   0  0  0  0  0  0  0  0  0  0  0  0
   19.6607   17.1499   57.8113 C   0  0  0  0  0  0  0  0  0  0  0  0
   18.1414   17.7598   59.5821 N   0  0  0  0  0  0  0  0  0  0  0  0
   20.6515   17.9898   58.4291 C   0  0  0  0  0  0  0  0  0  0  0  0
   20.2924   16.4278   56.4077 S   0  0  0  0  0  0  0  0  0  0  0  0
   19.0803   18.5438   60.1628 C   0  0  0  0  0  0  0  0  0  0  0  0
   20.3029   18.6638   59.6084 N   0  0  0  0  0  0  0  0  0  0  0  0
   21.8757   17.9809   57.6860 C   0  0  0  0  0  0  0  0  0  0  0  0
   21.8184   17.1547   56.5378 C   0  0  0  0  0  0  0  0  0  0  0  0
   18.7409   19.2493   61.3954 C   0  0  0  0  0  0  0  0  0  0  0  0
   19.1691   11.5398   63.6300 C   0  0  0  0  0  0  0  0  0  0  0  0
   20.3931   11.9427   64.3847 C   0  0  0  0  0  0  0  0  0  0  0  0
   20.5060   11.5792   65.7641 C   0  0  0  0  0  0  0  0  0  0  0  0
   21.4363   12.6913   63.7484 C   0  0  0  0  0  0  0  0  0  0  0  0
   21.6577   11.9687   66.5102 C   0  0  0  0  0  0  0  0  0  0  0  0
   22.5928   13.0822   64.4871 C   0  0  0  0  0  0  0  0  0  0  0  0
   22.6885   12.7153   65.8666 C   0  0  0  0  0  0  0  0  0  0  0  0
   17.9151   11.5733   64.5743 C   0  0  0  0  0  0  0  0  0  0  0  0
   17.1615   10.3041   64.6653 N   0  0  0  0  0  0  0  0  0  0  0  0
   15.8367   10.2224   64.0263 C   0  0  0  0  0  0  0  0  0  0  0  0
   16.9880    9.9893   66.1005 C   0  0  0  0  0  0  0  0  0  0  0  0
  1  2  2  0  0  0
  1  3  1  0  0  0
  1  4  1  0  0  0
  2  5  1  0  0  0
  2  6  1  0  0  0
  3  7  2  0  0  0
  3  8  1  0  0  0
  4  9  1  0  0  0
  5  9  1  0  0  0
  5 10  1  0  0  0
  5 11  1  0  0  0
  6  8  2  0  0  0
  7 16  1  0  0  0
  9 12  1  0  0  0
 16 17  1  0  0  0
 16 18  2  0  0  0
 12 13  1  0  0  0
 12 14  2  0  0  0
 17 19  2  0  0  0
 17 20  1  0  0  0
 18 21  1  0  0  0
 13 26  1  0  0  0
 19 22  1  0  0  0
 19 23  1  0  0  0
 20 24  1  0  0  0
 21 22  2  0  0  0
 21 25  1  0  0  0
 26 27  1  0  0  0
 26 33  1  0  0  0
 23 24  2  0  0  0
 27 28  1  0  0  0
 27 29  2  0  0  0
 33 34  1  0  0  0
 28 30  2  0  0  0
 29 31  1  0  0  0
 34 35  1  0  0  0
 34 36  1  0  0  0
 30 32  1  0  0  0
 31 32  2  0  0  0
 13 15  1  0  0  0
M  END
> <minimizedAffinity>
-7.08916

$$$$
