4I8X_6P3_A_401


 16 17  0  0  0  0  0  0  0  0999 V2000
   11.0033   12.3395   46.7728 C   0  0  0  0  0  0  0  0  0  0  0  0
   11.0862   11.2845   45.8592 N   0  0  0  0  0  0  0  0  0  0  0  0
   11.2174    9.9910   46.2515 C   0  0  0  0  0  0  0  0  0  0  0  0
   11.2797    9.6320   47.6151 C   0  0  0  0  0  0  0  0  0  0  0  0
   11.2020   10.6842   48.5678 C   0  0  0  0  0  0  0  0  0  0  0  0
   11.0648   12.0337   48.1510 C   0  0  0  0  0  0  0  0  0  0  0  0
   10.8461   13.7275   46.2176 C   0  0  0  0  0  0  0  0  0  0  0  0
    9.8023   14.5584   46.6993 C   0  0  0  0  0  0  0  0  0  0  0  0
    9.6242   15.8806   46.2141 C   0  0  0  0  0  0  0  0  0  0  0  0
   10.4972   16.3998   45.2309 C   0  0  0  0  0  0  0  0  0  0  0  0
   11.5436   15.5820   44.7390 C   0  0  0  0  0  0  0  0  0  0  0  0
   11.7115   14.2654   45.2304 C   0  0  0  0  0  0  0  0  0  0  0  0
   11.4096    8.2147   48.0045 C   0  0  0  0  0  0  0  0  0  0  0  0
   12.2910    7.8582   48.7276 O   0  0  0  0  0  0  0  0  0  0  0  0
   10.5026    7.3548   47.4905 O   0  0  0  0  0  0  0  0  0  0  0  0
    9.8245    7.6709   46.9263 H   0  0  0  0  0  0  0  0  0  0  0  0
 10  9  2  0  0  0
 10 11  1  0  0  0
  9  8  1  0  0  0
 11 12  2  0  0  0
  8  7  2  0  0  0
 12  7  1  0  0  0
  7  1  1  0  0  0
  1  2  2  0  0  0
  1  6  1  0  0  0
  2  3  1  0  0  0
  6  5  2  0  0  0
  3  4  2  0  0  0
  5  4  1  0  0  0
  4 13  1  0  0  0
 13 14  2  0  0  0
 13 15  1  0  0  0
 15 16  1  0  0  0
M  END
> <minimizedAffinity>
-6.82303

$$$$
4I8X_6P3_A_401


 16 17  0  0  0  0  0  0  0  0999 V2000
   11.8056   12.0021   45.1014 C   0  0  0  0  0  0  0  0  0  0  0  0
   11.3197   10.7234   45.3906 N   0  0  0  0  0  0  0  0  0  0  0  0
   11.0239   10.3263   46.6551 C   0  0  0  0  0  0  0  0  0  0  0  0
   11.1920   11.1867   47.7614 C   0  0  0  0  0  0  0  0  0  0  0  0
   11.6886   12.4926   47.4988 C   0  0  0  0  0  0  0  0  0  0  0  0
   11.9955   12.9011   46.1749 C   0  0  0  0  0  0  0  0  0  0  0  0
   12.0838   12.3293   43.6609 C   0  0  0  0  0  0  0  0  0  0  0  0
   12.9727   11.5111   42.9179 C   0  0  0  0  0  0  0  0  0  0  0  0
   13.2546   11.7738   41.5516 C   0  0  0  0  0  0  0  0  0  0  0  0
   12.6440   12.8689   40.8984 C   0  0  0  0  0  0  0  0  0  0  0  0
   11.7550   13.6960   41.6272 C   0  0  0  0  0  0  0  0  0  0  0  0
   11.4815   13.4241   42.9890 C   0  0  0  0  0  0  0  0  0  0  0  0
   10.8479   10.7250   49.1199 C   0  0  0  0  0  0  0  0  0  0  0  0
   11.1945    9.6489   49.5053 O   0  0  0  0  0  0  0  0  0  0  0  0
   10.1153   11.5658   49.8832 O   0  0  0  0  0  0  0  0  0  0  0  0
    9.8615   12.4029   49.5471 H   0  0  0  0  0  0  0  0  0  0  0  0
 10  9  2  0  0  0
 10 11  1  0  0  0
  9  8  1  0  0  0
 11 12  2  0  0  0
  8  7  2  0  0  0
 12  7  1  0  0  0
  7  1  1  0  0  0
  1  2  2  0  0  0
  1  6  1  0  0  0
  2  3  1  0  0  0
  6  5  2  0  0  0
  3  4  2  0  0  0
  5  4  1  0  0  0
  4 13  1  0  0  0
 13 14  2  0  0  0
 13 15  1  0  0  0
 15 16  1  0  0  0
M  END
> <minimizedAffinity>
-6.59193

$$$$
4I8X_6P3_A_401


 16 17  0  0  0  0  0  0  0  0999 V2000
   11.2339   12.5447   46.4378 C   0  0  0  0  0  0  0  0  0  0  0  0
    9.9876   13.1562   46.2724 N   0  0  0  0  0  0  0  0  0  0  0  0
    9.8509   14.3954   45.7341 C   0  0  0  0  0  0  0  0  0  0  0  0
   10.9675   15.1462   45.3075 C   0  0  0  0  0  0  0  0  0  0  0  0
   12.2489   14.5518   45.4668 C   0  0  0  0  0  0  0  0  0  0  0  0
   12.3845   13.2563   46.0299 C   0  0  0  0  0  0  0  0  0  0  0  0
   11.2562   11.1647   47.0332 C   0  0  0  0  0  0  0  0  0  0  0  0
   11.2611   11.0124   48.4433 C   0  0  0  0  0  0  0  0  0  0  0  0
   11.2682    9.7289   49.0499 C   0  0  0  0  0  0  0  0  0  0  0  0
   11.2679    8.5645   48.2481 C   0  0  0  0  0  0  0  0  0  0  0  0
   11.2643    8.7001   46.8384 C   0  0  0  0  0  0  0  0  0  0  0  0
   11.2571    9.9850   46.2449 C   0  0  0  0  0  0  0  0  0  0  0  0
   10.7797   16.4846   44.7152 C   0  0  0  0  0  0  0  0  0  0  0  0
    9.6914   16.8695   44.4085 O   0  0  0  0  0  0  0  0  0  0  0  0
   11.8911   17.2295   44.5251 O   0  0  0  0  0  0  0  0  0  0  0  0
   12.7287   16.8944   44.7784 H   0  0  0  0  0  0  0  0  0  0  0  0
 10  9  2  0  0  0
 10 11  1  0  0  0
  9  8  1  0  0  0
 11 12  2  0  0  0
  8  7  2  0  0  0
 12  7  1  0  0  0
  7  1  1  0  0  0
  1  2  2  0  0  0
  1  6  1  0  0  0
  2  3  1  0  0  0
  6  5  2  0  0  0
  3  4  2  0  0  0
  5  4  1  0  0  0
  4 13  1  0  0  0
 13 14  2  0  0  0
 13 15  1  0  0  0
 15 16  1  0  0  0
M  END
> <minimizedAffinity>
-6.28315

$$$$
4I8X_6P3_A_401


 16 17  0  0  0  0  0  0  0  0999 V2000
   11.5992   12.4481   44.7253 C   0  0  0  0  0  0  0  0  0  0  0  0
   11.0206   13.6458   45.1557 N   0  0  0  0  0  0  0  0  0  0  0  0
   10.7362   13.8886   46.4612 C   0  0  0  0  0  0  0  0  0  0  0  0
   11.0085   12.9385   47.4689 C   0  0  0  0  0  0  0  0  0  0  0  0
   11.5935   11.7087   47.0609 C   0  0  0  0  0  0  0  0  0  0  0  0
   11.8883   11.4618   45.6950 C   0  0  0  0  0  0  0  0  0  0  0  0
   11.8795   12.3016   43.2558 C   0  0  0  0  0  0  0  0  0  0  0  0
   11.0118   12.9127   42.3149 C   0  0  0  0  0  0  0  0  0  0  0  0
   11.2448   12.8126   40.9181 C   0  0  0  0  0  0  0  0  0  0  0  0
   12.3622   12.0943   40.4343 C   0  0  0  0  0  0  0  0  0  0  0  0
   13.2372   11.4773   41.3613 C   0  0  0  0  0  0  0  0  0  0  0  0
   12.9948   11.5841   42.7516 C   0  0  0  0  0  0  0  0  0  0  0  0
   10.6977   13.2421   48.8790 C   0  0  0  0  0  0  0  0  0  0  0  0
   10.8876   14.3338   49.3249 O   0  0  0  0  0  0  0  0  0  0  0  0
   10.2125   12.2281   49.6292 O   0  0  0  0  0  0  0  0  0  0  0  0
   10.0763   11.3845   49.2449 H   0  0  0  0  0  0  0  0  0  0  0  0
 10  9  2  0  0  0
 10 11  1  0  0  0
  9  8  1  0  0  0
 11 12  2  0  0  0
  8  7  2  0  0  0
 12  7  1  0  0  0
  7  1  1  0  0  0
  1  2  2  0  0  0
  1  6  1  0  0  0
  2  3  1  0  0  0
  6  5  2  0  0  0
  3  4  2  0  0  0
  5  4  1  0  0  0
  4 13  1  0  0  0
 13 14  2  0  0  0
 13 15  1  0  0  0
 15 16  1  0  0  0
M  END
> <minimizedAffinity>
-6.10604

$$$$
4I8X_6P3_A_401


 16 17  0  0  0  0  0  0  0  0999 V2000
   11.8172   12.1979   44.3191 C   0  0  0  0  0  0  0  0  0  0  0  0
   10.8900   12.9901   43.6354 N   0  0  0  0  0  0  0  0  0  0  0  0
   10.9463   13.1805   42.2920 C   0  0  0  0  0  0  0  0  0  0  0  0
   11.9525   12.5865   41.5000 C   0  0  0  0  0  0  0  0  0  0  0  0
   12.9123   11.7783   42.1682 C   0  0  0  0  0  0  0  0  0  0  0  0
   12.8474   11.5835   43.5723 C   0  0  0  0  0  0  0  0  0  0  0  0
   11.6429   12.0517   45.8049 C   0  0  0  0  0  0  0  0  0  0  0  0
   11.2413   10.8016   46.3414 C   0  0  0  0  0  0  0  0  0  0  0  0
   11.0774   10.6134   47.7389 C   0  0  0  0  0  0  0  0  0  0  0  0
   11.3172   11.6825   48.6323 C   0  0  0  0  0  0  0  0  0  0  0  0
   11.7175   12.9372   48.1119 C   0  0  0  0  0  0  0  0  0  0  0  0
   11.8778   13.1130   46.7167 C   0  0  0  0  0  0  0  0  0  0  0  0
   11.9747   12.8053   40.0410 C   0  0  0  0  0  0  0  0  0  0  0  0
   12.1081   13.9033   39.5900 O   0  0  0  0  0  0  0  0  0  0  0  0
   11.8191   11.7151   39.2577 O   0  0  0  0  0  0  0  0  0  0  0  0
   11.7170   10.8690   39.6472 H   0  0  0  0  0  0  0  0  0  0  0  0
 10  9  2  0  0  0
 10 11  1  0  0  0
  9  8  1  0  0  0
 11 12  2  0  0  0
  8  7  2  0  0  0
 12  7  1  0  0  0
  7  1  1  0  0  0
  1  2  2  0  0  0
  1  6  1  0  0  0
  2  3  1  0  0  0
  6  5  2  0  0  0
  3  4  2  0  0  0
  5  4  1  0  0  0
  4 13  1  0  0  0
 13 14  2  0  0  0
 13 15  1  0  0  0
 15 16  1  0  0  0
M  END
> <minimizedAffinity>
-6.01099

$$$$
4I8X_6P3_A_401


 16 17  0  0  0  0  0  0  0  0999 V2000
   11.7643   12.3341   44.7737 C   0  0  0  0  0  0  0  0  0  0  0  0
   11.5009   11.0629   45.2927 N   0  0  0  0  0  0  0  0  0  0  0  0
   11.1755   10.8622   46.5958 C   0  0  0  0  0  0  0  0  0  0  0  0
   11.0845   11.9329   47.5111 C   0  0  0  0  0  0  0  0  0  0  0  0
   11.3510   13.2374   47.0131 C   0  0  0  0  0  0  0  0  0  0  0  0
   11.6902   13.4400   45.6502 C   0  0  0  0  0  0  0  0  0  0  0  0
   12.1006   12.4307   43.3118 C   0  0  0  0  0  0  0  0  0  0  0  0
   11.6251   13.5335   42.5571 C   0  0  0  0  0  0  0  0  0  0  0  0
   11.9291   13.6733   41.1775 C   0  0  0  0  0  0  0  0  0  0  0  0
   12.7239   12.7040   40.5237 C   0  0  0  0  0  0  0  0  0  0  0  0
   13.2051   11.5964   41.2635 C   0  0  0  0  0  0  0  0  0  0  0  0
   12.8957   11.4677   42.6386 C   0  0  0  0  0  0  0  0  0  0  0  0
   10.7157   11.6783   48.9170 C   0  0  0  0  0  0  0  0  0  0  0  0
   10.8508   10.5929   49.3969 O   0  0  0  0  0  0  0  0  0  0  0  0
   10.2077   12.7193   49.6130 O   0  0  0  0  0  0  0  0  0  0  0  0
   10.1164   13.5570   49.2032 H   0  0  0  0  0  0  0  0  0  0  0  0
 10  9  2  0  0  0
 10 11  1  0  0  0
  9  8  1  0  0  0
 11 12  2  0  0  0
  8  7  2  0  0  0
 12  7  1  0  0  0
  7  1  1  0  0  0
  1  2  2  0  0  0
  1  6  1  0  0  0
  2  3  1  0  0  0
  6  5  2  0  0  0
  3  4  2  0  0  0
  5  4  1  0  0  0
  4 13  1  0  0  0
 13 14  2  0  0  0
 13 15  1  0  0  0
 15 16  1  0  0  0
M  END
> <minimizedAffinity>
-5.85731

$$$$
4I8X_6P3_A_401


 16 17  0  0  0  0  0  0  0  0999 V2000
   10.9633   12.8980   45.7680 C   0  0  0  0  0  0  0  0  0  0  0  0
   10.1385   12.4703   46.8127 N   0  0  0  0  0  0  0  0  0  0  0  0
   10.1821   11.2045   47.3026 C   0  0  0  0  0  0  0  0  0  0  0  0
   11.0683   10.2374   46.7814 C   0  0  0  0  0  0  0  0  0  0  0  0
   11.9170   10.6420   45.7151 C   0  0  0  0  0  0  0  0  0  0  0  0
   11.8664   11.9664   45.2082 C   0  0  0  0  0  0  0  0  0  0  0  0
   10.8325   14.3272   45.3212 C   0  0  0  0  0  0  0  0  0  0  0  0
   11.4081   14.7291   44.0887 C   0  0  0  0  0  0  0  0  0  0  0  0
   11.2979   16.0647   43.6202 C   0  0  0  0  0  0  0  0  0  0  0  0
   10.6012   17.0296   44.3831 C   0  0  0  0  0  0  0  0  0  0  0  0
   10.0220   16.6440   45.6166 C   0  0  0  0  0  0  0  0  0  0  0  0
   10.1382   15.3095   46.0735 C   0  0  0  0  0  0  0  0  0  0  0  0
   11.0968    8.8750   47.3474 C   0  0  0  0  0  0  0  0  0  0  0  0
   10.8852    7.9227   46.6581 O   0  0  0  0  0  0  0  0  0  0  0  0
   11.3525    8.7687   48.6701 O   0  0  0  0  0  0  0  0  0  0  0  0
   11.5140    9.5384   49.1795 H   0  0  0  0  0  0  0  0  0  0  0  0
 10  9  2  0  0  0
 10 11  1  0  0  0
  9  8  1  0  0  0
 11 12  2  0  0  0
  8  7  2  0  0  0
 12  7  1  0  0  0
  7  1  1  0  0  0
  1  2  2  0  0  0
  1  6  1  0  0  0
  2  3  1  0  0  0
  6  5  2  0  0  0
  3  4  2  0  0  0
  5  4  1  0  0  0
  4 13  1  0  0  0
 13 14  2  0  0  0
 13 15  1  0  0  0
 15 16  1  0  0  0
M  END
> <minimizedAffinity>
-5.71774

$$$$
4I8X_6P3_A_401


 16 17  0  0  0  0  0  0  0  0999 V2000
   11.7807   12.3780   44.3182 C   0  0  0  0  0  0  0  0  0  0  0  0
   12.5328   11.5568   43.4729 N   0  0  0  0  0  0  0  0  0  0  0  0
   12.7411   11.8556   42.1647 C   0  0  0  0  0  0  0  0  0  0  0  0
   12.2055   13.0210   41.5754 C   0  0  0  0  0  0  0  0  0  0  0  0
   11.4323   13.8739   42.4096 C   0  0  0  0  0  0  0  0  0  0  0  0
   11.2189   13.5557   43.7759 C   0  0  0  0  0  0  0  0  0  0  0  0
   11.6317   11.9482   45.7509 C   0  0  0  0  0  0  0  0  0  0  0  0
   11.7445   12.9127   46.7847 C   0  0  0  0  0  0  0  0  0  0  0  0
   11.5975   12.5552   48.1507 C   0  0  0  0  0  0  0  0  0  0  0  0
   11.3301   11.2139   48.5089 C   0  0  0  0  0  0  0  0  0  0  0  0
   11.2159   10.2390   47.4880 C   0  0  0  0  0  0  0  0  0  0  0  0
   11.3642   10.6073   46.1295 C   0  0  0  0  0  0  0  0  0  0  0  0
   12.4633   13.3198   40.1537 C   0  0  0  0  0  0  0  0  0  0  0  0
   12.9579   14.3570   39.8275 O   0  0  0  0  0  0  0  0  0  0  0  0
   12.0971   12.3785   39.2558 O   0  0  0  0  0  0  0  0  0  0  0  0
   11.7117   11.5763   39.5489 H   0  0  0  0  0  0  0  0  0  0  0  0
 10  9  2  0  0  0
 10 11  1  0  0  0
  9  8  1  0  0  0
 11 12  2  0  0  0
  8  7  2  0  0  0
 12  7  1  0  0  0
  7  1  1  0  0  0
  1  2  2  0  0  0
  1  6  1  0  0  0
  2  3  1  0  0  0
  6  5  2  0  0  0
  3  4  2  0  0  0
  5  4  1  0  0  0
  4 13  1  0  0  0
 13 14  2  0  0  0
 13 15  1  0  0  0
 15 16  1  0  0  0
M  END
> <minimizedAffinity>
-5.66628

$$$$
4I8X_6P3_A_401


 16 17  0  0  0  0  0  0  0  0999 V2000
   10.3136   13.7955   46.5056 C   0  0  0  0  0  0  0  0  0  0  0  0
    9.2557   12.9735   46.9053 N   0  0  0  0  0  0  0  0  0  0  0  0
    9.4160   11.9655   47.8011 C   0  0  0  0  0  0  0  0  0  0  0  0
   10.6699   11.6845   48.3853 C   0  0  0  0  0  0  0  0  0  0  0  0
   11.7658   12.5015   47.9949 C   0  0  0  0  0  0  0  0  0  0  0  0
   11.5912   13.5533   47.0585 C   0  0  0  0  0  0  0  0  0  0  0  0
   10.0093   14.8869   45.5177 C   0  0  0  0  0  0  0  0  0  0  0  0
    8.7474   14.9113   44.8706 C   0  0  0  0  0  0  0  0  0  0  0  0
    8.4110   15.9301   43.9410 C   0  0  0  0  0  0  0  0  0  0  0  0
    9.3397   16.9533   43.6421 C   0  0  0  0  0  0  0  0  0  0  0  0
   10.6044   16.9420   44.2792 C   0  0  0  0  0  0  0  0  0  0  0  0
   10.9285   15.9211   45.2043 C   0  0  0  0  0  0  0  0  0  0  0  0
   10.8038   10.5892   49.3649 C   0  0  0  0  0  0  0  0  0  0  0  0
   11.4031    9.5934   49.0895 O   0  0  0  0  0  0  0  0  0  0  0  0
   10.2043   10.7652   50.5633 O   0  0  0  0  0  0  0  0  0  0  0  0
    9.7426   11.5603   50.7439 H   0  0  0  0  0  0  0  0  0  0  0  0
 10  9  2  0  0  0
 10 11  1  0  0  0
  9  8  1  0  0  0
 11 12  2  0  0  0
  8  7  2  0  0  0
 12  7  1  0  0  0
  7  1  1  0  0  0
  1  2  2  0  0  0
  1  6  1  0  0  0
  2  3  1  0  0  0
  6  5  2  0  0  0
  3  4  2  0  0  0
  5  4  1  0  0  0
  4 13  1  0  0  0
 13 14  2  0  0  0
 13 15  1  0  0  0
 15 16  1  0  0  0
M  END
> <minimizedAffinity>
-5.55479

$$$$
4I8X_6P3_A_401


 16 17  0  0  0  0  0  0  0  0999 V2000
    9.8501   11.8289   47.7380 C   0  0  0  0  0  0  0  0  0  0  0  0
   10.2983   10.8019   46.9018 N   0  0  0  0  0  0  0  0  0  0  0  0
   10.9410    9.7044   47.3777 C   0  0  0  0  0  0  0  0  0  0  0  0
   11.1981    9.5343   48.7552 C   0  0  0  0  0  0  0  0  0  0  0  0
   10.7575   10.5646   49.6300 C   0  0  0  0  0  0  0  0  0  0  0  0
   10.0863   11.7087   49.1259 C   0  0  0  0  0  0  0  0  0  0  0  0
    9.1394   12.9869   47.0950 C   0  0  0  0  0  0  0  0  0  0  0  0
    7.7235   13.0524   47.1453 C   0  0  0  0  0  0  0  0  0  0  0  0
    7.0107   14.1339   46.5641 C   0  0  0  0  0  0  0  0  0  0  0  0
    7.7096   15.1795   45.9184 C   0  0  0  0  0  0  0  0  0  0  0  0
    9.1235   15.1278   45.8588 C   0  0  0  0  0  0  0  0  0  0  0  0
    9.8234   14.0446   46.4421 C   0  0  0  0  0  0  0  0  0  0  0  0
   11.8878    8.3224   49.2375 C   0  0  0  0  0  0  0  0  0  0  0  0
   12.6776    7.7529   48.5457 O   0  0  0  0  0  0  0  0  0  0  0  0
   11.5670    7.8898   50.4770 O   0  0  0  0  0  0  0  0  0  0  0  0
   10.9426    8.3627   50.9913 H   0  0  0  0  0  0  0  0  0  0  0  0
 10  9  2  0  0  0
 10 11  1  0  0  0
  9  8  1  0  0  0
 11 12  2  0  0  0
  8  7  2  0  0  0
 12  7  1  0  0  0
  7  1  1  0  0  0
  1  2  2  0  0  0
  1  6  1  0  0  0
  2  3  1  0  0  0
  6  5  2  0  0  0
  3  4  2  0  0  0
  5  4  1  0  0  0
  4 13  1  0  0  0
 13 14  2  0  0  0
 13 15  1  0  0  0
 15 16  1  0  0  0
M  END
> <minimizedAffinity>
-5.50905

$$$$
