4MQ6_29W_A_404


 30 32  0  0  0  0  0  0  0  0999 V2000
   16.3589   10.2090   -1.0471 N   0  0  0  0  0  0  0  0  0  0  0  0
   15.5578   10.1523   -2.1468 C   0  0  0  0  0  0  0  0  0  0  0  0
   15.9111   10.0054   -3.4831 C   0  0  0  0  0  0  0  0  0  0  0  0
   14.9006    9.9876   -4.4410 C   0  0  0  0  0  0  0  0  0  0  0  0
   13.5563   10.0663   -4.0453 C   0  0  0  0  0  0  0  0  0  0  0  0
   13.2364   10.2426   -2.6619 C   0  0  0  0  0  0  0  0  0  0  0  0
   14.2597   10.2482   -1.7340 C   0  0  0  0  0  0  0  0  0  0  0  0
   14.2913   10.3662   -0.3588 C   0  0  0  0  0  0  0  0  0  0  0  0
   15.6029   10.3047    0.0570 C   0  0  0  0  0  0  0  0  0  0  0  0
   16.1167   10.3951    1.3425 C   0  0  0  0  0  0  0  0  0  0  0  0
   16.8473    9.5582    1.8694 O   0  0  0  0  0  0  0  0  0  0  0  0
   15.8382   11.4616    2.0041 N   0  0  0  0  0  0  0  0  0  0  0  0
   15.3173   12.1760    1.5710 H   0  0  0  0  0  0  0  0  0  0  0  0
   16.3409   11.6582    3.5782 S   0  0  0  0  0  0  0  0  0  0  0  0
   16.0951   12.9734    4.0026 O   0  0  0  0  0  0  0  0  0  0  0  0
   17.8433   11.7058    3.8803 O   0  0  0  0  0  0  0  0  0  0  0  0
   15.6696   10.5786    4.4591 C   0  0  0  0  0  0  0  0  0  0  0  0
   14.3335   10.3995    4.3082 C   0  0  0  0  0  0  0  0  0  0  0  0
   13.6879    9.4476    5.1726 C   0  0  0  0  0  0  0  0  0  0  0  0
   14.4101    8.7646    6.1756 C   0  0  0  0  0  0  0  0  0  0  0  0
   13.7851    7.8222    7.0067 C   0  0  0  0  0  0  0  0  0  0  0  0
   15.8134    8.9809    6.2707 C   0  0  0  0  0  0  0  0  0  0  0  0
   16.4468    9.9211    5.4385 C   0  0  0  0  0  0  0  0  0  0  0  0
   12.6487   10.0155   -5.0962 O   0  0  0  0  0  0  0  0  0  0  0  0
   11.3483    9.5863   -4.7242 C   0  0  0  0  0  0  0  0  0  0  0  0
   17.8320    9.9769   -1.1053 C   0  0  0  0  0  0  0  0  0  0  0  0
   18.4177   12.1519   -0.5408 O   0  0  0  0  0  0  0  0  0  0  0  0
   18.7825   10.9772   -0.6315 C   0  0  0  0  0  0  0  0  0  0  0  0
   19.9304   10.5168   -0.4703 O   0  0  0  0  0  0  0  0  0  0  0  0
   17.5195   12.3761   -0.6857 H   0  0  0  0  0  0  0  0  0  0  0  0
 24 25  1  0  0  0
 24  5  1  0  0  0
  4  5  2  0  0  0
  4  3  1  0  0  0
  5  6  1  0  0  0
  3  2  2  0  0  0
  6  7  2  0  0  0
  2  7  1  0  0  0
  2  1  1  0  0  0
  7  8  1  0  0  0
 26  1  1  0  0  0
 26 28  1  0  0  0
  1  9  1  0  0  0
 28 29  2  0  0  0
 28 27  1  0  0  0
  8  9  2  0  0  0
  9 10  1  0  0  0
 10 11  2  0  0  0
 10 12  1  0  0  0
 12 14  1  0  0  0
 14 16  2  0  0  0
 14 15  2  0  0  0
 14 17  1  0  0  0
 17 18  2  0  0  0
 17 23  1  0  0  0
 18 19  1  0  0  0
 23 22  2  0  0  0
 19 20  2  0  0  0
 22 20  1  0  0  0
 20 21  1  0  0  0
 27 30  1  0  0  0
 12 13  1  0  0  0
M  END
> <minimizedAffinity>
-10.01800

$$$$
4MQ6_29W_A_404


 30 32  0  0  0  0  0  0  0  0999 V2000
   15.6726   10.1256   -0.7055 N   0  0  0  0  0  0  0  0  0  0  0  0
   15.0203   10.0719   -1.8997 C   0  0  0  0  0  0  0  0  0  0  0  0
   15.5287    9.8074   -3.1660 C   0  0  0  0  0  0  0  0  0  0  0  0
   14.6552    9.8207   -4.2504 C   0  0  0  0  0  0  0  0  0  0  0  0
   13.2853   10.0477   -4.0461 C   0  0  0  0  0  0  0  0  0  0  0  0
   12.8067   10.3414   -2.7300 C   0  0  0  0  0  0  0  0  0  0  0  0
   13.6955   10.3128   -1.6730 C   0  0  0  0  0  0  0  0  0  0  0  0
   13.5589   10.5157   -0.3143 C   0  0  0  0  0  0  0  0  0  0  0  0
   14.7922   10.3612    0.2789 C   0  0  0  0  0  0  0  0  0  0  0  0
   15.1402   10.4867    1.6160 C   0  0  0  0  0  0  0  0  0  0  0  0
   14.8161    9.7013    2.5049 O   0  0  0  0  0  0  0  0  0  0  0  0
   15.8977   11.4777    1.9269 N   0  0  0  0  0  0  0  0  0  0  0  0
   16.2286   12.0737    1.2166 H   0  0  0  0  0  0  0  0  0  0  0  0
   16.3298   11.7729    3.5067 S   0  0  0  0  0  0  0  0  0  0  0  0
   15.1822   11.9361    4.2984 O   0  0  0  0  0  0  0  0  0  0  0  0
   16.9316   13.1348    3.8727 O   0  0  0  0  0  0  0  0  0  0  0  0
   17.2705   10.6444    3.9899 C   0  0  0  0  0  0  0  0  0  0  0  0
   16.9275    9.9996    5.1330 C   0  0  0  0  0  0  0  0  0  0  0  0
   17.8324    8.9967    5.6284 C   0  0  0  0  0  0  0  0  0  0  0  0
   19.0569    8.7317    4.9768 C   0  0  0  0  0  0  0  0  0  0  0  0
   19.9314    7.7407    5.4488 C   0  0  0  0  0  0  0  0  0  0  0  0
   19.3505    9.4274    3.7707 C   0  0  0  0  0  0  0  0  0  0  0  0
   18.4768   10.4191    3.2901 C   0  0  0  0  0  0  0  0  0  0  0  0
   12.5222   10.0128   -5.2067 O   0  0  0  0  0  0  0  0  0  0  0  0
   11.1638    9.6575   -5.0017 C   0  0  0  0  0  0  0  0  0  0  0  0
   17.1103    9.7560   -0.5506 C   0  0  0  0  0  0  0  0  0  0  0  0
   18.9911   10.4319   -1.7332 O   0  0  0  0  0  0  0  0  0  0  0  0
   18.1790   10.7044   -0.8458 C   0  0  0  0  0  0  0  0  0  0  0  0
   18.2025   11.6692   -0.0556 O   0  0  0  0  0  0  0  0  0  0  0  0
   18.8643    9.6725   -2.2672 H   0  0  0  0  0  0  0  0  0  0  0  0
 24 25  1  0  0  0
 24  5  1  0  0  0
  4  5  2  0  0  0
  4  3  1  0  0  0
  5  6  1  0  0  0
  3  2  2  0  0  0
  6  7  2  0  0  0
  2  7  1  0  0  0
  2  1  1  0  0  0
  7  8  1  0  0  0
 26  1  1  0  0  0
 26 28  1  0  0  0
  1  9  1  0  0  0
 28 29  2  0  0  0
 28 27  1  0  0  0
  8  9  2  0  0  0
  9 10  1  0  0  0
 10 11  2  0  0  0
 10 12  1  0  0  0
 12 14  1  0  0  0
 14 16  2  0  0  0
 14 15  2  0  0  0
 14 17  1  0  0  0
 17 18  2  0  0  0
 17 23  1  0  0  0
 18 19  1  0  0  0
 23 22  2  0  0  0
 19 20  2  0  0  0
 22 20  1  0  0  0
 20 21  1  0  0  0
 27 30  1  0  0  0
 12 13  1  0  0  0
M  END
> <minimizedAffinity>
-9.82003

$$$$
4MQ6_29W_A_404


 30 32  0  0  0  0  0  0  0  0999 V2000
   17.0596   10.6801    0.8363 N   0  0  0  0  0  0  0  0  0  0  0  0
   15.8644   10.5612    0.1947 C   0  0  0  0  0  0  0  0  0  0  0  0
   14.5778   10.6373    0.7152 C   0  0  0  0  0  0  0  0  0  0  0  0
   13.4988   10.4686   -0.1488 C   0  0  0  0  0  0  0  0  0  0  0  0
   13.7213   10.2772   -1.5213 C   0  0  0  0  0  0  0  0  0  0  0  0
   15.0616   10.1793   -2.0125 C   0  0  0  0  0  0  0  0  0  0  0  0
   16.1114   10.3591   -1.1330 C   0  0  0  0  0  0  0  0  0  0  0  0
   17.4839   10.3563   -1.2823 C   0  0  0  0  0  0  0  0  0  0  0  0
   18.0597   10.5925   -0.0536 C   0  0  0  0  0  0  0  0  0  0  0  0
   19.4040   10.6619    0.2822 C   0  0  0  0  0  0  0  0  0  0  0  0
   20.1286   11.6365    0.0895 O   0  0  0  0  0  0  0  0  0  0  0  0
   19.9049    9.6410    0.8815 N   0  0  0  0  0  0  0  0  0  0  0  0
   19.3215    8.8820    1.1114 H   0  0  0  0  0  0  0  0  0  0  0  0
   21.5203    9.5772    1.2765 S   0  0  0  0  0  0  0  0  0  0  0  0
   21.8918   10.7355    1.9770 O   0  0  0  0  0  0  0  0  0  0  0  0
   22.5657    9.7573    0.1696 O   0  0  0  0  0  0  0  0  0  0  0  0
   21.7989    8.2633    2.0433 C   0  0  0  0  0  0  0  0  0  0  0  0
   22.6476    7.3771    1.4650 C   0  0  0  0  0  0  0  0  0  0  0  0
   22.8581    6.1221    2.1364 C   0  0  0  0  0  0  0  0  0  0  0  0
   22.1659    5.8048    3.3256 C   0  0  0  0  0  0  0  0  0  0  0  0
   22.3847    4.5887    3.9911 C   0  0  0  0  0  0  0  0  0  0  0  0
   21.3040    6.7843    3.8935 C   0  0  0  0  0  0  0  0  0  0  0  0
   21.0831    8.0066    3.2338 C   0  0  0  0  0  0  0  0  0  0  0  0
   12.5609   10.1448   -2.2741 O   0  0  0  0  0  0  0  0  0  0  0  0
   12.7804   10.0469   -3.6726 C   0  0  0  0  0  0  0  0  0  0  0  0
   17.1724   11.0647    2.2739 C   0  0  0  0  0  0  0  0  0  0  0  0
   16.0853   12.7749    3.4081 O   0  0  0  0  0  0  0  0  0  0  0  0
   17.0466   12.4527    2.7056 C   0  0  0  0  0  0  0  0  0  0  0  0
   17.9096   13.1975    2.1996 O   0  0  0  0  0  0  0  0  0  0  0  0
   15.5010   12.1181    3.7323 H   0  0  0  0  0  0  0  0  0  0  0  0
 24 25  1  0  0  0
 24  5  1  0  0  0
  4  5  2  0  0  0
  4  3  1  0  0  0
  5  6  1  0  0  0
  3  2  2  0  0  0
  6  7  2  0  0  0
  2  7  1  0  0  0
  2  1  1  0  0  0
  7  8  1  0  0  0
 26  1  1  0  0  0
 26 28  1  0  0  0
  1  9  1  0  0  0
 28 29  2  0  0  0
 28 27  1  0  0  0
  8  9  2  0  0  0
  9 10  1  0  0  0
 10 11  2  0  0  0
 10 12  1  0  0  0
 12 14  1  0  0  0
 14 16  2  0  0  0
 14 15  2  0  0  0
 14 17  1  0  0  0
 17 18  2  0  0  0
 17 23  1  0  0  0
 18 19  1  0  0  0
 23 22  2  0  0  0
 19 20  2  0  0  0
 22 20  1  0  0  0
 20 21  1  0  0  0
 27 30  1  0  0  0
 12 13  1  0  0  0
M  END
> <minimizedAffinity>
-9.43912

$$$$
4MQ6_29W_A_404


 30 32  0  0  0  0  0  0  0  0999 V2000
   15.4895   10.4082   -1.0100 N   0  0  0  0  0  0  0  0  0  0  0  0
   14.5536   10.2617   -1.9884 C   0  0  0  0  0  0  0  0  0  0  0  0
   13.1681   10.2364   -1.8805 C   0  0  0  0  0  0  0  0  0  0  0  0
   12.4132   10.0597   -3.0372 C   0  0  0  0  0  0  0  0  0  0  0  0
   13.0506    9.9616   -4.2838 C   0  0  0  0  0  0  0  0  0  0  0  0
   14.4800    9.9665   -4.3484 C   0  0  0  0  0  0  0  0  0  0  0  0
   15.2017   10.1517   -3.1853 C   0  0  0  0  0  0  0  0  0  0  0  0
   16.5523   10.2331   -2.9108 C   0  0  0  0  0  0  0  0  0  0  0  0
   16.7143   10.4280   -1.5570 C   0  0  0  0  0  0  0  0  0  0  0  0
   17.8872   10.5513   -0.8265 C   0  0  0  0  0  0  0  0  0  0  0  0
   18.8964    9.8691   -0.9942 O   0  0  0  0  0  0  0  0  0  0  0  0
   17.9240   11.4842    0.0571 N   0  0  0  0  0  0  0  0  0  0  0  0
   17.1528   12.0886    0.1533 H   0  0  0  0  0  0  0  0  0  0  0  0
   19.2498   11.6903    1.0416 S   0  0  0  0  0  0  0  0  0  0  0  0
   19.1674   12.9218    1.7103 O   0  0  0  0  0  0  0  0  0  0  0  0
   20.6132   11.9827    0.4042 O   0  0  0  0  0  0  0  0  0  0  0  0
   19.3700   10.4707    1.9850 C   0  0  0  0  0  0  0  0  0  0  0  0
   20.5160    9.7479    1.9195 C   0  0  0  0  0  0  0  0  0  0  0  0
   20.6084    8.5710    2.7419 C   0  0  0  0  0  0  0  0  0  0  0  0
   19.5253    8.1557    3.5472 C   0  0  0  0  0  0  0  0  0  0  0  0
   19.6213    7.0184    4.3639 C   0  0  0  0  0  0  0  0  0  0  0  0
   18.3572    8.9674    3.5881 C   0  0  0  0  0  0  0  0  0  0  0  0
   18.2557   10.1105    2.7751 C   0  0  0  0  0  0  0  0  0  0  0  0
   12.1823    9.8101   -5.3579 O   0  0  0  0  0  0  0  0  0  0  0  0
   10.8152    9.7033   -4.9929 C   0  0  0  0  0  0  0  0  0  0  0  0
   15.1378   10.7134    0.4079 C   0  0  0  0  0  0  0  0  0  0  0  0
   15.4590    8.5538    1.1992 O   0  0  0  0  0  0  0  0  0  0  0  0
   14.9338    9.6534    1.3896 C   0  0  0  0  0  0  0  0  0  0  0  0
   14.1295    9.9733    2.2877 O   0  0  0  0  0  0  0  0  0  0  0  0
   16.0526    8.4358    0.4839 H   0  0  0  0  0  0  0  0  0  0  0  0
 24 25  1  0  0  0
 24  5  1  0  0  0
  4  5  2  0  0  0
  4  3  1  0  0  0
  5  6  1  0  0  0
  3  2  2  0  0  0
  6  7  2  0  0  0
  2  7  1  0  0  0
  2  1  1  0  0  0
  7  8  1  0  0  0
 26  1  1  0  0  0
 26 28  1  0  0  0
  1  9  1  0  0  0
 28 29  2  0  0  0
 28 27  1  0  0  0
  8  9  2  0  0  0
  9 10  1  0  0  0
 10 11  2  0  0  0
 10 12  1  0  0  0
 12 14  1  0  0  0
 14 16  2  0  0  0
 14 15  2  0  0  0
 14 17  1  0  0  0
 17 18  2  0  0  0
 17 23  1  0  0  0
 18 19  1  0  0  0
 23 22  2  0  0  0
 19 20  2  0  0  0
 22 20  1  0  0  0
 20 21  1  0  0  0
 27 30  1  0  0  0
 12 13  1  0  0  0
M  END
> <minimizedAffinity>
-9.39461

$$$$
4MQ6_29W_A_404


 30 32  0  0  0  0  0  0  0  0999 V2000
   16.3976   10.0542    0.9319 N   0  0  0  0  0  0  0  0  0  0  0  0
   15.6858    9.9826   -0.2268 C   0  0  0  0  0  0  0  0  0  0  0  0
   14.3260    9.7591   -0.4088 C   0  0  0  0  0  0  0  0  0  0  0  0
   13.8262    9.7161   -1.7079 C   0  0  0  0  0  0  0  0  0  0  0  0
   14.6809    9.9459   -2.7972 C   0  0  0  0  0  0  0  0  0  0  0  0
   16.0789   10.1466   -2.5679 C   0  0  0  0  0  0  0  0  0  0  0  0
   16.5440   10.1924   -1.2680 C   0  0  0  0  0  0  0  0  0  0  0  0
   17.7932   10.3913   -0.7149 C   0  0  0  0  0  0  0  0  0  0  0  0
   17.6797   10.3374    0.6567 C   0  0  0  0  0  0  0  0  0  0  0  0
   18.6692   10.4653    1.6207 C   0  0  0  0  0  0  0  0  0  0  0  0
   19.0382   11.5293    2.1142 O   0  0  0  0  0  0  0  0  0  0  0  0
   19.1986    9.3775    2.0553 N   0  0  0  0  0  0  0  0  0  0  0  0
   18.8630    8.5123    1.7264 H   0  0  0  0  0  0  0  0  0  0  0  0
   20.4403    9.4031    3.1630 S   0  0  0  0  0  0  0  0  0  0  0  0
   20.0684   10.1567    4.2873 O   0  0  0  0  0  0  0  0  0  0  0  0
   21.6919   10.2353    2.8604 O   0  0  0  0  0  0  0  0  0  0  0  0
   20.8522    7.9487    3.4904 C   0  0  0  0  0  0  0  0  0  0  0  0
   21.9918    7.4846    2.9195 C   0  0  0  0  0  0  0  0  0  0  0  0
   22.3456    6.1112    3.1614 C   0  0  0  0  0  0  0  0  0  0  0  0
   21.5094    5.2644    3.9216 C   0  0  0  0  0  0  0  0  0  0  0  0
   21.8631    3.9299    4.1737 C   0  0  0  0  0  0  0  0  0  0  0  0
   20.3372    5.8158    4.5106 C   0  0  0  0  0  0  0  0  0  0  0  0
   19.9788    7.1534    4.2653 C   0  0  0  0  0  0  0  0  0  0  0  0
   14.0524    9.8967   -4.0354 O   0  0  0  0  0  0  0  0  0  0  0  0
   14.8342   10.4002   -5.1073 C   0  0  0  0  0  0  0  0  0  0  0  0
   15.7562   10.0291    2.2793 C   0  0  0  0  0  0  0  0  0  0  0  0
   16.5856    8.0077    3.0659 O   0  0  0  0  0  0  0  0  0  0  0  0
   15.6347    8.7930    3.0447 C   0  0  0  0  0  0  0  0  0  0  0  0
   14.4928    8.6266    3.5181 O   0  0  0  0  0  0  0  0  0  0  0  0
   17.4012    8.2489    2.6728 H   0  0  0  0  0  0  0  0  0  0  0  0
 24 25  1  0  0  0
 24  5  1  0  0  0
  4  5  2  0  0  0
  4  3  1  0  0  0
  5  6  1  0  0  0
  3  2  2  0  0  0
  6  7  2  0  0  0
  2  7  1  0  0  0
  2  1  1  0  0  0
  7  8  1  0  0  0
 26  1  1  0  0  0
 26 28  1  0  0  0
  1  9  1  0  0  0
 28 29  2  0  0  0
 28 27  1  0  0  0
  8  9  2  0  0  0
  9 10  1  0  0  0
 10 11  2  0  0  0
 10 12  1  0  0  0
 12 14  1  0  0  0
 14 16  2  0  0  0
 14 15  2  0  0  0
 14 17  1  0  0  0
 17 18  2  0  0  0
 17 23  1  0  0  0
 18 19  1  0  0  0
 23 22  2  0  0  0
 19 20  2  0  0  0
 22 20  1  0  0  0
 20 21  1  0  0  0
 27 30  1  0  0  0
 12 13  1  0  0  0
M  END
> <minimizedAffinity>
-9.14686

$$$$
4MQ6_29W_A_404


 30 32  0  0  0  0  0  0  0  0999 V2000
   18.7882    9.7432    1.9156 N   0  0  0  0  0  0  0  0  0  0  0  0
   19.8436    9.3862    2.6987 C   0  0  0  0  0  0  0  0  0  0  0  0
   21.2036    9.4420    2.4171 C   0  0  0  0  0  0  0  0  0  0  0  0
   22.1027    9.0032    3.3857 C   0  0  0  0  0  0  0  0  0  0  0  0
   21.6326    8.5647    4.6332 C   0  0  0  0  0  0  0  0  0  0  0  0
   20.2236    8.4986    4.8735 C   0  0  0  0  0  0  0  0  0  0  0  0
   19.3564    8.9485    3.8969 C   0  0  0  0  0  0  0  0  0  0  0  0
   17.9814    9.0463    3.8226 C   0  0  0  0  0  0  0  0  0  0  0  0
   17.6445    9.5756    2.5964 C   0  0  0  0  0  0  0  0  0  0  0  0
   16.3863    9.8376    2.0741 C   0  0  0  0  0  0  0  0  0  0  0  0
   15.9229   10.9605    1.8831 O   0  0  0  0  0  0  0  0  0  0  0  0
   15.6811    8.8213    1.7243 N   0  0  0  0  0  0  0  0  0  0  0  0
   16.0655    7.9181    1.7998 H   0  0  0  0  0  0  0  0  0  0  0  0
   14.1311    9.0026    1.1462 S   0  0  0  0  0  0  0  0  0  0  0  0
   13.4220    9.9138    1.9445 O   0  0  0  0  0  0  0  0  0  0  0  0
   13.1268    7.8596    1.3351 O   0  0  0  0  0  0  0  0  0  0  0  0
   14.1945    9.3945   -0.3486 C   0  0  0  0  0  0  0  0  0  0  0  0
   13.3742   10.3925   -0.7623 C   0  0  0  0  0  0  0  0  0  0  0  0
   13.3748   10.7162   -2.1641 C   0  0  0  0  0  0  0  0  0  0  0  0
   14.1613    9.9863   -3.0821 C   0  0  0  0  0  0  0  0  0  0  0  0
   14.1767   10.3136   -4.4467 C   0  0  0  0  0  0  0  0  0  0  0  0
   15.0161    8.9637   -2.5835 C   0  0  0  0  0  0  0  0  0  0  0  0
   15.0085    8.6331   -1.2165 C   0  0  0  0  0  0  0  0  0  0  0  0
   22.6334    8.1757    5.5152 O   0  0  0  0  0  0  0  0  0  0  0  0
   23.4271    7.0926    5.0565 C   0  0  0  0  0  0  0  0  0  0  0  0
   18.9519   10.4150    0.5930 C   0  0  0  0  0  0  0  0  0  0  0  0
   18.1779   12.6044    0.6061 O   0  0  0  0  0  0  0  0  0  0  0  0
   19.1515   11.8564    0.4876 C   0  0  0  0  0  0  0  0  0  0  0  0
   20.3185   12.1620    0.1709 O   0  0  0  0  0  0  0  0  0  0  0  0
   17.3446   12.2534    0.8516 H   0  0  0  0  0  0  0  0  0  0  0  0
 24 25  1  0  0  0
 24  5  1  0  0  0
  4  5  2  0  0  0
  4  3  1  0  0  0
  5  6  1  0  0  0
  3  2  2  0  0  0
  6  7  2  0  0  0
  2  7  1  0  0  0
  2  1  1  0  0  0
  7  8  1  0  0  0
 26  1  1  0  0  0
 26 28  1  0  0  0
  1  9  1  0  0  0
 28 29  2  0  0  0
 28 27  1  0  0  0
  8  9  2  0  0  0
  9 10  1  0  0  0
 10 11  2  0  0  0
 10 12  1  0  0  0
 12 14  1  0  0  0
 14 16  2  0  0  0
 14 15  2  0  0  0
 14 17  1  0  0  0
 17 18  2  0  0  0
 17 23  1  0  0  0
 18 19  1  0  0  0
 23 22  2  0  0  0
 19 20  2  0  0  0
 22 20  1  0  0  0
 20 21  1  0  0  0
 27 30  1  0  0  0
 12 13  1  0  0  0
M  END
> <minimizedAffinity>
-9.10343

$$$$
4MQ6_29W_A_404


 30 32  0  0  0  0  0  0  0  0999 V2000
   17.3663    9.7722    4.6848 N   0  0  0  0  0  0  0  0  0  0  0  0
   16.5386    9.6089    5.7538 C   0  0  0  0  0  0  0  0  0  0  0  0
   16.7247    8.8427    6.8985 C   0  0  0  0  0  0  0  0  0  0  0  0
   15.7166    8.8249    7.8591 C   0  0  0  0  0  0  0  0  0  0  0  0
   14.5658    9.6090    7.6840 C   0  0  0  0  0  0  0  0  0  0  0  0
   14.4017   10.3635    6.4794 C   0  0  0  0  0  0  0  0  0  0  0  0
   15.4223   10.3682    5.5486 C   0  0  0  0  0  0  0  0  0  0  0  0
   15.5906   10.9946    4.3299 C   0  0  0  0  0  0  0  0  0  0  0  0
   16.8207   10.6414    3.8208 C   0  0  0  0  0  0  0  0  0  0  0  0
   17.4089   11.0136    2.6208 C   0  0  0  0  0  0  0  0  0  0  0  0
   18.2205   11.9278    2.4880 O   0  0  0  0  0  0  0  0  0  0  0  0
   17.1095   10.3114    1.5865 N   0  0  0  0  0  0  0  0  0  0  0  0
   16.5202    9.5294    1.6881 H   0  0  0  0  0  0  0  0  0  0  0  0
   17.6987   10.6985    0.0790 S   0  0  0  0  0  0  0  0  0  0  0  0
   18.8809    9.9854   -0.1747 O   0  0  0  0  0  0  0  0  0  0  0  0
   18.3319   12.0772   -0.1422 O   0  0  0  0  0  0  0  0  0  0  0  0
   16.5871   10.4646   -0.9706 C   0  0  0  0  0  0  0  0  0  0  0  0
   16.9745   10.0327   -2.1968 C   0  0  0  0  0  0  0  0  0  0  0  0
   15.9555    9.8801   -3.2010 C   0  0  0  0  0  0  0  0  0  0  0  0
   14.6106   10.2180   -2.9342 C   0  0  0  0  0  0  0  0  0  0  0  0
   13.6130   10.0516   -3.9073 C   0  0  0  0  0  0  0  0  0  0  0  0
   14.2639   10.6467   -1.6224 C   0  0  0  0  0  0  0  0  0  0  0  0
   15.2580   10.8119   -0.6414 C   0  0  0  0  0  0  0  0  0  0  0  0
   13.6495    9.5173    8.7246 O   0  0  0  0  0  0  0  0  0  0  0  0
   13.1316   10.7653    9.1580 C   0  0  0  0  0  0  0  0  0  0  0  0
   18.7497    9.2141    4.6390 C   0  0  0  0  0  0  0  0  0  0  0  0
   19.4858    8.4792    2.5628 O   0  0  0  0  0  0  0  0  0  0  0  0
   19.1187    8.1628    3.6970 C   0  0  0  0  0  0  0  0  0  0  0  0
   18.9060    7.0172    4.1419 O   0  0  0  0  0  0  0  0  0  0  0  0
   19.6125    9.3819    2.3461 H   0  0  0  0  0  0  0  0  0  0  0  0
 24 25  1  0  0  0
 24  5  1  0  0  0
  4  5  2  0  0  0
  4  3  1  0  0  0
  5  6  1  0  0  0
  3  2  2  0  0  0
  6  7  2  0  0  0
  2  7  1  0  0  0
  2  1  1  0  0  0
  7  8  1  0  0  0
 26  1  1  0  0  0
 26 28  1  0  0  0
  1  9  1  0  0  0
 28 29  2  0  0  0
 28 27  1  0  0  0
  8  9  2  0  0  0
  9 10  1  0  0  0
 10 11  2  0  0  0
 10 12  1  0  0  0
 12 14  1  0  0  0
 14 16  2  0  0  0
 14 15  2  0  0  0
 14 17  1  0  0  0
 17 18  2  0  0  0
 17 23  1  0  0  0
 18 19  1  0  0  0
 23 22  2  0  0  0
 19 20  2  0  0  0
 22 20  1  0  0  0
 20 21  1  0  0  0
 27 30  1  0  0  0
 12 13  1  0  0  0
M  END
> <minimizedAffinity>
-9.09827

$$$$
4MQ6_29W_A_404


 30 32  0  0  0  0  0  0  0  0999 V2000
   17.7154   10.0854    3.3218 N   0  0  0  0  0  0  0  0  0  0  0  0
   18.9020    9.5944    3.7750 C   0  0  0  0  0  0  0  0  0  0  0  0
   20.1003   10.2626    3.9977 C   0  0  0  0  0  0  0  0  0  0  0  0
   21.1940    9.5333    4.4572 C   0  0  0  0  0  0  0  0  0  0  0  0
   21.0592    8.1638    4.7331 C   0  0  0  0  0  0  0  0  0  0  0  0
   19.8156    7.5086    4.4658 C   0  0  0  0  0  0  0  0  0  0  0  0
   18.7462    8.2598    4.0182 C   0  0  0  0  0  0  0  0  0  0  0  0
   17.4384    7.9516    3.7007 C   0  0  0  0  0  0  0  0  0  0  0  0
   16.7998    9.1050    3.3024 C   0  0  0  0  0  0  0  0  0  0  0  0
   15.4902    9.2762    2.8778 C   0  0  0  0  0  0  0  0  0  0  0  0
   14.5122    9.3429    3.6201 O   0  0  0  0  0  0  0  0  0  0  0  0
   15.3052    9.4216    1.6140 N   0  0  0  0  0  0  0  0  0  0  0  0
   16.0838    9.4463    1.0120 H   0  0  0  0  0  0  0  0  0  0  0  0
   13.7753    9.5688    0.9758 S   0  0  0  0  0  0  0  0  0  0  0  0
   13.1130   10.6612    1.5574 O   0  0  0  0  0  0  0  0  0  0  0  0
   12.7026    8.5460    1.3681 O   0  0  0  0  0  0  0  0  0  0  0  0
   13.8787    9.6455   -0.5655 C   0  0  0  0  0  0  0  0  0  0  0  0
   14.7990    8.8492   -1.1646 C   0  0  0  0  0  0  0  0  0  0  0  0
   14.9515    8.9649   -2.5905 C   0  0  0  0  0  0  0  0  0  0  0  0
   14.2076    9.9100   -3.3304 C   0  0  0  0  0  0  0  0  0  0  0  0
   14.3422   10.0106   -4.7238 C   0  0  0  0  0  0  0  0  0  0  0  0
   13.2435   10.7029   -2.6472 C   0  0  0  0  0  0  0  0  0  0  0  0
   13.1008   10.6045   -1.2516 C   0  0  0  0  0  0  0  0  0  0  0  0
   22.2182    7.5605    5.2059 O   0  0  0  0  0  0  0  0  0  0  0  0
   22.8505    8.2613    6.2654 C   0  0  0  0  0  0  0  0  0  0  0  0
   17.4719   11.5415    3.1033 C   0  0  0  0  0  0  0  0  0  0  0  0
   16.8851   11.8990    0.8850 O   0  0  0  0  0  0  0  0  0  0  0  0
   17.6715   12.1621    1.7980 C   0  0  0  0  0  0  0  0  0  0  0  0
   18.7229   12.8303    1.7351 O   0  0  0  0  0  0  0  0  0  0  0  0
   16.1224   11.3829    1.0579 H   0  0  0  0  0  0  0  0  0  0  0  0
 24 25  1  0  0  0
 24  5  1  0  0  0
  4  5  2  0  0  0
  4  3  1  0  0  0
  5  6  1  0  0  0
  3  2  2  0  0  0
  6  7  2  0  0  0
  2  7  1  0  0  0
  2  1  1  0  0  0
  7  8  1  0  0  0
 26  1  1  0  0  0
 26 28  1  0  0  0
  1  9  1  0  0  0
 28 29  2  0  0  0
 28 27  1  0  0  0
  8  9  2  0  0  0
  9 10  1  0  0  0
 10 11  2  0  0  0
 10 12  1  0  0  0
 12 14  1  0  0  0
 14 16  2  0  0  0
 14 15  2  0  0  0
 14 17  1  0  0  0
 17 18  2  0  0  0
 17 23  1  0  0  0
 18 19  1  0  0  0
 23 22  2  0  0  0
 19 20  2  0  0  0
 22 20  1  0  0  0
 20 21  1  0  0  0
 27 30  1  0  0  0
 12 13  1  0  0  0
M  END
> <minimizedAffinity>
-9.08224

$$$$
4MQ6_29W_A_404


 30 32  0  0  0  0  0  0  0  0999 V2000
   16.7748   10.3847   -0.2115 N   0  0  0  0  0  0  0  0  0  0  0  0
   15.7412   10.3161   -1.0956 C   0  0  0  0  0  0  0  0  0  0  0  0
   15.7757   10.2806   -2.4847 C   0  0  0  0  0  0  0  0  0  0  0  0
   14.5703   10.2226   -3.1795 C   0  0  0  0  0  0  0  0  0  0  0  0
   13.3574   10.1509   -2.4769 C   0  0  0  0  0  0  0  0  0  0  0  0
   13.3643   10.2160   -1.0476 C   0  0  0  0  0  0  0  0  0  0  0  0
   14.5758   10.2648   -0.3858 C   0  0  0  0  0  0  0  0  0  0  0  0
   14.9255   10.3056    0.9491 C   0  0  0  0  0  0  0  0  0  0  0  0
   16.2991   10.3446    1.0422 C   0  0  0  0  0  0  0  0  0  0  0  0
   17.0962   10.4089    2.1758 C   0  0  0  0  0  0  0  0  0  0  0  0
   17.1308   11.3556    2.9597 O   0  0  0  0  0  0  0  0  0  0  0  0
   17.8124    9.3745    2.4398 N   0  0  0  0  0  0  0  0  0  0  0  0
   17.7408    8.5784    1.8651 H   0  0  0  0  0  0  0  0  0  0  0  0
   18.8585    9.3550    3.7340 S   0  0  0  0  0  0  0  0  0  0  0  0
   18.1398    9.2312    4.9334 O   0  0  0  0  0  0  0  0  0  0  0  0
   19.5637   10.6538    4.1418 O   0  0  0  0  0  0  0  0  0  0  0  0
   19.9095    8.2419    3.5143 C   0  0  0  0  0  0  0  0  0  0  0  0
   19.8017    7.1285    4.2815 C   0  0  0  0  0  0  0  0  0  0  0  0
   20.8155    6.1183    4.1343 C   0  0  0  0  0  0  0  0  0  0  0  0
   21.9102    6.3036    3.2617 C   0  0  0  0  0  0  0  0  0  0  0  0
   22.8894    5.3108    3.1035 C   0  0  0  0  0  0  0  0  0  0  0  0
   21.9563    7.4845    2.4690 C   0  0  0  0  0  0  0  0  0  0  0  0
   20.9762    8.4818    2.6196 C   0  0  0  0  0  0  0  0  0  0  0  0
   12.2320   10.0752   -3.2883 O   0  0  0  0  0  0  0  0  0  0  0  0
   12.5111    9.7761   -4.6471 C   0  0  0  0  0  0  0  0  0  0  0  0
   18.2049   10.2967   -0.6291 C   0  0  0  0  0  0  0  0  0  0  0  0
   20.2621   10.8482    0.2963 O   0  0  0  0  0  0  0  0  0  0  0  0
   19.1966   11.2619   -0.1670 C   0  0  0  0  0  0  0  0  0  0  0  0
   18.7812   12.4375   -0.2017 O   0  0  0  0  0  0  0  0  0  0  0  0
   20.4635    9.9337    0.2635 H   0  0  0  0  0  0  0  0  0  0  0  0
 24 25  1  0  0  0
 24  5  1  0  0  0
  4  5  2  0  0  0
  4  3  1  0  0  0
  5  6  1  0  0  0
  3  2  2  0  0  0
  6  7  2  0  0  0
  2  7  1  0  0  0
  2  1  1  0  0  0
  7  8  1  0  0  0
 26  1  1  0  0  0
 26 28  1  0  0  0
  1  9  1  0  0  0
 28 29  2  0  0  0
 28 27  1  0  0  0
  8  9  2  0  0  0
  9 10  1  0  0  0
 10 11  2  0  0  0
 10 12  1  0  0  0
 12 14  1  0  0  0
 14 16  2  0  0  0
 14 15  2  0  0  0
 14 17  1  0  0  0
 17 18  2  0  0  0
 17 23  1  0  0  0
 18 19  1  0  0  0
 23 22  2  0  0  0
 19 20  2  0  0  0
 22 20  1  0  0  0
 20 21  1  0  0  0
 27 30  1  0  0  0
 12 13  1  0  0  0
M  END
> <minimizedAffinity>
-8.78878

$$$$
4MQ6_29W_A_404


 30 32  0  0  0  0  0  0  0  0999 V2000
   18.1738    9.8360    3.5839 N   0  0  0  0  0  0  0  0  0  0  0  0
   19.4600    9.4549    3.8179 C   0  0  0  0  0  0  0  0  0  0  0  0
   20.1074    9.2495    5.0307 C   0  0  0  0  0  0  0  0  0  0  0  0
   21.4470    8.8696    5.0144 C   0  0  0  0  0  0  0  0  0  0  0  0
   22.1010    8.6535    3.7916 C   0  0  0  0  0  0  0  0  0  0  0  0
   21.4061    8.9011    2.5656 C   0  0  0  0  0  0  0  0  0  0  0  0
   20.0755    9.2690    2.6132 C   0  0  0  0  0  0  0  0  0  0  0  0
   19.1340    9.5475    1.6427 C   0  0  0  0  0  0  0  0  0  0  0  0
   17.9455    9.8648    2.2622 C   0  0  0  0  0  0  0  0  0  0  0  0
   16.7334   10.2275    1.6930 C   0  0  0  0  0  0  0  0  0  0  0  0
   16.3785   11.3832    1.4685 O   0  0  0  0  0  0  0  0  0  0  0  0
   15.9522    9.2713    1.3352 N   0  0  0  0  0  0  0  0  0  0  0  0
   16.2518    8.3391    1.4381 H   0  0  0  0  0  0  0  0  0  0  0  0
   14.4443    9.5784    0.7016 S   0  0  0  0  0  0  0  0  0  0  0  0
   13.8220   10.6134    1.4170 O   0  0  0  0  0  0  0  0  0  0  0  0
   13.3171    8.5659    0.9361 O   0  0  0  0  0  0  0  0  0  0  0  0
   14.5828    9.8574   -0.8133 C   0  0  0  0  0  0  0  0  0  0  0  0
   13.5063   10.3872   -1.4462 C   0  0  0  0  0  0  0  0  0  0  0  0
   13.6010   10.5846   -2.8682 C   0  0  0  0  0  0  0  0  0  0  0  0
   14.7526   10.1921   -3.5851 C   0  0  0  0  0  0  0  0  0  0  0  0
   14.8531   10.4014   -4.9692 C   0  0  0  0  0  0  0  0  0  0  0  0
   15.8564    9.6603   -2.8614 C   0  0  0  0  0  0  0  0  0  0  0  0
   15.7638    9.4515   -1.4737 C   0  0  0  0  0  0  0  0  0  0  0  0
   23.4269    8.2571    3.9163 O   0  0  0  0  0  0  0  0  0  0  0  0
   23.6235    6.8527    3.8653 C   0  0  0  0  0  0  0  0  0  0  0  0
   17.1599    9.9754    4.6702 C   0  0  0  0  0  0  0  0  0  0  0  0
   16.7327    8.1377    6.0242 O   0  0  0  0  0  0  0  0  0  0  0  0
   16.3374    8.8483    5.0968 C   0  0  0  0  0  0  0  0  0  0  0  0
   15.3413    8.6721    4.3672 O   0  0  0  0  0  0  0  0  0  0  0  0
   17.5017    8.3772    6.5030 H   0  0  0  0  0  0  0  0  0  0  0  0
 24 25  1  0  0  0
 24  5  1  0  0  0
  4  5  2  0  0  0
  4  3  1  0  0  0
  5  6  1  0  0  0
  3  2  2  0  0  0
  6  7  2  0  0  0
  2  7  1  0  0  0
  2  1  1  0  0  0
  7  8  1  0  0  0
 26  1  1  0  0  0
 26 28  1  0  0  0
  1  9  1  0  0  0
 28 29  2  0  0  0
 28 27  1  0  0  0
  8  9  2  0  0  0
  9 10  1  0  0  0
 10 11  2  0  0  0
 10 12  1  0  0  0
 12 14  1  0  0  0
 14 16  2  0  0  0
 14 15  2  0  0  0
 14 17  1  0  0  0
 17 18  2  0  0  0
 17 23  1  0  0  0
 18 19  1  0  0  0
 23 22  2  0  0  0
 19 20  2  0  0  0
 22 20  1  0  0  0
 20 21  1  0  0  0
 27 30  1  0  0  0
 12 13  1  0  0  0
M  END
> <minimizedAffinity>
-8.66843

$$$$
