4CST_CWK_A_1160


 31 33  0  0  0  0  0  0  0  0999 V2000
   -2.7311    8.8106   10.5431 O   0  0  0  0  0  0  0  0  0  0  0  0
   -1.7787    7.7970   10.1941 C   0  0  0  0  0  0  0  0  0  0  0  0
   -0.7312    8.4865    9.3826 C   0  0  0  0  0  0  0  0  0  0  0  0
    0.2309    7.4970    9.0717 O   0  0  0  0  0  0  0  0  0  0  0  0
   -1.3812    9.0522    8.0785 C   0  0  0  0  0  0  0  0  0  0  0  0
   -0.3103    9.5786    7.2523 O   0  0  0  0  0  0  0  0  0  0  0  0
   -2.0659    7.9389    7.3186 C   0  0  0  0  0  0  0  0  0  0  0  0
   -2.7292    8.5210    6.1891 O   0  0  0  0  0  0  0  0  0  0  0  0
   -3.1113    7.3197    8.2153 C   0  0  0  0  0  0  0  0  0  0  0  0
   -2.4925    6.7896    9.4097 O   0  0  0  0  0  0  0  0  0  0  0  0
   -0.1977    6.7666    8.5986 H   0  0  0  0  0  0  0  0  0  0  0  0
    0.3210    8.8701    7.0512 H   0  0  0  0  0  0  0  0  0  0  0  0
   -3.3651    9.1864    6.4952 H   0  0  0  0  0  0  0  0  0  0  0  0
   -3.8272    6.1123    7.5854 C   0  0  0  0  0  0  0  0  0  0  0  0
   -2.9282    5.3293    6.8090 O   0  0  0  0  0  0  0  0  0  0  0  0
   -2.5659    5.8706    6.0902 H   0  0  0  0  0  0  0  0  0  0  0  0
   -4.6362   10.5693    9.4431 Cl  0  0  0  0  0  0  0  0  0  0  0  0
   -3.9693    8.4984   10.9987 C   0  0  0  0  0  0  0  0  0  0  0  0
   -4.2741    7.4879   11.9094 C   0  0  0  0  0  0  0  0  0  0  0  0
   -5.6201    7.3111   12.2773 C   0  0  0  0  0  0  0  0  0  0  0  0
   -6.6270    8.1394   11.7602 C   0  0  0  0  0  0  0  0  0  0  0  0
   -6.2911    9.1408   10.8732 C   0  0  0  0  0  0  0  0  0  0  0  0
   -4.9662    9.3482   10.5458 C   0  0  0  0  0  0  0  0  0  0  0  0
   -8.0088    8.0001   12.0933 C   0  0  0  0  0  0  0  0  0  0  0  0
   -8.8495    9.0863   12.2999 C   0  0  0  0  0  0  0  0  0  0  0  0
  -10.1966    8.8997   12.6297 C   0  0  0  0  0  0  0  0  0  0  0  0
  -10.7421    7.6437   12.7565 C   0  0  0  0  0  0  0  0  0  0  0  0
   -9.9424    6.5492   12.5501 C   0  0  0  0  0  0  0  0  0  0  0  0
   -8.6070    6.7434   12.2233 C   0  0  0  0  0  0  0  0  0  0  0  0
  -12.1425    7.4894   13.0938 C   0  0  0  0  0  0  0  0  0  0  0  0
  -13.2576    7.3644   13.3509 N   0  0  0  0  0  0  0  0  0  0  0  0
 17 23  1  0  0  0
  2  1  1  0  0  0
  2  3  1  0  0  0
  2 10  1  0  0  0
  1 18  1  0  0  0
  3  4  1  0  0  0
  3  5  1  0  0  0
  5  6  1  0  0  0
  5  7  1  0  0  0
  7  8  1  0  0  0
  7  9  1  0  0  0
  9 10  1  0  0  0
  9 14  1  0  0  0
 14 15  1  0  0  0
 18 19  2  0  0  0
 18 23  1  0  0  0
 19 20  1  0  0  0
 20 21  2  0  0  0
 21 22  1  0  0  0
 21 24  1  0  0  0
 22 23  2  0  0  0
 24 25  2  0  0  0
 24 29  1  0  0  0
 25 26  1  0  0  0
 26 27  2  0  0  0
 27 28  1  0  0  0
 27 30  1  0  0  0
 28 29  2  0  0  0
 30 31  3  0  0  0
  4 11  1  0  0  0
  6 12  1  0  0  0
  8 13  1  0  0  0
 15 16  1  0  0  0
M  END
> <minimizedAffinity>
-9.41801

$$$$
4CST_CWK_A_1160


 31 33  0  0  0  0  0  0  0  0999 V2000
   -2.7217    7.7024   10.6624 O   0  0  0  0  0  0  0  0  0  0  0  0
   -2.1046    8.9927   10.7651 C   0  0  0  0  0  0  0  0  0  0  0  0
   -2.9371    9.9085    9.9286 C   0  0  0  0  0  0  0  0  0  0  0  0
   -2.3541   11.1907   10.0613 O   0  0  0  0  0  0  0  0  0  0  0  0
   -2.8881    9.4321    8.4407 C   0  0  0  0  0  0  0  0  0  0  0  0
   -3.5808   10.4272    7.6429 O   0  0  0  0  0  0  0  0  0  0  0  0
   -1.4534    9.3582    7.9698 C   0  0  0  0  0  0  0  0  0  0  0  0
   -1.4545    8.8231    6.6400 O   0  0  0  0  0  0  0  0  0  0  0  0
   -0.7042    8.4008    8.8657 C   0  0  0  0  0  0  0  0  0  0  0  0
   -0.7475    8.8626   10.2350 O   0  0  0  0  0  0  0  0  0  0  0  0
   -1.4268   11.1550    9.7790 H   0  0  0  0  0  0  0  0  0  0  0  0
   -3.1461   11.2877    7.7506 H   0  0  0  0  0  0  0  0  0  0  0  0
   -1.8733    7.9482    6.6438 H   0  0  0  0  0  0  0  0  0  0  0  0
    0.7964    8.2994    8.5417 C   0  0  0  0  0  0  0  0  0  0  0  0
    1.3867    7.1769    9.1865 O   0  0  0  0  0  0  0  0  0  0  0  0
    1.2939    7.2702   10.1475 H   0  0  0  0  0  0  0  0  0  0  0  0
   -4.2443    6.2920    8.7585 Cl  0  0  0  0  0  0  0  0  0  0  0  0
   -3.9669    7.4677   11.1448 C   0  0  0  0  0  0  0  0  0  0  0  0
   -4.4572    7.8884   12.3800 C   0  0  0  0  0  0  0  0  0  0  0  0
   -5.7837    7.5599   12.7132 C   0  0  0  0  0  0  0  0  0  0  0  0
   -6.5990    6.8471   11.8220 C   0  0  0  0  0  0  0  0  0  0  0  0
   -6.0893    6.4587   10.6005 C   0  0  0  0  0  0  0  0  0  0  0  0
   -4.8038    6.8195   10.2500 C   0  0  0  0  0  0  0  0  0  0  0  0
   -7.9488    6.4809   12.1111 C   0  0  0  0  0  0  0  0  0  0  0  0
   -8.9309    7.4085   12.4341 C   0  0  0  0  0  0  0  0  0  0  0  0
  -10.2398    7.0008   12.7148 C   0  0  0  0  0  0  0  0  0  0  0  0
  -10.6077    5.6763   12.6776 C   0  0  0  0  0  0  0  0  0  0  0  0
   -9.6651    4.7348   12.3531 C   0  0  0  0  0  0  0  0  0  0  0  0
   -8.3689    5.1480   12.0761 C   0  0  0  0  0  0  0  0  0  0  0  0
  -11.9739    5.2922   12.9688 C   0  0  0  0  0  0  0  0  0  0  0  0
  -13.0587    4.9788   13.1923 N   0  0  0  0  0  0  0  0  0  0  0  0
 17 23  1  0  0  0
  2  1  1  0  0  0
  2  3  1  0  0  0
  2 10  1  0  0  0
  1 18  1  0  0  0
  3  4  1  0  0  0
  3  5  1  0  0  0
  5  6  1  0  0  0
  5  7  1  0  0  0
  7  8  1  0  0  0
  7  9  1  0  0  0
  9 10  1  0  0  0
  9 14  1  0  0  0
 14 15  1  0  0  0
 18 19  2  0  0  0
 18 23  1  0  0  0
 19 20  1  0  0  0
 20 21  2  0  0  0
 21 22  1  0  0  0
 21 24  1  0  0  0
 22 23  2  0  0  0
 24 25  2  0  0  0
 24 29  1  0  0  0
 25 26  1  0  0  0
 26 27  2  0  0  0
 27 28  1  0  0  0
 27 30  1  0  0  0
 28 29  2  0  0  0
 30 31  3  0  0  0
  4 11  1  0  0  0
  6 12  1  0  0  0
  8 13  1  0  0  0
 15 16  1  0  0  0
M  END
> <minimizedAffinity>
-8.21860

$$$$
4CST_CWK_A_1160


 31 33  0  0  0  0  0  0  0  0999 V2000
   -3.6775    8.4049   10.1546 O   0  0  0  0  0  0  0  0  0  0  0  0
   -2.9913    9.5772    9.6951 C   0  0  0  0  0  0  0  0  0  0  0  0
   -3.3832    9.7416    8.2631 C   0  0  0  0  0  0  0  0  0  0  0  0
   -2.7400   10.9207    7.8189 O   0  0  0  0  0  0  0  0  0  0  0  0
   -2.8868    8.5029    7.4491 C   0  0  0  0  0  0  0  0  0  0  0  0
   -3.1522    8.7696    6.0473 O   0  0  0  0  0  0  0  0  0  0  0  0
   -1.3952    8.3325    7.6276 C   0  0  0  0  0  0  0  0  0  0  0  0
   -1.0057    7.1321    6.9480 O   0  0  0  0  0  0  0  0  0  0  0  0
   -1.1060    8.1594    9.0996 C   0  0  0  0  0  0  0  0  0  0  0  0
   -1.5585    9.3184    9.8359 O   0  0  0  0  0  0  0  0  0  0  0  0
   -1.7821   10.8331    7.9437 H   0  0  0  0  0  0  0  0  0  0  0  0
   -2.6863    9.5765    5.7778 H   0  0  0  0  0  0  0  0  0  0  0  0
   -1.4962    6.3796    7.3140 H   0  0  0  0  0  0  0  0  0  0  0  0
    0.3943    8.0590    9.4255 C   0  0  0  0  0  0  0  0  0  0  0  0
    1.1790    8.0550    8.2388 O   0  0  0  0  0  0  0  0  0  0  0  0
    0.9391    7.2884    7.6951 H   0  0  0  0  0  0  0  0  0  0  0  0
   -4.4285    5.9037   11.2095 Cl  0  0  0  0  0  0  0  0  0  0  0  0
   -4.9486    8.4609   10.6230 C   0  0  0  0  0  0  0  0  0  0  0  0
   -5.7928    9.5686   10.5645 C   0  0  0  0  0  0  0  0  0  0  0  0
   -7.0892    9.4427   11.0955 C   0  0  0  0  0  0  0  0  0  0  0  0
   -7.5301    8.2324   11.6502 C   0  0  0  0  0  0  0  0  0  0  0  0
   -6.6762    7.1496   11.6789 C   0  0  0  0  0  0  0  0  0  0  0  0
   -5.4198    7.2545   11.1167 C   0  0  0  0  0  0  0  0  0  0  0  0
   -8.8318    8.0509   12.2093 C   0  0  0  0  0  0  0  0  0  0  0  0
   -9.4006    6.7997   12.4093 C   0  0  0  0  0  0  0  0  0  0  0  0
  -10.6824    6.6722   12.9563 C   0  0  0  0  0  0  0  0  0  0  0  0
  -11.4247    7.7708   13.3212 C   0  0  0  0  0  0  0  0  0  0  0  0
  -10.8895    9.0210   13.1460 C   0  0  0  0  0  0  0  0  0  0  0  0
   -9.6172    9.1384   12.6027 C   0  0  0  0  0  0  0  0  0  0  0  0
  -12.7462    7.5997   13.8896 C   0  0  0  0  0  0  0  0  0  0  0  0
  -13.7919    7.4653   14.3516 N   0  0  0  0  0  0  0  0  0  0  0  0
 17 23  1  0  0  0
  2  1  1  0  0  0
  2  3  1  0  0  0
  2 10  1  0  0  0
  1 18  1  0  0  0
  3  4  1  0  0  0
  3  5  1  0  0  0
  5  6  1  0  0  0
  5  7  1  0  0  0
  7  8  1  0  0  0
  7  9  1  0  0  0
  9 10  1  0  0  0
  9 14  1  0  0  0
 14 15  1  0  0  0
 18 19  2  0  0  0
 18 23  1  0  0  0
 19 20  1  0  0  0
 20 21  2  0  0  0
 21 22  1  0  0  0
 21 24  1  0  0  0
 22 23  2  0  0  0
 24 25  2  0  0  0
 24 29  1  0  0  0
 25 26  1  0  0  0
 26 27  2  0  0  0
 27 28  1  0  0  0
 27 30  1  0  0  0
 28 29  2  0  0  0
 30 31  3  0  0  0
  4 11  1  0  0  0
  6 12  1  0  0  0
  8 13  1  0  0  0
 15 16  1  0  0  0
M  END
> <minimizedAffinity>
-7.68341

$$$$
4CST_CWK_A_1160


 31 33  0  0  0  0  0  0  0  0999 V2000
   -4.9567    8.2034   10.6529 O   0  0  0  0  0  0  0  0  0  0  0  0
   -3.5546    7.9264   10.7693 C   0  0  0  0  0  0  0  0  0  0  0  0
   -2.9151    9.2220   11.1483 C   0  0  0  0  0  0  0  0  0  0  0  0
   -1.5371    8.9422   11.3041 O   0  0  0  0  0  0  0  0  0  0  0  0
   -3.1405   10.2608   10.0024 C   0  0  0  0  0  0  0  0  0  0  0  0
   -2.3808   11.4508   10.3392 O   0  0  0  0  0  0  0  0  0  0  0  0
   -2.6116    9.7116    8.6969 C   0  0  0  0  0  0  0  0  0  0  0  0
   -2.9301   10.6521    7.6633 O   0  0  0  0  0  0  0  0  0  0  0  0
   -3.3283    8.4166    8.3971 C   0  0  0  0  0  0  0  0  0  0  0  0
   -3.0987    7.4627    9.4591 O   0  0  0  0  0  0  0  0  0  0  0  0
   -1.1870    8.5720   10.4787 H   0  0  0  0  0  0  0  0  0  0  0  0
   -1.4422   11.2215   10.4257 H   0  0  0  0  0  0  0  0  0  0  0  0
   -3.8905   10.7840    7.6309 H   0  0  0  0  0  0  0  0  0  0  0  0
   -2.8192    7.7094    7.1290 C   0  0  0  0  0  0  0  0  0  0  0  0
   -1.7549    8.4367    6.5270 O   0  0  0  0  0  0  0  0  0  0  0  0
   -2.0692    9.3182    6.2721 H   0  0  0  0  0  0  0  0  0  0  0  0
   -7.3079    9.6502   11.2110 Cl  0  0  0  0  0  0  0  0  0  0  0  0
   -5.8925    7.3809   11.1877 C   0  0  0  0  0  0  0  0  0  0  0  0
   -5.7248    6.0257   11.4680 C   0  0  0  0  0  0  0  0  0  0  0  0
   -6.8070    5.3269   12.0329 C   0  0  0  0  0  0  0  0  0  0  0  0
   -8.0148    5.9767   12.3261 C   0  0  0  0  0  0  0  0  0  0  0  0
   -8.1439    7.3223   12.0516 C   0  0  0  0  0  0  0  0  0  0  0  0
   -7.0693    8.0223   11.5412 C   0  0  0  0  0  0  0  0  0  0  0  0
   -9.1469    5.3155   12.8925 C   0  0  0  0  0  0  0  0  0  0  0  0
   -9.0374    4.3210   13.8560 C   0  0  0  0  0  0  0  0  0  0  0  0
  -10.1764    3.6979   14.3782 C   0  0  0  0  0  0  0  0  0  0  0  0
  -11.4421    4.0448   13.9673 C   0  0  0  0  0  0  0  0  0  0  0  0
  -11.5869    5.0294   13.0241 C   0  0  0  0  0  0  0  0  0  0  0  0
  -10.4516    5.6423   12.5113 C   0  0  0  0  0  0  0  0  0  0  0  0
  -12.5985    3.3814   14.5345 C   0  0  0  0  0  0  0  0  0  0  0  0
  -13.5114    2.8526   14.9948 N   0  0  0  0  0  0  0  0  0  0  0  0
 17 23  1  0  0  0
  2  1  1  0  0  0
  2  3  1  0  0  0
  2 10  1  0  0  0
  1 18  1  0  0  0
  3  4  1  0  0  0
  3  5  1  0  0  0
  5  6  1  0  0  0
  5  7  1  0  0  0
  7  8  1  0  0  0
  7  9  1  0  0  0
  9 10  1  0  0  0
  9 14  1  0  0  0
 14 15  1  0  0  0
 18 19  2  0  0  0
 18 23  1  0  0  0
 19 20  1  0  0  0
 20 21  2  0  0  0
 21 22  1  0  0  0
 21 24  1  0  0  0
 22 23  2  0  0  0
 24 25  2  0  0  0
 24 29  1  0  0  0
 25 26  1  0  0  0
 26 27  2  0  0  0
 27 28  1  0  0  0
 27 30  1  0  0  0
 28 29  2  0  0  0
 30 31  3  0  0  0
  4 11  1  0  0  0
  6 12  1  0  0  0
  8 13  1  0  0  0
 15 16  1  0  0  0
M  END
> <minimizedAffinity>
-7.51939

$$$$
4CST_CWK_A_1160


 31 33  0  0  0  0  0  0  0  0999 V2000
   -4.4109    9.3683   11.2669 O   0  0  0  0  0  0  0  0  0  0  0  0
   -4.2404   10.1809   10.0978 C   0  0  0  0  0  0  0  0  0  0  0  0
   -3.1099    9.5673    9.3383 C   0  0  0  0  0  0  0  0  0  0  0  0
   -2.9666   10.3430    8.1639 O   0  0  0  0  0  0  0  0  0  0  0  0
   -1.8114    9.6355   10.2057 C   0  0  0  0  0  0  0  0  0  0  0  0
   -0.7124    9.1700    9.3798 O   0  0  0  0  0  0  0  0  0  0  0  0
   -1.5333   11.0664   10.6065 C   0  0  0  0  0  0  0  0  0  0  0  0
   -0.3964   11.0653   11.4793 O   0  0  0  0  0  0  0  0  0  0  0  0
   -2.7227   11.5873   11.3776 C   0  0  0  0  0  0  0  0  0  0  0  0
   -3.9120   11.5302   10.5573 O   0  0  0  0  0  0  0  0  0  0  0  0
   -2.8050   11.2684    8.4054 H   0  0  0  0  0  0  0  0  0  0  0  0
   -0.6388    9.7321    8.5927 H   0  0  0  0  0  0  0  0  0  0  0  0
   -0.5824   10.5091   12.2519 H   0  0  0  0  0  0  0  0  0  0  0  0
   -2.6001   13.0689   11.7736 C   0  0  0  0  0  0  0  0  0  0  0  0
   -1.6655   13.7474   10.9427 O   0  0  0  0  0  0  0  0  0  0  0  0
   -0.7910   13.3387   11.0389 H   0  0  0  0  0  0  0  0  0  0  0  0
   -3.9946    6.5867   11.1193 Cl  0  0  0  0  0  0  0  0  0  0  0  0
   -5.5705    8.7111   11.5150 C   0  0  0  0  0  0  0  0  0  0  0  0
   -6.8072    9.3030   11.7671 C   0  0  0  0  0  0  0  0  0  0  0  0
   -7.9105    8.4611   11.9964 C   0  0  0  0  0  0  0  0  0  0  0  0
   -7.7778    7.0656   11.9530 C   0  0  0  0  0  0  0  0  0  0  0  0
   -6.5438    6.5106   11.6852 C   0  0  0  0  0  0  0  0  0  0  0  0
   -5.4688    7.3326   11.4132 C   0  0  0  0  0  0  0  0  0  0  0  0
   -8.8613    6.1645   12.1849 C   0  0  0  0  0  0  0  0  0  0  0  0
  -10.1406    6.5907   12.5182 C   0  0  0  0  0  0  0  0  0  0  0  0
  -11.1697    5.6690   12.7411 C   0  0  0  0  0  0  0  0  0  0  0  0
  -10.9614    4.3139   12.6350 C   0  0  0  0  0  0  0  0  0  0  0  0
   -9.7124    3.8589   12.2984 C   0  0  0  0  0  0  0  0  0  0  0  0
   -8.6972    4.7803   12.0790 C   0  0  0  0  0  0  0  0  0  0  0  0
  -12.0526    3.3896   12.8677 C   0  0  0  0  0  0  0  0  0  0  0  0
  -12.9157    2.6488   13.0439 N   0  0  0  0  0  0  0  0  0  0  0  0
 17 23  1  0  0  0
  2  1  1  0  0  0
  2  3  1  0  0  0
  2 10  1  0  0  0
  1 18  1  0  0  0
  3  4  1  0  0  0
  3  5  1  0  0  0
  5  6  1  0  0  0
  5  7  1  0  0  0
  7  8  1  0  0  0
  7  9  1  0  0  0
  9 10  1  0  0  0
  9 14  1  0  0  0
 14 15  1  0  0  0
 18 19  2  0  0  0
 18 23  1  0  0  0
 19 20  1  0  0  0
 20 21  2  0  0  0
 21 22  1  0  0  0
 21 24  1  0  0  0
 22 23  2  0  0  0
 24 25  2  0  0  0
 24 29  1  0  0  0
 25 26  1  0  0  0
 26 27  2  0  0  0
 27 28  1  0  0  0
 27 30  1  0  0  0
 28 29  2  0  0  0
 30 31  3  0  0  0
  4 11  1  0  0  0
  6 12  1  0  0  0
  8 13  1  0  0  0
 15 16  1  0  0  0
M  END
> <minimizedAffinity>
-6.89968

$$$$
4CST_CWK_A_1160


 31 33  0  0  0  0  0  0  0  0999 V2000
   -3.9064    8.8406   11.2481 O   0  0  0  0  0  0  0  0  0  0  0  0
   -3.6045    9.7791   10.2068 C   0  0  0  0  0  0  0  0  0  0  0  0
   -3.4818    8.9718    8.9560 C   0  0  0  0  0  0  0  0  0  0  0  0
   -3.2247    9.9003    7.9200 O   0  0  0  0  0  0  0  0  0  0  0  0
   -2.2916    7.9697    9.1059 C   0  0  0  0  0  0  0  0  0  0  0  0
   -2.1114    7.3143    7.8235 O   0  0  0  0  0  0  0  0  0  0  0  0
   -1.0231    8.7217    9.4391 C   0  0  0  0  0  0  0  0  0  0  0  0
    0.0129    7.7573    9.6650 O   0  0  0  0  0  0  0  0  0  0  0  0
   -1.2442    9.4892   10.7207 C   0  0  0  0  0  0  0  0  0  0  0  0
   -2.3386   10.4205   10.5611 O   0  0  0  0  0  0  0  0  0  0  0  0
   -2.4220   10.4034    8.1286 H   0  0  0  0  0  0  0  0  0  0  0  0
   -1.9260    7.9804    7.1432 H   0  0  0  0  0  0  0  0  0  0  0  0
   -0.2491    7.1641   10.3864 H   0  0  0  0  0  0  0  0  0  0  0  0
   -0.0485   10.3678   11.1274 C   0  0  0  0  0  0  0  0  0  0  0  0
   -0.4574   11.7064   11.3826 O   0  0  0  0  0  0  0  0  0  0  0  0
   -0.8464   12.0844   10.5785 H   0  0  0  0  0  0  0  0  0  0  0  0
   -3.9178    6.0657   11.7301 Cl  0  0  0  0  0  0  0  0  0  0  0  0
   -5.1727    8.4141   11.4779 C   0  0  0  0  0  0  0  0  0  0  0  0
   -6.3200    9.2053   11.4447 C   0  0  0  0  0  0  0  0  0  0  0  0
   -7.5579    8.5887   11.7013 C   0  0  0  0  0  0  0  0  0  0  0  0
   -7.6414    7.2134   11.9632 C   0  0  0  0  0  0  0  0  0  0  0  0
   -6.4896    6.4547   11.9734 C   0  0  0  0  0  0  0  0  0  0  0  0
   -5.2784    7.0463   11.6758 C   0  0  0  0  0  0  0  0  0  0  0  0
   -8.8695    6.5377   12.2371 C   0  0  0  0  0  0  0  0  0  0  0  0
  -10.0368    7.2038   12.5878 C   0  0  0  0  0  0  0  0  0  0  0  0
  -11.2155    6.4973   12.8519 C   0  0  0  0  0  0  0  0  0  0  0  0
  -11.2693    5.1256   12.7708 C   0  0  0  0  0  0  0  0  0  0  0  0
  -10.1372    4.4370   12.4181 C   0  0  0  0  0  0  0  0  0  0  0  0
   -8.9721    5.1457   12.1577 C   0  0  0  0  0  0  0  0  0  0  0  0
  -12.5092    4.4286   13.0461 C   0  0  0  0  0  0  0  0  0  0  0  0
  -13.4890    3.8688   13.2731 N   0  0  0  0  0  0  0  0  0  0  0  0
 17 23  1  0  0  0
  2  1  1  0  0  0
  2  3  1  0  0  0
  2 10  1  0  0  0
  1 18  1  0  0  0
  3  4  1  0  0  0
  3  5  1  0  0  0
  5  6  1  0  0  0
  5  7  1  0  0  0
  7  8  1  0  0  0
  7  9  1  0  0  0
  9 10  1  0  0  0
  9 14  1  0  0  0
 14 15  1  0  0  0
 18 19  2  0  0  0
 18 23  1  0  0  0
 19 20  1  0  0  0
 20 21  2  0  0  0
 21 22  1  0  0  0
 21 24  1  0  0  0
 22 23  2  0  0  0
 24 25  2  0  0  0
 24 29  1  0  0  0
 25 26  1  0  0  0
 26 27  2  0  0  0
 27 28  1  0  0  0
 27 30  1  0  0  0
 28 29  2  0  0  0
 30 31  3  0  0  0
  4 11  1  0  0  0
  6 12  1  0  0  0
  8 13  1  0  0  0
 15 16  1  0  0  0
M  END
> <minimizedAffinity>
-6.83172

$$$$
