5F5Z_5VY_A_201


 39 42  0  0  0  0  0  0  0  0999 V2000
   63.0721   76.2586   77.1694 C   0  0  0  0  0  0  0  0  0  0  0  0
   63.5771   74.3307   75.5538 C   0  0  0  0  0  0  0  0  0  0  0  0
   63.9691   75.3351   76.5889 C   0  0  0  0  0  0  0  0  0  0  0  0
   65.3053   75.3959   77.0224 C   0  0  0  0  0  0  0  0  0  0  0  0
   65.7059   76.2945   77.9246 N   0  0  0  0  0  0  0  0  0  0  0  0
   64.8590   77.1691   78.5015 C   0  0  0  0  0  0  0  0  0  0  0  0
   63.5635   77.1252   78.1151 N   0  0  0  0  0  0  0  0  0  0  0  0
   65.3009   78.0397   79.4466 N   0  0  0  0  0  0  0  0  0  0  0  0
   66.2145   77.8601   79.7664 H   0  0  0  0  0  0  0  0  0  0  0  0
   63.6557   81.4504   81.3596 C   0  0  0  0  0  0  0  0  0  0  0  0
   64.7023   79.1214   80.0329 C   0  0  0  0  0  0  0  0  0  0  0  0
   63.3877   79.5668   79.7836 C   0  0  0  0  0  0  0  0  0  0  0  0
   62.8863   80.7141   80.4302 C   0  0  0  0  0  0  0  0  0  0  0  0
   64.9762   80.9998   81.6010 C   0  0  0  0  0  0  0  0  0  0  0  0
   65.4866   79.8497   80.9523 C   0  0  0  0  0  0  0  0  0  0  0  0
   61.3652   84.4290   81.7661 C   0  0  0  0  0  0  0  0  0  0  0  0
   61.4301   86.1317   83.5739 C   0  0  0  0  0  0  0  0  0  0  0  0
   64.0814   83.5638   82.4249 C   0  0  0  0  0  0  0  0  0  0  0  0
   63.1144   82.5805   81.9620 N   0  0  0  0  0  0  0  0  0  0  0  0
   61.9129   83.0635   81.3040 C   0  0  0  0  0  0  0  0  0  0  0  0
   62.0182   84.8906   83.0213 N   0  0  0  0  0  0  0  0  0  0  0  0
   63.5035   84.8691   83.0258 C   0  0  0  0  0  0  0  0  0  0  0  0
   61.7472   76.2752   76.8294 N   0  0  0  0  0  0  0  0  0  0  0  0
   61.4444   75.5582   76.2265 H   0  0  0  0  0  0  0  0  0  0  0  0
   59.8728   77.7830   76.3631 C   0  0  0  0  0  0  0  0  0  0  0  0
   60.7880   77.1764   77.2312 C   0  0  0  0  0  0  0  0  0  0  0  0
   58.9099   78.6833   76.8289 C   0  0  0  0  0  0  0  0  0  0  0  0
   58.8455   78.9894   78.2064 C   0  0  0  0  0  0  0  0  0  0  0  0
   59.7385   78.3789   79.1043 C   0  0  0  0  0  0  0  0  0  0  0  0
   60.6985   77.4852   78.6163 C   0  0  0  0  0  0  0  0  0  0  0  0
   58.0159   79.2963   76.0200 N   0  0  0  0  0  0  0  0  0  0  0  0
   57.1319   79.4952   76.4050 H   0  0  0  0  0  0  0  0  0  0  0  0
   58.2693   79.7563   74.4054 S   0  0  0  0  0  0  0  0  0  0  0  0
   59.8135   79.7682   74.0437 O   0  0  0  0  0  0  0  0  0  0  0  0
   57.5316   81.1419   74.2233 O   0  0  0  0  0  0  0  0  0  0  0  0
   57.3421   78.5446   73.4005 C   0  0  0  0  0  0  0  0  0  0  0  0
   56.9360   79.2557   72.0720 C   0  0  0  0  0  0  0  0  0  0  0  0
   58.2598   77.3080   73.1502 C   0  0  0  0  0  0  0  0  0  0  0  0
   56.1310   78.2164   74.3110 C   0  0  0  0  0  0  0  0  0  0  0  0
 10 13  2  0  0  0
 10 19  1  0  0  0
 10 14  1  0  0  0
 16 20  1  0  0  0
 16 21  1  0  0  0
 17 21  1  0  0  0
 18 19  1  0  0  0
 18 22  1  0  0  0
  1  3  2  0  0  0
  1  7  1  0  0  0
  1 23  1  0  0  0
 25 26  2  0  0  0
 25 27  1  0  0  0
 36 33  1  0  0  0
 36 37  1  0  0  0
 36 38  1  0  0  0
 36 39  1  0  0  0
  2  3  1  0  0  0
  3  4  1  0  0  0
  4  5  2  0  0  0
  5  6  1  0  0  0
  6  8  1  0  0  0
  6  7  2  0  0  0
  8 11  1  0  0  0
 11 12  2  0  0  0
 11 15  1  0  0  0
 12 13  1  0  0  0
 19 20  1  0  0  0
 21 22  1  0  0  0
 14 15  2  0  0  0
 23 26  1  0  0  0
 26 30  1  0  0  0
 27 31  1  0  0  0
 27 28  2  0  0  0
 31 33  1  0  0  0
 33 34  2  0  0  0
 33 35  2  0  0  0
 28 29  1  0  0  0
 29 30  2  0  0  0
  8  9  1  0  0  0
 23 24  1  0  0  0
 31 32  1  0  0  0
M  END
> <minimizedAffinity>
-9.27140

$$$$
5F5Z_5VY_A_201


 39 42  0  0  0  0  0  0  0  0999 V2000
   63.1308   76.2773   77.0707 C   0  0  0  0  0  0  0  0  0  0  0  0
   63.5788   74.3087   75.4876 C   0  0  0  0  0  0  0  0  0  0  0  0
   64.0030   75.3260   76.4972 C   0  0  0  0  0  0  0  0  0  0  0  0
   65.3457   75.3705   76.9120 C   0  0  0  0  0  0  0  0  0  0  0  0
   65.7747   76.2792   77.7908 N   0  0  0  0  0  0  0  0  0  0  0  0
   64.9518   77.1806   78.3609 C   0  0  0  0  0  0  0  0  0  0  0  0
   63.6507   77.1532   77.9923 N   0  0  0  0  0  0  0  0  0  0  0  0
   65.4222   78.0614   79.2826 N   0  0  0  0  0  0  0  0  0  0  0  0
   66.3561   78.3374   79.1386 H   0  0  0  0  0  0  0  0  0  0  0  0
   63.7126   80.0293   82.6299 C   0  0  0  0  0  0  0  0  0  0  0  0
   64.8290   78.6330   80.3751 C   0  0  0  0  0  0  0  0  0  0  0  0
   63.7477   78.0900   81.0996 C   0  0  0  0  0  0  0  0  0  0  0  0
   63.2006   78.7850   82.1965 C   0  0  0  0  0  0  0  0  0  0  0  0
   64.7951   80.5702   81.8944 C   0  0  0  0  0  0  0  0  0  0  0  0
   65.3472   79.8781   80.7897 C   0  0  0  0  0  0  0  0  0  0  0  0
   62.9824   80.7923   86.2586 C   0  0  0  0  0  0  0  0  0  0  0  0
   61.3399   82.4334   87.1422 C   0  0  0  0  0  0  0  0  0  0  0  0
   61.6854   80.8415   83.6365 C   0  0  0  0  0  0  0  0  0  0  0  0
   63.1287   80.6764   83.7130 N   0  0  0  0  0  0  0  0  0  0  0  0
   63.7041   80.2932   84.9905 C   0  0  0  0  0  0  0  0  0  0  0  0
   61.9632   81.8299   85.9427 N   0  0  0  0  0  0  0  0  0  0  0  0
   60.9990   81.4857   84.8663 C   0  0  0  0  0  0  0  0  0  0  0  0
   61.8021   76.3118   76.7476 N   0  0  0  0  0  0  0  0  0  0  0  0
   61.4891   75.6196   76.1214 H   0  0  0  0  0  0  0  0  0  0  0  0
   59.9344   77.8502   76.3610 C   0  0  0  0  0  0  0  0  0  0  0  0
   60.8515   77.2005   77.1952 C   0  0  0  0  0  0  0  0  0  0  0  0
   58.9805   78.7352   76.8725 C   0  0  0  0  0  0  0  0  0  0  0  0
   58.9275   78.9811   78.2624 C   0  0  0  0  0  0  0  0  0  0  0  0
   59.8226   78.3263   79.1265 C   0  0  0  0  0  0  0  0  0  0  0  0
   60.7734   77.4489   78.5931 C   0  0  0  0  0  0  0  0  0  0  0  0
   58.0851   79.3886   76.0974 N   0  0  0  0  0  0  0  0  0  0  0  0
   57.2534   79.6849   76.5330 H   0  0  0  0  0  0  0  0  0  0  0  0
   58.2553   79.7476   74.4468 S   0  0  0  0  0  0  0  0  0  0  0  0
   59.7805   79.7561   74.0117 O   0  0  0  0  0  0  0  0  0  0  0  0
   57.4881   81.1091   74.2128 O   0  0  0  0  0  0  0  0  0  0  0  0
   57.3013   78.4624   73.5660 C   0  0  0  0  0  0  0  0  0  0  0  0
   58.3023   77.3359   73.1603 C   0  0  0  0  0  0  0  0  0  0  0  0
   56.1818   77.9406   74.5193 C   0  0  0  0  0  0  0  0  0  0  0  0
   56.7369   79.2427   72.3511 C   0  0  0  0  0  0  0  0  0  0  0  0
 10 13  2  0  0  0
 10 19  1  0  0  0
 10 14  1  0  0  0
 16 20  1  0  0  0
 16 21  1  0  0  0
 17 21  1  0  0  0
 18 19  1  0  0  0
 18 22  1  0  0  0
  1  3  2  0  0  0
  1  7  1  0  0  0
  1 23  1  0  0  0
 25 26  2  0  0  0
 25 27  1  0  0  0
 36 33  1  0  0  0
 36 37  1  0  0  0
 36 38  1  0  0  0
 36 39  1  0  0  0
  2  3  1  0  0  0
  3  4  1  0  0  0
  4  5  2  0  0  0
  5  6  1  0  0  0
  6  8  1  0  0  0
  6  7  2  0  0  0
  8 11  1  0  0  0
 11 12  2  0  0  0
 11 15  1  0  0  0
 12 13  1  0  0  0
 19 20  1  0  0  0
 21 22  1  0  0  0
 14 15  2  0  0  0
 23 26  1  0  0  0
 26 30  1  0  0  0
 27 31  1  0  0  0
 27 28  2  0  0  0
 31 33  1  0  0  0
 33 34  2  0  0  0
 33 35  2  0  0  0
 28 29  1  0  0  0
 29 30  2  0  0  0
  8  9  1  0  0  0
 23 24  1  0  0  0
 31 32  1  0  0  0
M  END
> <minimizedAffinity>
-8.97944

$$$$
5F5Z_5VY_A_201


 39 42  0  0  0  0  0  0  0  0999 V2000
   58.4437   80.0732   81.1102 C   0  0  0  0  0  0  0  0  0  0  0  0
   56.7341   79.2761   82.8492 C   0  0  0  0  0  0  0  0  0  0  0  0
   58.0939   79.2850   82.2286 C   0  0  0  0  0  0  0  0  0  0  0  0
   59.1022   78.4622   82.7607 C   0  0  0  0  0  0  0  0  0  0  0  0
   60.3229   78.4176   82.2222 N   0  0  0  0  0  0  0  0  0  0  0  0
   60.6776   79.1771   81.1677 C   0  0  0  0  0  0  0  0  0  0  0  0
   59.7326   79.9900   80.6426 N   0  0  0  0  0  0  0  0  0  0  0  0
   61.9438   79.1315   80.6766 N   0  0  0  0  0  0  0  0  0  0  0  0
   62.5512   79.8044   81.0608 H   0  0  0  0  0  0  0  0  0  0  0  0
   63.5497   76.6287   77.6506 C   0  0  0  0  0  0  0  0  0  0  0  0
   62.5251   78.3169   79.7434 C   0  0  0  0  0  0  0  0  0  0  0  0
   63.8630   77.8714   79.7628 C   0  0  0  0  0  0  0  0  0  0  0  0
   64.3595   77.0529   78.7288 C   0  0  0  0  0  0  0  0  0  0  0  0
   62.2090   77.0840   77.6358 C   0  0  0  0  0  0  0  0  0  0  0  0
   61.7052   77.9089   78.6701 C   0  0  0  0  0  0  0  0  0  0  0  0
   63.6271   73.9715   74.9643 C   0  0  0  0  0  0  0  0  0  0  0  0
   65.6086   73.1965   73.6817 C   0  0  0  0  0  0  0  0  0  0  0  0
   65.3577   75.1900   76.9843 C   0  0  0  0  0  0  0  0  0  0  0  0
   64.0935   75.8285   76.6521 N   0  0  0  0  0  0  0  0  0  0  0  0
   63.1004   75.0442   75.9389 C   0  0  0  0  0  0  0  0  0  0  0  0
   65.0866   74.1208   74.7135 N   0  0  0  0  0  0  0  0  0  0  0  0
   65.9446   74.2286   75.9213 C   0  0  0  0  0  0  0  0  0  0  0  0
   57.5424   80.9192   80.5247 N   0  0  0  0  0  0  0  0  0  0  0  0
   57.3786   81.7703   80.9916 H   0  0  0  0  0  0  0  0  0  0  0  0
   57.4316   80.5964   78.0981 C   0  0  0  0  0  0  0  0  0  0  0  0
   56.8377   80.7203   79.3595 C   0  0  0  0  0  0  0  0  0  0  0  0
   56.6664   80.3823   76.9478 C   0  0  0  0  0  0  0  0  0  0  0  0
   55.2613   80.2799   77.0503 C   0  0  0  0  0  0  0  0  0  0  0  0
   54.6394   80.3794   78.3072 C   0  0  0  0  0  0  0  0  0  0  0  0
   55.4234   80.5996   79.4453 C   0  0  0  0  0  0  0  0  0  0  0  0
   57.2031   80.2674   75.7116 N   0  0  0  0  0  0  0  0  0  0  0  0
   57.0932   81.0362   75.1065 H   0  0  0  0  0  0  0  0  0  0  0  0
   58.0477   78.9269   75.1016 S   0  0  0  0  0  0  0  0  0  0  0  0
   58.4329   77.9118   76.2578 O   0  0  0  0  0  0  0  0  0  0  0  0
   59.2729   79.5116   74.2927 O   0  0  0  0  0  0  0  0  0  0  0  0
   56.9340   78.1668   73.8689 C   0  0  0  0  0  0  0  0  0  0  0  0
   57.7123   76.9902   73.2016 C   0  0  0  0  0  0  0  0  0  0  0  0
   55.6463   77.6801   74.6032 C   0  0  0  0  0  0  0  0  0  0  0  0
   56.6604   79.3446   72.8985 C   0  0  0  0  0  0  0  0  0  0  0  0
 10 13  2  0  0  0
 10 19  1  0  0  0
 10 14  1  0  0  0
 16 20  1  0  0  0
 16 21  1  0  0  0
 17 21  1  0  0  0
 18 19  1  0  0  0
 18 22  1  0  0  0
  1  3  2  0  0  0
  1  7  1  0  0  0
  1 23  1  0  0  0
 25 26  2  0  0  0
 25 27  1  0  0  0
 36 33  1  0  0  0
 36 37  1  0  0  0
 36 38  1  0  0  0
 36 39  1  0  0  0
  2  3  1  0  0  0
  3  4  1  0  0  0
  4  5  2  0  0  0
  5  6  1  0  0  0
  6  8  1  0  0  0
  6  7  2  0  0  0
  8 11  1  0  0  0
 11 12  2  0  0  0
 11 15  1  0  0  0
 12 13  1  0  0  0
 19 20  1  0  0  0
 21 22  1  0  0  0
 14 15  2  0  0  0
 23 26  1  0  0  0
 26 30  1  0  0  0
 27 31  1  0  0  0
 27 28  2  0  0  0
 31 33  1  0  0  0
 33 34  2  0  0  0
 33 35  2  0  0  0
 28 29  1  0  0  0
 29 30  2  0  0  0
  8  9  1  0  0  0
 23 24  1  0  0  0
 31 32  1  0  0  0
M  END
> <minimizedAffinity>
-8.85791

$$$$
5F5Z_5VY_A_201


 39 42  0  0  0  0  0  0  0  0999 V2000
   63.2228   76.2395   77.0367 C   0  0  0  0  0  0  0  0  0  0  0  0
   63.7336   74.2943   75.4438 C   0  0  0  0  0  0  0  0  0  0  0  0
   64.1190   75.3012   76.4790 C   0  0  0  0  0  0  0  0  0  0  0  0
   65.4477   75.3490   76.9364 C   0  0  0  0  0  0  0  0  0  0  0  0
   65.8427   76.2490   77.8397 N   0  0  0  0  0  0  0  0  0  0  0  0
   64.9962   77.1378   78.3949 C   0  0  0  0  0  0  0  0  0  0  0  0
   63.7075   77.1068   77.9853 N   0  0  0  0  0  0  0  0  0  0  0  0
   65.4313   78.0096   79.3420 N   0  0  0  0  0  0  0  0  0  0  0  0
   66.3572   77.8554   79.6390 H   0  0  0  0  0  0  0  0  0  0  0  0
   63.7219   81.3400   81.3384 C   0  0  0  0  0  0  0  0  0  0  0  0
   64.8120   79.0637   79.9565 C   0  0  0  0  0  0  0  0  0  0  0  0
   63.4786   79.4701   79.7423 C   0  0  0  0  0  0  0  0  0  0  0  0
   62.9557   80.5919   80.4158 C   0  0  0  0  0  0  0  0  0  0  0  0
   65.0611   80.9287   81.5445 C   0  0  0  0  0  0  0  0  0  0  0  0
   65.5931   79.8043   80.8687 C   0  0  0  0  0  0  0  0  0  0  0  0
   61.3776   84.2659   81.8147 C   0  0  0  0  0  0  0  0  0  0  0  0
   61.4061   85.9210   83.6671 C   0  0  0  0  0  0  0  0  0  0  0  0
   64.1064   83.4316   82.4609 C   0  0  0  0  0  0  0  0  0  0  0  0
   63.1586   82.4440   81.9684 N   0  0  0  0  0  0  0  0  0  0  0  0
   61.9509   82.9230   81.3187 C   0  0  0  0  0  0  0  0  0  0  0  0
   62.0180   84.7056   83.0842 N   0  0  0  0  0  0  0  0  0  0  0  0
   63.5035   84.7101   83.0938 C   0  0  0  0  0  0  0  0  0  0  0  0
   61.9047   76.2696   76.6724 N   0  0  0  0  0  0  0  0  0  0  0  0
   61.6224   75.6012   76.0070 H   0  0  0  0  0  0  0  0  0  0  0  0
   60.6780   77.3786   78.4808 C   0  0  0  0  0  0  0  0  0  0  0  0
   60.9268   77.1246   77.1270 C   0  0  0  0  0  0  0  0  0  0  0  0
   59.6782   78.2679   78.8859 C   0  0  0  0  0  0  0  0  0  0  0  0
   58.9000   78.9364   77.9149 C   0  0  0  0  0  0  0  0  0  0  0  0
   59.1419   78.7165   76.5475 C   0  0  0  0  0  0  0  0  0  0  0  0
   60.1436   77.8178   76.1636 C   0  0  0  0  0  0  0  0  0  0  0  0
   59.4022   78.5313   80.1835 N   0  0  0  0  0  0  0  0  0  0  0  0
   58.9151   79.3655   80.3735 H   0  0  0  0  0  0  0  0  0  0  0  0
   59.8136   77.5639   81.5166 S   0  0  0  0  0  0  0  0  0  0  0  0
   61.3721   77.6130   81.8070 O   0  0  0  0  0  0  0  0  0  0  0  0
   59.2384   76.1247   81.2082 O   0  0  0  0  0  0  0  0  0  0  0  0
   58.8376   78.2183   82.9155 C   0  0  0  0  0  0  0  0  0  0  0  0
   57.9327   79.3608   82.3573 C   0  0  0  0  0  0  0  0  0  0  0  0
   58.0025   77.0486   83.5226 C   0  0  0  0  0  0  0  0  0  0  0  0
   59.9399   78.7293   83.8785 C   0  0  0  0  0  0  0  0  0  0  0  0
 10 13  2  0  0  0
 10 19  1  0  0  0
 10 14  1  0  0  0
 16 20  1  0  0  0
 16 21  1  0  0  0
 17 21  1  0  0  0
 18 19  1  0  0  0
 18 22  1  0  0  0
  1  3  2  0  0  0
  1  7  1  0  0  0
  1 23  1  0  0  0
 25 26  2  0  0  0
 25 27  1  0  0  0
 36 33  1  0  0  0
 36 37  1  0  0  0
 36 38  1  0  0  0
 36 39  1  0  0  0
  2  3  1  0  0  0
  3  4  1  0  0  0
  4  5  2  0  0  0
  5  6  1  0  0  0
  6  8  1  0  0  0
  6  7  2  0  0  0
  8 11  1  0  0  0
 11 12  2  0  0  0
 11 15  1  0  0  0
 12 13  1  0  0  0
 19 20  1  0  0  0
 21 22  1  0  0  0
 14 15  2  0  0  0
 23 26  1  0  0  0
 26 30  1  0  0  0
 27 31  1  0  0  0
 27 28  2  0  0  0
 31 33  1  0  0  0
 33 34  2  0  0  0
 33 35  2  0  0  0
 28 29  1  0  0  0
 29 30  2  0  0  0
  8  9  1  0  0  0
 23 24  1  0  0  0
 31 32  1  0  0  0
M  END
> <minimizedAffinity>
-8.68300

$$$$
5F5Z_5VY_A_201


 39 42  0  0  0  0  0  0  0  0999 V2000
   64.0704   76.8569   78.1346 C   0  0  0  0  0  0  0  0  0  0  0  0
   65.8738   75.3188   77.1529 C   0  0  0  0  0  0  0  0  0  0  0  0
   64.4821   75.8594   77.2237 C   0  0  0  0  0  0  0  0  0  0  0  0
   63.4998   75.3568   76.3522 C   0  0  0  0  0  0  0  0  0  0  0  0
   62.2382   75.7906   76.3983 N   0  0  0  0  0  0  0  0  0  0  0  0
   61.8343   76.7548   77.2480 C   0  0  0  0  0  0  0  0  0  0  0  0
   62.7605   77.2682   78.0895 N   0  0  0  0  0  0  0  0  0  0  0  0
   60.5494   77.1966   77.2332 N   0  0  0  0  0  0  0  0  0  0  0  0
   60.0601   77.0460   78.0741 H   0  0  0  0  0  0  0  0  0  0  0  0
   58.0822   79.0998   74.3539 C   0  0  0  0  0  0  0  0  0  0  0  0
   59.8144   77.8134   76.2577 C   0  0  0  0  0  0  0  0  0  0  0  0
   60.3302   78.3620   75.0652 C   0  0  0  0  0  0  0  0  0  0  0  0
   59.4763   78.9990   74.1429 C   0  0  0  0  0  0  0  0  0  0  0  0
   57.5727   78.5509   75.5556 C   0  0  0  0  0  0  0  0  0  0  0  0
   58.4258   77.9124   76.4875 C   0  0  0  0  0  0  0  0  0  0  0  0
   54.8984   80.1632   72.6173 C   0  0  0  0  0  0  0  0  0  0  0  0
   54.7045   81.5260   70.5492 C   0  0  0  0  0  0  0  0  0  0  0  0
   57.7079   79.5951   72.0307 C   0  0  0  0  0  0  0  0  0  0  0  0
   57.2871   79.7471   73.4149 N   0  0  0  0  0  0  0  0  0  0  0  0
   55.8669   79.6640   73.7085 C   0  0  0  0  0  0  0  0  0  0  0  0
   55.6103   80.9140   71.5474 N   0  0  0  0  0  0  0  0  0  0  0  0
   56.7941   80.2374   70.9578 C   0  0  0  0  0  0  0  0  0  0  0  0
   64.9496   77.4237   79.0161 N   0  0  0  0  0  0  0  0  0  0  0  0
   65.8988   77.1950   78.8906 H   0  0  0  0  0  0  0  0  0  0  0  0
   63.5540   78.1357   80.9003 C   0  0  0  0  0  0  0  0  0  0  0  0
   64.6628   78.2762   80.0577 C   0  0  0  0  0  0  0  0  0  0  0  0
   63.3183   79.0255   81.9526 C   0  0  0  0  0  0  0  0  0  0  0  0
   64.2172   80.0902   82.1842 C   0  0  0  0  0  0  0  0  0  0  0  0
   65.3507   80.2432   81.3667 C   0  0  0  0  0  0  0  0  0  0  0  0
   65.5648   79.3449   80.3152 C   0  0  0  0  0  0  0  0  0  0  0  0
   62.2536   78.9279   82.7810 N   0  0  0  0  0  0  0  0  0  0  0  0
   62.4440   78.7448   83.7294 H   0  0  0  0  0  0  0  0  0  0  0  0
   60.6208   79.0903   82.3451 S   0  0  0  0  0  0  0  0  0  0  0  0
   60.4676   79.7853   80.9276 O   0  0  0  0  0  0  0  0  0  0  0  0
   59.9216   79.8526   83.5399 O   0  0  0  0  0  0  0  0  0  0  0  0
   59.9421   77.3941   82.3506 C   0  0  0  0  0  0  0  0  0  0  0  0
   60.9415   76.4957   83.1442 C   0  0  0  0  0  0  0  0  0  0  0  0
   58.5298   77.4314   83.0127 C   0  0  0  0  0  0  0  0  0  0  0  0
   59.8855   77.0548   80.8390 C   0  0  0  0  0  0  0  0  0  0  0  0
 10 13  2  0  0  0
 10 19  1  0  0  0
 10 14  1  0  0  0
 16 20  1  0  0  0
 16 21  1  0  0  0
 17 21  1  0  0  0
 18 19  1  0  0  0
 18 22  1  0  0  0
  1  3  2  0  0  0
  1  7  1  0  0  0
  1 23  1  0  0  0
 25 26  2  0  0  0
 25 27  1  0  0  0
 36 33  1  0  0  0
 36 37  1  0  0  0
 36 38  1  0  0  0
 36 39  1  0  0  0
  2  3  1  0  0  0
  3  4  1  0  0  0
  4  5  2  0  0  0
  5  6  1  0  0  0
  6  8  1  0  0  0
  6  7  2  0  0  0
  8 11  1  0  0  0
 11 12  2  0  0  0
 11 15  1  0  0  0
 12 13  1  0  0  0
 19 20  1  0  0  0
 21 22  1  0  0  0
 14 15  2  0  0  0
 23 26  1  0  0  0
 26 30  1  0  0  0
 27 31  1  0  0  0
 27 28  2  0  0  0
 31 33  1  0  0  0
 33 34  2  0  0  0
 33 35  2  0  0  0
 28 29  1  0  0  0
 29 30  2  0  0  0
  8  9  1  0  0  0
 23 24  1  0  0  0
 31 32  1  0  0  0
M  END
> <minimizedAffinity>
-8.62102

$$$$
5F5Z_5VY_A_201


 39 42  0  0  0  0  0  0  0  0999 V2000
   62.3864   77.8010   83.8336 C   0  0  0  0  0  0  0  0  0  0  0  0
   60.6012   77.8512   85.6755 C   0  0  0  0  0  0  0  0  0  0  0  0
   61.0760   78.0843   84.2775 C   0  0  0  0  0  0  0  0  0  0  0  0
   60.1920   78.6272   83.3285 C   0  0  0  0  0  0  0  0  0  0  0  0
   60.5805   78.8774   82.0761 N   0  0  0  0  0  0  0  0  0  0  0  0
   61.8207   78.5952   81.6323 C   0  0  0  0  0  0  0  0  0  0  0  0
   62.6898   78.0586   82.5189 N   0  0  0  0  0  0  0  0  0  0  0  0
   62.1620   78.8275   80.3377 N   0  0  0  0  0  0  0  0  0  0  0  0
   61.9505   79.7351   80.0202 H   0  0  0  0  0  0  0  0  0  0  0  0
   63.7737   76.3477   77.2959 C   0  0  0  0  0  0  0  0  0  0  0  0
   62.7472   78.0248   79.3967 C   0  0  0  0  0  0  0  0  0  0  0  0
   64.1075   77.6537   79.3663 C   0  0  0  0  0  0  0  0  0  0  0  0
   64.6040   76.8401   78.3285 C   0  0  0  0  0  0  0  0  0  0  0  0
   62.4103   76.7286   77.3307 C   0  0  0  0  0  0  0  0  0  0  0  0
   61.9061   77.5481   78.3690 C   0  0  0  0  0  0  0  0  0  0  0  0
   63.8407   73.7477   74.5539 C   0  0  0  0  0  0  0  0  0  0  0  0
   65.8283   72.9512   73.2942 C   0  0  0  0  0  0  0  0  0  0  0  0
   65.5591   74.8790   76.6341 C   0  0  0  0  0  0  0  0  0  0  0  0
   64.3180   75.5558   76.2911 N   0  0  0  0  0  0  0  0  0  0  0  0
   63.3207   74.8120   75.5412 C   0  0  0  0  0  0  0  0  0  0  0  0
   65.3082   73.8659   74.3355 N   0  0  0  0  0  0  0  0  0  0  0  0
   66.1438   73.9262   75.5622 C   0  0  0  0  0  0  0  0  0  0  0  0
   63.3209   77.2576   84.6717 N   0  0  0  0  0  0  0  0  0  0  0  0
   63.2807   76.2814   84.7927 H   0  0  0  0  0  0  0  0  0  0  0  0
   65.4446   78.4764   84.7668 C   0  0  0  0  0  0  0  0  0  0  0  0
   64.3107   77.9153   85.3656 C   0  0  0  0  0  0  0  0  0  0  0  0
   66.4138   79.1454   85.5203 C   0  0  0  0  0  0  0  0  0  0  0  0
   66.2512   79.2703   86.9179 C   0  0  0  0  0  0  0  0  0  0  0  0
   65.1117   78.7350   87.5433 C   0  0  0  0  0  0  0  0  0  0  0  0
   64.1566   78.0639   86.7714 C   0  0  0  0  0  0  0  0  0  0  0  0
   67.5265   79.6914   84.9790 N   0  0  0  0  0  0  0  0  0  0  0  0
   68.3574   79.1679   85.0491 H   0  0  0  0  0  0  0  0  0  0  0  0
   67.6306   81.1914   84.1906 S   0  0  0  0  0  0  0  0  0  0  0  0
   68.7210   82.1246   84.8658 O   0  0  0  0  0  0  0  0  0  0  0  0
   66.1649   81.7820   84.1764 O   0  0  0  0  0  0  0  0  0  0  0  0
   68.0449   80.8034   82.4541 C   0  0  0  0  0  0  0  0  0  0  0  0
   66.7121   80.4416   81.7274 C   0  0  0  0  0  0  0  0  0  0  0  0
   68.7401   82.0499   81.8238 C   0  0  0  0  0  0  0  0  0  0  0  0
   69.0047   79.5952   82.6043 C   0  0  0  0  0  0  0  0  0  0  0  0
 10 13  2  0  0  0
 10 19  1  0  0  0
 10 14  1  0  0  0
 16 20  1  0  0  0
 16 21  1  0  0  0
 17 21  1  0  0  0
 18 19  1  0  0  0
 18 22  1  0  0  0
  1  3  2  0  0  0
  1  7  1  0  0  0
  1 23  1  0  0  0
 25 26  2  0  0  0
 25 27  1  0  0  0
 36 33  1  0  0  0
 36 37  1  0  0  0
 36 38  1  0  0  0
 36 39  1  0  0  0
  2  3  1  0  0  0
  3  4  1  0  0  0
  4  5  2  0  0  0
  5  6  1  0  0  0
  6  8  1  0  0  0
  6  7  2  0  0  0
  8 11  1  0  0  0
 11 12  2  0  0  0
 11 15  1  0  0  0
 12 13  1  0  0  0
 19 20  1  0  0  0
 21 22  1  0  0  0
 14 15  2  0  0  0
 23 26  1  0  0  0
 26 30  1  0  0  0
 27 31  1  0  0  0
 27 28  2  0  0  0
 31 33  1  0  0  0
 33 34  2  0  0  0
 33 35  2  0  0  0
 28 29  1  0  0  0
 29 30  2  0  0  0
  8  9  1  0  0  0
 23 24  1  0  0  0
 31 32  1  0  0  0
M  END
> <minimizedAffinity>
-8.42264

$$$$
5F5Z_5VY_A_201


 39 42  0  0  0  0  0  0  0  0999 V2000
   60.7957   77.9415   78.6642 C   0  0  0  0  0  0  0  0  0  0  0  0
   60.4933   79.4937   80.6844 C   0  0  0  0  0  0  0  0  0  0  0  0
   60.0774   78.9383   79.3606 C   0  0  0  0  0  0  0  0  0  0  0  0
   58.9126   79.4250   78.7416 C   0  0  0  0  0  0  0  0  0  0  0  0
   58.5181   78.9777   77.5473 N   0  0  0  0  0  0  0  0  0  0  0  0
   59.1815   78.0140   76.8794 C   0  0  0  0  0  0  0  0  0  0  0  0
   60.2986   77.5157   77.4566 N   0  0  0  0  0  0  0  0  0  0  0  0
   58.7218   77.5581   75.6848 N   0  0  0  0  0  0  0  0  0  0  0  0
   58.8869   76.6005   75.5266 H   0  0  0  0  0  0  0  0  0  0  0  0
   56.4957   79.4699   72.6205 C   0  0  0  0  0  0  0  0  0  0  0  0
   58.0702   78.1927   74.6625 C   0  0  0  0  0  0  0  0  0  0  0  0
   58.6821   78.9676   73.6555 C   0  0  0  0  0  0  0  0  0  0  0  0
   57.9028   79.5977   72.6649 C   0  0  0  0  0  0  0  0  0  0  0  0
   55.8884   78.6943   73.6378 C   0  0  0  0  0  0  0  0  0  0  0  0
   56.6656   78.0612   74.6373 C   0  0  0  0  0  0  0  0  0  0  0  0
   55.8747   81.8513   69.7524 C   0  0  0  0  0  0  0  0  0  0  0  0
   53.7049   82.3163   68.6356 C   0  0  0  0  0  0  0  0  0  0  0  0
   54.4913   80.6654   72.0415 C   0  0  0  0  0  0  0  0  0  0  0  0
   55.7746   80.1208   71.6260 N   0  0  0  0  0  0  0  0  0  0  0  0
   56.6046   80.9265   70.7473 C   0  0  0  0  0  0  0  0  0  0  0  0
   54.4206   81.5433   69.6756 N   0  0  0  0  0  0  0  0  0  0  0  0
   53.7043   81.4663   70.9747 C   0  0  0  0  0  0  0  0  0  0  0  0
   61.9344   77.3895   79.1837 N   0  0  0  0  0  0  0  0  0  0  0  0
   61.8596   77.0112   80.0895 H   0  0  0  0  0  0  0  0  0  0  0  0
   63.4232   76.5912   77.4087 C   0  0  0  0  0  0  0  0  0  0  0  0
   63.1721   77.3009   78.5887 C   0  0  0  0  0  0  0  0  0  0  0  0
   64.7000   76.5455   76.8409 C   0  0  0  0  0  0  0  0  0  0  0  0
   65.7669   77.2338   77.4602 C   0  0  0  0  0  0  0  0  0  0  0  0
   65.5392   77.9721   78.6347 C   0  0  0  0  0  0  0  0  0  0  0  0
   64.2548   77.9998   79.1897 C   0  0  0  0  0  0  0  0  0  0  0  0
   64.9832   75.8629   75.7082 N   0  0  0  0  0  0  0  0  0  0  0  0
   64.9889   76.3777   74.8690 H   0  0  0  0  0  0  0  0  0  0  0  0
   65.3299   74.2049   75.5920 S   0  0  0  0  0  0  0  0  0  0  0  0
   64.8152   73.4163   76.8683 O   0  0  0  0  0  0  0  0  0  0  0  0
   66.8839   74.0994   75.3255 O   0  0  0  0  0  0  0  0  0  0  0  0
   64.5067   73.6393   74.0623 C   0  0  0  0  0  0  0  0  0  0  0  0
   64.7993   72.1135   73.9133 C   0  0  0  0  0  0  0  0  0  0  0  0
   62.9803   73.9371   74.1859 C   0  0  0  0  0  0  0  0  0  0  0  0
   65.1985   74.5015   72.9753 C   0  0  0  0  0  0  0  0  0  0  0  0
 10 13  2  0  0  0
 10 19  1  0  0  0
 10 14  1  0  0  0
 16 20  1  0  0  0
 16 21  1  0  0  0
 17 21  1  0  0  0
 18 19  1  0  0  0
 18 22  1  0  0  0
  1  3  2  0  0  0
  1  7  1  0  0  0
  1 23  1  0  0  0
 25 26  2  0  0  0
 25 27  1  0  0  0
 36 33  1  0  0  0
 36 37  1  0  0  0
 36 38  1  0  0  0
 36 39  1  0  0  0
  2  3  1  0  0  0
  3  4  1  0  0  0
  4  5  2  0  0  0
  5  6  1  0  0  0
  6  8  1  0  0  0
  6  7  2  0  0  0
  8 11  1  0  0  0
 11 12  2  0  0  0
 11 15  1  0  0  0
 12 13  1  0  0  0
 19 20  1  0  0  0
 21 22  1  0  0  0
 14 15  2  0  0  0
 23 26  1  0  0  0
 26 30  1  0  0  0
 27 31  1  0  0  0
 27 28  2  0  0  0
 31 33  1  0  0  0
 33 34  2  0  0  0
 33 35  2  0  0  0
 28 29  1  0  0  0
 29 30  2  0  0  0
  8  9  1  0  0  0
 23 24  1  0  0  0
 31 32  1  0  0  0
M  END
> <minimizedAffinity>
-8.35353

$$$$
5F5Z_5VY_A_201


 39 42  0  0  0  0  0  0  0  0999 V2000
   62.9934   78.1935   78.7895 C   0  0  0  0  0  0  0  0  0  0  0  0
   65.3646   77.3027   78.3827 C   0  0  0  0  0  0  0  0  0  0  0  0
   63.9041   77.3840   78.0756 C   0  0  0  0  0  0  0  0  0  0  0  0
   63.3740   76.6120   77.0268 C   0  0  0  0  0  0  0  0  0  0  0  0
   62.0716   76.6324   76.7347 N   0  0  0  0  0  0  0  0  0  0  0  0
   61.1936   77.4134   77.3935 C   0  0  0  0  0  0  0  0  0  0  0  0
   61.6765   78.1786   78.3988 N   0  0  0  0  0  0  0  0  0  0  0  0
   59.8828   77.4349   77.0362 N   0  0  0  0  0  0  0  0  0  0  0  0
   59.2923   76.9209   77.6331 H   0  0  0  0  0  0  0  0  0  0  0  0
   57.7141   79.3931   73.9602 C   0  0  0  0  0  0  0  0  0  0  0  0
   59.2373   78.0436   75.9945 C   0  0  0  0  0  0  0  0  0  0  0  0
   59.7489   78.1967   74.6892 C   0  0  0  0  0  0  0  0  0  0  0  0
   59.0005   78.8675   73.7016 C   0  0  0  0  0  0  0  0  0  0  0  0
   57.2093   79.2397   75.2743 C   0  0  0  0  0  0  0  0  0  0  0  0
   57.9576   78.5694   76.2716 C   0  0  0  0  0  0  0  0  0  0  0  0
   54.7237   80.5526   71.9611 C   0  0  0  0  0  0  0  0  0  0  0  0
   54.7500   81.8816   69.8623 C   0  0  0  0  0  0  0  0  0  0  0  0
   57.5437   79.8580   71.6070 C   0  0  0  0  0  0  0  0  0  0  0  0
   57.0229   80.0542   72.9511 N   0  0  0  0  0  0  0  0  0  0  0  0
   55.5819   80.0353   73.1332 C   0  0  0  0  0  0  0  0  0  0  0  0
   55.5483   81.2524   70.9386 N   0  0  0  0  0  0  0  0  0  0  0  0
   56.7446   80.5163   70.4552 C   0  0  0  0  0  0  0  0  0  0  0  0
   63.4068   78.9944   79.8184 N   0  0  0  0  0  0  0  0  0  0  0  0
   63.5412   79.9453   79.6019 H   0  0  0  0  0  0  0  0  0  0  0  0
   64.8952   78.7849   81.7538 C   0  0  0  0  0  0  0  0  0  0  0  0
   63.6568   78.6269   81.1209 C   0  0  0  0  0  0  0  0  0  0  0  0
   65.0894   78.4048   83.0851 C   0  0  0  0  0  0  0  0  0  0  0  0
   64.0160   77.8543   83.8200 C   0  0  0  0  0  0  0  0  0  0  0  0
   62.7553   77.7036   83.2163 C   0  0  0  0  0  0  0  0  0  0  0  0
   62.5840   78.0849   81.8807 C   0  0  0  0  0  0  0  0  0  0  0  0
   66.2730   78.5328   83.7271 N   0  0  0  0  0  0  0  0  0  0  0  0
   66.8711   77.7509   83.7161 H   0  0  0  0  0  0  0  0  0  0  0  0
   66.8280   79.9102   84.5500 S   0  0  0  0  0  0  0  0  0  0  0  0
   67.3022   79.5525   86.0207 O   0  0  0  0  0  0  0  0  0  0  0  0
   65.6600   80.9714   84.4662 O   0  0  0  0  0  0  0  0  0  0  0  0
   68.1951   80.5696   83.5333 C   0  0  0  0  0  0  0  0  0  0  0  0
   67.5555   81.3175   82.3221 C   0  0  0  0  0  0  0  0  0  0  0  0
   69.0569   81.5181   84.4232 C   0  0  0  0  0  0  0  0  0  0  0  0
   68.9538   79.2815   83.1226 C   0  0  0  0  0  0  0  0  0  0  0  0
 10 13  2  0  0  0
 10 19  1  0  0  0
 10 14  1  0  0  0
 16 20  1  0  0  0
 16 21  1  0  0  0
 17 21  1  0  0  0
 18 19  1  0  0  0
 18 22  1  0  0  0
  1  3  2  0  0  0
  1  7  1  0  0  0
  1 23  1  0  0  0
 25 26  2  0  0  0
 25 27  1  0  0  0
 36 33  1  0  0  0
 36 37  1  0  0  0
 36 38  1  0  0  0
 36 39  1  0  0  0
  2  3  1  0  0  0
  3  4  1  0  0  0
  4  5  2  0  0  0
  5  6  1  0  0  0
  6  8  1  0  0  0
  6  7  2  0  0  0
  8 11  1  0  0  0
 11 12  2  0  0  0
 11 15  1  0  0  0
 12 13  1  0  0  0
 19 20  1  0  0  0
 21 22  1  0  0  0
 14 15  2  0  0  0
 23 26  1  0  0  0
 26 30  1  0  0  0
 27 31  1  0  0  0
 27 28  2  0  0  0
 31 33  1  0  0  0
 33 34  2  0  0  0
 33 35  2  0  0  0
 28 29  1  0  0  0
 29 30  2  0  0  0
  8  9  1  0  0  0
 23 24  1  0  0  0
 31 32  1  0  0  0
M  END
> <minimizedAffinity>
-8.34380

$$$$
5F5Z_5VY_A_201


 39 42  0  0  0  0  0  0  0  0999 V2000
   62.7784   78.1644   78.3029 C   0  0  0  0  0  0  0  0  0  0  0  0
   65.0557   77.0023   78.0905 C   0  0  0  0  0  0  0  0  0  0  0  0
   63.6102   77.1671   77.7480 C   0  0  0  0  0  0  0  0  0  0  0  0
   63.0120   76.2853   76.8307 C   0  0  0  0  0  0  0  0  0  0  0  0
   61.7181   76.3782   76.5158 N   0  0  0  0  0  0  0  0  0  0  0  0
   60.9163   77.3352   77.0216 C   0  0  0  0  0  0  0  0  0  0  0  0
   61.4670   78.2077   77.8964 N   0  0  0  0  0  0  0  0  0  0  0  0
   59.6143   77.4192   76.6421 N   0  0  0  0  0  0  0  0  0  0  0  0
   58.9849   76.9736   77.2542 H   0  0  0  0  0  0  0  0  0  0  0  0
   57.5666   79.1937   73.3774 C   0  0  0  0  0  0  0  0  0  0  0  0
   59.0220   78.0126   75.5607 C   0  0  0  0  0  0  0  0  0  0  0  0
   59.6784   78.8107   74.6010 C   0  0  0  0  0  0  0  0  0  0  0  0
   58.9565   79.3934   73.5405 C   0  0  0  0  0  0  0  0  0  0  0  0
   56.9138   78.3951   74.3477 C   0  0  0  0  0  0  0  0  0  0  0  0
   57.6331   77.8095   75.4171 C   0  0  0  0  0  0  0  0  0  0  0  0
   57.0509   80.4851   69.8633 C   0  0  0  0  0  0  0  0  0  0  0  0
   55.0909   81.7473   69.0047 C   0  0  0  0  0  0  0  0  0  0  0  0
   56.2787   81.0787   72.6222 C   0  0  0  0  0  0  0  0  0  0  0  0
   56.9019   79.8000   72.3175 N   0  0  0  0  0  0  0  0  0  0  0  0
   57.5980   79.6659   71.0496 C   0  0  0  0  0  0  0  0  0  0  0  0
   55.7132   81.0653   70.1619 N   0  0  0  0  0  0  0  0  0  0  0  0
   55.6017   81.8148   71.4396 C   0  0  0  0  0  0  0  0  0  0  0  0
   63.2632   79.0822   79.1938 N   0  0  0  0  0  0  0  0  0  0  0  0
   63.6483   79.9016   78.8072 H   0  0  0  0  0  0  0  0  0  0  0  0
   62.1219   78.9474   81.3581 C   0  0  0  0  0  0  0  0  0  0  0  0
   63.2757   78.9945   80.5672 C   0  0  0  0  0  0  0  0  0  0  0  0
   62.1939   78.8455   82.7506 C   0  0  0  0  0  0  0  0  0  0  0  0
   63.4549   78.7806   83.3837 C   0  0  0  0  0  0  0  0  0  0  0  0
   64.6303   78.8046   82.6128 C   0  0  0  0  0  0  0  0  0  0  0  0
   64.5359   78.9130   81.2208 C   0  0  0  0  0  0  0  0  0  0  0  0
   61.1022   78.8072   83.5481 N   0  0  0  0  0  0  0  0  0  0  0  0
   60.7496   79.6718   83.8602 H   0  0  0  0  0  0  0  0  0  0  0  0
   60.2806   77.4138   84.0637 S   0  0  0  0  0  0  0  0  0  0  0  0
   59.8474   77.5283   85.5852 O   0  0  0  0  0  0  0  0  0  0  0  0
   61.2313   76.1960   83.7315 O   0  0  0  0  0  0  0  0  0  0  0  0
   58.8384   77.2575   82.9533 C   0  0  0  0  0  0  0  0  0  0  0  0
   57.6995   76.5642   83.7645 C   0  0  0  0  0  0  0  0  0  0  0  0
   58.4328   78.6844   82.4698 C   0  0  0  0  0  0  0  0  0  0  0  0
   59.3960   76.3737   81.8081 C   0  0  0  0  0  0  0  0  0  0  0  0
 10 13  2  0  0  0
 10 19  1  0  0  0
 10 14  1  0  0  0
 16 20  1  0  0  0
 16 21  1  0  0  0
 17 21  1  0  0  0
 18 19  1  0  0  0
 18 22  1  0  0  0
  1  3  2  0  0  0
  1  7  1  0  0  0
  1 23  1  0  0  0
 25 26  2  0  0  0
 25 27  1  0  0  0
 36 33  1  0  0  0
 36 37  1  0  0  0
 36 38  1  0  0  0
 36 39  1  0  0  0
  2  3  1  0  0  0
  3  4  1  0  0  0
  4  5  2  0  0  0
  5  6  1  0  0  0
  6  8  1  0  0  0
  6  7  2  0  0  0
  8 11  1  0  0  0
 11 12  2  0  0  0
 11 15  1  0  0  0
 12 13  1  0  0  0
 19 20  1  0  0  0
 21 22  1  0  0  0
 14 15  2  0  0  0
 23 26  1  0  0  0
 26 30  1  0  0  0
 27 31  1  0  0  0
 27 28  2  0  0  0
 31 33  1  0  0  0
 33 34  2  0  0  0
 33 35  2  0  0  0
 28 29  1  0  0  0
 29 30  2  0  0  0
  8  9  1  0  0  0
 23 24  1  0  0  0
 31 32  1  0  0  0
M  END
> <minimizedAffinity>
-8.32324

$$$$
5F5Z_5VY_A_201


 39 42  0  0  0  0  0  0  0  0999 V2000
   62.1899   78.5692   79.3173 C   0  0  0  0  0  0  0  0  0  0  0  0
   64.5903   79.1588   80.0047 C   0  0  0  0  0  0  0  0  0  0  0  0
   63.5692   78.6672   79.0302 C   0  0  0  0  0  0  0  0  0  0  0  0
   63.9770   78.2606   77.7474 C   0  0  0  0  0  0  0  0  0  0  0  0
   63.1038   77.7895   76.8544 N   0  0  0  0  0  0  0  0  0  0  0  0
   61.7829   77.7077   77.1062 C   0  0  0  0  0  0  0  0  0  0  0  0
   61.3583   78.1053   78.3273 N   0  0  0  0  0  0  0  0  0  0  0  0
   60.9231   77.2609   76.1536 N   0  0  0  0  0  0  0  0  0  0  0  0
   61.0787   76.3304   75.8725 H   0  0  0  0  0  0  0  0  0  0  0  0
   57.5534   79.1190   74.3668 C   0  0  0  0  0  0  0  0  0  0  0  0
   59.8795   77.8740   75.5153 C   0  0  0  0  0  0  0  0  0  0  0  0
   59.9628   78.5773   74.2958 C   0  0  0  0  0  0  0  0  0  0  0  0
   58.8209   79.1925   73.7452 C   0  0  0  0  0  0  0  0  0  0  0  0
   57.4788   78.4152   75.5933 C   0  0  0  0  0  0  0  0  0  0  0  0
   58.6231   77.7976   76.1529 C   0  0  0  0  0  0  0  0  0  0  0  0
   53.9257   79.7199   73.4942 C   0  0  0  0  0  0  0  0  0  0  0  0
   53.0208   81.4615   71.9711 C   0  0  0  0  0  0  0  0  0  0  0  0
   56.6049   80.0695   72.3719 C   0  0  0  0  0  0  0  0  0  0  0  0
   56.4614   79.7523   73.7844 N   0  0  0  0  0  0  0  0  0  0  0  0
   55.1841   79.2312   74.2395 C   0  0  0  0  0  0  0  0  0  0  0  0
   54.2236   80.8749   72.6040 N   0  0  0  0  0  0  0  0  0  0  0  0
   55.3725   80.7011   71.6785 C   0  0  0  0  0  0  0  0  0  0  0  0
   61.6855   78.9519   80.5298 N   0  0  0  0  0  0  0  0  0  0  0  0
   61.4744   79.9082   80.6302 H   0  0  0  0  0  0  0  0  0  0  0  0
   61.9988   78.3725   82.8900 C   0  0  0  0  0  0  0  0  0  0  0  0
   61.4384   78.1570   81.6256 C   0  0  0  0  0  0  0  0  0  0  0  0
   61.7022   77.5390   83.9726 C   0  0  0  0  0  0  0  0  0  0  0  0
   60.8121   76.4560   83.7995 C   0  0  0  0  0  0  0  0  0  0  0  0
   60.2180   76.2283   82.5458 C   0  0  0  0  0  0  0  0  0  0  0  0
   60.5331   77.0710   81.4739 C   0  0  0  0  0  0  0  0  0  0  0  0
   62.2314   77.7095   85.2057 N   0  0  0  0  0  0  0  0  0  0  0  0
   61.5967   77.8281   85.9489 H   0  0  0  0  0  0  0  0  0  0  0  0
   63.8832   77.7389   85.5970 S   0  0  0  0  0  0  0  0  0  0  0  0
   64.7643   77.1241   84.4302 O   0  0  0  0  0  0  0  0  0  0  0  0
   64.0169   77.0054   86.9903 O   0  0  0  0  0  0  0  0  0  0  0  0
   64.2825   79.4956   85.9008 C   0  0  0  0  0  0  0  0  0  0  0  0
   64.8418   80.0830   84.5674 C   0  0  0  0  0  0  0  0  0  0  0  0
   62.9824   80.2225   86.3652 C   0  0  0  0  0  0  0  0  0  0  0  0
   65.3497   79.4040   87.0215 C   0  0  0  0  0  0  0  0  0  0  0  0
 10 13  2  0  0  0
 10 19  1  0  0  0
 10 14  1  0  0  0
 16 20  1  0  0  0
 16 21  1  0  0  0
 17 21  1  0  0  0
 18 19  1  0  0  0
 18 22  1  0  0  0
  1  3  2  0  0  0
  1  7  1  0  0  0
  1 23  1  0  0  0
 25 26  2  0  0  0
 25 27  1  0  0  0
 36 33  1  0  0  0
 36 37  1  0  0  0
 36 38  1  0  0  0
 36 39  1  0  0  0
  2  3  1  0  0  0
  3  4  1  0  0  0
  4  5  2  0  0  0
  5  6  1  0  0  0
  6  8  1  0  0  0
  6  7  2  0  0  0
  8 11  1  0  0  0
 11 12  2  0  0  0
 11 15  1  0  0  0
 12 13  1  0  0  0
 19 20  1  0  0  0
 21 22  1  0  0  0
 14 15  2  0  0  0
 23 26  1  0  0  0
 26 30  1  0  0  0
 27 31  1  0  0  0
 27 28  2  0  0  0
 31 33  1  0  0  0
 33 34  2  0  0  0
 33 35  2  0  0  0
 28 29  1  0  0  0
 29 30  2  0  0  0
  8  9  1  0  0  0
 23 24  1  0  0  0
 31 32  1  0  0  0
M  END
> <minimizedAffinity>
-8.28057

$$$$
