1DAR_GDP_A_692


 36 38  0  0  0  0  0  0  0  0999 V2000
   35.8993   26.6822  -18.6915 C   0  0  0  0  0  0  0  0  0  0  0  0
   34.7337   26.6548  -17.8037 O   0  0  0  0  0  0  0  0  0  0  0  0
   35.5144   25.6156  -19.7238 C   0  0  0  0  0  0  0  0  0  0  0  0
   36.1246   24.3786  -19.3892 O   0  0  0  0  0  0  0  0  0  0  0  0
   34.0450   25.3587  -19.6271 C   0  0  0  0  0  0  0  0  0  0  0  0
   33.9202   24.0335  -20.2356 O   0  0  0  0  0  0  0  0  0  0  0  0
   33.8208   25.5241  -18.0736 C   0  0  0  0  0  0  0  0  0  0  0  0
   35.8285   24.0997  -18.5086 H   0  0  0  0  0  0  0  0  0  0  0  0
   34.5636   23.4304  -19.8316 H   0  0  0  0  0  0  0  0  0  0  0  0
   32.3987   25.9114  -17.7365 N   0  0  0  0  0  0  0  0  0  0  0  0
   31.5537   26.8485  -18.2779 C   0  0  0  0  0  0  0  0  0  0  0  0
   30.3422   26.8439  -17.8295 N   0  0  0  0  0  0  0  0  0  0  0  0
   30.4301   25.8097  -16.9135 C   0  0  0  0  0  0  0  0  0  0  0  0
   29.4504   25.3015  -16.0647 C   0  0  0  0  0  0  0  0  0  0  0  0
   28.2515   25.5830  -15.9914 O   0  0  0  0  0  0  0  0  0  0  0  0
   29.9549   24.3338  -15.2909 N   0  0  0  0  0  0  0  0  0  0  0  0
   31.2200   23.8907  -15.3027 C   0  0  0  0  0  0  0  0  0  0  0  0
   31.5205   22.9748  -14.3871 N   0  0  0  0  0  0  0  0  0  0  0  0
   32.1495   24.3317  -16.0965 N   0  0  0  0  0  0  0  0  0  0  0  0
   31.6693   25.2784  -16.8605 C   0  0  0  0  0  0  0  0  0  0  0  0
   29.3389   23.9068  -14.6525 H   0  0  0  0  0  0  0  0  0  0  0  0
   30.8217   22.6358  -13.7821 H   0  0  0  0  0  0  0  0  0  0  0  0
   32.4418   22.6355  -14.3142 H   0  0  0  0  0  0  0  0  0  0  0  0
   36.0725   28.1188  -19.2340 C   0  0  0  0  0  0  0  0  0  0  0  0
   34.9021   28.6578  -19.8279 O   0  0  0  0  0  0  0  0  0  0  0  0
   35.0106   29.5330  -21.0725 P   0  0  0  0  0  0  0  0  0  0  0  0
   36.3759   29.2763  -21.5583 O   0  0  0  0  0  0  0  0  0  0  0  0
   34.0492   29.1605  -22.2990 O   0  0  0  0  0  0  0  0  0  0  0  0
   34.2033   29.7791  -23.0301 H   0  0  0  0  0  0  0  0  0  0  0  0
   34.7816   31.0457  -20.8760 O   0  0  0  0  0  0  0  0  0  0  0  0
   35.8577   31.9901  -20.3782 P   0  0  0  0  0  0  0  0  0  0  0  0
   35.8460   32.8805  -21.4860 O   0  0  0  0  0  0  0  0  0  0  0  0
   37.4418   31.9716  -20.1384 O   0  0  0  0  0  0  0  0  0  0  0  0
   35.4038   32.7918  -19.0049 O   0  0  0  0  0  0  0  0  0  0  0  0
   37.7266   32.8321  -19.7930 H   0  0  0  0  0  0  0  0  0  0  0  0
   36.1200   33.3824  -18.7236 H   0  0  0  0  0  0  0  0  0  0  0  0
 31 32  2  0  0  0
 31 33  1  0  0  0
 31 34  1  0  0  0
 31 30  1  0  0  0
 30 26  1  0  0  0
 26 27  2  0  0  0
 26 28  1  0  0  0
 26 25  1  0  0  0
 25 24  1  0  0  0
 24  1  1  0  0  0
  1  2  1  0  0  0
  1  3  1  0  0  0
  2  7  1  0  0  0
  3  4  1  0  0  0
  3  5  1  0  0  0
  5  6  1  0  0  0
  5  7  1  0  0  0
  7 10  1  0  0  0
 10 11  1  0  0  0
 10 20  1  0  0  0
 11 12  2  0  0  0
 12 13  1  0  0  0
 13 14  1  0  0  0
 13 20  2  0  0  0
 14 15  2  0  0  0
 14 16  1  0  0  0
 16 17  1  0  0  0
 17 18  1  0  0  0
 17 19  2  0  0  0
 19 20  1  0  0  0
 33 35  1  0  0  0
 34 36  1  0  0  0
 28 29  1  0  0  0
  4  8  1  0  0  0
  6  9  1  0  0  0
 16 21  1  0  0  0
 18 22  1  0  0  0
 18 23  1  0  0  0
M  END
> <minimizedAffinity>
-8.98070

$$$$
1DAR_GDP_A_692


 36 38  0  0  0  0  0  0  0  0999 V2000
   35.5270   25.0822  -19.7882 C   0  0  0  0  0  0  0  0  0  0  0  0
   34.5680   25.8638  -19.0029 O   0  0  0  0  0  0  0  0  0  0  0  0
   35.2487   23.6642  -19.2754 C   0  0  0  0  0  0  0  0  0  0  0  0
   36.1900   23.3219  -18.2697 O   0  0  0  0  0  0  0  0  0  0  0  0
   33.9240   23.6529  -18.5828 C   0  0  0  0  0  0  0  0  0  0  0  0
   34.0280   22.4667  -17.7319 O   0  0  0  0  0  0  0  0  0  0  0  0
   33.9278   25.0860  -17.9214 C   0  0  0  0  0  0  0  0  0  0  0  0
   36.1218   23.9519  -17.5352 H   0  0  0  0  0  0  0  0  0  0  0  0
   34.8573   22.5005  -17.2300 H   0  0  0  0  0  0  0  0  0  0  0  0
   32.5306   25.6036  -17.6646 N   0  0  0  0  0  0  0  0  0  0  0  0
   31.7837   26.5691  -18.2933 C   0  0  0  0  0  0  0  0  0  0  0  0
   30.5607   26.6873  -17.8941 N   0  0  0  0  0  0  0  0  0  0  0  0
   30.5326   25.7076  -16.9163 C   0  0  0  0  0  0  0  0  0  0  0  0
   29.4858   25.3311  -16.0791 C   0  0  0  0  0  0  0  0  0  0  0  0
   28.3117   25.7098  -16.0703 O   0  0  0  0  0  0  0  0  0  0  0  0
   29.8830   24.3762  -15.2304 N   0  0  0  0  0  0  0  0  0  0  0  0
   31.1077   23.8353  -15.1658 C   0  0  0  0  0  0  0  0  0  0  0  0
   31.3010   22.9566  -14.1869 N   0  0  0  0  0  0  0  0  0  0  0  0
   32.0972   24.1522  -15.9462 N   0  0  0  0  0  0  0  0  0  0  0  0
   31.7222   25.0849  -16.7829 C   0  0  0  0  0  0  0  0  0  0  0  0
   29.2125   24.0390  -14.5933 H   0  0  0  0  0  0  0  0  0  0  0  0
   30.5563   22.7114  -13.5915 H   0  0  0  0  0  0  0  0  0  0  0  0
   32.1887   22.5512  -14.0575 H   0  0  0  0  0  0  0  0  0  0  0  0
   35.2507   25.3263  -21.2890 C   0  0  0  0  0  0  0  0  0  0  0  0
   34.6208   26.5669  -21.5668 O   0  0  0  0  0  0  0  0  0  0  0  0
   35.1894   27.4889  -22.6407 P   0  0  0  0  0  0  0  0  0  0  0  0
   36.3055   26.7143  -23.2065 O   0  0  0  0  0  0  0  0  0  0  0  0
   34.2333   27.8205  -23.8830 O   0  0  0  0  0  0  0  0  0  0  0  0
   34.6956   28.4109  -24.4982 H   0  0  0  0  0  0  0  0  0  0  0  0
   35.6754   28.8765  -22.1740 O   0  0  0  0  0  0  0  0  0  0  0  0
   35.0357   29.6384  -21.0303 P   0  0  0  0  0  0  0  0  0  0  0  0
   33.7253   29.7188  -21.5748 O   0  0  0  0  0  0  0  0  0  0  0  0
   35.0931   31.1097  -20.3987 O   0  0  0  0  0  0  0  0  0  0  0  0
   35.0113   28.7623  -19.6279 O   0  0  0  0  0  0  0  0  0  0  0  0
   34.4907   31.1596  -19.6401 H   0  0  0  0  0  0  0  0  0  0  0  0
   34.5949   29.2868  -18.9262 H   0  0  0  0  0  0  0  0  0  0  0  0
 31 32  2  0  0  0
 31 33  1  0  0  0
 31 34  1  0  0  0
 31 30  1  0  0  0
 30 26  1  0  0  0
 26 27  2  0  0  0
 26 28  1  0  0  0
 26 25  1  0  0  0
 25 24  1  0  0  0
 24  1  1  0  0  0
  1  2  1  0  0  0
  1  3  1  0  0  0
  2  7  1  0  0  0
  3  4  1  0  0  0
  3  5  1  0  0  0
  5  6  1  0  0  0
  5  7  1  0  0  0
  7 10  1  0  0  0
 10 11  1  0  0  0
 10 20  1  0  0  0
 11 12  2  0  0  0
 12 13  1  0  0  0
 13 14  1  0  0  0
 13 20  2  0  0  0
 14 15  2  0  0  0
 14 16  1  0  0  0
 16 17  1  0  0  0
 17 18  1  0  0  0
 17 19  2  0  0  0
 19 20  1  0  0  0
 33 35  1  0  0  0
 34 36  1  0  0  0
 28 29  1  0  0  0
  4  8  1  0  0  0
  6  9  1  0  0  0
 16 21  1  0  0  0
 18 22  1  0  0  0
 18 23  1  0  0  0
M  END
> <minimizedAffinity>
-8.24915

$$$$
1DAR_GDP_A_692


 36 38  0  0  0  0  0  0  0  0999 V2000
   35.7445   26.6227  -18.6969 C   0  0  0  0  0  0  0  0  0  0  0  0
   34.5949   26.5486  -17.7912 O   0  0  0  0  0  0  0  0  0  0  0  0
   35.3454   25.6039  -19.7711 C   0  0  0  0  0  0  0  0  0  0  0  0
   35.9659   24.3553  -19.5055 O   0  0  0  0  0  0  0  0  0  0  0  0
   33.8789   25.3361  -19.6611 C   0  0  0  0  0  0  0  0  0  0  0  0
   33.7483   24.0403  -20.3287 O   0  0  0  0  0  0  0  0  0  0  0  0
   33.6815   25.4278  -18.0978 C   0  0  0  0  0  0  0  0  0  0  0  0
   35.6864   24.0342  -18.6339 H   0  0  0  0  0  0  0  0  0  0  0  0
   34.4008   23.4218  -19.9647 H   0  0  0  0  0  0  0  0  0  0  0  0
   32.2641   25.7925  -17.7183 N   0  0  0  0  0  0  0  0  0  0  0  0
   31.3815   26.7017  -18.2469 C   0  0  0  0  0  0  0  0  0  0  0  0
   30.1865   26.6812  -17.7562 N   0  0  0  0  0  0  0  0  0  0  0  0
   30.3279   25.6667  -16.8250 C   0  0  0  0  0  0  0  0  0  0  0  0
   29.3891   25.1551  -15.9331 C   0  0  0  0  0  0  0  0  0  0  0  0
   28.1878   25.4136  -15.8230 O   0  0  0  0  0  0  0  0  0  0  0  0
   29.9402   24.2129  -15.1597 N   0  0  0  0  0  0  0  0  0  0  0  0
   31.2131   23.7953  -15.2077 C   0  0  0  0  0  0  0  0  0  0  0  0
   31.5643   22.9034  -14.2865 N   0  0  0  0  0  0  0  0  0  0  0  0
   32.1051   24.2398  -16.0416 N   0  0  0  0  0  0  0  0  0  0  0  0
   31.5790   25.1617  -16.8057 C   0  0  0  0  0  0  0  0  0  0  0  0
   29.3558   23.7858  -14.4923 H   0  0  0  0  0  0  0  0  0  0  0  0
   30.8942   22.5620  -13.6512 H   0  0  0  0  0  0  0  0  0  0  0  0
   32.4945   22.5844  -14.2397 H   0  0  0  0  0  0  0  0  0  0  0  0
   35.9030   28.0839  -19.1744 C   0  0  0  0  0  0  0  0  0  0  0  0
   34.7558   28.6074  -19.8248 O   0  0  0  0  0  0  0  0  0  0  0  0
   34.9139   29.6084  -20.9648 P   0  0  0  0  0  0  0  0  0  0  0  0
   33.5978   29.5938  -21.6234 O   0  0  0  0  0  0  0  0  0  0  0  0
   35.1616   31.1362  -20.5505 O   0  0  0  0  0  0  0  0  0  0  0  0
   35.2467   31.6784  -21.3503 H   0  0  0  0  0  0  0  0  0  0  0  0
   36.0335   29.3215  -21.9865 O   0  0  0  0  0  0  0  0  0  0  0  0
   35.8870   28.3262  -23.1203 P   0  0  0  0  0  0  0  0  0  0  0  0
   37.1803   27.7451  -23.0215 O   0  0  0  0  0  0  0  0  0  0  0  0
   35.7860   28.3474  -24.7192 O   0  0  0  0  0  0  0  0  0  0  0  0
   34.7306   27.1856  -22.8094 O   0  0  0  0  0  0  0  0  0  0  0  0
   35.6975   27.4397  -25.0497 H   0  0  0  0  0  0  0  0  0  0  0  0
   34.6715   26.5724  -23.5587 H   0  0  0  0  0  0  0  0  0  0  0  0
 31 32  2  0  0  0
 31 33  1  0  0  0
 31 34  1  0  0  0
 31 30  1  0  0  0
 30 26  1  0  0  0
 26 27  2  0  0  0
 26 28  1  0  0  0
 26 25  1  0  0  0
 25 24  1  0  0  0
 24  1  1  0  0  0
  1  2  1  0  0  0
  1  3  1  0  0  0
  2  7  1  0  0  0
  3  4  1  0  0  0
  3  5  1  0  0  0
  5  6  1  0  0  0
  5  7  1  0  0  0
  7 10  1  0  0  0
 10 11  1  0  0  0
 10 20  1  0  0  0
 11 12  2  0  0  0
 12 13  1  0  0  0
 13 14  1  0  0  0
 13 20  2  0  0  0
 14 15  2  0  0  0
 14 16  1  0  0  0
 16 17  1  0  0  0
 17 18  1  0  0  0
 17 19  2  0  0  0
 19 20  1  0  0  0
 33 35  1  0  0  0
 34 36  1  0  0  0
 28 29  1  0  0  0
  4  8  1  0  0  0
  6  9  1  0  0  0
 16 21  1  0  0  0
 18 22  1  0  0  0
 18 23  1  0  0  0
M  END
> <minimizedAffinity>
-8.22666

$$$$
1DAR_GDP_A_692


 36 38  0  0  0  0  0  0  0  0999 V2000
   37.2690   27.5508  -21.6207 C   0  0  0  0  0  0  0  0  0  0  0  0
   36.6670   28.8784  -21.7706 O   0  0  0  0  0  0  0  0  0  0  0  0
   38.6079   27.9020  -20.9610 C   0  0  0  0  0  0  0  0  0  0  0  0
   39.6281   27.9671  -21.9457 O   0  0  0  0  0  0  0  0  0  0  0  0
   38.5225   29.2863  -20.4031 C   0  0  0  0  0  0  0  0  0  0  0  0
   39.9317   29.6671  -20.2987 O   0  0  0  0  0  0  0  0  0  0  0  0
   37.6082   29.9818  -21.4855 C   0  0  0  0  0  0  0  0  0  0  0  0
   39.4017   28.6450  -22.6015 H   0  0  0  0  0  0  0  0  0  0  0  0
   40.3774   29.4918  -21.1422 H   0  0  0  0  0  0  0  0  0  0  0  0
   36.8614   31.1720  -20.9274 N   0  0  0  0  0  0  0  0  0  0  0  0
   35.6683   31.2692  -20.2549 C   0  0  0  0  0  0  0  0  0  0  0  0
   35.3669   32.4418  -19.8041 N   0  0  0  0  0  0  0  0  0  0  0  0
   36.4712   33.1555  -20.2372 C   0  0  0  0  0  0  0  0  0  0  0  0
   36.7578   34.5095  -20.0849 C   0  0  0  0  0  0  0  0  0  0  0  0
   36.1492   35.3748  -19.4502 O   0  0  0  0  0  0  0  0  0  0  0  0
   37.9052   34.8191  -20.6993 N   0  0  0  0  0  0  0  0  0  0  0  0
   38.6932   33.9719  -21.3762 C   0  0  0  0  0  0  0  0  0  0  0  0
   39.7467   34.5167  -21.9769 N   0  0  0  0  0  0  0  0  0  0  0  0
   38.4617   32.7011  -21.5178 N   0  0  0  0  0  0  0  0  0  0  0  0
   37.3423   32.3839  -20.9202 C   0  0  0  0  0  0  0  0  0  0  0  0
   38.1984   35.7575  -20.6496 H   0  0  0  0  0  0  0  0  0  0  0  0
   39.9288   35.4788  -21.8744 H   0  0  0  0  0  0  0  0  0  0  0  0
   40.3448   33.9581  -22.5241 H   0  0  0  0  0  0  0  0  0  0  0  0
   36.3140   26.6673  -20.7868 C   0  0  0  0  0  0  0  0  0  0  0  0
   35.2800   27.3882  -20.1355 O   0  0  0  0  0  0  0  0  0  0  0  0
   34.7870   26.9440  -18.7620 P   0  0  0  0  0  0  0  0  0  0  0  0
   34.8864   25.4766  -18.8164 O   0  0  0  0  0  0  0  0  0  0  0  0
   35.6768   27.3809  -17.5032 O   0  0  0  0  0  0  0  0  0  0  0  0
   35.2708   27.0460  -16.6884 H   0  0  0  0  0  0  0  0  0  0  0  0
   33.3596   27.3754  -18.3670 O   0  0  0  0  0  0  0  0  0  0  0  0
   32.1996   26.4056  -18.2594 P   0  0  0  0  0  0  0  0  0  0  0  0
   31.1544   27.3687  -18.2731 O   0  0  0  0  0  0  0  0  0  0  0  0
   31.5664   25.4216  -17.1649 O   0  0  0  0  0  0  0  0  0  0  0  0
   32.0781   25.4221  -19.5833 O   0  0  0  0  0  0  0  0  0  0  0  0
   30.7937   24.9727  -17.5422 H   0  0  0  0  0  0  0  0  0  0  0  0
   31.3254   24.8206  -19.4714 H   0  0  0  0  0  0  0  0  0  0  0  0
 31 32  2  0  0  0
 31 33  1  0  0  0
 31 34  1  0  0  0
 31 30  1  0  0  0
 30 26  1  0  0  0
 26 27  2  0  0  0
 26 28  1  0  0  0
 26 25  1  0  0  0
 25 24  1  0  0  0
 24  1  1  0  0  0
  1  2  1  0  0  0
  1  3  1  0  0  0
  2  7  1  0  0  0
  3  4  1  0  0  0
  3  5  1  0  0  0
  5  6  1  0  0  0
  5  7  1  0  0  0
  7 10  1  0  0  0
 10 11  1  0  0  0
 10 20  1  0  0  0
 11 12  2  0  0  0
 12 13  1  0  0  0
 13 14  1  0  0  0
 13 20  2  0  0  0
 14 15  2  0  0  0
 14 16  1  0  0  0
 16 17  1  0  0  0
 17 18  1  0  0  0
 17 19  2  0  0  0
 19 20  1  0  0  0
 33 35  1  0  0  0
 34 36  1  0  0  0
 28 29  1  0  0  0
  4  8  1  0  0  0
  6  9  1  0  0  0
 16 21  1  0  0  0
 18 22  1  0  0  0
 18 23  1  0  0  0
M  END
> <minimizedAffinity>
-7.10784

$$$$
1DAR_GDP_A_692


 36 38  0  0  0  0  0  0  0  0999 V2000
   37.9403   29.3696  -20.2976 C   0  0  0  0  0  0  0  0  0  0  0  0
   36.9334   28.9110  -19.3368 O   0  0  0  0  0  0  0  0  0  0  0  0
   38.1167   28.1185  -21.1665 C   0  0  0  0  0  0  0  0  0  0  0  0
   39.2482   27.3825  -20.7278 O   0  0  0  0  0  0  0  0  0  0  0  0
   36.9535   27.2069  -20.9414 C   0  0  0  0  0  0  0  0  0  0  0  0
   37.4829   25.9138  -21.3769 O   0  0  0  0  0  0  0  0  0  0  0  0
   36.6789   27.4567  -19.4073 C   0  0  0  0  0  0  0  0  0  0  0  0
   39.1242   27.1200  -19.8022 H   0  0  0  0  0  0  0  0  0  0  0  0
   38.3378   25.7533  -20.9477 H   0  0  0  0  0  0  0  0  0  0  0  0
   35.2467   27.1597  -19.0245 N   0  0  0  0  0  0  0  0  0  0  0  0
   34.0579   27.7112  -19.4341 C   0  0  0  0  0  0  0  0  0  0  0  0
   32.9870   27.1377  -18.9942 N   0  0  0  0  0  0  0  0  0  0  0  0
   33.5516   26.1314  -18.2294 C   0  0  0  0  0  0  0  0  0  0  0  0
   32.9244   25.1536  -17.4618 C   0  0  0  0  0  0  0  0  0  0  0  0
   31.7241   24.8895  -17.3541 O   0  0  0  0  0  0  0  0  0  0  0  0
   33.8305   24.4012  -16.8273 N   0  0  0  0  0  0  0  0  0  0  0  0
   35.1619   24.5406  -16.8963 C   0  0  0  0  0  0  0  0  0  0  0  0
   35.8694   23.7304  -16.1149 N   0  0  0  0  0  0  0  0  0  0  0  0
   35.7750   25.4299  -17.6188 N   0  0  0  0  0  0  0  0  0  0  0  0
   34.9002   26.1725  -18.2464 C   0  0  0  0  0  0  0  0  0  0  0  0
   33.4871   23.6769  -16.2559 H   0  0  0  0  0  0  0  0  0  0  0  0
   35.4122   23.0542  -15.5646 H   0  0  0  0  0  0  0  0  0  0  0  0
   36.8506   23.8068  -16.0866 H   0  0  0  0  0  0  0  0  0  0  0  0
   37.3986   30.6244  -21.0187 C   0  0  0  0  0  0  0  0  0  0  0  0
   37.2603   31.7596  -20.1789 O   0  0  0  0  0  0  0  0  0  0  0  0
   36.0134   32.6331  -20.2740 P   0  0  0  0  0  0  0  0  0  0  0  0
   35.0047   31.7341  -20.8574 O   0  0  0  0  0  0  0  0  0  0  0  0
   35.3809   33.1359  -18.8904 O   0  0  0  0  0  0  0  0  0  0  0  0
   34.5980   33.6792  -19.0714 H   0  0  0  0  0  0  0  0  0  0  0  0
   36.1357   33.9240  -21.1096 O   0  0  0  0  0  0  0  0  0  0  0  0
   37.2970   34.8895  -20.9798 P   0  0  0  0  0  0  0  0  0  0  0  0
   36.9319   35.4466  -19.7242 O   0  0  0  0  0  0  0  0  0  0  0  0
   37.8053   36.2422  -21.6718 O   0  0  0  0  0  0  0  0  0  0  0  0
   38.7500   34.1105  -20.8506 O   0  0  0  0  0  0  0  0  0  0  0  0
   38.6333   36.5274  -21.2547 H   0  0  0  0  0  0  0  0  0  0  0  0
   39.4616   34.7648  -20.7701 H   0  0  0  0  0  0  0  0  0  0  0  0
 31 32  2  0  0  0
 31 33  1  0  0  0
 31 34  1  0  0  0
 31 30  1  0  0  0
 30 26  1  0  0  0
 26 27  2  0  0  0
 26 28  1  0  0  0
 26 25  1  0  0  0
 25 24  1  0  0  0
 24  1  1  0  0  0
  1  2  1  0  0  0
  1  3  1  0  0  0
  2  7  1  0  0  0
  3  4  1  0  0  0
  3  5  1  0  0  0
  5  6  1  0  0  0
  5  7  1  0  0  0
  7 10  1  0  0  0
 10 11  1  0  0  0
 10 20  1  0  0  0
 11 12  2  0  0  0
 12 13  1  0  0  0
 13 14  1  0  0  0
 13 20  2  0  0  0
 14 15  2  0  0  0
 14 16  1  0  0  0
 16 17  1  0  0  0
 17 18  1  0  0  0
 17 19  2  0  0  0
 19 20  1  0  0  0
 33 35  1  0  0  0
 34 36  1  0  0  0
 28 29  1  0  0  0
  4  8  1  0  0  0
  6  9  1  0  0  0
 16 21  1  0  0  0
 18 22  1  0  0  0
 18 23  1  0  0  0
M  END
> <minimizedAffinity>
-7.00020

$$$$
1DAR_GDP_A_692


 36 38  0  0  0  0  0  0  0  0999 V2000
   36.2219   27.8331  -19.7237 C   0  0  0  0  0  0  0  0  0  0  0  0
   36.8349   29.1579  -19.8526 O   0  0  0  0  0  0  0  0  0  0  0  0
   35.0399   27.9546  -20.6929 C   0  0  0  0  0  0  0  0  0  0  0  0
   33.8601   28.2832  -19.9754 O   0  0  0  0  0  0  0  0  0  0  0  0
   35.2766   29.1197  -21.5989 C   0  0  0  0  0  0  0  0  0  0  0  0
   33.9251   29.4288  -22.0678 O   0  0  0  0  0  0  0  0  0  0  0  0
   36.0028   30.1147  -20.6120 C   0  0  0  0  0  0  0  0  0  0  0  0
   33.9877   29.1257  -19.5119 H   0  0  0  0  0  0  0  0  0  0  0  0
   33.3267   29.4968  -21.3074 H   0  0  0  0  0  0  0  0  0  0  0  0
   36.8822   31.1060  -21.3400 N   0  0  0  0  0  0  0  0  0  0  0  0
   37.7342   30.9608  -22.4068 C   0  0  0  0  0  0  0  0  0  0  0  0
   38.2537   32.0500  -22.8682 N   0  0  0  0  0  0  0  0  0  0  0  0
   37.6806   32.9712  -22.0083 C   0  0  0  0  0  0  0  0  0  0  0  0
   37.8487   34.3525  -21.9607 C   0  0  0  0  0  0  0  0  0  0  0  0
   38.4686   35.0952  -22.7263 O   0  0  0  0  0  0  0  0  0  0  0  0
   37.1585   34.8751  -20.9409 N   0  0  0  0  0  0  0  0  0  0  0  0
   36.4021   34.1956  -20.0673 C   0  0  0  0  0  0  0  0  0  0  0  0
   35.8711   34.9128  -19.0818 N   0  0  0  0  0  0  0  0  0  0  0  0
   36.2110   32.9107  -20.0991 N   0  0  0  0  0  0  0  0  0  0  0  0
   36.8797   32.3863  -21.0933 C   0  0  0  0  0  0  0  0  0  0  0  0
   37.2110   35.8508  -20.8205 H   0  0  0  0  0  0  0  0  0  0  0  0
   36.0114   35.8867  -19.0509 H   0  0  0  0  0  0  0  0  0  0  0  0
   35.3375   34.4699  -18.3830 H   0  0  0  0  0  0  0  0  0  0  0  0
   37.2801   26.7635  -20.0764 C   0  0  0  0  0  0  0  0  0  0  0  0
   37.9394   26.2084  -18.9493 O   0  0  0  0  0  0  0  0  0  0  0  0
   37.1254   25.6261  -17.7982 P   0  0  0  0  0  0  0  0  0  0  0  0
   38.1285   24.9133  -16.9908 O   0  0  0  0  0  0  0  0  0  0  0  0
   36.4451   26.6751  -16.7962 O   0  0  0  0  0  0  0  0  0  0  0  0
   35.9567   26.1957  -16.1088 H   0  0  0  0  0  0  0  0  0  0  0  0
   35.9669   24.6816  -18.1791 O   0  0  0  0  0  0  0  0  0  0  0  0
   34.5785   24.7879  -17.5803 P   0  0  0  0  0  0  0  0  0  0  0  0
   34.9402   24.5214  -16.2319 O   0  0  0  0  0  0  0  0  0  0  0  0
   33.2061   23.9613  -17.5985 O   0  0  0  0  0  0  0  0  0  0  0  0
   33.9554   26.3146  -17.7061 O   0  0  0  0  0  0  0  0  0  0  0  0
   32.5476   24.4157  -17.0500 H   0  0  0  0  0  0  0  0  0  0  0  0
   33.0695   26.3358  -17.3116 H   0  0  0  0  0  0  0  0  0  0  0  0
 31 32  2  0  0  0
 31 33  1  0  0  0
 31 34  1  0  0  0
 31 30  1  0  0  0
 30 26  1  0  0  0
 26 27  2  0  0  0
 26 28  1  0  0  0
 26 25  1  0  0  0
 25 24  1  0  0  0
 24  1  1  0  0  0
  1  2  1  0  0  0
  1  3  1  0  0  0
  2  7  1  0  0  0
  3  4  1  0  0  0
  3  5  1  0  0  0
  5  6  1  0  0  0
  5  7  1  0  0  0
  7 10  1  0  0  0
 10 11  1  0  0  0
 10 20  1  0  0  0
 11 12  2  0  0  0
 12 13  1  0  0  0
 13 14  1  0  0  0
 13 20  2  0  0  0
 14 15  2  0  0  0
 14 16  1  0  0  0
 16 17  1  0  0  0
 17 18  1  0  0  0
 17 19  2  0  0  0
 19 20  1  0  0  0
 33 35  1  0  0  0
 34 36  1  0  0  0
 28 29  1  0  0  0
  4  8  1  0  0  0
  6  9  1  0  0  0
 16 21  1  0  0  0
 18 22  1  0  0  0
 18 23  1  0  0  0
M  END
> <minimizedAffinity>
-6.82432

$$$$
1DAR_GDP_A_692


 36 38  0  0  0  0  0  0  0  0999 V2000
   36.5148   28.7958  -22.5437 C   0  0  0  0  0  0  0  0  0  0  0  0
   36.8082   27.5475  -21.8346 O   0  0  0  0  0  0  0  0  0  0  0  0
   35.2068   29.2238  -21.8676 C   0  0  0  0  0  0  0  0  0  0  0  0
   34.1002   28.8189  -22.6589 O   0  0  0  0  0  0  0  0  0  0  0  0
   35.0583   28.4715  -20.5844 C   0  0  0  0  0  0  0  0  0  0  0  0
   33.6189   28.5616  -20.3357 O   0  0  0  0  0  0  0  0  0  0  0  0
   35.6918   27.0825  -20.9848 C   0  0  0  0  0  0  0  0  0  0  0  0
   34.1120   27.8544  -22.7617 H   0  0  0  0  0  0  0  0  0  0  0  0
   33.1357   28.2951  -21.1335 H   0  0  0  0  0  0  0  0  0  0  0  0
   36.2271   26.3291  -19.7883 N   0  0  0  0  0  0  0  0  0  0  0  0
   37.5013   26.1739  -19.3010 C   0  0  0  0  0  0  0  0  0  0  0  0
   37.6035   25.5555  -18.1713 N   0  0  0  0  0  0  0  0  0  0  0  0
   36.2680   25.2892  -17.9228 C   0  0  0  0  0  0  0  0  0  0  0  0
   35.6907   24.6172  -16.8487 C   0  0  0  0  0  0  0  0  0  0  0  0
   36.2152   24.1837  -15.8196 O   0  0  0  0  0  0  0  0  0  0  0  0
   34.3662   24.5219  -17.0110 N   0  0  0  0  0  0  0  0  0  0  0  0
   33.6607   24.9937  -18.0486 C   0  0  0  0  0  0  0  0  0  0  0  0
   32.3613   24.7124  -18.0402 N   0  0  0  0  0  0  0  0  0  0  0  0
   34.1692   25.6413  -19.0539 N   0  0  0  0  0  0  0  0  0  0  0  0
   35.4649   25.7431  -18.9075 C   0  0  0  0  0  0  0  0  0  0  0  0
   33.8620   24.0618  -16.3015 H   0  0  0  0  0  0  0  0  0  0  0  0
   31.9687   24.2221  -17.2821 H   0  0  0  0  0  0  0  0  0  0  0  0
   31.7918   24.9944  -18.7921 H   0  0  0  0  0  0  0  0  0  0  0  0
   37.7133   29.7557  -22.3692 C   0  0  0  0  0  0  0  0  0  0  0  0
   37.5801   30.6551  -21.2800 O   0  0  0  0  0  0  0  0  0  0  0  0
   38.1066   32.0818  -21.3984 P   0  0  0  0  0  0  0  0  0  0  0  0
   39.5687   31.9135  -21.3846 O   0  0  0  0  0  0  0  0  0  0  0  0
   37.7838   32.8560  -22.7636 O   0  0  0  0  0  0  0  0  0  0  0  0
   38.1644   33.7475  -22.7275 H   0  0  0  0  0  0  0  0  0  0  0  0
   37.6658   33.0746  -20.3032 O   0  0  0  0  0  0  0  0  0  0  0  0
   36.2150   33.3122  -19.9338 P   0  0  0  0  0  0  0  0  0  0  0  0
   36.1983   34.7164  -20.1532 O   0  0  0  0  0  0  0  0  0  0  0  0
   35.3017   33.2928  -18.6176 O   0  0  0  0  0  0  0  0  0  0  0  0
   35.1710   32.5657  -20.9767 O   0  0  0  0  0  0  0  0  0  0  0  0
   34.3879   33.5157  -18.8548 H   0  0  0  0  0  0  0  0  0  0  0  0
   34.2577   32.7442  -20.7029 H   0  0  0  0  0  0  0  0  0  0  0  0
 31 32  2  0  0  0
 31 33  1  0  0  0
 31 34  1  0  0  0
 31 30  1  0  0  0
 30 26  1  0  0  0
 26 27  2  0  0  0
 26 28  1  0  0  0
 26 25  1  0  0  0
 25 24  1  0  0  0
 24  1  1  0  0  0
  1  2  1  0  0  0
  1  3  1  0  0  0
  2  7  1  0  0  0
  3  4  1  0  0  0
  3  5  1  0  0  0
  5  6  1  0  0  0
  5  7  1  0  0  0
  7 10  1  0  0  0
 10 11  1  0  0  0
 10 20  1  0  0  0
 11 12  2  0  0  0
 12 13  1  0  0  0
 13 14  1  0  0  0
 13 20  2  0  0  0
 14 15  2  0  0  0
 14 16  1  0  0  0
 16 17  1  0  0  0
 17 18  1  0  0  0
 17 19  2  0  0  0
 19 20  1  0  0  0
 33 35  1  0  0  0
 34 36  1  0  0  0
 28 29  1  0  0  0
  4  8  1  0  0  0
  6  9  1  0  0  0
 16 21  1  0  0  0
 18 22  1  0  0  0
 18 23  1  0  0  0
M  END
> <minimizedAffinity>
-6.76353

$$$$
1DAR_GDP_A_692


 36 38  0  0  0  0  0  0  0  0999 V2000
   37.0051   27.8634  -22.7034 C   0  0  0  0  0  0  0  0  0  0  0  0
   36.5866   29.2634  -22.5935 O   0  0  0  0  0  0  0  0  0  0  0  0
   38.1776   27.8231  -21.7160 C   0  0  0  0  0  0  0  0  0  0  0  0
   39.4030   27.9729  -22.4163 O   0  0  0  0  0  0  0  0  0  0  0  0
   38.0966   29.0183  -20.8218 C   0  0  0  0  0  0  0  0  0  0  0  0
   39.4712   29.1348  -20.3331 O   0  0  0  0  0  0  0  0  0  0  0  0
   37.5356   30.0980  -21.8271 C   0  0  0  0  0  0  0  0  0  0  0  0
   39.4046   28.8208  -22.8875 H   0  0  0  0  0  0  0  0  0  0  0  0
   40.0846   29.1096  -21.0840 H   0  0  0  0  0  0  0  0  0  0  0  0
   36.7964   31.2116  -21.1203 N   0  0  0  0  0  0  0  0  0  0  0  0
   35.7344   31.1954  -20.2502 C   0  0  0  0  0  0  0  0  0  0  0  0
   35.4150   32.3323  -19.7262 N   0  0  0  0  0  0  0  0  0  0  0  0
   36.3609   33.1460  -20.3259 C   0  0  0  0  0  0  0  0  0  0  0  0
   36.5507   34.5190  -20.1928 C   0  0  0  0  0  0  0  0  0  0  0  0
   35.9886   35.3206  -19.4422 O   0  0  0  0  0  0  0  0  0  0  0  0
   37.5425   34.9356  -20.9881 N   0  0  0  0  0  0  0  0  0  0  0  0
   38.2716   34.1685  -21.8108 C   0  0  0  0  0  0  0  0  0  0  0  0
   39.1532   34.8109  -22.5707 N   0  0  0  0  0  0  0  0  0  0  0  0
   38.1305   32.8832  -21.9408 N   0  0  0  0  0  0  0  0  0  0  0  0
   37.1639   32.4617  -21.1670 C   0  0  0  0  0  0  0  0  0  0  0  0
   37.7571   35.8962  -20.9672 H   0  0  0  0  0  0  0  0  0  0  0  0
   39.2659   35.7845  -22.4782 H   0  0  0  0  0  0  0  0  0  0  0  0
   39.6935   34.3129  -23.2261 H   0  0  0  0  0  0  0  0  0  0  0  0
   35.7994   26.9596  -22.3608 C   0  0  0  0  0  0  0  0  0  0  0  0
   34.8734   27.5474  -21.4606 O   0  0  0  0  0  0  0  0  0  0  0  0
   34.6471   26.9285  -20.0850 P   0  0  0  0  0  0  0  0  0  0  0  0
   33.4264   27.5942  -19.6025 O   0  0  0  0  0  0  0  0  0  0  0  0
   34.3160   25.3612  -20.0477 O   0  0  0  0  0  0  0  0  0  0  0  0
   34.1922   25.0787  -19.1280 H   0  0  0  0  0  0  0  0  0  0  0  0
   35.7896   27.0844  -19.0603 O   0  0  0  0  0  0  0  0  0  0  0  0
   35.9398   26.1936  -17.8431 P   0  0  0  0  0  0  0  0  0  0  0  0
   36.8737   25.2786  -18.4005 O   0  0  0  0  0  0  0  0  0  0  0  0
   35.0610   25.1295  -17.0292 O   0  0  0  0  0  0  0  0  0  0  0  0
   36.6230   26.9881  -16.5637 O   0  0  0  0  0  0  0  0  0  0  0  0
   35.5776   24.7866  -16.2832 H   0  0  0  0  0  0  0  0  0  0  0  0
   36.6994   26.3821  -15.8102 H   0  0  0  0  0  0  0  0  0  0  0  0
 31 32  2  0  0  0
 31 33  1  0  0  0
 31 34  1  0  0  0
 31 30  1  0  0  0
 30 26  1  0  0  0
 26 27  2  0  0  0
 26 28  1  0  0  0
 26 25  1  0  0  0
 25 24  1  0  0  0
 24  1  1  0  0  0
  1  2  1  0  0  0
  1  3  1  0  0  0
  2  7  1  0  0  0
  3  4  1  0  0  0
  3  5  1  0  0  0
  5  6  1  0  0  0
  5  7  1  0  0  0
  7 10  1  0  0  0
 10 11  1  0  0  0
 10 20  1  0  0  0
 11 12  2  0  0  0
 12 13  1  0  0  0
 13 14  1  0  0  0
 13 20  2  0  0  0
 14 15  2  0  0  0
 14 16  1  0  0  0
 16 17  1  0  0  0
 17 18  1  0  0  0
 17 19  2  0  0  0
 19 20  1  0  0  0
 33 35  1  0  0  0
 34 36  1  0  0  0
 28 29  1  0  0  0
  4  8  1  0  0  0
  6  9  1  0  0  0
 16 21  1  0  0  0
 18 22  1  0  0  0
 18 23  1  0  0  0
M  END
> <minimizedAffinity>
-6.63134

$$$$
1DAR_GDP_A_692


 36 38  0  0  0  0  0  0  0  0999 V2000
   34.6860   26.0057  -19.3075 C   0  0  0  0  0  0  0  0  0  0  0  0
   34.0016   25.0331  -18.4514 O   0  0  0  0  0  0  0  0  0  0  0  0
   35.8938   26.3731  -18.4370 C   0  0  0  0  0  0  0  0  0  0  0  0
   35.6295   27.5740  -17.7281 O   0  0  0  0  0  0  0  0  0  0  0  0
   36.0610   25.3303  -17.3790 C   0  0  0  0  0  0  0  0  0  0  0  0
   36.8462   26.0376  -16.3666 O   0  0  0  0  0  0  0  0  0  0  0  0
   34.5530   24.9714  -17.0814 C   0  0  0  0  0  0  0  0  0  0  0  0
   34.8489   27.4522  -17.1654 H   0  0  0  0  0  0  0  0  0  0  0  0
   36.4276   26.8903  -16.1702 H   0  0  0  0  0  0  0  0  0  0  0  0
   34.3949   23.5770  -16.5189 N   0  0  0  0  0  0  0  0  0  0  0  0
   35.2405   22.4953  -16.5056 C   0  0  0  0  0  0  0  0  0  0  0  0
   34.8391   21.4719  -15.8269 N   0  0  0  0  0  0  0  0  0  0  0  0
   33.6217   21.9489  -15.3722 C   0  0  0  0  0  0  0  0  0  0  0  0
   32.6671   21.3122  -14.5836 C   0  0  0  0  0  0  0  0  0  0  0  0
   32.7162   20.2137  -14.0242 O   0  0  0  0  0  0  0  0  0  0  0  0
   31.5988   22.0989  -14.4118 N   0  0  0  0  0  0  0  0  0  0  0  0
   31.4353   23.3310  -14.9138 C   0  0  0  0  0  0  0  0  0  0  0  0
   30.2552   23.8979  -14.6820 N   0  0  0  0  0  0  0  0  0  0  0  0
   32.3159   23.9574  -15.6354 N   0  0  0  0  0  0  0  0  0  0  0  0
   33.3674   23.1996  -15.8103 C   0  0  0  0  0  0  0  0  0  0  0  0
   30.8634   21.7389  -13.8652 H   0  0  0  0  0  0  0  0  0  0  0  0
   29.5828   23.4297  -14.1363 H   0  0  0  0  0  0  0  0  0  0  0  0
   30.0538   24.7860  -15.0562 H   0  0  0  0  0  0  0  0  0  0  0  0
   35.0062   25.3321  -20.6610 C   0  0  0  0  0  0  0  0  0  0  0  0
   34.4776   26.0155  -21.7865 O   0  0  0  0  0  0  0  0  0  0  0  0
   35.3285   27.0435  -22.5253 P   0  0  0  0  0  0  0  0  0  0  0  0
   36.2765   26.2204  -23.2933 O   0  0  0  0  0  0  0  0  0  0  0  0
   34.5781   27.9491  -23.6133 O   0  0  0  0  0  0  0  0  0  0  0  0
   35.2124   28.5620  -24.0168 H   0  0  0  0  0  0  0  0  0  0  0  0
   36.0838   28.0692  -21.6553 O   0  0  0  0  0  0  0  0  0  0  0  0
   35.4282   29.3052  -21.0721 P   0  0  0  0  0  0  0  0  0  0  0  0
   36.1757   30.2697  -21.8010 O   0  0  0  0  0  0  0  0  0  0  0  0
   35.3858   30.0840  -19.6725 O   0  0  0  0  0  0  0  0  0  0  0  0
   33.8268   29.4139  -21.4702 O   0  0  0  0  0  0  0  0  0  0  0  0
   34.8123   30.8622  -19.7528 H   0  0  0  0  0  0  0  0  0  0  0  0
   33.4497   30.2166  -21.0773 H   0  0  0  0  0  0  0  0  0  0  0  0
 31 32  2  0  0  0
 31 33  1  0  0  0
 31 34  1  0  0  0
 31 30  1  0  0  0
 30 26  1  0  0  0
 26 27  2  0  0  0
 26 28  1  0  0  0
 26 25  1  0  0  0
 25 24  1  0  0  0
 24  1  1  0  0  0
  1  2  1  0  0  0
  1  3  1  0  0  0
  2  7  1  0  0  0
  3  4  1  0  0  0
  3  5  1  0  0  0
  5  6  1  0  0  0
  5  7  1  0  0  0
  7 10  1  0  0  0
 10 11  1  0  0  0
 10 20  1  0  0  0
 11 12  2  0  0  0
 12 13  1  0  0  0
 13 14  1  0  0  0
 13 20  2  0  0  0
 14 15  2  0  0  0
 14 16  1  0  0  0
 16 17  1  0  0  0
 17 18  1  0  0  0
 17 19  2  0  0  0
 19 20  1  0  0  0
 33 35  1  0  0  0
 34 36  1  0  0  0
 28 29  1  0  0  0
  4  8  1  0  0  0
  6  9  1  0  0  0
 16 21  1  0  0  0
 18 22  1  0  0  0
 18 23  1  0  0  0
M  END
> <minimizedAffinity>
-6.43461

$$$$
1DAR_GDP_A_692


 36 38  0  0  0  0  0  0  0  0999 V2000
   35.7475   26.9349  -18.7321 C   0  0  0  0  0  0  0  0  0  0  0  0
   35.2136   26.4053  -17.4744 O   0  0  0  0  0  0  0  0  0  0  0  0
   35.7000   25.6895  -19.6254 C   0  0  0  0  0  0  0  0  0  0  0  0
   36.9743   25.0649  -19.6498 O   0  0  0  0  0  0  0  0  0  0  0  0
   34.7893   24.6820  -19.0006 C   0  0  0  0  0  0  0  0  0  0  0  0
   35.2325   23.4338  -19.6231 O   0  0  0  0  0  0  0  0  0  0  0  0
   35.0817   24.9332  -17.4700 C   0  0  0  0  0  0  0  0  0  0  0  0
   37.2260   24.8086  -18.7488 H   0  0  0  0  0  0  0  0  0  0  0  0
   36.1963   23.3575  -19.5440 H   0  0  0  0  0  0  0  0  0  0  0  0
   33.9260   24.5166  -16.5887 N   0  0  0  0  0  0  0  0  0  0  0  0
   32.5690   24.5216  -16.7977 C   0  0  0  0  0  0  0  0  0  0  0  0
   31.8518   23.9792  -15.8700 N   0  0  0  0  0  0  0  0  0  0  0  0
   32.8490   23.6001  -14.9877 C   0  0  0  0  0  0  0  0  0  0  0  0
   32.7361   22.9660  -13.7533 C   0  0  0  0  0  0  0  0  0  0  0  0
   31.7368   22.5062  -13.1948 O   0  0  0  0  0  0  0  0  0  0  0  0
   33.9392   22.8253  -13.1855 N   0  0  0  0  0  0  0  0  0  0  0  0
   35.1092   23.2268  -13.7020 C   0  0  0  0  0  0  0  0  0  0  0  0
   36.1736   23.0571  -12.9238 N   0  0  0  0  0  0  0  0  0  0  0  0
   35.2471   23.8024  -14.8589 N   0  0  0  0  0  0  0  0  0  0  0  0
   34.0774   23.9453  -15.4265 C   0  0  0  0  0  0  0  0  0  0  0  0
   33.9681   22.3853  -12.3052 H   0  0  0  0  0  0  0  0  0  0  0  0
   36.0773   22.6219  -12.0460 H   0  0  0  0  0  0  0  0  0  0  0  0
   37.0582   23.3666  -13.2253 H   0  0  0  0  0  0  0  0  0  0  0  0
   34.8675   28.1237  -19.1798 C   0  0  0  0  0  0  0  0  0  0  0  0
   35.5926   29.1876  -19.7760 O   0  0  0  0  0  0  0  0  0  0  0  0
   35.2654   29.6328  -21.1978 P   0  0  0  0  0  0  0  0  0  0  0  0
   35.8073   28.5490  -22.0332 O   0  0  0  0  0  0  0  0  0  0  0  0
   33.7127   29.7260  -21.5823 O   0  0  0  0  0  0  0  0  0  0  0  0
   33.6247   30.0167  -22.5036 H   0  0  0  0  0  0  0  0  0  0  0  0
   35.8340   30.9956  -21.6437 O   0  0  0  0  0  0  0  0  0  0  0  0
   36.3513   32.0371  -20.6713 P   0  0  0  0  0  0  0  0  0  0  0  0
   36.0924   33.1811  -21.4741 O   0  0  0  0  0  0  0  0  0  0  0  0
   37.7589   32.5132  -20.0722 O   0  0  0  0  0  0  0  0  0  0  0  0
   35.4512   32.1046  -19.2856 O   0  0  0  0  0  0  0  0  0  0  0  0
   37.6157   33.2470  -19.4541 H   0  0  0  0  0  0  0  0  0  0  0  0
   35.8170   32.7818  -18.6952 H   0  0  0  0  0  0  0  0  0  0  0  0
 31 32  2  0  0  0
 31 33  1  0  0  0
 31 34  1  0  0  0
 31 30  1  0  0  0
 30 26  1  0  0  0
 26 27  2  0  0  0
 26 28  1  0  0  0
 26 25  1  0  0  0
 25 24  1  0  0  0
 24  1  1  0  0  0
  1  2  1  0  0  0
  1  3  1  0  0  0
  2  7  1  0  0  0
  3  4  1  0  0  0
  3  5  1  0  0  0
  5  6  1  0  0  0
  5  7  1  0  0  0
  7 10  1  0  0  0
 10 11  1  0  0  0
 10 20  1  0  0  0
 11 12  2  0  0  0
 12 13  1  0  0  0
 13 14  1  0  0  0
 13 20  2  0  0  0
 14 15  2  0  0  0
 14 16  1  0  0  0
 16 17  1  0  0  0
 17 18  1  0  0  0
 17 19  2  0  0  0
 19 20  1  0  0  0
 33 35  1  0  0  0
 34 36  1  0  0  0
 28 29  1  0  0  0
  4  8  1  0  0  0
  6  9  1  0  0  0
 16 21  1  0  0  0
 18 22  1  0  0  0
 18 23  1  0  0  0
M  END
> <minimizedAffinity>
-6.37421

$$$$
