5E2L_DPN_A_507


 15 15  0  0  0  0  0  0  0  0999 V2000
   93.1975  -39.2079   13.5357 N   0  0  0  0  0  0  0  0  0  0  0  0
   94.1747  -39.6522   14.5683 C   0  0  0  0  0  0  0  0  0  0  0  0
   92.3755  -38.8134   13.9930 H   0  0  0  0  0  0  0  0  0  0  0  0
   92.9189  -40.0063   12.9653 H   0  0  0  0  0  0  0  0  0  0  0  0
   93.5225  -40.6696   15.4607 C   0  0  0  0  0  0  0  0  0  0  0  0
   94.1350  -40.9647   16.5164 O   0  0  0  0  0  0  0  0  0  0  0  0
   92.4453  -41.1668   15.1373 O   0  0  0  0  0  0  0  0  0  0  0  0
   92.0319  -40.9093   14.3368 H   0  0  0  0  0  0  0  0  0  0  0  0
   95.4206  -40.2496   13.9118 C   0  0  0  0  0  0  0  0  0  0  0  0
   96.6862  -39.6323   14.4705 C   0  0  0  0  0  0  0  0  0  0  0  0
   97.9149  -40.2882   14.3749 C   0  0  0  0  0  0  0  0  0  0  0  0
   96.6076  -38.4022   15.1140 C   0  0  0  0  0  0  0  0  0  0  0  0
   99.0564  -39.7019   14.8908 C   0  0  0  0  0  0  0  0  0  0  0  0
   97.7649  -37.8117   15.6352 C   0  0  0  0  0  0  0  0  0  0  0  0
   98.9909  -38.4648   15.5248 C   0  0  0  0  0  0  0  0  0  0  0  0
  1  2  1  0  0  0
  2  5  1  0  0  0
  2  9  1  0  0  0
  5  6  2  0  0  0
  5  7  1  0  0  0
  9 10  1  0  0  0
 10 11  2  0  0  0
 10 12  1  0  0  0
 11 13  1  0  0  0
 12 14  2  0  0  0
 13 15  2  0  0  0
 14 15  1  0  0  0
  1  3  1  0  0  0
  1  4  1  0  0  0
  7  8  1  0  0  0
M  END
> <minimizedAffinity>
-7.44158

$$$$
5E2L_DPN_A_507


 15 15  0  0  0  0  0  0  0  0999 V2000
   93.1867  -39.2973   13.4802 N   0  0  0  0  0  0  0  0  0  0  0  0
   94.1585  -39.6853   14.5403 C   0  0  0  0  0  0  0  0  0  0  0  0
   92.3493  -38.9075   13.9129 H   0  0  0  0  0  0  0  0  0  0  0  0
   92.9347  -40.1200   12.9324 H   0  0  0  0  0  0  0  0  0  0  0  0
   93.5166  -40.6881   15.4562 C   0  0  0  0  0  0  0  0  0  0  0  0
   94.1418  -40.9674   16.5088 O   0  0  0  0  0  0  0  0  0  0  0  0
   92.4351  -41.1893   15.1538 O   0  0  0  0  0  0  0  0  0  0  0  0
   92.0121  -40.9439   14.3546 H   0  0  0  0  0  0  0  0  0  0  0  0
   95.4272  -40.2745   13.9210 C   0  0  0  0  0  0  0  0  0  0  0  0
   96.6708  -39.6256   14.4930 C   0  0  0  0  0  0  0  0  0  0  0  0
   96.6148  -38.3778   15.1166 C   0  0  0  0  0  0  0  0  0  0  0  0
   97.8911  -40.2797   14.3642 C   0  0  0  0  0  0  0  0  0  0  0  0
   97.7643  -37.8080   15.6332 C   0  0  0  0  0  0  0  0  0  0  0  0
   99.0527  -39.7000   14.8880 C   0  0  0  0  0  0  0  0  0  0  0  0
   98.9884  -38.4605   15.5216 C   0  0  0  0  0  0  0  0  0  0  0  0
  1  2  1  0  0  0
  2  5  1  0  0  0
  2  9  1  0  0  0
  5  6  2  0  0  0
  5  7  1  0  0  0
  9 10  1  0  0  0
 10 11  2  0  0  0
 10 12  1  0  0  0
 11 13  1  0  0  0
 12 14  2  0  0  0
 13 15  2  0  0  0
 14 15  1  0  0  0
  1  3  1  0  0  0
  1  4  1  0  0  0
  7  8  1  0  0  0
M  END
> <minimizedAffinity>
-7.42972

$$$$
5E2L_DPN_A_507


 15 15  0  0  0  0  0  0  0  0999 V2000
   93.5411  -39.4496   14.9468 N   0  0  0  0  0  0  0  0  0  0  0  0
   94.3326  -38.9989   13.7682 C   0  0  0  0  0  0  0  0  0  0  0  0
   92.9853  -40.2658   14.6911 H   0  0  0  0  0  0  0  0  0  0  0  0
   92.9217  -38.6973   15.2482 H   0  0  0  0  0  0  0  0  0  0  0  0
   93.3963  -38.6728   12.6396 C   0  0  0  0  0  0  0  0  0  0  0  0
   92.7527  -39.6331   12.1493 O   0  0  0  0  0  0  0  0  0  0  0  0
   93.2957  -37.5131   12.2430 O   0  0  0  0  0  0  0  0  0  0  0  0
   93.8008  -36.8347   12.6462 H   0  0  0  0  0  0  0  0  0  0  0  0
   95.1781  -37.7738   14.1214 C   0  0  0  0  0  0  0  0  0  0  0  0
   96.5626  -38.1766   14.5858 C   0  0  0  0  0  0  0  0  0  0  0  0
   97.3495  -37.3130   15.3501 C   0  0  0  0  0  0  0  0  0  0  0  0
   97.0615  -39.4203   14.2148 C   0  0  0  0  0  0  0  0  0  0  0  0
   98.6095  -37.7057   15.7640 C   0  0  0  0  0  0  0  0  0  0  0  0
   98.3373  -39.8145   14.6352 C   0  0  0  0  0  0  0  0  0  0  0  0
   99.1129  -38.9537   15.4095 C   0  0  0  0  0  0  0  0  0  0  0  0
  1  2  1  0  0  0
  2  5  1  0  0  0
  2  9  1  0  0  0
  5  6  2  0  0  0
  5  7  1  0  0  0
  9 10  1  0  0  0
 10 11  2  0  0  0
 10 12  1  0  0  0
 11 13  1  0  0  0
 12 14  2  0  0  0
 13 15  2  0  0  0
 14 15  1  0  0  0
  1  3  1  0  0  0
  1  4  1  0  0  0
  7  8  1  0  0  0
M  END
> <minimizedAffinity>
-7.24776

$$$$
5E2L_DPN_A_507


 15 15  0  0  0  0  0  0  0  0999 V2000
   93.4802  -39.7191   15.4242 N   0  0  0  0  0  0  0  0  0  0  0  0
   94.4197  -39.6608   14.2698 C   0  0  0  0  0  0  0  0  0  0  0  0
   92.9835  -40.6099   15.4136 H   0  0  0  0  0  0  0  0  0  0  0  0
   92.8087  -38.9545   15.3550 H   0  0  0  0  0  0  0  0  0  0  0  0
   93.6446  -39.8229   12.9932 C   0  0  0  0  0  0  0  0  0  0  0  0
   94.2567  -40.3417   12.0273 O   0  0  0  0  0  0  0  0  0  0  0  0
   92.4738  -39.4513   12.9363 O   0  0  0  0  0  0  0  0  0  0  0  0
   92.0662  -39.0701   13.6890 H   0  0  0  0  0  0  0  0  0  0  0  0
   95.1807  -38.3337   14.2587 C   0  0  0  0  0  0  0  0  0  0  0  0
   96.6324  -38.5291   14.6447 C   0  0  0  0  0  0  0  0  0  0  0  0
   97.3229  -39.6926   14.3003 C   0  0  0  0  0  0  0  0  0  0  0  0
   97.2725  -37.5379   15.3805 C   0  0  0  0  0  0  0  0  0  0  0  0
   98.6490  -39.8455   14.6623 C   0  0  0  0  0  0  0  0  0  0  0  0
   98.6146  -37.6960   15.7455 C   0  0  0  0  0  0  0  0  0  0  0  0
   99.3027  -38.8536   15.3871 C   0  0  0  0  0  0  0  0  0  0  0  0
  1  2  1  0  0  0
  2  5  1  0  0  0
  2  9  1  0  0  0
  5  6  2  0  0  0
  5  7  1  0  0  0
  9 10  1  0  0  0
 10 11  2  0  0  0
 10 12  1  0  0  0
 11 13  1  0  0  0
 12 14  2  0  0  0
 13 15  2  0  0  0
 14 15  1  0  0  0
  1  3  1  0  0  0
  1  4  1  0  0  0
  7  8  1  0  0  0
M  END
> <minimizedAffinity>
-7.14629

$$$$
5E2L_DPN_A_507


 15 15  0  0  0  0  0  0  0  0999 V2000
   93.7020  -40.9945   12.5521 N   0  0  0  0  0  0  0  0  0  0  0  0
   94.1687  -40.4127   13.8414 C   0  0  0  0  0  0  0  0  0  0  0  0
   92.6897  -40.8925   12.4796 H   0  0  0  0  0  0  0  0  0  0  0  0
   93.9474  -41.9840   12.5170 H   0  0  0  0  0  0  0  0  0  0  0  0
   93.4804  -41.1138   14.9779 C   0  0  0  0  0  0  0  0  0  0  0  0
   94.2206  -41.5972   15.8696 O   0  0  0  0  0  0  0  0  0  0  0  0
   92.2533  -41.1916   14.9961 O   0  0  0  0  0  0  0  0  0  0  0  0
   91.7494  -40.8120   14.3032 H   0  0  0  0  0  0  0  0  0  0  0  0
   95.6860  -40.5511   13.9791 C   0  0  0  0  0  0  0  0  0  0  0  0
   96.3097  -39.2728   14.5003 C   0  0  0  0  0  0  0  0  0  0  0  0
   95.7416  -38.0268   14.2283 C   0  0  0  0  0  0  0  0  0  0  0  0
   97.4857  -39.3500   15.2383 C   0  0  0  0  0  0  0  0  0  0  0  0
   96.3292  -36.8745   14.7181 C   0  0  0  0  0  0  0  0  0  0  0  0
   98.0779  -38.1817   15.7323 C   0  0  0  0  0  0  0  0  0  0  0  0
   97.4988  -36.9417   15.4692 C   0  0  0  0  0  0  0  0  0  0  0  0
  1  2  1  0  0  0
  2  5  1  0  0  0
  2  9  1  0  0  0
  5  6  2  0  0  0
  5  7  1  0  0  0
  9 10  1  0  0  0
 10 11  2  0  0  0
 10 12  1  0  0  0
 11 13  1  0  0  0
 12 14  2  0  0  0
 13 15  2  0  0  0
 14 15  1  0  0  0
  1  3  1  0  0  0
  1  4  1  0  0  0
  7  8  1  0  0  0
M  END
> <minimizedAffinity>
-6.88218

$$$$
5E2L_DPN_A_507


 15 15  0  0  0  0  0  0  0  0999 V2000
   94.3571  -39.5315   11.8074 N   0  0  0  0  0  0  0  0  0  0  0  0
   94.0892  -39.9017   13.2251 C   0  0  0  0  0  0  0  0  0  0  0  0
   93.6229  -38.9065   11.4746 H   0  0  0  0  0  0  0  0  0  0  0  0
   94.3725  -40.3742   11.2330 H   0  0  0  0  0  0  0  0  0  0  0  0
   92.7441  -40.5644   13.3170 C   0  0  0  0  0  0  0  0  0  0  0  0
   92.1384  -40.7569   12.2341 O   0  0  0  0  0  0  0  0  0  0  0  0
   92.2928  -40.8841   14.4153 O   0  0  0  0  0  0  0  0  0  0  0  0
   92.7886  -40.7163   15.1925 H   0  0  0  0  0  0  0  0  0  0  0  0
   95.1756  -40.8403   13.7533 C   0  0  0  0  0  0  0  0  0  0  0  0
   96.3401  -40.0631   14.3318 C   0  0  0  0  0  0  0  0  0  0  0  0
   97.6250  -40.6075   14.3725 C   0  0  0  0  0  0  0  0  0  0  0  0
   96.1095  -38.7958   14.8555 C   0  0  0  0  0  0  0  0  0  0  0  0
   98.6720  -39.8762   14.9036 C   0  0  0  0  0  0  0  0  0  0  0  0
   97.1714  -38.0584   15.3925 C   0  0  0  0  0  0  0  0  0  0  0  0
   98.4545  -38.6016   15.4181 C   0  0  0  0  0  0  0  0  0  0  0  0
  1  2  1  0  0  0
  2  5  1  0  0  0
  2  9  1  0  0  0
  5  6  2  0  0  0
  5  7  1  0  0  0
  9 10  1  0  0  0
 10 11  2  0  0  0
 10 12  1  0  0  0
 11 13  1  0  0  0
 12 14  2  0  0  0
 13 15  2  0  0  0
 14 15  1  0  0  0
  1  3  1  0  0  0
  1  4  1  0  0  0
  7  8  1  0  0  0
M  END
> <minimizedAffinity>
-6.38248

$$$$
5E2L_DPN_A_507


 15 15  0  0  0  0  0  0  0  0999 V2000
   92.5830  -42.6721   12.5305 N   0  0  0  0  0  0  0  0  0  0  0  0
   92.7861  -41.2150   12.7631 C   0  0  0  0  0  0  0  0  0  0  0  0
   92.4458  -42.8415   11.5341 H   0  0  0  0  0  0  0  0  0  0  0  0
   91.7607  -42.9872   13.0453 H   0  0  0  0  0  0  0  0  0  0  0  0
   91.5897  -40.4619   12.2550 C   0  0  0  0  0  0  0  0  0  0  0  0
   90.9592  -40.9861   11.3039 O   0  0  0  0  0  0  0  0  0  0  0  0
   91.2780  -39.3890   12.7688 O   0  0  0  0  0  0  0  0  0  0  0  0
   91.7850  -39.0439   13.4771 H   0  0  0  0  0  0  0  0  0  0  0  0
   92.9950  -40.9291   14.2513 C   0  0  0  0  0  0  0  0  0  0  0  0
   94.4672  -40.8067   14.5864 C   0  0  0  0  0  0  0  0  0  0  0  0
   94.9321  -41.0023   15.8883 C   0  0  0  0  0  0  0  0  0  0  0  0
   95.3609  -40.4648   13.5775 C   0  0  0  0  0  0  0  0  0  0  0  0
   96.2818  -40.8874   16.1677 C   0  0  0  0  0  0  0  0  0  0  0  0
   96.7263  -40.3490   13.8639 C   0  0  0  0  0  0  0  0  0  0  0  0
   97.1863  -40.5589   15.1624 C   0  0  0  0  0  0  0  0  0  0  0  0
  1  2  1  0  0  0
  2  5  1  0  0  0
  2  9  1  0  0  0
  5  6  2  0  0  0
  5  7  1  0  0  0
  9 10  1  0  0  0
 10 11  2  0  0  0
 10 12  1  0  0  0
 11 13  1  0  0  0
 12 14  2  0  0  0
 13 15  2  0  0  0
 14 15  1  0  0  0
  1  3  1  0  0  0
  1  4  1  0  0  0
  7  8  1  0  0  0
M  END
> <minimizedAffinity>
-6.28579

$$$$
5E2L_DPN_A_507


 15 15  0  0  0  0  0  0  0  0999 V2000
   93.9230  -37.2642   13.9588 N   0  0  0  0  0  0  0  0  0  0  0  0
   95.3839  -37.5390   14.0531 C   0  0  0  0  0  0  0  0  0  0  0  0
   93.7758  -36.3528   13.5251 H   0  0  0  0  0  0  0  0  0  0  0  0
   93.5157  -37.2654   14.8940 H   0  0  0  0  0  0  0  0  0  0  0  0
   96.0398  -36.4540   14.8589 C   0  0  0  0  0  0  0  0  0  0  0  0
   97.2404  -36.6392   15.1769 O   0  0  0  0  0  0  0  0  0  0  0  0
   95.3993  -35.4525   15.1734 O   0  0  0  0  0  0  0  0  0  0  0  0
   94.5046  -35.3663   14.9086 H   0  0  0  0  0  0  0  0  0  0  0  0
   95.6368  -38.9017   14.7008 C   0  0  0  0  0  0  0  0  0  0  0  0
   94.6297  -39.9302   14.2289 C   0  0  0  0  0  0  0  0  0  0  0  0
   93.6332  -40.4114   15.0802 C   0  0  0  0  0  0  0  0  0  0  0  0
   94.7252  -40.4193   12.9307 C   0  0  0  0  0  0  0  0  0  0  0  0
   92.7240  -41.3486   14.6241 C   0  0  0  0  0  0  0  0  0  0  0  0
   93.8035  -41.3680   12.4725 C   0  0  0  0  0  0  0  0  0  0  0  0
   92.8025  -41.8345   13.3224 C   0  0  0  0  0  0  0  0  0  0  0  0
  1  2  1  0  0  0
  2  5  1  0  0  0
  2  9  1  0  0  0
  5  6  2  0  0  0
  5  7  1  0  0  0
  9 10  1  0  0  0
 10 11  2  0  0  0
 10 12  1  0  0  0
 11 13  1  0  0  0
 12 14  2  0  0  0
 13 15  2  0  0  0
 14 15  1  0  0  0
  1  3  1  0  0  0
  1  4  1  0  0  0
  7  8  1  0  0  0
M  END
> <minimizedAffinity>
-6.28181

$$$$
5E2L_DPN_A_507


 15 15  0  0  0  0  0  0  0  0999 V2000
   93.2108  -38.9994   13.6152 N   0  0  0  0  0  0  0  0  0  0  0  0
   94.6622  -38.7065   13.7769 C   0  0  0  0  0  0  0  0  0  0  0  0
   92.8432  -38.4703   12.8244 H   0  0  0  0  0  0  0  0  0  0  0  0
   92.7131  -38.7316   14.4643 H   0  0  0  0  0  0  0  0  0  0  0  0
   94.8477  -37.2312   13.9913 C   0  0  0  0  0  0  0  0  0  0  0  0
   95.9987  -36.7744   13.7836 O   0  0  0  0  0  0  0  0  0  0  0  0
   93.8970  -36.5410   14.3546 O   0  0  0  0  0  0  0  0  0  0  0  0
   93.0585  -36.9350   14.4949 H   0  0  0  0  0  0  0  0  0  0  0  0
   95.2429  -39.4871   14.9574 C   0  0  0  0  0  0  0  0  0  0  0  0
   96.7573  -39.4911   14.9224 C   0  0  0  0  0  0  0  0  0  0  0  0
   97.5064  -38.8856   15.9330 C   0  0  0  0  0  0  0  0  0  0  0  0
   97.4040  -40.0865   13.8449 C   0  0  0  0  0  0  0  0  0  0  0  0
   98.8884  -38.9054   15.8790 C   0  0  0  0  0  0  0  0  0  0  0  0
   98.8028  -40.1045   13.7933 C   0  0  0  0  0  0  0  0  0  0  0  0
   99.5455  -39.5105   14.8119 C   0  0  0  0  0  0  0  0  0  0  0  0
  1  2  1  0  0  0
  2  5  1  0  0  0
  2  9  1  0  0  0
  5  6  2  0  0  0
  5  7  1  0  0  0
  9 10  1  0  0  0
 10 11  2  0  0  0
 10 12  1  0  0  0
 11 13  1  0  0  0
 12 14  2  0  0  0
 13 15  2  0  0  0
 14 15  1  0  0  0
  1  3  1  0  0  0
  1  4  1  0  0  0
  7  8  1  0  0  0
M  END
> <minimizedAffinity>
-5.96715

$$$$
5E2L_DPN_A_507


 15 15  0  0  0  0  0  0  0  0999 V2000
   95.6306  -37.6451   14.5439 N   0  0  0  0  0  0  0  0  0  0  0  0
   96.6363  -38.7408   14.6252 C   0  0  0  0  0  0  0  0  0  0  0  0
   96.0335  -36.8499   14.0482 H   0  0  0  0  0  0  0  0  0  0  0  0
   95.3630  -37.3587   15.4856 H   0  0  0  0  0  0  0  0  0  0  0  0
   97.8606  -38.2362   15.3346 C   0  0  0  0  0  0  0  0  0  0  0  0
   97.7148  -37.2114   16.0454 O   0  0  0  0  0  0  0  0  0  0  0  0
   98.9327  -38.8229   15.1984 O   0  0  0  0  0  0  0  0  0  0  0  0
   98.9843  -39.5844   14.6548 H   0  0  0  0  0  0  0  0  0  0  0  0
   96.0601  -39.9496   15.3647 C   0  0  0  0  0  0  0  0  0  0  0  0
   94.8723  -40.5312   14.6260 C   0  0  0  0  0  0  0  0  0  0  0  0
   94.9528  -40.8616   13.2720 C   0  0  0  0  0  0  0  0  0  0  0  0
   93.6752  -40.7090   15.3108 C   0  0  0  0  0  0  0  0  0  0  0  0
   93.8546  -41.3938   12.6210 C   0  0  0  0  0  0  0  0  0  0  0  0
   92.5655  -41.2477   14.6489 C   0  0  0  0  0  0  0  0  0  0  0  0
   92.6559  -41.5883   13.3006 C   0  0  0  0  0  0  0  0  0  0  0  0
  1  2  1  0  0  0
  2  5  1  0  0  0
  2  9  1  0  0  0
  5  6  2  0  0  0
  5  7  1  0  0  0
  9 10  1  0  0  0
 10 11  2  0  0  0
 10 12  1  0  0  0
 11 13  1  0  0  0
 12 14  2  0  0  0
 13 15  2  0  0  0
 14 15  1  0  0  0
  1  3  1  0  0  0
  1  4  1  0  0  0
  7  8  1  0  0  0
M  END
> <minimizedAffinity>
-5.79431

$$$$
