1ATR_ADP_A_486


 34 36  0  0  0  0  0  0  0  0999 V2000
   19.5404   34.7078   17.5082 C   0  0  0  0  0  0  0  0  0  0  0  0
   20.7600   35.2759   17.0689 O   0  0  0  0  0  0  0  0  0  0  0  0
   18.6195   35.9520   17.7915 C   0  0  0  0  0  0  0  0  0  0  0  0
   18.7311   36.1721   19.1883 O   0  0  0  0  0  0  0  0  0  0  0  0
   19.2839   37.0486   16.9908 C   0  0  0  0  0  0  0  0  0  0  0  0
   19.0055   38.3392   17.5667 O   0  0  0  0  0  0  0  0  0  0  0  0
   20.7379   36.6659   17.2481 C   0  0  0  0  0  0  0  0  0  0  0  0
   19.6674   36.2496   19.4296 H   0  0  0  0  0  0  0  0  0  0  0  0
   19.2569   38.3363   18.5035 H   0  0  0  0  0  0  0  0  0  0  0  0
   21.6542   37.3249   16.2975 N   0  0  0  0  0  0  0  0  0  0  0  0
   21.7796   37.3228   14.9272 C   0  0  0  0  0  0  0  0  0  0  0  0
   22.6429   38.1999   14.4652 N   0  0  0  0  0  0  0  0  0  0  0  0
   23.1142   38.8044   15.6391 C   0  0  0  0  0  0  0  0  0  0  0  0
   24.0458   39.8070   15.8383 C   0  0  0  0  0  0  0  0  0  0  0  0
   24.5887   40.3886   14.7726 N   0  0  0  0  0  0  0  0  0  0  0  0
   24.3130   40.1818   17.1075 N   0  0  0  0  0  0  0  0  0  0  0  0
   23.6759   39.5719   18.0861 C   0  0  0  0  0  0  0  0  0  0  0  0
   22.7685   38.6084   18.0257 N   0  0  0  0  0  0  0  0  0  0  0  0
   22.5295   38.2710   16.7297 C   0  0  0  0  0  0  0  0  0  0  0  0
   24.3575   40.0739   13.8689 H   0  0  0  0  0  0  0  0  0  0  0  0
   25.2217   41.1338   14.8874 H   0  0  0  0  0  0  0  0  0  0  0  0
   19.2284   33.7828   16.3607 C   0  0  0  0  0  0  0  0  0  0  0  0
   19.8998   32.5726   16.5181 O   0  0  0  0  0  0  0  0  0  0  0  0
   19.6013   31.3971   15.5577 P   0  0  0  0  0  0  0  0  0  0  0  0
   20.7015   30.3993   15.5324 O   0  0  0  0  0  0  0  0  0  0  0  0
   19.1065   31.9647   14.2744 O   0  0  0  0  0  0  0  0  0  0  0  0
   18.9124   31.2436   13.6553 H   0  0  0  0  0  0  0  0  0  0  0  0
   18.4208   30.7839   16.5010 O   0  0  0  0  0  0  0  0  0  0  0  0
   17.7820   29.3291   16.7433 P   0  0  0  0  0  0  0  0  0  0  0  0
   17.2607   29.4404   18.1311 O   0  0  0  0  0  0  0  0  0  0  0  0
   18.7997   28.2876   16.5869 O   0  0  0  0  0  0  0  0  0  0  0  0
   16.7113   29.2159   15.7380 O   0  0  0  0  0  0  0  0  0  0  0  0
   18.3975   27.4176   16.7362 H   0  0  0  0  0  0  0  0  0  0  0  0
   16.2760   28.3534   15.8249 H   0  0  0  0  0  0  0  0  0  0  0  0
 29 30  2  0  0  0
 29 31  1  0  0  0
 29 32  1  0  0  0
 29 28  1  0  0  0
 24 25  2  0  0  0
 24 26  1  0  0  0
 24 28  1  0  0  0
 24 23  1  0  0  0
 23 22  1  0  0  0
 22  1  1  0  0  0
  1  2  1  0  0  0
  1  3  1  0  0  0
  2  7  1  0  0  0
  3  4  1  0  0  0
  3  5  1  0  0  0
  5  6  1  0  0  0
  5  7  1  0  0  0
  7 10  1  0  0  0
 10 11  1  0  0  0
 10 19  1  0  0  0
 11 12  2  0  0  0
 12 13  1  0  0  0
 13 14  1  0  0  0
 13 19  2  0  0  0
 14 15  1  0  0  0
 14 16  2  0  0  0
 16 17  1  0  0  0
 17 18  2  0  0  0
 18 19  1  0  0  0
 31 33  1  0  0  0
 32 34  1  0  0  0
 26 27  1  0  0  0
  4  8  1  0  0  0
  6  9  1  0  0  0
 15 20  1  0  0  0
 15 21  1  0  0  0
M  END
> <minimizedAffinity>
-11.45590

$$$$
1ATR_ADP_A_486


 34 36  0  0  0  0  0  0  0  0999 V2000
   19.7125   34.5603   17.5079 C   0  0  0  0  0  0  0  0  0  0  0  0
   20.8303   35.3835   17.2318 O   0  0  0  0  0  0  0  0  0  0  0  0
   18.5696   35.5782   17.8742 C   0  0  0  0  0  0  0  0  0  0  0  0
   18.5700   35.6252   19.2919 O   0  0  0  0  0  0  0  0  0  0  0  0
   19.0649   36.8699   17.2649 C   0  0  0  0  0  0  0  0  0  0  0  0
   18.5302   38.0045   17.9732 O   0  0  0  0  0  0  0  0  0  0  0  0
   20.5493   36.7123   17.5783 C   0  0  0  0  0  0  0  0  0  0  0  0
   19.4638   35.8297   19.6084 H   0  0  0  0  0  0  0  0  0  0  0  0
   18.7309   37.9195   18.9184 H   0  0  0  0  0  0  0  0  0  0  0  0
   21.3782   37.6403   16.7853 N   0  0  0  0  0  0  0  0  0  0  0  0
   22.3107   38.6022   17.0997 C   0  0  0  0  0  0  0  0  0  0  0  0
   22.9493   39.0918   16.0603 N   0  0  0  0  0  0  0  0  0  0  0  0
   22.3688   38.3910   14.9938 C   0  0  0  0  0  0  0  0  0  0  0  0
   22.5998   38.4480   13.6313 C   0  0  0  0  0  0  0  0  0  0  0  0
   23.5697   39.2414   13.1857 N   0  0  0  0  0  0  0  0  0  0  0  0
   21.8638   37.6497   12.8290 N   0  0  0  0  0  0  0  0  0  0  0  0
   20.9650   36.8634   13.3851 C   0  0  0  0  0  0  0  0  0  0  0  0
   20.6537   36.7166   14.6645 N   0  0  0  0  0  0  0  0  0  0  0  0
   21.4245   37.5347   15.4307 C   0  0  0  0  0  0  0  0  0  0  0  0
   24.0750   39.8032   13.8167 H   0  0  0  0  0  0  0  0  0  0  0  0
   23.7823   39.2668   12.2248 H   0  0  0  0  0  0  0  0  0  0  0  0
   19.6299   33.7575   16.2358 C   0  0  0  0  0  0  0  0  0  0  0  0
   19.9912   32.4336   16.4745 O   0  0  0  0  0  0  0  0  0  0  0  0
   19.6254   31.3390   15.4443 P   0  0  0  0  0  0  0  0  0  0  0  0
   20.6457   30.2610   15.3842 O   0  0  0  0  0  0  0  0  0  0  0  0
   19.2062   32.0126   14.1855 O   0  0  0  0  0  0  0  0  0  0  0  0
   18.9716   31.3436   13.5235 H   0  0  0  0  0  0  0  0  0  0  0  0
   18.3794   30.7699   16.3290 O   0  0  0  0  0  0  0  0  0  0  0  0
   17.7923   29.3170   16.6864 P   0  0  0  0  0  0  0  0  0  0  0  0
   17.3808   29.4832   18.1053 O   0  0  0  0  0  0  0  0  0  0  0  0
   18.8157   28.2870   16.4952 O   0  0  0  0  0  0  0  0  0  0  0  0
   16.6476   29.1393   15.7765 O   0  0  0  0  0  0  0  0  0  0  0  0
   18.4450   27.4181   16.7150 H   0  0  0  0  0  0  0  0  0  0  0  0
   16.2386   28.2744   15.9365 H   0  0  0  0  0  0  0  0  0  0  0  0
 29 30  2  0  0  0
 29 31  1  0  0  0
 29 32  1  0  0  0
 29 28  1  0  0  0
 24 25  2  0  0  0
 24 26  1  0  0  0
 24 28  1  0  0  0
 24 23  1  0  0  0
 23 22  1  0  0  0
 22  1  1  0  0  0
  1  2  1  0  0  0
  1  3  1  0  0  0
  2  7  1  0  0  0
  3  4  1  0  0  0
  3  5  1  0  0  0
  5  6  1  0  0  0
  5  7  1  0  0  0
  7 10  1  0  0  0
 10 11  1  0  0  0
 10 19  1  0  0  0
 11 12  2  0  0  0
 12 13  1  0  0  0
 13 14  1  0  0  0
 13 19  2  0  0  0
 14 15  1  0  0  0
 14 16  2  0  0  0
 16 17  1  0  0  0
 17 18  2  0  0  0
 18 19  1  0  0  0
 31 33  1  0  0  0
 32 34  1  0  0  0
 26 27  1  0  0  0
  4  8  1  0  0  0
  6  9  1  0  0  0
 15 20  1  0  0  0
 15 21  1  0  0  0
M  END
> <minimizedAffinity>
-10.30205

$$$$
1ATR_ADP_A_486


 34 36  0  0  0  0  0  0  0  0999 V2000
   19.5272   34.3570   17.1943 C   0  0  0  0  0  0  0  0  0  0  0  0
   20.7177   35.0451   16.8590 O   0  0  0  0  0  0  0  0  0  0  0  0
   18.5212   35.5022   17.5854 C   0  0  0  0  0  0  0  0  0  0  0  0
   18.5849   35.5697   19.0008 O   0  0  0  0  0  0  0  0  0  0  0  0
   19.1325   36.7210   16.9326 C   0  0  0  0  0  0  0  0  0  0  0  0
   18.7574   37.9188   17.6394 O   0  0  0  0  0  0  0  0  0  0  0  0
   20.6015   36.4020   17.1908 C   0  0  0  0  0  0  0  0  0  0  0  0
   19.5081   35.6770   19.2782 H   0  0  0  0  0  0  0  0  0  0  0  0
   18.9859   37.8256   18.5775 H   0  0  0  0  0  0  0  0  0  0  0  0
   21.4958   37.2191   16.3483 N   0  0  0  0  0  0  0  0  0  0  0  0
   21.5659   37.4855   15.0001 C   0  0  0  0  0  0  0  0  0  0  0  0
   22.4327   38.4209   14.6814 N   0  0  0  0  0  0  0  0  0  0  0  0
   22.9666   38.7732   15.9290 C   0  0  0  0  0  0  0  0  0  0  0  0
   23.9317   39.6999   16.2795 C   0  0  0  0  0  0  0  0  0  0  0  0
   24.4463   40.4706   15.3257 N   0  0  0  0  0  0  0  0  0  0  0  0
   24.2596   39.8117   17.5844 N   0  0  0  0  0  0  0  0  0  0  0  0
   23.6465   39.0321   18.4515 C   0  0  0  0  0  0  0  0  0  0  0  0
   22.7123   38.1159   18.2435 N   0  0  0  0  0  0  0  0  0  0  0  0
   22.4125   38.0455   16.9185 C   0  0  0  0  0  0  0  0  0  0  0  0
   24.1706   40.3448   14.3890 H   0  0  0  0  0  0  0  0  0  0  0  0
   25.1029   41.1670   15.5564 H   0  0  0  0  0  0  0  0  0  0  0  0
   19.3033   33.5500   15.9420 C   0  0  0  0  0  0  0  0  0  0  0  0
   18.5040   32.4426   16.2161 O   0  0  0  0  0  0  0  0  0  0  0  0
   19.0862   31.0175   16.0634 P   0  0  0  0  0  0  0  0  0  0  0  0
   18.2585   29.9957   16.7544 O   0  0  0  0  0  0  0  0  0  0  0  0
   20.5454   31.0828   16.3473 O   0  0  0  0  0  0  0  0  0  0  0  0
   20.9322   30.1979   16.2572 H   0  0  0  0  0  0  0  0  0  0  0  0
   18.7317   30.9257   14.4743 O   0  0  0  0  0  0  0  0  0  0  0  0
   19.3103   30.1159   13.2122 P   0  0  0  0  0  0  0  0  0  0  0  0
   20.7147   29.8530   13.6229 O   0  0  0  0  0  0  0  0  0  0  0  0
   19.2024   30.9188   11.9922 O   0  0  0  0  0  0  0  0  0  0  0  0
   18.4956   28.8905   13.1454 O   0  0  0  0  0  0  0  0  0  0  0  0
   19.5556   30.4158   11.2418 H   0  0  0  0  0  0  0  0  0  0  0  0
   18.7910   28.3461   12.3990 H   0  0  0  0  0  0  0  0  0  0  0  0
 29 30  2  0  0  0
 29 31  1  0  0  0
 29 32  1  0  0  0
 29 28  1  0  0  0
 24 25  2  0  0  0
 24 26  1  0  0  0
 24 28  1  0  0  0
 24 23  1  0  0  0
 23 22  1  0  0  0
 22  1  1  0  0  0
  1  2  1  0  0  0
  1  3  1  0  0  0
  2  7  1  0  0  0
  3  4  1  0  0  0
  3  5  1  0  0  0
  5  6  1  0  0  0
  5  7  1  0  0  0
  7 10  1  0  0  0
 10 11  1  0  0  0
 10 19  1  0  0  0
 11 12  2  0  0  0
 12 13  1  0  0  0
 13 14  1  0  0  0
 13 19  2  0  0  0
 14 15  1  0  0  0
 14 16  2  0  0  0
 16 17  1  0  0  0
 17 18  2  0  0  0
 18 19  1  0  0  0
 31 33  1  0  0  0
 32 34  1  0  0  0
 26 27  1  0  0  0
  4  8  1  0  0  0
  6  9  1  0  0  0
 15 20  1  0  0  0
 15 21  1  0  0  0
M  END
> <minimizedAffinity>
-9.97276

$$$$
1ATR_ADP_A_486


 34 36  0  0  0  0  0  0  0  0999 V2000
   19.6289   32.9268   16.2209 C   0  0  0  0  0  0  0  0  0  0  0  0
   20.1122   33.4075   14.9805 O   0  0  0  0  0  0  0  0  0  0  0  0
   19.3145   34.2329   17.0405 C   0  0  0  0  0  0  0  0  0  0  0  0
   20.4616   34.4352   17.8499 O   0  0  0  0  0  0  0  0  0  0  0  0
   19.1914   35.2834   15.9605 C   0  0  0  0  0  0  0  0  0  0  0  0
   19.5173   36.5871   16.4792 O   0  0  0  0  0  0  0  0  0  0  0  0
   20.3069   34.7943   15.0423 C   0  0  0  0  0  0  0  0  0  0  0  0
   21.2544   34.4427   17.2911 H   0  0  0  0  0  0  0  0  0  0  0  0
   20.3929   36.5598   16.8957 H   0  0  0  0  0  0  0  0  0  0  0  0
   20.2096   35.3909   13.6963 N   0  0  0  0  0  0  0  0  0  0  0  0
   19.4073   35.1641   12.6016 C   0  0  0  0  0  0  0  0  0  0  0  0
   19.5430   36.0526   11.6424 N   0  0  0  0  0  0  0  0  0  0  0  0
   20.5201   36.9116   12.1648 C   0  0  0  0  0  0  0  0  0  0  0  0
   21.1096   38.0481   11.6416 C   0  0  0  0  0  0  0  0  0  0  0  0
   20.6828   38.4995   10.4658 N   0  0  0  0  0  0  0  0  0  0  0  0
   22.0505   38.6727   12.3815 N   0  0  0  0  0  0  0  0  0  0  0  0
   22.3582   38.1659   13.5579 C   0  0  0  0  0  0  0  0  0  0  0  0
   21.8684   37.0951   14.1654 N   0  0  0  0  0  0  0  0  0  0  0  0
   20.9224   36.5060   13.3853 C   0  0  0  0  0  0  0  0  0  0  0  0
   19.9935   38.0027    9.9686 H   0  0  0  0  0  0  0  0  0  0  0  0
   21.0561   39.3305   10.0925 H   0  0  0  0  0  0  0  0  0  0  0  0
   18.5054   32.0345   15.7614 C   0  0  0  0  0  0  0  0  0  0  0  0
   18.4206   30.9059   16.5734 O   0  0  0  0  0  0  0  0  0  0  0  0
   18.0744   29.5336   15.9487 P   0  0  0  0  0  0  0  0  0  0  0  0
   18.6037   29.3959   14.5675 O   0  0  0  0  0  0  0  0  0  0  0  0
   16.6344   29.2606   16.2048 O   0  0  0  0  0  0  0  0  0  0  0  0
   16.3946   28.4028   15.8208 H   0  0  0  0  0  0  0  0  0  0  0  0
   19.0821   28.7102   16.9315 O   0  0  0  0  0  0  0  0  0  0  0  0
   18.9973   27.3537   17.7895 P   0  0  0  0  0  0  0  0  0  0  0  0
   18.9681   27.8645   19.1853 O   0  0  0  0  0  0  0  0  0  0  0  0
   20.1499   26.4947   17.5093 O   0  0  0  0  0  0  0  0  0  0  0  0
   17.7266   26.7297   17.3826 O   0  0  0  0  0  0  0  0  0  0  0  0
   20.0827   25.6820   18.0345 H   0  0  0  0  0  0  0  0  0  0  0  0
   17.6063   25.8968   17.8650 H   0  0  0  0  0  0  0  0  0  0  0  0
 29 30  2  0  0  0
 29 31  1  0  0  0
 29 32  1  0  0  0
 29 28  1  0  0  0
 24 25  2  0  0  0
 24 26  1  0  0  0
 24 28  1  0  0  0
 24 23  1  0  0  0
 23 22  1  0  0  0
 22  1  1  0  0  0
  1  2  1  0  0  0
  1  3  1  0  0  0
  2  7  1  0  0  0
  3  4  1  0  0  0
  3  5  1  0  0  0
  5  6  1  0  0  0
  5  7  1  0  0  0
  7 10  1  0  0  0
 10 11  1  0  0  0
 10 19  1  0  0  0
 11 12  2  0  0  0
 12 13  1  0  0  0
 13 14  1  0  0  0
 13 19  2  0  0  0
 14 15  1  0  0  0
 14 16  2  0  0  0
 16 17  1  0  0  0
 17 18  2  0  0  0
 18 19  1  0  0  0
 31 33  1  0  0  0
 32 34  1  0  0  0
 26 27  1  0  0  0
  4  8  1  0  0  0
  6  9  1  0  0  0
 15 20  1  0  0  0
 15 21  1  0  0  0
M  END
> <minimizedAffinity>
-9.95753

$$$$
1ATR_ADP_A_486


 34 36  0  0  0  0  0  0  0  0999 V2000
   19.9044   37.2672   17.1642 C   0  0  0  0  0  0  0  0  0  0  0  0
   19.3403   36.5097   16.1100 O   0  0  0  0  0  0  0  0  0  0  0  0
   20.5234   36.1845   18.1240 C   0  0  0  0  0  0  0  0  0  0  0  0
   19.5395   35.9873   19.1265 O   0  0  0  0  0  0  0  0  0  0  0  0
   20.6623   34.9792   17.2223 C   0  0  0  0  0  0  0  0  0  0  0  0
   20.6140   33.7612   17.9899 O   0  0  0  0  0  0  0  0  0  0  0  0
   19.3724   35.1442   16.4252 C   0  0  0  0  0  0  0  0  0  0  0  0
   18.6901   35.7755   18.7087 H   0  0  0  0  0  0  0  0  0  0  0  0
   19.8081   33.7510   18.5297 H   0  0  0  0  0  0  0  0  0  0  0  0
   19.3805   34.3293   15.1951 N   0  0  0  0  0  0  0  0  0  0  0  0
   19.6751   34.5860   13.8757 C   0  0  0  0  0  0  0  0  0  0  0  0
   19.7191   33.5139   13.1164 N   0  0  0  0  0  0  0  0  0  0  0  0
   19.4179   32.4897   14.0252 C   0  0  0  0  0  0  0  0  0  0  0  0
   19.3029   31.1222   13.8533 C   0  0  0  0  0  0  0  0  0  0  0  0
   19.5685   30.6095   12.6553 N   0  0  0  0  0  0  0  0  0  0  0  0
   18.9812   30.3724   14.9290 N   0  0  0  0  0  0  0  0  0  0  0  0
   18.7916   30.9821   16.0812 C   0  0  0  0  0  0  0  0  0  0  0  0
   18.8739   32.2720   16.3727 N   0  0  0  0  0  0  0  0  0  0  0  0
   19.2057   32.9827   15.2612 C   0  0  0  0  0  0  0  0  0  0  0  0
   19.7978   31.2044   11.9051 H   0  0  0  0  0  0  0  0  0  0  0  0
   19.5359   29.6351   12.5187 H   0  0  0  0  0  0  0  0  0  0  0  0
   20.8051   38.1979   16.3947 C   0  0  0  0  0  0  0  0  0  0  0  0
   20.9542   37.7530   15.0832 O   0  0  0  0  0  0  0  0  0  0  0  0
   22.3551   37.7497   14.4270 P   0  0  0  0  0  0  0  0  0  0  0  0
   22.6719   36.4476   13.7860 O   0  0  0  0  0  0  0  0  0  0  0  0
   23.3198   38.3350   15.3970 O   0  0  0  0  0  0  0  0  0  0  0  0
   24.2073   38.3429   15.0055 H   0  0  0  0  0  0  0  0  0  0  0  0
   21.9193   38.7756   13.2366 O   0  0  0  0  0  0  0  0  0  0  0  0
   22.0773   38.8147   11.6376 P   0  0  0  0  0  0  0  0  0  0  0  0
   20.9309   39.6681   11.2280 O   0  0  0  0  0  0  0  0  0  0  0  0
   22.0215   37.4610   11.0817 O   0  0  0  0  0  0  0  0  0  0  0  0
   23.3813   39.4587   11.4038 O   0  0  0  0  0  0  0  0  0  0  0  0
   22.1182   37.5032   10.1174 H   0  0  0  0  0  0  0  0  0  0  0  0
   23.5465   39.5174   10.4498 H   0  0  0  0  0  0  0  0  0  0  0  0
 29 30  2  0  0  0
 29 31  1  0  0  0
 29 32  1  0  0  0
 29 28  1  0  0  0
 24 25  2  0  0  0
 24 26  1  0  0  0
 24 28  1  0  0  0
 24 23  1  0  0  0
 23 22  1  0  0  0
 22  1  1  0  0  0
  1  2  1  0  0  0
  1  3  1  0  0  0
  2  7  1  0  0  0
  3  4  1  0  0  0
  3  5  1  0  0  0
  5  6  1  0  0  0
  5  7  1  0  0  0
  7 10  1  0  0  0
 10 11  1  0  0  0
 10 19  1  0  0  0
 11 12  2  0  0  0
 12 13  1  0  0  0
 13 14  1  0  0  0
 13 19  2  0  0  0
 14 15  1  0  0  0
 14 16  2  0  0  0
 16 17  1  0  0  0
 17 18  2  0  0  0
 18 19  1  0  0  0
 31 33  1  0  0  0
 32 34  1  0  0  0
 26 27  1  0  0  0
  4  8  1  0  0  0
  6  9  1  0  0  0
 15 20  1  0  0  0
 15 21  1  0  0  0
M  END
> <minimizedAffinity>
-9.89436

$$$$
1ATR_ADP_A_486


 34 36  0  0  0  0  0  0  0  0999 V2000
   19.6858   37.2570   17.2242 C   0  0  0  0  0  0  0  0  0  0  0  0
   19.1883   36.4715   16.1570 O   0  0  0  0  0  0  0  0  0  0  0  0
   20.3390   36.2080   18.1985 C   0  0  0  0  0  0  0  0  0  0  0  0
   19.3437   35.9571   19.1774 O   0  0  0  0  0  0  0  0  0  0  0  0
   20.5638   35.0128   17.3005 C   0  0  0  0  0  0  0  0  0  0  0  0
   20.5626   33.7932   18.0669 O   0  0  0  0  0  0  0  0  0  0  0  0
   19.2861   35.1094   16.4730 C   0  0  0  0  0  0  0  0  0  0  0  0
   18.5170   35.7006   18.7396 H   0  0  0  0  0  0  0  0  0  0  0  0
   19.7459   33.7392   18.5874 H   0  0  0  0  0  0  0  0  0  0  0  0
   19.3670   34.2975   15.2436 N   0  0  0  0  0  0  0  0  0  0  0  0
   19.7561   34.5529   13.9486 C   0  0  0  0  0  0  0  0  0  0  0  0
   19.8364   33.4821   13.1904 N   0  0  0  0  0  0  0  0  0  0  0  0
   19.4576   32.4604   14.0726 C   0  0  0  0  0  0  0  0  0  0  0  0
   19.3342   31.0952   13.8884 C   0  0  0  0  0  0  0  0  0  0  0  0
   19.6743   30.5815   12.7098 N   0  0  0  0  0  0  0  0  0  0  0  0
   18.9275   30.3478   14.9365 N   0  0  0  0  0  0  0  0  0  0  0  0
   18.6678   30.9575   16.0750 C   0  0  0  0  0  0  0  0  0  0  0  0
   18.7492   32.2453   16.3760 N   0  0  0  0  0  0  0  0  0  0  0  0
   19.1678   32.9536   15.2927 C   0  0  0  0  0  0  0  0  0  0  0  0
   19.9639   31.1747   11.9794 H   0  0  0  0  0  0  0  0  0  0  0  0
   19.6365   29.6080   12.5678 H   0  0  0  0  0  0  0  0  0  0  0  0
   20.5533   38.2356   16.4761 C   0  0  0  0  0  0  0  0  0  0  0  0
   20.8980   37.7215   15.2283 O   0  0  0  0  0  0  0  0  0  0  0  0
   22.3288   37.9314   14.6788 P   0  0  0  0  0  0  0  0  0  0  0  0
   22.4287   39.1387   13.8191 O   0  0  0  0  0  0  0  0  0  0  0  0
   22.8184   36.6266   14.1576 O   0  0  0  0  0  0  0  0  0  0  0  0
   23.7163   36.7348   13.8071 H   0  0  0  0  0  0  0  0  0  0  0  0
   22.9465   38.3284   16.1349 O   0  0  0  0  0  0  0  0  0  0  0  0
   24.0124   39.4022   16.6774 P   0  0  0  0  0  0  0  0  0  0  0  0
   23.1919   40.2168   17.6120 O   0  0  0  0  0  0  0  0  0  0  0  0
   24.5715   40.1780   15.5682 O   0  0  0  0  0  0  0  0  0  0  0  0
   25.0372   38.5999   17.3672 O   0  0  0  0  0  0  0  0  0  0  0  0
   25.2117   40.8200   15.9130 H   0  0  0  0  0  0  0  0  0  0  0  0
   25.7212   39.1875   17.7248 H   0  0  0  0  0  0  0  0  0  0  0  0
 29 30  2  0  0  0
 29 31  1  0  0  0
 29 32  1  0  0  0
 29 28  1  0  0  0
 24 25  2  0  0  0
 24 26  1  0  0  0
 24 28  1  0  0  0
 24 23  1  0  0  0
 23 22  1  0  0  0
 22  1  1  0  0  0
  1  2  1  0  0  0
  1  3  1  0  0  0
  2  7  1  0  0  0
  3  4  1  0  0  0
  3  5  1  0  0  0
  5  6  1  0  0  0
  5  7  1  0  0  0
  7 10  1  0  0  0
 10 11  1  0  0  0
 10 19  1  0  0  0
 11 12  2  0  0  0
 12 13  1  0  0  0
 13 14  1  0  0  0
 13 19  2  0  0  0
 14 15  1  0  0  0
 14 16  2  0  0  0
 16 17  1  0  0  0
 17 18  2  0  0  0
 18 19  1  0  0  0
 31 33  1  0  0  0
 32 34  1  0  0  0
 26 27  1  0  0  0
  4  8  1  0  0  0
  6  9  1  0  0  0
 15 20  1  0  0  0
 15 21  1  0  0  0
M  END
> <minimizedAffinity>
-9.85759

$$$$
1ATR_ADP_A_486


 34 36  0  0  0  0  0  0  0  0999 V2000
   19.5403   31.5149   15.5382 C   0  0  0  0  0  0  0  0  0  0  0  0
   19.6507   30.5738   16.5896 O   0  0  0  0  0  0  0  0  0  0  0  0
   18.8269   30.7170   14.3846 C   0  0  0  0  0  0  0  0  0  0  0  0
   19.8820   30.2771   13.5450 O   0  0  0  0  0  0  0  0  0  0  0  0
   18.1765   29.5702   15.1244 C   0  0  0  0  0  0  0  0  0  0  0  0
   18.0135   28.4321   14.2567 O   0  0  0  0  0  0  0  0  0  0  0  0
   19.2841   29.2987   16.1375 C   0  0  0  0  0  0  0  0  0  0  0  0
   20.5385   29.7982   14.0747 H   0  0  0  0  0  0  0  0  0  0  0  0
   18.8686   28.2027   13.8602 H   0  0  0  0  0  0  0  0  0  0  0  0
   18.8077   28.4686   17.2605 N   0  0  0  0  0  0  0  0  0  0  0  0
   18.0020   28.7010   18.3516 C   0  0  0  0  0  0  0  0  0  0  0  0
   17.6888   27.6187   19.0286 N   0  0  0  0  0  0  0  0  0  0  0  0
   18.3584   26.6142   18.3158 C   0  0  0  0  0  0  0  0  0  0  0  0
   18.4346   25.2481   18.5181 C   0  0  0  0  0  0  0  0  0  0  0  0
   17.7265   24.7137   19.5088 N   0  0  0  0  0  0  0  0  0  0  0  0
   19.1818   24.5205   17.6608 N   0  0  0  0  0  0  0  0  0  0  0  0
   19.7992   25.1493   16.6816 C   0  0  0  0  0  0  0  0  0  0  0  0
   19.8031   26.4401   16.3827 N   0  0  0  0  0  0  0  0  0  0  0  0
   19.0334   27.1280   17.2687 C   0  0  0  0  0  0  0  0  0  0  0  0
   17.1988   25.2930   20.1048 H   0  0  0  0  0  0  0  0  0  0  0  0
   17.7300   23.7389   19.6462 H   0  0  0  0  0  0  0  0  0  0  0  0
   18.8200   32.6384   16.2371 C   0  0  0  0  0  0  0  0  0  0  0  0
   19.5127   33.8353   16.0706 O   0  0  0  0  0  0  0  0  0  0  0  0
   19.6061   34.8392   17.2439 P   0  0  0  0  0  0  0  0  0  0  0  0
   20.6990   34.4970   18.1901 O   0  0  0  0  0  0  0  0  0  0  0  0
   18.2325   35.0611   17.7711 O   0  0  0  0  0  0  0  0  0  0  0  0
   18.2671   35.6891   18.5096 H   0  0  0  0  0  0  0  0  0  0  0  0
   20.1510   36.0547   16.3031 O   0  0  0  0  0  0  0  0  0  0  0  0
   20.8736   37.4681   16.5550 P   0  0  0  0  0  0  0  0  0  0  0  0
   19.7581   38.3057   17.0689 O   0  0  0  0  0  0  0  0  0  0  0  0
   21.4569   37.9766   15.3116 O   0  0  0  0  0  0  0  0  0  0  0  0
   21.8976   37.1906   17.5769 O   0  0  0  0  0  0  0  0  0  0  0  0
   21.8881   38.8287   15.4816 H   0  0  0  0  0  0  0  0  0  0  0  0
   22.3796   38.0070   17.7817 H   0  0  0  0  0  0  0  0  0  0  0  0
 29 30  2  0  0  0
 29 31  1  0  0  0
 29 32  1  0  0  0
 29 28  1  0  0  0
 24 25  2  0  0  0
 24 26  1  0  0  0
 24 28  1  0  0  0
 24 23  1  0  0  0
 23 22  1  0  0  0
 22  1  1  0  0  0
  1  2  1  0  0  0
  1  3  1  0  0  0
  2  7  1  0  0  0
  3  4  1  0  0  0
  3  5  1  0  0  0
  5  6  1  0  0  0
  5  7  1  0  0  0
  7 10  1  0  0  0
 10 11  1  0  0  0
 10 19  1  0  0  0
 11 12  2  0  0  0
 12 13  1  0  0  0
 13 14  1  0  0  0
 13 19  2  0  0  0
 14 15  1  0  0  0
 14 16  2  0  0  0
 16 17  1  0  0  0
 17 18  2  0  0  0
 18 19  1  0  0  0
 31 33  1  0  0  0
 32 34  1  0  0  0
 26 27  1  0  0  0
  4  8  1  0  0  0
  6  9  1  0  0  0
 15 20  1  0  0  0
 15 21  1  0  0  0
M  END
> <minimizedAffinity>
-9.78440

$$$$
1ATR_ADP_A_486


 34 36  0  0  0  0  0  0  0  0999 V2000
   18.6079   36.3969   18.1240 C   0  0  0  0  0  0  0  0  0  0  0  0
   18.5264   35.2833   17.2542 O   0  0  0  0  0  0  0  0  0  0  0  0
   19.9359   37.1225   17.6923 C   0  0  0  0  0  0  0  0  0  0  0  0
   20.9153   36.6543   18.6053 O   0  0  0  0  0  0  0  0  0  0  0  0
   20.1662   36.5941   16.2948 C   0  0  0  0  0  0  0  0  0  0  0  0
   21.5679   36.6233   15.9643 O   0  0  0  0  0  0  0  0  0  0  0  0
   19.7141   35.1549   16.5209 C   0  0  0  0  0  0  0  0  0  0  0  0
   20.9200   35.6843   18.6051 H   0  0  0  0  0  0  0  0  0  0  0  0
   22.0707   36.1502   16.6457 H   0  0  0  0  0  0  0  0  0  0  0  0
   19.4626   34.4533   15.2474 N   0  0  0  0  0  0  0  0  0  0  0  0
   19.2805   34.8621   13.9461 C   0  0  0  0  0  0  0  0  0  0  0  0
   19.2524   33.8797   13.0732 N   0  0  0  0  0  0  0  0  0  0  0  0
   19.4207   32.7502   13.8865 C   0  0  0  0  0  0  0  0  0  0  0  0
   19.4764   31.4033   13.5772 C   0  0  0  0  0  0  0  0  0  0  0  0
   19.4279   31.0445   12.2976 N   0  0  0  0  0  0  0  0  0  0  0  0
   19.6346   30.5256   14.5907 N   0  0  0  0  0  0  0  0  0  0  0  0
   19.7243   30.9975   15.8174 C   0  0  0  0  0  0  0  0  0  0  0  0
   19.6881   32.2530   16.2392 N   0  0  0  0  0  0  0  0  0  0  0  0
   19.5343   33.0972   15.1837 C   0  0  0  0  0  0  0  0  0  0  0  0
   19.3107   31.7280   11.5988 H   0  0  0  0  0  0  0  0  0  0  0  0
   19.5092   30.0953   12.0491 H   0  0  0  0  0  0  0  0  0  0  0  0
   17.2740   37.0510   17.8736 C   0  0  0  0  0  0  0  0  0  0  0  0
   16.3336   36.6020   18.7978 O   0  0  0  0  0  0  0  0  0  0  0  0
   14.8244   36.7241   18.4802 P   0  0  0  0  0  0  0  0  0  0  0  0
   14.1245   35.4168   18.5684 O   0  0  0  0  0  0  0  0  0  0  0  0
   14.6778   37.5443   17.2474 O   0  0  0  0  0  0  0  0  0  0  0  0
   13.7370   37.6342   17.0289 H   0  0  0  0  0  0  0  0  0  0  0  0
   14.4907   37.5390   19.8527 O   0  0  0  0  0  0  0  0  0  0  0  0
   13.2636   38.4244   20.3946 P   0  0  0  0  0  0  0  0  0  0  0  0
   12.5940   38.8406   19.1341 O   0  0  0  0  0  0  0  0  0  0  0  0
   13.7542   39.5512   21.1911 O   0  0  0  0  0  0  0  0  0  0  0  0
   12.4499   37.4915   21.1928 O   0  0  0  0  0  0  0  0  0  0  0  0
   13.0017   40.0739   21.5096 H   0  0  0  0  0  0  0  0  0  0  0  0
   11.6826   37.9609   21.5559 H   0  0  0  0  0  0  0  0  0  0  0  0
 29 30  2  0  0  0
 29 31  1  0  0  0
 29 32  1  0  0  0
 29 28  1  0  0  0
 24 25  2  0  0  0
 24 26  1  0  0  0
 24 28  1  0  0  0
 24 23  1  0  0  0
 23 22  1  0  0  0
 22  1  1  0  0  0
  1  2  1  0  0  0
  1  3  1  0  0  0
  2  7  1  0  0  0
  3  4  1  0  0  0
  3  5  1  0  0  0
  5  6  1  0  0  0
  5  7  1  0  0  0
  7 10  1  0  0  0
 10 11  1  0  0  0
 10 19  1  0  0  0
 11 12  2  0  0  0
 12 13  1  0  0  0
 13 14  1  0  0  0
 13 19  2  0  0  0
 14 15  1  0  0  0
 14 16  2  0  0  0
 16 17  1  0  0  0
 17 18  2  0  0  0
 18 19  1  0  0  0
 31 33  1  0  0  0
 32 34  1  0  0  0
 26 27  1  0  0  0
  4  8  1  0  0  0
  6  9  1  0  0  0
 15 20  1  0  0  0
 15 21  1  0  0  0
M  END
> <minimizedAffinity>
-9.54061

$$$$
1ATR_ADP_A_486


 34 36  0  0  0  0  0  0  0  0999 V2000
   19.3895   33.2768   16.5055 C   0  0  0  0  0  0  0  0  0  0  0  0
   20.1079   33.7866   15.3976 O   0  0  0  0  0  0  0  0  0  0  0  0
   18.8269   34.5612   17.2199 C   0  0  0  0  0  0  0  0  0  0  0  0
   19.7523   34.8287   18.2610 O   0  0  0  0  0  0  0  0  0  0  0  0
   18.8869   35.6043   16.1273 C   0  0  0  0  0  0  0  0  0  0  0  0
   19.0145   36.9240   16.6903 O   0  0  0  0  0  0  0  0  0  0  0  0
   20.2044   35.1822   15.4850 C   0  0  0  0  0  0  0  0  0  0  0  0
   20.6476   34.8833   17.8917 H   0  0  0  0  0  0  0  0  0  0  0  0
   19.7759   36.9471   17.2909 H   0  0  0  0  0  0  0  0  0  0  0  0
   20.3744   35.7742   14.1441 N   0  0  0  0  0  0  0  0  0  0  0  0
   19.7531   35.5939   12.9296 C   0  0  0  0  0  0  0  0  0  0  0  0
   20.1073   36.4641   12.0103 N   0  0  0  0  0  0  0  0  0  0  0  0
   21.0392   37.2590   12.6924 C   0  0  0  0  0  0  0  0  0  0  0  0
   21.7836   38.3493   12.2799 C   0  0  0  0  0  0  0  0  0  0  0  0
   21.5911   38.8198   11.0510 N   0  0  0  0  0  0  0  0  0  0  0  0
   22.6275   38.9144   13.1694 N   0  0  0  0  0  0  0  0  0  0  0  0
   22.6989   38.3967   14.3786 C   0  0  0  0  0  0  0  0  0  0  0  0
   22.0429   37.3659   14.8912 N   0  0  0  0  0  0  0  0  0  0  0  0
   21.2031   36.8363   13.9613 C   0  0  0  0  0  0  0  0  0  0  0  0
   20.9626   38.3669   10.4434 H   0  0  0  0  0  0  0  0  0  0  0  0
   22.0771   39.6209   10.7489 H   0  0  0  0  0  0  0  0  0  0  0  0
   18.4489   32.3212   15.8187 C   0  0  0  0  0  0  0  0  0  0  0  0
   18.1827   31.2290   16.6411 O   0  0  0  0  0  0  0  0  0  0  0  0
   18.1122   29.8081   16.0334 P   0  0  0  0  0  0  0  0  0  0  0  0
   16.7311   29.2609   16.0435 O   0  0  0  0  0  0  0  0  0  0  0  0
   19.2170   29.0012   16.6184 O   0  0  0  0  0  0  0  0  0  0  0  0
   19.1920   28.1040   16.2505 H   0  0  0  0  0  0  0  0  0  0  0  0
   18.4110   30.3247   14.5157 O   0  0  0  0  0  0  0  0  0  0  0  0
   19.6797   30.3209   13.5289 P   0  0  0  0  0  0  0  0  0  0  0  0
   19.4169   31.5074   12.6726 O   0  0  0  0  0  0  0  0  0  0  0  0
   19.7437   29.0653   12.7779 O   0  0  0  0  0  0  0  0  0  0  0  0
   20.8444   30.5005   14.4126 O   0  0  0  0  0  0  0  0  0  0  0  0
   20.5139   29.0801   12.1884 H   0  0  0  0  0  0  0  0  0  0  0  0
   21.6556   30.5083   13.8807 H   0  0  0  0  0  0  0  0  0  0  0  0
 29 30  2  0  0  0
 29 31  1  0  0  0
 29 32  1  0  0  0
 29 28  1  0  0  0
 24 25  2  0  0  0
 24 26  1  0  0  0
 24 28  1  0  0  0
 24 23  1  0  0  0
 23 22  1  0  0  0
 22  1  1  0  0  0
  1  2  1  0  0  0
  1  3  1  0  0  0
  2  7  1  0  0  0
  3  4  1  0  0  0
  3  5  1  0  0  0
  5  6  1  0  0  0
  5  7  1  0  0  0
  7 10  1  0  0  0
 10 11  1  0  0  0
 10 19  1  0  0  0
 11 12  2  0  0  0
 12 13  1  0  0  0
 13 14  1  0  0  0
 13 19  2  0  0  0
 14 15  1  0  0  0
 14 16  2  0  0  0
 16 17  1  0  0  0
 17 18  2  0  0  0
 18 19  1  0  0  0
 31 33  1  0  0  0
 32 34  1  0  0  0
 26 27  1  0  0  0
  4  8  1  0  0  0
  6  9  1  0  0  0
 15 20  1  0  0  0
 15 21  1  0  0  0
M  END
> <minimizedAffinity>
-9.47062

$$$$
1ATR_ADP_A_486


 34 36  0  0  0  0  0  0  0  0999 V2000
   21.3603   36.5333   13.2984 C   0  0  0  0  0  0  0  0  0  0  0  0
   21.3029   35.3191   14.0235 O   0  0  0  0  0  0  0  0  0  0  0  0
   20.0117   36.5585   12.4880 C   0  0  0  0  0  0  0  0  0  0  0  0
   20.3543   36.0651   11.2030 O   0  0  0  0  0  0  0  0  0  0  0  0
   19.1433   35.5869   13.2543 C   0  0  0  0  0  0  0  0  0  0  0  0
   18.1495   35.0024   12.3908 O   0  0  0  0  0  0  0  0  0  0  0  0
   20.2105   34.5520   13.5958 C   0  0  0  0  0  0  0  0  0  0  0  0
   20.8008   35.2088   11.2940 H   0  0  0  0  0  0  0  0  0  0  0  0
   18.5839   34.6083   11.6182 H   0  0  0  0  0  0  0  0  0  0  0  0
   19.7665   33.6407   14.6681 N   0  0  0  0  0  0  0  0  0  0  0  0
   19.4363   33.8072   15.9935 C   0  0  0  0  0  0  0  0  0  0  0  0
   18.9196   32.7379   16.5571 N   0  0  0  0  0  0  0  0  0  0  0  0
   18.9305   31.8097   15.5064 C   0  0  0  0  0  0  0  0  0  0  0  0
   18.5209   30.4899   15.4508 C   0  0  0  0  0  0  0  0  0  0  0  0
   17.9522   29.9569   16.5283 N   0  0  0  0  0  0  0  0  0  0  0  0
   18.6694   29.8281   14.2834 N   0  0  0  0  0  0  0  0  0  0  0  0
   19.1979   30.4724   13.2631 C   0  0  0  0  0  0  0  0  0  0  0  0
   19.6232   31.7251   13.1897 N   0  0  0  0  0  0  0  0  0  0  0  0
   19.4470   32.3500   14.3851 C   0  0  0  0  0  0  0  0  0  0  0  0
   17.8702   30.4862   17.3543 H   0  0  0  0  0  0  0  0  0  0  0  0
   17.6131   29.0330   16.4999 H   0  0  0  0  0  0  0  0  0  0  0  0
   21.5899   37.5196   14.4138 C   0  0  0  0  0  0  0  0  0  0  0  0
   21.4794   36.8870   15.6499 O   0  0  0  0  0  0  0  0  0  0  0  0
   21.2109   37.7259   16.9217 P   0  0  0  0  0  0  0  0  0  0  0  0
   21.6416   37.0245   18.1583 O   0  0  0  0  0  0  0  0  0  0  0  0
   19.8255   38.2620   16.8362 O   0  0  0  0  0  0  0  0  0  0  0  0
   19.6350   38.7927   17.6255 H   0  0  0  0  0  0  0  0  0  0  0  0
   22.3619   38.8263   16.5702 O   0  0  0  0  0  0  0  0  0  0  0  0
   23.7754   39.2541   17.2046 P   0  0  0  0  0  0  0  0  0  0  0  0
   24.5519   39.6567   16.0025 O   0  0  0  0  0  0  0  0  0  0  0  0
   24.3728   38.1330   17.9334 O   0  0  0  0  0  0  0  0  0  0  0  0
   23.4627   40.3894   18.0896 O   0  0  0  0  0  0  0  0  0  0  0  0
   25.2237   38.4083   18.3090 H   0  0  0  0  0  0  0  0  0  0  0  0
   24.2773   40.7040   18.5119 H   0  0  0  0  0  0  0  0  0  0  0  0
 29 30  2  0  0  0
 29 31  1  0  0  0
 29 32  1  0  0  0
 29 28  1  0  0  0
 24 25  2  0  0  0
 24 26  1  0  0  0
 24 28  1  0  0  0
 24 23  1  0  0  0
 23 22  1  0  0  0
 22  1  1  0  0  0
  1  2  1  0  0  0
  1  3  1  0  0  0
  2  7  1  0  0  0
  3  4  1  0  0  0
  3  5  1  0  0  0
  5  6  1  0  0  0
  5  7  1  0  0  0
  7 10  1  0  0  0
 10 11  1  0  0  0
 10 19  1  0  0  0
 11 12  2  0  0  0
 12 13  1  0  0  0
 13 14  1  0  0  0
 13 19  2  0  0  0
 14 15  1  0  0  0
 14 16  2  0  0  0
 16 17  1  0  0  0
 17 18  2  0  0  0
 18 19  1  0  0  0
 31 33  1  0  0  0
 32 34  1  0  0  0
 26 27  1  0  0  0
  4  8  1  0  0  0
  6  9  1  0  0  0
 15 20  1  0  0  0
 15 21  1  0  0  0
M  END
> <minimizedAffinity>
-9.28740

$$$$
