3DA9_44U_B_1


 31 33  0  0  0  0  0  0  0  0999 V2000
   17.8607  -14.8402   23.5039 C   0  0  0  0  0  0  0  0  0  0  0  0
   16.6899  -15.7262   23.4300 N   0  0  0  0  0  0  0  0  0  0  0  0
   15.8948  -15.2776   23.8848 H   0  0  0  0  0  0  0  0  0  0  0  0
   16.8992  -16.6062   23.9013 H   0  0  0  0  0  0  0  0  0  0  0  0
   17.9723  -11.8823   20.9924 C   0  0  0  0  0  0  0  0  0  0  0  0
   18.9254  -11.8985   19.7745 C   0  0  0  0  0  0  0  0  0  0  0  0
   20.1142  -12.7571   20.2938 C   0  0  0  0  0  0  0  0  0  0  0  0
   19.3603  -13.8236   21.1248 C   0  0  0  0  0  0  0  0  0  0  0  0
   17.5008  -13.5484   22.8160 C   0  0  0  0  0  0  0  0  0  0  0  0
   18.2178  -13.1199   21.7578 N   0  0  0  0  0  0  0  0  0  0  0  0
   16.5583  -12.9065   23.2584 O   0  0  0  0  0  0  0  0  0  0  0  0
   15.6762  -10.9754   21.1426 N   0  0  0  0  0  0  0  0  0  0  0  0
   16.5185  -11.8668   20.5674 C   0  0  0  0  0  0  0  0  0  0  0  0
   16.1336  -12.6709   19.7261 O   0  0  0  0  0  0  0  0  0  0  0  0
   16.0270  -10.3452   21.8127 H   0  0  0  0  0  0  0  0  0  0  0  0
   14.2580  -10.9280   20.7910 C   0  0  0  0  0  0  0  0  0  0  0  0
   12.1011   -9.7625   21.2378 C   0  0  0  0  0  0  0  0  0  0  0  0
   13.5888   -9.8069   21.5907 C   0  0  0  0  0  0  0  0  0  0  0  0
   18.3176  -14.5615   24.9541 C   0  0  0  0  0  0  0  0  0  0  0  0
   18.8886  -16.9636   25.5794 C   0  0  0  0  0  0  0  0  0  0  0  0
   18.7757  -18.0565   26.4384 C   0  0  0  0  0  0  0  0  0  0  0  0
   17.9760  -17.9665   27.5765 C   0  0  0  0  0  0  0  0  0  0  0  0
   17.3054  -16.7804   27.8599 C   0  0  0  0  0  0  0  0  0  0  0  0
   18.2072  -15.7759   25.8595 C   0  0  0  0  0  0  0  0  0  0  0  0
   17.4267  -15.6885   27.0007 C   0  0  0  0  0  0  0  0  0  0  0  0
   19.7290  -13.9897   25.0449 C   0  0  0  0  0  0  0  0  0  0  0  0
   22.3208  -12.9229   25.2217 C   0  0  0  0  0  0  0  0  0  0  0  0
   20.7245  -14.3598   24.1398 C   0  0  0  0  0  0  0  0  0  0  0  0
   22.0082  -13.8329   24.2248 C   0  0  0  0  0  0  0  0  0  0  0  0
   21.3392  -12.5531   26.1390 C   0  0  0  0  0  0  0  0  0  0  0  0
   20.0546  -13.0850   26.0542 C   0  0  0  0  0  0  0  0  0  0  0  0
 17 18  1  0  0  0
 18 16  1  0  0  0
 16 12  1  0  0  0
  6  5  1  0  0  0
 13  5  1  0  0  0
  5 10  1  0  0  0
  6  7  1  0  0  0
  7  8  1  0  0  0
  8 10  1  0  0  0
 10  9  1  0  0  0
  9 11  2  0  0  0
  9  1  1  0  0  0
  2  1  1  0  0  0
  1 19  1  0  0  0
 20 24  2  0  0  0
 20 21  1  0  0  0
 21 22  2  0  0  0
 22 23  1  0  0  0
 25 23  2  0  0  0
 28 26  2  0  0  0
 19 26  1  0  0  0
 26 31  1  0  0  0
 29 27  2  0  0  0
 27 30  1  0  0  0
 13 12  1  0  0  0
 14 13  2  0  0  0
 19 24  1  0  0  0
 24 25  1  0  0  0
 28 29  1  0  0  0
 31 30  2  0  0  0
 12 15  1  0  0  0
  2  3  1  0  0  0
  2  4  1  0  0  0
M  END
> <minimizedAffinity>
-8.91751

$$$$
3DA9_44U_B_1


 31 33  0  0  0  0  0  0  0  0999 V2000
   17.8463  -14.8135   23.4646 C   0  0  0  0  0  0  0  0  0  0  0  0
   16.6816  -15.7095   23.4230 N   0  0  0  0  0  0  0  0  0  0  0  0
   15.8828  -15.2492   23.8594 H   0  0  0  0  0  0  0  0  0  0  0  0
   16.8959  -16.5695   23.9278 H   0  0  0  0  0  0  0  0  0  0  0  0
   18.0213  -11.8788   20.9296 C   0  0  0  0  0  0  0  0  0  0  0  0
   19.0814  -11.8523   19.8039 C   0  0  0  0  0  0  0  0  0  0  0  0
   20.2640  -12.6361   20.4420 C   0  0  0  0  0  0  0  0  0  0  0  0
   19.4982  -13.7359   21.2169 C   0  0  0  0  0  0  0  0  0  0  0  0
   17.4790  -13.5514   22.7275 C   0  0  0  0  0  0  0  0  0  0  0  0
   18.2647  -13.0928   21.7327 N   0  0  0  0  0  0  0  0  0  0  0  0
   16.4653  -12.9603   23.0727 O   0  0  0  0  0  0  0  0  0  0  0  0
   16.1554  -13.1343   19.9004 N   0  0  0  0  0  0  0  0  0  0  0  0
   16.6140  -11.9510   20.3739 C   0  0  0  0  0  0  0  0  0  0  0  0
   15.9286  -10.9350   20.3497 O   0  0  0  0  0  0  0  0  0  0  0  0
   16.7379  -13.9270   19.9409 H   0  0  0  0  0  0  0  0  0  0  0  0
   14.8151  -13.2612   19.3307 C   0  0  0  0  0  0  0  0  0  0  0  0
   14.7202  -14.7941   17.3680 C   0  0  0  0  0  0  0  0  0  0  0  0
   14.9329  -13.3440   17.8064 C   0  0  0  0  0  0  0  0  0  0  0  0
   18.2992  -14.4768   24.9037 C   0  0  0  0  0  0  0  0  0  0  0  0
   17.3842  -15.5304   27.0344 C   0  0  0  0  0  0  0  0  0  0  0  0
   17.2521  -16.6225   27.8916 C   0  0  0  0  0  0  0  0  0  0  0  0
   17.8852  -17.8263   27.5865 C   0  0  0  0  0  0  0  0  0  0  0  0
   18.6342  -17.9385   26.4189 C   0  0  0  0  0  0  0  0  0  0  0  0
   18.1446  -15.6409   25.8669 C   0  0  0  0  0  0  0  0  0  0  0  0
   18.7580  -16.8450   25.5622 C   0  0  0  0  0  0  0  0  0  0  0  0
   19.7264  -13.9434   24.9801 C   0  0  0  0  0  0  0  0  0  0  0  0
   22.3475  -12.9462   25.1293 C   0  0  0  0  0  0  0  0  0  0  0  0
   20.7247  -14.4083   24.1232 C   0  0  0  0  0  0  0  0  0  0  0  0
   22.0229  -13.9162   24.1946 C   0  0  0  0  0  0  0  0  0  0  0  0
   21.3629  -12.4811   25.9987 C   0  0  0  0  0  0  0  0  0  0  0  0
   20.0636  -12.9783   25.9278 C   0  0  0  0  0  0  0  0  0  0  0  0
 17 18  1  0  0  0
 18 16  1  0  0  0
 16 12  1  0  0  0
  6  5  1  0  0  0
 13  5  1  0  0  0
  5 10  1  0  0  0
  6  7  1  0  0  0
  7  8  1  0  0  0
  8 10  1  0  0  0
 10  9  1  0  0  0
  9 11  2  0  0  0
  9  1  1  0  0  0
  2  1  1  0  0  0
  1 19  1  0  0  0
 20 24  2  0  0  0
 20 21  1  0  0  0
 21 22  2  0  0  0
 22 23  1  0  0  0
 25 23  2  0  0  0
 28 26  2  0  0  0
 19 26  1  0  0  0
 26 31  1  0  0  0
 29 27  2  0  0  0
 27 30  1  0  0  0
 13 12  1  0  0  0
 14 13  2  0  0  0
 19 24  1  0  0  0
 24 25  1  0  0  0
 28 29  1  0  0  0
 31 30  2  0  0  0
 12 15  1  0  0  0
  2  3  1  0  0  0
  2  4  1  0  0  0
M  END
> <minimizedAffinity>
-8.37641

$$$$
3DA9_44U_B_1


 31 33  0  0  0  0  0  0  0  0999 V2000
   16.8053  -14.0671   22.0073 C   0  0  0  0  0  0  0  0  0  0  0  0
   16.2378  -13.2417   23.0834 N   0  0  0  0  0  0  0  0  0  0  0  0
   16.6315  -12.3021   23.0348 H   0  0  0  0  0  0  0  0  0  0  0  0
   16.4633  -13.6586   23.9866 H   0  0  0  0  0  0  0  0  0  0  0  0
   15.2577  -13.4952   18.4935 C   0  0  0  0  0  0  0  0  0  0  0  0
   14.2139  -14.4740   17.9068 C   0  0  0  0  0  0  0  0  0  0  0  0
   14.6170  -15.8244   18.5656 C   0  0  0  0  0  0  0  0  0  0  0  0
   15.0144  -15.3478   19.9838 C   0  0  0  0  0  0  0  0  0  0  0  0
   16.4673  -13.4049   20.6964 C   0  0  0  0  0  0  0  0  0  0  0  0
   15.6703  -14.0290   19.8060 N   0  0  0  0  0  0  0  0  0  0  0  0
   16.9496  -12.3042   20.4689 O   0  0  0  0  0  0  0  0  0  0  0  0
   13.7419  -11.9349   19.6704 N   0  0  0  0  0  0  0  0  0  0  0  0
   14.6748  -12.1131   18.7046 C   0  0  0  0  0  0  0  0  0  0  0  0
   15.0473  -11.1918   17.9870 O   0  0  0  0  0  0  0  0  0  0  0  0
   13.4725  -12.7014   20.2264 H   0  0  0  0  0  0  0  0  0  0  0  0
   13.1260  -10.6302   19.9060 C   0  0  0  0  0  0  0  0  0  0  0  0
   12.0082   -9.8979   22.0095 C   0  0  0  0  0  0  0  0  0  0  0  0
   13.3552  -10.2331   21.3668 C   0  0  0  0  0  0  0  0  0  0  0  0
   18.3349  -14.2532   22.1306 C   0  0  0  0  0  0  0  0  0  0  0  0
   18.4335  -14.7385   24.6290 C   0  0  0  0  0  0  0  0  0  0  0  0
   18.9438  -14.4753   25.9000 C   0  0  0  0  0  0  0  0  0  0  0  0
   19.8762  -13.4544   26.0770 C   0  0  0  0  0  0  0  0  0  0  0  0
   20.3065  -12.7116   24.9815 C   0  0  0  0  0  0  0  0  0  0  0  0
   18.8588  -13.9857   23.5309 C   0  0  0  0  0  0  0  0  0  0  0  0
   19.7974  -12.9831   23.7118 C   0  0  0  0  0  0  0  0  0  0  0  0
   18.8178  -15.6228   21.6631 C   0  0  0  0  0  0  0  0  0  0  0  0
   19.6914  -18.1515   20.8095 C   0  0  0  0  0  0  0  0  0  0  0  0
   20.1658  -15.8691   21.4002 C   0  0  0  0  0  0  0  0  0  0  0  0
   20.6012  -17.1201   20.9779 C   0  0  0  0  0  0  0  0  0  0  0  0
   18.3407  -17.9162   21.0578 C   0  0  0  0  0  0  0  0  0  0  0  0
   17.9063  -16.6609   21.4774 C   0  0  0  0  0  0  0  0  0  0  0  0
 17 18  1  0  0  0
 18 16  1  0  0  0
 16 12  1  0  0  0
  6  5  1  0  0  0
 13  5  1  0  0  0
  5 10  1  0  0  0
  6  7  1  0  0  0
  7  8  1  0  0  0
  8 10  1  0  0  0
 10  9  1  0  0  0
  9 11  2  0  0  0
  9  1  1  0  0  0
  2  1  1  0  0  0
  1 19  1  0  0  0
 20 24  2  0  0  0
 20 21  1  0  0  0
 21 22  2  0  0  0
 22 23  1  0  0  0
 25 23  2  0  0  0
 28 26  2  0  0  0
 19 26  1  0  0  0
 26 31  1  0  0  0
 29 27  2  0  0  0
 27 30  1  0  0  0
 13 12  1  0  0  0
 14 13  2  0  0  0
 19 24  1  0  0  0
 24 25  1  0  0  0
 28 29  1  0  0  0
 31 30  2  0  0  0
 12 15  1  0  0  0
  2  3  1  0  0  0
  2  4  1  0  0  0
M  END
> <minimizedAffinity>
-7.43405

$$$$
3DA9_44U_B_1


 31 33  0  0  0  0  0  0  0  0999 V2000
   15.3533  -13.8982   22.0164 C   0  0  0  0  0  0  0  0  0  0  0  0
   14.5833  -15.0842   22.4182 N   0  0  0  0  0  0  0  0  0  0  0  0
   14.6419  -15.7918   21.6859 H   0  0  0  0  0  0  0  0  0  0  0  0
   13.6076  -14.8235   22.5618 H   0  0  0  0  0  0  0  0  0  0  0  0
   19.1034  -13.7604   21.0229 C   0  0  0  0  0  0  0  0  0  0  0  0
   19.7759  -12.4309   20.6084 C   0  0  0  0  0  0  0  0  0  0  0  0
   18.5916  -11.6398   19.9828 C   0  0  0  0  0  0  0  0  0  0  0  0
   17.4372  -12.0494   20.9293 C   0  0  0  0  0  0  0  0  0  0  0  0
   16.7795  -14.3322   21.7951 C   0  0  0  0  0  0  0  0  0  0  0  0
   17.6806  -13.4692   21.2847 N   0  0  0  0  0  0  0  0  0  0  0  0
   17.0784  -15.4843   22.0770 O   0  0  0  0  0  0  0  0  0  0  0  0
   19.5531  -13.6537   23.4526 N   0  0  0  0  0  0  0  0  0  0  0  0
   19.7130  -14.3273   22.2883 C   0  0  0  0  0  0  0  0  0  0  0  0
   20.3505  -15.3725   22.2279 O   0  0  0  0  0  0  0  0  0  0  0  0
   19.0315  -12.8187   23.4576 H   0  0  0  0  0  0  0  0  0  0  0  0
   20.1375  -14.1382   24.7019 C   0  0  0  0  0  0  0  0  0  0  0  0
   20.7519  -12.4018   26.3806 C   0  0  0  0  0  0  0  0  0  0  0  0
   21.2327  -13.1641   25.1446 C   0  0  0  0  0  0  0  0  0  0  0  0
   14.7995  -13.2207   20.7421 C   0  0  0  0  0  0  0  0  0  0  0  0
   12.8072  -14.5179   19.8279 C   0  0  0  0  0  0  0  0  0  0  0  0
   12.2554  -15.4134   18.9122 C   0  0  0  0  0  0  0  0  0  0  0  0
   13.0639  -15.9998   17.9398 C   0  0  0  0  0  0  0  0  0  0  0  0
   14.4163  -15.6772   17.8767 C   0  0  0  0  0  0  0  0  0  0  0  0
   14.1674  -14.2017   19.7700 C   0  0  0  0  0  0  0  0  0  0  0  0
   14.9616  -14.7764   18.7912 C   0  0  0  0  0  0  0  0  0  0  0  0
   13.8142  -12.0934   21.0351 C   0  0  0  0  0  0  0  0  0  0  0  0
   12.0097  -10.0074   21.5629 C   0  0  0  0  0  0  0  0  0  0  0  0
   13.0456  -12.0822   22.1996 C   0  0  0  0  0  0  0  0  0  0  0  0
   12.1518  -11.0506   22.4636 C   0  0  0  0  0  0  0  0  0  0  0  0
   12.7630  -10.0118   20.3906 C   0  0  0  0  0  0  0  0  0  0  0  0
   13.6552  -11.0484   20.1265 C   0  0  0  0  0  0  0  0  0  0  0  0
 17 18  1  0  0  0
 18 16  1  0  0  0
 16 12  1  0  0  0
  6  5  1  0  0  0
 13  5  1  0  0  0
  5 10  1  0  0  0
  6  7  1  0  0  0
  7  8  1  0  0  0
  8 10  1  0  0  0
 10  9  1  0  0  0
  9 11  2  0  0  0
  9  1  1  0  0  0
  2  1  1  0  0  0
  1 19  1  0  0  0
 20 24  2  0  0  0
 20 21  1  0  0  0
 21 22  2  0  0  0
 22 23  1  0  0  0
 25 23  2  0  0  0
 28 26  2  0  0  0
 19 26  1  0  0  0
 26 31  1  0  0  0
 29 27  2  0  0  0
 27 30  1  0  0  0
 13 12  1  0  0  0
 14 13  2  0  0  0
 19 24  1  0  0  0
 24 25  1  0  0  0
 28 29  1  0  0  0
 31 30  2  0  0  0
 12 15  1  0  0  0
  2  3  1  0  0  0
  2  4  1  0  0  0
M  END
> <minimizedAffinity>
-7.09236

$$$$
3DA9_44U_B_1


 31 33  0  0  0  0  0  0  0  0999 V2000
   18.2262  -15.2864   23.2986 C   0  0  0  0  0  0  0  0  0  0  0  0
   17.0236  -16.0937   23.5500 N   0  0  0  0  0  0  0  0  0  0  0  0
   16.4372  -15.6244   24.2402 H   0  0  0  0  0  0  0  0  0  0  0  0
   17.2974  -17.0105   23.9036 H   0  0  0  0  0  0  0  0  0  0  0  0
   18.1723  -11.9616   21.2956 C   0  0  0  0  0  0  0  0  0  0  0  0
   19.1840  -11.6936   20.1570 C   0  0  0  0  0  0  0  0  0  0  0  0
   20.4240  -12.5146   20.6136 C   0  0  0  0  0  0  0  0  0  0  0  0
   19.7381  -13.7655   21.2145 C   0  0  0  0  0  0  0  0  0  0  0  0
   17.7754  -13.9377   22.7994 C   0  0  0  0  0  0  0  0  0  0  0  0
   18.4999  -13.2800   21.8720 N   0  0  0  0  0  0  0  0  0  0  0  0
   16.7520  -13.4638   23.2728 O   0  0  0  0  0  0  0  0  0  0  0  0
   15.8246  -11.1841   21.3322 N   0  0  0  0  0  0  0  0  0  0  0  0
   16.7481  -12.0082   20.7818 C   0  0  0  0  0  0  0  0  0  0  0  0
   16.4597  -12.8009   19.8924 O   0  0  0  0  0  0  0  0  0  0  0  0
   16.0990  -10.5606   22.0429 H   0  0  0  0  0  0  0  0  0  0  0  0
   14.4298  -11.1996   20.8948 C   0  0  0  0  0  0  0  0  0  0  0  0
   12.5114  -10.6798   22.3983 C   0  0  0  0  0  0  0  0  0  0  0  0
   13.5606  -11.7327   22.0370 C   0  0  0  0  0  0  0  0  0  0  0  0
   19.1158  -15.1199   24.5517 C   0  0  0  0  0  0  0  0  0  0  0  0
   17.5926  -15.0489   26.5918 C   0  0  0  0  0  0  0  0  0  0  0  0
   17.0480  -15.6529   27.7249 C   0  0  0  0  0  0  0  0  0  0  0  0
   17.4272  -16.9486   28.0721 C   0  0  0  0  0  0  0  0  0  0  0  0
   18.3364  -17.6407   27.2775 C   0  0  0  0  0  0  0  0  0  0  0  0
   18.5129  -15.7410   25.7997 C   0  0  0  0  0  0  0  0  0  0  0  0
   18.8732  -17.0341   26.1421 C   0  0  0  0  0  0  0  0  0  0  0  0
   20.5353  -15.6450   24.3607 C   0  0  0  0  0  0  0  0  0  0  0  0
   23.1417  -16.6270   24.0012 C   0  0  0  0  0  0  0  0  0  0  0  0
   21.5979  -15.1680   25.1289 C   0  0  0  0  0  0  0  0  0  0  0  0
   22.8891  -15.6526   24.9534 C   0  0  0  0  0  0  0  0  0  0  0  0
   22.0916  -17.1042   23.2194 C   0  0  0  0  0  0  0  0  0  0  0  0
   20.7993  -16.6145   23.3946 C   0  0  0  0  0  0  0  0  0  0  0  0
 17 18  1  0  0  0
 18 16  1  0  0  0
 16 12  1  0  0  0
  6  5  1  0  0  0
 13  5  1  0  0  0
  5 10  1  0  0  0
  6  7  1  0  0  0
  7  8  1  0  0  0
  8 10  1  0  0  0
 10  9  1  0  0  0
  9 11  2  0  0  0
  9  1  1  0  0  0
  2  1  1  0  0  0
  1 19  1  0  0  0
 20 24  2  0  0  0
 20 21  1  0  0  0
 21 22  2  0  0  0
 22 23  1  0  0  0
 25 23  2  0  0  0
 28 26  2  0  0  0
 19 26  1  0  0  0
 26 31  1  0  0  0
 29 27  2  0  0  0
 27 30  1  0  0  0
 13 12  1  0  0  0
 14 13  2  0  0  0
 19 24  1  0  0  0
 24 25  1  0  0  0
 28 29  1  0  0  0
 31 30  2  0  0  0
 12 15  1  0  0  0
  2  3  1  0  0  0
  2  4  1  0  0  0
M  END
> <minimizedAffinity>
-6.98443

$$$$
3DA9_44U_B_1


 31 33  0  0  0  0  0  0  0  0999 V2000
   18.2984  -15.4748   23.2591 C   0  0  0  0  0  0  0  0  0  0  0  0
   18.1416  -16.9352   23.1993 N   0  0  0  0  0  0  0  0  0  0  0  0
   17.3054  -17.2088   23.7153 H   0  0  0  0  0  0  0  0  0  0  0  0
   18.9590  -17.3822   23.6148 H   0  0  0  0  0  0  0  0  0  0  0  0
   16.0391  -13.0549   21.2322 C   0  0  0  0  0  0  0  0  0  0  0  0
   16.6466  -11.9638   20.3198 C   0  0  0  0  0  0  0  0  0  0  0  0
   17.9912  -11.6440   21.0336 C   0  0  0  0  0  0  0  0  0  0  0  0
   18.4138  -13.0574   21.5026 C   0  0  0  0  0  0  0  0  0  0  0  0
   17.0631  -14.8571   22.6560 C   0  0  0  0  0  0  0  0  0  0  0  0
   17.1618  -13.7555   21.8853 N   0  0  0  0  0  0  0  0  0  0  0  0
   15.9836  -15.3766   22.9025 O   0  0  0  0  0  0  0  0  0  0  0  0
   14.0341  -14.4661   20.9066 N   0  0  0  0  0  0  0  0  0  0  0  0
   15.2423  -14.0702   20.4392 C   0  0  0  0  0  0  0  0  0  0  0  0
   15.7149  -14.5226   19.4026 O   0  0  0  0  0  0  0  0  0  0  0  0
   13.6902  -14.0757   21.7424 H   0  0  0  0  0  0  0  0  0  0  0  0
   13.2293  -15.4598   20.1982 C   0  0  0  0  0  0  0  0  0  0  0  0
   11.1733  -16.8621   20.3284 C   0  0  0  0  0  0  0  0  0  0  0  0
   12.0470  -15.8600   21.0849 C   0  0  0  0  0  0  0  0  0  0  0  0
   18.5092  -14.9476   24.6969 C   0  0  0  0  0  0  0  0  0  0  0  0
   19.4383  -17.0369   25.8189 C   0  0  0  0  0  0  0  0  0  0  0  0
   19.3695  -18.0208   26.8049 C   0  0  0  0  0  0  0  0  0  0  0  0
   18.3175  -18.0160   27.7194 C   0  0  0  0  0  0  0  0  0  0  0  0
   17.3479  -17.0197   27.6548 C   0  0  0  0  0  0  0  0  0  0  0  0
   18.4589  -16.0422   25.7485 C   0  0  0  0  0  0  0  0  0  0  0  0
   17.4249  -16.0347   26.6704 C   0  0  0  0  0  0  0  0  0  0  0  0
   19.7951  -14.1440   24.8647 C   0  0  0  0  0  0  0  0  0  0  0  0
   22.1533  -12.6530   25.1846 C   0  0  0  0  0  0  0  0  0  0  0  0
   20.8312  -14.2247   23.9336 C   0  0  0  0  0  0  0  0  0  0  0  0
   21.9996  -13.4874   24.0892 C   0  0  0  0  0  0  0  0  0  0  0  0
   21.1310  -12.5713   26.1280 C   0  0  0  0  0  0  0  0  0  0  0  0
   19.9627  -13.3138   25.9718 C   0  0  0  0  0  0  0  0  0  0  0  0
 17 18  1  0  0  0
 18 16  1  0  0  0
 16 12  1  0  0  0
  6  5  1  0  0  0
 13  5  1  0  0  0
  5 10  1  0  0  0
  6  7  1  0  0  0
  7  8  1  0  0  0
  8 10  1  0  0  0
 10  9  1  0  0  0
  9 11  2  0  0  0
  9  1  1  0  0  0
  2  1  1  0  0  0
  1 19  1  0  0  0
 20 24  2  0  0  0
 20 21  1  0  0  0
 21 22  2  0  0  0
 22 23  1  0  0  0
 25 23  2  0  0  0
 28 26  2  0  0  0
 19 26  1  0  0  0
 26 31  1  0  0  0
 29 27  2  0  0  0
 27 30  1  0  0  0
 13 12  1  0  0  0
 14 13  2  0  0  0
 19 24  1  0  0  0
 24 25  1  0  0  0
 28 29  1  0  0  0
 31 30  2  0  0  0
 12 15  1  0  0  0
  2  3  1  0  0  0
  2  4  1  0  0  0
M  END
> <minimizedAffinity>
-6.90594

$$$$
3DA9_44U_B_1


 31 33  0  0  0  0  0  0  0  0999 V2000
   18.9705  -15.6990   23.0690 C   0  0  0  0  0  0  0  0  0  0  0  0
   20.3421  -16.2210   23.1553 N   0  0  0  0  0  0  0  0  0  0  0  0
   20.6954  -16.0933   24.1036 H   0  0  0  0  0  0  0  0  0  0  0  0
   20.9393  -15.7177   22.4993 H   0  0  0  0  0  0  0  0  0  0  0  0
   15.9639  -17.6083   24.6131 C   0  0  0  0  0  0  0  0  0  0  0  0
   14.7380  -18.0029   23.7568 C   0  0  0  0  0  0  0  0  0  0  0  0
   14.7063  -16.8779   22.6828 C   0  0  0  0  0  0  0  0  0  0  0  0
   16.2199  -16.6801   22.4255 C   0  0  0  0  0  0  0  0  0  0  0  0
   18.1302  -16.4539   24.0666 C   0  0  0  0  0  0  0  0  0  0  0  0
   16.8875  -16.8603   23.7382 N   0  0  0  0  0  0  0  0  0  0  0  0
   18.6061  -16.6657   25.1733 O   0  0  0  0  0  0  0  0  0  0  0  0
   17.0557  -18.8557   26.4487 N   0  0  0  0  0  0  0  0  0  0  0  0
   16.6931  -18.8253   25.1439 C   0  0  0  0  0  0  0  0  0  0  0  0
   16.9532  -19.7467   24.3785 O   0  0  0  0  0  0  0  0  0  0  0  0
   16.8250  -18.0953   27.0299 H   0  0  0  0  0  0  0  0  0  0  0  0
   17.7817  -19.9919   27.0135 C   0  0  0  0  0  0  0  0  0  0  0  0
   17.9858  -18.3339   28.8628 C   0  0  0  0  0  0  0  0  0  0  0  0
   17.8583  -19.8222   28.5332 C   0  0  0  0  0  0  0  0  0  0  0  0
   18.8833  -14.1799   23.3411 C   0  0  0  0  0  0  0  0  0  0  0  0
   21.2558  -13.5055   23.9764 C   0  0  0  0  0  0  0  0  0  0  0  0
   22.1792  -13.0430   24.9137 C   0  0  0  0  0  0  0  0  0  0  0  0
   21.7689  -12.7706   26.2178 C   0  0  0  0  0  0  0  0  0  0  0  0
   20.4354  -12.9462   26.5754 C   0  0  0  0  0  0  0  0  0  0  0  0
   19.9187  -13.6908   24.3388 C   0  0  0  0  0  0  0  0  0  0  0  0
   19.5150  -13.4031   25.6324 C   0  0  0  0  0  0  0  0  0  0  0  0
   18.9613  -13.3325   22.0750 C   0  0  0  0  0  0  0  0  0  0  0  0
   19.1226  -11.7773   19.7421 C   0  0  0  0  0  0  0  0  0  0  0  0
   18.0563  -12.2982   21.8338 C   0  0  0  0  0  0  0  0  0  0  0  0
   18.1340  -11.5265   20.6800 C   0  0  0  0  0  0  0  0  0  0  0  0
   20.0262  -12.8144   19.9651 C   0  0  0  0  0  0  0  0  0  0  0  0
   19.9441  -13.5887   21.1202 C   0  0  0  0  0  0  0  0  0  0  0  0
 17 18  1  0  0  0
 18 16  1  0  0  0
 16 12  1  0  0  0
  6  5  1  0  0  0
 13  5  1  0  0  0
  5 10  1  0  0  0
  6  7  1  0  0  0
  7  8  1  0  0  0
  8 10  1  0  0  0
 10  9  1  0  0  0
  9 11  2  0  0  0
  9  1  1  0  0  0
  2  1  1  0  0  0
  1 19  1  0  0  0
 20 24  2  0  0  0
 20 21  1  0  0  0
 21 22  2  0  0  0
 22 23  1  0  0  0
 25 23  2  0  0  0
 28 26  2  0  0  0
 19 26  1  0  0  0
 26 31  1  0  0  0
 29 27  2  0  0  0
 27 30  1  0  0  0
 13 12  1  0  0  0
 14 13  2  0  0  0
 19 24  1  0  0  0
 24 25  1  0  0  0
 28 29  1  0  0  0
 31 30  2  0  0  0
 12 15  1  0  0  0
  2  3  1  0  0  0
  2  4  1  0  0  0
M  END
> <minimizedAffinity>
-6.79713

$$$$
3DA9_44U_B_1


 31 33  0  0  0  0  0  0  0  0999 V2000
   15.9496  -14.7793   21.6984 C   0  0  0  0  0  0  0  0  0  0  0  0
   15.4021  -15.5214   22.8433 N   0  0  0  0  0  0  0  0  0  0  0  0
   15.6121  -16.5139   22.7370 H   0  0  0  0  0  0  0  0  0  0  0  0
   14.3914  -15.3899   22.8817 H   0  0  0  0  0  0  0  0  0  0  0  0
   19.7491  -14.1182   21.2562 C   0  0  0  0  0  0  0  0  0  0  0  0
   20.2907  -12.6943   20.9897 C   0  0  0  0  0  0  0  0  0  0  0  0
   19.1093  -12.0257   20.2300 C   0  0  0  0  0  0  0  0  0  0  0  0
   17.9004  -12.6275   20.9868 C   0  0  0  0  0  0  0  0  0  0  0  0
   17.4373  -15.0182   21.6677 C   0  0  0  0  0  0  0  0  0  0  0  0
   18.2780  -14.0226   21.3223 N   0  0  0  0  0  0  0  0  0  0  0  0
   17.8442  -16.1371   21.9481 O   0  0  0  0  0  0  0  0  0  0  0  0
   19.9240  -14.0283   23.7217 N   0  0  0  0  0  0  0  0  0  0  0  0
   20.2491  -14.6715   22.5746 C   0  0  0  0  0  0  0  0  0  0  0  0
   20.9493  -15.6775   22.5732 O   0  0  0  0  0  0  0  0  0  0  0  0
   19.3570  -13.2246   23.6784 H   0  0  0  0  0  0  0  0  0  0  0  0
   20.3959  -14.5005   25.0222 C   0  0  0  0  0  0  0  0  0  0  0  0
   20.7599  -12.2885   26.1109 C   0  0  0  0  0  0  0  0  0  0  0  0
   21.4561  -13.5275   25.5452 C   0  0  0  0  0  0  0  0  0  0  0  0
   15.3162  -15.1936   20.3505 C   0  0  0  0  0  0  0  0  0  0  0  0
   12.8147  -15.4513   20.7546 C   0  0  0  0  0  0  0  0  0  0  0  0
   11.6799  -16.2513   20.8862 C   0  0  0  0  0  0  0  0  0  0  0  0
   11.7903  -17.6369   20.7822 C   0  0  0  0  0  0  0  0  0  0  0  0
   13.0308  -18.2161   20.5317 C   0  0  0  0  0  0  0  0  0  0  0  0
   14.0617  -16.0342   20.5127 C   0  0  0  0  0  0  0  0  0  0  0  0
   14.1614  -17.4109   20.3950 C   0  0  0  0  0  0  0  0  0  0  0  0
   15.0178  -14.0117   19.4332 C   0  0  0  0  0  0  0  0  0  0  0  0
   14.4791  -11.8436   17.7314 C   0  0  0  0  0  0  0  0  0  0  0  0
   14.5731  -12.7902   19.9402 C   0  0  0  0  0  0  0  0  0  0  0  0
   14.3061  -11.7151   19.1002 C   0  0  0  0  0  0  0  0  0  0  0  0
   14.9120  -13.0614   17.2106 C   0  0  0  0  0  0  0  0  0  0  0  0
   15.1754  -14.1384   18.0540 C   0  0  0  0  0  0  0  0  0  0  0  0
 17 18  1  0  0  0
 18 16  1  0  0  0
 16 12  1  0  0  0
  6  5  1  0  0  0
 13  5  1  0  0  0
  5 10  1  0  0  0
  6  7  1  0  0  0
  7  8  1  0  0  0
  8 10  1  0  0  0
 10  9  1  0  0  0
  9 11  2  0  0  0
  9  1  1  0  0  0
  2  1  1  0  0  0
  1 19  1  0  0  0
 20 24  2  0  0  0
 20 21  1  0  0  0
 21 22  2  0  0  0
 22 23  1  0  0  0
 25 23  2  0  0  0
 28 26  2  0  0  0
 19 26  1  0  0  0
 26 31  1  0  0  0
 29 27  2  0  0  0
 27 30  1  0  0  0
 13 12  1  0  0  0
 14 13  2  0  0  0
 19 24  1  0  0  0
 24 25  1  0  0  0
 28 29  1  0  0  0
 31 30  2  0  0  0
 12 15  1  0  0  0
  2  3  1  0  0  0
  2  4  1  0  0  0
M  END
> <minimizedAffinity>
-6.77984

$$$$
3DA9_44U_B_1


 31 33  0  0  0  0  0  0  0  0999 V2000
   18.5889  -16.3992   23.6855 C   0  0  0  0  0  0  0  0  0  0  0  0
   17.9357  -17.7113   23.7988 N   0  0  0  0  0  0  0  0  0  0  0  0
   16.9440  -17.5812   23.9988 H   0  0  0  0  0  0  0  0  0  0  0  0
   18.3682  -18.2424   24.5546 H   0  0  0  0  0  0  0  0  0  0  0  0
   15.7785  -15.0401   21.3783 C   0  0  0  0  0  0  0  0  0  0  0  0
   14.2863  -15.2952   21.6946 C   0  0  0  0  0  0  0  0  0  0  0  0
   14.3332  -16.6581   22.4431 C   0  0  0  0  0  0  0  0  0  0  0  0
   15.6284  -16.4884   23.2736 C   0  0  0  0  0  0  0  0  0  0  0  0
   17.9067  -15.6430   22.5747 C   0  0  0  0  0  0  0  0  0  0  0  0
   16.5707  -15.7284   22.4159 N   0  0  0  0  0  0  0  0  0  0  0  0
   18.6032  -14.9726   21.8254 O   0  0  0  0  0  0  0  0  0  0  0  0
   16.8729  -13.0346   20.4308 N   0  0  0  0  0  0  0  0  0  0  0  0
   16.1175  -13.5644   21.4226 C   0  0  0  0  0  0  0  0  0  0  0  0
   15.7155  -12.8871   22.3619 O   0  0  0  0  0  0  0  0  0  0  0  0
   17.1733  -13.6134   19.6933 H   0  0  0  0  0  0  0  0  0  0  0  0
   17.2522  -11.6228   20.4307 C   0  0  0  0  0  0  0  0  0  0  0  0
   19.6040  -12.1632   19.8081 C   0  0  0  0  0  0  0  0  0  0  0  0
   18.7156  -11.5052   20.8653 C   0  0  0  0  0  0  0  0  0  0  0  0
   18.5358  -15.5820   24.9966 C   0  0  0  0  0  0  0  0  0  0  0  0
   19.2553  -17.5355   26.4639 C   0  0  0  0  0  0  0  0  0  0  0  0
   19.1175  -18.3043   27.6194 C   0  0  0  0  0  0  0  0  0  0  0  0
   18.1258  -17.9921   28.5478 C   0  0  0  0  0  0  0  0  0  0  0  0
   17.2866  -16.9043   28.3256 C   0  0  0  0  0  0  0  0  0  0  0  0
   18.4059  -16.4491   26.2367 C   0  0  0  0  0  0  0  0  0  0  0  0
   17.4328  -16.1353   27.1713 C   0  0  0  0  0  0  0  0  0  0  0  0
   19.7167  -14.6312   25.1657 C   0  0  0  0  0  0  0  0  0  0  0  0
   21.9023  -12.8946   25.4728 C   0  0  0  0  0  0  0  0  0  0  0  0
   19.6083  -13.4618   25.9192 C   0  0  0  0  0  0  0  0  0  0  0  0
   20.6887  -12.6006   26.0733 C   0  0  0  0  0  0  0  0  0  0  0  0
   22.0213  -14.0535   24.7082 C   0  0  0  0  0  0  0  0  0  0  0  0
   20.9363  -14.9132   24.5523 C   0  0  0  0  0  0  0  0  0  0  0  0
 17 18  1  0  0  0
 18 16  1  0  0  0
 16 12  1  0  0  0
  6  5  1  0  0  0
 13  5  1  0  0  0
  5 10  1  0  0  0
  6  7  1  0  0  0
  7  8  1  0  0  0
  8 10  1  0  0  0
 10  9  1  0  0  0
  9 11  2  0  0  0
  9  1  1  0  0  0
  2  1  1  0  0  0
  1 19  1  0  0  0
 20 24  2  0  0  0
 20 21  1  0  0  0
 21 22  2  0  0  0
 22 23  1  0  0  0
 25 23  2  0  0  0
 28 26  2  0  0  0
 19 26  1  0  0  0
 26 31  1  0  0  0
 29 27  2  0  0  0
 27 30  1  0  0  0
 13 12  1  0  0  0
 14 13  2  0  0  0
 19 24  1  0  0  0
 24 25  1  0  0  0
 28 29  1  0  0  0
 31 30  2  0  0  0
 12 15  1  0  0  0
  2  3  1  0  0  0
  2  4  1  0  0  0
M  END
> <minimizedAffinity>
-6.68848

$$$$
3DA9_44U_B_1


 31 33  0  0  0  0  0  0  0  0999 V2000
   18.6651  -15.5797   23.1170 C   0  0  0  0  0  0  0  0  0  0  0  0
   19.5792  -16.3280   23.9920 N   0  0  0  0  0  0  0  0  0  0  0  0
   19.3053  -16.1926   24.9652 H   0  0  0  0  0  0  0  0  0  0  0  0
   20.5321  -15.9900   23.8568 H   0  0  0  0  0  0  0  0  0  0  0  0
   14.9848  -16.6250   22.4599 C   0  0  0  0  0  0  0  0  0  0  0  0
   14.4018  -16.6539   21.0277 C   0  0  0  0  0  0  0  0  0  0  0  0
   15.2224  -15.5429   20.3119 C   0  0  0  0  0  0  0  0  0  0  0  0
   16.6184  -15.7607   20.9443 C   0  0  0  0  0  0  0  0  0  0  0  0
   17.2708  -16.0953   23.3642 C   0  0  0  0  0  0  0  0  0  0  0  0
   16.3752  -16.1410   22.3576 N   0  0  0  0  0  0  0  0  0  0  0  0
   16.9834  -16.4497   24.4991 O   0  0  0  0  0  0  0  0  0  0  0  0
   15.8767  -18.9271   22.6087 N   0  0  0  0  0  0  0  0  0  0  0  0
   15.0067  -18.0045   23.0851 C   0  0  0  0  0  0  0  0  0  0  0  0
   14.2265  -18.2602   23.9953 O   0  0  0  0  0  0  0  0  0  0  0  0
   16.4881  -18.6796   21.8779 H   0  0  0  0  0  0  0  0  0  0  0  0
   15.9285  -20.2819   23.1553 C   0  0  0  0  0  0  0  0  0  0  0  0
   18.3419  -19.7137   23.4069 C   0  0  0  0  0  0  0  0  0  0  0  0
   17.1472  -20.3965   24.0751 C   0  0  0  0  0  0  0  0  0  0  0  0
   18.7173  -14.0528   23.3523 C   0  0  0  0  0  0  0  0  0  0  0  0
   19.4781  -13.3453   25.6778 C   0  0  0  0  0  0  0  0  0  0  0  0
   20.4867  -12.9789   26.5686 C   0  0  0  0  0  0  0  0  0  0  0  0
   21.8068  -12.8975   26.1286 C   0  0  0  0  0  0  0  0  0  0  0  0
   22.1158  -13.1977   24.8053 C   0  0  0  0  0  0  0  0  0  0  0  0
   19.7877  -13.6373   24.3465 C   0  0  0  0  0  0  0  0  0  0  0  0
   21.1040  -13.5695   23.9202 C   0  0  0  0  0  0  0  0  0  0  0  0
   18.8810  -13.2473   22.0671 C   0  0  0  0  0  0  0  0  0  0  0  0
   19.1997  -11.7702   19.7000 C   0  0  0  0  0  0  0  0  0  0  0  0
   18.0255  -12.1897   21.7563 C   0  0  0  0  0  0  0  0  0  0  0  0
   18.1812  -11.4565   20.5854 C   0  0  0  0  0  0  0  0  0  0  0  0
   20.0544  -12.8311   19.9925 C   0  0  0  0  0  0  0  0  0  0  0  0
   19.8942  -13.5667   21.1646 C   0  0  0  0  0  0  0  0  0  0  0  0
 17 18  1  0  0  0
 18 16  1  0  0  0
 16 12  1  0  0  0
  6  5  1  0  0  0
 13  5  1  0  0  0
  5 10  1  0  0  0
  6  7  1  0  0  0
  7  8  1  0  0  0
  8 10  1  0  0  0
 10  9  1  0  0  0
  9 11  2  0  0  0
  9  1  1  0  0  0
  2  1  1  0  0  0
  1 19  1  0  0  0
 20 24  2  0  0  0
 20 21  1  0  0  0
 21 22  2  0  0  0
 22 23  1  0  0  0
 25 23  2  0  0  0
 28 26  2  0  0  0
 19 26  1  0  0  0
 26 31  1  0  0  0
 29 27  2  0  0  0
 27 30  1  0  0  0
 13 12  1  0  0  0
 14 13  2  0  0  0
 19 24  1  0  0  0
 24 25  1  0  0  0
 28 29  1  0  0  0
 31 30  2  0  0  0
 12 15  1  0  0  0
  2  3  1  0  0  0
  2  4  1  0  0  0
M  END
> <minimizedAffinity>
-6.68025

$$$$
